1HJZ_0_B_α-x0895_1_A_α
     RDKit          3D

 24 25  0  0  0  0  0  0  0  0999 V2000
    1.2590   20.9340   -7.4980 O   0  0  0  0  0  0  0  0  0  0  0  0
   -0.0320   19.9720   -7.6140 S   0  0  0  0  0  0  0  0  0  0  0  0
    0.1930   18.7930   -8.6840 O   0  0  0  0  0  0  0  0  0  0  0  0
   -0.5510   19.4050   -6.1860 O   0  0  0  0  0  0  0  0  0  0  0  0
   -1.3040   21.0400   -8.2650 C   0  0  0  0  0  0  0  0  0  0  0  0
   -2.0320   21.8090   -7.1910 C   0  0  0  0  0  0  0  0  0  0  0  0
   -0.0650   18.1780   -5.6060 C   0  0  0  0  0  0  0  0  0  0  0  0
   -1.1610   17.6050   -4.6860 C   0  0  0  0  0  0  0  0  0  0  0  0
   -3.4210   22.1910   -7.5110 N   0  0  0  0  0  0  0  0  0  0  0  0
   -0.6700   16.5880   -3.6170 C   0  0  0  0  0  0  0  0  0  0  0  0
   -3.5380   22.6800   -8.8940 C   0  0  0  0  0  0  0  0  0  0  0  0
   -3.8560   23.3260   -6.6790 C   0  0  0  0  0  0  0  0  0  0  0  0
   -1.8360   15.7890   -2.9760 C   0  0  0  0  0  0  0  0  0  0  0  0
   -4.9440   23.1570   -9.2650 C   0  0  0  0  0  0  0  0  0  0  0  0
   -5.2470   23.8440   -7.0330 C   0  0  0  0  0  0  0  0  0  0  0  0
   -1.6190   15.2610   -1.5260 C   0  0  0  0  0  0  0  0  0  0  0  0
   -5.3430   24.2270   -8.4120 O   0  0  0  0  0  0  0  0  0  0  0  0
   -2.8080   15.4740   -0.5650 C   0  0  1  0  0  0  0  0  0  0  0  0
   -4.0310   14.7550   -0.8320 N   0  0  0  0  0  0  0  0  0  0  0  0
   -2.6010   14.9760    0.8830 C   0  0  0  0  0  0  0  0  0  0  0  0
   -1.5570   14.9310    1.5300 O   0  0  0  0  0  0  0  0  0  0  0  0
   -3.8220   14.5920    1.3390 N   0  0  0  0  0  0  0  0  0  0  0  0
   -4.7350   14.6770    0.3480 C   0  0  0  0  0  0  0  0  0  0  0  0
   -5.9490   14.6920    0.4670 O   0  0  0  0  0  0  0  0  0  0  0  0
  2  1  1  0
  2  3  1  0
  2  4  1  0
  2  5  1  0
  5  6  1  0
  4  7  1  0
  7  8  1  0
  6  9  1  0
  8 10  1  0
  9 11  1  0
  9 12  1  0
 10 13  1  0
 11 14  1  0
 12 15  1  0
 13 16  1  0
 14 17  1  0
 15 17  1  0
 18 16  1  6
 18 19  1  0
 18 20  1  0
 20 21  2  0
 20 22  1  0
 19 23  1  0
 22 23  1  0
 23 24  2  0
M  END
