1HJZ_0_A_α-mArh-x0969_0_A_α
     RDKit          3D

 27 29  0  0  0  0  0  0  0  0999 V2000
    1.2680   20.9460   -7.5050 O   0  0  0  0  0  0  0  0  0  0  0  0
   -0.0290   19.9980   -7.6390 S   0  0  0  0  0  0  0  0  0  0  0  0
    0.2000   18.8050   -8.6950 O   0  0  0  0  0  0  0  0  0  0  0  0
   -0.5840   19.4360   -6.2350 O   0  0  0  0  0  0  0  0  0  0  0  0
   -1.2930   21.0700   -8.2860 C   0  0  0  0  0  0  0  0  0  0  0  0
   -2.0520   21.7830   -7.1910 C   0  0  0  0  0  0  0  0  0  0  0  0
   -0.2210   18.1350   -5.7680 C   0  0  0  0  0  0  0  0  0  0  0  0
   -1.5070   17.3910   -5.3950 C   0  0  0  0  0  0  0  0  0  0  0  0
   -3.4490   22.1390   -7.4950 N   0  0  0  0  0  0  0  0  0  0  0  0
   -1.2900   16.0830   -4.6280 C   0  0  0  0  0  0  0  0  0  0  0  0
   -3.5810   22.6130   -8.8780 C   0  0  0  0  0  0  0  0  0  0  0  0
   -3.8680   23.2930   -6.6750 C   0  0  0  0  0  0  0  0  0  0  0  0
   -2.5080   15.5210   -3.8580 C   0  0  0  0  0  0  0  0  0  0  0  0
   -4.9860   23.0880   -9.2520 C   0  0  0  0  0  0  0  0  0  0  0  0
   -5.2580   23.8120   -7.0300 C   0  0  0  0  0  0  0  0  0  0  0  0
   -2.2110   14.8380   -2.5040 C   0  0  0  0  0  0  0  0  0  0  0  0
   -5.3680   24.1770   -8.4110 O   0  0  0  0  0  0  0  0  0  0  0  0
   -3.3330   14.8810   -1.4720 C   0  0  0  0  0  0  0  0  0  0  0  0
   -4.6230   14.8240   -1.8570 C   0  0  0  0  0  0  0  0  0  0  0  0
   -3.0010   14.9640   -0.0370 C   0  0  0  0  0  0  0  0  0  0  0  0
   -5.6660   14.8000   -0.8940 C   0  0  0  0  0  0  0  0  0  0  0  0
   -3.9930   14.9510    0.8800 C   0  0  0  0  0  0  0  0  0  0  0  0
   -6.9700   14.7170   -1.0160 N   0  0  0  0  0  0  0  0  0  0  0  0
   -5.3180   14.8530    0.4460 N   0  0  0  0  0  0  0  0  0  0  0  0
   -6.5390   14.7860    1.1210 C   0  0  0  0  0  0  0  0  0  0  0  0
   -7.5130   14.7060    0.2450 N   0  0  0  0  0  0  0  0  0  0  0  0
   -6.6960   14.8080    2.4610 N   0  0  0  0  0  0  0  0  0  0  0  0
  2  1  1  0
  2  3  1  0
  2  4  1  0
  2  5  1  0
  5  6  1  0
  4  7  1  0
  7  8  1  0
  6  9  1  0
  8 10  1  0
  9 11  1  0
  9 12  1  0
 10 13  1  0
 11 14  1  0
 12 15  1  0
 13 16  1  0
 14 17  1  0
 15 17  1  0
 16 18  1  0
 18 19  2  0
 18 20  1  0
 19 21  1  0
 20 22  2  0
 21 23  2  0
 21 24  1  0
 22 24  1  0
 24 25  1  0
 23 26  1  0
 25 26  2  0
 25 27  1  0
M  END
