1HJZ_0_B_α-5LW0_0_A_α
     RDKit          3D

 20 21  0  0  0  0  0  0  0  0999 V2000
    0.3440   21.0250   -7.7020 O   0  0  0  0  0  0  0  0  0  0  0  0
   -1.1050   20.3500   -7.5510 S   0  0  0  0  0  0  0  0  0  0  0  0
   -1.0330   18.9020   -8.2480 O   0  0  0  0  0  0  0  0  0  0  0  0
   -1.4900   20.3000   -5.9980 O   0  0  0  0  0  0  0  0  0  0  0  0
   -2.2550   21.4700   -8.3750 C   0  0  2  0  0  0  0  0  0  0  0  0
   -1.8200   22.8800   -7.9670 C   0  0  0  0  0  0  0  0  0  0  0  0
   -3.7590   21.5130   -8.0570 C   0  0  2  0  0  0  0  0  0  0  0  0
   -2.9090   23.8730   -8.1430 N   0  0  0  0  0  0  0  0  0  0  0  0
   -4.4660   20.4180   -7.4700 O   0  0  0  0  0  0  0  0  0  0  0  0
   -4.6970   22.1230   -9.1040 C   0  0  1  0  0  0  0  0  0  0  0  0
   -4.3960   21.9050  -10.4860 O   0  0  0  0  0  0  0  0  0  0  0  0
   -3.6970   23.6690   -9.3880 C   0  0  0  0  0  0  0  0  0  0  0  0
   -3.6710   24.0950   -6.8860 C   0  0  0  0  0  0  0  0  0  0  0  0
   -5.7740   20.9740   -7.3570 C   0  0  1  0  0  0  0  0  0  0  0  0
   -6.0750   21.6570   -8.6860 C   0  0  1  0  0  0  0  0  0  0  0  0
   -6.7140   19.9480   -7.1590 O   0  0  0  0  0  0  0  0  0  0  0  0
   -6.9600   22.7730   -8.6420 O   0  0  0  0  0  0  0  0  0  0  0  0
   -5.2140   23.8960   -9.4160 C   0  0  0  0  0  0  0  0  0  0  0  0
   -5.1800   23.9570   -6.9990 C   0  0  0  0  0  0  0  0  0  0  0  0
   -5.7670   24.4200   -8.2120 O   0  0  0  0  0  0  0  0  0  0  0  0
  2  1  1  0
  2  3  1  0
  2  4  1  0
  2  5  1  0
  5  6  1  1
  5  7  1  0
  6  8  1  0
  7  9  1  6
  7 10  1  0
 10 11  1  6
  8 12  1  0
  8 13  1  0
  9 14  1  0
 10 15  1  0
 14 15  1  0
 14 16  1  6
 15 17  1  1
 12 18  1  0
 13 19  1  0
 18 20  1  0
 19 20  1  0
M  END
