1SPV_0_A_α-5cb5_K_0_K_γ
     RDKit          3D

 21 22  0  0  0  0  0  0  0  0999 V2000
    1.0550   20.6140   -7.4610 O   0  0  0  0  0  0  0  0  0  0  0  0
   -0.0530   19.4650   -7.6470 S   0  0  0  0  0  0  0  0  0  0  0  0
    0.2990   18.5260   -8.8730 O   0  0  0  0  0  0  0  0  0  0  0  0
   -0.3740   18.5710   -6.3350 O   0  0  0  0  0  0  0  0  0  0  0  0
   -1.5670   20.2300   -8.1520 C   0  0  0  0  0  0  0  0  0  0  0  0
   -1.8690   21.6380   -7.7010 C   0  0  0  0  0  0  0  0  0  0  0  0
    0.6400   18.2590   -5.3670 C   0  0  0  0  0  0  0  0  0  0  0  0
    0.9350   16.7570   -5.2780 C   0  0  0  0  0  0  0  0  0  0  0  0
   -3.3330   21.8730   -7.7350 N   0  0  0  0  0  0  0  0  0  0  0  0
   -3.8020   22.4180   -9.0300 C   0  0  0  0  0  0  0  0  0  0  0  0
   -3.7640   22.7570   -6.6470 C   0  0  0  0  0  0  0  0  0  0  0  0
   -0.2560   15.8460   -4.9810 C   0  0  2  0  0  0  0  0  0  0  0  0
   -5.3150   22.6450   -9.0490 C   0  0  0  0  0  0  0  0  0  0  0  0
   -5.2390   23.1490   -6.6950 C   0  0  0  0  0  0  0  0  0  0  0  0
   -0.5290   15.9620   -3.5670 O   0  0  0  0  0  0  0  0  0  0  0  0
   -0.0420   14.3350   -5.2270 C   0  0  1  0  0  0  0  0  0  0  0  0
    1.3060   13.9300   -4.9790 O   0  0  0  0  0  0  0  0  0  0  0  0
   -5.7510   23.5050   -7.9910 O   0  0  0  0  0  0  0  0  0  0  0  0
   -0.7330   14.6530   -3.0010 C   0  0  0  0  0  0  0  0  0  0  0  0
   -0.9620   13.7330   -4.1870 C   0  0  2  0  0  0  0  0  0  0  0  0
   -0.5390   12.4010   -3.8830 O   0  0  0  0  0  0  0  0  0  0  0  0
  2  1  1  0
  2  3  1  0
  2  4  1  0
  2  5  1  0
  5  6  1  0
  4  7  1  0
  7  8  1  0
  6  9  1  0
  9 10  1  0
  9 11  1  0
 12  8  1  1
 10 13  1  0
 11 14  1  0
 12 15  1  0
 12 16  1  0
 16 17  1  1
 13 18  1  0
 14 18  1  0
 15 19  1  0
 16 20  1  0
 19 20  1  0
 20 21  1  1
M  END
