1SPV_0_A_α-5CB5_0_J_α
     RDKit          3D

 14 14  0  0  0  0  0  0  0  0999 V2000
    1.0650   20.6760   -7.5040 O   0  0  0  0  0  0  0  0  0  0  0  0
   -0.2390   19.7830   -7.7930 S   0  0  0  0  0  0  0  0  0  0  0  0
    0.0660   18.6240   -8.8450 O   0  0  0  0  0  0  0  0  0  0  0  0
   -0.8560   19.1430   -6.4680 O   0  0  0  0  0  0  0  0  0  0  0  0
   -1.4100   20.9360   -8.5010 C   0  0  0  0  0  0  0  0  0  0  0  0
   -2.5700   21.2790   -7.5810 C   0  0  0  0  0  0  0  0  0  0  0  0
   -3.2300   22.5900   -7.8200 N   0  0  0  0  0  0  0  0  0  0  0  0
   -4.0720   22.7010   -9.0670 C   0  0  2  0  0  0  0  0  0  0  0  0
   -4.0360   22.9160   -6.6400 C   0  0  0  0  0  0  0  0  0  0  0  0
   -3.8630   23.9970   -9.5520 O   0  0  0  0  0  0  0  0  0  0  0  0
   -5.6300   22.6370   -8.9920 C   0  0  0  0  0  0  0  0  0  0  0  0
   -5.3380   22.1830   -6.8300 C   0  0  1  0  0  0  0  0  0  0  0  0
   -5.9540   21.7790   -5.6350 O   0  0  0  0  0  0  0  0  0  0  0  0
   -6.1690   22.8880   -7.6970 O   0  0  0  0  0  0  0  0  0  0  0  0
  2  1  1  0
  2  3  1  0
  2  4  1  0
  2  5  1  0
  5  6  1  0
  6  7  1  0
  7  8  1  0
  7  9  1  0
  8 10  1  1
  8 11  1  0
  9 12  1  0
 12 13  1  1
 11 14  1  0
 12 14  1  0
M  END
