1SPV_0_A_α-x0104_0_A_β
     RDKit          3D

 25 26  0  0  0  0  0  0  0  0999 V2000
    1.0680   20.7480   -7.5940 O   0  0  0  0  0  0  0  0  0  0  0  0
   -0.0680   19.6140   -7.6620 S   0  0  0  0  0  0  0  0  0  0  0  0
    0.2490   18.5730   -8.8300 O   0  0  0  0  0  0  0  0  0  0  0  0
   -0.2990   18.8050   -6.2900 O   0  0  0  0  0  0  0  0  0  0  0  0
   -1.6070   20.3290   -8.1650 C   0  0  0  0  0  0  0  0  0  0  0  0
   -1.9500   21.6960   -7.6400 C   0  0  0  0  0  0  0  0  0  0  0  0
   -1.5900   18.4370   -5.7860 C   0  0  0  0  0  0  0  0  0  0  0  0
   -1.7670   16.9180   -5.7570 C   0  0  0  0  0  0  0  0  0  0  0  0
   -3.3820   22.0170   -7.6410 N   0  0  0  0  0  0  0  0  0  0  0  0
   -2.1440   16.3330   -4.4090 C   0  0  0  0  0  0  0  0  0  0  0  0
   -4.0980   21.9930   -8.9130 C   0  0  0  0  0  0  0  0  0  0  0  0
   -3.8100   23.1450   -6.8320 C   0  0  0  0  0  0  0  0  0  0  0  0
   -3.0200   15.0810   -4.3240 C   0  0  0  0  0  0  0  0  0  0  0  0
   -4.9190   23.2420   -9.2120 C   0  0  0  0  0  0  0  0  0  0  0  0
   -5.3150   23.4050   -6.8630 C   0  0  0  0  0  0  0  0  0  0  0  0
   -3.3890   14.7230   -2.8670 C   0  0  0  0  0  0  0  0  0  0  0  0
   -5.8840   23.4770   -8.1810 O   0  0  0  0  0  0  0  0  0  0  0  0
   -4.7700   15.0120   -2.6490 O   0  0  0  0  0  0  0  0  0  0  0  0
   -5.2960   14.9190   -1.3810 C   0  0  0  0  0  0  0  0  0  0  0  0
   -4.4040   14.9020   -0.3610 N   0  0  0  0  0  0  0  0  0  0  0  0
   -6.6650   14.8490   -1.1680 C   0  0  0  0  0  0  0  0  0  0  0  0
   -4.9150   14.8210    0.9000 C   0  0  0  0  0  0  0  0  0  0  0  0
   -7.1540   14.7610    0.1320 C   0  0  0  0  0  0  0  0  0  0  0  0
   -6.2760   14.7490    1.2010 C   0  0  0  0  0  0  0  0  0  0  0  0
   -6.7650   14.6720    2.5060 N   0  0  0  0  0  0  0  0  0  0  0  0
  2  1  1  0
  2  3  1  0
  2  4  1  0
  2  5  1  0
  5  6  1  0
  4  7  1  0
  7  8  1  0
  6  9  1  0
  8 10  1  0
  9 11  1  0
  9 12  1  0
 10 13  1  0
 11 14  1  0
 12 15  1  0
 13 16  1  0
 14 17  1  0
 15 17  1  0
 16 18  1  0
 18 19  1  0
 19 20  2  0
 19 21  1  0
 20 22  1  0
 21 23  2  0
 22 24  2  0
 23 24  1  0
 24 25  1  0
M  END
