1SPV_0_A_α-5CMS_0_P_δ
     RDKit          3D

 26 28  0  0  0  0  0  0  0  0999 V2000
    1.0920   20.7400   -7.5770 O   0  0  0  0  0  0  0  0  0  0  0  0
   -0.0360   19.5960   -7.6760 S   0  0  0  0  0  0  0  0  0  0  0  0
    0.2560   18.5520   -8.8430 O   0  0  0  0  0  0  0  0  0  0  0  0
   -0.3590   18.8130   -6.3000 O   0  0  0  0  0  0  0  0  0  0  0  0
   -1.5590   20.3200   -8.1950 C   0  0  0  0  0  0  0  0  0  0  0  0
   -1.9360   21.6860   -7.6840 C   0  0  0  0  0  0  0  0  0  0  0  0
    0.6550   18.1210   -5.5580 C   0  0  0  0  0  0  0  0  0  0  0  0
    0.1680   16.7270   -5.1700 C   0  0  0  0  0  0  0  0  0  0  0  0
   -3.3990   21.8960   -7.7240 N   0  0  0  0  0  0  0  0  0  0  0  0
   -0.3940   16.6240   -3.7400 C   0  0  0  0  0  0  0  0  0  0  0  0
   -3.8690   22.4310   -9.0210 C   0  0  0  0  0  0  0  0  0  0  0  0
   -3.8060   22.8030   -6.6440 C   0  0  0  0  0  0  0  0  0  0  0  0
   -0.4190   15.1480   -3.2840 C   0  0  0  0  0  0  0  0  0  0  0  0
   -5.3800   22.6580   -9.0430 C   0  0  0  0  0  0  0  0  0  0  0  0
   -5.2780   23.1950   -6.6910 C   0  0  0  0  0  0  0  0  0  0  0  0
   -5.8000   23.5290   -7.9890 O   0  0  0  0  0  0  0  0  0  0  0  0
   -1.4560   14.8070   -2.3080 N   0  0  0  0  0  0  0  0  0  0  0  0
   -1.2480   14.9860   -0.8860 C   0  0  1  0  0  0  0  0  0  0  0  0
   -2.8300   15.2340   -2.6040 C   0  0  0  0  0  0  0  0  0  0  0  0
   -2.6640   14.7970   -0.3750 C   0  0  2  0  0  0  0  0  0  0  0  0
   -3.4520   15.5910   -1.3220 N   0  0  0  0  0  0  0  0  0  0  0  0
   -0.3150   14.0880   -0.2130 N   0  0  0  0  0  0  0  0  0  0  0  0
   -0.3260   14.3520    1.2230 C   0  0  0  0  0  0  0  0  0  0  0  0
   -2.5820   15.2800    1.0490 C   0  0  1  0  0  0  0  0  0  0  0  0
   -3.8510   15.3600    1.7520 N   0  0  0  0  0  0  0  0  0  0  0  0
   -1.6710   14.4570    1.7920 N   0  0  0  0  0  0  0  0  0  0  0  0
  2  1  1  0
  2  3  1  0
  2  4  1  0
  2  5  1  0
  5  6  1  0
  4  7  1  0
  7  8  1  0
  6  9  1  0
  8 10  1  0
  9 11  1  0
  9 12  1  0
 10 13  1  0
 11 14  1  0
 12 15  1  0
 14 16  1  0
 15 16  1  0
 13 17  1  0
 17 18  1  0
 17 19  1  0
 18 20  1  0
 19 21  1  0
 20 21  1  6
 18 22  1  1
 22 23  1  0
 20 24  1  0
 24 25  1  1
 23 26  1  0
 24 26  1  0
M  END
