1VHU_0_A_α-5cb5_N_0_N_α
     RDKit          3D

 14 14  0  0  0  0  0  0  0  0999 V2000
    0.1850   18.7730   -8.7160 O   0  0  0  0  0  0  0  0  0  0  0  0
   -0.0480   19.9600   -7.6630 S   0  0  0  0  0  0  0  0  0  0  0  0
   -0.6250   19.3730   -6.2910 O   0  0  0  0  0  0  0  0  0  0  0  0
    1.2580   20.8710   -7.4330 O   0  0  0  0  0  0  0  0  0  0  0  0
   -1.2770   21.0580   -8.3140 C   0  0  0  0  0  0  0  0  0  0  0  0
   -1.9850   21.8740   -7.2640 C   0  0  0  0  0  0  0  0  0  0  0  0
   -3.3850   22.2140   -7.5570 N   0  0  0  0  0  0  0  0  0  0  0  0
   -3.5080   22.7050   -8.9410 C   0  0  0  0  0  0  0  0  0  0  0  0
   -3.7990   23.3460   -6.7080 C   0  0  0  0  0  0  0  0  0  0  0  0
   -4.8990   23.2350   -9.3440 C   0  0  2  0  0  0  0  0  0  0  0  0
   -5.2620   23.6100   -7.0290 C   0  0  2  0  0  0  0  0  0  0  0  0
   -4.7690   23.9970  -10.5250 O   0  0  0  0  0  0  0  0  0  0  0  0
   -5.9630   22.3740   -6.8530 O   0  0  0  0  0  0  0  0  0  0  0  0
   -5.4650   24.0850   -8.3580 O   0  0  0  0  0  0  0  0  0  0  0  0
  2  1  1  0
  2  3  1  0
  2  4  1  0
  2  5  1  0
  5  6  1  0
  6  7  1  0
  7  8  1  0
  7  9  1  0
  8 10  1  0
  9 11  1  0
 10 12  1  6
 11 13  1  6
 10 14  1  0
 11 14  1  0
M  END
