1VHU_0_A_Î±
     RDKit          3D

 12 12  0  0  0  0  0  0  0  0999 V2000
   -5.5220   24.3870   -8.2110 O   0  0  0  0  0  0  0  0  0  0  0  0
    0.2040   19.2170   -8.7220 O   0  0  0  0  0  0  0  0  0  0  0  0
   -5.2610   23.8730   -6.9170 C   0  0  0  0  0  0  0  0  0  0  0  0
   -0.6940   19.6040   -6.4870 O   0  0  0  0  0  0  0  0  0  0  0  0
   -3.7790   23.5640   -6.7330 C   0  0  0  0  0  0  0  0  0  0  0  0
    0.9440   21.1100   -7.4480 O   0  0  0  0  0  0  0  0  0  0  0  0
   -3.3340   22.5840   -7.7560 N   0  0  0  0  0  0  0  0  0  0  0  0
   -3.6520   23.1730   -9.0900 C   0  0  0  0  0  0  0  0  0  0  0  0
   -5.1260   23.4820   -9.2500 C   0  0  0  0  0  0  0  0  0  0  0  0
   -1.8850   22.3240   -7.6190 C   0  0  0  0  0  0  0  0  0  0  0  0
   -1.4940   21.1490   -8.4960 C   0  0  0  0  0  0  0  0  0  0  0  0
   -0.1540   20.1960   -7.7190 S   0  0  0  0  0  0  0  0  0  0  0  0
  1  3  1  0
  1  9  1  0
  3  5  1  0
  9  8  1  0
 12  2  1  0
 12  4  1  0
 12  6  1  0
 12 11  1  0
  5  7  1  0
  7  8  1  0
  7 10  1  0
 10 11  1  0
M  END
