2BFQ_1_A_α-3EW5_0_C_α
     RDKit          3D

 16 17  0  0  0  0  0  0  0  0999 V2000
   -2.9230   20.8700   -7.6230 C   0  0  2  0  0  0  0  0  0  0  0  0
   -1.7750   21.0250   -8.3420 O   0  0  0  0  0  0  0  0  0  0  0  0
   -0.8040   19.7430   -7.8290 P   0  0  0  0  0  0  0  0  0  0  0  0
   -4.0110   21.8250   -7.8680 N   0  0  0  0  0  0  0  0  0  0  0  0
   -2.5530   21.2040   -6.2300 C   0  0  0  0  0  0  0  0  0  0  0  0
   -4.2910   22.2350   -9.1930 C   0  0  0  0  0  0  0  0  0  0  0  0
   -3.5410   22.1280   -5.8490 O   0  0  0  0  0  0  0  0  0  0  0  0
   -3.5960   22.8600   -7.0070 C   0  0  2  0  0  0  0  0  0  0  0  0
   -4.5340   23.6380   -9.2460 N   0  0  0  0  0  0  0  0  0  0  0  0
    0.3510   20.6870   -7.5210 O   0  0  0  0  0  0  0  0  0  0  0  0
    0.1510   18.9100   -8.8620 O   0  0  0  0  0  0  0  0  0  0  0  0
   -0.9840   19.1180   -6.3510 O   0  0  0  0  0  0  0  0  0  0  0  0
   -4.3980   24.1050   -6.9910 C   0  0  2  0  0  0  0  0  0  0  0  0
   -5.1970   24.2510   -5.8610 O   0  0  0  0  0  0  0  0  0  0  0  0
   -4.9810   24.1340  -10.4070 O   0  0  0  0  0  0  0  0  0  0  0  0
   -5.3190   24.0460   -8.1390 C   0  0  0  0  0  0  0  0  0  0  0  0
  1  2  1  6
  2  3  1  0
  1  4  1  0
  1  5  1  0
  4  6  1  0
  5  7  1  0
  4  8  1  0
  8  7  1  1
  6  9  1  0
  3 10  1  0
  3 11  1  0
  3 12  1  0
  8 13  1  0
 13 14  1  1
  9 15  1  0
  9 16  1  0
 13 16  1  0
M  CHG  1  11  -1
M  END
