2BFQ_1_A_γ-5CMS_0_H_β
     RDKit          3D

 16 16  0  0  0  0  0  0  0  0999 V2000
   -1.6710   13.1610   -3.8940 O   0  0  0  0  0  0  0  0  0  0  0  0
   -0.4300   13.7750   -3.7390 C   0  0  2  0  0  0  0  0  0  0  0  0
   -0.4170   14.8130   -2.6190 C   0  0  0  0  0  0  0  0  0  0  0  0
   -0.0340   14.5660   -4.9540 C   0  0  2  0  0  0  0  0  0  0  0  0
    1.3500   14.4280   -5.0590 O   0  0  0  0  0  0  0  0  0  0  0  0
    0.0890   15.9760   -3.2310 O   0  0  0  0  0  0  0  0  0  0  0  0
   -0.4710   15.8970   -4.4830 C   0  0  1  0  0  0  0  0  0  0  0  0
   -0.2750   17.1380   -5.3640 C   0  0  0  0  0  0  0  0  0  0  0  0
   -1.8310   17.8560   -5.7340 P   0  0  0  0  0  0  0  0  0  0  0  0
   -1.6610   18.5530   -7.0870 O   0  0  0  0  0  0  0  0  0  0  0  0
   -2.9640   16.9420   -6.6110 O   0  0  0  0  0  0  0  0  0  0  0  0
   -2.2810   19.2270   -5.0510 O   0  0  0  0  0  0  0  0  0  0  0  0
   -0.2820   19.0350   -7.6990 P   0  0  0  0  0  0  0  0  0  0  0  0
   -0.8180   20.3960   -8.1710 O   0  0  0  0  0  0  0  0  0  0  0  0
    0.9290   19.8010   -6.8810 O   0  0  0  0  0  0  0  0  0  0  0  0
    0.1370   18.4840   -9.1550 O   0  0  0  0  0  0  0  0  0  0  0  0
  2  1  1  6
  2  3  1  0
  2  4  1  0
  4  5  1  1
  3  6  1  0
  4  7  1  0
  6  7  1  0
  7  8  1  6
  8  9  1  0
  9 10  1  0
  9 11  1  0
  9 12  1  0
 10 13  1  0
 13 14  1  0
 13 15  1  0
 13 16  1  0
M  CHG  2  11  -1  15  -1
M  END
