2BFQ_1_A_δ-x0631_0_A_β
     RDKit          3D

 23 25  0  0  0  0  0  0  0  0999 V2000
   -4.0520   15.5860    1.8910 N   0  0  0  0  0  0  0  0  0  0  0  0
   -3.0250   14.7080    1.3450 C   0  0  1  0  0  0  0  0  0  0  0  0
   -3.1850   14.4250   -0.1510 C   0  0  2  0  0  0  0  0  0  0  0  0
   -1.7660   15.2860    1.6880 N   0  0  0  0  0  0  0  0  0  0  0  0
   -1.8310   14.2670   -0.8570 C   0  0  1  0  0  0  0  0  0  0  0  0
   -3.8710   15.4600   -0.9310 N   0  0  0  0  0  0  0  0  0  0  0  0
   -0.6160   14.6360    1.1180 C   0  0  0  0  0  0  0  0  0  0  0  0
   -2.0710   14.5920   -2.2600 N   0  0  0  0  0  0  0  0  0  0  0  0
   -3.4350   15.1560   -2.2900 C   0  0  0  0  0  0  0  0  0  0  0  0
   -0.6710   14.9140   -0.2830 N   0  0  0  0  0  0  0  0  0  0  0  0
   -1.9140   13.4670   -3.2000 C   0  0  0  0  0  0  0  0  0  0  0  0
   -2.6450   12.1710   -2.7640 C   0  0  0  0  0  0  0  0  0  0  0  0
   -2.0190   10.8430   -3.2320 C   0  0  0  0  0  0  0  0  0  0  0  0
   -2.8460   10.1090   -4.3010 C   0  0  0  0  0  0  0  0  0  0  0  0
   -2.1960   10.1990   -5.6850 C   0  0  0  0  0  0  0  0  0  0  0  0
   -2.6390    9.1140   -6.6910 C   0  0  0  0  0  0  0  0  0  0  0  0
   -1.6710    7.9300   -6.7980 C   0  0  0  0  0  0  0  0  0  0  0  0
   -0.2360    8.4390   -6.8140 C   0  0  0  0  0  0  0  0  0  0  0  0
   -0.1530    9.5100   -7.8220 N   0  0  0  0  0  0  0  0  0  0  0  0
    0.7760    9.2070   -8.8830 N   0  0  0  0  0  0  0  0  0  0  0  0
    0.2500   10.7510   -7.2440 N   0  0  0  0  0  0  0  0  0  0  0  0
    1.0200   10.5410   -9.3880 C   0  0  0  0  0  0  0  0  0  0  0  0
    1.1880   11.2980   -8.1650 N   0  0  0  0  0  0  0  0  0  0  0  0
  2  1  1  6
  2  3  1  0
  2  4  1  0
  3  5  1  0
  3  6  1  6
  4  7  1  0
  5  8  1  0
  6  9  1  0
  8  9  1  0
  5 10  1  1
  7 10  1  0
  8 11  1  0
 11 12  1  0
 12 13  1  0
 13 14  1  0
 14 15  1  0
 15 16  1  0
 16 17  1  0
 17 18  1  0
 18 19  1  0
 19 20  1  0
 19 21  1  0
 20 22  1  0
 21 23  1  0
 22 23  1  0
M  END
