2BFQ_1_A_δ-5CMS_0_E_γ
     RDKit          3D

 17 19  0  0  0  0  0  0  0  0999 V2000
   -3.8570   15.6960    1.7710 N   0  0  0  0  0  0  0  0  0  0  0  0
   -2.9740   14.8920    0.9440 C   0  0  1  0  0  0  0  0  0  0  0  0
   -2.7010   15.3960   -0.4910 C   0  0  1  0  0  0  0  0  0  0  0  0
   -1.7400   14.7660    1.6990 N   0  0  0  0  0  0  0  0  0  0  0  0
   -1.5990   14.4770   -1.0250 C   0  0  1  0  0  0  0  0  0  0  0  0
   -3.7750   15.2750   -1.4930 N   0  0  0  0  0  0  0  0  0  0  0  0
   -0.5280   15.2330    1.0160 C   0  0  0  0  0  0  0  0  0  0  0  0
   -1.5960   14.6900   -2.5660 C   0  0  1  0  0  0  0  0  0  0  0  0
   -3.0560   15.1680   -2.8000 C   0  0  0  0  0  0  0  0  0  0  0  0
   -0.3670   14.6850   -0.3010 N   0  0  0  0  0  0  0  0  0  0  0  0
   -0.6250   15.7350   -2.9460 O   0  0  0  0  0  0  0  0  0  0  0  0
   -1.0810   13.5120   -3.4690 C   0  0  1  0  0  0  0  0  0  0  0  0
   -1.9580   12.4690   -3.8360 O   0  0  0  0  0  0  0  0  0  0  0  0
   -0.4400   15.6300   -4.3790 C   0  0  2  0  0  0  0  0  0  0  0  0
   -0.4310   14.1390   -4.7100 C   0  0  1  0  0  0  0  0  0  0  0  0
    0.7920   16.3870   -4.8470 C   0  0  0  0  0  0  0  0  0  0  0  0
    0.8610   13.5730   -4.9570 O   0  0  0  0  0  0  0  0  0  0  0  0
  2  1  1  1
  2  3  1  0
  2  4  1  0
  3  5  1  0
  3  6  1  6
  4  7  1  0
  5  8  1  0
  6  9  1  0
  8  9  1  6
  5 10  1  1
  7 10  1  0
  8 11  1  0
  8 12  1  0
 12 13  1  6
 11 14  1  0
 12 15  1  0
 14 15  1  0
 14 16  1  1
 15 17  1  1
M  END
