2BFQ_1_A_α-5CMS_0_E_α
     RDKit          3D

 16 18  0  0  0  0  0  0  0  0999 V2000
   -2.8240   22.0330   -9.2860 C   0  0  0  0  0  0  0  0  0  0  0  0
   -3.8870   22.1180   -8.2910 C   0  0  1  0  0  0  0  0  0  0  0  0
   -3.7550   21.4370   -7.0800 O   0  0  0  0  0  0  0  0  0  0  0  0
   -3.6450   22.3680  -10.4840 C   0  0  1  0  0  0  0  0  0  0  0  0
   -4.0520   23.5590   -7.9790 C   0  0  1  0  0  0  0  0  0  0  0  0
   -4.2560   23.6920  -10.4410 N   0  0  0  0  0  0  0  0  0  0  0  0
   -2.9680   22.4080  -11.8380 C   0  0  2  0  0  0  0  0  0  0  0  0
   -4.5850   24.2530   -9.0990 O   0  0  0  0  0  0  0  0  0  0  0  0
   -2.1120   21.4130  -12.1490 O   0  0  0  0  0  0  0  0  0  0  0  0
   -4.8340   22.0300   -6.3510 C   0  0  1  0  0  0  0  0  0  0  0  0
   -5.1310   23.3990   -6.9640 C   0  0  1  0  0  0  0  0  0  0  0  0
   -3.0200   24.3750  -10.7570 C   0  0  0  0  0  0  0  0  0  0  0  0
   -2.2930   23.7510  -11.8270 C   0  0  1  0  0  0  0  0  0  0  0  0
   -6.0330   21.2980   -6.4610 O   0  0  0  0  0  0  0  0  0  0  0  0
   -5.2260   24.3660   -5.9350 O   0  0  0  0  0  0  0  0  0  0  0  0
   -0.9040   23.7600  -11.5190 O   0  0  0  0  0  0  0  0  0  0  0  0
  2  1  1  6
  2  3  1  0
  4  1  1  1
  2  5  1  0
  4  6  1  0
  4  7  1  0
  5  8  1  6
  6  8  1  0
  7  9  1  1
  3 10  1  0
  5 11  1  0
 10 11  1  0
  6 12  1  0
  7 13  1  0
 12 13  1  0
 10 14  1  6
 11 15  1  1
 13 16  1  1
M  END
