2BFQ_1_A_γ-5cms_F_6_F_α
     RDKit          3D

 21 22  0  0  0  0  0  0  0  0999 V2000
   -0.8870   12.5900   -3.9370 O   0  0  0  0  0  0  0  0  0  0  0  0
   -1.0510   13.9840   -4.0290 C   0  0  1  0  0  0  0  0  0  0  0  0
   -0.6910   14.7330   -2.7530 C   0  0  0  0  0  0  0  0  0  0  0  0
   -0.0660   14.5750   -5.0060 C   0  0  2  0  0  0  0  0  0  0  0  0
    1.2170   13.9770   -4.8180 O   0  0  0  0  0  0  0  0  0  0  0  0
   -0.0720   15.9640   -3.1700 O   0  0  0  0  0  0  0  0  0  0  0  0
   -0.2030   16.0290   -4.6030 C   0  0  1  0  0  0  0  0  0  0  0  0
    0.8140   17.0130   -5.1470 C   0  0  0  0  0  0  0  0  0  0  0  0
    0.3280   18.4200   -5.4790 C   0  0  0  0  0  0  0  0  0  0  0  0
   -0.6410   18.5910   -6.6640 C   0  0  0  0  0  0  0  0  0  0  0  0
   -0.1060   19.5300   -7.7660 C   0  0  0  0  0  0  0  0  0  0  0  0
   -1.1550   20.4500   -8.4230 C   0  0  0  0  0  0  0  0  0  0  0  0
   -0.6970   21.8860   -8.7160 C   0  0  0  0  0  0  0  0  0  0  0  0
   -1.6810   22.7390   -9.5450 C   0  0  2  0  0  0  0  0  0  0  0  0
   -2.3560   21.9930  -10.5740 O   0  0  0  0  0  0  0  0  0  0  0  0
   -1.0380   23.8820  -10.3300 C   0  0  1  0  0  0  0  0  0  0  0  0
    0.1550   23.5400  -11.0130 O   0  0  0  0  0  0  0  0  0  0  0  0
   -3.0530   23.0120  -11.2920 C   0  0  2  0  0  0  0  0  0  0  0  0
   -2.1780   24.2640  -11.2690 C   0  0  2  0  0  0  0  0  0  0  0  0
   -4.2530   23.3480  -10.6090 O   0  0  0  0  0  0  0  0  0  0  0  0
   -1.7300   24.8270  -12.4890 O   0  0  0  0  0  0  0  0  0  0  0  0
  2  1  1  1
  2  3  1  0
  2  4  1  0
  4  5  1  1
  3  6  1  0
  4  7  1  0
  6  7  1  0
  7  8  1  6
  8  9  1  0
  9 10  1  0
 10 11  1  0
 11 12  1  0
 12 13  1  0
 14 13  1  6
 14 15  1  0
 14 16  1  0
 16 17  1  6
 15 18  1  0
 16 19  1  0
 18 19  1  0
 18 20  1  1
 19 21  1  6
M  END
