2BFQ_1_A_α-5CB5_0_R_α
     RDKit          3D

 10 10  0  0  0  0  0  0  0  0999 V2000
   -1.6430   22.2710   -7.7300 C   0  0  0  0  0  0  0  0  0  0  0  0
   -3.1050   22.4150   -8.1750 C   0  0  1  0  0  0  0  0  0  0  0  0
   -4.1010   21.5130   -7.5260 N   0  0  0  0  0  0  0  0  0  0  0  0
   -3.7160   23.8090   -7.8920 C   0  0  1  0  0  0  0  0  0  0  0  0
   -4.5630   24.2800   -8.9430 O   0  0  0  0  0  0  0  0  0  0  0  0
   -3.5950   20.9210   -6.3000 O   0  0  0  0  0  0  0  0  0  0  0  0
   -5.2470   22.3140   -7.1680 C   0  0  2  0  0  0  0  0  0  0  0  0
   -4.5230   23.5300   -6.6340 C   0  0  2  0  0  0  0  0  0  0  0  0
   -6.1070   21.7140   -6.2150 O   0  0  0  0  0  0  0  0  0  0  0  0
   -5.4050   24.5660   -6.2170 O   0  0  0  0  0  0  0  0  0  0  0  0
  2  1  1  1
  2  3  1  0
  2  4  1  0
  4  5  1  6
  3  6  1  0
  3  7  1  0
  4  8  1  0
  7  8  1  0
  7  9  1  1
  8 10  1  6
M  END
