2bfq_0_A_β-6FX7_0_A_δ
     RDKit          3D

 21 22  0  0  0  0  0  0  0  0999 V2000
   -1.3450   21.0350   -8.4620 O   0  0  0  0  0  0  0  0  0  0  0  0
   -0.2650   20.0500   -7.8080 P   0  0  0  0  0  0  0  0  0  0  0  0
   -0.9410   19.7110   -6.4030 O   0  0  0  0  0  0  0  0  0  0  0  0
    0.0420   18.8530   -8.6670 O   0  0  0  0  0  0  0  0  0  0  0  0
    0.9970   21.0160   -7.5530 O   0  0  0  0  0  0  0  0  0  0  0  0
   -1.3410   18.2510   -6.0070 P   0  0  0  0  0  0  0  0  0  0  0  0
   -0.1710   17.3100   -6.4100 O   0  0  0  0  0  0  0  0  0  0  0  0
   -1.6960   17.9870   -4.4160 N   0  0  0  0  0  0  0  0  0  0  0  0
   -2.5900   17.7920   -6.8560 O   0  0  0  0  0  0  0  0  0  0  0  0
   -0.6440   17.1890   -3.7940 C   0  0  0  0  0  0  0  0  0  0  0  0
   -0.9840   16.1670   -2.6660 C   0  0  0  0  0  0  0  0  0  0  0  0
   -2.3710   15.4780   -2.5190 C   0  0  1  0  0  0  0  0  0  0  0  0
   -1.9350   14.1340   -2.1460 N   0  0  0  0  0  0  0  0  0  0  0  0
   -3.2570   15.8560   -1.3470 N   0  0  0  0  0  0  0  0  0  0  0  0
   -1.5630   14.5740   -0.8380 C   0  0  1  0  0  0  0  0  0  0  0  0
   -2.9780   14.7620   -0.4020 C   0  0  1  0  0  0  0  0  0  0  0  0
   -0.7530   13.7250   -0.0250 N   0  0  0  0  0  0  0  0  0  0  0  0
   -2.9190   14.8210    1.1350 C   0  0  2  0  0  0  0  0  0  0  0  0
   -3.8800   15.6960    1.7850 N   0  0  0  0  0  0  0  0  0  0  0  0
   -0.5200   14.4040    1.2410 C   0  0  0  0  0  0  0  0  0  0  0  0
   -1.6180   15.3100    1.5530 N   0  0  0  0  0  0  0  0  0  0  0  0
  1  2  1  0
  2  3  1  0
  2  4  2  0
  2  5  1  0
  3  6  1  0
  6  7  1  0
  6  8  2  3
  6  9  1  0
  8 10  1  0
 10 11  1  0
 12 11  1  1
 12 13  1  0
 12 14  1  0
 15 13  1  6
 16 14  1  6
 15 16  1  0
 15 17  1  0
 16 18  1  0
 18 19  1  6
 17 20  1  0
 18 21  1  0
 20 21  1  0
M  END
