2BFQ_1_A_γ-6fx_7_0A_γ
     RDKit          3D

  8  8  0  0  0  0  0  0  0  0999 V2000
   -0.8870   12.6580   -3.9460 O   0  0  0  0  0  0  0  0  0  0  0  0
   -1.0530   14.0660   -3.9860 C   0  0  1  0  0  0  0  0  0  0  0  0
   -0.6570   14.7330   -2.6720 C   0  0  0  0  0  0  0  0  0  0  0  0
   -0.0380   14.6710   -4.9220 C   0  0  2  0  0  0  0  0  0  0  0  0
    1.2130   14.0000   -4.8190 O   0  0  0  0  0  0  0  0  0  0  0  0
    0.0510   15.9520   -3.0210 O   0  0  0  0  0  0  0  0  0  0  0  0
   -0.1210   16.1110   -4.4320 C   0  0  1  0  0  0  0  0  0  0  0  0
    0.8360   17.1450   -5.0000 C   0  0  0  0  0  0  0  0  0  0  0  0
  2  1  1  1
  2  3  1  0
  2  4  1  0
  4  5  1  1
  3  6  1  0
  4  7  1  0
  6  7  1  0
  7  8  1  6
M  END
