2fav_B_0_B_β-5cms_H_7_H_α
     RDKit          3D

 17 17  0  0  0  0  0  0  0  0999 V2000
   -1.3380   21.5110   -8.4840 O   0  0  0  0  0  0  0  0  0  0  0  0
   -0.2910   20.2410   -8.0050 P   0  0  0  0  0  0  0  0  0  0  0  0
   -0.5490   19.6570   -6.4730 O   0  0  0  0  0  0  0  0  0  0  0  0
   -1.6360   21.6860   -9.8500 C   0  0  1  0  0  0  0  0  0  0  0  0
    0.6710   21.3130   -7.5090 O   0  0  0  0  0  0  0  0  0  0  0  0
   -1.1210   19.1260   -8.5860 O   0  0  0  0  0  0  0  0  0  0  0  0
   -2.9300   22.1360  -10.0800 O   0  0  0  0  0  0  0  0  0  0  0  0
   -0.7880   22.8200  -10.5160 C   0  0  2  0  0  0  0  0  0  0  0  0
   -0.9230   18.2210   -5.9940 P   0  0  0  0  0  0  0  0  0  0  0  0
    0.4190   22.9660   -9.8630 O   0  0  0  0  0  0  0  0  0  0  0  0
   -2.9240   23.3210  -10.7700 C   0  0  2  0  0  0  0  0  0  0  0  0
   -1.6690   24.0190  -10.3550 C   0  0  2  0  0  0  0  0  0  0  0  0
   -1.0670   16.7860   -5.4610 O   0  0  0  0  0  0  0  0  0  0  0  0
   -1.2620   18.7980   -4.4930 O   0  0  0  0  0  0  0  0  0  0  0  0
   -2.2320   18.0700   -6.9820 O   0  0  0  0  0  0  0  0  0  0  0  0
   -4.0460   24.1130  -10.6080 O   0  0  0  0  0  0  0  0  0  0  0  0
   -1.2130   24.9420  -11.3210 O   0  0  0  0  0  0  0  0  0  0  0  0
  1  2  1  0
  2  3  1  0
  4  1  1  1
  2  5  1  0
  2  6  1  0
  4  7  1  0
  4  8  1  0
  3  9  1  0
  8 10  1  1
  7 11  1  0
  8 12  1  0
 11 12  1  0
  9 13  1  0
  9 14  1  0
  9 15  1  0
 11 16  1  1
 12 17  1  6
M  CHG  2   5  -1  14  -1
M  END
