2FAV_0_B_γ-6fx_7_0A_γ
     RDKit          3D

  8  8  0  0  0  0  0  0  0  0999 V2000
   -0.0600   12.2290   -4.3990 O   0  0  0  0  0  0  0  0  0  0  0  0
   -0.3330   13.6270   -4.3270 C   0  0  1  0  0  0  0  0  0  0  0  0
   -0.1820   14.1940   -2.9110 C   0  0  0  0  0  0  0  0  0  0  0  0
    0.7250   14.4340   -5.0380 C   0  0  2  0  0  0  0  0  0  0  0  0
    2.0300   13.9510   -4.7150 O   0  0  0  0  0  0  0  0  0  0  0  0
    0.3430   15.5410   -3.0570 O   0  0  0  0  0  0  0  0  0  0  0  0
    0.2870   15.7760   -4.4710 C   0  0  1  0  0  0  0  0  0  0  0  0
    0.9870   17.0510   -4.8940 C   0  0  0  0  0  0  0  0  0  0  0  0
  2  1  1  1
  2  3  1  0
  2  4  1  0
  4  5  1  1
  3  6  1  0
  4  7  1  0
  6  7  1  0
  7  8  1  1
M  END
