2FAV_0_B_α-3ew5_C_0_C_α
     RDKit          3D

 16 17  0  0  0  0  0  0  0  0999 V2000
   -1.7760   21.2460   -7.1910 C   0  0  1  0  0  0  0  0  0  0  0  0
   -0.8020   19.7800   -7.5410 P   0  0  0  0  0  0  0  0  0  0  0  0
    0.6000   19.7760   -7.0440 O   0  0  0  0  0  0  0  0  0  0  0  0
   -1.6440   22.1800   -8.3190 C   0  0  0  0  0  0  0  0  0  0  0  0
   -3.2850   21.3050   -6.8470 C   0  0  2  0  0  0  0  0  0  0  0  0
   -0.7490   19.7650   -9.1150 O   0  0  0  0  0  0  0  0  0  0  0  0
   -1.6210   18.4470   -7.2220 O   0  0  0  0  0  0  0  0  0  0  0  0
   -2.4640   23.4400   -8.0950 C   0  0  1  0  0  0  0  0  0  0  0  0
   -4.1980   20.4770   -7.5520 O   0  0  0  0  0  0  0  0  0  0  0  0
   -3.9320   22.6940   -7.0030 C   0  0  1  0  0  0  0  0  0  0  0  0
   -3.8350   23.3330   -8.3110 N   0  0  0  0  0  0  0  0  0  0  0  0
   -2.5960   23.5850   -6.7020 O   0  0  0  0  0  0  0  0  0  0  0  0
   -5.4760   21.1850   -7.5350 C   0  0  0  0  0  0  0  0  0  0  0  0
   -5.2910   22.3770   -6.6130 C   0  0  2  0  0  0  0  0  0  0  0  0
   -6.0520   23.5430   -6.8230 O   0  0  0  0  0  0  0  0  0  0  0  0
   -4.1730   22.4270   -9.4010 O   0  0  0  0  0  0  0  0  0  0  0  0
  1  2  1  6
  2  3  2  0
  1  4  1  0
  1  5  1  0
  2  6  1  0
  2  7  1  0
  4  8  1  0
  5  9  1  6
  5 10  1  0
  8 11  1  0
 10 11  1  6
  8 12  1  1
  9 13  1  0
 10 14  1  0
 13 14  1  0
 14 15  1  6
 11 16  1  0
M  END
