2FAV_0_B_α-6fx_7_0A_β
     RDKit          3D

 16 16  0  0  0  0  0  0  0  0999 V2000
   -1.7080   21.8540   -7.8630 C   0  0  0  0  0  0  0  0  0  0  0  0
   -0.7330   20.3360   -7.8020 P   0  0  1  0  0  0  0  0  0  0  0  0
   -0.9360   19.8080   -6.3210 O   0  0  0  0  0  0  0  0  0  0  0  0
   -3.1860   21.7060   -8.2260 C   0  0  1  0  0  0  0  0  0  0  0  0
   -0.8700   19.2040   -8.7670 O   0  0  0  0  0  0  0  0  0  0  0  0
    0.7720   20.8930   -7.7840 O   0  0  0  0  0  0  0  0  0  0  0  0
   -3.7790   20.9180   -7.1870 O   0  0  0  0  0  0  0  0  0  0  0  0
   -4.1400   22.9180   -8.2000 C   0  0  2  0  0  0  0  0  0  0  0  0
   -3.8800   24.0300   -9.0240 O   0  0  0  0  0  0  0  0  0  0  0  0
   -1.5860   18.3980   -6.0020 P   0  0  0  0  0  0  0  0  0  0  0  0
   -4.3990   21.8110   -6.2190 C   0  0  0  0  0  0  0  0  0  0  0  0
   -4.1880   23.2280   -6.7220 C   0  0  2  0  0  0  0  0  0  0  0  0
   -5.2930   24.0920   -6.3940 O   0  0  0  0  0  0  0  0  0  0  0  0
   -0.4240   17.3670   -6.2990 O   0  0  0  0  0  0  0  0  0  0  0  0
   -2.0990   18.2500   -4.6350 O   0  0  0  0  0  0  0  0  0  0  0  0
   -2.6290   18.0810   -7.1500 O   0  0  0  0  0  0  0  0  0  0  0  0
  1  2  1  0
  2  3  1  0
  4  1  1  1
  2  5  2  0
  2  6  1  1
  4  7  1  0
  4  8  1  0
  8  9  1  6
  3 10  1  0
  7 11  1  0
  8 12  1  0
 11 12  1  0
 12 13  1  6
 10 14  1  0
 10 15  2  0
 10 16  1  0
M  END
