
     RDKit          3D

 35 38  0  0  0  0  0  0  0  0999 V2000
   -1.3280   18.1270   -5.7820 P   0  0  0  0  0  0  0  0  0  0  0  0
    0.1340   19.7560   -7.7510 P   0  0  0  0  0  0  0  0  0  0  0  0
    0.9350   17.0570   -4.9120 C   0  0  0  0  0  0  0  0  0  0  0  0
   -0.3460   16.8830   -5.5360 O   0  0  0  0  0  0  0  0  0  0  0  0
    1.3230   15.7400   -4.2030 C   0  0  1  0  0  0  0  0  0  0  0  0
    0.5600   15.5380   -3.0090 O   0  0  0  0  0  0  0  0  0  0  0  0
    1.0710   14.5300   -5.1020 C   0  0  1  0  0  0  0  0  0  0  0  0
    2.1510   13.5770   -4.8520 O   0  0  0  0  0  0  0  0  0  0  0  0
   -0.2700   14.0180   -4.5690 C   0  0  1  0  0  0  0  0  0  0  0  0
   -0.4540   12.6230   -4.7990 O   0  0  0  0  0  0  0  0  0  0  0  0
   -0.1250   14.2930   -3.0800 C   0  0  2  0  0  0  0  0  0  0  0  0
   -4.8110   21.8630   -6.8690 C   0  0  0  0  0  0  0  0  0  0  0  0
   -1.9610   14.3820    1.6680 N   0  0  0  0  0  0  0  0  0  0  0  0
   -1.8120   18.5950   -4.4370 O   0  0  0  0  0  0  0  0  0  0  0  0
    1.2800   20.7190   -7.4890 O   0  0  0  0  0  0  0  0  0  0  0  0
   -0.7120   14.0910    1.2390 C   0  0  0  0  0  0  0  0  0  0  0  0
   -4.1600   23.2250   -6.7010 C   0  0  2  0  0  0  0  0  0  0  0  0
   -2.3190   17.6410   -6.8310 O   0  0  0  0  0  0  0  0  0  0  0  0
    0.3700   18.5460   -8.6200 O   0  0  0  0  0  0  0  0  0  0  0  0
   -5.1200   24.2370   -6.3690 O   0  0  0  0  0  0  0  0  0  0  0  0
   -3.4250   23.4290   -8.0160 C   0  0  2  0  0  0  0  0  0  0  0  0
   -0.3970   14.1070   -0.0790 N   0  0  0  0  0  0  0  0  0  0  0  0
   -0.3710   19.3120   -6.2860 O   0  0  0  0  0  0  0  0  0  0  0  0
   -4.3090   23.8890   -9.0500 O   0  0  0  0  0  0  0  0  0  0  0  0
   -1.3660   14.4550   -0.9930 C   0  0  0  0  0  0  0  0  0  0  0  0
   -2.9790   22.0140   -8.3540 C   0  0  2  0  0  0  0  0  0  0  0  0
   -3.8040   21.1360   -7.5910 O   0  0  0  0  0  0  0  0  0  0  0  0
   -2.7250   14.8140   -0.5870 C   0  0  0  0  0  0  0  0  0  0  0  0
   -1.5320   21.7950   -7.9410 C   0  0  0  0  0  0  0  0  0  0  0  0
   -1.1410   20.4870   -8.3860 O   0  0  0  0  0  0  0  0  0  0  0  0
   -2.9800   14.7610    0.8570 C   0  0  0  0  0  0  0  0  0  0  0  0
   -4.2070   15.0950    1.3400 N   0  0  0  0  0  0  0  0  0  0  0  0
   -3.4260   15.1320   -1.7190 N   0  0  0  0  0  0  0  0  0  0  0  0
   -2.5780   14.9650   -2.7620 C   0  0  0  0  0  0  0  0  0  0  0  0
   -1.3630   14.5440   -2.3230 N   0  0  0  0  0  0  0  0  0  0  0  0
  1  4  1  0
  1 14  1  0
  1 18  1  0
  1 23  1  0
  4  3  1  0
 23  2  1  0
  2 15  1  0
  2 19  1  0
  2 30  1  0
 30 29  1  0
  5  3  1  6
  5  6  1  0
  5  7  1  0
  6 11  1  0
  7  8  1  1
  7  9  1  0
 11  9  1  0
 11 35  1  6
  9 10  1  1
 35 25  1  0
 35 34  1  0
 12 17  1  0
 12 27  1  0
 17 20  1  6
 17 21  1  0
 27 26  1  0
 13 16  1  0
 13 31  1  0
 16 22  1  0
 31 28  1  0
 31 32  1  0
 22 25  1  0
 21 24  1  6
 21 26  1  0
 26 29  1  1
 25 28  1  0
 28 33  1  0
 33 34  1  0
M  CHG  2  14  -1  15  -1
M  END
