2FAV_0_B_α-mArh-x0864_0_A_α
     RDKit          3D

 27 28  0  0  0  0  0  0  0  0999 V2000
   -1.2780   21.9880   -7.8090 C   0  0  0  0  0  0  0  0  0  0  0  0
   -2.7910   21.9880   -8.0260 C   0  0  1  0  0  0  0  0  0  0  0  0
   -3.5040   21.0770   -7.0910 N   0  0  0  0  0  0  0  0  0  0  0  0
   -3.4050   23.4000   -7.7920 C   0  0  1  0  0  0  0  0  0  0  0  0
   -4.2680   23.7720   -8.8960 O   0  0  0  0  0  0  0  0  0  0  0  0
   -2.6070   20.3540   -6.1600 C   0  0  0  0  0  0  0  0  0  0  0  0
   -4.6430   21.7980   -6.4990 C   0  0  0  0  0  0  0  0  0  0  0  0
   -4.2340   23.2740   -6.5080 C   0  0  2  0  0  0  0  0  0  0  0  0
   -5.3900   24.1190   -6.5320 O   0  0  0  0  0  0  0  0  0  0  0  0
   -2.0890   18.9860   -6.6840 C   0  0  0  0  0  0  0  0  0  0  0  0
   -0.6730   18.5730   -6.2760 C   0  0  0  0  0  0  0  0  0  0  0  0
   -0.6020   17.3670   -5.3230 C   0  0  0  0  0  0  0  0  0  0  0  0
    0.8110   16.8550   -5.0100 C   0  0  0  0  0  0  0  0  0  0  0  0
    0.9550   15.5160   -4.2520 C   0  0  0  0  0  0  0  0  0  0  0  0
    0.0120   14.3930   -4.7270 C   0  0  0  0  0  0  0  0  0  0  0  0
    0.6150   12.9650   -4.6550 C   0  0  1  0  0  0  0  0  0  0  0  0
    0.7300   12.4260   -3.2030 C   0  0  0  0  0  0  0  0  0  0  0  0
   -0.0890   11.9730   -5.5170 N   0  0  0  0  0  0  0  0  0  0  0  0
    0.4810   11.1000   -3.0690 O   0  0  0  0  0  0  0  0  0  0  0  0
    1.0220   13.0880   -2.2240 O   0  0  0  0  0  0  0  0  0  0  0  0
   -1.4320   11.7220   -5.3410 C   0  0  0  0  0  0  0  0  0  0  0  0
    0.6050   11.3420   -6.5390 C   0  0  0  0  0  0  0  0  0  0  0  0
    1.6630   11.7240   -6.9930 O   0  0  0  0  0  0  0  0  0  0  0  0
   -2.0330   10.6670   -5.9190 C   0  0  0  0  0  0  0  0  0  0  0  0
   -0.0050   10.0980   -7.0750 C   0  0  0  0  0  0  0  0  0  0  0  0
   -1.2640    9.7840   -6.7630 C   0  0  0  0  0  0  0  0  0  0  0  0
   -2.0810    8.2320   -7.4030 Br  0  0  0  0  0  0  0  0  0  0  0  0
  2  1  1  1
  2  3  1  0
  2  4  1  0
  4  5  1  6
  3  6  1  0
  3  7  1  0
  4  8  1  0
  7  8  1  0
  8  9  1  6
  6 10  1  0
 10 11  1  0
 11 12  1  0
 12 13  1  0
 13 14  1  0
 14 15  1  0
 16 15  1  1
 16 17  1  0
 16 18  1  0
 17 19  1  0
 17 20  2  0
 18 21  1  0
 18 22  1  0
 22 23  2  0
 21 24  2  0
 22 25  1  0
 24 26  1  0
 25 26  2  0
 26 27  1  0
M  END
