2FAV_0_B_α-mArh-6fx_7_0A_α
     RDKit          3D

 15 17  0  0  0  0  0  0  0  0999 V2000
   -3.8820   21.6540   -9.0460 C   0  0  0  0  0  0  0  0  0  0  0  0
   -4.9080   21.5170   -8.0060 C   0  0  1  0  0  0  0  0  0  0  0  0
   -4.4770   20.7400   -6.8680 O   0  0  0  0  0  0  0  0  0  0  0  0
   -4.2150   23.0610   -8.7650 C   0  0  1  0  0  0  0  0  0  0  0  0
   -4.7010   23.0370   -7.6560 C   0  0  1  0  0  0  0  0  0  0  0  0
   -4.8230   24.0350   -9.6180 N   0  0  0  0  0  0  0  0  0  0  0  0
   -5.6640   22.8490   -8.1250 C   0  0  2  0  0  0  0  0  0  0  0  0
   -5.5620   24.0450   -8.3570 O   0  0  0  0  0  0  0  0  0  0  0  0
   -5.8910   21.7580   -7.2250 O   0  0  0  0  0  0  0  0  0  0  0  0
   -3.9670   21.6850   -5.8970 C   0  0  0  0  0  0  0  0  0  0  0  0
   -4.6380   23.0340   -6.1770 C   0  0  1  0  0  0  0  0  0  0  0  0
   -5.7620   23.3220  -10.4470 C   0  0  2  0  0  0  0  0  0  0  0  0
   -6.5700   22.6490   -9.3680 C   0  0  0  0  0  0  0  0  0  0  0  0
   -3.9300   24.1570   -5.6780 O   0  0  0  0  0  0  0  0  0  0  0  0
   -5.1500   22.4310  -11.3470 O   0  0  0  0  0  0  0  0  0  0  0  0
  2  1  1  6
  2  3  1  0
  4  1  1  6
  2  5  1  0
  4  6  1  0
  4  7  1  0
  5  8  1  1
  6  8  1  0
  7  9  1  1
  3 10  1  0
  5 11  1  0
 10 11  1  0
  6 12  1  0
  7 13  1  0
 12 13  1  0
 11 14  1  6
 12 15  1  6
M  END
