2FAV_0_B_δ-mArh-5cms_M_12_M_α
     RDKit          3D

 25 27  0  0  0  0  0  0  0  0999 V2000
   -4.3400   15.0930    1.2150 N   0  0  0  0  0  0  0  0  0  0  0  0
   -2.9740   15.1840    0.7150 C   0  0  2  0  0  0  0  0  0  0  0  0
   -2.8440   14.6110   -0.7030 C   0  0  2  0  0  0  0  0  0  0  0  0
   -2.1720   14.3890    1.6420 N   0  0  0  0  0  0  0  0  0  0  0  0
   -1.3730   14.6200   -0.9740 C   0  0  2  0  0  0  0  0  0  0  0  0
   -3.3320   15.4230   -1.8560 N   0  0  0  0  0  0  0  0  0  0  0  0
   -0.7530   14.1990    1.2370 C   0  0  0  0  0  0  0  0  0  0  0  0
   -1.3270   14.3910   -2.3950 N   0  0  0  0  0  0  0  0  0  0  0  0
   -2.1370   15.5670   -2.7060 C   0  0  1  0  0  0  0  0  0  0  0  0
   -0.6080   13.7730   -0.1420 N   0  0  0  0  0  0  0  0  0  0  0  0
   -2.4350   15.8090   -4.1920 C   0  0  0  0  0  0  0  0  0  0  0  0
   -1.3430   16.6600   -4.8750 C   0  0  0  0  0  0  0  0  0  0  0  0
   -1.7620   17.8420   -5.7620 C   0  0  0  0  0  0  0  0  0  0  0  0
   -0.5370   18.5420   -6.3530 C   0  0  0  0  0  0  0  0  0  0  0  0
   -0.8070   19.5030   -7.5200 C   0  0  0  0  0  0  0  0  0  0  0  0
   -1.9540   20.5220   -7.3950 C   0  0  0  0  0  0  0  0  0  0  0  0
   -2.0560   21.4380   -8.6190 C   0  0  0  0  0  0  0  0  0  0  0  0
   -3.4300   21.9900   -9.0850 C   0  0  2  0  0  0  0  0  0  0  0  0
   -3.7090   21.7170  -10.4590 O   0  0  0  0  0  0  0  0  0  0  0  0
   -3.5780   23.5070   -9.0000 C   0  0  1  0  0  0  0  0  0  0  0  0
   -2.3570   24.1450   -8.7360 O   0  0  0  0  0  0  0  0  0  0  0  0
   -4.6500   22.6560  -10.9900 C   0  0  2  0  0  0  0  0  0  0  0  0
   -4.4490   23.9590  -10.2290 C   0  0  2  0  0  0  0  0  0  0  0  0
   -5.9780   22.2320  -10.8350 O   0  0  0  0  0  0  0  0  0  0  0  0
   -3.9060   24.9460  -11.1490 O   0  0  0  0  0  0  0  0  0  0  0  0
  2  1  1  1
  2  3  1  0
  2  4  1  0
  3  5  1  0
  3  6  1  6
  4  7  1  0
  5  8  1  6
  6  9  1  0
  8  9  1  0
  5 10  1  0
  7 10  1  0
  9 11  1  6
 11 12  1  0
 12 13  1  0
 13 14  1  0
 14 15  1  0
 15 16  1  0
 16 17  1  0
 18 17  1  6
 18 19  1  0
 18 20  1  0
 20 21  1  6
 19 22  1  0
 20 23  1  0
 22 23  1  0
 22 24  1  1
 23 25  1  6
M  END
