2FAV_0_B_Î´
     RDKit          3D

 10 11  0  0  0  0  0  0  0  0999 V2000
   -1.3630   14.5440   -2.3230 N   0  0  0  0  0  0  0  0  0  0  0  0
   -1.3660   14.4550   -0.9930 C   0  0  0  0  0  0  0  0  0  0  0  0
   -2.5780   14.9650   -2.7620 C   0  0  0  0  0  0  0  0  0  0  0  0
   -0.3970   14.1070   -0.0790 N   0  0  0  0  0  0  0  0  0  0  0  0
   -2.7250   14.8140   -0.5870 C   0  0  0  0  0  0  0  0  0  0  0  0
   -3.4260   15.1320   -1.7190 N   0  0  0  0  0  0  0  0  0  0  0  0
   -0.7120   14.0910    1.2390 C   0  0  0  0  0  0  0  0  0  0  0  0
   -2.9800   14.7610    0.8570 C   0  0  0  0  0  0  0  0  0  0  0  0
   -1.9610   14.3820    1.6680 N   0  0  0  0  0  0  0  0  0  0  0  0
   -4.2070   15.0950    1.3400 N   0  0  0  0  0  0  0  0  0  0  0  0
  1  2  1  0
  1  3  1  0
  4  2  1  0
  2  5  1  0
  6  3  1  0
  7  4  1  0
  8  5  1  0
  5  6  1  0
  9  7  1  0
  9  8  1  0
  8 10  1  0
M  END
