2FAV_0_B_β-mArh-EU0241_0_A_α
     RDKit          3D

 22 23  0  0  0  0  0  0  0  0999 V2000
   -1.6650   20.4560   -7.5410 O   0  0  0  0  0  0  0  0  0  0  0  0
   -0.1720   19.8910   -7.8230 P   0  0  0  0  0  0  0  0  0  0  0  0
    0.0310   19.2850   -6.4050 O   0  0  0  0  0  0  0  0  0  0  0  0
    1.1510   20.8930   -7.4970 O   0  0  0  0  0  0  0  0  0  0  0  0
    0.0780   18.5410   -8.6690 O   0  0  0  0  0  0  0  0  0  0  0  0
   -0.9440   17.9490   -5.9010 P   0  0  0  0  0  0  0  0  0  0  0  0
   -0.3210   16.9120   -4.8020 O   0  0  0  0  0  0  0  0  0  0  0  0
   -2.3910   17.6970   -6.6020 O   0  0  0  0  0  0  0  0  0  0  0  0
   -1.6700   18.8630   -4.9410 O   0  0  0  0  0  0  0  0  0  0  0  0
    0.6650   15.9790   -5.1620 C   0  0  0  0  0  0  0  0  0  0  0  0
    1.1560   15.1340   -3.9900 C   0  0  0  0  0  0  0  0  0  0  0  0
    0.3440   15.3500   -2.7690 C   0  0  0  0  0  0  0  0  0  0  0  0
    0.3810   14.4330   -1.6320 N   0  0  0  0  0  0  0  0  0  0  0  0
   -0.6630   14.5280   -0.6990 C   0  0  0  0  0  0  0  0  0  0  0  0
   -1.9350   14.6770   -1.1980 C   0  0  0  0  0  0  0  0  0  0  0  0
   -0.5210   14.5130    0.6720 C   0  0  0  0  0  0  0  0  0  0  0  0
   -3.0130   14.8590   -0.3760 C   0  0  0  0  0  0  0  0  0  0  0  0
   -1.5870   14.6350    1.5220 N   0  0  0  0  0  0  0  0  0  0  0  0
   -2.8220   14.8700    1.0740 C   0  0  0  0  0  0  0  0  0  0  0  0
   -4.3470   15.0620   -0.5950 C   0  0  0  0  0  0  0  0  0  0  0  0
   -4.0340   15.1350    1.5770 N   0  0  0  0  0  0  0  0  0  0  0  0
   -4.9320   15.2430    0.5940 N   0  0  0  0  0  0  0  0  0  0  0  0
  1  2  1  0
  2  3  1  0
  2  4  1  0
  2  5  1  0
  3  6  1  0
  6  7  1  0
  6  8  1  0
  6  9  1  0
  7 10  1  0
 10 11  1  0
 11 12  1  0
 12 13  1  0
 13 14  1  0
 14 15  1  0
 14 16  2  0
 15 17  2  0
 16 18  1  0
 17 19  1  0
 18 19  1  0
 17 20  1  0
 19 21  2  0
 20 22  2  0
 21 22  1  0
M  CHG  2   4  -1   8  -1
M  END
