2fav_B_0_B_α-5CB5_0_G_α
     RDKit          3D

 10 10  0  0  0  0  0  0  0  0999 V2000
   -1.8040   22.3350   -7.7150 C   0  0  0  0  0  0  0  0  0  0  0  0
   -3.2070   21.9360   -8.1510 C   0  0  1  0  0  0  0  0  0  0  0  0
   -3.9020   21.2710   -7.0820 O   0  0  0  0  0  0  0  0  0  0  0  0
   -4.1830   23.0120   -8.6260 C   0  0  2  0  0  0  0  0  0  0  0  0
   -3.7130   24.1560   -9.2200 O   0  0  0  0  0  0  0  0  0  0  0  0
   -5.2500   21.7920   -7.0540 C   0  0  2  0  0  0  0  0  0  0  0  0
   -5.1930   23.2300   -7.5040 C   0  0  0  0  0  0  0  0  0  0  0  0
   -4.9950   24.1360   -6.4510 O   0  0  0  0  0  0  0  0  0  0  0  0
   -5.8140   21.6340   -5.7630 O   0  0  0  0  0  0  0  0  0  0  0  0
   -6.4240   23.6180   -8.0850 O   0  0  0  0  0  0  0  0  0  0  0  0
  2  1  1  1
  2  3  1  0
  2  4  1  0
  4  5  1  1
  3  6  1  0
  4  7  1  0
  6  7  1  0
  7  8  1  0
  6  9  1  1
  7 10  1  0
M  END
