2fav_B_0_B_δ-5cms_E_5_E_α
     RDKit          3D

 25 27  0  0  0  0  0  0  0  0999 V2000
   -4.2640   15.1470    1.3280 N   0  0  0  0  0  0  0  0  0  0  0  0
   -2.9130   15.2170    0.7870 C   0  0  2  0  0  0  0  0  0  0  0  0
   -2.8480   14.6580   -0.6370 C   0  0  2  0  0  0  0  0  0  0  0  0
   -2.0820   14.4020    1.6540 N   0  0  0  0  0  0  0  0  0  0  0  0
   -1.4100   14.7170   -1.0190 C   0  0  2  0  0  0  0  0  0  0  0  0
   -3.4500   15.4640   -1.7140 N   0  0  0  0  0  0  0  0  0  0  0  0
   -0.6760   14.2690    1.1900 C   0  0  0  0  0  0  0  0  0  0  0  0
   -1.4710   14.3990   -2.4320 N   0  0  0  0  0  0  0  0  0  0  0  0
   -2.5160   15.3580   -2.8480 C   0  0  1  0  0  0  0  0  0  0  0  0
   -0.5620   13.9110   -0.2170 N   0  0  0  0  0  0  0  0  0  0  0  0
   -3.2910   14.9700   -4.1220 C   0  0  0  0  0  0  0  0  0  0  0  0
   -2.9530   15.7880   -5.3830 C   0  0  0  0  0  0  0  0  0  0  0  0
   -1.8440   16.8390   -5.2450 C   0  0  0  0  0  0  0  0  0  0  0  0
   -1.9010   17.9720   -6.2730 C   0  0  0  0  0  0  0  0  0  0  0  0
   -1.2830   19.2410   -5.7220 C   0  0  0  0  0  0  0  0  0  0  0  0
   -1.8760   20.5930   -6.1500 C   0  0  0  0  0  0  0  0  0  0  0  0
   -2.6080   20.6300   -7.4660 C   0  0  0  0  0  0  0  0  0  0  0  0
   -3.3440   21.9230   -7.8210 C   0  0  2  0  0  0  0  0  0  0  0  0
   -4.7630   21.9740   -8.0670 O   0  0  0  0  0  0  0  0  0  0  0  0
   -2.9170   22.3530   -9.1340 C   0  0  1  0  0  0  0  0  0  0  0  0
   -3.3270   21.5440  -10.2130 O   0  0  0  0  0  0  0  0  0  0  0  0
   -4.9320   23.0640   -9.0020 C   0  0  2  0  0  0  0  0  0  0  0  0
   -3.5920   23.6820   -9.1560 C   0  0  2  0  0  0  0  0  0  0  0  0
   -5.7480   24.0970   -8.5360 O   0  0  0  0  0  0  0  0  0  0  0  0
   -3.7510   24.4250  -10.3750 O   0  0  0  0  0  0  0  0  0  0  0  0
  2  1  1  1
  2  3  1  0
  2  4  1  0
  3  5  1  0
  3  6  1  6
  4  7  1  0
  5  8  1  6
  6  9  1  0
  8  9  1  0
  5 10  1  0
  7 10  1  0
  9 11  1  6
 11 12  1  0
 12 13  1  0
 13 14  1  0
 14 15  1  0
 15 16  1  0
 16 17  1  0
 18 17  1  6
 18 19  1  0
 18 20  1  0
 20 21  1  6
 19 22  1  0
 20 23  1  0
 22 23  1  0
 22 24  1  1
 23 25  1  6
M  END
