
     RDKit          3D

 10  9  0  0  0  0  0  0  0  0999 V2000
   -0.0910   20.3400   -7.9790 P   0  0  0  0  0  0  0  0  0  0  0  0
   -1.6720   20.7040   -7.7860 O   0  0  0  0  0  0  0  0  0  0  0  0
    0.6270   21.6750   -8.1450 O   0  0  0  0  0  0  0  0  0  0  0  0
    0.0440   19.4440   -9.1990 O   0  0  0  0  0  0  0  0  0  0  0  0
    0.4870   19.5640   -6.7960 O   0  0  0  0  0  0  0  0  0  0  0  0
   -2.3430   21.8390   -8.3410 C   0  0  0  0  0  0  0  0  0  0  0  0
   -3.5230   22.1770   -7.4030 C   0  0  2  0  0  0  0  0  0  0  0  0
   -5.9040   22.0830   -7.0920 O   0  0  0  0  0  0  0  0  0  0  0  0
   -4.8960   22.1710   -8.0850 C   0  0  0  0  0  0  0  0  0  0  0  0
   -3.3220   23.4050   -6.7330 O   0  0  0  0  0  0  0  0  0  0  0  0
  1  2  1  0
  1  3  1  0
  1  4  1  0
  1  5  1  0
  2  6  1  0
  6  7  1  0
  7  9  1  0
  7 10  1  6
  9  8  1  0
M  CHG  1   4  -1
M  END
