3EW5_1_B_α-5CB5_0_N_α
     RDKit          3D

 17 18  0  0  0  0  0  0  0  0999 V2000
   -1.2450   20.0140   -7.8520 P   0  0  0  0  0  0  0  0  0  0  0  0
   -2.2890   21.2660   -8.0260 N   0  0  0  0  0  0  0  0  0  0  0  0
   -2.4010   21.7740   -6.7820 C   0  0  0  0  0  0  0  0  0  0  0  0
   -0.4420   19.5380   -9.1750 O   0  0  0  0  0  0  0  0  0  0  0  0
   -0.6110   18.9960   -6.7630 O   0  0  0  0  0  0  0  0  0  0  0  0
   -0.2060   21.0440   -7.2220 O   0  0  0  0  0  0  0  0  0  0  0  0
   -3.2910   21.8900   -8.8060 C   0  0  1  0  0  0  0  0  0  0  0  0
   -3.7370   21.7060   -6.1540 C   0  0  2  0  0  0  0  0  0  0  0  0
   -4.7570   21.7050   -8.2720 C   0  0  1  0  0  0  0  0  0  0  0  0
   -3.2600   23.4080   -8.8000 C   0  0  1  0  0  0  0  0  0  0  0  0
   -4.7650   21.0350   -6.9680 C   0  0  2  0  0  0  0  0  0  0  0  0
   -4.1870   23.0260   -6.1390 O   0  0  0  0  0  0  0  0  0  0  0  0
   -4.0540   23.9270   -9.8690 O   0  0  0  0  0  0  0  0  0  0  0  0
   -5.2970   23.0980   -8.0170 C   0  0  1  0  0  0  0  0  0  0  0  0
   -4.0280   23.7690   -7.5980 C   0  0  0  0  0  0  0  0  0  0  0  0
   -5.9700   21.3250   -6.3200 O   0  0  0  0  0  0  0  0  0  0  0  0
   -5.7250   23.8220   -9.1580 O   0  0  0  0  0  0  0  0  0  0  0  0
  1  2  1  0
  2  3  1  0
  1  4  1  0
  1  5  1  0
  1  6  1  0
  7  2  1  1
  3  8  1  0
  7  9  1  0
  7 10  1  0
  8 11  1  0
  9 11  1  0
  8 12  1  6
 10 13  1  6
  9 14  1  1
 10 15  1  0
 14 15  1  0
 11 16  1  1
 14 17  1  6
M  CHG  1   5  -1
M  END
