3EW5_1_B_α-5cb5_Q_0_Q_α
     RDKit          3D

 15 15  0  0  0  0  0  0  0  0999 V2000
   -0.7450   19.9680   -7.6720 P   0  0  0  0  0  0  0  0  0  0  0  0
   -1.8910   21.1990   -7.3910 N   0  0  0  0  0  0  0  0  0  0  0  0
   -2.6970   20.6820   -6.3330 C   0  0  0  0  0  0  0  0  0  0  0  0
   -0.3480   19.3720   -9.0640 O   0  0  0  0  0  0  0  0  0  0  0  0
    0.3790   20.9560   -7.6230 O   0  0  0  0  0  0  0  0  0  0  0  0
    0.0400   19.2860   -6.3370 O   0  0  0  0  0  0  0  0  0  0  0  0
   -2.7260   21.8120   -8.3770 C   0  0  1  0  0  0  0  0  0  0  0  0
   -3.7600   21.5510   -5.8340 C   0  0  0  0  0  0  0  0  0  0  0  0
   -3.9130   21.0970   -8.5440 O   0  0  0  0  0  0  0  0  0  0  0  0
   -3.1330   23.2490   -8.2510 C   0  0  0  0  0  0  0  0  0  0  0  0
   -4.9910   21.9300   -8.3010 C   0  0  2  0  0  0  0  0  0  0  0  0
   -4.5020   23.1280   -7.6130 C   0  0  2  0  0  0  0  0  0  0  0  0
   -5.3660   24.1610   -7.9200 O   0  0  0  0  0  0  0  0  0  0  0  0
   -5.9870   21.2090   -7.4300 C   0  0  0  0  0  0  0  0  0  0  0  0
   -6.0310   21.7130   -6.1410 O   0  0  0  0  0  0  0  0  0  0  0  0
  1  2  1  0
  2  3  1  0
  1  4  1  0
  1  5  1  0
  1  6  1  0
  7  2  1  1
  3  8  1  0
  7  9  1  0
  7 10  1  0
  9 11  1  0
 10 12  1  0
 11 12  1  0
 12 13  1  6
 11 14  1  1
 14 15  1  0
M  CHG  1   5  -1
M  END
