3ew5_A_0_A_α-5CMS_0_C_γ
     RDKit          3D

 20 20  0  0  0  0  0  0  0  0999 V2000
   -0.2770   20.1240   -7.7980 P   0  0  2  0  0  0  0  0  0  0  0  0
   -1.8490   20.4240   -7.9020 O   0  0  0  0  0  0  0  0  0  0  0  0
   -2.2710   21.7460   -8.2010 C   0  0  0  0  0  0  0  0  0  0  0  0
    0.6530   21.2840   -7.9170 O   0  0  0  0  0  0  0  0  0  0  0  0
   -0.0250   18.9100   -8.8190 O   0  0  0  0  0  0  0  0  0  0  0  0
   -0.1940   19.3620   -6.4010 O   0  0  0  0  0  0  0  0  0  0  0  0
    0.9400   18.5980   -6.0710 C   0  0  0  0  0  0  0  0  0  0  0  0
   -3.4130   22.1990   -7.2790 C   0  0  2  0  0  0  0  0  0  0  0  0
    0.6080   17.8320   -4.8110 C   0  0  0  0  0  0  0  0  0  0  0  0
   -4.7730   22.2190   -7.9860 C   0  0  0  0  0  0  0  0  0  0  0  0
   -3.1660   23.5270   -6.8090 O   0  0  0  0  0  0  0  0  0  0  0  0
    0.0500   16.4460   -5.0830 C   0  0  0  0  0  0  0  0  0  0  0  0
   -5.8020   21.9380   -7.0290 O   0  0  0  0  0  0  0  0  0  0  0  0
    0.6210   15.3330   -4.2330 C   0  0  1  0  0  0  0  0  0  0  0  0
   -0.1140   15.3650   -2.9830 O   0  0  0  0  0  0  0  0  0  0  0  0
    0.5010   13.8860   -4.7200 C   0  0  2  0  0  0  0  0  0  0  0  0
    0.4950   13.7170   -6.1280 O   0  0  0  0  0  0  0  0  0  0  0  0
   -0.8570   14.1430   -2.8410 C   0  0  0  0  0  0  0  0  0  0  0  0
   -0.8460   13.4740   -4.2060 C   0  0  2  0  0  0  0  0  0  0  0  0
   -0.8240   12.0590   -4.1170 O   0  0  0  0  0  0  0  0  0  0  0  0
  1  2  1  0
  2  3  1  0
  1  4  2  0
  1  5  1  6
  1  6  1  0
  6  7  1  0
  3  8  1  0
  7  9  1  0
  8 10  1  0
  8 11  1  6
  9 12  1  0
 10 13  1  0
 14 12  1  6
 14 15  1  0
 14 16  1  0
 16 17  1  6
 15 18  1  0
 16 19  1  0
 18 19  1  0
 19 20  1  1
M  END
