3EW5_0_A_α-5cb3_0_A_β
     RDKit          3D

 15 14  0  0  0  0  0  0  0  0999 V2000
   -0.4730   20.4410   -7.4930 P   0  0  0  0  0  0  0  0  0  0  0  0
   -2.0440   20.5630   -7.9850 O   0  0  0  0  0  0  0  0  0  0  0  0
   -2.3420   21.8660   -8.2890 C   0  0  0  0  0  0  0  0  0  0  0  0
    0.5690   21.6510   -7.7430 O   0  0  0  0  0  0  0  0  0  0  0  0
   -0.0250   19.6640   -8.7090 O   0  0  0  0  0  0  0  0  0  0  0  0
   -0.0890   19.0780   -6.6340 O   0  0  0  0  0  0  0  0  0  0  0  0
   -0.2760   18.4620   -8.8930 O   0  0  0  0  0  0  0  0  0  0  0  0
   -1.3300   18.1520   -6.0590 P   0  0  0  0  0  0  0  0  0  0  0  0
   -3.5080   22.2850   -7.3410 C   0  0  2  0  0  0  0  0  0  0  0  0
   -0.8230   16.6870   -5.3740 O   0  0  0  0  0  0  0  0  0  0  0  0
   -2.5220   17.8960   -6.9670 O   0  0  0  0  0  0  0  0  0  0  0  0
   -2.0240   19.0460   -4.7840 O   0  0  0  0  0  0  0  0  0  0  0  0
   -4.7760   22.2290   -8.0980 C   0  0  0  0  0  0  0  0  0  0  0  0
   -3.2400   23.4840   -6.7720 O   0  0  0  0  0  0  0  0  0  0  0  0
   -5.8640   21.9250   -7.3080 O   0  0  0  0  0  0  0  0  0  0  0  0
  1  2  1  0
  2  3  1  0
  1  4  1  0
  1  5  1  0
  1  6  1  0
  5  7  1  0
  6  8  1  0
  3  9  1  0
  8 10  1  0
  8 11  2  0
  8 12  1  0
  9 13  1  0
  9 14  1  6
 13 15  1  0
M  END
