3q6z_0_A_γ-4IQY_0_B_β
     RDKit          3D

 18 18  0  0  0  0  0  0  0  0999 V2000
   -1.0160   12.5360   -4.4810 O   0  0  0  0  0  0  0  0  0  0  0  0
   -0.7590   13.9080   -4.4210 C   0  0  1  0  0  0  0  0  0  0  0  0
   -0.8040   14.2620   -2.9290 C   0  0  0  0  0  0  0  0  0  0  0  0
    0.7120   14.1920   -4.6930 C   0  0  2  0  0  0  0  0  0  0  0  0
    1.4600   13.1460   -4.2250 O   0  0  0  0  0  0  0  0  0  0  0  0
   -0.1100   15.4830   -2.8950 O   0  0  0  0  0  0  0  0  0  0  0  0
    0.9530   15.3700   -3.8470 C   0  0  2  0  0  0  0  0  0  0  0  0
    0.9530   16.6430   -4.5670 C   0  0  0  0  0  0  0  0  0  0  0  0
   -0.4290   17.2820   -4.6380 C   0  0  0  0  0  0  0  0  0  0  0  0
   -0.8450   17.2940   -5.9570 O   0  0  0  0  0  0  0  0  0  0  0  0
   -1.9090   18.3220   -6.1400 P   0  0  0  0  0  0  0  0  0  0  0  0
   -0.8180   19.4790   -6.5970 O   0  0  0  0  0  0  0  0  0  0  0  0
   -2.2210   18.1460   -4.5930 O   0  0  0  0  0  0  0  0  0  0  0  0
   -2.8150   17.4360   -7.1850 O   0  0  0  0  0  0  0  0  0  0  0  0
   -0.4760   19.8340   -8.0160 P   0  0  0  0  0  0  0  0  0  0  0  0
   -1.9590   20.6270   -8.1610 O   0  0  0  0  0  0  0  0  0  0  0  0
    0.8200   20.6860   -7.5310 O   0  0  0  0  0  0  0  0  0  0  0  0
   -0.3040   18.4020   -8.6760 O   0  0  0  0  0  0  0  0  0  0  0  0
  2  1  1  1
  2  3  1  0
  2  4  1  0
  4  5  1  1
  3  6  1  0
  4  7  1  0
  6  7  1  0
  7  8  1  6
  8  9  1  0
  9 10  1  0
 10 11  1  0
 11 12  1  0
 11 13  1  0
 11 14  1  0
 12 15  1  0
 15 16  1  0
 15 17  1  0
 15 18  1  0
M  CHG  2  13  -1  17  -1
M  END
