3q6z_0_A_α-x0421_0_A_α
     RDKit          3D

 26 28  0  0  0  0  0  0  0  0999 V2000
   -1.4170   22.1800   -7.7660 C   0  0  0  0  0  0  0  0  0  0  0  0
   -2.9220   22.2140   -7.8880 C   0  0  2  0  0  0  0  0  0  0  0  0
   -3.5970   23.6010   -7.8010 C   0  0  1  0  0  0  0  0  0  0  0  0
   -3.4250   21.4360   -6.7950 O   0  0  0  0  0  0  0  0  0  0  0  0
   -4.5470   23.8460   -8.8570 O   0  0  0  0  0  0  0  0  0  0  0  0
   -4.3120   23.5740   -6.4420 C   0  0  2  0  0  0  0  0  0  0  0  0
   -4.5770   22.0940   -6.2880 C   0  0  1  0  0  0  0  0  0  0  0  0
   -5.5570   24.2720   -6.4710 O   0  0  0  0  0  0  0  0  0  0  0  0
   -5.5280   21.7580   -7.2330 O   0  0  0  0  0  0  0  0  0  0  0  0
   -4.7410   20.8660   -7.9610 C   0  0  0  0  0  0  0  0  0  0  0  0
   -4.1630   19.9000   -6.8960 C   0  0  0  0  0  0  0  0  0  0  0  0
   -2.6080   19.6580   -6.6570 C   0  0  0  0  0  0  0  0  0  0  0  0
   -2.1080   18.1710   -6.4680 C   0  0  0  0  0  0  0  0  0  0  0  0
   -1.8840   17.4980   -5.0640 C   0  0  0  0  0  0  0  0  0  0  0  0
   -2.6610   16.1480   -4.7120 C   0  0  0  0  0  0  0  0  0  0  0  0
   -3.3060   15.8910   -3.3720 N   0  0  0  0  0  0  0  0  0  0  0  0
   -2.7370   15.1030   -2.3360 C   0  0  0  0  0  0  0  0  0  0  0  0
   -1.6770   14.5190   -2.5240 O   0  0  0  0  0  0  0  0  0  0  0  0
   -3.4100   14.9940   -0.9830 C   0  0  0  0  0  0  0  0  0  0  0  0
   -2.7520   14.9600    0.2480 C   0  0  0  0  0  0  0  0  0  0  0  0
   -4.7890   14.9000   -0.7300 N   0  0  0  0  0  0  0  0  0  0  0  0
   -3.7150   14.8440    1.2040 N   0  0  0  0  0  0  0  0  0  0  0  0
   -4.9230   14.8080    0.5930 C   0  0  0  0  0  0  0  0  0  0  0  0
   -6.2670   14.6740    1.3700 C   0  0  0  0  0  0  0  0  0  0  0  0
   -7.5970   14.6430    0.6650 C   0  0  0  0  0  0  0  0  0  0  0  0
   -7.0600   13.3960    1.3100 C   0  0  0  0  0  0  0  0  0  0  0  0
  2  1  1  1
  2  3  1  0
  2  4  1  0
  3  5  1  6
  3  6  1  0
  4  7  1  0
  6  7  1  0
  6  8  1  6
  7  9  1  6
  9 10  1  0
 10 11  1  0
 11 12  1  0
 12 13  1  0
 13 14  1  0
 14 15  1  0
 15 16  1  0
 16 17  1  0
 17 18  2  0
 17 19  1  0
 19 20  2  0
 19 21  1  0
 20 22  1  0
 21 23  2  0
 22 23  1  0
 23 24  1  0
 24 25  1  0
 24 26  1  0
 25 26  1  0
M  END
