3q6z_0_A_β-5CB5_0_B_β
     RDKit          3D

  9  8  0  0  0  0  0  0  0  0999 V2000
   -1.6380   20.3320   -8.0030 O   0  0  0  0  0  0  0  0  0  0  0  0
   -0.2390   19.5980   -7.7890 P   0  0  0  0  0  0  0  0  0  0  0  0
   -0.2770   18.9530   -6.3790 O   0  0  0  0  0  0  0  0  0  0  0  0
    0.1220   18.6720   -8.8710 O   0  0  0  0  0  0  0  0  0  0  0  0
    0.7720   20.8320   -7.6660 O   0  0  0  0  0  0  0  0  0  0  0  0
   -1.4710   18.1260   -5.7670 P   0  0  0  0  0  0  0  0  0  0  0  0
   -0.8480   16.7020   -5.4110 O   0  0  0  0  0  0  0  0  0  0  0  0
   -2.0430   18.8740   -4.6300 O   0  0  0  0  0  0  0  0  0  0  0  0
   -2.5210   17.8210   -6.9380 O   0  0  0  0  0  0  0  0  0  0  0  0
  1  2  1  0
  2  3  1  0
  2  4  2  0
  2  5  1  0
  3  6  1  0
  6  7  1  0
  6  8  2  0
  6  9  1  0
M  END
