3q6z_0_A_α-5cms_M_12_M_α
     RDKit          3D

 17 18  0  0  0  0  0  0  0  0999 V2000
   -2.7690   22.1110   -9.0020 C   0  0  0  0  0  0  0  0  0  0  0  0
   -4.0680   21.8080   -8.3620 C   0  0  2  0  0  0  0  0  0  0  0  0
   -4.9240   23.0300   -8.0460 C   0  0  2  0  0  0  0  0  0  0  0  0
   -2.9720   22.8570  -10.2540 C   0  0  2  0  0  0  0  0  0  0  0  0
   -3.8330   21.1290   -7.1170 O   0  0  0  0  0  0  0  0  0  0  0  0
   -3.1730   21.9990  -11.3410 O   0  0  0  0  0  0  0  0  0  0  0  0
   -2.0800   23.8980  -10.8390 C   0  0  1  0  0  0  0  0  0  0  0  0
   -4.6310   24.1380   -8.8810 O   0  0  0  0  0  0  0  0  0  0  0  0
   -1.0040   23.3720  -11.6070 O   0  0  0  0  0  0  0  0  0  0  0  0
   -4.5430   23.2240   -6.6150 C   0  0  2  0  0  0  0  0  0  0  0  0
   -4.7500   21.7660   -6.2520 C   0  0  1  0  0  0  0  0  0  0  0  0
   -3.8690   22.9590  -12.1210 C   0  0  2  0  0  0  0  0  0  0  0  0
   -3.1720   24.3470  -11.8070 C   0  0  2  0  0  0  0  0  0  0  0  0
   -5.4580   24.1200   -5.9830 O   0  0  0  0  0  0  0  0  0  0  0  0
   -6.0670   21.3560   -6.5670 O   0  0  0  0  0  0  0  0  0  0  0  0
   -5.2140   22.9180  -11.6750 O   0  0  0  0  0  0  0  0  0  0  0  0
   -2.6330   25.0150  -12.9430 O   0  0  0  0  0  0  0  0  0  0  0  0
  2  1  1  1
  2  3  1  0
  4  1  1  1
  2  5  1  0
  4  6  1  0
  4  7  1  0
  3  8  1  6
  7  9  1  6
  3 10  1  0
  5 11  1  0
 10 11  1  0
  6 12  1  0
  7 13  1  0
 12 13  1  0
 10 14  1  1
 11 15  1  6
 12 16  1  1
 13 17  1  6
M  END
