3Q6Z_0_A_α-mArh-x0910_0_A_α
     RDKit          3D

 22 23  0  0  0  0  0  0  0  0999 V2000
   -2.0650   21.7350   -8.0620 C   0  0  0  0  0  0  0  0  0  0  0  0
   -3.3850   22.1900   -8.6680 C   0  0  2  0  0  0  0  0  0  0  0  0
   -3.9010   23.4880   -8.0980 C   0  0  1  0  0  0  0  0  0  0  0  0
   -4.4640   21.2750   -8.4440 O   0  0  0  0  0  0  0  0  0  0  0  0
   -4.8440   24.0760   -8.9770 O   0  0  0  0  0  0  0  0  0  0  0  0
   -4.5280   23.0140   -6.8010 C   0  0  2  0  0  0  0  0  0  0  0  0
   -5.1680   21.7050   -7.2740 C   0  0  2  0  0  0  0  0  0  0  0  0
   -5.4260   24.0090   -6.2910 O   0  0  0  0  0  0  0  0  0  0  0  0
   -4.9120   20.7280   -6.3170 O   0  0  0  0  0  0  0  0  0  0  0  0
   -3.7150   20.0720   -6.7710 C   0  0  0  0  0  0  0  0  0  0  0  0
   -2.5350   20.1160   -5.8030 C   0  0  0  0  0  0  0  0  0  0  0  0
   -1.4940   19.0250   -6.1120 C   0  0  0  0  0  0  0  0  0  0  0  0
   -1.0260   18.2070   -4.9040 C   0  0  0  0  0  0  0  0  0  0  0  0
   -1.7500   16.8600   -4.8010 C   0  0  0  0  0  0  0  0  0  0  0  0
   -1.4620   16.0630   -3.5120 C   0  0  0  0  0  0  0  0  0  0  0  0
   -2.7110   15.7140   -2.6870 C   0  0  0  0  0  0  0  0  0  0  0  0
   -2.4760   14.5780   -1.8170 N   0  0  0  0  0  0  0  0  0  0  0  0
   -1.6880   14.7650   -0.7420 C   0  0  0  0  0  0  0  0  0  0  0  0
   -2.1930   14.7580    0.5340 N   0  0  0  0  0  0  0  0  0  0  0  0
   -0.3990   14.9700   -0.6890 N   0  0  0  0  0  0  0  0  0  0  0  0
   -1.2230   14.9590    1.4350 N   0  0  0  0  0  0  0  0  0  0  0  0
   -0.1560   15.0860    0.6510 C   0  0  0  0  0  0  0  0  0  0  0  0
  2  1  1  1
  2  3  1  0
  2  4  1  0
  3  5  1  6
  3  6  1  0
  4  7  1  0
  6  7  1  0
  6  8  1  6
  7  9  1  1
  9 10  1  0
 10 11  1  0
 11 12  1  0
 12 13  1  0
 13 14  1  0
 14 15  1  0
 15 16  1  0
 16 17  1  0
 17 18  1  0
 18 19  1  0
 18 20  2  0
 19 21  1  0
 20 22  1  0
 21 22  2  0
M  END
