3Q6Z_0_A_γ-5cms_A_0_A_α
     RDKit          3D

 21 22  0  0  0  0  0  0  0  0999 V2000
   -0.7700   12.2460   -4.3730 O   0  0  0  0  0  0  0  0  0  0  0  0
   -0.9370   13.6520   -4.3580 C   0  0  1  0  0  0  0  0  0  0  0  0
   -1.1330   14.2200   -2.9560 C   0  0  0  0  0  0  0  0  0  0  0  0
    0.3110   14.3950   -4.7890 C   0  0  2  0  0  0  0  0  0  0  0  0
    1.4390   13.8330   -4.1130 O   0  0  0  0  0  0  0  0  0  0  0  0
   -0.5180   15.5200   -2.9640 O   0  0  0  0  0  0  0  0  0  0  0  0
   -0.1480   15.7750   -4.3290 C   0  0  1  0  0  0  0  0  0  0  0  0
    0.8160   16.9480   -4.3710 C   0  0  0  0  0  0  0  0  0  0  0  0
    0.9370   17.7230   -5.6860 C   0  0  0  0  0  0  0  0  0  0  0  0
   -0.3830   18.2060   -6.3150 C   0  0  0  0  0  0  0  0  0  0  0  0
   -0.2650   19.6300   -6.8610 C   0  0  0  0  0  0  0  0  0  0  0  0
   -1.0060   19.9810   -8.1350 C   0  0  0  0  0  0  0  0  0  0  0  0
   -2.2300   20.8650   -7.8230 C   0  0  0  0  0  0  0  0  0  0  0  0
   -2.7380   21.6430   -9.0250 C   0  0  1  0  0  0  0  0  0  0  0  0
   -4.2110   21.7020   -9.0970 O   0  0  0  0  0  0  0  0  0  0  0  0
   -2.3600   23.1070   -8.9500 C   0  0  1  0  0  0  0  0  0  0  0  0
   -0.9820   23.3130   -9.0110 O   0  0  0  0  0  0  0  0  0  0  0  0
   -4.4330   23.1150   -9.1590 C   0  0  1  0  0  0  0  0  0  0  0  0
   -3.3380   23.3980  -10.0610 C   0  0  1  0  0  0  0  0  0  0  0  0
   -5.5840   23.6480   -9.7380 O   0  0  0  0  0  0  0  0  0  0  0  0
   -3.4200   24.6190  -10.7790 O   0  0  0  0  0  0  0  0  0  0  0  0
  2  1  1  1
  2  3  1  0
  2  4  1  0
  4  5  1  1
  3  6  1  0
  4  7  1  0
  6  7  1  0
  7  8  1  1
  8  9  1  0
  9 10  1  0
 10 11  1  0
 11 12  1  0
 12 13  1  0
 14 13  1  1
 14 15  1  0
 14 16  1  0
 16 17  1  6
 15 18  1  0
 16 19  1  0
 18 19  1  0
 18 20  1  6
 19 21  1  1
M  END
