3Q6Z_0_A_Î±
     RDKit          3D

  9  9  0  0  0  0  0  0  0  0999 V2000
   -1.8990   21.6090   -8.0600 C   0  0  0  0  0  0  0  0  0  0  0  0
   -3.3450   21.8560   -8.4140 C   0  0  2  0  0  0  0  0  0  0  0  0
   -3.9930   23.1570   -7.9320 C   0  0  2  0  0  0  0  0  0  0  0  0
   -4.0500   20.7860   -7.7770 O   0  0  0  0  0  0  0  0  0  0  0  0
   -4.6010   22.7430   -6.5860 C   0  0  2  0  0  0  0  0  0  0  0  0
   -5.0410   23.5430   -8.8750 O   0  0  0  0  0  0  0  0  0  0  0  0
   -5.1550   21.3710   -7.0050 C   0  0  1  0  0  0  0  0  0  0  0  0
   -5.6120   23.7040   -6.1920 O   0  0  0  0  0  0  0  0  0  0  0  0
   -6.2110   21.3840   -8.0060 O   0  0  0  0  0  0  0  0  0  0  0  0
  2  1  1  1
  3  2  1  0
  4  2  1  0
  5  3  1  0
  3  6  1  6
  7  4  1  0
  7  5  1  0
  5  8  1  6
  7  9  1  6
M  END
