
     RDKit          3D

 36 39  0  0  0  0  0  0  0  0999 V2000
   -1.7630   17.8770   -6.1080 P   0  0  0  0  0  0  0  0  0  0  0  0
   -0.2360   19.6430   -8.1780 P   0  0  0  0  0  0  0  0  0  0  0  0
    0.3800   16.9210   -4.8140 C   0  0  0  0  0  0  0  0  0  0  0  0
   -0.7510   16.7240   -5.6990 O   0  0  0  0  0  0  0  0  0  0  0  0
    0.5780   15.6800   -3.8790 C   0  0  1  0  0  0  0  0  0  0  0  0
   -0.4600   15.6580   -2.8300 O   0  0  0  0  0  0  0  0  0  0  0  0
    0.4600   14.3310   -4.6170 C   0  0  1  0  0  0  0  0  0  0  0  0
    1.3220   13.3740   -4.0400 O   0  0  0  0  0  0  0  0  0  0  0  0
   -0.9710   13.9140   -4.3330 C   0  0  1  0  0  0  0  0  0  0  0  0
   -1.1210   12.4900   -4.3500 O   0  0  0  0  0  0  0  0  0  0  0  0
   -1.1420   14.4010   -2.9040 C   0  0  2  0  0  0  0  0  0  0  0  0
   -5.1550   21.3710   -7.0050 C   0  0  2  0  0  0  0  0  0  0  0  0
   -4.8410   14.6500    0.6580 N   0  0  0  0  0  0  0  0  0  0  0  0
   -2.3990   18.3270   -4.8440 O   0  0  0  0  0  0  0  0  0  0  0  0
   -0.0090   18.2650   -8.7000 O   0  0  0  0  0  0  0  0  0  0  0  0
   -6.2110   21.3840   -8.0060 O   0  0  0  0  0  0  0  0  0  0  0  0
   -3.5040   14.6000    0.7800 C   0  0  0  0  0  0  0  0  0  0  0  0
   -4.6010   22.7430   -6.5860 C   0  0  2  0  0  0  0  0  0  0  0  0
   -2.6970   17.4340   -7.1780 O   0  0  0  0  0  0  0  0  0  0  0  0
    0.8640   20.4840   -7.5760 O   0  0  0  0  0  0  0  0  0  0  0  0
   -5.6120   23.7040   -6.1920 O   0  0  0  0  0  0  0  0  0  0  0  0
   -3.9930   23.1570   -7.9320 C   0  0  2  0  0  0  0  0  0  0  0  0
   -2.6850   14.5520   -0.2750 N   0  0  0  0  0  0  0  0  0  0  0  0
   -0.6530   19.1110   -6.6100 O   0  0  0  0  0  0  0  0  0  0  0  0
   -5.0410   23.5430   -8.8750 O   0  0  0  0  0  0  0  0  0  0  0  0
   -3.2020   14.5390   -1.5130 C   0  0  0  0  0  0  0  0  0  0  0  0
   -3.3450   21.8560   -8.4140 C   0  0  2  0  0  0  0  0  0  0  0  0
   -4.0500   20.7860   -7.7770 O   0  0  0  0  0  0  0  0  0  0  0  0
   -4.5950   14.5990   -1.7130 C   0  0  0  0  0  0  0  0  0  0  0  0
   -1.8990   21.6090   -8.0600 C   0  0  0  0  0  0  0  0  0  0  0  0
   -1.6910   20.2290   -8.2390 O   0  0  0  0  0  0  0  0  0  0  0  0
   -5.4350   14.6590   -0.5600 C   0  0  0  0  0  0  0  0  0  0  0  0
   -6.7770   14.7320   -0.6170 N   0  0  0  0  0  0  0  0  0  0  0  0
   -4.7860   14.5920   -3.0630 N   0  0  0  0  0  0  0  0  0  0  0  0
   -3.5810   14.5230   -3.6560 C   0  0  0  0  0  0  0  0  0  0  0  0
   -2.6200   14.4960   -2.7120 N   0  0  0  0  0  0  0  0  0  0  0  0
  1  4  1  0
  1 14  1  0
  1 19  1  0
  1 24  1  0
  2 15  1  0
  2 20  1  0
  2 24  1  0
  2 31  1  0
  4  3  1  0
  6  5  1  0
  6 11  1  0
  9  7  1  0
  9 10  1  1
  9 11  1  0
 11 36  1  6
 12 16  1  6
 12 18  1  0
 12 28  1  0
 13 17  1  0
 13 32  1  0
 17 23  1  0
 18 21  1  6
 18 22  1  0
 22 25  1  6
 22 27  1  0
 23 26  1  0
 28 27  1  0
 27 30  1  1
 30 31  1  0
 32 29  1  0
 32 33  1  0
 36 26  1  0
 36 35  1  0
 26 29  1  0
 29 34  1  0
 34 35  1  0
  5  3  1  6
  5  7  1  0
  7  8  1  1
M  CHG  2  14  -1  15  -1
M  END
