3q6z_0_A_β-4GVW_0_A_α
     RDKit          3D

 17 17  0  0  0  0  0  0  0  0999 V2000
   -1.6740   20.6850   -8.3960 O   0  0  0  0  0  0  0  0  0  0  0  0
   -0.4940   19.7840   -7.7300 P   0  0  0  0  0  0  0  0  0  0  0  0
   -1.0270   19.5950   -6.1920 N   0  0  0  0  0  0  0  0  0  0  0  0
   -2.0880   21.9560   -7.8720 C   0  0  0  0  0  0  0  0  0  0  0  0
   -0.1300   18.6300   -8.6160 O   0  0  0  0  0  0  0  0  0  0  0  0
    0.7240   20.8380   -7.7020 O   0  0  0  0  0  0  0  0  0  0  0  0
   -3.5410   22.1070   -7.6430 N   0  0  0  0  0  0  0  0  0  0  0  0
   -1.4590   18.0790   -5.8790 P   0  0  0  0  0  0  0  0  0  0  0  0
   -2.3150   20.5630   -5.8870 S   0  0  0  0  0  0  0  0  0  0  0  0
   -3.7580   23.0760   -6.5470 C   0  0  0  0  0  0  0  0  0  0  0  0
   -4.2590   22.5710   -8.8510 C   0  0  0  0  0  0  0  0  0  0  0  0
   -0.1930   17.1460   -6.1700 O   0  0  0  0  0  0  0  0  0  0  0  0
   -2.0100   17.7510   -4.5580 O   0  0  0  0  0  0  0  0  0  0  0  0
   -2.4790   17.5740   -6.9890 O   0  0  0  0  0  0  0  0  0  0  0  0
   -5.1930   23.5230   -6.3770 C   0  0  0  0  0  0  0  0  0  0  0  0
   -5.7390   22.8670   -8.5910 C   0  0  0  0  0  0  0  0  0  0  0  0
   -5.9110   23.8450   -7.5610 O   0  0  0  0  0  0  0  0  0  0  0  0
  1  2  1  0
  2  3  1  0
  1  4  1  0
  2  5  2  0
  2  6  1  0
  4  7  1  0
  3  8  1  0
  3  9  1  0
  7 10  1  0
  7 11  1  0
  8 12  1  0
  8 13  2  0
  8 14  1  0
 10 15  1  0
 11 16  1  0
 15 17  1  0
 16 17  1  0
M  END
