3Q6Z_0_A_γ-mArh-5cb5_H_0_H_γ
     RDKit          3D

  8  8  0  0  0  0  0  0  0  0999 V2000
   -0.7720   12.2030   -4.2830 O   0  0  0  0  0  0  0  0  0  0  0  0
   -0.9660   13.6160   -4.3400 C   0  0  1  0  0  0  0  0  0  0  0  0
   -1.1270   14.2380   -2.9530 C   0  0  0  0  0  0  0  0  0  0  0  0
    0.3000   14.3000   -4.8020 C   0  0  2  0  0  0  0  0  0  0  0  0
    1.4400   13.6810   -4.2090 O   0  0  0  0  0  0  0  0  0  0  0  0
   -0.4390   15.5080   -2.9830 O   0  0  0  0  0  0  0  0  0  0  0  0
   -0.0550   15.7060   -4.3440 C   0  0  1  0  0  0  0  0  0  0  0  0
    0.9940   16.7800   -4.4590 C   0  0  0  0  0  0  0  0  0  0  0  0
  2  1  1  1
  2  3  1  0
  2  4  1  0
  4  5  1  1
  3  6  1  0
  4  7  1  0
  6  7  1  0
  7  8  1  1
M  END
