3Q6Z_0_A_α-5cb5_A_0_A_β
     RDKit          3D

 17 17  0  0  0  0  0  0  0  0999 V2000
   -1.7740   21.6420   -7.5310 C   0  0  0  0  0  0  0  0  0  0  0  0
   -0.5610   20.3160   -7.7770 P   0  0  2  0  0  0  0  0  0  0  0  0
   -0.6020   19.2970   -6.5740 O   0  0  0  0  0  0  0  0  0  0  0  0
   -3.1610   21.7770   -8.1950 C   0  0  2  0  0  0  0  0  0  0  0  0
    0.8240   20.8090   -7.9740 O   0  0  0  0  0  0  0  0  0  0  0  0
   -0.9570   19.2720   -8.9190 O   0  0  0  0  0  0  0  0  0  0  0  0
   -3.8680   23.1580   -8.3840 C   0  0  2  0  0  0  0  0  0  0  0  0
   -4.0960   21.0920   -7.3420 O   0  0  0  0  0  0  0  0  0  0  0  0
   -3.1790   24.3020   -8.1140 O   0  0  0  0  0  0  0  0  0  0  0  0
   -1.7480   18.3550   -6.0610 P   0  0  0  0  0  0  0  0  0  0  0  0
   -5.1610   23.1550   -7.5950 C   0  0  1  0  0  0  0  0  0  0  0  0
   -5.3650   21.6920   -7.6060 C   0  0  2  0  0  0  0  0  0  0  0  0
   -5.0730   23.6820   -6.2660 O   0  0  0  0  0  0  0  0  0  0  0  0
   -6.3340   21.3590   -6.6520 O   0  0  0  0  0  0  0  0  0  0  0  0
   -1.0480   17.0780   -5.4300 O   0  0  0  0  0  0  0  0  0  0  0  0
   -2.8400   18.0060   -6.9890 O   0  0  0  0  0  0  0  0  0  0  0  0
   -2.2030   19.1800   -4.7860 O   0  0  0  0  0  0  0  0  0  0  0  0
  1  2  1  0
  2  3  1  0
  4  1  1  1
  2  5  2  0
  2  6  1  6
  4  7  1  0
  4  8  1  0
  7  9  1  1
  3 10  1  0
  7 11  1  0
  8 12  1  0
 11 12  1  0
 11 13  1  1
 12 14  1  1
 10 15  1  0
 10 16  2  0
 10 17  1  0
M  END
