3Q6Z_0_A_α-5CMS_0_H_α
     RDKit          3D

 17 18  0  0  0  0  0  0  0  0999 V2000
   -2.0600   21.6070   -8.5090 C   0  0  0  0  0  0  0  0  0  0  0  0
   -3.5260   21.7760   -8.1530 C   0  0  2  0  0  0  0  0  0  0  0  0
   -3.9350   23.2380   -7.8310 C   0  0  1  0  0  0  0  0  0  0  0  0
   -1.7660   22.7470   -9.4450 C   0  0  2  0  0  0  0  0  0  0  0  0
   -3.8710   20.9880   -7.0090 O   0  0  0  0  0  0  0  0  0  0  0  0
   -2.2030   22.4520  -10.7600 O   0  0  0  0  0  0  0  0  0  0  0  0
   -0.4450   23.4510   -9.6260 C   0  0  1  0  0  0  0  0  0  0  0  0
   -4.9020   23.7820   -8.7410 O   0  0  0  0  0  0  0  0  0  0  0  0
    0.5770   22.6850  -10.2520 O   0  0  0  0  0  0  0  0  0  0  0  0
   -4.4890   23.1360   -6.4310 C   0  0  2  0  0  0  0  0  0  0  0  0
   -4.9610   21.6920   -6.4320 C   0  0  1  0  0  0  0  0  0  0  0  0
   -2.1720   23.7790  -11.2660 C   0  0  2  0  0  0  0  0  0  0  0  0
   -0.9420   24.4890  -10.6170 C   0  0  2  0  0  0  0  0  0  0  0  0
   -5.5710   24.0630   -6.2850 O   0  0  0  0  0  0  0  0  0  0  0  0
   -6.1370   21.5410   -7.2090 O   0  0  0  0  0  0  0  0  0  0  0  0
   -3.4320   24.3740  -10.9730 O   0  0  0  0  0  0  0  0  0  0  0  0
    0.0200   24.8940  -11.5660 O   0  0  0  0  0  0  0  0  0  0  0  0
  2  1  1  1
  2  3  1  0
  4  1  1  1
  2  5  1  0
  4  6  1  0
  4  7  1  0
  3  8  1  6
  7  9  1  6
  3 10  1  0
  5 11  1  0
 10 11  1  0
  6 12  1  0
  7 13  1  0
 12 13  1  0
 10 14  1  6
 11 15  1  6
 12 16  1  1
 13 17  1  6
M  END
