3Q6Z_0_A_γ-5CMS_0_G_γ
     RDKit          3D

 17 19  0  0  0  0  0  0  0  0999 V2000
   -1.5200   12.6680   -3.9140 O   0  0  0  0  0  0  0  0  0  0  0  0
   -0.6950   13.6350   -3.2810 C   0  0  2  0  0  0  0  0  0  0  0  0
   -1.4030   14.8220   -2.5650 C   0  0  2  0  0  0  0  0  0  0  0  0
    0.2450   14.2440   -4.3170 C   0  0  2  0  0  0  0  0  0  0  0  0
    1.6000   14.0370   -3.9540 O   0  0  0  0  0  0  0  0  0  0  0  0
   -0.9200   16.0280   -3.2090 O   0  0  0  0  0  0  0  0  0  0  0  0
   -0.2250   15.6970   -4.4290 C   0  0  1  0  0  0  0  0  0  0  0  0
   -1.1960   15.0740   -1.0390 C   0  0  1  0  0  0  0  0  0  0  0  0
   -2.9610   14.7140   -2.6510 C   0  0  0  0  0  0  0  0  0  0  0  0
    0.8540   16.7410   -4.6650 C   0  0  0  0  0  0  0  0  0  0  0  0
   -2.6250   15.4300   -0.5630 C   0  0  1  0  0  0  0  0  0  0  0  0
   -3.4910   14.5100   -1.2820 N   0  0  0  0  0  0  0  0  0  0  0  0
   -0.5110   14.0860   -0.2010 N   0  0  0  0  0  0  0  0  0  0  0  0
   -0.4850   14.4840    1.1900 C   0  0  0  0  0  0  0  0  0  0  0  0
   -2.6730   15.5130    0.9740 C   0  0  1  0  0  0  0  0  0  0  0  0
   -4.0140   15.4390    1.5290 N   0  0  0  0  0  0  0  0  0  0  0  0
   -1.8370   14.5840    1.6920 N   0  0  0  0  0  0  0  0  0  0  0  0
  2  1  1  6
  2  3  1  0
  2  4  1  0
  4  5  1  1
  3  6  1  0
  4  7  1  0
  6  7  1  0
  3  8  1  0
  3  9  1  1
  7 10  1  1
  8 11  1  0
  9 12  1  0
 11 12  1  1
  8 13  1  1
 13 14  1  0
 11 15  1  0
 15 16  1  1
 14 17  1  0
 15 17  1  0
M  END
