3Q6Z_0_A_α-mArh-5cb5_O_0_O_γ
     RDKit          3D

 21 22  0  0  0  0  0  0  0  0999 V2000
   -1.6230   21.8980   -7.9430 C   0  0  0  0  0  0  0  0  0  0  0  0
   -3.1060   21.9840   -8.2920 C   0  0  2  0  0  0  0  0  0  0  0  0
   -3.7000   23.3470   -7.8620 C   0  0  1  0  0  0  0  0  0  0  0  0
   -3.8490   20.9480   -7.5450 N   0  0  0  0  0  0  0  0  0  0  0  0
   -4.6520   23.8170   -8.8360 O   0  0  0  0  0  0  0  0  0  0  0  0
   -3.0590   19.8150   -7.0090 C   0  0  0  0  0  0  0  0  0  0  0  0
   -4.4070   23.0570   -6.5450 C   0  0  2  0  0  0  0  0  0  0  0  0
   -4.8340   21.5800   -6.6720 C   0  0  1  0  0  0  0  0  0  0  0  0
   -5.5230   23.9500   -6.3880 O   0  0  0  0  0  0  0  0  0  0  0  0
   -6.0970   21.4860   -7.3110 O   0  0  0  0  0  0  0  0  0  0  0  0
   -2.1120   19.9820   -5.8410 C   0  0  0  0  0  0  0  0  0  0  0  0
   -0.9340   19.0180   -6.0640 C   0  0  0  0  0  0  0  0  0  0  0  0
   -0.6400   18.0510   -4.9250 C   0  0  0  0  0  0  0  0  0  0  0  0
    0.6430   17.2480   -5.1360 C   0  0  0  0  0  0  0  0  0  0  0  0
    0.8110   15.9210   -4.3780 C   0  0  1  0  0  0  0  0  0  0  0  0
    0.1250   15.9430   -3.1110 O   0  0  0  0  0  0  0  0  0  0  0  0
    0.4480   14.5950   -5.0700 C   0  0  1  0  0  0  0  0  0  0  0  0
    1.4400   13.5790   -5.0930 O   0  0  0  0  0  0  0  0  0  0  0  0
   -0.5480   14.6830   -2.9300 C   0  0  0  0  0  0  0  0  0  0  0  0
   -0.7810   14.1220   -4.3140 C   0  0  2  0  0  0  0  0  0  0  0  0
   -0.8770   12.7030   -4.3220 O   0  0  0  0  0  0  0  0  0  0  0  0
  2  1  1  1
  2  3  1  0
  2  4  1  0
  3  5  1  6
  4  6  1  0
  3  7  1  0
  4  8  1  0
  7  8  1  0
  7  9  1  6
  8 10  1  6
  6 11  1  0
 11 12  1  0
 12 13  1  0
 13 14  1  0
 15 14  1  6
 15 16  1  0
 15 17  1  0
 17 18  1  1
 16 19  1  0
 17 20  1  0
 19 20  1  0
 20 21  1  1
M  END
