3Q6Z_0_A_Î´
     RDKit          3D

 10 11  0  0  0  0  0  0  0  0999 V2000
   -2.6200   14.4960   -2.7120 N   0  0  0  0  0  0  0  0  0  0  0  0
   -3.2020   14.5390   -1.5130 C   0  0  0  0  0  0  0  0  0  0  0  0
   -3.5810   14.5230   -3.6560 C   0  0  0  0  0  0  0  0  0  0  0  0
   -2.6850   14.5520   -0.2750 N   0  0  0  0  0  0  0  0  0  0  0  0
   -4.5950   14.5990   -1.7130 C   0  0  0  0  0  0  0  0  0  0  0  0
   -4.7860   14.5920   -3.0630 N   0  0  0  0  0  0  0  0  0  0  0  0
   -3.5040   14.6000    0.7800 C   0  0  0  0  0  0  0  0  0  0  0  0
   -5.4350   14.6590   -0.5600 C   0  0  0  0  0  0  0  0  0  0  0  0
   -4.8410   14.6500    0.6580 N   0  0  0  0  0  0  0  0  0  0  0  0
   -6.7770   14.7320   -0.6170 N   0  0  0  0  0  0  0  0  0  0  0  0
  1  2  1  0
  1  3  1  0
  4  2  1  0
  2  5  1  0
  6  3  1  0
  7  4  1  0
  8  5  1  0
  5  6  1  0
  9  7  1  0
  9  8  1  0
  8 10  1  0
M  END
