3Q6Z_0_A_γ-6fx_7_0A_β
     RDKit          3D

 18 18  0  0  0  0  0  0  0  0999 V2000
   -1.0900   12.5690   -4.4080 O   0  0  0  0  0  0  0  0  0  0  0  0
   -0.9020   13.9950   -4.3710 C   0  0  1  0  0  0  0  0  0  0  0  0
   -1.1570   14.5090   -2.9590 C   0  0  0  0  0  0  0  0  0  0  0  0
    0.5680   14.3340   -4.6090 C   0  0  2  0  0  0  0  0  0  0  0  0
    1.4010   13.2490   -4.2150 O   0  0  0  0  0  0  0  0  0  0  0  0
   -0.0090   15.2910   -2.5560 O   0  0  0  0  0  0  0  0  0  0  0  0
    0.7410   15.5890   -3.7480 C   0  0  2  0  0  0  0  0  0  0  0  0
    0.2950   16.9500   -4.2730 C   0  0  0  0  0  0  0  0  0  0  0  0
    0.7870   17.3550   -5.6440 C   0  0  0  0  0  0  0  0  0  0  0  0
   -0.3690   17.4670   -6.4490 O   0  0  0  0  0  0  0  0  0  0  0  0
   -1.5480   18.4510   -6.0460 P   0  0  2  0  0  0  0  0  0  0  0  0
   -1.1090   19.8570   -6.6000 O   0  0  0  0  0  0  0  0  0  0  0  0
   -2.0180   18.4050   -4.6530 O   0  0  0  0  0  0  0  0  0  0  0  0
   -2.7140   18.0060   -7.0320 O   0  0  0  0  0  0  0  0  0  0  0  0
   -0.4180   20.0080   -8.0000 P   0  0  0  0  0  0  0  0  0  0  0  0
   -1.4990   20.8960   -8.7550 O   0  0  0  0  0  0  0  0  0  0  0  0
   -0.0610   18.7680   -8.7530 O   0  0  0  0  0  0  0  0  0  0  0  0
    0.7600   21.0700   -7.8160 O   0  0  0  0  0  0  0  0  0  0  0  0
  2  1  1  1
  2  3  1  0
  2  4  1  0
  4  5  1  1
  3  6  1  0
  4  7  1  0
  6  7  1  0
  7  8  1  6
  8  9  1  0
  9 10  1  0
 10 11  1  0
 11 12  1  0
 11 13  2  0
 11 14  1  6
 12 15  1  0
 15 16  1  0
 15 17  2  0
 15 18  1  0
M  END
