3q6z_0_A_α-5cms_Q_16_Q_γ
     RDKit          3D

 21 22  0  0  0  0  0  0  0  0999 V2000
   -1.5680   21.8900   -7.9410 C   0  0  0  0  0  0  0  0  0  0  0  0
   -3.0560   21.9480   -8.2820 C   0  0  2  0  0  0  0  0  0  0  0  0
   -3.6640   23.3090   -7.8640 C   0  0  1  0  0  0  0  0  0  0  0  0
   -3.7740   20.9100   -7.5180 N   0  0  0  0  0  0  0  0  0  0  0  0
   -4.6060   23.7790   -8.8480 O   0  0  0  0  0  0  0  0  0  0  0  0
   -2.9890   19.7550   -7.0030 C   0  0  0  0  0  0  0  0  0  0  0  0
   -4.3910   23.0200   -6.5540 C   0  0  2  0  0  0  0  0  0  0  0  0
   -4.7830   21.5330   -6.6660 C   0  0  1  0  0  0  0  0  0  0  0  0
   -5.5240   23.8940   -6.4290 O   0  0  0  0  0  0  0  0  0  0  0  0
   -6.0380   21.4050   -7.3180 O   0  0  0  0  0  0  0  0  0  0  0  0
   -2.0420   19.8920   -5.8230 C   0  0  0  0  0  0  0  0  0  0  0  0
   -0.8770   18.8930   -6.0120 C   0  0  0  0  0  0  0  0  0  0  0  0
   -0.6580   17.8780   -4.8880 C   0  0  0  0  0  0  0  0  0  0  0  0
    0.4810   16.8870   -5.1860 C   0  0  0  0  0  0  0  0  0  0  0  0
    0.5900   15.5580   -4.4020 C   0  0  1  0  0  0  0  0  0  0  0  0
   -0.1620   15.5760   -3.1720 O   0  0  0  0  0  0  0  0  0  0  0  0
    0.2680   14.2200   -5.0960 C   0  0  1  0  0  0  0  0  0  0  0  0
    1.1610   13.1360   -4.8680 O   0  0  0  0  0  0  0  0  0  0  0  0
   -0.9560   14.3720   -3.1100 C   0  0  0  0  0  0  0  0  0  0  0  0
   -1.0980   13.8920   -4.5370 C   0  0  2  0  0  0  0  0  0  0  0  0
   -1.3700   12.5040   -4.6550 O   0  0  0  0  0  0  0  0  0  0  0  0
  2  1  1  1
  2  3  1  0
  2  4  1  0
  3  5  1  6
  4  6  1  0
  3  7  1  0
  4  8  1  0
  7  8  1  0
  7  9  1  6
  8 10  1  6
  6 11  1  0
 11 12  1  0
 12 13  1  0
 13 14  1  0
 15 14  1  6
 15 16  1  0
 15 17  1  0
 17 18  1  1
 16 19  1  0
 17 20  1  0
 19 20  1  0
 20 21  1  1
M  END
