3vfq_B_0_A_α-2FAV_0_B_β
     RDKit          3D

 21 21  0  0  0  0  0  0  0  0999 V2000
   -4.1000   20.1560   -6.9900 C   0  0  0  0  0  0  0  0  0  0  0  0
   -4.5790   21.3280   -7.7800 C   0  0  1  0  0  0  0  0  0  0  0  0
   -4.1000   21.3810   -9.0680 O   0  0  0  0  0  0  0  0  0  0  0  0
   -6.0130   21.3860   -7.9910 C   0  0  1  0  0  0  0  0  0  0  0  0
   -6.4380   21.6990   -6.7210 O   0  0  0  0  0  0  0  0  0  0  0  0
   -4.6270   22.5010   -9.6090 C   0  0  1  0  0  0  0  0  0  0  0  0
   -6.1420   22.4250   -9.0430 C   0  0  1  0  0  0  0  0  0  0  0  0
   -4.1310   23.6180   -9.0220 O   0  0  0  0  0  0  0  0  0  0  0  0
   -7.0330   22.1720  -10.0120 O   0  0  0  0  0  0  0  0  0  0  0  0
   -3.0340   23.6000   -8.1320 C   0  0  0  0  0  0  0  0  0  0  0  0
   -2.5300   22.2000   -8.1100 C   0  0  0  0  0  0  0  0  0  0  0  0
   -1.1720   21.8300   -7.6130 C   0  0  0  0  0  0  0  0  0  0  0  0
   -0.8920   20.6330   -8.2700 O   0  0  0  0  0  0  0  0  0  0  0  0
    0.1610   19.7110   -7.6440 P   0  0  0  0  0  0  0  0  0  0  0  0
   -0.8080   19.5270   -6.3530 O   0  0  0  0  0  0  0  0  0  0  0  0
    1.2010   21.0630   -7.6200 O   0  0  0  0  0  0  0  0  0  0  0  0
    0.2680   18.6430   -8.7600 O   0  0  0  0  0  0  0  0  0  0  0  0
   -1.2090   18.0580   -5.9130 P   0  0  0  0  0  0  0  0  0  0  0  0
   -0.1450   17.1160   -5.0930 O   0  0  0  0  0  0  0  0  0  0  0  0
   -2.5840   17.3760   -6.4600 O   0  0  0  0  0  0  0  0  0  0  0  0
   -1.9670   18.5360   -4.7400 O   0  0  0  0  0  0  0  0  0  0  0  0
  2  1  1  6
  2  3  1  0
  2  4  1  0
  4  5  1  1
  3  6  1  0
  4  7  1  0
  6  7  1  0
  6  8  1  1
  7  9  1  6
  8 10  1  0
 10 11  1  0
 11 12  1  0
 12 13  1  0
 13 14  1  0
 14 15  1  0
 14 16  1  0
 14 17  1  0
 15 18  1  0
 18 19  1  0
 18 20  1  0
 18 21  1  0
M  CHG  2  16  -1  20  -1
M  END
