3vfq_B_0_A_β-5CB3_0_A_γ
     RDKit          3D

 18 18  0  0  0  0  0  0  0  0999 V2000
   -2.8880   19.5270   -6.5420 O   0  0  0  0  0  0  0  0  0  0  0  0
   -2.1050   18.1670   -6.2980 P   0  0  0  0  0  0  0  0  0  0  0  0
   -2.5580   17.3220   -5.0640 O   0  0  0  0  0  0  0  0  0  0  0  0
   -0.4970   18.2800   -6.7260 N   0  0  0  0  0  0  0  0  0  0  0  0
   -2.7540   17.2220   -7.3100 O   0  0  0  0  0  0  0  0  0  0  0  0
   -3.4310   15.9820   -5.3780 P   0  0  0  0  0  0  0  0  0  0  0  0
    0.5740   17.7700   -5.8660 C   0  0  0  0  0  0  0  0  0  0  0  0
   -2.4170   14.8140   -5.6020 O   0  0  0  0  0  0  0  0  0  0  0  0
   -4.5620   16.1200   -6.3220 O   0  0  0  0  0  0  0  0  0  0  0  0
   -4.0120   15.5880   -3.9640 O   0  0  0  0  0  0  0  0  0  0  0  0
    0.0230   17.0360   -4.6540 C   0  0  0  0  0  0  0  0  0  0  0  0
    0.7130   15.7190   -4.2470 C   0  0  1  0  0  0  0  0  0  0  0  0
    0.3050   15.5070   -2.8630 O   0  0  0  0  0  0  0  0  0  0  0  0
    0.3590   14.3900   -4.9620 C   0  0  1  0  0  0  0  0  0  0  0  0
    1.5760   13.6240   -5.1310 O   0  0  0  0  0  0  0  0  0  0  0  0
   -0.8410   14.6400   -2.9370 C   0  0  0  0  0  0  0  0  0  0  0  0
   -0.4740   13.5920   -3.9750 C   0  0  1  0  0  0  0  0  0  0  0  0
   -1.6160   12.9570   -4.5360 O   0  0  0  0  0  0  0  0  0  0  0  0
  1  2  1  0
  2  3  1  0
  2  4  2  3
  2  5  1  0
  3  6  1  0
  4  7  1  0
  6  8  1  0
  6  9  2  0
  6 10  1  0
  7 11  1  0
 12 11  1  6
 12 13  1  0
 12 14  1  0
 14 15  1  1
 13 16  1  0
 14 17  1  0
 16 17  1  0
 17 18  1  6
M  END
