3vfq_B_0_A_α-5CB5_0_Q_δ
     RDKit          3D

 26 28  0  0  0  0  0  0  0  0999 V2000
   -4.0520   20.3130   -7.0790 C   0  0  0  0  0  0  0  0  0  0  0  0
   -4.7450   21.0900   -8.1530 C   0  0  2  0  0  0  0  0  0  0  0  0
   -4.1220   22.2710   -8.5840 O   0  0  0  0  0  0  0  0  0  0  0  0
   -6.1210   21.4850   -7.8880 C   0  0  1  0  0  0  0  0  0  0  0  0
   -5.9870   22.3820   -6.8160 O   0  0  0  0  0  0  0  0  0  0  0  0
   -4.9850   22.5610   -9.6850 C   0  0  1  0  0  0  0  0  0  0  0  0
   -6.3990   22.0870   -9.2770 C   0  0  2  0  0  0  0  0  0  0  0  0
   -4.9350   23.9580   -9.9340 O   0  0  0  0  0  0  0  0  0  0  0  0
   -7.3290   23.1630   -9.2400 O   0  0  0  0  0  0  0  0  0  0  0  0
   -4.8010   22.0960   -6.0080 C   0  0  0  0  0  0  0  0  0  0  0  0
   -3.6450   21.2980   -6.6720 C   0  0  0  0  0  0  0  0  0  0  0  0
   -2.7300   20.4220   -5.7470 C   0  0  0  0  0  0  0  0  0  0  0  0
   -2.2730   19.0070   -6.2330 C   0  0  0  0  0  0  0  0  0  0  0  0
   -1.5470   18.0690   -5.2380 C   0  0  0  0  0  0  0  0  0  0  0  0
   -2.1620   16.6700   -4.9080 C   0  0  0  0  0  0  0  0  0  0  0  0
   -1.9150   16.2660   -3.4410 C   0  0  0  0  0  0  0  0  0  0  0  0
   -2.4060   14.9150   -2.8990 C   0  0  1  0  0  0  0  0  0  0  0  0
   -1.2870   14.3120   -2.2340 N   0  0  0  0  0  0  0  0  0  0  0  0
   -3.3440   15.0460   -1.7650 N   0  0  0  0  0  0  0  0  0  0  0  0
   -1.0680   15.2670   -1.1480 C   0  0  1  0  0  0  0  0  0  0  0  0
   -2.4820   15.5240   -0.6360 C   0  0  2  0  0  0  0  0  0  0  0  0
   -0.0840   14.6560   -0.3340 N   0  0  0  0  0  0  0  0  0  0  0  0
   -2.7040   14.8660    0.7410 C   0  0  2  0  0  0  0  0  0  0  0  0
   -3.8650   15.3450    1.4820 N   0  0  0  0  0  0  0  0  0  0  0  0
   -0.2800   14.5860    1.0860 C   0  0  0  0  0  0  0  0  0  0  0  0
   -1.5520   15.0990    1.5730 N   0  0  0  0  0  0  0  0  0  0  0  0
  2  1  1  1
  2  3  1  0
  2  4  1  0
  4  5  1  1
  3  6  1  0
  4  7  1  0
  6  7  1  0
  6  8  1  1
  7  9  1  1
  5 10  1  0
 10 11  1  0
 11 12  1  0
 12 13  1  0
 13 14  1  0
 14 15  1  0
 15 16  1  0
 17 16  1  1
 17 18  1  0
 17 19  1  0
 20 18  1  6
 21 19  1  6
 20 21  1  0
 20 22  1  0
 21 23  1  0
 23 24  1  1
 22 25  1  0
 23 26  1  0
 25 26  1  0
M  END
