3vfq_B_0_A_β-x0766_1_B_α
     RDKit          3D

 29 30  0  0  0  0  0  0  0  0999 V2000
   -1.7210   20.0630   -7.1520 O   0  0  0  0  0  0  0  0  0  0  0  0
   -1.9230   18.6300   -6.4800 P   0  0  0  0  0  0  0  0  0  0  0  0
   -3.3410   18.2990   -6.9700 N   0  0  0  0  0  0  0  0  0  0  0  0
   -1.5310   18.6220   -5.0490 O   0  0  0  0  0  0  0  0  0  0  0  0
   -0.9820   17.8370   -7.4150 O   0  0  0  0  0  0  0  0  0  0  0  0
   -3.5670   16.6840   -6.3470 P   0  0  0  0  0  0  0  0  0  0  0  0
   -4.1570   19.6370   -6.9390 C   0  0  0  0  0  0  0  0  0  0  0  0
   -3.3340   15.4210   -7.2320 O   0  0  0  0  0  0  0  0  0  0  0  0
   -3.2680   16.4220   -4.9120 O   0  0  0  0  0  0  0  0  0  0  0  0
   -5.1390   16.3470   -6.5450 O   0  0  0  0  0  0  0  0  0  0  0  0
   -3.9490   20.9580   -7.7430 C   0  0  0  0  0  0  0  0  0  0  0  0
   -5.3300   21.5950   -8.0530 C   0  0  0  0  0  0  0  0  0  0  0  0
   -5.3090   22.9940   -8.6910 C   0  0  0  0  0  0  0  0  0  0  0  0
   -6.2280   23.1310   -9.9230 C   0  0  0  0  0  0  0  0  0  0  0  0
   -7.4370   24.0940   -9.8290 C   0  0  0  0  0  0  0  0  0  0  0  0
   -7.0980   25.5640  -10.1130 C   0  0  0  0  0  0  0  0  0  0  0  0
   -7.7550   26.1830  -11.3530 C   0  0  2  0  0  0  0  0  0  0  0  0
   -6.7110   26.6880  -12.3660 C   0  0  1  0  0  0  0  0  0  0  0  0
   -8.6070   27.4280  -11.0380 C   0  0  0  0  0  0  0  0  0  0  0  0
   -7.2270   26.5840  -13.7970 C   0  0  0  0  0  0  0  0  0  0  0  0
   -7.7720   28.6610  -11.4320 C   0  0  0  0  0  0  0  0  0  0  0  0
   -6.4220   28.1200  -11.9080 C   0  0  2  0  0  0  0  0  0  0  0  0
   -8.3760   26.8050  -14.1480 O   0  0  0  0  0  0  0  0  0  0  0  0
   -6.2670   26.2170  -14.6790 O   0  0  0  0  0  0  0  0  0  0  0  0
   -5.6890   28.9540  -12.9130 C   0  0  0  0  0  0  0  0  0  0  0  0
   -4.3120   29.0730  -13.0200 C   0  0  0  0  0  0  0  0  0  0  0  0
   -6.3410   29.7460  -13.9210 C   0  0  0  0  0  0  0  0  0  0  0  0
   -5.4530   30.4120  -14.7340 C   0  0  0  0  0  0  0  0  0  0  0  0
   -3.8300   30.1000  -14.2980 S   0  0  0  0  0  0  0  0  0  0  0  0
  1  2  1  0
  2  3  1  0
  2  4  2  0
  2  5  1  0
  3  6  1  0
  3  7  1  0
  6  8  1  0
  6  9  2  0
  6 10  1  0
  7 11  1  0
 11 12  1  0
 12 13  1  0
 13 14  1  0
 14 15  1  0
 15 16  1  0
 17 16  1  1
 17 18  1  0
 17 19  1  0
 18 20  1  6
 19 21  1  0
 18 22  1  0
 21 22  1  0
 20 23  2  0
 20 24  1  0
 22 25  1  6
 25 26  2  0
 25 27  1  0
 27 28  2  0
 26 29  1  0
 28 29  1  0
M  END
