3vfq_B_0_A_α-5cb5_J_2_J_α
     RDKit          3D

 12 12  0  0  0  0  0  0  0  0999 V2000
   -4.0330   20.2390   -6.9090 C   0  0  0  0  0  0  0  0  0  0  0  0
   -4.3340   21.7120   -7.1370 C   0  0  2  0  0  0  0  0  0  0  0  0
   -3.4980   22.2760   -8.2180 N   0  0  0  0  0  0  0  0  0  0  0  0
   -4.1050   22.2320   -5.8420 O   0  0  0  0  0  0  0  0  0  0  0  0
   -5.7960   22.0380   -7.5370 C   0  0  0  0  0  0  0  0  0  0  0  0
   -6.6990   21.1560   -6.9590 O   0  0  0  0  0  0  0  0  0  0  0  0
   -2.1860   21.6090   -8.3460 C   0  0  0  0  0  0  0  0  0  0  0  0
   -6.1260   23.3950   -7.2200 O   0  0  0  0  0  0  0  0  0  0  0  0
   -4.3620   22.1920   -9.4240 C   0  0  1  0  0  0  0  0  0  0  0  0
   -5.8200   21.8280   -9.0260 C   0  0  2  0  0  0  0  0  0  0  0  0
   -4.3950   23.4020  -10.1510 O   0  0  0  0  0  0  0  0  0  0  0  0
   -6.8130   22.6420   -9.6950 O   0  0  0  0  0  0  0  0  0  0  0  0
  2  1  1  1
  2  3  1  0
  2  4  1  0
  2  5  1  0
  5  6  1  0
  3  7  1  0
  5  8  1  0
  3  9  1  0
  5 10  1  0
  9 10  1  0
  9 11  1  1
 10 12  1  6
M  END
