3VFQ_0_A_β-mArh-5cms_N_13_N_γ
     RDKit          3D

 18 18  0  0  0  0  0  0  0  0999 V2000
   -3.1490   19.6720   -6.4510 O   0  0  0  0  0  0  0  0  0  0  0  0
   -2.1190   18.4370   -6.4690 P   0  0  0  0  0  0  0  0  0  0  0  0
   -2.5620   17.6450   -5.2520 O   0  0  0  0  0  0  0  0  0  0  0  0
   -0.6010   18.5530   -6.0730 O   0  0  0  0  0  0  0  0  0  0  0  0
   -2.7110   17.0480   -7.1900 O   0  0  0  0  0  0  0  0  0  0  0  0
   -3.0850   16.1520   -5.2360 P   0  0  0  0  0  0  0  0  0  0  0  0
   -0.0430   17.9360   -4.9750 C   0  0  0  0  0  0  0  0  0  0  0  0
   -3.5390   14.7020   -5.0540 O   0  0  0  0  0  0  0  0  0  0  0  0
   -3.4960   16.3180   -3.6590 O   0  0  0  0  0  0  0  0  0  0  0  0
   -4.2750   16.3830   -6.3400 O   0  0  0  0  0  0  0  0  0  0  0  0
    0.7460   16.8550   -5.6030 C   0  0  0  0  0  0  0  0  0  0  0  0
    1.0360   15.6270   -4.8390 C   0  0  1  0  0  0  0  0  0  0  0  0
    0.4260   15.8520   -3.6010 O   0  0  0  0  0  0  0  0  0  0  0  0
    0.2000   14.4260   -5.3210 C   0  0  1  0  0  0  0  0  0  0  0  0
    0.9730   13.6840   -6.2140 O   0  0  0  0  0  0  0  0  0  0  0  0
    0.3800   14.5920   -2.9910 C   0  0  0  0  0  0  0  0  0  0  0  0
    0.1220   13.5820   -4.0750 C   0  0  2  0  0  0  0  0  0  0  0  0
    1.0990   12.6020   -4.1550 O   0  0  0  0  0  0  0  0  0  0  0  0
  1  2  1  0
  2  3  1  0
  2  4  1  0
  2  5  1  0
  3  6  1  0
  4  7  1  0
  6  8  1  0
  6  9  1  0
  6 10  1  0
  7 11  1  0
 12 11  1  6
 12 13  1  0
 12 14  1  0
 14 15  1  6
 13 16  1  0
 14 17  1  0
 16 17  1  0
 17 18  1  6
M  CHG  1   9  -1
M  END
