3vfq_B_0_A_γ-5cms_C_2_C_γ
     RDKit          3D

 15 16  0  0  0  0  0  0  0  0999 V2000
   -4.0260   11.4910   -2.2190 O   0  0  0  0  0  0  0  0  0  0  0  0
   -4.3250   12.8720   -2.4310 C   0  0  1  0  0  0  0  0  0  0  0  0
   -3.6280   13.7810   -1.4220 C   0  0  0  0  0  0  0  0  0  0  0  0
   -3.7600   13.3660   -3.7650 C   0  0  2  0  0  0  0  0  0  0  0  0
   -2.4160   12.8780   -4.1180 O   0  0  0  0  0  0  0  0  0  0  0  0
   -3.3940   15.0320   -2.1060 O   0  0  0  0  0  0  0  0  0  0  0  0
   -3.8130   14.8630   -3.4840 C   0  0  1  0  0  0  0  0  0  0  0  0
   -2.9990   15.7080   -4.4590 C   0  0  0  0  0  0  0  0  0  0  0  0
   -1.1690   13.3790   -3.5100 C   0  0  2  0  0  0  0  0  0  0  0  0
   -1.2400   14.7180   -2.8010 C   0  0  0  0  0  0  0  0  0  0  0  0
   -0.0940   13.6580   -4.5960 C   0  0  1  0  0  0  0  0  0  0  0  0
   -0.5240   13.4220   -5.9160 O   0  0  0  0  0  0  0  0  0  0  0  0
    0.0230   15.3740   -2.9740 O   0  0  0  0  0  0  0  0  0  0  0  0
    0.4720   15.0670   -4.2980 C   0  0  2  0  0  0  0  0  0  0  0  0
    0.0950   16.2440   -5.1930 C   0  0  0  0  0  0  0  0  0  0  0  0
  2  1  1  1
  2  3  1  0
  2  4  1  0
  4  5  1  1
  3  6  1  0
  4  7  1  0
  6  7  1  0
  7  8  1  6
  9  5  1  6
  9 10  1  0
  9 11  1  0
 11 12  1  6
 10 13  1  0
 11 14  1  0
 13 14  1  0
 14 15  1  6
M  END
