3VFQ_0_A_β-EU0860_0_A_α
     RDKit          3D

 22 22  0  0  0  0  0  0  0  0999 V2000
   -2.2320   18.0800   -7.1370 O   0  0  0  0  0  0  0  0  0  0  0  0
   -2.2420   17.0740   -5.9210 P   0  0  0  0  0  0  0  0  0  0  0  0
   -2.7720   16.2860   -4.9400 O   0  0  0  0  0  0  0  0  0  0  0  0
   -2.0890   18.2510   -4.7890 O   0  0  0  0  0  0  0  0  0  0  0  0
   -3.3810   16.1580   -6.5460 O   0  0  0  0  0  0  0  0  0  0  0  0
   -3.6500   15.3740   -4.1100 P   0  0  0  0  0  0  0  0  0  0  0  0
   -3.6710   15.0240   -7.0370 C   0  0  0  0  0  0  0  0  0  0  0  0
   -2.3120   15.3560   -3.4860 O   0  0  0  0  0  0  0  0  0  0  0  0
   -4.4230   15.6560   -5.5030 O   0  0  0  0  0  0  0  0  0  0  0  0
   -3.8770   13.7620   -4.2800 O   0  0  0  0  0  0  0  0  0  0  0  0
   -2.7700   13.9690   -6.2520 C   0  0  0  0  0  0  0  0  0  0  0  0
   -2.6170   12.6860   -7.0170 C   0  0  0  0  0  0  0  0  0  0  0  0
   -1.4870   11.9360   -6.2980 C   0  0  0  0  0  0  0  0  0  0  0  0
   -1.7610   10.5630   -5.8510 C   0  0  0  0  0  0  0  0  0  0  0  0
   -1.0980    9.4040   -6.5400 C   0  0  0  0  0  0  0  0  0  0  0  0
   -0.2210    9.7080   -7.7480 N   0  0  0  0  0  0  0  0  0  0  0  0
    0.4130    8.8340   -8.3360 C   0  0  0  0  0  0  0  0  0  0  0  0
   -0.0880   10.7660   -8.1940 N   0  0  0  0  0  0  0  0  0  0  0  0
    1.1260    9.4860   -9.4270 C   0  0  0  0  0  0  0  0  0  0  0  0
    0.6900   10.8080   -9.2070 C   0  0  0  0  0  0  0  0  0  0  0  0
    1.9740    8.8540  -10.3590 C   0  0  0  0  0  0  0  0  0  0  0  0
    2.1930    7.6890  -10.3990 O   0  0  0  0  0  0  0  0  0  0  0  0
  1  2  1  0
  2  3  1  0
  2  4  1  0
  2  5  1  0
  3  6  1  0
  5  7  1  0
  6  8  1  0
  6  9  1  0
  6 10  1  0
  7 11  1  0
 11 12  1  0
 12 13  1  0
 13 14  1  0
 14 15  1  0
 15 16  1  0
 16 17  1  0
 16 18  1  0
 17 19  2  0
 18 20  2  0
 19 20  1  0
 19 21  1  0
 21 22  2  0
M  CHG  2   4  -1   9  -1
M  END
