3vfq_B_0_A_β-3q6z_0_A_β
     RDKit          3D

 15 14  0  0  0  0  0  0  0  0999 V2000
   -2.3040   18.3300   -7.2950 O   0  0  0  0  0  0  0  0  0  0  0  0
   -2.0750   17.5580   -5.9210 P   0  0  0  0  0  0  0  0  0  0  0  0
   -2.8700   16.5260   -5.0410 O   0  0  0  0  0  0  0  0  0  0  0  0
   -0.5790   18.3020   -5.5850 C   0  0  0  0  0  0  0  0  0  0  0  0
   -3.2240   17.4420   -6.9380 O   0  0  0  0  0  0  0  0  0  0  0  0
   -3.9470   15.3960   -5.3240 P   0  0  0  0  0  0  0  0  0  0  0  0
    0.1220   19.1950   -6.2800 O   0  0  0  0  0  0  0  0  0  0  0  0
    0.0720   17.9900   -4.4560 O   0  0  0  0  0  0  0  0  0  0  0  0
   -3.1810   14.1850   -5.9280 O   0  0  0  0  0  0  0  0  0  0  0  0
   -4.7680   15.0840   -4.1140 O   0  0  0  0  0  0  0  0  0  0  0  0
   -4.8700   15.8820   -6.5230 O   0  0  0  0  0  0  0  0  0  0  0  0
   -0.1250   19.6940   -7.7650 P   0  0  0  0  0  0  0  0  0  0  0  0
   -1.5520   20.3910   -7.8040 O   0  0  0  0  0  0  0  0  0  0  0  0
    0.1010   18.6580   -8.8020 O   0  0  0  0  0  0  0  0  0  0  0  0
    0.8140   20.9770   -7.8300 O   0  0  0  0  0  0  0  0  0  0  0  0
  1  2  1  0
  2  3  1  0
  2  4  2  3
  2  5  1  0
  3  6  1  0
  4  7  1  0
  4  8  1  0
  6  9  1  0
  6 10  2  0
  6 11  1  0
  7 12  1  0
 12 13  1  0
 12 14  2  0
 12 15  1  0
M  END
