3VFQ_0_A_γ-mArh-EU0342_0_A_α
     RDKit          3D

 18 19  0  0  0  0  0  0  0  0999 V2000
   -4.6830   11.2890   -2.4470 O   0  0  0  0  0  0  0  0  0  0  0  0
   -4.6310   12.7040   -2.4250 C   0  0  1  0  0  0  0  0  0  0  0  0
   -4.1960   13.1840   -1.0620 C   0  0  0  0  0  0  0  0  0  0  0  0
   -3.5850   13.2960   -3.3820 C   0  0  2  0  0  0  0  0  0  0  0  0
   -2.6160   12.2900   -3.6710 O   0  0  0  0  0  0  0  0  0  0  0  0
   -3.8350   14.6470   -1.3210 C   0  0  2  0  0  0  0  0  0  0  0  0
   -2.9260   14.4910   -2.6250 C   0  0  2  0  0  0  0  0  0  0  0  0
   -2.8870   15.6860   -3.5910 C   0  0  0  0  0  0  0  0  0  0  0  0
   -3.2190   15.4030   -0.0650 C   0  0  2  0  0  0  0  0  0  0  0  0
   -5.1320   15.3940   -1.6040 C   0  0  0  0  0  0  0  0  0  0  0  0
   -1.8640   15.0450    0.5220 C   0  0  0  0  0  0  0  0  0  0  0  0
   -4.2120   15.4190    1.1080 C   0  0  0  0  0  0  0  0  0  0  0  0
   -6.1120   15.1950   -0.4860 C   0  0  0  0  0  0  0  0  0  0  0  0
   -0.8160   15.1920   -0.3440 N   0  0  0  0  0  0  0  0  0  0  0  0
   -7.3210   15.2530   -0.6420 O   0  0  0  0  0  0  0  0  0  0  0  0
   -1.7310   14.6780    1.6990 O   0  0  0  0  0  0  0  0  0  0  0  0
   -5.5360   14.9520    0.7390 N   0  0  0  0  0  0  0  0  0  0  0  0
    0.4810   14.9470    0.1650 C   0  0  0  0  0  0  0  0  0  0  0  0
  2  1  1  1
  2  3  1  0
  2  4  1  0
  4  5  1  1
  6  3  1  1
  4  7  1  0
  6  7  1  0
  7  8  1  6
  6  9  1  0
  6 10  1  0
  9 11  1  1
  9 12  1  0
 10 13  1  0
 11 14  1  0
 13 15  2  0
 11 16  2  0
 12 17  1  0
 13 17  1  0
 14 18  1  0
M  END
