3VFQ_0_A_δ-5CB5_0_P_γ
     RDKit          3D

 21 23  0  0  0  0  0  0  0  0999 V2000
   -6.5600   15.2580    3.0980 N   0  0  0  0  0  0  0  0  0  0  0  0
   -5.4840   14.8390    2.2250 C   0  0  1  0  0  0  0  0  0  0  0  0
   -5.6470   14.9980    0.7550 C   0  0  1  0  0  0  0  0  0  0  0  0
   -4.2550   15.4790    2.5840 N   0  0  0  0  0  0  0  0  0  0  0  0
   -4.5990   14.0600    0.2570 C   0  0  1  0  0  0  0  0  0  0  0  0
   -6.8440   14.5920    0.0330 N   0  0  0  0  0  0  0  0  0  0  0  0
   -3.1370   14.7260    2.0150 C   0  0  0  0  0  0  0  0  0  0  0  0
   -4.8640   14.0950   -1.1640 N   0  0  0  0  0  0  0  0  0  0  0  0
   -6.2660   14.5370   -1.3090 C   0  0  0  0  0  0  0  0  0  0  0  0
   -3.2710   14.5280    0.5910 N   0  0  0  0  0  0  0  0  0  0  0  0
   -4.5790   12.8360   -1.8670 C   0  0  0  0  0  0  0  0  0  0  0  0
   -3.0950   12.6820   -2.2440 C   0  0  0  0  0  0  0  0  0  0  0  0
   -2.8580   12.9860   -3.7240 C   0  0  0  0  0  0  0  0  0  0  0  0
   -1.5140   12.6430   -4.0880 O   0  0  0  0  0  0  0  0  0  0  0  0
   -0.5190   13.6180   -3.7160 C   0  0  2  0  0  0  0  0  0  0  0  0
   -1.0780   14.8510   -3.0360 C   0  0  0  0  0  0  0  0  0  0  0  0
    0.0950   14.2390   -4.9690 C   0  0  2  0  0  0  0  0  0  0  0  0
    1.1150   13.4020   -5.4960 O   0  0  0  0  0  0  0  0  0  0  0  0
   -0.1270   15.9000   -3.2700 O   0  0  0  0  0  0  0  0  0  0  0  0
    0.5930   15.6100   -4.4800 C   0  0  2  0  0  0  0  0  0  0  0  0
    0.4260   16.8090   -5.4100 C   0  0  0  0  0  0  0  0  0  0  0  0
  2  1  1  1
  2  3  1  0
  2  4  1  0
  3  5  1  0
  3  6  1  6
  4  7  1  0
  5  8  1  0
  6  9  1  0
  8  9  1  0
  5 10  1  6
  7 10  1  0
  8 11  1  0
 11 12  1  0
 12 13  1  0
 13 14  1  0
 15 14  1  6
 15 16  1  0
 15 17  1  0
 17 18  1  1
 16 19  1  0
 17 20  1  0
 19 20  1  0
 20 21  1  6
M  END
