3VFQ_0_A_Î²
     RDKit          3D

  9  8  0  0  0  0  0  0  0  0999 V2000
   -3.4070   18.9460   -8.0430 O   0  0  0  0  0  0  0  0  0  0  0  0
   -2.9940   17.8880   -7.0010 P   0  0  0  0  0  0  0  0  0  0  0  0
   -3.9400   18.1760   -5.7800 O   0  0  0  0  0  0  0  0  0  0  0  0
   -1.6580   18.3110   -6.5470 O   0  0  0  0  0  0  0  0  0  0  0  0
   -3.1960   16.5590   -7.6340 O   0  0  0  0  0  0  0  0  0  0  0  0
   -5.1670   17.2660   -5.4040 P   0  0  0  0  0  0  0  0  0  0  0  0
   -4.5980   15.9910   -4.6150 O   0  0  0  0  0  0  0  0  0  0  0  0
   -5.9530   17.9700   -4.3420 O   0  0  0  0  0  0  0  0  0  0  0  0
   -5.8360   16.8130   -6.6590 O   0  0  0  0  0  0  0  0  0  0  0  0
  2  1  1  0
  3  2  1  0
  2  4  1  0
  2  5  1  0
  6  3  1  0
  6  7  1  0
  6  8  1  0
  6  9  1  0
M  CHG  2   4  -1   8  -1
M  END
