
     RDKit          3D

 12 12  0  0  0  0  0  0  0  0999 V2000
   -6.2790   23.9390   -7.5570 O   0  0  0  0  0  0  0  0  0  0  0  0
   -0.7900   19.6160   -6.1440 O   0  0  0  0  0  0  0  0  0  0  0  0
   -5.7740   23.1210   -8.5740 C   0  0  0  0  0  0  0  0  0  0  0  0
    0.6030   21.2460   -7.1420 O   0  0  0  0  0  0  0  0  0  0  0  0
   -4.3020   22.8620   -8.4570 C   0  0  0  0  0  0  0  0  0  0  0  0
   -0.1340   19.2450   -8.4070 O   0  0  0  0  0  0  0  0  0  0  0  0
   -3.9730   22.4190   -7.1480 N   0  0  0  0  0  0  0  0  0  0  0  0
   -4.4170   23.2940   -6.1690 C   0  0  0  0  0  0  0  0  0  0  0  0
   -5.9050   23.5070   -6.2690 C   0  0  0  0  0  0  0  0  0  0  0  0
   -2.4930   22.2010   -7.0030 C   0  0  0  0  0  0  0  0  0  0  0  0
   -1.9330   21.2180   -7.9220 C   0  0  0  0  0  0  0  0  0  0  0  0
   -0.4870   20.2820   -7.3640 S   0  0  1  0  0  0  0  0  0  0  0  0
  1  3  1  0
  1  9  1  0
  3  5  1  0
  9  8  1  0
 12  2  1  1
 12  4  1  0
 12  6  1  0
 12 11  1  0
  5  7  1  0
  7  8  1  0
  7 10  1  0
 10 11  1  0
M  END
