4IQY_0_B_α-x0724_0_A_α
     RDKit          3D

 29 31  0  0  0  0  0  0  0  0999 V2000
   -2.2220   21.4800   -8.4650 C   0  0  0  0  0  0  0  0  0  0  0  0
   -2.8800   22.6420   -7.7420 C   0  0  2  0  0  0  0  0  0  0  0  0
   -3.4500   22.1250   -6.5270 O   0  0  0  0  0  0  0  0  0  0  0  0
   -4.0490   23.3760   -8.4330 C   0  0  1  0  0  0  0  0  0  0  0  0
   -4.3180   23.0800   -9.7910 O   0  0  0  0  0  0  0  0  0  0  0  0
   -4.7120   21.7380   -6.9530 C   0  0  1  0  0  0  0  0  0  0  0  0
   -5.2430   23.0090   -7.5730 C   0  0  1  0  0  0  0  0  0  0  0  0
   -4.3540   20.6960   -7.8340 O   0  0  0  0  0  0  0  0  0  0  0  0
   -5.5490   24.0040   -6.5790 O   0  0  0  0  0  0  0  0  0  0  0  0
   -4.0250   19.7240   -6.8540 C   0  0  0  0  0  0  0  0  0  0  0  0
   -2.6980   18.8640   -6.7080 C   0  0  0  0  0  0  0  0  0  0  0  0
   -2.9710   17.3220   -6.3730 C   0  0  0  0  0  0  0  0  0  0  0  0
   -2.5470   16.6480   -5.0400 C   0  0  0  0  0  0  0  0  0  0  0  0
   -3.4060   15.3580   -4.7510 C   0  0  0  0  0  0  0  0  0  0  0  0
   -4.0720   15.0740   -3.3510 C   0  0  0  0  0  0  0  0  0  0  0  0
   -3.1080   14.9040   -2.2240 C   0  0  0  0  0  0  0  0  0  0  0  0
   -2.2520   14.7380   -1.0930 C   0  0  0  0  0  0  0  0  0  0  0  0
   -4.4220   14.8640   -1.5120 C   0  0  0  0  0  0  0  0  0  0  0  0
   -2.4750   14.5920    0.2610 C   0  0  0  0  0  0  0  0  0  0  0  0
   -4.7290   14.7110   -0.1170 C   0  0  0  0  0  0  0  0  0  0  0  0
   -6.0370   14.6810    0.5060 N   0  0  0  0  0  0  0  0  0  0  0  0
   -3.7110   14.5790    0.7600 C   0  0  0  0  0  0  0  0  0  0  0  0
   -7.2130   14.4190   -0.1290 N   0  0  0  0  0  0  0  0  0  0  0  0
   -6.2720   14.9160    1.8500 C   0  0  0  0  0  0  0  0  0  0  0  0
   -7.6230   14.8140    2.1060 C   0  0  0  0  0  0  0  0  0  0  0  0
   -8.1540   14.5000    0.8340 C   0  0  0  0  0  0  0  0  0  0  0  0
   -8.3300   15.0070    3.4110 C   0  0  0  0  0  0  0  0  0  0  0  0
   -8.4940   13.7270    4.0980 N   0  0  0  0  0  0  0  0  0  0  0  0
   -8.4800   13.9160    5.5450 C   0  0  0  0  0  0  0  0  0  0  0  0
  2  1  1  6
  2  3  1  0
  2  4  1  0
  4  5  1  6
  3  6  1  0
  4  7  1  0
  6  7  1  0
  6  8  1  6
  7  9  1  1
  8 10  1  0
 10 11  1  0
 11 12  1  0
 12 13  1  0
 13 14  1  0
 14 15  1  0
 15 16  1  0
 16 17  2  0
 16 18  1  0
 17 19  1  0
 18 20  2  0
 20 21  1  0
 19 22  2  0
 20 22  1  0
 21 23  1  0
 21 24  1  0
 24 25  2  0
 23 26  2  0
 25 26  1  0
 25 27  1  0
 27 28  1  0
 28 29  1  0
M  END
