4iqy_A_0_A_γ-x0465_0_A_α
     RDKit          3D

 20 21  0  0  0  0  0  0  0  0999 V2000
   -1.7380   13.0190   -3.1860 O   0  0  0  0  0  0  0  0  0  0  0  0
   -1.3270   14.3530   -3.4210 C   0  0  1  0  0  0  0  0  0  0  0  0
   -0.3600   14.8620   -2.3720 C   0  0  0  0  0  0  0  0  0  0  0  0
   -0.4580   14.5400   -4.6540 C   0  0  2  0  0  0  0  0  0  0  0  0
    0.6290   13.6080   -4.5780 O   0  0  0  0  0  0  0  0  0  0  0  0
    0.2950   15.9910   -2.9730 O   0  0  0  0  0  0  0  0  0  0  0  0
   -0.1250   16.0000   -4.3540 C   0  0  1  0  0  0  0  0  0  0  0  0
    0.9300   16.6590   -5.2120 C   0  0  0  0  0  0  0  0  0  0  0  0
    0.1650   12.2850   -4.2950 C   0  0  1  0  0  0  0  0  0  0  0  0
    0.4600   11.3520   -5.3390 O   0  0  0  0  0  0  0  0  0  0  0  0
    0.7960   11.7780   -2.9660 C   0  0  0  0  0  0  0  0  0  0  0  0
    1.5690   12.3880   -2.2460 O   0  0  0  0  0  0  0  0  0  0  0  0
    0.4150   10.5100   -2.6000 O   0  0  0  0  0  0  0  0  0  0  0  0
   -0.6020   10.5740   -5.7290 C   0  0  0  0  0  0  0  0  0  0  0  0
   -0.6060    9.6450   -6.7710 C   0  0  0  0  0  0  0  0  0  0  0  0
   -1.7790   10.7520   -4.9900 C   0  0  0  0  0  0  0  0  0  0  0  0
    0.4840    9.4240   -7.5190 F   0  0  0  0  0  0  0  0  0  0  0  0
   -1.7510    8.9100   -7.0690 C   0  0  0  0  0  0  0  0  0  0  0  0
   -2.9260   10.0190   -5.2850 C   0  0  0  0  0  0  0  0  0  0  0  0
   -2.9160    9.0960   -6.3240 C   0  0  0  0  0  0  0  0  0  0  0  0
  2  1  1  1
  2  3  1  0
  2  4  1  0
  4  5  1  1
  3  6  1  0
  4  7  1  0
  6  7  1  0
  7  8  1  6
  9  5  1  6
  9 10  1  0
  9 11  1  0
 11 12  2  0
 11 13  1  0
 10 14  1  0
 14 15  2  0
 14 16  1  0
 15 17  1  0
 15 18  1  0
 16 19  2  0
 18 20  2  0
 19 20  1  0
M  END
