4IQY_0_A_Î²
     RDKit          3D

  9  8  0  0  0  0  0  0  0  0999 V2000
   -1.6770   20.1070   -8.9400 O   0  0  0  0  0  0  0  0  0  0  0  0
   -0.5360   19.3100   -8.1730 P   0  0  0  0  0  0  0  0  0  0  0  0
   -1.2500   18.9290   -6.8020 O   0  0  0  0  0  0  0  0  0  0  0  0
    0.5510   20.2710   -7.8270 O   0  0  0  0  0  0  0  0  0  0  0  0
   -0.1660   18.1300   -8.9910 O   0  0  0  0  0  0  0  0  0  0  0  0
   -2.0890   17.6660   -6.3470 P   0  0  0  0  0  0  0  0  0  0  0  0
   -1.0570   16.5200   -6.0580 O   0  0  0  0  0  0  0  0  0  0  0  0
   -2.8350   18.0580   -5.1090 O   0  0  0  0  0  0  0  0  0  0  0  0
   -3.0030   17.1600   -7.4210 O   0  0  0  0  0  0  0  0  0  0  0  0
  2  1  1  0
  3  2  1  0
  2  4  1  0
  2  5  1  0
  6  3  1  0
  6  7  1  0
  6  8  1  0
  6  9  1  0
M  CHG  2   4  -1   8  -1
M  END
