4IQY_0_B_γ-mArh-4gvw_0_A_α
     RDKit          3D

 22 23  0  0  0  0  0  0  0  0999 V2000
   -1.4750   12.4050   -3.6910 O   0  0  0  0  0  0  0  0  0  0  0  0
   -0.4950   13.3950   -3.4340 C   0  0  2  0  0  0  0  0  0  0  0  0
   -1.0040   14.5860   -2.6440 C   0  0  0  0  0  0  0  0  0  0  0  0
    0.0240   13.9960   -4.7340 C   0  0  2  0  0  0  0  0  0  0  0  0
    1.3970   13.6250   -4.9110 O   0  0  0  0  0  0  0  0  0  0  0  0
   -0.2300   15.6870   -3.1030 O   0  0  0  0  0  0  0  0  0  0  0  0
   -0.1130   15.5070   -4.5240 C   0  0  1  0  0  0  0  0  0  0  0  0
    1.0770   16.3130   -4.9910 C   0  0  0  0  0  0  0  0  0  0  0  0
    0.7980   17.7820   -5.2440 C   0  0  0  0  0  0  0  0  0  0  0  0
   -0.5950   18.0190   -5.7880 C   0  0  0  0  0  0  0  0  0  0  0  0
   -0.6930   19.4210   -6.1510 N   0  0  0  0  0  0  0  0  0  0  0  0
   -0.2550   19.9030   -7.7150 S   0  0  1  0  0  0  0  0  0  0  0  0
    0.7320   20.9540   -7.5890 O   0  0  0  0  0  0  0  0  0  0  0  0
   -0.0550   18.7380   -8.5960 O   0  0  0  0  0  0  0  0  0  0  0  0
   -1.8610   20.5940   -8.0420 C   0  0  0  0  0  0  0  0  0  0  0  0
   -2.1880   21.8160   -7.2270 C   0  0  0  0  0  0  0  0  0  0  0  0
   -3.5690   22.3010   -7.3340 N   0  0  0  0  0  0  0  0  0  0  0  0
   -3.8000   23.5290   -6.5890 C   0  0  0  0  0  0  0  0  0  0  0  0
   -4.0990   22.4630   -8.6880 C   0  0  0  0  0  0  0  0  0  0  0  0
   -5.2720   23.8420   -6.6170 C   0  0  0  0  0  0  0  0  0  0  0  0
   -5.5890   22.8090   -8.7170 C   0  0  0  0  0  0  0  0  0  0  0  0
   -5.8480   23.9580   -7.9190 O   0  0  0  0  0  0  0  0  0  0  0  0
  2  1  1  6
  2  3  1  0
  2  4  1  0
  4  5  1  1
  3  6  1  0
  4  7  1  0
  6  7  1  0
  7  8  1  1
  8  9  1  0
  9 10  1  0
 10 11  1  0
 11 12  2  0
 12 13  2  0
 12 14  1  6
 12 15  1  0
 15 16  1  0
 16 17  1  0
 17 18  1  0
 17 19  1  0
 18 20  1  0
 19 21  1  0
 20 22  1  0
 21 22  1  0
M  CHG  1  14  -1
M  END
