4IQY_0_B_Î²
     RDKit          3D

  9  8  0  0  0  0  0  0  0  0999 V2000
   -1.6800   20.0980   -8.9470 O   0  0  0  0  0  0  0  0  0  0  0  0
   -0.5350   19.2810   -8.1990 P   0  0  0  0  0  0  0  0  0  0  0  0
   -1.2580   18.8940   -6.8390 O   0  0  0  0  0  0  0  0  0  0  0  0
    0.5860   20.2140   -7.8850 O   0  0  0  0  0  0  0  0  0  0  0  0
   -0.1900   18.0960   -9.0290 O   0  0  0  0  0  0  0  0  0  0  0  0
   -2.1180   17.6410   -6.3710 P   0  0  0  0  0  0  0  0  0  0  0  0
   -1.0840   16.4930   -6.0790 O   0  0  0  0  0  0  0  0  0  0  0  0
   -2.8550   18.0400   -5.1400 O   0  0  0  0  0  0  0  0  0  0  0  0
   -3.0260   17.1690   -7.4710 O   0  0  0  0  0  0  0  0  0  0  0  0
  2  1  1  0
  3  2  1  0
  2  4  1  0
  2  5  1  0
  6  3  1  0
  6  7  1  0
  6  8  1  0
  6  9  1  0
M  CHG  2   4  -1   8  -1
M  END
