4iqy_B_0_B_α-6WOJ_0_C_γ
     RDKit          3D

 21 22  0  0  0  0  0  0  0  0999 V2000
   -1.6270   22.0180   -8.0470 C   0  0  0  0  0  0  0  0  0  0  0  0
   -3.1210   21.8620   -8.3110 C   0  0  1  0  0  0  0  0  0  0  0  0
   -3.7600   20.8850   -7.4300 N   0  0  0  0  0  0  0  0  0  0  0  0
   -3.8640   23.2070   -8.1030 C   0  0  1  0  0  0  0  0  0  0  0  0
   -4.3160   23.8530   -9.2990 O   0  0  0  0  0  0  0  0  0  0  0  0
   -2.9590   19.7260   -6.9570 C   0  0  0  0  0  0  0  0  0  0  0  0
   -4.8660   21.4850   -6.6810 C   0  0  1  0  0  0  0  0  0  0  0  0
   -5.1140   22.8620   -7.3120 C   0  0  1  0  0  0  0  0  0  0  0  0
   -6.0830   20.7770   -6.8720 O   0  0  0  0  0  0  0  0  0  0  0  0
   -5.4180   23.8670   -6.3430 O   0  0  0  0  0  0  0  0  0  0  0  0
   -2.1150   19.7180   -5.6610 C   0  0  0  0  0  0  0  0  0  0  0  0
   -1.5470   18.3000   -5.3250 C   0  0  0  0  0  0  0  0  0  0  0  0
   -0.0640   18.1830   -4.8880 C   0  0  0  0  0  0  0  0  0  0  0  0
    0.5940   16.8980   -5.4240 C   0  0  0  0  0  0  0  0  0  0  0  0
    0.9760   15.7840   -4.4240 C   0  0  1  0  0  0  0  0  0  0  0  0
    0.1750   15.8310   -3.2140 O   0  0  0  0  0  0  0  0  0  0  0  0
    0.7590   14.3790   -5.0140 C   0  0  1  0  0  0  0  0  0  0  0  0
    1.7310   13.4010   -4.6810 O   0  0  0  0  0  0  0  0  0  0  0  0
   -0.5010   14.5730   -3.0780 C   0  0  0  0  0  0  0  0  0  0  0  0
   -0.6170   14.0210   -4.4830 C   0  0  2  0  0  0  0  0  0  0  0  0
   -0.8580   12.6210   -4.5480 O   0  0  0  0  0  0  0  0  0  0  0  0
  2  1  1  1
  2  3  1  0
  2  4  1  0
  4  5  1  6
  3  6  1  0
  3  7  1  0
  4  8  1  0
  7  8  1  0
  7  9  1  6
  8 10  1  1
  6 11  1  0
 11 12  1  0
 12 13  1  0
 13 14  1  0
 15 14  1  6
 15 16  1  0
 15 17  1  0
 17 18  1  1
 16 19  1  0
 17 20  1  0
 19 20  1  0
 20 21  1  1
M  END
