4IQY_0_A_Î´
     RDKit          3D

 10 11  0  0  0  0  0  0  0  0999 V2000
   -1.6700   14.8570   -1.7060 N   0  0  0  0  0  0  0  0  0  0  0  0
   -1.3840   15.0740   -0.3830 C   0  0  0  0  0  0  0  0  0  0  0  0
   -3.0220   14.8880   -1.8720 C   0  0  0  0  0  0  0  0  0  0  0  0
   -0.2130   15.1250    0.2540 N   0  0  0  0  0  0  0  0  0  0  0  0
   -2.6080   15.2130    0.2720 C   0  0  0  0  0  0  0  0  0  0  0  0
   -3.6580   15.0960   -0.6910 N   0  0  0  0  0  0  0  0  0  0  0  0
   -0.3230   15.3380    1.5830 C   0  0  0  0  0  0  0  0  0  0  0  0
   -2.6920   15.4270    1.6360 C   0  0  0  0  0  0  0  0  0  0  0  0
   -1.4920   15.4830    2.2620 N   0  0  0  0  0  0  0  0  0  0  0  0
   -3.9070   15.5900    2.3630 N   0  0  0  0  0  0  0  0  0  0  0  0
  1  2  1  0
  1  3  1  0
  4  2  1  0
  2  5  1  0
  6  3  1  0
  7  4  1  0
  8  5  1  0
  5  6  1  0
  9  7  1  0
  9  8  1  0
  8 10  1  0
M  END
