4iqy_A_0_A_α-3vfq_B_0_A_β
     RDKit          3D

 20 20  0  0  0  0  0  0  0  0999 V2000
   -2.2030   21.5000   -8.8710 C   0  0  0  0  0  0  0  0  0  0  0  0
   -3.3780   21.9890   -8.0730 C   0  0  2  0  0  0  0  0  0  0  0  0
   -4.6230   21.4870   -8.5560 O   0  0  0  0  0  0  0  0  0  0  0  0
   -3.7140   23.4590   -8.0210 C   0  0  1  0  0  0  0  0  0  0  0  0
   -4.3180   23.9070   -9.2520 O   0  0  0  0  0  0  0  0  0  0  0  0
   -5.5580   22.0830   -7.6270 C   0  0  2  0  0  0  0  0  0  0  0  0
   -4.7790   23.2300   -6.9570 C   0  0  2  0  0  0  0  0  0  0  0  0
   -5.7810   21.1060   -6.6710 O   0  0  0  0  0  0  0  0  0  0  0  0
   -5.6420   24.3290   -6.7150 O   0  0  0  0  0  0  0  0  0  0  0  0
   -4.7080   20.2250   -6.9460 C   0  0  0  0  0  0  0  0  0  0  0  0
   -3.3900   20.4240   -6.1870 C   0  0  0  0  0  0  0  0  0  0  0  0
   -2.5070   19.5310   -6.8340 O   0  0  0  0  0  0  0  0  0  0  0  0
   -1.9310   18.1560   -6.2480 P   0  0  2  0  0  0  0  0  0  0  0  0
   -2.6130   17.5060   -4.9950 O   0  0  0  0  0  0  0  0  0  0  0  0
   -0.4600   18.0070   -6.3220 O   0  0  0  0  0  0  0  0  0  0  0  0
   -2.6610   17.1390   -7.1830 O   0  0  0  0  0  0  0  0  0  0  0  0
   -3.2460   16.0270   -5.1940 P   0  0  0  0  0  0  0  0  0  0  0  0
   -3.9790   15.6090   -3.8480 O   0  0  0  0  0  0  0  0  0  0  0  0
   -2.3150   15.0020   -5.5210 O   0  0  0  0  0  0  0  0  0  0  0  0
   -4.4640   16.1020   -6.2400 O   0  0  0  0  0  0  0  0  0  0  0  0
  2  1  1  6
  2  3  1  0
  2  4  1  0
  4  5  1  6
  3  6  1  0
  4  7  1  0
  6  7  1  0
  6  8  1  1
  7  9  1  6
  8 10  1  0
 10 11  1  0
 11 12  1  0
 12 13  1  0
 13 14  1  0
 13 15  2  0
 13 16  1  6
 14 17  1  0
 17 18  1  0
 17 19  2  0
 17 20  1  0
M  END
