4IQY_0_B_γ-mArh-x0104_0_A_β
     RDKit          3D

 18 19  0  0  0  0  0  0  0  0999 V2000
   -1.0300   12.2850   -4.0160 O   0  0  0  0  0  0  0  0  0  0  0  0
   -0.4390   13.5260   -3.6600 C   0  0  2  0  0  0  0  0  0  0  0  0
   -1.4410   14.6330   -3.4190 C   0  0  1  0  0  0  0  0  0  0  0  0
    0.3550   14.1400   -4.8260 C   0  0  2  0  0  0  0  0  0  0  0  0
    1.7480   14.0280   -4.5230 O   0  0  0  0  0  0  0  0  0  0  0  0
   -2.2620   14.5590   -2.1510 C   0  0  0  0  0  0  0  0  0  0  0  0
   -0.6340   15.7920   -3.4890 O   0  0  0  0  0  0  0  0  0  0  0  0
   -0.1140   15.6110   -4.8060 C   0  0  1  0  0  0  0  0  0  0  0  0
    0.9210   16.6760   -5.0740 C   0  0  0  0  0  0  0  0  0  0  0  0
   -3.5350   15.3700   -2.3800 C   0  0  0  0  0  0  0  0  0  0  0  0
   -4.6990   14.5690   -2.2740 O   0  0  0  0  0  0  0  0  0  0  0  0
   -5.2220   14.6250   -1.0100 C   0  0  0  0  0  0  0  0  0  0  0  0
   -4.3900   14.7070    0.0440 N   0  0  0  0  0  0  0  0  0  0  0  0
   -6.6020   14.5910   -0.9180 C   0  0  0  0  0  0  0  0  0  0  0  0
   -4.9770   14.7550    1.2580 C   0  0  0  0  0  0  0  0  0  0  0  0
   -7.1710   14.6410    0.3480 C   0  0  0  0  0  0  0  0  0  0  0  0
   -6.3560   14.7250    1.4710 C   0  0  0  0  0  0  0  0  0  0  0  0
   -6.9180   14.7860    2.7440 N   0  0  0  0  0  0  0  0  0  0  0  0
  2  1  1  6
  2  3  1  0
  2  4  1  0
  4  5  1  1
  3  6  1  1
  3  7  1  0
  4  8  1  0
  7  8  1  0
  8  9  1  1
  6 10  1  0
 10 11  1  0
 11 12  1  0
 12 13  2  0
 12 14  1  0
 13 15  1  0
 14 16  2  0
 15 17  2  0
 16 17  1  0
 17 18  1  0
M  END
