4iqy_A_0_A_γ-5cb5_H_0_H_γ
     RDKit          3D

  8  8  0  0  0  0  0  0  0  0999 V2000
   -0.5310   12.3760   -3.6930 O   0  0  0  0  0  0  0  0  0  0  0  0
   -0.8570   13.7480   -3.9050 C   0  0  1  0  0  0  0  0  0  0  0  0
   -0.5940   14.5990   -2.6670 C   0  0  0  0  0  0  0  0  0  0  0  0
    0.1050   14.3550   -4.8910 C   0  0  2  0  0  0  0  0  0  0  0  0
    1.4160   13.8320   -4.6940 O   0  0  0  0  0  0  0  0  0  0  0  0
   -0.0330   15.8530   -3.1310 O   0  0  0  0  0  0  0  0  0  0  0  0
   -0.1120   15.8250   -4.5610 C   0  0  1  0  0  0  0  0  0  0  0  0
    0.8200   16.8380   -5.1940 C   0  0  0  0  0  0  0  0  0  0  0  0
  2  1  1  1
  2  3  1  0
  2  4  1  0
  4  5  1  1
  3  6  1  0
  4  7  1  0
  6  7  1  0
  7  8  1  6
M  END
