4IQY_0_B_δ-5cb5_A_0_A_γ
     RDKit          3D

 17 19  0  0  0  0  0  0  0  0999 V2000
   -3.6810   15.5570    1.8240 N   0  0  0  0  0  0  0  0  0  0  0  0
   -2.7600   14.7980    0.9960 C   0  0  1  0  0  0  0  0  0  0  0  0
   -2.6080   15.3120   -0.4410 C   0  0  1  0  0  0  0  0  0  0  0  0
   -1.4870   14.8020    1.6870 N   0  0  0  0  0  0  0  0  0  0  0  0
   -1.4660   14.5040   -1.0600 C   0  0  1  0  0  0  0  0  0  0  0  0
   -3.7300   15.0920   -1.3670 N   0  0  0  0  0  0  0  0  0  0  0  0
   -0.3650   15.3610    0.9180 C   0  0  0  0  0  0  0  0  0  0  0  0
   -1.5710   14.8480   -2.5770 C   0  0  1  0  0  0  0  0  0  0  0  0
   -3.0880   15.1340   -2.7080 C   0  0  0  0  0  0  0  0  0  0  0  0
   -0.2210   14.7570   -0.3750 N   0  0  0  0  0  0  0  0  0  0  0  0
   -0.7780   16.0570   -2.8870 O   0  0  0  0  0  0  0  0  0  0  0  0
   -1.0280   13.8280   -3.6170 C   0  0  1  0  0  0  0  0  0  0  0  0
   -1.9280   12.9160   -4.2140 O   0  0  0  0  0  0  0  0  0  0  0  0
   -0.6180   16.0700   -4.3210 C   0  0  2  0  0  0  0  0  0  0  0  0
   -0.2940   14.6300   -4.6990 C   0  0  1  0  0  0  0  0  0  0  0  0
    0.4120   17.0880   -4.7840 C   0  0  0  0  0  0  0  0  0  0  0  0
    1.0950   14.3160   -4.7180 O   0  0  0  0  0  0  0  0  0  0  0  0
  2  1  1  1
  2  3  1  0
  2  4  1  0
  3  5  1  0
  3  6  1  6
  4  7  1  0
  5  8  1  0
  6  9  1  0
  8  9  1  6
  5 10  1  1
  7 10  1  0
  8 11  1  0
  8 12  1  0
 12 13  1  6
 11 14  1  0
 12 15  1  0
 14 15  1  0
 14 16  1  1
 15 17  1  1
M  END
