4iqy_B_0_B_γ-5cb5_I_0_I_α
     RDKit          3D

 21 22  0  0  0  0  0  0  0  0999 V2000
   -0.5780   12.3480   -3.8210 O   0  0  0  0  0  0  0  0  0  0  0  0
   -0.9070   13.7190   -3.9090 C   0  0  1  0  0  0  0  0  0  0  0  0
   -0.6830   14.4740   -2.6030 C   0  0  0  0  0  0  0  0  0  0  0  0
    0.0180   14.4590   -4.8580 C   0  0  2  0  0  0  0  0  0  0  0  0
    1.3530   13.9790   -4.6770 O   0  0  0  0  0  0  0  0  0  0  0  0
   -0.1410   15.7560   -2.9600 O   0  0  0  0  0  0  0  0  0  0  0  0
   -0.2880   15.8740   -4.3820 C   0  0  1  0  0  0  0  0  0  0  0  0
    0.5740   17.0310   -4.8750 C   0  0  0  0  0  0  0  0  0  0  0  0
    0.1560   17.6680   -6.1980 C   0  0  0  0  0  0  0  0  0  0  0  0
   -0.2880   19.1130   -6.2180 C   0  0  0  0  0  0  0  0  0  0  0  0
   -1.3950   19.4370   -7.2300 C   0  0  0  0  0  0  0  0  0  0  0  0
   -1.0910   20.5920   -8.2010 C   0  0  0  0  0  0  0  0  0  0  0  0
   -1.9320   21.8620   -7.9500 C   0  0  0  0  0  0  0  0  0  0  0  0
   -3.3030   21.8760   -8.6630 C   0  0  1  0  0  0  0  0  0  0  0  0
   -4.1130   20.8560   -8.0430 O   0  0  0  0  0  0  0  0  0  0  0  0
   -4.0690   23.2090   -8.5540 C   0  0  1  0  0  0  0  0  0  0  0  0
   -4.4310   23.8460   -9.7710 O   0  0  0  0  0  0  0  0  0  0  0  0
   -5.3220   21.4090   -7.5410 C   0  0  2  0  0  0  0  0  0  0  0  0
   -5.3320   22.9160   -7.7720 C   0  0  1  0  0  0  0  0  0  0  0  0
   -5.4150   21.1780   -6.1480 O   0  0  0  0  0  0  0  0  0  0  0  0
   -5.4010   23.6880   -6.5760 O   0  0  0  0  0  0  0  0  0  0  0  0
  2  1  1  1
  2  3  1  0
  2  4  1  0
  4  5  1  1
  3  6  1  0
  4  7  1  0
  6  7  1  0
  7  8  1  6
  8  9  1  0
  9 10  1  0
 10 11  1  0
 11 12  1  0
 12 13  1  0
 14 13  1  1
 14 15  1  0
 14 16  1  0
 16 17  1  6
 15 18  1  0
 16 19  1  0
 18 19  1  0
 18 20  1  1
 19 21  1  1
M  END
