4IQY_0_A_δ-5CB5_0_K_γ
     RDKit          3D

 17 19  0  0  0  0  0  0  0  0999 V2000
   -3.8740   15.3930    1.6170 N   0  0  0  0  0  0  0  0  0  0  0  0
   -2.7880   14.6540    0.9920 C   0  0  1  0  0  0  0  0  0  0  0  0
   -2.7010   14.8120   -0.5520 C   0  0  1  0  0  0  0  0  0  0  0  0
   -1.6060   15.2040    1.6310 N   0  0  0  0  0  0  0  0  0  0  0  0
   -1.3100   14.3520   -1.0340 C   0  0  1  0  0  0  0  0  0  0  0  0
   -3.5860   14.1250   -1.4840 N   0  0  0  0  0  0  0  0  0  0  0  0
   -0.3610   14.6500    1.1220 C   0  0  0  0  0  0  0  0  0  0  0  0
   -1.3980   14.4860   -2.5970 C   0  0  1  0  0  0  0  0  0  0  0  0
   -2.9460   14.5830   -2.7640 C   0  0  0  0  0  0  0  0  0  0  0  0
   -0.2540   14.9970   -0.2720 N   0  0  0  0  0  0  0  0  0  0  0  0
   -0.6770   15.6850   -3.0640 O   0  0  0  0  0  0  0  0  0  0  0  0
   -0.7030   13.4380   -3.5050 C   0  0  1  0  0  0  0  0  0  0  0  0
   -1.3650   12.2310   -3.7950 O   0  0  0  0  0  0  0  0  0  0  0  0
   -0.5210   15.6230   -4.4950 C   0  0  2  0  0  0  0  0  0  0  0  0
   -0.2980   14.1510   -4.8090 C   0  0  1  0  0  0  0  0  0  0  0  0
    0.5860   16.5460   -4.9950 C   0  0  0  0  0  0  0  0  0  0  0  0
    1.0440   13.8270   -5.1590 O   0  0  0  0  0  0  0  0  0  0  0  0
  2  1  1  1
  2  3  1  0
  2  4  1  0
  3  5  1  0
  3  6  1  6
  4  7  1  0
  5  8  1  0
  6  9  1  0
  8  9  1  6
  5 10  1  1
  7 10  1  0
  8 11  1  0
  8 12  1  0
 12 13  1  6
 11 14  1  0
 12 15  1  0
 14 15  1  0
 14 16  1  1
 15 17  1  1
M  END
