
     RDKit          3D

 36 39  0  0  0  0  0  0  0  0999 V2000
   -2.1180   17.6410   -6.3710 P   0  0  0  0  0  0  0  0  0  0  0  0
   -0.5350   19.2810   -8.1990 P   0  0  0  0  0  0  0  0  0  0  0  0
    0.1020   16.7670   -5.3680 C   0  0  0  0  0  0  0  0  0  0  0  0
   -1.0840   16.4930   -6.0790 O   0  0  0  0  0  0  0  0  0  0  0  0
    0.3980   15.7060   -4.3220 C   0  0  1  0  0  0  0  0  0  0  0  0
   -0.3490   15.9380   -3.1480 O   0  0  0  0  0  0  0  0  0  0  0  0
    0.1120   14.3040   -4.7840 C   0  0  1  0  0  0  0  0  0  0  0  0
    1.2410   13.5180   -4.5460 O   0  0  0  0  0  0  0  0  0  0  0  0
   -1.0100   13.9110   -3.9160 C   0  0  1  0  0  0  0  0  0  0  0  0
   -1.0760   12.5540   -3.6850 O   0  0  0  0  0  0  0  0  0  0  0  0
   -0.6670   14.6550   -2.6810 C   0  0  2  0  0  0  0  0  0  0  0  0
   -5.1740   21.4520   -7.1730 C   0  0  2  0  0  0  0  0  0  0  0  0
   -1.5530   15.5060    2.2720 N   0  0  0  0  0  0  0  0  0  0  0  0
   -2.8550   18.0400   -5.1400 O   0  0  0  0  0  0  0  0  0  0  0  0
    0.5860   20.2140   -7.8850 O   0  0  0  0  0  0  0  0  0  0  0  0
   -6.4640   21.3710   -7.6640 O   0  0  0  0  0  0  0  0  0  0  0  0
   -0.3750   15.3600    1.5970 C   0  0  0  0  0  0  0  0  0  0  0  0
   -4.6810   22.8600   -7.1590 C   0  0  2  0  0  0  0  0  0  0  0  0
   -3.0260   17.1690   -7.4710 O   0  0  0  0  0  0  0  0  0  0  0  0
   -0.1900   18.0960   -9.0290 O   0  0  0  0  0  0  0  0  0  0  0  0
   -5.6590   23.8130   -6.8850 O   0  0  0  0  0  0  0  0  0  0  0  0
   -4.0210   22.9890   -8.4750 C   0  0  2  0  0  0  0  0  0  0  0  0
   -0.2750   15.1370    0.2690 N   0  0  0  0  0  0  0  0  0  0  0  0
   -1.2580   18.8940   -6.8390 O   0  0  0  0  0  0  0  0  0  0  0  0
   -4.9280   23.4530   -9.4200 O   0  0  0  0  0  0  0  0  0  0  0  0
   -1.4370   15.0490   -0.3710 C   0  0  0  0  0  0  0  0  0  0  0  0
   -3.5580   21.5930   -8.7810 C   0  0  2  0  0  0  0  0  0  0  0  0
   -4.2780   20.7100   -7.9540 O   0  0  0  0  0  0  0  0  0  0  0  0
   -2.6670   15.1860    0.2740 C   0  0  0  0  0  0  0  0  0  0  0  0
   -2.0640   21.4090   -8.5480 C   0  0  0  0  0  0  0  0  0  0  0  0
   -1.6800   20.0980   -8.9470 O   0  0  0  0  0  0  0  0  0  0  0  0
   -2.7420   15.4250    1.6370 C   0  0  0  0  0  0  0  0  0  0  0  0
   -3.9460   15.5790    2.3780 N   0  0  0  0  0  0  0  0  0  0  0  0
   -3.7160   15.0390   -0.6860 N   0  0  0  0  0  0  0  0  0  0  0  0
   -3.0680   14.8310   -1.8620 C   0  0  0  0  0  0  0  0  0  0  0  0
   -1.7170   14.8070   -1.6950 N   0  0  0  0  0  0  0  0  0  0  0  0
  1  4  1  0
  1 14  1  0
  1 19  1  0
  1 24  1  0
  4  3  1  0
 24  2  1  0
  2 15  1  0
  2 20  1  0
  2 31  1  0
 31 30  1  0
  5  3  1  6
  5  6  1  0
  5  7  1  0
  6 11  1  0
  7  8  1  1
  7  9  1  0
 11  9  1  0
 11 36  1  1
  9 10  1  1
 36 26  1  0
 36 35  1  0
 12 16  1  6
 12 18  1  0
 12 28  1  0
 18 21  1  6
 18 22  1  0
 28 27  1  0
 13 17  1  0
 13 32  1  0
 17 23  1  0
 32 29  1  0
 32 33  1  0
 23 26  1  0
 22 25  1  6
 22 27  1  0
 27 30  1  1
 26 29  1  0
 29 34  1  0
 34 35  1  0
M  CHG  2  14  -1  15  -1
M  END
