4iqy_A_0_A_γ-EU0481_0_A_α
     RDKit          3D

 22 24  0  0  0  0  0  0  0  0999 V2000
   -0.7880   12.3400   -4.1960 O   0  0  0  0  0  0  0  0  0  0  0  0
   -0.1200   13.5330   -3.8060 C   0  0  2  0  0  0  0  0  0  0  0  0
   -1.0530   14.6490   -3.4480 C   0  0  1  0  0  0  0  0  0  0  0  0
    0.6330   14.2070   -4.9550 C   0  0  2  0  0  0  0  0  0  0  0  0
    2.0190   14.1210   -4.6230 O   0  0  0  0  0  0  0  0  0  0  0  0
   -1.8750   14.5620   -2.2190 C   0  0  0  0  0  0  0  0  0  0  0  0
   -0.2740   15.8190   -3.5210 O   0  0  0  0  0  0  0  0  0  0  0  0
    0.0820   15.6540   -4.8890 C   0  0  1  0  0  0  0  0  0  0  0  0
    0.9800   16.7980   -5.2850 C   0  0  0  0  0  0  0  0  0  0  0  0
   -3.2700   15.0670   -2.4920 C   0  0  0  0  0  0  0  0  0  0  0  0
   -4.0850   15.0130   -1.2850 C   0  0  0  0  0  0  0  0  0  0  0  0
   -3.4440   15.0850   -0.0510 C   0  0  0  0  0  0  0  0  0  0  0  0
   -5.4590   14.8840   -1.3740 C   0  0  0  0  0  0  0  0  0  0  0  0
   -6.2290   14.8210   -0.2500 C   0  0  0  0  0  0  0  0  0  0  0  0
   -4.1950   15.0270    1.0960 C   0  0  0  0  0  0  0  0  0  0  0  0
   -7.5570   14.6950   -0.3760 N   0  0  0  0  0  0  0  0  0  0  0  0
   -5.5810   14.8960    0.9980 C   0  0  0  0  0  0  0  0  0  0  0  0
   -8.2860   14.6440    0.7560 C   0  0  0  0  0  0  0  0  0  0  0  0
   -6.3690   14.8410    2.1340 C   0  0  0  0  0  0  0  0  0  0  0  0
   -7.7480   14.7150    2.0290 C   0  0  0  0  0  0  0  0  0  0  0  0
   -8.6030   14.6650    3.2500 C   0  0  0  0  0  0  0  0  0  0  0  0
   -8.3060   13.4970    4.0630 N   0  0  0  0  0  0  0  0  0  0  0  0
  2  1  1  6
  2  3  1  0
  2  4  1  0
  4  5  1  1
  3  6  1  1
  3  7  1  0
  4  8  1  0
  7  8  1  0
  8  9  1  1
  6 10  1  0
 10 11  1  0
 11 12  2  0
 11 13  1  0
 13 14  2  0
 12 15  1  0
 14 16  1  0
 14 17  1  0
 15 17  2  0
 16 18  2  0
 17 19  1  0
 18 20  1  0
 19 20  2  0
 20 21  1  0
 21 22  1  0
M  END
