4IQY_0_B_Î³
     RDKit          3D

  8  8  0  0  0  0  0  0  0  0999 V2000
   -0.6670   14.6550   -2.6810 C   0  0  0  0  0  0  0  0  0  0  0  0
   -0.3490   15.9380   -3.1480 O   0  0  0  0  0  0  0  0  0  0  0  0
   -1.0100   13.9110   -3.9160 C   0  0  1  0  0  0  0  0  0  0  0  0
    0.3980   15.7060   -4.3220 C   0  0  1  0  0  0  0  0  0  0  0  0
    0.1120   14.3040   -4.7840 C   0  0  1  0  0  0  0  0  0  0  0  0
   -1.0760   12.5540   -3.6850 O   0  0  0  0  0  0  0  0  0  0  0  0
    0.1020   16.7670   -5.3680 C   0  0  0  0  0  0  0  0  0  0  0  0
    1.2410   13.5180   -4.5460 O   0  0  0  0  0  0  0  0  0  0  0  0
  1  2  1  1
  1  3  1  0
  4  2  1  0
  5  3  1  0
  3  6  1  1
  4  7  1  6
  4  5  1  0
  5  8  1  1
M  END
