4IQY_0_B_α-5CMS_0_I_β
     RDKit          3D

 19 19  0  0  0  0  0  0  0  0999 V2000
   -1.7570   22.3500   -8.0020 C   0  0  0  0  0  0  0  0  0  0  0  0
   -3.1880   22.0830   -8.4760 C   0  0  1  0  0  0  0  0  0  0  0  0
   -3.7240   21.1190   -7.5900 N   0  0  0  0  0  0  0  0  0  0  0  0
   -3.9270   23.4050   -8.2930 C   0  0  1  0  0  0  0  0  0  0  0  0
   -4.4090   23.8870   -9.5120 O   0  0  0  0  0  0  0  0  0  0  0  0
   -2.8290   20.5400   -6.5950 C   0  0  0  0  0  0  0  0  0  0  0  0
   -5.0350   21.6850   -7.1570 C   0  0  2  0  0  0  0  0  0  0  0  0
   -5.1400   23.1280   -7.4680 C   0  0  1  0  0  0  0  0  0  0  0  0
   -5.4340   21.4070   -5.8730 O   0  0  0  0  0  0  0  0  0  0  0  0
   -5.2930   23.9720   -6.3780 O   0  0  0  0  0  0  0  0  0  0  0  0
   -1.9890   19.3290   -6.9460 N   0  0  0  0  0  0  0  0  0  0  0  0
   -0.4800   19.7440   -7.7630 P   0  0  0  0  0  0  0  0  0  0  0  0
   -1.8760   18.0310   -6.0130 P   0  0  0  0  0  0  0  0  0  0  0  0
   -1.2610   20.5670   -8.7800 O   0  0  0  0  0  0  0  0  0  0  0  0
    0.3510   19.1250   -6.6360 O   0  0  0  0  0  0  0  0  0  0  0  0
    0.0260   18.6820   -8.8400 O   0  0  0  0  0  0  0  0  0  0  0  0
   -0.3410   17.6040   -6.4100 O   0  0  0  0  0  0  0  0  0  0  0  0
   -3.1070   17.3530   -6.8600 O   0  0  0  0  0  0  0  0  0  0  0  0
   -2.0670   18.9140   -4.6810 O   0  0  0  0  0  0  0  0  0  0  0  0
  2  1  1  1
  2  3  1  0
  2  4  1  0
  4  5  1  6
  3  6  1  0
  3  7  1  0
  4  8  1  0
  7  8  1  0
  7  9  1  1
  8 10  1  1
  6 11  1  0
 11 12  1  0
 11 13  1  0
 12 14  1  0
 12 15  1  0
 12 16  1  0
 13 17  1  0
 13 18  1  0
 13 19  1  0
M  CHG  2  15  -1  18  -1
M  END
