4J4Z_0_A_α-EU0569_0_A_α
     RDKit          3D

 30 32  0  0  0  0  0  0  0  0999 V2000
   -0.0020   17.3700   -3.4520 O   0  0  0  0  0  0  0  0  0  0  0  0
   -0.8700   16.5560   -4.5060 S   0  0  0  0  0  0  0  0  0  0  0  0
   -0.0310   16.4050   -5.8490 O   0  0  0  0  0  0  0  0  0  0  0  0
   -2.2450   17.3380   -4.7920 O   0  0  0  0  0  0  0  0  0  0  0  0
   -1.1250   14.8750   -3.8300 C   0  0  2  0  0  0  0  0  0  0  0  0
   -0.5760   13.7980   -4.7700 C   0  0  0  0  0  0  0  0  0  0  0  0
   -2.5700   14.6320   -3.4290 C   0  0  0  0  0  0  0  0  0  0  0  0
   -3.1420   15.7470   -2.6260 C   0  0  0  0  0  0  0  0  0  0  0  0
   -1.2880   12.5070   -4.6420 N   0  0  0  0  0  0  0  0  0  0  0  0
   -2.5610   12.6380   -3.9170 C   0  0  0  0  0  0  0  0  0  0  0  0
   -0.5320   11.5040   -3.8910 C   0  0  0  0  0  0  0  0  0  0  0  0
   -3.9120   15.4730   -1.3750 C   0  0  0  0  0  0  0  0  0  0  0  0
   -3.4680   11.4140   -4.0180 C   0  0  0  0  0  0  0  0  0  0  0  0
   -1.3320   10.2250   -3.5640 C   0  0  0  0  0  0  0  0  0  0  0  0
   -3.2550   15.3460   -0.1430 C   0  0  0  0  0  0  0  0  0  0  0  0
   -5.2960   15.3620   -1.4320 C   0  0  0  0  0  0  0  0  0  0  0  0
   -2.7250   10.1630   -4.0870 N   0  0  0  0  0  0  0  0  0  0  0  0
   -6.0270   15.1560   -0.2810 C   0  0  0  0  0  0  0  0  0  0  0  0
   -3.9900   15.1390    1.0230 C   0  0  0  0  0  0  0  0  0  0  0  0
   -3.5790    9.0980   -3.5540 C   0  0  0  0  0  0  0  0  0  0  0  0
   -7.3860   15.0790   -0.4450 O   0  0  0  0  0  0  0  0  0  0  0  0
   -5.3820   15.0590    0.9490 C   0  0  0  0  0  0  0  0  0  0  0  0
   -3.5880    7.7080   -4.1840 C   0  0  0  0  0  0  0  0  0  0  0  0
   -8.1910   14.7470    0.6990 C   0  0  0  0  0  0  0  0  0  0  0  0
   -6.1800   14.9220    2.1470 C   0  0  0  0  0  0  0  0  0  0  0  0
   -3.5930    6.7090   -3.1800 O   0  0  0  0  0  0  0  0  0  0  0  0
   -7.5070   14.8080    2.0280 C   0  0  0  0  0  0  0  0  0  0  0  0
   -8.3920   14.7830    3.2110 C   0  0  0  0  0  0  0  0  0  0  0  0
   -7.7740   14.7330    4.4140 N   0  0  0  0  0  0  0  0  0  0  0  0
   -9.6130   14.8400    3.1140 O   0  0  0  0  0  0  0  0  0  0  0  0
  2  1  1  0
  2  3  1  0
  2  4  1  0
  2  5  1  0
  5  6  1  6
  5  7  1  0
  7  8  1  0
  6  9  1  0
  9 10  1  0
  9 11  1  0
  8 12  1  0
 10 13  1  0
 11 14  1  0
 12 15  2  0
 12 16  1  0
 13 17  1  0
 14 17  1  0
 16 18  2  0
 15 19  1  0
 17 20  1  0
 18 21  1  0
 18 22  1  0
 19 22  2  0
 20 23  1  0
 21 24  1  0
 22 25  1  0
 23 26  1  0
 24 27  1  0
 25 27  2  0
 27 28  1  0
 28 29  1  0
 28 30  2  0
M  END
