4J4Z_0_A_α-6ywk_E_2_E_α
     RDKit          3D

 32 33  0  0  0  0  0  0  0  0999 V2000
   -0.0040   16.6520   -3.4610 O   0  0  0  0  0  0  0  0  0  0  0  0
   -1.0270   16.5020   -4.6770 S   0  0  0  0  0  0  0  0  0  0  0  0
   -0.0690   16.3080   -5.8960 O   0  0  0  0  0  0  0  0  0  0  0  0
   -2.0140   17.7650   -4.8380 O   0  0  0  0  0  0  0  0  0  0  0  0
   -1.9270   15.0170   -4.3460 C   0  0  0  0  0  0  0  0  0  0  0  0
   -0.9610   13.9450   -3.8950 C   0  0  0  0  0  0  0  0  0  0  0  0
    1.1890   16.8330   -5.5690 C   0  0  0  0  0  0  0  0  0  0  0  0
    1.1080   18.3380   -5.6300 C   0  0  0  0  0  0  0  0  0  0  0  0
   -1.5580   12.6480   -4.1580 N   0  0  0  0  0  0  0  0  0  0  0  0
    0.0030   18.6640   -6.5590 N   0  0  0  0  0  0  0  0  0  0  0  0
   -2.8330   12.5070   -3.4550 C   0  0  0  0  0  0  0  0  0  0  0  0
   -0.6660   11.5370   -3.8290 C   0  0  0  0  0  0  0  0  0  0  0  0
    0.0850   19.8970   -7.4380 S   0  0  1  0  0  0  0  0  0  0  0  0
   -3.6280   11.3510   -4.0340 C   0  0  0  0  0  0  0  0  0  0  0  0
   -1.4450   10.2340   -3.5720 C   0  0  0  0  0  0  0  0  0  0  0  0
    1.2080   20.8100   -7.5720 O   0  0  0  0  0  0  0  0  0  0  0  0
    0.0430   18.9000   -8.7110 O   0  0  0  0  0  0  0  0  0  0  0  0
   -1.4950   20.7410   -7.3370 C   0  0  0  0  0  0  0  0  0  0  0  0
   -2.8370   10.1180   -4.1400 N   0  0  0  0  0  0  0  0  0  0  0  0
   -3.6230    9.0570   -3.5040 C   0  0  0  0  0  0  0  0  0  0  0  0
   -1.8480   21.6190   -8.5210 C   0  0  0  0  0  0  0  0  0  0  0  0
   -3.6020    7.6900   -4.1760 C   0  0  0  0  0  0  0  0  0  0  0  0
   -2.9710   22.5770   -8.3490 N   0  0  0  0  0  0  0  0  0  0  0  0
   -3.6020    6.6890   -3.1550 O   0  0  0  0  0  0  0  0  0  0  0  0
   -2.9660   23.1660   -7.0110 C   0  0  0  0  0  0  0  0  0  0  0  0
   -4.2650   21.9590   -8.5730 C   0  0  0  0  0  0  0  0  0  0  0  0
   -4.2320   23.9420   -6.5810 C   0  0  0  0  0  0  0  0  0  0  0  0
   -5.0930   21.8690   -7.2820 C   0  0  0  0  0  0  0  0  0  0  0  0
   -5.4700   23.1970   -6.8820 N   0  0  0  0  0  0  0  0  0  0  0  0
   -6.1210   23.7950   -8.0450 C   0  0  0  0  0  0  0  0  0  0  0  0
   -6.6970   22.7830   -9.0300 C   0  0  0  0  0  0  0  0  0  0  0  0
   -7.9790   23.1990   -9.4920 O   0  0  0  0  0  0  0  0  0  0  0  0
  2  1  1  0
  2  3  1  0
  2  4  1  0
  2  5  1  0
  5  6  1  0
  3  7  1  0
  7  8  1  0
  6  9  1  0
  8 10  1  0
  9 11  1  0
  9 12  1  0
 10 13  2  0
 11 14  1  0
 12 15  1  0
 13 16  2  0
 13 17  1  6
 13 18  1  0
 14 19  1  0
 15 19  1  0
 19 20  1  0
 18 21  1  0
 20 22  1  0
 21 23  1  0
 22 24  1  0
 23 25  1  0
 23 26  1  0
 25 27  1  0
 26 28  1  0
 27 29  1  0
 28 29  1  0
 29 30  1  0
 30 31  1  0
 31 32  1  0
M  END
