
     RDKit          3D

 15 15  0  0  0  0  0  0  0  0999 V2000
   -1.5440   12.4770   -4.1650 N   0  0  0  0  0  0  0  0  0  0  0  0
   -0.3810   16.8590   -3.6470 O   0  0  0  0  0  0  0  0  0  0  0  0
   -0.5270   11.4870   -3.7380 C   0  0  0  0  0  0  0  0  0  0  0  0
   -0.2130   16.0950   -5.9960 O   0  0  0  0  0  0  0  0  0  0  0  0
   -1.1070   10.1290   -3.3280 C   0  0  0  0  0  0  0  0  0  0  0  0
   -2.1300   17.3660   -5.1750 O   0  0  0  0  0  0  0  0  0  0  0  0
   -2.4170    9.8300   -3.8770 N   0  0  0  0  0  0  0  0  0  0  0  0
   -3.3760   10.9220   -3.9510 C   0  0  0  0  0  0  0  0  0  0  0  0
   -2.8000   12.2400   -3.4360 C   0  0  0  0  0  0  0  0  0  0  0  0
   -2.9720    8.4750   -3.9000 C   0  0  0  0  0  0  0  0  0  0  0  0
   -1.9900    7.3160   -3.7790 C   0  0  0  0  0  0  0  0  0  0  0  0
   -1.6110    7.1810   -2.4340 O   0  0  0  0  0  0  0  0  0  0  0  0
   -0.9690   13.8200   -3.9510 C   0  0  0  0  0  0  0  0  0  0  0  0
   -1.9060   14.9040   -4.4650 C   0  0  0  0  0  0  0  0  0  0  0  0
   -1.0500   16.4230   -4.8570 S   0  0  2  0  0  0  0  0  0  0  0  0
  1  3  1  0
  1  9  1  0
  1 13  1  0
  3  5  1  0
  9  8  1  0
 13 14  1  0
 15  2  1  1
 15  4  1  0
 15  6  1  0
 15 14  1  0
  5  7  1  0
  7  8  1  0
  7 10  1  0
 10 11  1  0
 11 12  1  0
M  END
