4j4z_0_A_α-5dus_0_A_α
     RDKit          3D

 27 28  0  0  0  0  0  0  0  0999 V2000
    0.0990   16.9910   -3.6230 O   0  0  0  0  0  0  0  0  0  0  0  0
   -0.6800   16.6350   -4.7760 S   0  0  0  0  0  0  0  0  0  0  0  0
    0.0000   16.5740   -6.0370 O   0  0  0  0  0  0  0  0  0  0  0  0
   -1.9520   17.6440   -4.9630 O   0  0  0  0  0  0  0  0  0  0  0  0
   -1.5430   15.1000   -4.5120 C   0  0  0  0  0  0  0  0  0  0  0  0
   -0.5860   13.9440   -4.2580 C   0  0  0  0  0  0  0  0  0  0  0  0
   -1.5640   18.9620   -5.2700 C   0  0  0  0  0  0  0  0  0  0  0  0
   -2.0680   19.4080   -6.6340 C   0  0  0  0  0  0  0  0  0  0  0  0
   -1.1600   12.6110   -4.3860 N   0  0  0  0  0  0  0  0  0  0  0  0
   -1.9990   20.9320   -6.6740 C   0  0  0  0  0  0  0  0  0  0  0  0
   -2.3230   12.5300   -5.2790 C   0  0  0  0  0  0  0  0  0  0  0  0
   -0.2030   11.5070   -4.5620 C   0  0  0  0  0  0  0  0  0  0  0  0
   -2.1520   21.5710   -8.0420 C   0  0  0  0  0  0  0  0  0  0  0  0
   -2.8090   11.0800   -5.5980 C   0  0  0  0  0  0  0  0  0  0  0  0
   -0.7750   10.0670   -4.4650 C   0  0  0  0  0  0  0  0  0  0  0  0
   -2.1950    9.9420   -4.8680 N   0  0  0  0  0  0  0  0  0  0  0  0
   -3.6030   21.8760   -8.3960 C   0  0  1  0  0  0  0  0  0  0  0  0
   -2.7910    8.6020   -5.0880 C   0  0  0  0  0  0  0  0  0  0  0  0
   -4.4160   21.0180   -7.5820 O   0  0  0  0  0  0  0  0  0  0  0  0
   -4.0080   23.3320   -8.1170 C   0  0  1  0  0  0  0  0  0  0  0  0
   -1.8250    7.6300   -5.7430 C   0  0  0  0  0  0  0  0  0  0  0  0
   -4.3360   23.9690   -9.3530 O   0  0  0  0  0  0  0  0  0  0  0  0
   -5.5460   21.7460   -7.1480 C   0  0  2  0  0  0  0  0  0  0  0  0
   -5.3110   23.2410   -7.3590 C   0  0  1  0  0  0  0  0  0  0  0  0
   -0.5470    7.7860   -5.1660 O   0  0  0  0  0  0  0  0  0  0  0  0
   -5.7470   21.5030   -5.7670 O   0  0  0  0  0  0  0  0  0  0  0  0
   -5.2650   23.9510   -6.1240 O   0  0  0  0  0  0  0  0  0  0  0  0
  1  2  2  0
  2  3  2  0
  2  4  1  0
  2  5  1  0
  5  6  1  0
  4  7  1  0
  7  8  1  0
  6  9  1  0
  8 10  1  0
  9 11  1  0
  9 12  1  0
 10 13  1  0
 11 14  1  0
 12 15  1  0
 14 16  1  0
 15 16  1  0
 17 13  1  1
 16 18  1  0
 17 19  1  0
 17 20  1  0
 18 21  1  0
 20 22  1  6
 19 23  1  0
 20 24  1  0
 23 24  1  0
 21 25  1  0
 23 26  1  1
 24 27  1  1
M  END
