4j4z_0_A_α-5CMS_0_R_β
     RDKit          3D

 22 22  0  0  0  0  0  0  0  0999 V2000
    0.2950   16.5210   -3.3860 O   0  0  0  0  0  0  0  0  0  0  0  0
   -0.6600   16.4550   -4.5290 S   0  0  0  0  0  0  0  0  0  0  0  0
    0.1430   16.2170   -5.7650 O   0  0  0  0  0  0  0  0  0  0  0  0
   -1.4690   17.8830   -4.6430 O   0  0  0  0  0  0  0  0  0  0  0  0
   -1.7020   15.0570   -4.3090 C   0  0  0  0  0  0  0  0  0  0  0  0
   -0.8220   13.8970   -3.9650 C   0  0  0  0  0  0  0  0  0  0  0  0
   -1.4570   18.2570   -6.2800 P   0  0  0  0  0  0  0  0  0  0  0  0
   -1.2610   19.8780   -6.6750 O   0  0  0  0  0  0  0  0  0  0  0  0
   -2.8700   17.5560   -6.9060 O   0  0  0  0  0  0  0  0  0  0  0  0
   -1.4600   12.6480   -4.1790 N   0  0  0  0  0  0  0  0  0  0  0  0
   -0.2710   19.9760   -7.9880 P   0  0  0  0  0  0  0  0  0  0  0  0
   -2.7480   12.5610   -3.5540 C   0  0  0  0  0  0  0  0  0  0  0  0
   -0.6620   11.5590   -3.6540 C   0  0  0  0  0  0  0  0  0  0  0  0
   -1.4540   20.6100   -8.7500 O   0  0  0  0  0  0  0  0  0  0  0  0
    0.9220   19.6870   -7.0770 O   0  0  0  0  0  0  0  0  0  0  0  0
   -0.0350   18.6560   -8.8590 O   0  0  0  0  0  0  0  0  0  0  0  0
   -3.4630   11.3840   -4.0550 C   0  0  0  0  0  0  0  0  0  0  0  0
   -1.4090   10.2510   -3.5050 C   0  0  0  0  0  0  0  0  0  0  0  0
   -2.7730   10.2060   -3.9340 N   0  0  0  0  0  0  0  0  0  0  0  0
   -3.5650    9.1290   -3.5620 C   0  0  0  0  0  0  0  0  0  0  0  0
   -3.4610    7.8790   -4.3250 C   0  0  0  0  0  0  0  0  0  0  0  0
   -3.5330    6.7670   -3.5310 O   0  0  0  0  0  0  0  0  0  0  0  0
  1  2  2  0
  2  3  2  0
  2  4  1  0
  2  5  1  0
  5  6  1  0
  4  7  1  0
  7  8  1  0
  7  9  1  0
  6 10  1  0
  8 11  1  0
 10 12  1  0
 10 13  1  0
 11 14  1  0
 11 15  1  0
 11 16  1  0
 12 17  1  0
 13 18  1  0
 17 19  1  0
 18 19  1  0
 19 20  1  0
 20 21  1  0
 21 22  1  0
M  CHG  2   9  -1  15  -1
M  END
