4jca_0_A_α-5DUS_0_A_δ
     RDKit          3D

 25 26  0  0  0  0  0  0  0  0999 V2000
   -0.7200    7.9720   -5.2280 C   0  0  0  0  0  0  0  0  0  0  0  0
    0.0090    9.2380   -5.3540 C   0  0  0  0  0  0  0  0  0  0  0  0
    0.3580   10.0730   -4.0950 C   0  0  0  0  0  0  0  0  0  0  0  0
   -0.3080    6.8630   -5.5350 O   0  0  0  0  0  0  0  0  0  0  0  0
   -1.9350    8.2010   -4.7090 O   0  0  0  0  0  0  0  0  0  0  0  0
    1.0410   11.2720   -4.7300 C   0  0  0  0  0  0  0  0  0  0  0  0
   -0.7420   10.4080   -3.1000 C   0  0  0  0  0  0  0  0  0  0  0  0
    1.2750    9.4440   -3.2900 O   0  0  0  0  0  0  0  0  0  0  0  0
    1.8190   10.9080   -5.9680 C   0  0  0  0  0  0  0  0  0  0  0  0
   -1.9300   10.2330   -3.2630 O   0  0  0  0  0  0  0  0  0  0  0  0
   -0.1720   10.9200   -1.9640 O   0  0  0  0  0  0  0  0  0  0  0  0
    3.0050   10.8940   -6.0810 O   0  0  0  0  0  0  0  0  0  0  0  0
    1.0460   10.5700   -7.0180 O   0  0  0  0  0  0  0  0  0  0  0  0
   -0.6480   12.2750   -1.8190 C   0  0  0  0  0  0  0  0  0  0  0  0
    0.2900   13.2930   -1.1350 C   0  0  0  0  0  0  0  0  0  0  0  0
   -0.3620   14.4760   -0.5600 N   0  0  0  0  0  0  0  0  0  0  0  0
   -1.7370   14.6180   -0.9740 C   0  0  1  0  0  0  0  0  0  0  0  0
   -0.2170   14.5510    0.9050 C   0  0  0  0  0  0  0  0  0  0  0  0
   -2.1500   14.0570   -2.2140 N   0  0  0  0  0  0  0  0  0  0  0  0
   -2.8670   14.1610   -0.0920 C   0  0  2  0  0  0  0  0  0  0  0  0
   -1.3480   15.2260    1.5200 N   0  0  0  0  0  0  0  0  0  0  0  0
   -3.9380   14.8420   -0.8430 N   0  0  0  0  0  0  0  0  0  0  0  0
   -3.4660   14.7000   -2.2450 C   0  0  0  0  0  0  0  0  0  0  0  0
   -2.5920   14.5390    1.3670 C   0  0  1  0  0  0  0  0  0  0  0  0
   -3.6020   15.4240    1.9290 N   0  0  0  0  0  0  0  0  0  0  0  0
  1  2  1  0
  2  3  1  0
  1  4  2  0
  1  5  1  0
  3  6  1  0
  3  7  1  0
  3  8  1  0
  6  9  1  0
  7 10  2  0
  7 11  1  0
  9 12  2  0
  9 13  1  0
 11 14  1  0
 14 15  1  0
 15 16  1  0
 16 17  1  0
 16 18  1  0
 17 19  1  6
 17 20  1  0
 18 21  1  0
 20 22  1  6
 19 23  1  0
 22 23  1  0
 20 24  1  0
 21 24  1  0
 24 25  1  6
M  END
