4jca_0_A_α-1hjz_A_0_A_α
     RDKit          3D

 32 32  0  0  0  0  0  0  0  0999 V2000
   -1.0730    7.7670   -5.3180 C   0  0  0  0  0  0  0  0  0  0  0  0
   -1.7090    9.0550   -4.9600 C   0  0  0  0  0  0  0  0  0  0  0  0
   -0.6780   10.0470   -4.4400 C   0  0  1  0  0  0  0  0  0  0  0  0
   -1.5140    6.7380   -5.7790 O   0  0  0  0  0  0  0  0  0  0  0  0
    0.1920    7.8290   -5.0010 O   0  0  0  0  0  0  0  0  0  0  0  0
   -0.1830   11.0970   -5.4390 C   0  0  0  0  0  0  0  0  0  0  0  0
   -0.9950   10.5900   -3.0400 C   0  0  0  0  0  0  0  0  0  0  0  0
    0.3920    9.2710   -4.0100 O   0  0  0  0  0  0  0  0  0  0  0  0
    0.7530   10.6880   -6.5690 C   0  0  0  0  0  0  0  0  0  0  0  0
   -2.0640   11.0350   -2.6950 O   0  0  0  0  0  0  0  0  0  0  0  0
    0.0230   10.5020   -2.1450 O   0  0  0  0  0  0  0  0  0  0  0  0
    0.7840    9.6290   -7.1870 O   0  0  0  0  0  0  0  0  0  0  0  0
    1.6420   11.6910   -6.7230 O   0  0  0  0  0  0  0  0  0  0  0  0
    1.3090   12.8660   -5.9550 C   0  0  0  0  0  0  0  0  0  0  0  0
    1.7430   12.8100   -4.4920 C   0  0  0  0  0  0  0  0  0  0  0  0
    1.0740   13.8680   -3.6160 C   0  0  0  0  0  0  0  0  0  0  0  0
    1.6920   15.2490   -3.7680 C   0  0  0  0  0  0  0  0  0  0  0  0
    0.6780   16.3690   -4.0670 C   0  0  0  0  0  0  0  0  0  0  0  0
    0.6360   16.8300   -5.5230 C   0  0  0  0  0  0  0  0  0  0  0  0
    0.9440   18.3090   -5.7430 C   0  0  0  0  0  0  0  0  0  0  0  0
   -0.2130   18.9630   -6.4040 N   0  0  0  0  0  0  0  0  0  0  0  0
    0.0150   19.8140   -7.8400 S   0  0  1  0  0  0  0  0  0  0  0  0
    0.9690   20.8930   -7.6410 O   0  0  0  0  0  0  0  0  0  0  0  0
    0.2090   18.7480   -8.7830 O   0  0  0  0  0  0  0  0  0  0  0  0
   -1.6130   20.4920   -8.1240 C   0  0  0  0  0  0  0  0  0  0  0  0
   -1.9390   21.7800   -7.3930 C   0  0  0  0  0  0  0  0  0  0  0  0
   -3.3100   22.2970   -7.6010 N   0  0  0  0  0  0  0  0  0  0  0  0
   -3.5970   22.7020   -8.9770 C   0  0  0  0  0  0  0  0  0  0  0  0
   -3.7230   23.3650   -6.6780 C   0  0  0  0  0  0  0  0  0  0  0  0
   -5.0640   23.0960   -9.1740 C   0  0  0  0  0  0  0  0  0  0  0  0
   -5.1560   23.8410   -6.9160 C   0  0  0  0  0  0  0  0  0  0  0  0
   -5.4620   24.1360   -8.2790 O   0  0  0  0  0  0  0  0  0  0  0  0
  1  2  1  0
  2  3  1  0
  1  4  2  0
  1  5  1  0
  3  6  1  0
  3  7  1  0
  3  8  1  1
  6  9  1  0
  7 10  2  0
  7 11  1  0
  9 12  2  0
  9 13  1  0
 13 14  1  0
 14 15  1  0
 15 16  1  0
 16 17  1  0
 17 18  1  0
 18 19  1  0
 19 20  1  0
 20 21  1  0
 21 22  2  0
 22 23  2  0
 22 24  1  6
 22 25  1  0
 25 26  1  0
 26 27  1  0
 27 28  1  0
 27 29  1  0
 28 30  1  0
 29 31  1  0
 30 32  1  0
 31 32  1  0
M  CHG  1  24  -1
M  END
