5CB3_0_A_γ-5MQX_0_A_α
     RDKit          3D

 21 22  0  0  0  0  0  0  0  0999 V2000
   -0.6230   12.5550   -4.0450 O   0  0  0  0  0  0  0  0  0  0  0  0
   -0.9380   13.9300   -4.1650 C   0  0  1  0  0  0  0  0  0  0  0  0
   -0.6850   14.7350   -2.8960 C   0  0  0  0  0  0  0  0  0  0  0  0
   -0.0250   14.6760   -5.1190 C   0  0  2  0  0  0  0  0  0  0  0  0
    1.3320   14.3520   -4.8110 O   0  0  0  0  0  0  0  0  0  0  0  0
   -0.2450   16.0350   -3.3420 O   0  0  0  0  0  0  0  0  0  0  0  0
   -0.5000   16.0900   -4.7580 C   0  0  1  0  0  0  0  0  0  0  0  0
    0.1660   17.3580   -5.3530 C   0  0  0  0  0  0  0  0  0  0  0  0
   -0.6860   18.4210   -6.1390 C   0  0  0  0  0  0  0  0  0  0  0  0
   -2.1400   18.7510   -5.6700 C   0  0  0  0  0  0  0  0  0  0  0  0
   -2.4390   20.2600   -5.2870 C   0  0  0  0  0  0  0  0  0  0  0  0
   -3.8360   20.9560   -5.5070 C   0  0  0  0  0  0  0  0  0  0  0  0
   -4.3890   20.6840   -6.9020 C   0  0  0  0  0  0  0  0  0  0  0  0
   -5.8850   20.3980   -7.2300 C   0  0  2  0  0  0  0  0  0  0  0  0
   -6.0660   18.9480   -7.0970 O   0  0  0  0  0  0  0  0  0  0  0  0
   -6.6640   20.7670   -8.5160 C   0  0  1  0  0  0  0  0  0  0  0  0
   -5.9880   21.4500   -9.5380 O   0  0  0  0  0  0  0  0  0  0  0  0
   -6.9160   18.3760   -8.1020 C   0  0  2  0  0  0  0  0  0  0  0  0
   -7.5270   19.5250   -8.9050 C   0  0  1  0  0  0  0  0  0  0  0  0
   -7.8840   17.4680   -7.6420 O   0  0  0  0  0  0  0  0  0  0  0  0
   -8.8810   19.7440   -8.5890 O   0  0  0  0  0  0  0  0  0  0  0  0
  2  1  1  1
  2  3  1  0
  2  4  1  0
  4  5  1  1
  3  6  1  0
  4  7  1  0
  6  7  1  0
  7  8  1  6
  8  9  1  0
  9 10  1  0
 10 11  1  0
 11 12  1  0
 12 13  1  0
 14 13  1  6
 14 15  1  0
 14 16  1  0
 16 17  1  6
 15 18  1  0
 16 19  1  0
 18 19  1  0
 18 20  1  1
 19 21  1  1
M  END
