
     RDKit          3D

 36 39  0  0  0  0  0  0  0  0999 V2000
   -2.0740   17.8310   -6.3830 P   0  0  0  0  0  0  0  0  0  0  0  0
   -0.5000   19.4320   -8.2290 P   0  0  0  0  0  0  0  0  0  0  0  0
    0.2030   16.8930   -5.4080 C   0  0  0  0  0  0  0  0  0  0  0  0
   -1.0260   16.6540   -6.0830 O   0  0  0  0  0  0  0  0  0  0  0  0
    0.5250   15.7150   -4.4900 C   0  0  1  0  0  0  0  0  0  0  0  0
   -0.1310   15.8770   -3.2270 O   0  0  0  0  0  0  0  0  0  0  0  0
    0.0510   14.3770   -5.0570 C   0  0  1  0  0  0  0  0  0  0  0  0
    1.0460   13.3650   -4.8420 O   0  0  0  0  0  0  0  0  0  0  0  0
   -1.2000   14.0830   -4.2560 C   0  0  1  0  0  0  0  0  0  0  0  0
   -1.5170   12.6910   -4.1590 O   0  0  0  0  0  0  0  0  0  0  0  0
   -0.7550   14.6310   -2.9140 C   0  0  2  0  0  0  0  0  0  0  0  0
   -5.2620   21.7550   -7.4620 C   0  0  1  0  0  0  0  0  0  0  0  0
   -1.5490   15.3690    2.1340 N   0  0  0  0  0  0  0  0  0  0  0  0
   -2.8940   17.3560   -7.5780 O   0  0  0  0  0  0  0  0  0  0  0  0
    0.6090   20.4140   -7.9380 O   0  0  0  0  0  0  0  0  0  0  0  0
   -5.5070   21.1770   -6.1800 O   0  0  0  0  0  0  0  0  0  0  0  0
   -0.4060   15.1560    1.4490 C   0  0  0  0  0  0  0  0  0  0  0  0
   -4.5380   23.0820   -7.3220 C   0  0  2  0  0  0  0  0  0  0  0  0
   -2.7260   18.1610   -5.0620 O   0  0  0  0  0  0  0  0  0  0  0  0
   -0.1710   18.1950   -9.0390 O   0  0  0  0  0  0  0  0  0  0  0  0
   -5.4120   24.1840   -7.0700 O   0  0  0  0  0  0  0  0  0  0  0  0
   -3.9030   23.1830   -8.6780 C   0  0  2  0  0  0  0  0  0  0  0  0
   -0.3770   14.9780    0.1140 N   0  0  0  0  0  0  0  0  0  0  0  0
   -1.1830   19.1080   -6.8010 O   0  0  0  0  0  0  0  0  0  0  0  0
   -4.8920   23.6050   -9.6150 O   0  0  0  0  0  0  0  0  0  0  0  0
   -1.5160   15.0050   -0.6180 C   0  0  0  0  0  0  0  0  0  0  0  0
   -3.4980   21.7640   -9.0070 C   0  0  2  0  0  0  0  0  0  0  0  0
   -4.3890   20.9340   -8.2570 O   0  0  0  0  0  0  0  0  0  0  0  0
   -2.7940   15.2360    0.0550 C   0  0  0  0  0  0  0  0  0  0  0  0
   -2.0660   21.4960   -8.5870 C   0  0  0  0  0  0  0  0  0  0  0  0
   -1.6630   20.2050   -9.0220 O   0  0  0  0  0  0  0  0  0  0  0  0
   -2.7540   15.4220    1.5190 C   0  0  0  0  0  0  0  0  0  0  0  0
   -3.9020   15.6340    2.1980 N   0  0  0  0  0  0  0  0  0  0  0  0
   -3.7440   15.2100   -0.8960 N   0  0  0  0  0  0  0  0  0  0  0  0
   -3.1320   14.9880   -2.0850 C   0  0  0  0  0  0  0  0  0  0  0  0
   -1.8050   14.8600   -1.9050 N   0  0  0  0  0  0  0  0  0  0  0  0
  1  4  1  0
  1 14  1  0
  1 19  1  0
  1 24  1  0
  4  3  1  0
 24  2  1  0
  2 15  1  0
  2 20  1  0
  2 31  1  0
 31 30  1  0
  5  3  1  6
  5  6  1  0
  5  7  1  0
  6 11  1  0
  7  8  1  1
  7  9  1  0
 11  9  1  0
 11 36  1  1
  9 10  1  1
 36 26  1  0
 36 35  1  0
 12 16  1  1
 12 18  1  0
 12 28  1  0
 18 21  1  6
 18 22  1  0
 28 27  1  0
 13 17  1  0
 13 32  1  0
 17 23  1  0
 32 29  1  0
 32 33  1  0
 23 26  1  0
 22 25  1  6
 22 27  1  0
 27 30  1  1
 26 29  1  0
 29 34  1  0
 34 35  1  0
M  CHG  2  14  -1  15  -1
M  END
