5CB3_0_A_α-5cms_D_3_D_α
     RDKit          3D

 17 17  0  0  0  0  0  0  0  0999 V2000
   -1.7840   21.1970   -8.4620 C   0  0  0  0  0  0  0  0  0  0  0  0
   -0.8870   19.7910   -7.8050 P   0  0  0  0  0  0  0  0  0  0  0  0
   -0.8350   19.3120   -6.3300 O   0  0  0  0  0  0  0  0  0  0  0  0
   -3.0050   21.8200   -7.8610 C   0  0  2  0  0  0  0  0  0  0  0  0
   -0.0410   18.7870   -8.9220 O   0  0  0  0  0  0  0  0  0  0  0  0
    0.4910   20.5070   -7.7120 O   0  0  0  0  0  0  0  0  0  0  0  0
   -4.1740   21.1420   -7.8710 O   0  0  0  0  0  0  0  0  0  0  0  0
   -3.4830   23.1850   -8.2280 C   0  0  1  0  0  0  0  0  0  0  0  0
   -4.2370   23.3360   -9.3680 O   0  0  0  0  0  0  0  0  0  0  0  0
   -1.5580   18.0660   -5.6970 P   0  0  0  0  0  0  0  0  0  0  0  0
   -5.1200   21.8980   -7.2240 C   0  0  2  0  0  0  0  0  0  0  0  0
   -4.4910   23.2790   -7.0550 C   0  0  2  0  0  0  0  0  0  0  0  0
   -5.4330   21.4500   -5.9520 O   0  0  0  0  0  0  0  0  0  0  0  0
   -5.4260   24.2660   -7.2010 O   0  0  0  0  0  0  0  0  0  0  0  0
   -0.3660   17.1510   -6.0440 O   0  0  0  0  0  0  0  0  0  0  0  0
   -2.7120   17.3640   -6.6950 O   0  0  0  0  0  0  0  0  0  0  0  0
   -2.4170   19.1020   -5.0120 O   0  0  0  0  0  0  0  0  0  0  0  0
  1  2  1  0
  2  3  1  0
  4  1  1  6
  2  5  1  0
  2  6  1  0
  4  7  1  0
  4  8  1  0
  8  9  1  6
  3 10  1  0
  7 11  1  0
  8 12  1  0
 11 12  1  0
 11 13  1  1
 12 14  1  6
 10 15  1  0
 10 16  1  0
 10 17  1  0
M  CHG  2   5  -1  16  -1
M  END
