5CB3_0_A_Î±
     RDKit          3D

  9  9  0  0  0  0  0  0  0  0999 V2000
   -2.0660   21.4960   -8.5870 C   0  0  0  0  0  0  0  0  0  0  0  0
   -3.4980   21.7640   -9.0070 C   0  0  1  0  0  0  0  0  0  0  0  0
   -4.3890   20.9340   -8.2570 O   0  0  0  0  0  0  0  0  0  0  0  0
   -3.9030   23.1830   -8.6780 C   0  0  2  0  0  0  0  0  0  0  0  0
   -5.2620   21.7550   -7.4620 C   0  0  2  0  0  0  0  0  0  0  0  0
   -4.5380   23.0820   -7.3220 C   0  0  2  0  0  0  0  0  0  0  0  0
   -4.8920   23.6050   -9.6150 O   0  0  0  0  0  0  0  0  0  0  0  0
   -5.5070   21.1770   -6.1800 O   0  0  0  0  0  0  0  0  0  0  0  0
   -5.4120   24.1840   -7.0700 O   0  0  0  0  0  0  0  0  0  0  0  0
  2  1  1  1
  3  2  1  0
  4  2  1  0
  5  3  1  0
  6  4  1  0
  4  7  1  6
  5  8  1  1
  5  6  1  0
  6  9  1  6
M  END
