5CB3_0_A_Î³
     RDKit          3D

  8  8  0  0  0  0  0  0  0  0999 V2000
   -0.7550   14.6310   -2.9140 C   0  0  0  0  0  0  0  0  0  0  0  0
   -0.1310   15.8770   -3.2270 O   0  0  0  0  0  0  0  0  0  0  0  0
   -1.2000   14.0830   -4.2560 C   0  0  1  0  0  0  0  0  0  0  0  0
    0.5250   15.7150   -4.4900 C   0  0  1  0  0  0  0  0  0  0  0  0
    0.0510   14.3770   -5.0570 C   0  0  1  0  0  0  0  0  0  0  0  0
   -1.5170   12.6910   -4.1590 O   0  0  0  0  0  0  0  0  0  0  0  0
    0.2030   16.8930   -5.4080 C   0  0  0  0  0  0  0  0  0  0  0  0
    1.0460   13.3650   -4.8420 O   0  0  0  0  0  0  0  0  0  0  0  0
  1  2  1  1
  1  3  1  0
  4  2  1  0
  5  3  1  0
  3  6  1  1
  4  7  1  6
  4  5  1  0
  5  8  1  1
M  END
