5CB3_0_A_δ-mArh-6mea_B_0_B_γ
     RDKit          3D

 17 19  0  0  0  0  0  0  0  0999 V2000
   -3.9040   15.5540    1.6650 N   0  0  0  0  0  0  0  0  0  0  0  0
   -2.8350   14.8720    0.9510 C   0  0  1  0  0  0  0  0  0  0  0  0
   -2.6510   15.3080   -0.5120 C   0  0  1  0  0  0  0  0  0  0  0  0
   -1.6310   15.1860    1.6790 N   0  0  0  0  0  0  0  0  0  0  0  0
   -1.4470   14.5340   -1.0420 C   0  0  1  0  0  0  0  0  0  0  0  0
   -3.7090   15.0390   -1.4930 N   0  0  0  0  0  0  0  0  0  0  0  0
   -0.4410   14.5440    1.1420 C   0  0  0  0  0  0  0  0  0  0  0  0
   -1.4920   14.8240   -2.5780 C   0  0  1  0  0  0  0  0  0  0  0  0
   -2.9780   15.2260   -2.7730 C   0  0  0  0  0  0  0  0  0  0  0  0
   -0.2770   14.8980   -0.2520 N   0  0  0  0  0  0  0  0  0  0  0  0
   -0.5770   15.9370   -2.8780 O   0  0  0  0  0  0  0  0  0  0  0  0
   -1.0180   13.7390   -3.5840 C   0  0  1  0  0  0  0  0  0  0  0  0
   -1.9760   12.8510   -4.1200 O   0  0  0  0  0  0  0  0  0  0  0  0
   -0.3620   15.9320   -4.3030 C   0  0  2  0  0  0  0  0  0  0  0  0
   -0.2990   14.4680   -4.7270 C   0  0  1  0  0  0  0  0  0  0  0  0
    0.8640   16.7410   -4.6690 C   0  0  0  0  0  0  0  0  0  0  0  0
    1.0100   13.9370   -4.9230 O   0  0  0  0  0  0  0  0  0  0  0  0
  2  1  1  1
  2  3  1  0
  2  4  1  0
  3  5  1  0
  3  6  1  6
  4  7  1  0
  5  8  1  0
  6  9  1  0
  8  9  1  6
  5 10  1  1
  7 10  1  0
  8 11  1  0
  8 12  1  0
 12 13  1  6
 11 14  1  0
 12 15  1  0
 14 15  1  0
 14 16  1  1
 15 17  1  1
M  END
