5CB3_0_A_α-5CMS_0_G_γ
     RDKit          3D

 24 26  0  0  0  0  0  0  0  0999 V2000
   -4.2730   22.0830  -10.0160 C   0  0  0  0  0  0  0  0  0  0  0  0
   -3.5460   22.0340   -8.7320 C   0  0  2  0  0  0  0  0  0  0  0  0
   -4.1700   20.9990   -7.9980 O   0  0  0  0  0  0  0  0  0  0  0  0
   -3.7650   23.3670   -8.0730 C   0  0  1  0  0  0  0  0  0  0  0  0
   -4.6290   24.1280   -8.9220 O   0  0  0  0  0  0  0  0  0  0  0  0
   -4.9080   21.5710   -6.9400 C   0  0  2  0  0  0  0  0  0  0  0  0
   -4.4150   23.0270   -6.7430 C   0  0  2  0  0  0  0  0  0  0  0  0
   -4.5910   20.7740   -5.8190 O   0  0  0  0  0  0  0  0  0  0  0  0
   -5.4930   23.9740   -6.5410 O   0  0  0  0  0  0  0  0  0  0  0  0
   -3.1480   20.5280   -5.6860 C   0  0  0  0  0  0  0  0  0  0  0  0
   -2.5260   19.1770   -6.2120 C   0  0  0  0  0  0  0  0  0  0  0  0
   -1.7680   18.2340   -5.1950 C   0  0  0  0  0  0  0  0  0  0  0  0
   -2.1240   16.7020   -5.3010 C   0  0  0  0  0  0  0  0  0  0  0  0
   -2.8580   15.8150   -4.1990 C   0  0  0  0  0  0  0  0  0  0  0  0
   -2.4890   15.7330   -2.6770 C   0  0  2  0  0  0  0  0  0  0  0  0
   -1.2580   15.0180   -2.3670 N   0  0  0  0  0  0  0  0  0  0  0  0
   -3.4800   15.2070   -1.6840 N   0  0  0  0  0  0  0  0  0  0  0  0
   -1.4010   14.6700   -0.9710 C   0  0  2  0  0  0  0  0  0  0  0  0
   -2.6150   15.4220   -0.5010 C   0  0  2  0  0  0  0  0  0  0  0  0
   -0.2400   14.8710   -0.1660 N   0  0  0  0  0  0  0  0  0  0  0  0
   -2.9050   14.8810    0.9170 C   0  0  2  0  0  0  0  0  0  0  0  0
   -3.9950   15.5390    1.6200 N   0  0  0  0  0  0  0  0  0  0  0  0
   -0.5130   14.5040    1.2070 C   0  0  0  0  0  0  0  0  0  0  0  0
   -1.7190   15.1580    1.6970 N   0  0  0  0  0  0  0  0  0  0  0  0
  2  1  1  6
  2  3  1  0
  2  4  1  0
  4  5  1  6
  3  6  1  0
  4  7  1  0
  6  7  1  0
  6  8  1  1
  7  9  1  6
  8 10  1  0
 10 11  1  0
 11 12  1  0
 12 13  1  0
 13 14  1  0
 15 14  1  6
 15 16  1  0
 15 17  1  0
 18 16  1  6
 19 17  1  6
 18 19  1  0
 18 20  1  0
 19 21  1  0
 21 22  1  1
 20 23  1  0
 21 24  1  0
 23 24  1  0
M  END
