5CB3_0_A_Î²
     RDKit          3D

  9  8  0  0  0  0  0  0  0  0999 V2000
   -1.6630   20.2050   -9.0220 O   0  0  0  0  0  0  0  0  0  0  0  0
   -0.5000   19.4320   -8.2290 P   0  0  0  0  0  0  0  0  0  0  0  0
   -1.1830   19.1080   -6.8010 O   0  0  0  0  0  0  0  0  0  0  0  0
    0.6090   20.4140   -7.9380 O   0  0  0  0  0  0  0  0  0  0  0  0
   -0.1710   18.1950   -9.0390 O   0  0  0  0  0  0  0  0  0  0  0  0
   -2.0740   17.8310   -6.3830 P   0  0  0  0  0  0  0  0  0  0  0  0
   -1.0260   16.6540   -6.0830 O   0  0  0  0  0  0  0  0  0  0  0  0
   -2.8940   17.3560   -7.5780 O   0  0  0  0  0  0  0  0  0  0  0  0
   -2.7260   18.1610   -5.0620 O   0  0  0  0  0  0  0  0  0  0  0  0
  2  1  1  0
  3  2  1  0
  2  4  1  0
  2  5  1  0
  6  3  1  0
  6  7  1  0
  6  8  1  0
  6  9  1  0
M  CHG  2   4  -1   8  -1
M  END
