5CB5_0_P_α-4GVW_0_A_α
     RDKit          3D

 14 14  0  0  0  0  0  0  0  0999 V2000
   -2.2310   21.3210   -8.2540 C   0  0  2  0  0  0  0  0  0  0  0  0
   -2.9280   20.6190   -7.1090 C   0  0  0  0  0  0  0  0  0  0  0  0
   -0.5740   20.7460   -7.7740 S   0  0  0  0  0  0  0  0  0  0  0  0
   -2.8770   22.7190   -8.1140 C   0  0  2  0  0  0  0  0  0  0  0  0
   -0.7860   20.0520   -6.3500 O   0  0  0  0  0  0  0  0  0  0  0  0
    0.5200   21.9000   -7.6620 O   0  0  0  0  0  0  0  0  0  0  0  0
   -0.1140   19.5340   -8.7320 O   0  0  0  0  0  0  0  0  0  0  0  0
   -3.4350   22.6900   -6.7890 O   0  0  0  0  0  0  0  0  0  0  0  0
   -4.1670   23.0810   -8.9290 C   0  0  2  0  0  0  0  0  0  0  0  0
   -4.2200   24.2310   -9.7370 O   0  0  0  0  0  0  0  0  0  0  0  0
   -4.6530   22.0060   -7.0090 C   0  0  2  0  0  0  0  0  0  0  0  0
   -5.3150   22.9970   -7.8970 C   0  0  1  0  0  0  0  0  0  0  0  0
   -5.3440   21.6730   -5.8140 O   0  0  0  0  0  0  0  0  0  0  0  0
   -5.6000   24.1720   -7.1110 O   0  0  0  0  0  0  0  0  0  0  0  0
  1  2  1  1
  1  3  1  0
  1  4  1  0
  3  5  1  0
  3  6  1  0
  3  7  1  0
  4  8  1  1
  4  9  1  0
  9 10  1  1
  8 11  1  0
  9 12  1  0
 11 12  1  0
 11 13  1  1
 12 14  1  1
M  END
