5CB5_0_M_γ-x0104_0_A_α
     RDKit          3D

 23 24  0  0  0  0  0  0  0  0999 V2000
   -1.0910   12.5850   -4.0920 O   0  0  0  0  0  0  0  0  0  0  0  0
   -0.2210   13.6960   -3.8500 C   0  0  2  0  0  0  0  0  0  0  0  0
   -0.8790   14.7490   -2.9620 C   0  0  2  0  0  0  0  0  0  0  0  0
    0.0460   14.4590   -5.1340 C   0  0  2  0  0  0  0  0  0  0  0  0
    1.0850   13.8140   -5.8560 O   0  0  0  0  0  0  0  0  0  0  0  0
   -2.4170   14.7450   -2.9280 C   0  0  0  0  0  0  0  0  0  0  0  0
   -0.4140   16.0250   -3.4550 O   0  0  0  0  0  0  0  0  0  0  0  0
    0.4510   15.8230   -4.5770 C   0  0  2  0  0  0  0  0  0  0  0  0
    0.2870   17.0050   -5.5210 C   0  0  0  0  0  0  0  0  0  0  0  0
   -3.0310   14.5540   -1.5310 C   0  0  0  0  0  0  0  0  0  0  0  0
   -4.3950   15.2510   -1.4390 C   0  0  0  0  0  0  0  0  0  0  0  0
   -5.1370   14.9840   -0.1180 C   0  0  0  0  0  0  0  0  0  0  0  0
   -6.6240   14.6360   -0.2750 C   0  0  0  0  0  0  0  0  0  0  0  0
   -7.2870   13.8690    0.8930 C   0  0  0  0  0  0  0  0  0  0  0  0
   -7.0350   14.3860    2.3160 C   0  0  0  0  0  0  0  0  0  0  0  0
   -8.2150   15.0920    2.9730 C   0  0  0  0  0  0  0  0  0  0  0  0
   -8.1490   15.0660    4.3630 N   0  0  0  0  0  0  0  0  0  0  0  0
   -9.0960   15.5970    2.2950 O   0  0  0  0  0  0  0  0  0  0  0  0
   -9.2340   15.0640    5.2230 C   0  0  0  0  0  0  0  0  0  0  0  0
   -9.1920   15.1880    6.5990 C   0  0  0  0  0  0  0  0  0  0  0  0
  -10.8310   14.9000    4.6590 S   0  0  0  0  0  0  0  0  0  0  0  0
  -10.4980   15.1450    7.1870 C   0  0  0  0  0  0  0  0  0  0  0  0
  -11.4810   14.9900    6.2350 C   0  0  0  0  0  0  0  0  0  0  0  0
  2  1  1  6
  2  3  1  0
  2  4  1  0
  4  5  1  1
  3  6  1  6
  3  7  1  0
  4  8  1  0
  7  8  1  0
  8  9  1  6
  6 10  1  0
 10 11  1  0
 11 12  1  0
 12 13  1  0
 13 14  1  0
 14 15  1  0
 15 16  1  0
 16 17  1  0
 16 18  2  0
 17 19  1  0
 19 20  2  0
 19 21  1  0
 20 22  1  0
 21 23  1  0
 22 23  2  0
M  END
