5CB5_0_K_Î²
     RDKit          3D

  9  8  0  0  0  0  0  0  0  0999 V2000
   -1.7100   20.2310   -8.6860 O   0  0  0  0  0  0  0  0  0  0  0  0
   -0.2540   19.7750   -8.1970 P   0  0  0  0  0  0  0  0  0  0  0  0
   -0.5240   19.2510   -6.7310 O   0  0  0  0  0  0  0  0  0  0  0  0
    0.6670   20.9540   -7.9500 O   0  0  0  0  0  0  0  0  0  0  0  0
    0.0840   18.6840   -9.2050 O   0  0  0  0  0  0  0  0  0  0  0  0
   -1.6910   18.1550   -6.5450 P   0  0  0  0  0  0  0  0  0  0  0  0
   -0.7360   16.8430   -6.4980 O   0  0  0  0  0  0  0  0  0  0  0  0
   -2.5150   18.0230   -7.8260 O   0  0  0  0  0  0  0  0  0  0  0  0
   -2.3640   18.4310   -5.2130 O   0  0  0  0  0  0  0  0  0  0  0  0
  2  1  1  0
  3  2  1  0
  2  4  1  0
  2  5  1  0
  6  3  1  0
  6  7  1  0
  6  8  1  0
  6  9  1  0
M  CHG  2   4  -1   8  -1
M  END
