5cb5_M_1_M_γ-5cms_R_17_R_β
     RDKit          3D

 16 16  0  0  0  0  0  0  0  0999 V2000
   -1.0130   12.4710   -3.9120 O   0  0  0  0  0  0  0  0  0  0  0  0
   -0.1550   13.5920   -3.8500 C   0  0  2  0  0  0  0  0  0  0  0  0
   -0.5600   14.6120   -2.7890 C   0  0  0  0  0  0  0  0  0  0  0  0
   -0.1430   14.3870   -5.1520 C   0  0  2  0  0  0  0  0  0  0  0  0
    1.2200   14.4030   -5.5880 O   0  0  0  0  0  0  0  0  0  0  0  0
   -0.2310   15.8870   -3.3430 O   0  0  0  0  0  0  0  0  0  0  0  0
   -0.6440   15.7650   -4.7060 C   0  0  1  0  0  0  0  0  0  0  0  0
   -0.1710   16.9900   -5.4590 C   0  0  0  0  0  0  0  0  0  0  0  0
   -1.5550   18.0140   -5.9640 P   0  0  1  0  0  0  0  0  0  0  0  0
   -1.0530   19.3660   -6.5630 O   0  0  0  0  0  0  0  0  0  0  0  0
   -2.6020   17.3260   -6.7740 O   0  0  0  0  0  0  0  0  0  0  0  0
   -2.0860   18.5320   -4.5740 O   0  0  0  0  0  0  0  0  0  0  0  0
   -0.2480   19.8010   -7.8100 P   0  0  0  0  0  0  0  0  0  0  0  0
   -1.3720   20.5740   -8.6120 O   0  0  0  0  0  0  0  0  0  0  0  0
    0.9900   20.5700   -7.5970 O   0  0  0  0  0  0  0  0  0  0  0  0
   -0.0970   18.5350   -8.7660 O   0  0  0  0  0  0  0  0  0  0  0  0
  2  1  1  6
  2  3  1  0
  2  4  1  0
  4  5  1  1
  3  6  1  0
  4  7  1  0
  6  7  1  0
  7  8  1  6
  8  9  1  0
  9 10  1  0
  9 11  2  0
  9 12  1  1
 10 13  1  0
 13 14  1  0
 13 15  2  0
 13 16  1  0
M  END
