5CB5_0_C_α-5cms_I_8_I_γ
     RDKit          3D

 22 23  0  0  0  0  0  0  0  0999 V2000
   -2.1130   21.7170   -8.7870 C   0  0  0  0  0  0  0  0  0  0  0  0
   -3.2900   22.0600   -7.9360 C   0  0  2  0  0  0  0  0  0  0  0  0
   -4.3600   21.1920   -8.2810 O   0  0  0  0  0  0  0  0  0  0  0  0
   -3.9050   23.4510   -8.0540 C   0  0  1  0  0  0  0  0  0  0  0  0
   -4.1390   23.8930   -9.3970 O   0  0  0  0  0  0  0  0  0  0  0  0
   -5.3490   21.6340   -7.3780 C   0  0  2  0  0  0  0  0  0  0  0  0
   -5.2820   23.1890   -7.4640 C   0  0  1  0  0  0  0  0  0  0  0  0
   -5.0430   21.1630   -6.0590 O   0  0  0  0  0  0  0  0  0  0  0  0
   -5.4950   23.9230   -6.2540 O   0  0  0  0  0  0  0  0  0  0  0  0
   -3.6150   21.1130   -5.7560 C   0  0  0  0  0  0  0  0  0  0  0  0
   -2.8500   19.8150   -6.1500 C   0  0  0  0  0  0  0  0  0  0  0  0
   -1.4850   20.0080   -6.8160 C   0  0  0  0  0  0  0  0  0  0  0  0
   -0.5670   18.7610   -6.7660 C   0  0  0  0  0  0  0  0  0  0  0  0
   -0.6830   17.8160   -5.5390 C   0  0  0  0  0  0  0  0  0  0  0  0
    0.6910   17.2130   -5.1690 C   0  0  0  0  0  0  0  0  0  0  0  0
    0.7630   15.8380   -4.4340 C   0  0  1  0  0  0  0  0  0  0  0  0
    0.0540   15.9060   -3.1720 O   0  0  0  0  0  0  0  0  0  0  0  0
    0.2320   14.5740   -5.1310 C   0  0  1  0  0  0  0  0  0  0  0  0
    1.0500   13.4200   -5.0460 O   0  0  0  0  0  0  0  0  0  0  0  0
   -0.7630   14.7330   -3.0480 C   0  0  0  0  0  0  0  0  0  0  0  0
   -1.1150   14.3470   -4.4640 C   0  0  2  0  0  0  0  0  0  0  0  0
   -1.5600   13.0050   -4.6110 O   0  0  0  0  0  0  0  0  0  0  0  0
  2  1  1  6
  2  3  1  0
  2  4  1  0
  4  5  1  6
  3  6  1  0
  4  7  1  0
  6  7  1  0
  6  8  1  1
  7  9  1  1
  8 10  1  0
 10 11  1  0
 11 12  1  0
 12 13  1  0
 13 14  1  0
 14 15  1  0
 16 15  1  6
 16 17  1  0
 16 18  1  0
 18 19  1  1
 17 20  1  0
 18 21  1  0
 20 21  1  0
 21 22  1  1
M  END
