5CB5_0_D_δ-5CMS_0_Q_α
     RDKit          3D

 25 27  0  0  0  0  0  0  0  0999 V2000
   -3.9840   14.7310    1.2660 N   0  0  0  0  0  0  0  0  0  0  0  0
   -2.8260   15.4880    0.8350 C   0  0  2  0  0  0  0  0  0  0  0  0
   -2.6750   15.5080   -0.6990 C   0  0  1  0  0  0  0  0  0  0  0  0
   -1.6770   14.8840    1.4660 N   0  0  0  0  0  0  0  0  0  0  0  0
   -1.5570   14.5610   -1.1050 C   0  0  1  0  0  0  0  0  0  0  0  0
   -3.7540   15.0630   -1.5760 N   0  0  0  0  0  0  0  0  0  0  0  0
   -0.4280   15.3370    0.8600 C   0  0  0  0  0  0  0  0  0  0  0  0
   -1.5740   14.8200   -2.5440 N   0  0  0  0  0  0  0  0  0  0  0  0
   -3.0240   14.7850   -2.8280 C   0  0  0  0  0  0  0  0  0  0  0  0
   -0.2880   14.9010   -0.5120 N   0  0  0  0  0  0  0  0  0  0  0  0
   -1.0160   16.1410   -2.8640 C   0  0  0  0  0  0  0  0  0  0  0  0
   -0.0420   16.2180   -4.0530 C   0  0  0  0  0  0  0  0  0  0  0  0
    0.3390   17.6550   -4.4590 C   0  0  0  0  0  0  0  0  0  0  0  0
   -0.5310   18.2360   -5.5770 C   0  0  0  0  0  0  0  0  0  0  0  0
    0.3370   18.7480   -6.7300 C   0  0  0  0  0  0  0  0  0  0  0  0
   -0.4670   19.3680   -7.8760 C   0  0  0  0  0  0  0  0  0  0  0  0
   -0.6430   20.9040   -7.8540 C   0  0  0  0  0  0  0  0  0  0  0  0
   -2.0700   21.4220   -8.0330 C   0  0  2  0  0  0  0  0  0  0  0  0
   -2.5570   21.1220   -9.3420 O   0  0  0  0  0  0  0  0  0  0  0  0
   -2.1710   22.9260   -7.9030 C   0  0  1  0  0  0  0  0  0  0  0  0
   -0.8950   23.4290   -8.2300 O   0  0  0  0  0  0  0  0  0  0  0  0
   -3.6680   21.9660   -9.5530 C   0  0  2  0  0  0  0  0  0  0  0  0
   -3.4200   23.2310   -8.7790 C   0  0  2  0  0  0  0  0  0  0  0  0
   -4.8680   21.4880   -9.0850 O   0  0  0  0  0  0  0  0  0  0  0  0
   -3.4800   24.2360   -9.7400 O   0  0  0  0  0  0  0  0  0  0  0  0
  2  1  1  6
  2  3  1  0
  2  4  1  0
  3  5  1  0
  3  6  1  6
  4  7  1  0
  5  8  1  0
  6  9  1  0
  8  9  1  0
  5 10  1  1
  7 10  1  0
  8 11  1  0
 11 12  1  0
 12 13  1  0
 13 14  1  0
 14 15  1  0
 15 16  1  0
 16 17  1  0
 18 17  1  6
 18 19  1  0
 18 20  1  0
 20 21  1  6
 19 22  1  0
 20 23  1  0
 22 23  1  0
 22 24  1  1
 23 25  1  6
M  END
