5cb5_N_0_N_β-6FX7_0_A_γ
     RDKit          3D

 16 16  0  0  0  0  0  0  0  0999 V2000
   -1.6520   20.4920   -8.4470 O   0  0  0  0  0  0  0  0  0  0  0  0
   -0.2750   19.9290   -7.8940 P   0  0  0  0  0  0  0  0  0  0  0  0
   -0.5580   19.4250   -6.4390 O   0  0  0  0  0  0  0  0  0  0  0  0
    0.8150   20.9180   -8.0010 O   0  0  0  0  0  0  0  0  0  0  0  0
   -0.0600   18.6030   -8.7670 O   0  0  0  0  0  0  0  0  0  0  0  0
   -1.5430   18.2690   -6.0430 P   0  0  2  0  0  0  0  0  0  0  0  0
   -0.5590   17.1060   -5.5340 O   0  0  0  0  0  0  0  0  0  0  0  0
   -2.6070   17.9170   -7.0120 O   0  0  0  0  0  0  0  0  0  0  0  0
   -2.1170   18.9670   -4.7260 O   0  0  0  0  0  0  0  0  0  0  0  0
   -1.0150   16.0870   -4.6760 C   0  0  2  0  0  0  0  0  0  0  0  0
   -0.2520   15.9980   -3.4680 O   0  0  0  0  0  0  0  0  0  0  0  0
   -0.9390   14.6510   -5.2090 C   0  0  1  0  0  0  0  0  0  0  0  0
    0.3830   14.1740   -5.5380 O   0  0  0  0  0  0  0  0  0  0  0  0
   -0.6130   14.7330   -2.8860 C   0  0  0  0  0  0  0  0  0  0  0  0
   -1.3520   13.9360   -3.9630 C   0  0  2  0  0  0  0  0  0  0  0  0
   -0.9610   12.5840   -4.0460 O   0  0  0  0  0  0  0  0  0  0  0  0
  1  2  1  0
  2  3  1  0
  2  4  2  0
  2  5  1  0
  3  6  1  0
  6  7  1  0
  6  8  2  0
  6  9  1  1
 10  7  1  6
 10 11  1  0
 10 12  1  0
 12 13  1  1
 11 14  1  0
 12 15  1  0
 14 15  1  0
 15 16  1  6
M  END
