5CB5_0_E_α-5dus_0_A_β
     RDKit          3D

 17 17  0  0  0  0  0  0  0  0999 V2000
   -1.6150   21.7800   -7.9570 C   0  0  0  0  0  0  0  0  0  0  0  0
   -0.6120   20.3030   -7.6950 P   0  0  2  0  0  0  0  0  0  0  0  0
   -1.0950   19.7190   -6.2990 O   0  0  0  0  0  0  0  0  0  0  0  0
   -2.9410   21.8050   -8.7190 C   0  0  1  0  0  0  0  0  0  0  0  0
    0.8470   20.5810   -7.6610 O   0  0  0  0  0  0  0  0  0  0  0  0
   -0.9660   19.0840   -8.6830 O   0  0  0  0  0  0  0  0  0  0  0  0
   -3.9460   21.0740   -8.0160 O   0  0  0  0  0  0  0  0  0  0  0  0
   -3.5600   23.2060   -8.8340 C   0  0  1  0  0  0  0  0  0  0  0  0
   -4.3830   23.3610   -9.9950 O   0  0  0  0  0  0  0  0  0  0  0  0
   -1.6020   18.2500   -5.9910 P   0  0  0  0  0  0  0  0  0  0  0  0
   -4.5620   21.9300   -7.0480 C   0  0  1  0  0  0  0  0  0  0  0  0
   -4.4000   23.3730   -7.5710 C   0  0  2  0  0  0  0  0  0  0  0  0
   -5.9120   21.5380   -6.7870 O   0  0  0  0  0  0  0  0  0  0  0  0
   -5.6520   23.9660   -7.9420 O   0  0  0  0  0  0  0  0  0  0  0  0
   -0.3160   17.3270   -5.8630 O   0  0  0  0  0  0  0  0  0  0  0  0
   -2.6940   17.6580   -6.7980 O   0  0  0  0  0  0  0  0  0  0  0  0
   -1.9340   18.4030   -4.4620 O   0  0  0  0  0  0  0  0  0  0  0  0
  1  2  1  0
  2  3  1  0
  4  1  1  1
  2  5  2  0
  2  6  1  6
  4  7  1  0
  4  8  1  0
  8  9  1  6
  3 10  1  0
  7 11  1  0
  8 12  1  0
 11 12  1  0
 11 13  1  6
 12 14  1  6
 10 15  1  0
 10 16  2  0
 10 17  1  0
M  END
