5cb5_O_0_O_β-5cb5_H_0_H_β
     RDKit          3D

  9  8  0  0  0  0  0  0  0  0999 V2000
   -1.6210   20.3710   -8.2380 O   0  0  0  0  0  0  0  0  0  0  0  0
   -0.1900   19.8140   -7.8160 P   0  0  0  0  0  0  0  0  0  0  0  0
   -0.3550   18.9940   -6.5020 O   0  0  0  0  0  0  0  0  0  0  0  0
    0.8470   20.8660   -7.8170 O   0  0  0  0  0  0  0  0  0  0  0  0
    0.0550   18.6800   -8.9110 O   0  0  0  0  0  0  0  0  0  0  0  0
   -1.6400   18.2290   -6.0210 P   0  0  0  0  0  0  0  0  0  0  0  0
   -1.0930   16.9650   -5.2230 O   0  0  0  0  0  0  0  0  0  0  0  0
   -2.5950   17.8850   -7.0890 O   0  0  0  0  0  0  0  0  0  0  0  0
   -2.2290   19.1990   -4.9130 O   0  0  0  0  0  0  0  0  0  0  0  0
  1  2  1  0
  2  3  1  0
  2  4  2  0
  2  5  1  0
  3  6  1  0
  6  7  1  0
  6  8  2  0
  6  9  1  0
M  END
