5CB5_0_P_Î³
     RDKit          3D

  8  8  0  0  0  0  0  0  0  0999 V2000
   -0.8420   14.6690   -2.9100 C   0  0  0  0  0  0  0  0  0  0  0  0
   -0.4570   15.9130   -3.4590 O   0  0  0  0  0  0  0  0  0  0  0  0
   -1.2330   13.8870   -4.1300 C   0  0  1  0  0  0  0  0  0  0  0  0
    0.3470   15.6840   -4.6130 C   0  0  1  0  0  0  0  0  0  0  0  0
   -0.1440   14.3330   -5.1270 C   0  0  1  0  0  0  0  0  0  0  0  0
   -1.2640   12.5140   -3.7780 O   0  0  0  0  0  0  0  0  0  0  0  0
    0.1400   16.7920   -5.6370 C   0  0  0  0  0  0  0  0  0  0  0  0
    1.0800   13.5740   -5.1880 O   0  0  0  0  0  0  0  0  0  0  0  0
  1  2  1  1
  1  3  1  0
  4  2  1  0
  5  3  1  0
  3  6  1  1
  4  7  1  6
  4  5  1  0
  5  8  1  1
M  END
