5CB5_0_M_δ-5CMS_0_F_β
     RDKit          3D

 21 22  0  0  0  0  0  0  0  0999 V2000
   -3.7030   15.8920    1.4090 N   0  0  0  0  0  0  0  0  0  0  0  0
   -2.6310   14.9560    1.1680 C   0  0  1  0  0  0  0  0  0  0  0  0
   -2.6880   14.3320   -0.1960 C   0  0  2  0  0  0  0  0  0  0  0  0
   -1.3800   15.6650    1.1490 N   0  0  0  0  0  0  0  0  0  0  0  0
   -1.3170   14.6040   -0.8320 C   0  0  2  0  0  0  0  0  0  0  0  0
   -3.5720   14.8590   -1.1730 N   0  0  0  0  0  0  0  0  0  0  0  0
   -0.2530   14.7870    1.1470 C   0  0  0  0  0  0  0  0  0  0  0  0
   -1.6070   14.0510   -2.0790 N   0  0  0  0  0  0  0  0  0  0  0  0
   -2.7750   14.7950   -2.4070 C   0  0  2  0  0  0  0  0  0  0  0  0
   -0.3190   13.9670   -0.0480 N   0  0  0  0  0  0  0  0  0  0  0  0
   -2.1630   16.0990   -2.7100 C   0  0  0  0  0  0  0  0  0  0  0  0
   -2.2740   16.4940   -4.1590 C   0  0  0  0  0  0  0  0  0  0  0  0
   -1.9620   17.8140   -4.3630 O   0  0  0  0  0  0  0  0  0  0  0  0
   -1.9300   18.2990   -5.8890 P   0  0  0  0  0  0  0  0  0  0  0  0
   -1.2020   19.6560   -6.4640 O   0  0  0  0  0  0  0  0  0  0  0  0
   -0.7140   17.4540   -6.2470 O   0  0  0  0  0  0  0  0  0  0  0  0
   -2.8370   17.3980   -6.9360 O   0  0  0  0  0  0  0  0  0  0  0  0
   -0.4780   19.3660   -7.7310 P   0  0  0  0  0  0  0  0  0  0  0  0
   -1.5290   20.3120   -8.5980 O   0  0  0  0  0  0  0  0  0  0  0  0
    0.8880   20.1310   -7.2820 O   0  0  0  0  0  0  0  0  0  0  0  0
    0.2360   18.8540   -8.9410 O   0  0  0  0  0  0  0  0  0  0  0  0
  2  1  1  6
  2  3  1  0
  2  4  1  0
  3  5  1  0
  3  6  1  6
  4  7  1  0
  5  8  1  6
  6  9  1  0
  8  9  1  0
  5 10  1  0
  7 10  1  0
  9 11  1  1
 11 12  1  0
 12 13  1  0
 13 14  1  0
 14 15  1  0
 14 16  1  0
 14 17  1  0
 15 18  1  0
 18 19  1  0
 18 20  1  0
 18 21  1  0
M  CHG  2  17  -1  20  -1
M  END
