
     RDKit          3D

 36 39  0  0  0  0  0  0  0  0999 V2000
   -1.9980   18.1580   -6.4750 P   0  0  0  0  0  0  0  0  0  0  0  0
   -0.3870   19.7210   -8.1780 P   0  0  0  0  0  0  0  0  0  0  0  0
   -0.0530   17.1640   -5.0950 C   0  0  0  0  0  0  0  0  0  0  0  0
   -0.8070   17.0750   -6.2980 O   0  0  0  0  0  0  0  0  0  0  0  0
    0.2890   15.8070   -4.5050 C   0  0  1  0  0  0  0  0  0  0  0  0
   -0.1020   15.7920   -3.1330 O   0  0  0  0  0  0  0  0  0  0  0  0
   -0.4230   14.6120   -5.0900 C   0  0  1  0  0  0  0  0  0  0  0  0
    0.5430   13.5440   -5.1480 O   0  0  0  0  0  0  0  0  0  0  0  0
   -1.3390   14.0380   -4.0730 C   0  0  1  0  0  0  0  0  0  0  0  0
   -0.9610   12.6670   -4.0670 O   0  0  0  0  0  0  0  0  0  0  0  0
   -0.8020   14.5900   -2.8120 C   0  0  2  0  0  0  0  0  0  0  0  0
   -5.1380   21.7220   -7.5660 C   0  0  1  0  0  0  0  0  0  0  0  0
   -1.4820   15.5570    2.1120 N   0  0  0  0  0  0  0  0  0  0  0  0
   -2.8410   17.8140   -7.7080 O   0  0  0  0  0  0  0  0  0  0  0  0
    0.9290   20.4450   -7.8000 O   0  0  0  0  0  0  0  0  0  0  0  0
   -5.2650   21.0980   -6.2710 O   0  0  0  0  0  0  0  0  0  0  0  0
   -0.3730   15.2690    1.4120 C   0  0  0  0  0  0  0  0  0  0  0  0
   -4.5250   23.1000   -7.4790 C   0  0  2  0  0  0  0  0  0  0  0  0
   -2.6790   18.3440   -5.0810 O   0  0  0  0  0  0  0  0  0  0  0  0
   -0.2100   18.4710   -9.0560 O   0  0  0  0  0  0  0  0  0  0  0  0
   -5.5190   24.1140   -7.2210 O   0  0  0  0  0  0  0  0  0  0  0  0
   -3.8820   23.2370   -8.8400 C   0  0  2  0  0  0  0  0  0  0  0  0
   -0.3850   15.0370    0.0770 N   0  0  0  0  0  0  0  0  0  0  0  0
   -1.2310   19.5210   -6.8220 O   0  0  0  0  0  0  0  0  0  0  0  0
   -4.8350   23.4040   -9.8810 O   0  0  0  0  0  0  0  0  0  0  0  0
   -1.5510   15.1010   -0.6090 C   0  0  0  0  0  0  0  0  0  0  0  0
   -3.3110   21.8850   -9.0540 C   0  0  2  0  0  0  0  0  0  0  0  0
   -4.1950   20.9970   -8.3690 O   0  0  0  0  0  0  0  0  0  0  0  0
   -2.8030   15.4240    0.0710 C   0  0  0  0  0  0  0  0  0  0  0  0
   -1.9550   21.7790   -8.4230 C   0  0  0  0  0  0  0  0  0  0  0  0
   -1.3390   20.6820   -9.0490 O   0  0  0  0  0  0  0  0  0  0  0  0
   -2.7130   15.6540    1.5190 C   0  0  0  0  0  0  0  0  0  0  0  0
   -3.8070   15.9680    2.2390 N   0  0  0  0  0  0  0  0  0  0  0  0
   -3.7440   15.4090   -0.8550 N   0  0  0  0  0  0  0  0  0  0  0  0
   -3.1560   15.1070   -2.0430 C   0  0  0  0  0  0  0  0  0  0  0  0
   -1.8520   14.9170   -1.8680 N   0  0  0  0  0  0  0  0  0  0  0  0
  1  4  1  0
  1 14  1  0
  1 19  1  0
  1 24  1  0
  4  3  1  0
 24  2  1  0
  2 15  1  0
  2 20  1  0
  2 31  1  0
 31 30  1  0
  5  3  1  6
  5  6  1  0
  5  7  1  0
  6 11  1  0
  7  8  1  1
  7  9  1  0
 11  9  1  0
 11 36  1  1
  9 10  1  1
 36 26  1  0
 36 35  1  0
 12 16  1  1
 12 18  1  0
 12 28  1  0
 18 21  1  6
 18 22  1  0
 28 27  1  0
 13 17  1  0
 13 32  1  0
 17 23  1  0
 32 29  1  0
 32 33  1  0
 23 26  1  0
 22 25  1  6
 22 27  1  0
 27 30  1  1
 26 29  1  0
 29 34  1  0
 34 35  1  0
M  CHG  2  14  -1  15  -1
M  END
