5CB5_0_D_γ-5LW0_0_A_γ
     RDKit          3D

  9  9  0  0  0  0  0  0  0  0999 V2000
   -0.5530   12.4000   -4.6370 O   0  0  0  0  0  0  0  0  0  0  0  0
    0.0300   13.6120   -4.1910 C   0  0  2  0  0  0  0  0  0  0  0  0
   -0.8280   14.4610   -3.3120 C   0  0  1  0  0  0  0  0  0  0  0  0
    0.2130   14.5770   -5.2950 C   0  0  2  0  0  0  0  0  0  0  0  0
    1.2000   14.0240   -6.1100 O   0  0  0  0  0  0  0  0  0  0  0  0
   -0.8570   13.8300   -2.0610 O   0  0  0  0  0  0  0  0  0  0  0  0
   -0.1650   15.7460   -3.2900 O   0  0  0  0  0  0  0  0  0  0  0  0
    0.5900   15.8450   -4.5240 C   0  0  2  0  0  0  0  0  0  0  0  0
    0.2660   17.1440   -5.2620 C   0  0  0  0  0  0  0  0  0  0  0  0
  2  1  1  6
  2  3  1  0
  2  4  1  0
  4  5  1  6
  3  6  1  1
  3  7  1  0
  4  8  1  0
  7  8  1  0
  8  9  1  6
M  END
