5cb5_M_1_M_α-2FAV_0_B_β
     RDKit          3D

 20 20  0  0  0  0  0  0  0  0999 V2000
   -1.7470   21.2910   -8.6560 C   0  0  0  0  0  0  0  0  0  0  0  0
   -0.7960   20.3140   -7.5870 P   0  0  0  0  0  0  0  0  0  0  0  0
   -1.5940   19.4930   -6.3600 O   0  0  0  0  0  0  0  0  0  0  0  0
   -3.2230   21.7440   -8.5160 C   0  0  2  0  0  0  0  0  0  0  0  0
    0.8530   20.5580   -7.5560 O   0  0  0  0  0  0  0  0  0  0  0  0
   -0.5360   19.0160   -8.3670 O   0  0  0  0  0  0  0  0  0  0  0  0
   -3.4500   23.2350   -8.3380 C   0  0  1  0  0  0  0  0  0  0  0  0
   -3.7810   21.1500   -7.4020 O   0  0  0  0  0  0  0  0  0  0  0  0
   -4.1880   23.7770   -9.4240 O   0  0  0  0  0  0  0  0  0  0  0  0
   -1.2900   18.0930   -5.8490 P   0  0  0  0  0  0  0  0  0  0  0  0
   -4.4170   23.3170   -7.1530 C   0  0  2  0  0  0  0  0  0  0  0  0
   -4.8960   21.9060   -7.1390 C   0  0  2  0  0  0  0  0  0  0  0  0
   -5.5240   24.1640   -7.4110 O   0  0  0  0  0  0  0  0  0  0  0  0
   -5.4200   21.5280   -5.8950 O   0  0  0  0  0  0  0  0  0  0  0  0
    0.2250   17.8480   -6.3630 O   0  0  0  0  0  0  0  0  0  0  0  0
   -1.5510   18.7080   -4.3570 O   0  0  0  0  0  0  0  0  0  0  0  0
   -2.5510   17.5000   -6.7430 O   0  0  0  0  0  0  0  0  0  0  0  0
   -6.4850   23.7910   -8.3570 C   0  0  0  0  0  0  0  0  0  0  0  0
   -7.2060   24.7190   -9.2710 C   0  0  0  0  0  0  0  0  0  0  0  0
   -6.7240   22.5650   -8.4050 O   0  0  0  0  0  0  0  0  0  0  0  0
  1  2  1  0
  2  3  1  0
  4  1  1  1
  2  5  1  0
  2  6  1  0
  4  7  1  0
  4  8  1  0
  7  9  1  6
  3 10  1  0
  7 11  1  0
  8 12  1  0
 11 12  1  0
 11 13  1  6
 12 14  1  1
 10 15  1  0
 10 16  1  0
 10 17  1  0
 13 18  1  0
 18 19  1  0
 18 20  2  0
M  CHG  2   5  -1  16  -1
M  END
