5cb5_E_0_E_α-2fav_B_0_B_γ
     RDKit          3D

 22 23  0  0  0  0  0  0  0  0999 V2000
   -2.1080   21.3180   -8.9240 C   0  0  0  0  0  0  0  0  0  0  0  0
   -3.2060   22.0840   -8.2570 C   0  0  2  0  0  0  0  0  0  0  0  0
   -4.3780   21.3090   -8.1740 O   0  0  0  0  0  0  0  0  0  0  0  0
   -3.7790   23.4150   -8.7480 C   0  0  1  0  0  0  0  0  0  0  0  0
   -4.3810   23.3450  -10.0500 O   0  0  0  0  0  0  0  0  0  0  0  0
   -4.6940   22.1580   -7.1270 C   0  0  1  0  0  0  0  0  0  0  0  0
   -4.8910   23.5620   -7.6800 C   0  0  2  0  0  0  0  0  0  0  0  0
   -5.4000   21.6550   -6.0480 O   0  0  0  0  0  0  0  0  0  0  0  0
   -6.1900   23.8940   -8.1780 O   0  0  0  0  0  0  0  0  0  0  0  0
   -4.2180   21.2110   -5.3720 C   0  0  0  0  0  0  0  0  0  0  0  0
   -3.3010   20.3230   -6.2690 C   0  0  0  0  0  0  0  0  0  0  0  0
   -2.0380   19.7940   -5.5710 C   0  0  0  0  0  0  0  0  0  0  0  0
   -1.5910   18.3620   -5.9440 C   0  0  0  0  0  0  0  0  0  0  0  0
   -0.7760   17.6920   -4.8140 C   0  0  0  0  0  0  0  0  0  0  0  0
    0.6130   17.1250   -5.1750 C   0  0  0  0  0  0  0  0  0  0  0  0
    1.0790   15.9170   -4.3080 C   0  0  1  0  0  0  0  0  0  0  0  0
    0.2420   15.8180   -3.1260 O   0  0  0  0  0  0  0  0  0  0  0  0
    1.0310   14.5260   -4.9690 C   0  0  1  0  0  0  0  0  0  0  0  0
    2.0980   13.6460   -4.6450 O   0  0  0  0  0  0  0  0  0  0  0  0
   -0.2950   14.4910   -3.0590 C   0  0  0  0  0  0  0  0  0  0  0  0
   -0.2950   13.9750   -4.4790 C   0  0  2  0  0  0  0  0  0  0  0  0
   -0.3410   12.5570   -4.5810 O   0  0  0  0  0  0  0  0  0  0  0  0
  2  1  1  6
  2  3  1  0
  2  4  1  0
  4  5  1  6
  3  6  1  0
  4  7  1  0
  6  7  1  0
  6  8  1  6
  7  9  1  6
  8 10  1  0
 10 11  1  0
 11 12  1  0
 12 13  1  0
 13 14  1  0
 14 15  1  0
 16 15  1  6
 16 17  1  0
 16 18  1  0
 18 19  1  1
 17 20  1  0
 18 21  1  0
 20 21  1  0
 21 22  1  1
M  END
