5CB5_0_M_β-mArh-6woj_A_0_A_α
     RDKit          3D

 17 17  0  0  0  0  0  0  0  0999 V2000
   -1.8140   21.3040   -8.8310 O   0  0  0  0  0  0  0  0  0  0  0  0
   -0.6920   20.3520   -7.9640 P   0  0  0  0  0  0  0  0  0  0  0  0
   -1.1340   19.8050   -6.4980 O   0  0  0  0  0  0  0  0  0  0  0  0
   -3.1050   21.6670   -8.3180 C   0  0  1  0  0  0  0  0  0  0  0  0
   -1.1160   19.0250   -8.5630 O   0  0  0  0  0  0  0  0  0  0  0  0
   -0.0960   21.6470   -7.4370 O   0  0  0  0  0  0  0  0  0  0  0  0
   -3.4890   21.1080   -7.1340 O   0  0  0  0  0  0  0  0  0  0  0  0
   -3.2600   23.2100   -7.9940 C   0  0  1  0  0  0  0  0  0  0  0  0
   -1.4440   18.3710   -6.0370 P   0  0  0  0  0  0  0  0  0  0  0  0
   -4.0500   23.7810   -8.9900 O   0  0  0  0  0  0  0  0  0  0  0  0
   -4.5920   21.8120   -6.7310 C   0  0  2  0  0  0  0  0  0  0  0  0
   -4.1010   23.2120   -6.6820 C   0  0  2  0  0  0  0  0  0  0  0  0
   -1.6090   16.9180   -5.5700 O   0  0  0  0  0  0  0  0  0  0  0  0
   -2.6410   18.2060   -7.1290 O   0  0  0  0  0  0  0  0  0  0  0  0
   -1.8490   18.9820   -4.5750 O   0  0  0  0  0  0  0  0  0  0  0  0
   -5.1940   21.4380   -5.5410 O   0  0  0  0  0  0  0  0  0  0  0  0
   -5.1620   24.1360   -6.7920 O   0  0  0  0  0  0  0  0  0  0  0  0
  1  2  1  0
  2  3  1  0
  4  1  1  1
  2  5  1  0
  2  6  1  0
  4  7  1  0
  4  8  1  0
  3  9  1  0
  8 10  1  6
  7 11  1  0
  8 12  1  0
 11 12  1  0
  9 13  1  0
  9 14  1  0
  9 15  1  0
 11 16  1  1
 12 17  1  6
M  CHG  2   5  -1  14  -1
M  END
