5CB5_0_K_β-5CB5_0_H_δ
     RDKit          3D

 21 22  0  0  0  0  0  0  0  0999 V2000
   -1.7740   20.9820   -7.4930 O   0  0  0  0  0  0  0  0  0  0  0  0
   -0.7290   19.9490   -7.8730 P   0  0  0  0  0  0  0  0  0  0  0  0
   -0.9000   19.2830   -6.3290 O   0  0  0  0  0  0  0  0  0  0  0  0
    0.4130   21.0730   -8.0460 O   0  0  0  0  0  0  0  0  0  0  0  0
    0.1190   18.7900   -8.4100 O   0  0  0  0  0  0  0  0  0  0  0  0
   -1.5030   17.8940   -6.0550 P   0  0  0  0  0  0  0  0  0  0  0  0
    0.0370   17.3420   -6.5740 O   0  0  0  0  0  0  0  0  0  0  0  0
   -2.6550   18.1400   -7.1200 O   0  0  0  0  0  0  0  0  0  0  0  0
   -1.6360   17.9280   -4.4660 O   0  0  0  0  0  0  0  0  0  0  0  0
   -0.5730   17.2910   -3.8330 C   0  0  0  0  0  0  0  0  0  0  0  0
   -0.8950   16.2460   -2.7360 C   0  0  0  0  0  0  0  0  0  0  0  0
   -2.2230   15.4920   -2.6540 C   0  0  1  0  0  0  0  0  0  0  0  0
   -1.7510   14.2290   -2.1410 N   0  0  0  0  0  0  0  0  0  0  0  0
   -3.0680   15.9280   -1.4840 N   0  0  0  0  0  0  0  0  0  0  0  0
   -1.3720   14.7280   -0.8750 C   0  0  1  0  0  0  0  0  0  0  0  0
   -2.7960   15.0100   -0.4120 C   0  0  1  0  0  0  0  0  0  0  0  0
   -0.7030   13.8410    0.0100 N   0  0  0  0  0  0  0  0  0  0  0  0
   -2.7460   15.5750    0.9640 C   0  0  1  0  0  0  0  0  0  0  0  0
   -4.0680   15.6890    1.5890 N   0  0  0  0  0  0  0  0  0  0  0  0
   -0.6410   14.5260    1.2870 C   0  0  0  0  0  0  0  0  0  0  0  0
   -1.9680   14.7100    1.7860 N   0  0  0  0  0  0  0  0  0  0  0  0
  1  2  1  0
  2  3  1  0
  2  4  1  0
  2  5  1  0
  3  6  1  0
  6  7  1  0
  6  8  1  0
  6  9  1  0
  9 10  1  0
 10 11  1  0
 12 11  1  1
 12 13  1  0
 12 14  1  0
 15 13  1  6
 16 14  1  6
 15 16  1  0
 15 17  1  0
 16 18  1  0
 18 19  1  1
 17 20  1  0
 18 21  1  0
 20 21  1  0
M  CHG  2   4  -1   8  -1
M  END
