5cb5_D_0_D_α-6fx_7_0A_γ
     RDKit          3D

 22 23  0  0  0  0  0  0  0  0999 V2000
   -2.1290   21.7040   -8.3860 C   0  0  0  0  0  0  0  0  0  0  0  0
   -3.4680   22.1390   -8.9880 C   0  0  1  0  0  0  0  0  0  0  0  0
   -4.5130   21.2120   -8.6570 O   0  0  0  0  0  0  0  0  0  0  0  0
   -3.9350   23.4730   -8.4610 C   0  0  1  0  0  0  0  0  0  0  0  0
   -4.8220   24.0640   -9.4260 O   0  0  0  0  0  0  0  0  0  0  0  0
   -5.2440   21.6940   -7.5310 C   0  0  2  0  0  0  0  0  0  0  0  0
   -4.7030   23.0900   -7.2010 C   0  0  2  0  0  0  0  0  0  0  0  0
   -4.9700   20.8550   -6.4280 O   0  0  0  0  0  0  0  0  0  0  0  0
   -5.7390   24.0270   -6.9050 O   0  0  0  0  0  0  0  0  0  0  0  0
   -3.7630   20.1500   -6.7350 C   0  0  0  0  0  0  0  0  0  0  0  0
   -2.5780   20.3470   -5.8070 C   0  0  0  0  0  0  0  0  0  0  0  0
   -1.4940   19.3180   -6.1430 C   0  0  0  0  0  0  0  0  0  0  0  0
   -1.1660   18.4590   -4.9330 C   0  0  0  0  0  0  0  0  0  0  0  0
    0.3170   18.0870   -4.8190 C   0  0  0  0  0  0  0  0  0  0  0  0
    0.5860   16.7150   -5.4040 C   0  0  0  0  0  0  0  0  0  0  0  0
    0.7120   15.6050   -4.3610 C   0  0  1  0  0  0  0  0  0  0  0  0
   -0.1740   15.9050   -3.2500 O   0  0  0  0  0  0  0  0  0  0  0  0
    0.2740   14.1970   -4.7920 C   0  0  2  0  0  0  0  0  0  0  0  0
    0.5750   13.7730   -6.0970 O   0  0  0  0  0  0  0  0  0  0  0  0
   -1.1820   14.8780   -3.1800 C   0  0  0  0  0  0  0  0  0  0  0  0
   -1.2160   14.2690   -4.5580 C   0  0  2  0  0  0  0  0  0  0  0  0
   -1.8060   12.9880   -4.6330 O   0  0  0  0  0  0  0  0  0  0  0  0
  2  1  1  1
  2  3  1  0
  2  4  1  0
  4  5  1  6
  3  6  1  0
  4  7  1  0
  6  7  1  0
  6  8  1  1
  7  9  1  6
  8 10  1  0
 10 11  1  0
 11 12  1  0
 12 13  1  0
 13 14  1  0
 14 15  1  0
 16 15  1  6
 16 17  1  0
 16 18  1  0
 18 19  1  6
 17 20  1  0
 18 21  1  0
 20 21  1  0
 21 22  1  1
M  END
