5CB5_0_E_γ-mArh-5cb5_O_0_O_β
     RDKit          3D

 16 16  0  0  0  0  0  0  0  0999 V2000
   -1.5620   12.6220   -4.3480 O   0  0  0  0  0  0  0  0  0  0  0  0
   -0.5150   13.4980   -3.9780 C   0  0  2  0  0  0  0  0  0  0  0  0
   -0.8810   14.4690   -2.8550 C   0  0  0  0  0  0  0  0  0  0  0  0
   -0.0940   14.4100   -5.1260 C   0  0  2  0  0  0  0  0  0  0  0  0
    1.3390   14.3910   -5.1020 O   0  0  0  0  0  0  0  0  0  0  0  0
   -0.4260   15.7590   -3.2760 O   0  0  0  0  0  0  0  0  0  0  0  0
   -0.6920   15.7500   -4.6790 C   0  0  1  0  0  0  0  0  0  0  0  0
   -0.1460   17.0370   -5.2810 C   0  0  0  0  0  0  0  0  0  0  0  0
   -1.3980   18.1610   -5.9520 P   0  0  1  0  0  0  0  0  0  0  0  0
   -0.6220   19.4090   -6.5110 O   0  0  0  0  0  0  0  0  0  0  0  0
   -2.3740   17.5270   -6.8940 O   0  0  0  0  0  0  0  0  0  0  0  0
   -2.1550   18.8690   -4.7360 O   0  0  0  0  0  0  0  0  0  0  0  0
   -0.2360   19.9710   -7.9060 P   0  0  0  0  0  0  0  0  0  0  0  0
   -1.6090   20.5260   -8.4760 O   0  0  0  0  0  0  0  0  0  0  0  0
    0.8580   20.9600   -7.9470 O   0  0  0  0  0  0  0  0  0  0  0  0
   -0.0310   18.6900   -8.8400 O   0  0  0  0  0  0  0  0  0  0  0  0
  2  1  1  6
  2  3  1  0
  2  4  1  0
  4  5  1  1
  3  6  1  0
  4  7  1  0
  6  7  1  0
  7  8  1  6
  8  9  1  0
  9 10  1  0
  9 11  2  0
  9 12  1  1
 10 13  1  0
 13 14  1  0
 13 15  2  0
 13 16  1  0
M  END
