5CB5_0_D_Î±
     RDKit          3D

  9  9  0  0  0  0  0  0  0  0999 V2000
   -1.8920   21.8850   -8.3310 C   0  0  0  0  0  0  0  0  0  0  0  0
   -3.2340   22.0480   -9.0100 C   0  0  1  0  0  0  0  0  0  0  0  0
   -4.1220   21.0000   -8.5880 O   0  0  0  0  0  0  0  0  0  0  0  0
   -3.8910   23.3250   -8.5340 C   0  0  2  0  0  0  0  0  0  0  0  0
   -5.2180   21.5670   -7.7760 C   0  0  2  0  0  0  0  0  0  0  0  0
   -4.7030   22.9300   -7.3170 C   0  0  2  0  0  0  0  0  0  0  0  0
   -4.8370   23.7110   -9.5410 O   0  0  0  0  0  0  0  0  0  0  0  0
   -5.6380   20.8010   -6.6230 O   0  0  0  0  0  0  0  0  0  0  0  0
   -5.7830   23.8370   -7.1110 O   0  0  0  0  0  0  0  0  0  0  0  0
  2  1  1  1
  3  2  1  0
  4  2  1  0
  5  3  1  0
  6  4  1  0
  4  7  1  6
  5  8  1  1
  5  6  1  0
  6  9  1  6
M  END
