5CB5_0_J_δ-5LW0_0_A_δ
     RDKit          3D

 10 11  0  0  0  0  0  0  0  0999 V2000
   -4.0830   15.1950    1.8050 N   0  0  0  0  0  0  0  0  0  0  0  0
   -2.9080   15.4490    0.9990 C   0  0  2  0  0  0  0  0  0  0  0  0
   -3.0060   14.8330   -0.3860 C   0  0  2  0  0  0  0  0  0  0  0  0
   -1.7460   14.9280    1.6870 N   0  0  0  0  0  0  0  0  0  0  0  0
   -1.7090   15.2520   -1.0390 C   0  0  2  0  0  0  0  0  0  0  0  0
   -3.9810   15.3100   -1.3630 N   0  0  0  0  0  0  0  0  0  0  0  0
   -0.4950   15.1760    0.9710 C   0  0  0  0  0  0  0  0  0  0  0  0
   -1.9020   14.7380   -2.3620 N   0  0  0  0  0  0  0  0  0  0  0  0
   -3.3000   15.0620   -2.6400 C   0  0  0  0  0  0  0  0  0  0  0  0
   -0.5560   14.7050   -0.3930 N   0  0  0  0  0  0  0  0  0  0  0  0
  2  1  1  1
  2  3  1  0
  2  4  1  0
  3  5  1  0
  3  6  1  6
  4  7  1  0
  5  8  1  6
  6  9  1  0
  8  9  1  0
  5 10  1  0
  7 10  1  0
M  END
