5CB5_0_J_γ-5LW0_1_B_β
     RDKit          3D

 16 16  0  0  0  0  0  0  0  0999 V2000
   -0.2970   12.4040   -3.8080 O   0  0  0  0  0  0  0  0  0  0  0  0
   -0.7310   13.7210   -3.8800 C   0  0  1  0  0  0  0  0  0  0  0  0
   -0.2180   14.5910   -2.7280 C   0  0  0  0  0  0  0  0  0  0  0  0
   -0.1810   14.4360   -5.0780 C   0  0  2  0  0  0  0  0  0  0  0  0
    1.1760   14.1270   -5.1940 O   0  0  0  0  0  0  0  0  0  0  0  0
    0.2190   15.7850   -3.3350 O   0  0  0  0  0  0  0  0  0  0  0  0
   -0.4450   15.7770   -4.5370 C   0  0  1  0  0  0  0  0  0  0  0  0
   -0.2310   17.0070   -5.4070 C   0  0  0  0  0  0  0  0  0  0  0  0
   -1.8090   17.6750   -5.7220 P   0  0  0  0  0  0  0  0  0  0  0  0
   -1.6780   18.4110   -7.0550 O   0  0  0  0  0  0  0  0  0  0  0  0
   -2.9300   16.7550   -6.6100 O   0  0  0  0  0  0  0  0  0  0  0  0
   -2.2850   19.0110   -5.0000 O   0  0  0  0  0  0  0  0  0  0  0  0
   -0.4160   19.0830   -7.7530 P   0  0  0  0  0  0  0  0  0  0  0  0
   -1.2840   19.7840   -8.7610 O   0  0  0  0  0  0  0  0  0  0  0  0
    0.1970   20.6010   -7.4380 O   0  0  0  0  0  0  0  0  0  0  0  0
    0.2690   18.2610   -8.9700 O   0  0  0  0  0  0  0  0  0  0  0  0
  2  1  1  1
  2  3  1  0
  2  4  1  0
  4  5  1  1
  3  6  1  0
  4  7  1  0
  6  7  1  0
  7  8  1  6
  8  9  1  0
  9 10  1  0
  9 11  1  0
  9 12  1  0
 10 13  1  0
 13 14  1  0
 13 15  1  0
 13 16  1  0
M  CHG  2  11  -1  15  -1
M  END
