5CB5_0_O_Î±
     RDKit          3D

  9  9  0  0  0  0  0  0  0  0999 V2000
   -1.8690   21.7750   -8.4040 C   0  0  0  0  0  0  0  0  0  0  0  0
   -3.1590   22.1820   -9.1020 C   0  0  1  0  0  0  0  0  0  0  0  0
   -4.1600   21.2280   -8.7540 O   0  0  0  0  0  0  0  0  0  0  0  0
   -3.7240   23.5150   -8.7050 C   0  0  2  0  0  0  0  0  0  0  0  0
   -5.2040   21.8480   -7.9970 C   0  0  2  0  0  0  0  0  0  0  0  0
   -4.6440   23.1970   -7.5880 C   0  0  2  0  0  0  0  0  0  0  0  0
   -4.5350   23.9420   -9.8020 O   0  0  0  0  0  0  0  0  0  0  0  0
   -5.5260   21.0190   -6.8820 O   0  0  0  0  0  0  0  0  0  0  0  0
   -5.6430   24.2060   -7.6180 O   0  0  0  0  0  0  0  0  0  0  0  0
  2  1  1  1
  3  2  1  0
  4  2  1  0
  5  3  1  0
  6  4  1  0
  4  7  1  6
  5  8  1  1
  5  6  1  0
  6  9  1  6
M  END
