5cb5_R_0_R_β-5l9k_B_0_B_β
     RDKit          3D

 10  9  0  0  0  0  0  0  0  0999 V2000
   -1.2120   20.6840   -8.9070 O   0  0  0  0  0  0  0  0  0  0  0  0
   -0.2820   19.9620   -7.8330 P   0  0  0  0  0  0  0  0  0  0  0  0
   -1.2460   19.8340   -6.5470 N   0  0  0  0  0  0  0  0  0  0  0  0
    1.0090   20.6810   -7.6900 O   0  0  0  0  0  0  0  0  0  0  0  0
   -0.1130   18.5980   -8.6730 O   0  0  0  0  0  0  0  0  0  0  0  0
   -1.4820   18.2830   -6.2060 P   0  0  0  0  0  0  0  0  0  0  0  0
   -2.6200   20.7500   -6.8210 P   0  0  0  0  0  0  0  0  0  0  0  0
   -0.0760   17.5210   -6.2420 O   0  0  0  0  0  0  0  0  0  0  0  0
   -2.5440   17.5500   -6.9370 O   0  0  0  0  0  0  0  0  0  0  0  0
   -1.6860   18.1750   -4.6360 O   0  0  0  0  0  0  0  0  0  0  0  0
  1  2  1  0
  2  3  1  0
  2  4  2  0
  2  5  1  0
  3  6  1  0
  3  7  1  0
  6  8  1  0
  6  9  2  0
  6 10  1  0
M  END
