5CB5_0_C_α-6MEA_0_A_γ
     RDKit          3D

 22 23  0  0  0  0  0  0  0  0999 V2000
   -2.1840   21.8110   -8.3260 C   0  0  0  0  0  0  0  0  0  0  0  0
   -3.5380   22.1820   -8.9340 C   0  0  1  0  0  0  0  0  0  0  0  0
   -4.5240   21.1820   -8.6370 O   0  0  0  0  0  0  0  0  0  0  0  0
   -4.0710   23.5020   -8.4220 C   0  0  1  0  0  0  0  0  0  0  0  0
   -4.5410   24.2470   -9.5470 O   0  0  0  0  0  0  0  0  0  0  0  0
   -5.3980   21.6400   -7.6140 C   0  0  2  0  0  0  0  0  0  0  0  0
   -5.3020   23.1730   -7.5970 C   0  0  1  0  0  0  0  0  0  0  0  0
   -4.9830   21.0750   -6.3880 O   0  0  0  0  0  0  0  0  0  0  0  0
   -5.2810   23.7750   -6.3070 O   0  0  0  0  0  0  0  0  0  0  0  0
   -3.8530   20.2480   -6.7040 C   0  0  0  0  0  0  0  0  0  0  0  0
   -2.6400   20.3000   -5.7930 C   0  0  0  0  0  0  0  0  0  0  0  0
   -1.4730   19.5120   -6.4170 C   0  0  0  0  0  0  0  0  0  0  0  0
   -1.5540   18.0110   -6.1750 C   0  0  0  0  0  0  0  0  0  0  0  0
   -0.8880   17.5430   -4.8740 C   0  0  0  0  0  0  0  0  0  0  0  0
    0.4890   16.8920   -5.0750 C   0  0  0  0  0  0  0  0  0  0  0  0
    0.8160   15.6940   -4.1510 C   0  0  1  0  0  0  0  0  0  0  0  0
    0.0430   15.7900   -2.9220 O   0  0  0  0  0  0  0  0  0  0  0  0
    0.5000   14.2700   -4.6400 C   0  0  2  0  0  0  0  0  0  0  0  0
    0.7200   13.9430   -5.9850 O   0  0  0  0  0  0  0  0  0  0  0  0
   -0.8580   14.6660   -2.8560 C   0  0  0  0  0  0  0  0  0  0  0  0
   -0.9560   14.1560   -4.2730 C   0  0  2  0  0  0  0  0  0  0  0  0
   -1.3950   12.8180   -4.4210 O   0  0  0  0  0  0  0  0  0  0  0  0
  2  1  1  1
  2  3  1  0
  2  4  1  0
  4  5  1  6
  3  6  1  0
  4  7  1  0
  6  7  1  0
  6  8  1  1
  7  9  1  1
  8 10  1  0
 10 11  1  0
 11 12  1  0
 12 13  1  0
 13 14  1  0
 14 15  1  0
 16 15  1  6
 16 17  1  0
 16 18  1  0
 18 19  1  6
 17 20  1  0
 18 21  1  0
 20 21  1  0
 21 22  1  1
M  END
