5CB5_0_M_Î²
     RDKit          3D

  9  8  0  0  0  0  0  0  0  0999 V2000
   -1.3710   20.5580   -9.2060 O   0  0  0  0  0  0  0  0  0  0  0  0
   -0.3680   19.6960   -8.2910 P   0  0  0  0  0  0  0  0  0  0  0  0
   -0.9830   19.3310   -6.8980 O   0  0  0  0  0  0  0  0  0  0  0  0
   -0.1080   18.3990   -8.9690 O   0  0  0  0  0  0  0  0  0  0  0  0
    0.9490   20.3790   -8.0370 O   0  0  0  0  0  0  0  0  0  0  0  0
   -2.2310   18.3950   -6.4280 P   0  0  0  0  0  0  0  0  0  0  0  0
   -1.5910   16.9910   -5.9310 O   0  0  0  0  0  0  0  0  0  0  0  0
   -3.1730   18.0960   -7.6010 O   0  0  0  0  0  0  0  0  0  0  0  0
   -2.9950   19.1280   -5.2420 O   0  0  0  0  0  0  0  0  0  0  0  0
  2  1  1  0
  3  2  1  0
  2  4  1  0
  2  5  1  0
  6  3  1  0
  6  7  1  0
  6  8  1  0
  6  9  1  0
M  CHG  2   4  -1   8  -1
M  END
