5cb5_D_0_D_γ-5L9K_0_B_γ
     RDKit          3D

  9  9  0  0  0  0  0  0  0  0999 V2000
    0.1060   12.4190   -4.5050 O   0  0  0  0  0  0  0  0  0  0  0  0
   -0.4340   13.7230   -4.6800 C   0  0  1  0  0  0  0  0  0  0  0  0
   -0.8360   14.3630   -3.3720 C   0  0  2  0  0  0  0  0  0  0  0  0
    0.6300   14.6440   -5.2190 C   0  0  2  0  0  0  0  0  0  0  0  0
    1.8690   13.9720   -5.1380 O   0  0  0  0  0  0  0  0  0  0  0  0
   -2.2160   14.0990   -3.1910 O   0  0  0  0  0  0  0  0  0  0  0  0
   -0.5830   15.7680   -3.5080 O   0  0  0  0  0  0  0  0  0  0  0  0
    0.5360   15.9350   -4.3980 C   0  0  2  0  0  0  0  0  0  0  0  0
    0.3370   17.2050   -5.2200 C   0  0  0  0  0  0  0  0  0  0  0  0
  2  1  1  1
  2  3  1  0
  2  4  1  0
  4  5  1  1
  3  6  1  6
  3  7  1  0
  4  8  1  0
  7  8  1  0
  8  9  1  6
M  END
