5cb5_N_0_N_γ-5CB5_0_Q_β
     RDKit          3D

 16 16  0  0  0  0  0  0  0  0999 V2000
   -1.1640   12.9900   -4.0330 O   0  0  0  0  0  0  0  0  0  0  0  0
   -0.2670   14.0480   -3.9070 C   0  0  2  0  0  0  0  0  0  0  0  0
   -0.7800   15.1540   -3.0480 C   0  0  0  0  0  0  0  0  0  0  0  0
   -0.0460   14.7770   -5.1890 C   0  0  2  0  0  0  0  0  0  0  0  0
    0.9460   14.0490   -5.8420 O   0  0  0  0  0  0  0  0  0  0  0  0
    0.0150   16.2600   -3.4180 O   0  0  0  0  0  0  0  0  0  0  0  0
    0.4570   16.1150   -4.7370 C   0  0  2  0  0  0  0  0  0  0  0  0
    0.1020   17.3800   -5.5850 C   0  0  0  0  0  0  0  0  0  0  0  0
   -1.5430   18.0110   -5.6570 P   0  0  0  0  0  0  0  0  0  0  0  0
   -1.4250   19.2320   -6.5930 O   0  0  0  0  0  0  0  0  0  0  0  0
   -2.6740   17.4440   -6.7960 O   0  0  0  0  0  0  0  0  0  0  0  0
   -2.0720   19.0460   -4.5680 O   0  0  0  0  0  0  0  0  0  0  0  0
   -0.3110   19.6240   -7.6650 P   0  0  0  0  0  0  0  0  0  0  0  0
   -1.3630   20.3620   -8.4950 O   0  0  0  0  0  0  0  0  0  0  0  0
    0.5360   21.0730   -7.6200 O   0  0  0  0  0  0  0  0  0  0  0  0
    0.0740   18.5580   -8.8500 O   0  0  0  0  0  0  0  0  0  0  0  0
  2  1  1  6
  2  3  1  0
  2  4  1  0
  4  5  1  6
  3  6  1  0
  4  7  1  0
  6  7  1  0
  7  8  1  6
  8  9  1  0
  9 10  1  0
  9 11  1  0
  9 12  1  0
 10 13  1  0
 13 14  1  0
 13 15  1  0
 13 16  1  0
M  CHG  2  11  -1  15  -1
M  END
