5CB5_0_P_Î²
     RDKit          3D

  9  8  0  0  0  0  0  0  0  0999 V2000
   -1.9020   20.8160   -8.2100 O   0  0  0  0  0  0  0  0  0  0  0  0
   -0.5550   19.9210   -8.3320 P   0  0  0  0  0  0  0  0  0  0  0  0
   -0.4870   18.7540   -7.2250 O   0  0  0  0  0  0  0  0  0  0  0  0
    0.6970   20.8000   -8.1980 O   0  0  0  0  0  0  0  0  0  0  0  0
   -0.7920   19.1210   -9.5940 O   0  0  0  0  0  0  0  0  0  0  0  0
   -1.8450   18.1720   -6.5860 P   0  0  0  0  0  0  0  0  0  0  0  0
   -1.2420   17.0860   -5.5890 O   0  0  0  0  0  0  0  0  0  0  0  0
   -2.7670   17.3150   -7.4810 O   0  0  0  0  0  0  0  0  0  0  0  0
   -2.4370   19.3540   -5.7770 O   0  0  0  0  0  0  0  0  0  0  0  0
  2  1  1  0
  3  2  1  0
  2  4  1  0
  2  5  1  0
  6  3  1  0
  6  7  1  0
  6  8  1  0
  6  9  1  0
M  CHG  2   4  -1   8  -1
M  END
