5CB5_0_A_β-5CMS_0_I_δ
     RDKit          3D

 21 22  0  0  0  0  0  0  0  0999 V2000
   -1.1810   20.3680   -9.1620 O   0  0  0  0  0  0  0  0  0  0  0  0
   -0.7700   19.8050   -7.8360 P   0  0  0  0  0  0  0  0  0  0  0  0
   -0.5950   19.0640   -6.5210 O   0  0  0  0  0  0  0  0  0  0  0  0
    0.3440   20.9430   -7.5830 O   0  0  0  0  0  0  0  0  0  0  0  0
   -0.2250   18.4630   -8.6470 O   0  0  0  0  0  0  0  0  0  0  0  0
   -1.3980   17.9080   -5.9270 P   0  0  0  0  0  0  0  0  0  0  0  0
   -2.0800   16.6320   -5.3850 O   0  0  0  0  0  0  0  0  0  0  0  0
   -2.5760   18.0540   -7.0490 O   0  0  0  0  0  0  0  0  0  0  0  0
   -1.6340   18.6930   -4.5320 O   0  0  0  0  0  0  0  0  0  0  0  0
   -1.3240   15.7740   -4.5650 C   0  0  0  0  0  0  0  0  0  0  0  0
   -1.4580   16.1040   -3.1070 C   0  0  0  0  0  0  0  0  0  0  0  0
   -1.8190   14.9200   -2.2980 N   0  0  0  0  0  0  0  0  0  0  0  0
   -1.4960   15.1960   -0.9300 C   0  0  1  0  0  0  0  0  0  0  0  0
   -3.2660   14.8050   -2.3620 C   0  0  0  0  0  0  0  0  0  0  0  0
   -2.6520   14.4510   -0.2350 C   0  0  2  0  0  0  0  0  0  0  0  0
   -3.7440   14.9630   -0.9750 N   0  0  0  0  0  0  0  0  0  0  0  0
   -0.2680   14.5900   -0.4560 N   0  0  0  0  0  0  0  0  0  0  0  0
   -0.2270   14.8670    0.9680 C   0  0  0  0  0  0  0  0  0  0  0  0
   -2.6310   14.8400    1.2170 C   0  0  2  0  0  0  0  0  0  0  0  0
   -3.7830   15.7060    1.4670 N   0  0  0  0  0  0  0  0  0  0  0  0
   -1.3980   15.5780    1.3550 N   0  0  0  0  0  0  0  0  0  0  0  0
  1  2  1  0
  2  3  1  0
  2  4  1  0
  2  5  1  0
  3  6  1  0
  6  7  1  0
  6  8  1  0
  6  9  1  0
  7 10  1  0
 10 11  1  0
 11 12  1  0
 12 13  1  0
 12 14  1  0
 13 15  1  0
 14 16  1  0
 15 16  1  6
 13 17  1  1
 17 18  1  0
 15 19  1  0
 19 20  1  6
 18 21  1  0
 19 21  1  0
M  CHG  2   4  -1   8  -1
M  END
