5CB5_0_H_δ-x0926_0_A_α
     RDKit          3D

 11 12  0  0  0  0  0  0  0  0999 V2000
   -4.0490   15.5950    2.0530 N   0  0  0  0  0  0  0  0  0  0  0  0
   -2.9770   15.4670    1.0850 C   0  0  2  0  0  0  0  0  0  0  0  0
   -3.2860   14.5150   -0.0240 C   0  0  2  0  0  0  0  0  0  0  0  0
   -1.8390   15.0110    1.8350 N   0  0  0  0  0  0  0  0  0  0  0  0
   -2.0240   14.2640   -0.8430 C   0  0  1  0  0  0  0  0  0  0  0  0
   -4.2830   14.9720   -1.0420 C   0  0  0  0  0  0  0  0  0  0  0  0
   -0.6260   14.6440    1.1130 C   0  0  0  0  0  0  0  0  0  0  0  0
   -5.4950   15.1440   -0.8240 O   0  0  0  0  0  0  0  0  0  0  0  0
   -2.2000   14.8340   -2.1650 N   0  0  0  0  0  0  0  0  0  0  0  0
   -3.6130   15.1590   -2.3850 C   0  0  0  0  0  0  0  0  0  0  0  0
   -0.8040   14.8030   -0.3010 N   0  0  0  0  0  0  0  0  0  0  0  0
  2  1  1  1
  2  3  1  0
  2  4  1  0
  3  5  1  0
  3  6  1  6
  4  7  1  0
  6  8  2  0
  5  9  1  6
  6 10  1  0
  9 10  1  0
  5 11  1  0
  7 11  1  0
M  END
