5CB5_0_H_α-x0591_0_A_α
     RDKit          3D

 27 28  0  0  0  0  0  0  0  0999 V2000
   -2.0990   21.4160   -8.9150 C   0  0  0  0  0  0  0  0  0  0  0  0
   -3.0950   22.1220   -8.0670 C   0  0  2  0  0  0  0  0  0  0  0  0
   -4.2300   21.3310   -7.8580 O   0  0  0  0  0  0  0  0  0  0  0  0
   -3.7670   23.4090   -8.5060 C   0  0  1  0  0  0  0  0  0  0  0  0
   -4.5010   23.3160   -9.7270 O   0  0  0  0  0  0  0  0  0  0  0  0
   -4.7370   22.0970   -6.7950 C   0  0  2  0  0  0  0  0  0  0  0  0
   -4.6820   23.5530   -7.2700 C   0  0  2  0  0  0  0  0  0  0  0  0
   -3.7770   21.9960   -5.7570 O   0  0  0  0  0  0  0  0  0  0  0  0
   -6.0010   24.0460   -7.5070 O   0  0  0  0  0  0  0  0  0  0  0  0
   -3.4380   20.6430   -5.5680 C   0  0  0  0  0  0  0  0  0  0  0  0
   -2.1450   20.0940   -6.1940 C   0  0  0  0  0  0  0  0  0  0  0  0
   -1.5430   18.8760   -5.4060 C   0  0  0  0  0  0  0  0  0  0  0  0
   -1.6160   17.5020   -6.1060 C   0  0  0  0  0  0  0  0  0  0  0  0
   -2.6500   16.5190   -5.6130 N   0  0  0  0  0  0  0  0  0  0  0  0
   -2.2630   15.1720   -4.9280 S   0  0  2  0  0  0  0  0  0  0  0  0
   -0.7500   15.6040   -4.3790 N   0  0  0  0  0  0  0  0  0  0  0  0
   -2.0030   13.8850   -5.5310 O   0  0  0  0  0  0  0  0  0  0  0  0
   -3.3670   14.9490   -3.5630 C   0  0  0  0  0  0  0  0  0  0  0  0
   -2.9160   14.7850   -2.2490 C   0  0  0  0  0  0  0  0  0  0  0  0
   -4.7200   14.9530   -3.8380 C   0  0  0  0  0  0  0  0  0  0  0  0
   -3.8570   14.6450   -1.2130 C   0  0  0  0  0  0  0  0  0  0  0  0
   -5.6530   14.8200   -2.8150 C   0  0  0  0  0  0  0  0  0  0  0  0
   -5.2330   14.6720   -1.4960 C   0  0  0  0  0  0  0  0  0  0  0  0
   -6.2360   14.5490   -0.4010 C   0  0  0  0  0  0  0  0  0  0  0  0
   -5.7730   14.4590    0.8910 N   0  0  0  0  0  0  0  0  0  0  0  0
   -7.4310   14.5430   -0.6730 O   0  0  0  0  0  0  0  0  0  0  0  0
   -6.7190   14.5080    1.9770 C   0  0  0  0  0  0  0  0  0  0  0  0
  2  1  1  6
  2  3  1  0
  2  4  1  0
  4  5  1  6
  3  6  1  0
  4  7  1  0
  6  7  1  0
  6  8  1  1
  7  9  1  6
  8 10  1  0
 10 11  1  0
 11 12  1  0
 12 13  1  0
 13 14  1  0
 14 15  2  0
 15 16  1  1
 15 17  2  0
 15 18  1  0
 18 19  2  0
 18 20  1  0
 19 21  1  0
 20 22  2  0
 21 23  2  0
 22 23  1  0
 23 24  1  0
 24 25  1  0
 24 26  2  0
 25 27  1  0
M  END
