5CB5_0_N_γ-5CMS_0_E_α
     RDKit          3D

 21 22  0  0  0  0  0  0  0  0999 V2000
   -0.7040   12.5860   -3.9510 O   0  0  0  0  0  0  0  0  0  0  0  0
   -0.9240   13.9760   -4.0960 C   0  0  1  0  0  0  0  0  0  0  0  0
   -0.5630   14.7830   -2.8610 C   0  0  0  0  0  0  0  0  0  0  0  0
    0.0050   14.5840   -5.1210 C   0  0  2  0  0  0  0  0  0  0  0  0
    1.3250   14.0850   -4.9470 O   0  0  0  0  0  0  0  0  0  0  0  0
   -0.0640   16.0520   -3.3370 O   0  0  0  0  0  0  0  0  0  0  0  0
   -0.2090   16.0510   -4.7680 C   0  0  1  0  0  0  0  0  0  0  0  0
    0.7300   17.0960   -5.3590 C   0  0  0  0  0  0  0  0  0  0  0  0
    0.0870   18.2560   -6.1240 C   0  0  0  0  0  0  0  0  0  0  0  0
   -1.3510   18.5970   -5.7060 C   0  0  0  0  0  0  0  0  0  0  0  0
   -2.1660   19.1800   -6.8640 C   0  0  0  0  0  0  0  0  0  0  0  0
   -2.7000   20.6100   -6.6580 C   0  0  0  0  0  0  0  0  0  0  0  0
   -2.4340   21.5530   -7.8570 C   0  0  0  0  0  0  0  0  0  0  0  0
   -3.6460   21.7920   -8.7860 C   0  0  1  0  0  0  0  0  0  0  0  0
   -4.4590   22.8790   -8.3140 O   0  0  0  0  0  0  0  0  0  0  0  0
   -3.1730   22.2090  -10.1630 C   0  0  1  0  0  0  0  0  0  0  0  0
   -3.8750   21.9350  -11.3580 O   0  0  0  0  0  0  0  0  0  0  0  0
   -4.6050   23.6140   -9.4940 C   0  0  2  0  0  0  0  0  0  0  0  0
   -3.2160   23.6750   -9.9690 C   0  0  1  0  0  0  0  0  0  0  0  0
   -5.1350   24.8850   -9.3610 O   0  0  0  0  0  0  0  0  0  0  0  0
   -2.1720   24.0700   -9.0960 O   0  0  0  0  0  0  0  0  0  0  0  0
  2  1  1  1
  2  3  1  0
  2  4  1  0
  4  5  1  1
  3  6  1  0
  4  7  1  0
  6  7  1  0
  7  8  1  6
  8  9  1  0
  9 10  1  0
 10 11  1  0
 11 12  1  0
 12 13  1  0
 14 13  1  1
 14 15  1  0
 14 16  1  0
 16 17  1  6
 15 18  1  0
 16 19  1  0
 18 19  1  0
 18 20  1  1
 19 21  1  1
M  END
