5CB5_0_N_β-EU0860_0_A_β
     RDKit          3D

 23 23  0  0  0  0  0  0  0  0999 V2000
   -2.4620   20.4840   -7.4720 O   0  0  0  0  0  0  0  0  0  0  0  0
   -1.1690   19.4230   -7.3170 P   0  0  0  0  0  0  0  0  0  0  0  0
   -2.0960   18.3490   -6.7400 O   0  0  0  0  0  0  0  0  0  0  0  0
   -0.2550   20.6190   -7.6670 O   0  0  0  0  0  0  0  0  0  0  0  0
   -0.8050   18.4200   -8.4980 O   0  0  0  0  0  0  0  0  0  0  0  0
   -1.6040   17.4030   -5.5280 P   0  0  0  0  0  0  0  0  0  0  0  0
    0.4040   18.4290   -9.0030 C   0  0  0  0  0  0  0  0  0  0  0  0
   -0.0130   17.0770   -5.2480 O   0  0  0  0  0  0  0  0  0  0  0  0
   -2.7180   16.5540   -4.5740 O   0  0  0  0  0  0  0  0  0  0  0  0
   -1.7010   18.5640   -4.5460 O   0  0  0  0  0  0  0  0  0  0  0  0
    0.7120   17.2990  -10.3970 C   0  0  0  0  0  0  0  0  0  0  0  0
    1.4130   15.4210  -11.0730 C   0  0  0  0  0  0  0  0  0  0  0  0
    0.8420   13.8610  -11.3300 C   0  0  0  0  0  0  0  0  0  0  0  0
    1.7360   12.7650  -11.8290 C   0  0  0  0  0  0  0  0  0  0  0  0
    0.9460   11.5750  -12.2170 C   0  0  0  0  0  0  0  0  0  0  0  0
    1.6880   10.3800  -12.3840 N   0  0  0  0  0  0  0  0  0  0  0  0
    2.8920   10.2310  -13.1230 C   0  0  0  0  0  0  0  0  0  0  0  0
    3.2450   11.1590  -14.0690 C   0  0  0  0  0  0  0  0  0  0  0  0
    3.7160    9.1600  -12.9010 C   0  0  0  0  0  0  0  0  0  0  0  0
    4.4030   11.0210  -14.7870 C   0  0  0  0  0  0  0  0  0  0  0  0
    4.8690    9.0460  -13.6340 C   0  0  0  0  0  0  0  0  0  0  0  0
    5.2630    9.9510  -14.5940 C   0  0  0  0  0  0  0  0  0  0  0  0
    6.4440    9.8020  -15.3160 O   0  0  0  0  0  0  0  0  0  0  0  0
  1  2  1  0
  2  3  1  0
  2  4  1  0
  2  5  1  0
  3  6  1  0
  5  7  1  0
  6  8  1  0
  6  9  1  0
  6 10  1  0
  7 11  1  0
 11 12  1  0
 12 13  1  0
 13 14  1  0
 14 15  1  0
 15 16  1  0
 16 17  1  0
 17 18  2  0
 17 19  1  0
 18 20  1  0
 19 21  2  0
 20 22  2  0
 21 22  1  0
 22 23  1  0
M  CHG  2   4  -1   9  -1
M  END
