5cb5_K_0_K_γ-5CB5_0_M_α
     RDKit          3D

 24 25  0  0  0  0  0  0  0  0999 V2000
   -0.8650   12.4680   -4.4720 O   0  0  0  0  0  0  0  0  0  0  0  0
   -0.3700   13.6630   -3.8980 C   0  0  2  0  0  0  0  0  0  0  0  0
   -1.4500   14.5270   -3.2650 C   0  0  0  0  0  0  0  0  0  0  0  0
    0.2630   14.6170   -4.9120 C   0  0  2  0  0  0  0  0  0  0  0  0
    1.5750   14.1080   -5.1750 O   0  0  0  0  0  0  0  0  0  0  0  0
   -1.2030   15.8580   -3.7340 O   0  0  0  0  0  0  0  0  0  0  0  0
    0.1910   15.8860   -4.0490 C   0  0  2  0  0  0  0  0  0  0  0  0
    0.5490   17.3000   -4.5540 C   0  0  0  0  0  0  0  0  0  0  0  0
    0.3900   17.5310   -6.0390 C   0  0  0  0  0  0  0  0  0  0  0  0
    0.0620   18.9730   -6.4340 C   0  0  0  0  0  0  0  0  0  0  0  0
   -0.8370   19.1110   -7.6640 C   0  0  0  0  0  0  0  0  0  0  0  0
   -0.8840   20.5090   -8.2960 C   0  0  0  0  0  0  0  0  0  0  0  0
   -1.8770   21.5310   -7.7100 C   0  0  0  0  0  0  0  0  0  0  0  0
   -3.1500   21.6960   -8.5600 C   0  0  2  0  0  0  0  0  0  0  0  0
   -3.6890   23.1200   -8.5990 C   0  0  1  0  0  0  0  0  0  0  0  0
   -4.2230   20.8940   -8.0200 O   0  0  0  0  0  0  0  0  0  0  0  0
   -4.3920   23.3720   -9.8050 O   0  0  0  0  0  0  0  0  0  0  0  0
   -4.5230   23.1520   -7.3250 C   0  0  2  0  0  0  0  0  0  0  0  0
   -5.1790   21.7680   -7.4150 C   0  0  2  0  0  0  0  0  0  0  0  0
   -5.5450   24.1650   -7.3530 O   0  0  0  0  0  0  0  0  0  0  0  0
   -5.4430   21.3080   -6.0970 O   0  0  0  0  0  0  0  0  0  0  0  0
   -6.5190   23.9750   -8.3890 C   0  0  2  0  0  0  0  0  0  0  0  0
   -6.1600   24.6660   -9.6850 C   0  0  0  0  0  0  0  0  0  0  0  0
   -7.7510   24.5210   -8.0210 O   0  0  0  0  0  0  0  0  0  0  0  0
  2  1  1  6
  2  3  1  0
  2  4  1  0
  4  5  1  1
  3  6  1  0
  4  7  1  0
  6  7  1  0
  7  8  1  6
  8  9  1  0
  9 10  1  0
 10 11  1  0
 11 12  1  0
 12 13  1  0
 14 13  1  1
 14 15  1  0
 14 16  1  0
 15 17  1  6
 15 18  1  0
 16 19  1  0
 18 19  1  0
 18 20  1  6
 19 21  1  1
 20 22  1  0
 22 23  1  6
 22 24  1  0
M  END
