5CB5_0_O_δ-5DUS_0_A_γ
     RDKit          3D

 17 19  0  0  0  0  0  0  0  0999 V2000
   -3.9240   15.5310    1.5920 N   0  0  0  0  0  0  0  0  0  0  0  0
   -2.8430   14.8690    0.8810 C   0  0  1  0  0  0  0  0  0  0  0  0
   -2.6600   15.3190   -0.5810 C   0  0  1  0  0  0  0  0  0  0  0  0
   -1.6450   15.1940    1.6250 N   0  0  0  0  0  0  0  0  0  0  0  0
   -1.4510   14.5440   -1.1010 C   0  0  1  0  0  0  0  0  0  0  0  0
   -3.7050   15.0600   -1.5810 N   0  0  0  0  0  0  0  0  0  0  0  0
   -0.4360   14.5810    1.0820 C   0  0  0  0  0  0  0  0  0  0  0  0
   -1.4910   14.8200   -2.6320 C   0  0  1  0  0  0  0  0  0  0  0  0
   -2.9500   15.2910   -2.8380 C   0  0  0  0  0  0  0  0  0  0  0  0
   -0.2900   14.9300   -0.3150 N   0  0  0  0  0  0  0  0  0  0  0  0
   -0.5060   15.8730   -2.9370 O   0  0  0  0  0  0  0  0  0  0  0  0
   -1.0990   13.7090   -3.6320 C   0  0  1  0  0  0  0  0  0  0  0  0
   -2.1360   12.9050   -4.1580 O   0  0  0  0  0  0  0  0  0  0  0  0
   -0.3150   15.8540   -4.3610 C   0  0  2  0  0  0  0  0  0  0  0  0
   -0.3380   14.3870   -4.7750 C   0  0  1  0  0  0  0  0  0  0  0  0
    0.9430   16.5950   -4.7580 C   0  0  0  0  0  0  0  0  0  0  0  0
    0.9400   13.7850   -4.9620 O   0  0  0  0  0  0  0  0  0  0  0  0
  2  1  1  1
  2  3  1  0
  2  4  1  0
  3  5  1  0
  3  6  1  6
  4  7  1  0
  5  8  1  0
  6  9  1  0
  8  9  1  6
  5 10  1  1
  7 10  1  0
  8 11  1  0
  8 12  1  0
 12 13  1  6
 11 14  1  0
 12 15  1  0
 14 15  1  0
 14 16  1  1
 15 17  1  1
M  END
