5cb5_N_0_N_β-5cb5_D_0_D_β
     RDKit          3D

  9  8  0  0  0  0  0  0  0  0999 V2000
   -1.6230   20.3260   -8.2580 O   0  0  0  0  0  0  0  0  0  0  0  0
   -0.2090   19.7610   -7.7920 P   0  0  0  0  0  0  0  0  0  0  0  0
   -0.4240   19.0030   -6.4490 O   0  0  0  0  0  0  0  0  0  0  0  0
    0.8440   20.7970   -7.8140 O   0  0  0  0  0  0  0  0  0  0  0  0
    0.0440   18.5740   -8.8410 O   0  0  0  0  0  0  0  0  0  0  0  0
   -1.7630   18.3430   -5.9730 P   0  0  0  0  0  0  0  0  0  0  0  0
   -1.3320   17.0860   -5.0950 O   0  0  0  0  0  0  0  0  0  0  0  0
   -2.6930   18.0110   -7.0620 O   0  0  0  0  0  0  0  0  0  0  0  0
   -2.3350   19.3880   -4.9210 O   0  0  0  0  0  0  0  0  0  0  0  0
  1  2  1  0
  2  3  1  0
  2  4  2  0
  2  5  1  0
  3  6  1  0
  6  7  1  0
  6  8  2  0
  6  9  1  0
M  END
