5CB5_0_R_Î´
     RDKit          3D

 10 11  0  0  0  0  0  0  0  0999 V2000
   -1.7080   14.7820   -2.0400 N   0  0  0  0  0  0  0  0  0  0  0  0
   -1.4410   14.9950   -0.7890 C   0  0  0  0  0  0  0  0  0  0  0  0
   -3.0460   14.8260   -2.2350 C   0  0  0  0  0  0  0  0  0  0  0  0
   -0.2830   15.0370   -0.1320 N   0  0  0  0  0  0  0  0  0  0  0  0
   -2.7120   15.1740   -0.1120 C   0  0  0  0  0  0  0  0  0  0  0  0
   -3.6760   15.0640   -1.0410 N   0  0  0  0  0  0  0  0  0  0  0  0
   -0.2800   15.2700    1.1760 C   0  0  0  0  0  0  0  0  0  0  0  0
   -2.6360   15.4250    1.3010 C   0  0  0  0  0  0  0  0  0  0  0  0
   -1.4240   15.4510    1.8560 N   0  0  0  0  0  0  0  0  0  0  0  0
   -3.7060   15.6160    2.0660 N   0  0  0  0  0  0  0  0  0  0  0  0
  1  2  1  0
  1  3  1  0
  4  2  1  0
  2  5  1  0
  6  3  1  0
  7  4  1  0
  8  5  1  0
  5  6  1  0
  9  7  1  0
  9  8  1  0
  8 10  1  0
M  END
