5CB5_0_E_δ-5CMS_0_P_γ
     RDKit          3D

 17 19  0  0  0  0  0  0  0  0999 V2000
   -3.8360   15.5550    1.5940 N   0  0  0  0  0  0  0  0  0  0  0  0
   -2.7710   14.9010    0.8450 C   0  0  1  0  0  0  0  0  0  0  0  0
   -2.6970   15.2890   -0.6460 C   0  0  1  0  0  0  0  0  0  0  0  0
   -1.5450   15.2940    1.5070 N   0  0  0  0  0  0  0  0  0  0  0  0
   -1.4940   14.5310   -1.2000 C   0  0  1  0  0  0  0  0  0  0  0  0
   -3.7920   14.9400   -1.5620 N   0  0  0  0  0  0  0  0  0  0  0  0
   -0.3400   14.7200    0.9170 C   0  0  0  0  0  0  0  0  0  0  0  0
   -1.6270   14.6960   -2.7480 C   0  0  1  0  0  0  0  0  0  0  0  0
   -3.1320   15.0670   -2.8920 C   0  0  0  0  0  0  0  0  0  0  0  0
   -0.2970   14.9910   -0.5080 N   0  0  0  0  0  0  0  0  0  0  0  0
   -0.7440   15.7950   -3.1830 O   0  0  0  0  0  0  0  0  0  0  0  0
   -1.1520   13.5180   -3.6540 C   0  0  1  0  0  0  0  0  0  0  0  0
   -2.0880   12.5590   -4.1020 O   0  0  0  0  0  0  0  0  0  0  0  0
   -0.5360   15.6330   -4.6000 C   0  0  2  0  0  0  0  0  0  0  0  0
   -0.4170   14.1320   -4.8520 C   0  0  1  0  0  0  0  0  0  0  0  0
    0.6420   16.4630   -5.0860 C   0  0  0  0  0  0  0  0  0  0  0  0
    0.9090   13.6120   -4.9420 O   0  0  0  0  0  0  0  0  0  0  0  0
  2  1  1  1
  2  3  1  0
  2  4  1  0
  3  5  1  0
  3  6  1  6
  4  7  1  0
  5  8  1  0
  6  9  1  0
  8  9  1  1
  5 10  1  1
  7 10  1  0
  8 11  1  0
  8 12  1  0
 12 13  1  6
 11 14  1  0
 12 15  1  0
 14 15  1  0
 14 16  1  1
 15 17  1  1
M  END
