5cb5_E_0_E_β-5DUS_0_A_γ
     RDKit          3D

 16 16  0  0  0  0  0  0  0  0999 V2000
   -1.4470   20.5890   -8.6400 O   0  0  0  0  0  0  0  0  0  0  0  0
   -0.2760   19.8960   -7.8220 P   0  0  0  0  0  0  0  0  0  0  0  0
   -0.8980   19.5160   -6.4300 O   0  0  0  0  0  0  0  0  0  0  0  0
    0.9420   20.7230   -7.7550 O   0  0  0  0  0  0  0  0  0  0  0  0
   -0.1320   18.5360   -8.6410 O   0  0  0  0  0  0  0  0  0  0  0  0
   -1.5030   18.1080   -6.0480 P   0  0  2  0  0  0  0  0  0  0  0  0
   -0.3200   17.0730   -5.6590 O   0  0  0  0  0  0  0  0  0  0  0  0
   -2.5980   17.6210   -6.9180 O   0  0  0  0  0  0  0  0  0  0  0  0
   -2.0220   18.4910   -4.5980 O   0  0  0  0  0  0  0  0  0  0  0  0
   -0.6450   16.0540   -4.7010 C   0  0  2  0  0  0  0  0  0  0  0  0
    0.1470   16.0050   -3.4940 O   0  0  0  0  0  0  0  0  0  0  0  0
   -0.5920   14.5910   -5.1560 C   0  0  1  0  0  0  0  0  0  0  0  0
    0.7210   14.0310   -5.3710 O   0  0  0  0  0  0  0  0  0  0  0  0
   -0.2460   14.7630   -2.8580 C   0  0  0  0  0  0  0  0  0  0  0  0
   -1.1010   14.0070   -3.8730 C   0  0  2  0  0  0  0  0  0  0  0  0
   -0.9020   12.6120   -3.8780 O   0  0  0  0  0  0  0  0  0  0  0  0
  1  2  1  0
  2  3  1  0
  2  4  2  0
  2  5  1  0
  3  6  1  0
  6  7  1  0
  6  8  2  0
  6  9  1  1
 10  7  1  6
 10 11  1  0
 10 12  1  0
 12 13  1  1
 11 14  1  0
 12 15  1  0
 14 15  1  0
 15 16  1  6
M  END
