5CB5_0_C_Î±
     RDKit          3D

  9  9  0  0  0  0  0  0  0  0999 V2000
   -1.8660   21.8030   -8.4980 C   0  0  0  0  0  0  0  0  0  0  0  0
   -3.2880   22.0320   -8.9640 C   0  0  1  0  0  0  0  0  0  0  0  0
   -4.2400   21.0630   -8.4600 O   0  0  0  0  0  0  0  0  0  0  0  0
   -3.7620   23.3520   -8.4050 C   0  0  2  0  0  0  0  0  0  0  0  0
   -5.2170   21.7350   -7.6250 C   0  0  2  0  0  0  0  0  0  0  0  0
   -4.5340   23.0080   -7.1560 C   0  0  2  0  0  0  0  0  0  0  0  0
   -4.7470   23.8490   -9.3210 O   0  0  0  0  0  0  0  0  0  0  0  0
   -5.5440   20.9880   -6.4590 O   0  0  0  0  0  0  0  0  0  0  0  0
   -5.4430   24.0770   -6.8080 O   0  0  0  0  0  0  0  0  0  0  0  0
  2  1  1  1
  3  2  1  0
  4  2  1  0
  5  3  1  0
  6  4  1  0
  4  7  1  6
  5  8  1  1
  5  6  1  0
  6  9  1  6
M  END
