5cb5_H_0_H_γ-5cms_G_3_G_α
     RDKit          3D

 16 16  0  0  0  0  0  0  0  0999 V2000
   -0.7170   12.4020   -3.8030 O   0  0  0  0  0  0  0  0  0  0  0  0
   -1.0860   13.7240   -3.7980 C   0  0  1  0  0  0  0  0  0  0  0  0
   -0.3480   14.4600   -2.6380 C   0  0  0  0  0  0  0  0  0  0  0  0
   -0.5780   14.4610   -4.9960 C   0  0  2  0  0  0  0  0  0  0  0  0
    0.7220   13.9680   -5.2280 O   0  0  0  0  0  0  0  0  0  0  0  0
    0.1330   15.6480   -3.2260 O   0  0  0  0  0  0  0  0  0  0  0  0
   -0.6240   15.7950   -4.3420 C   0  0  1  0  0  0  0  0  0  0  0  0
   -0.2600   16.9880   -5.1810 C   0  0  0  0  0  0  0  0  0  0  0  0
   -1.6190   17.9490   -5.6320 P   0  0  0  0  0  0  0  0  0  0  0  0
   -2.1620   19.1320   -4.6380 O   0  0  0  0  0  0  0  0  0  0  0  0
   -2.6060   17.5770   -6.9210 O   0  0  0  0  0  0  0  0  0  0  0  0
   -0.9350   19.0580   -6.3650 O   0  0  0  0  0  0  0  0  0  0  0  0
   -0.8480   19.4440   -7.8020 P   0  0  0  0  0  0  0  0  0  0  0  0
   -1.0040   21.0500   -7.4540 O   0  0  0  0  0  0  0  0  0  0  0  0
    0.6100   18.7100   -7.8670 O   0  0  0  0  0  0  0  0  0  0  0  0
   -0.5520   19.8830   -9.1790 O   0  0  0  0  0  0  0  0  0  0  0  0
  2  1  1  6
  2  3  1  0
  2  4  1  0
  4  5  1  1
  3  6  1  0
  4  7  1  0
  6  7  1  0
  7  8  1  6
  8  9  1  0
  9 10  1  0
  9 11  1  0
  9 12  1  0
 12 13  1  0
 13 14  1  0
 13 15  1  0
 13 16  1  0
M  CHG  2  10  -1  15  -1
M  END
