5CB5_0_L_β-mArh-5cms_J_9_J_α
     RDKit          3D

 16 17  0  0  0  0  0  0  0  0999 V2000
   -0.8570   21.5090   -7.3620 O   0  0  0  0  0  0  0  0  0  0  0  0
   -0.7470   19.8860   -7.7800 P   0  0  0  0  0  0  0  0  0  0  0  0
   -1.9840   18.9250   -7.2320 O   0  0  0  0  0  0  0  0  0  0  0  0
   -2.0530   21.7240   -7.9000 N   0  0  0  0  0  0  0  0  0  0  0  0
   -1.3920   20.3600   -9.1200 O   0  0  0  0  0  0  0  0  0  0  0  0
    0.4140   19.1070   -8.5420 O   0  0  0  0  0  0  0  0  0  0  0  0
   -1.6560   21.7610   -9.1720 C   0  0  1  0  0  0  0  0  0  0  0  0
   -2.8550   22.8940   -7.7820 C   0  0  0  0  0  0  0  0  0  0  0  0
   -1.7240   17.9970   -6.0240 P   0  0  0  0  0  0  0  0  0  0  0  0
   -3.8780   22.6030   -8.8320 C   0  0  2  0  0  0  0  0  0  0  0  0
   -2.9140   22.3380   -9.8760 C   0  0  1  0  0  0  0  0  0  0  0  0
   -0.1500   17.6770   -6.4050 O   0  0  0  0  0  0  0  0  0  0  0  0
   -2.8680   17.0550   -6.7170 O   0  0  0  0  0  0  0  0  0  0  0  0
   -2.0750   19.1100   -4.9190 O   0  0  0  0  0  0  0  0  0  0  0  0
   -2.7840   23.7000  -10.1360 O   0  0  0  0  0  0  0  0  0  0  0  0
   -4.6260   23.7250   -9.2490 O   0  0  0  0  0  0  0  0  0  0  0  0
  1  2  1  0
  2  3  1  0
  1  4  1  0
  2  5  1  0
  2  6  1  0
  4  7  1  0
  7  5  1  6
  4  8  1  0
  3  9  1  0
  8 10  1  0
  7 11  1  0
 10 11  1  0
  9 12  1  0
  9 13  1  0
  9 14  1  0
 11 15  1  1
 10 16  1  6
M  CHG  1  13  -1
M  END
