5CB5_0_G_Î±
     RDKit          3D

  9  9  0  0  0  0  0  0  0  0999 V2000
   -1.9160   21.7430   -8.4890 C   0  0  0  0  0  0  0  0  0  0  0  0
   -3.3270   21.9320   -9.0380 C   0  0  1  0  0  0  0  0  0  0  0  0
   -4.2750   21.0620   -8.3670 O   0  0  0  0  0  0  0  0  0  0  0  0
   -3.7770   23.3410   -8.8430 C   0  0  2  0  0  0  0  0  0  0  0  0
   -5.3880   21.8290   -7.8400 C   0  0  2  0  0  0  0  0  0  0  0  0
   -4.9800   23.3180   -7.9050 C   0  0  2  0  0  0  0  0  0  0  0  0
   -4.1870   23.7340  -10.1600 O   0  0  0  0  0  0  0  0  0  0  0  0
   -5.6770   21.3640   -6.4880 O   0  0  0  0  0  0  0  0  0  0  0  0
   -6.0430   24.1600   -8.4600 O   0  0  0  0  0  0  0  0  0  0  0  0
  2  1  1  1
  3  2  1  0
  4  2  1  0
  5  3  1  0
  6  4  1  0
  4  7  1  6
  5  8  1  1
  5  6  1  0
  6  9  1  6
M  END
