
     RDKit          3D

 36 39  0  0  0  0  0  0  0  0999 V2000
   -1.7180   18.0310   -6.4820 P   0  0  0  0  0  0  0  0  0  0  0  0
   -0.3180   19.7500   -8.2540 P   0  0  0  0  0  0  0  0  0  0  0  0
    0.2920   17.2270   -5.0300 C   0  0  0  0  0  0  0  0  0  0  0  0
   -0.4170   17.1010   -6.2630 O   0  0  0  0  0  0  0  0  0  0  0  0
    0.5970   15.8950   -4.3990 C   0  0  1  0  0  0  0  0  0  0  0  0
   -0.1150   15.9160   -3.1690 O   0  0  0  0  0  0  0  0  0  0  0  0
    0.1470   14.6000   -5.1060 C   0  0  1  0  0  0  0  0  0  0  0  0
    1.1430   13.5660   -4.9310 O   0  0  0  0  0  0  0  0  0  0  0  0
   -1.0640   14.1730   -4.3290 C   0  0  1  0  0  0  0  0  0  0  0  0
   -1.1510   12.7690   -4.2640 O   0  0  0  0  0  0  0  0  0  0  0  0
   -0.6400   14.6050   -2.9690 C   0  0  2  0  0  0  0  0  0  0  0  0
   -5.1000   21.6050   -7.4250 C   0  0  1  0  0  0  0  0  0  0  0  0
   -1.4240   15.4510    1.8560 N   0  0  0  0  0  0  0  0  0  0  0  0
   -2.6590   17.4390   -7.5150 O   0  0  0  0  0  0  0  0  0  0  0  0
    0.8980   20.5430   -7.8820 O   0  0  0  0  0  0  0  0  0  0  0  0
   -4.9920   20.7320   -6.2740 O   0  0  0  0  0  0  0  0  0  0  0  0
   -0.2800   15.2700    1.1760 C   0  0  0  0  0  0  0  0  0  0  0  0
   -4.3790   22.9530   -7.3280 C   0  0  2  0  0  0  0  0  0  0  0  0
   -2.3360   18.2990   -5.1230 O   0  0  0  0  0  0  0  0  0  0  0  0
    0.0190   18.5000   -9.0330 O   0  0  0  0  0  0  0  0  0  0  0  0
   -5.2500   24.0550   -7.0360 O   0  0  0  0  0  0  0  0  0  0  0  0
   -3.7840   23.1660   -8.7080 C   0  0  2  0  0  0  0  0  0  0  0  0
   -0.2830   15.0370   -0.1320 N   0  0  0  0  0  0  0  0  0  0  0  0
   -1.1660   19.4710   -6.9440 O   0  0  0  0  0  0  0  0  0  0  0  0
   -4.7620   23.5950   -9.6480 O   0  0  0  0  0  0  0  0  0  0  0  0
   -1.4410   14.9950   -0.7890 C   0  0  0  0  0  0  0  0  0  0  0  0
   -3.3980   21.7840   -9.0730 C   0  0  2  0  0  0  0  0  0  0  0  0
   -4.4210   20.9430   -8.5050 O   0  0  0  0  0  0  0  0  0  0  0  0
   -2.7120   15.1740   -0.1120 C   0  0  0  0  0  0  0  0  0  0  0  0
   -2.0830   21.5490   -8.4000 C   0  0  0  0  0  0  0  0  0  0  0  0
   -1.3110   20.6510   -9.1510 O   0  0  0  0  0  0  0  0  0  0  0  0
   -2.6360   15.4250    1.3010 C   0  0  0  0  0  0  0  0  0  0  0  0
   -3.7060   15.6160    2.0660 N   0  0  0  0  0  0  0  0  0  0  0  0
   -3.6760   15.0640   -1.0410 N   0  0  0  0  0  0  0  0  0  0  0  0
   -3.0460   14.8260   -2.2350 C   0  0  0  0  0  0  0  0  0  0  0  0
   -1.7080   14.7820   -2.0400 N   0  0  0  0  0  0  0  0  0  0  0  0
  1  4  1  0
  1 14  1  0
  1 19  1  0
  1 24  1  0
  4  3  1  0
 24  2  1  0
  2 15  1  0
  2 20  1  0
  2 31  1  0
 31 30  1  0
  5  3  1  6
  5  6  1  0
  5  7  1  0
  6 11  1  0
  7  8  1  1
  7  9  1  0
 11  9  1  0
 11 36  1  1
  9 10  1  1
 36 26  1  0
 36 35  1  0
 12 16  1  1
 12 18  1  0
 12 28  1  0
 18 21  1  6
 18 22  1  0
 28 27  1  0
 13 17  1  0
 13 32  1  0
 17 23  1  0
 32 29  1  0
 32 33  1  0
 23 26  1  0
 22 25  1  6
 22 27  1  0
 27 30  1  1
 26 29  1  0
 29 34  1  0
 34 35  1  0
M  CHG  2  14  -1  15  -1
M  END
