5CB5_0_C_γ-6WOJ_0_A_δ
     RDKit          3D

 17 19  0  0  0  0  0  0  0  0999 V2000
   -1.1230   12.3150   -3.7610 O   0  0  0  0  0  0  0  0  0  0  0  0
   -0.4250   13.5310   -3.5650 C   0  0  2  0  0  0  0  0  0  0  0  0
   -1.1700   14.6240   -2.8000 C   0  0  2  0  0  0  0  0  0  0  0  0
   -0.0680   14.1610   -4.9180 C   0  0  2  0  0  0  0  0  0  0  0  0
    1.2780   13.8760   -5.2540 O   0  0  0  0  0  0  0  0  0  0  0  0
   -0.5700   15.8360   -3.3390 O   0  0  0  0  0  0  0  0  0  0  0  0
   -0.4000   15.6440   -4.7510 C   0  0  1  0  0  0  0  0  0  0  0  0
   -1.1520   14.6860   -1.2320 C   0  0  1  0  0  0  0  0  0  0  0  0
   -2.7020   14.5520   -3.0640 C   0  0  0  0  0  0  0  0  0  0  0  0
    0.6210   16.6570   -5.2710 C   0  0  0  0  0  0  0  0  0  0  0  0
   -2.6470   14.9540   -0.9070 C   0  0  1  0  0  0  0  0  0  0  0  0
   -3.3410   14.0620   -1.8140 N   0  0  0  0  0  0  0  0  0  0  0  0
   -0.5830   13.6450   -0.3760 N   0  0  0  0  0  0  0  0  0  0  0  0
   -0.6200   14.0950    1.0130 C   0  0  0  0  0  0  0  0  0  0  0  0
   -2.9020   14.9920    0.6340 C   0  0  1  0  0  0  0  0  0  0  0  0
   -4.2340   14.5560    0.9880 N   0  0  0  0  0  0  0  0  0  0  0  0
   -1.9860   14.2490    1.4820 N   0  0  0  0  0  0  0  0  0  0  0  0
  2  1  1  6
  2  3  1  0
  2  4  1  0
  4  5  1  1
  3  6  1  0
  4  7  1  0
  6  7  1  0
  3  8  1  0
  3  9  1  6
  7 10  1  1
  8 11  1  0
  9 12  1  0
 11 12  1  6
  8 13  1  1
 13 14  1  0
 11 15  1  0
 15 16  1  6
 14 17  1  0
 15 17  1  0
M  END
