5CB5_0_E_β-x0950_1_A_α
     RDKit          3D

 17 16  0  0  0  0  0  0  0  0999 V2000
   -1.5800   20.6360   -8.3840 O   0  0  0  0  0  0  0  0  0  0  0  0
   -0.3660   19.7710   -8.0130 P   0  0  0  0  0  0  0  0  0  0  0  0
   -1.1060   19.6600   -6.5110 O   0  0  0  0  0  0  0  0  0  0  0  0
    0.7720   20.8790   -8.0690 O   0  0  0  0  0  0  0  0  0  0  0  0
    0.4950   18.5790   -7.5960 O   0  0  0  0  0  0  0  0  0  0  0  0
   -1.7730   18.2480   -6.0100 P   0  0  0  0  0  0  0  0  0  0  0  0
   -0.5340   17.3410   -6.1150 O   0  0  0  0  0  0  0  0  0  0  0  0
   -2.6470   17.3040   -7.0210 O   0  0  0  0  0  0  0  0  0  0  0  0
   -2.0030   17.9740   -4.4670 O   0  0  0  0  0  0  0  0  0  0  0  0
    0.1990   16.7650   -5.0680 C   0  0  0  0  0  0  0  0  0  0  0  0
    0.1710   15.2270   -5.2020 C   0  0  0  0  0  0  0  0  0  0  0  0
    1.1120   14.4970   -4.2500 C   0  0  0  0  0  0  0  0  0  0  0  0
    1.2860   12.9890   -4.5000 C   0  0  2  0  0  0  0  0  0  0  0  0
    0.4270   12.4830   -5.4480 O   0  0  0  0  0  0  0  0  0  0  0  0
    1.0420   12.3320   -3.1740 C   0  0  0  0  0  0  0  0  0  0  0  0
    0.4340   11.2330   -3.1390 O   0  0  0  0  0  0  0  0  0  0  0  0
    1.4730   12.9190   -2.0020 O   0  0  0  0  0  0  0  0  0  0  0  0
  1  2  1  0
  2  3  1  0
  2  4  1  0
  2  5  1  0
  3  6  1  0
  6  7  1  0
  6  8  1  0
  6  9  1  0
  7 10  1  0
 10 11  1  0
 11 12  1  0
 12 13  1  0
 13 14  1  6
 13 15  1  0
 15 16  2  0
 15 17  1  0
M  CHG  2   4  -1   8  -1
M  END
