5cb5_F_1_F_β-x0805_0_A_β
     RDKit          3D

 19 19  0  0  0  0  0  0  0  0999 V2000
   -1.6160   20.3710   -8.2310 O   0  0  0  0  0  0  0  0  0  0  0  0
   -0.3030   19.5710   -7.8510 P   0  0  0  0  0  0  0  0  0  0  0  0
   -0.4540   18.9540   -6.4090 O   0  0  0  0  0  0  0  0  0  0  0  0
    0.1740   18.6320   -8.8870 O   0  0  0  0  0  0  0  0  0  0  0  0
    0.7060   20.7970   -7.7080 O   0  0  0  0  0  0  0  0  0  0  0  0
   -1.7250   18.1660   -5.8940 P   0  0  2  0  0  0  0  0  0  0  0  0
   -1.2540   16.9350   -4.9740 O   0  0  0  0  0  0  0  0  0  0  0  0
   -2.7400   17.8220   -6.9040 O   0  0  0  0  0  0  0  0  0  0  0  0
   -2.2330   19.2170   -4.8110 O   0  0  0  0  0  0  0  0  0  0  0  0
    0.0760   16.9370   -4.4860 C   0  0  0  0  0  0  0  0  0  0  0  0
    0.5090   15.6280   -3.7920 C   0  0  1  0  0  0  0  0  0  0  0  0
   -0.4010   14.3930   -3.8090 C   0  0  0  0  0  0  0  0  0  0  0  0
    1.9210   15.3160   -4.3040 C   0  0  0  0  0  0  0  0  0  0  0  0
    0.6120   13.3340   -3.4060 C   0  0  1  0  0  0  0  0  0  0  0  0
    2.3220   13.9940   -4.7580 O   0  0  0  0  0  0  0  0  0  0  0  0
    0.2070   12.2560   -2.4390 C   0  0  0  0  0  0  0  0  0  0  0  0
    1.3830   12.9570   -4.6230 C   0  0  0  0  0  0  0  0  0  0  0  0
   -0.0120   11.0430   -3.0070 O   0  0  0  0  0  0  0  0  0  0  0  0
    0.1110   12.4550   -1.2420 O   0  0  0  0  0  0  0  0  0  0  0  0
  1  2  1  0
  2  3  1  0
  2  4  2  0
  2  5  1  0
  3  6  1  0
  6  7  1  0
  6  8  2  0
  6  9  1  1
  7 10  1  0
 11 10  1  6
 11 12  1  0
 11 13  1  0
 12 14  1  0
 13 15  1  0
 14 16  1  6
 14 17  1  0
 15 17  1  0
 16 18  1  0
 16 19  2  0
M  END
