5CB5_0_A_Î´
     RDKit          3D

 10 11  0  0  0  0  0  0  0  0999 V2000
   -1.9190   14.8900   -1.9350 N   0  0  0  0  0  0  0  0  0  0  0  0
   -1.6530   15.0770   -0.6430 C   0  0  0  0  0  0  0  0  0  0  0  0
   -3.2800   14.9980   -2.0940 C   0  0  0  0  0  0  0  0  0  0  0  0
   -0.4950   15.0660    0.0580 N   0  0  0  0  0  0  0  0  0  0  0  0
   -2.9530   15.3200    0.0360 C   0  0  0  0  0  0  0  0  0  0  0  0
   -3.9300   15.2630   -0.9030 N   0  0  0  0  0  0  0  0  0  0  0  0
   -0.5230   15.2730    1.3950 C   0  0  0  0  0  0  0  0  0  0  0  0
   -2.8740   15.5350    1.4910 C   0  0  0  0  0  0  0  0  0  0  0  0
   -1.6670   15.4920    2.0950 N   0  0  0  0  0  0  0  0  0  0  0  0
   -3.9640   15.7570    2.2400 N   0  0  0  0  0  0  0  0  0  0  0  0
  1  2  1  0
  1  3  1  0
  4  2  1  0
  2  5  1  0
  6  3  1  0
  7  4  1  0
  8  5  1  0
  5  6  1  0
  9  7  1  0
  9  8  1  0
  8 10  1  0
M  END
