5CB5_0_C_γ-5CB5_0_Q_δ
     RDKit          3D

 17 19  0  0  0  0  0  0  0  0999 V2000
   -1.4370   12.7860   -3.5460 O   0  0  0  0  0  0  0  0  0  0  0  0
   -0.6490   13.9620   -3.4200 C   0  0  2  0  0  0  0  0  0  0  0  0
   -1.2690   15.1740   -2.6960 C   0  0  2  0  0  0  0  0  0  0  0  0
   -0.2510   14.4780   -4.8050 C   0  0  2  0  0  0  0  0  0  0  0  0
    1.0580   14.0440   -5.1410 O   0  0  0  0  0  0  0  0  0  0  0  0
   -0.6040   16.3110   -3.3130 O   0  0  0  0  0  0  0  0  0  0  0  0
   -0.4360   15.9980   -4.7140 C   0  0  1  0  0  0  0  0  0  0  0  0
   -1.1330   15.2960   -1.1520 C   0  0  1  0  0  0  0  0  0  0  0  0
   -2.8150   15.2840   -2.8810 C   0  0  0  0  0  0  0  0  0  0  0  0
    0.6790   16.8610   -5.2990 C   0  0  0  0  0  0  0  0  0  0  0  0
   -2.5190   14.9240   -0.6250 C   0  0  2  0  0  0  0  0  0  0  0  0
   -3.4730   15.5040   -1.5700 N   0  0  0  0  0  0  0  0  0  0  0  0
   -0.1240   14.5210   -0.4340 N   0  0  0  0  0  0  0  0  0  0  0  0
   -0.1780   14.6820    1.0210 C   0  0  0  0  0  0  0  0  0  0  0  0
   -2.5050   15.4200    0.8260 C   0  0  1  0  0  0  0  0  0  0  0  0
   -3.7910   15.3430    1.4970 N   0  0  0  0  0  0  0  0  0  0  0  0
   -1.5130   14.7340    1.6070 N   0  0  0  0  0  0  0  0  0  0  0  0
  2  1  1  6
  2  3  1  0
  2  4  1  0
  4  5  1  1
  3  6  1  0
  4  7  1  0
  6  7  1  0
  3  8  1  0
  3  9  1  1
  7 10  1  1
  8 11  1  0
  9 12  1  0
 11 12  1  6
  8 13  1  1
 13 14  1  0
 11 15  1  0
 15 16  1  1
 14 17  1  0
 15 17  1  0
M  END
