5cb5_B_0_B_γ-5CB5_0_R_β
     RDKit          3D

 16 16  0  0  0  0  0  0  0  0999 V2000
   -0.5670   12.5740   -3.9110 O   0  0  0  0  0  0  0  0  0  0  0  0
   -0.8640   13.9290   -3.9280 C   0  0  1  0  0  0  0  0  0  0  0  0
   -0.2170   14.7210   -2.7940 C   0  0  0  0  0  0  0  0  0  0  0  0
   -0.2940   14.6070   -5.1270 C   0  0  2  0  0  0  0  0  0  0  0  0
    1.0350   14.1860   -5.2630 O   0  0  0  0  0  0  0  0  0  0  0  0
    0.2180   15.9300   -3.3890 O   0  0  0  0  0  0  0  0  0  0  0  0
   -0.4490   15.9790   -4.5990 C   0  0  1  0  0  0  0  0  0  0  0  0
   -0.1070   17.2030   -5.4660 C   0  0  0  0  0  0  0  0  0  0  0  0
   -1.5540   18.1460   -5.7410 P   0  0  0  0  0  0  0  0  0  0  0  0
   -1.1090   19.4150   -6.4800 O   0  0  0  0  0  0  0  0  0  0  0  0
   -2.5750   17.8570   -7.0580 O   0  0  0  0  0  0  0  0  0  0  0  0
   -2.0970   19.1160   -4.6120 O   0  0  0  0  0  0  0  0  0  0  0  0
   -0.0480   19.6190   -7.6350 P   0  0  0  0  0  0  0  0  0  0  0  0
   -1.0130   20.5210   -8.4090 O   0  0  0  0  0  0  0  0  0  0  0  0
    1.0610   20.8890   -7.6010 O   0  0  0  0  0  0  0  0  0  0  0  0
    0.0800   18.5100   -8.8330 O   0  0  0  0  0  0  0  0  0  0  0  0
  2  1  1  1
  2  3  1  0
  2  4  1  0
  4  5  1  1
  3  6  1  0
  4  7  1  0
  6  7  1  0
  7  8  1  6
  8  9  1  0
  9 10  1  0
  9 11  1  0
  9 12  1  0
 10 13  1  0
 13 14  1  0
 13 15  1  0
 13 16  1  0
M  CHG  2  11  -1  15  -1
M  END
