5CB5_0_G_Î³
     RDKit          3D

  8  8  0  0  0  0  0  0  0  0999 V2000
   -0.7470   14.8060   -3.1100 C   0  0  0  0  0  0  0  0  0  0  0  0
   -0.1410   16.0450   -3.5220 O   0  0  0  0  0  0  0  0  0  0  0  0
   -1.2430   14.0330   -4.3080 C   0  0  1  0  0  0  0  0  0  0  0  0
    0.3830   15.7820   -4.8410 C   0  0  1  0  0  0  0  0  0  0  0  0
   -0.1610   14.3980   -5.2920 C   0  0  1  0  0  0  0  0  0  0  0  0
   -1.1350   12.6410   -3.9450 O   0  0  0  0  0  0  0  0  0  0  0  0
   -0.0240   16.9340   -5.7630 C   0  0  0  0  0  0  0  0  0  0  0  0
    0.8850   13.4060   -5.1330 O   0  0  0  0  0  0  0  0  0  0  0  0
  1  2  1  1
  1  3  1  0
  4  2  1  0
  5  3  1  0
  3  6  1  1
  4  7  1  6
  4  5  1  0
  5  8  1  1
M  END
