5cb5_N_0_N_β-EU0087_0_A_α
     RDKit          3D

 22 22  0  0  0  0  0  0  0  0999 V2000
   -1.6300   20.4350   -8.2630 O   0  0  0  0  0  0  0  0  0  0  0  0
   -0.2620   19.7880   -7.7820 P   0  0  0  0  0  0  0  0  0  0  0  0
   -0.5010   19.0240   -6.4300 O   0  0  0  0  0  0  0  0  0  0  0  0
    0.8270   20.7950   -7.7550 O   0  0  0  0  0  0  0  0  0  0  0  0
    0.0090   18.6660   -8.8740 O   0  0  0  0  0  0  0  0  0  0  0  0
   -1.8670   18.4070   -5.9730 P   0  0  2  0  0  0  0  0  0  0  0  0
   -1.6870   17.5430   -4.6380 O   0  0  0  0  0  0  0  0  0  0  0  0
   -2.7350   17.8070   -6.9950 O   0  0  0  0  0  0  0  0  0  0  0  0
   -2.5860   19.6540   -5.2860 O   0  0  0  0  0  0  0  0  0  0  0  0
   -2.3280   16.2600   -4.6120 C   0  0  0  0  0  0  0  0  0  0  0  0
   -2.3540   15.6980   -3.1860 C   0  0  0  0  0  0  0  0  0  0  0  0
   -3.6670   15.0240   -2.7440 C   0  0  0  0  0  0  0  0  0  0  0  0
   -4.3010   15.6100   -1.4670 C   0  0  0  0  0  0  0  0  0  0  0  0
   -5.1310   14.6820   -0.7250 N   0  0  0  0  0  0  0  0  0  0  0  0
   -4.8860   14.2900    0.4750 C   0  0  0  0  0  0  0  0  0  0  0  0
   -3.7910   14.6500    1.2280 N   0  0  0  0  0  0  0  0  0  0  0  0
   -5.8420   13.3550    1.1870 C   0  0  0  0  0  0  0  0  0  0  0  0
   -2.4860   14.6830    0.8790 C   0  0  0  0  0  0  0  0  0  0  0  0
   -1.5490   14.5890    1.7900 N   0  0  0  0  0  0  0  0  0  0  0  0
   -1.8630   14.8380   -0.7240 S   0  0  0  0  0  0  0  0  0  0  0  0
   -0.2650   14.7700   -0.1420 C   0  0  0  0  0  0  0  0  0  0  0  0
   -0.3040   14.6370    1.2220 C   0  0  0  0  0  0  0  0  0  0  0  0
  1  2  1  0
  2  3  1  0
  2  4  2  0
  2  5  1  0
  3  6  1  0
  6  7  1  0
  6  8  2  0
  6  9  1  1
  7 10  1  0
 10 11  1  0
 11 12  1  0
 12 13  1  0
 13 14  1  0
 14 15  2  3
 15 16  1  0
 15 17  1  0
 16 18  1  0
 18 19  2  0
 18 20  1  0
 20 21  1  0
 19 22  1  0
 21 22  2  0
M  END
