5CB5_0_L_δ-3VFQ_0_A_α
     RDKit          3D

 24 26  0  0  0  0  0  0  0  0999 V2000
   -3.6720   15.5040    1.5020 N   0  0  0  0  0  0  0  0  0  0  0  0
   -2.5960   14.7400    0.9090 C   0  0  1  0  0  0  0  0  0  0  0  0
   -2.4890   14.7040   -0.6380 C   0  0  2  0  0  0  0  0  0  0  0  0
   -1.4010   15.3120    1.4640 N   0  0  0  0  0  0  0  0  0  0  0  0
   -1.1150   15.2380   -0.9810 C   0  0  2  0  0  0  0  0  0  0  0  0
   -3.2470   15.5020   -1.6140 N   0  0  0  0  0  0  0  0  0  0  0  0
   -0.1700   14.6410    1.0840 C   0  0  0  0  0  0  0  0  0  0  0  0
   -1.0750   15.0530   -2.4150 N   0  0  0  0  0  0  0  0  0  0  0  0
   -2.4780   15.0860   -2.8250 C   0  0  2  0  0  0  0  0  0  0  0  0
   -0.0660   14.5030   -0.3580 N   0  0  0  0  0  0  0  0  0  0  0  0
   -2.7400   15.9420   -4.0920 C   0  0  0  0  0  0  0  0  0  0  0  0
   -1.6590   16.9620   -4.5650 C   0  0  0  0  0  0  0  0  0  0  0  0
   -1.9680   17.7060   -5.8950 C   0  0  0  0  0  0  0  0  0  0  0  0
   -1.8370   19.2390   -5.7640 C   0  0  0  0  0  0  0  0  0  0  0  0
   -2.3470   20.0890   -6.9500 C   0  0  0  0  0  0  0  0  0  0  0  0
   -3.8760   20.2580   -6.9130 C   0  0  0  0  0  0  0  0  0  0  0  0
   -4.5750   21.0870   -7.9890 C   0  0  2  0  0  0  0  0  0  0  0  0
   -4.0130   22.3480   -8.2760 O   0  0  0  0  0  0  0  0  0  0  0  0
   -6.0380   21.3630   -7.8420 C   0  0  1  0  0  0  0  0  0  0  0  0
   -6.3310   21.7800   -6.5320 O   0  0  0  0  0  0  0  0  0  0  0  0
   -4.8130   22.6460   -9.4260 C   0  0  1  0  0  0  0  0  0  0  0  0
   -6.2380   22.4530   -8.8990 C   0  0  1  0  0  0  0  0  0  0  0  0
   -4.6210   23.9630   -9.9200 O   0  0  0  0  0  0  0  0  0  0  0  0
   -7.1620   22.0800   -9.9170 O   0  0  0  0  0  0  0  0  0  0  0  0
  2  1  1  6
  2  3  1  0
  2  4  1  0
  3  5  1  0
  3  6  1  6
  4  7  1  0
  5  8  1  6
  6  9  1  0
  8  9  1  0
  5 10  1  0
  7 10  1  0
  9 11  1  6
 11 12  1  0
 12 13  1  0
 13 14  1  0
 14 15  1  0
 15 16  1  0
 17 16  1  1
 17 18  1  0
 17 19  1  0
 19 20  1  1
 18 21  1  0
 19 22  1  0
 21 22  1  0
 21 23  1  1
 22 24  1  6
M  END
