5cb5_E_0_E_β-5CB5_0_P_γ
     RDKit          3D

 16 16  0  0  0  0  0  0  0  0999 V2000
   -1.3670   20.5130   -8.5360 O   0  0  0  0  0  0  0  0  0  0  0  0
   -0.1510   19.8430   -7.7540 P   0  0  0  0  0  0  0  0  0  0  0  0
   -0.7760   19.4220   -6.3740 O   0  0  0  0  0  0  0  0  0  0  0  0
    1.0400   20.7320   -7.6400 O   0  0  0  0  0  0  0  0  0  0  0  0
    0.0500   18.5310   -8.6480 O   0  0  0  0  0  0  0  0  0  0  0  0
   -1.5020   18.0630   -6.0670 P   0  0  2  0  0  0  0  0  0  0  0  0
   -0.3880   16.9460   -5.7320 O   0  0  0  0  0  0  0  0  0  0  0  0
   -2.6070   17.6850   -6.9750 O   0  0  0  0  0  0  0  0  0  0  0  0
   -2.0200   18.4140   -4.6120 O   0  0  0  0  0  0  0  0  0  0  0  0
   -0.7680   15.8860   -4.8500 C   0  0  2  0  0  0  0  0  0  0  0  0
   -0.2560   16.0110   -3.5180 O   0  0  0  0  0  0  0  0  0  0  0  0
   -0.3700   14.4390   -5.1920 C   0  0  1  0  0  0  0  0  0  0  0  0
    1.0390   14.1340   -5.1180 O   0  0  0  0  0  0  0  0  0  0  0  0
   -0.5710   14.7500   -2.8800 C   0  0  0  0  0  0  0  0  0  0  0  0
   -1.0310   13.8050   -3.9930 C   0  0  2  0  0  0  0  0  0  0  0  0
   -0.6190   12.4630   -3.8140 O   0  0  0  0  0  0  0  0  0  0  0  0
  1  2  1  0
  2  3  1  0
  2  4  2  0
  2  5  1  0
  3  6  1  0
  6  7  1  0
  6  8  2  0
  6  9  1  1
 10  7  1  6
 10 11  1  0
 10 12  1  0
 12 13  1  1
 11 14  1  0
 12 15  1  0
 14 15  1  0
 15 16  1  1
M  END
