5cb5_C_0_C_γ-6FX7_0_A_γ
     RDKit          3D

  8  8  0  0  0  0  0  0  0  0999 V2000
   -0.5480   12.4930   -3.7300 O   0  0  0  0  0  0  0  0  0  0  0  0
   -0.9560   13.8360   -3.9880 C   0  0  1  0  0  0  0  0  0  0  0  0
   -0.6340   14.7520   -2.8140 C   0  0  0  0  0  0  0  0  0  0  0  0
   -0.1030   14.4210   -5.0890 C   0  0  2  0  0  0  0  0  0  0  0  0
    1.1980   13.8570   -5.0650 O   0  0  0  0  0  0  0  0  0  0  0  0
   -0.0600   15.9680   -3.3460 O   0  0  0  0  0  0  0  0  0  0  0  0
   -0.2190   15.9130   -4.7660 C   0  0  1  0  0  0  0  0  0  0  0  0
    0.7470   16.8810   -5.4280 C   0  0  0  0  0  0  0  0  0  0  0  0
  2  1  1  1
  2  3  1  0
  2  4  1  0
  4  5  1  1
  3  6  1  0
  4  7  1  0
  6  7  1  0
  7  8  1  6
M  END
