5CB5_0_L_δ-mArh-5cms_C_2_C_γ
     RDKit          3D

 17 19  0  0  0  0  0  0  0  0999 V2000
   -3.6620   15.4540    1.5910 N   0  0  0  0  0  0  0  0  0  0  0  0
   -2.5880   14.8150    0.8520 C   0  0  1  0  0  0  0  0  0  0  0  0
   -2.4790   15.2620   -0.6120 C   0  0  1  0  0  0  0  0  0  0  0  0
   -1.3770   15.1890    1.5300 N   0  0  0  0  0  0  0  0  0  0  0  0
   -1.3470   14.4390   -1.2190 C   0  0  1  0  0  0  0  0  0  0  0  0
   -3.6070   15.0790   -1.5260 N   0  0  0  0  0  0  0  0  0  0  0  0
   -0.1590   14.6480    0.9260 C   0  0  0  0  0  0  0  0  0  0  0  0
   -1.5160   14.7060   -2.7570 C   0  0  1  0  0  0  0  0  0  0  0  0
   -2.9340   15.3190   -2.8220 C   0  0  0  0  0  0  0  0  0  0  0  0
   -0.1200   14.8150   -0.5250 N   0  0  0  0  0  0  0  0  0  0  0  0
   -0.5090   15.6900   -3.1790 O   0  0  0  0  0  0  0  0  0  0  0  0
   -1.3600   13.5690   -3.8170 C   0  0  2  0  0  0  0  0  0  0  0  0
   -0.8190   12.3240   -3.4310 O   0  0  0  0  0  0  0  0  0  0  0  0
   -0.4870   15.6370   -4.6130 C   0  0  2  0  0  0  0  0  0  0  0  0
   -0.5270   14.1550   -4.9620 C   0  0  1  0  0  0  0  0  0  0  0  0
    0.6930   16.4050   -5.1810 C   0  0  0  0  0  0  0  0  0  0  0  0
    0.7430   13.5110   -5.0600 O   0  0  0  0  0  0  0  0  0  0  0  0
  2  1  1  1
  2  3  1  0
  2  4  1  0
  3  5  1  0
  3  6  1  6
  4  7  1  0
  5  8  1  0
  6  9  1  0
  8  9  1  1
  5 10  1  1
  7 10  1  0
  8 11  1  0
  8 12  1  0
 12 13  1  1
 11 14  1  0
 12 15  1  0
 14 15  1  0
 14 16  1  1
 15 17  1  1
M  END
