5CB5_0_Q_α-5CMS_0_K_β
     RDKit          3D

 17 17  0  0  0  0  0  0  0  0999 V2000
   -2.2710   21.0790   -7.5180 C   0  0  0  0  0  0  0  0  0  0  0  0
   -0.7460   20.3520   -8.0640 P   0  0  0  0  0  0  0  0  0  0  0  0
   -0.3860   19.4650   -6.8480 O   0  0  0  0  0  0  0  0  0  0  0  0
   -3.2100   21.7850   -8.5380 C   0  0  1  0  0  0  0  0  0  0  0  0
    0.6580   21.1270   -7.8680 O   0  0  0  0  0  0  0  0  0  0  0  0
   -0.6590   18.8290   -8.8190 O   0  0  0  0  0  0  0  0  0  0  0  0
   -4.5060   21.3060   -8.4800 O   0  0  0  0  0  0  0  0  0  0  0  0
   -3.5300   23.2670   -8.2780 C   0  0  1  0  0  0  0  0  0  0  0  0
   -4.3720   23.7680   -9.2760 O   0  0  0  0  0  0  0  0  0  0  0  0
   -1.4130   18.5720   -5.9050 P   0  0  0  0  0  0  0  0  0  0  0  0
   -5.1410   21.8880   -7.3880 C   0  0  2  0  0  0  0  0  0  0  0  0
   -4.3920   23.1120   -7.0310 C   0  0  2  0  0  0  0  0  0  0  0  0
   -5.1830   21.1360   -6.2240 O   0  0  0  0  0  0  0  0  0  0  0  0
   -5.2940   24.1930   -6.9070 O   0  0  0  0  0  0  0  0  0  0  0  0
   -1.1740   16.9340   -5.6050 O   0  0  0  0  0  0  0  0  0  0  0  0
   -2.3260   18.1740   -7.0660 O   0  0  0  0  0  0  0  0  0  0  0  0
   -2.4860   19.3600   -5.0460 O   0  0  0  0  0  0  0  0  0  0  0  0
  1  2  1  0
  2  3  1  0
  4  1  1  1
  2  5  1  0
  2  6  1  0
  4  7  1  0
  4  8  1  0
  8  9  1  6
  3 10  1  0
  7 11  1  0
  8 12  1  0
 11 12  1  0
 11 13  1  1
 12 14  1  6
 10 15  1  0
 10 16  1  0
 10 17  1  0
M  CHG  2   5  -1  16  -1
M  END
