5CB5_0_M_δ-2bfq_0_A_γ
     RDKit          3D

 17 19  0  0  0  0  0  0  0  0999 V2000
   -3.8380   15.5530    1.7100 N   0  0  0  0  0  0  0  0  0  0  0  0
   -2.7690   14.9190    0.9530 C   0  0  1  0  0  0  0  0  0  0  0  0
   -2.6290   15.4280   -0.4890 C   0  0  1  0  0  0  0  0  0  0  0  0
   -1.5530   15.2060    1.6750 N   0  0  0  0  0  0  0  0  0  0  0  0
   -1.4140   14.7100   -1.0610 C   0  0  1  0  0  0  0  0  0  0  0  0
   -3.7060   15.1640   -1.4560 N   0  0  0  0  0  0  0  0  0  0  0  0
   -0.3530   14.6330    1.0790 C   0  0  0  0  0  0  0  0  0  0  0  0
   -1.4950   15.0280   -2.5750 C   0  0  1  0  0  0  0  0  0  0  0  0
   -3.0120   15.2820   -2.7660 C   0  0  0  0  0  0  0  0  0  0  0  0
   -0.2360   15.0700   -0.2930 N   0  0  0  0  0  0  0  0  0  0  0  0
   -0.7070   16.2370   -2.8690 O   0  0  0  0  0  0  0  0  0  0  0  0
   -0.9100   13.9850   -3.5610 C   0  0  1  0  0  0  0  0  0  0  0  0
   -1.7880   13.0380   -4.1310 O   0  0  0  0  0  0  0  0  0  0  0  0
   -0.4470   16.2210   -4.2840 C   0  0  2  0  0  0  0  0  0  0  0  0
   -0.1670   14.7650   -4.6490 C   0  0  1  0  0  0  0  0  0  0  0  0
    0.6560   17.1950   -4.6620 C   0  0  0  0  0  0  0  0  0  0  0  0
    1.2080   14.3950   -4.6840 O   0  0  0  0  0  0  0  0  0  0  0  0
  2  1  1  1
  2  3  1  0
  2  4  1  0
  3  5  1  0
  3  6  1  6
  4  7  1  0
  5  8  1  0
  6  9  1  0
  8  9  1  6
  5 10  1  1
  7 10  1  0
  8 11  1  0
  8 12  1  0
 12 13  1  6
 11 14  1  0
 12 15  1  0
 14 15  1  0
 14 16  1  1
 15 17  1  1
M  END
