5CB5_0_B_α-5DUS_0_A_γ
     RDKit          3D

 22 23  0  0  0  0  0  0  0  0999 V2000
   -2.0510   21.6400   -8.6720 C   0  0  0  0  0  0  0  0  0  0  0  0
   -3.3370   22.1040   -8.0320 C   0  0  2  0  0  0  0  0  0  0  0  0
   -4.3710   21.1770   -8.3500 O   0  0  0  0  0  0  0  0  0  0  0  0
   -3.9440   23.4270   -8.4580 C   0  0  1  0  0  0  0  0  0  0  0  0
   -4.1150   23.5230   -9.8810 O   0  0  0  0  0  0  0  0  0  0  0  0
   -5.4820   21.7350   -7.6720 C   0  0  2  0  0  0  0  0  0  0  0  0
   -5.3330   23.2800   -7.8340 C   0  0  1  0  0  0  0  0  0  0  0  0
   -5.4380   21.3890   -6.2820 O   0  0  0  0  0  0  0  0  0  0  0  0
   -5.4810   24.0260   -6.6150 O   0  0  0  0  0  0  0  0  0  0  0  0
   -4.1090   21.2360   -5.7540 C   0  0  0  0  0  0  0  0  0  0  0  0
   -3.1940   20.1940   -6.4550 C   0  0  0  0  0  0  0  0  0  0  0  0
   -2.0090   19.8090   -5.5600 C   0  0  0  0  0  0  0  0  0  0  0  0
   -1.5970   18.3230   -5.5470 C   0  0  0  0  0  0  0  0  0  0  0  0
   -0.1960   18.1010   -4.9200 C   0  0  0  0  0  0  0  0  0  0  0  0
    0.5380   16.8540   -5.4020 C   0  0  0  0  0  0  0  0  0  0  0  0
    0.7770   15.6670   -4.4380 C   0  0  1  0  0  0  0  0  0  0  0  0
    0.0920   15.8330   -3.1620 O   0  0  0  0  0  0  0  0  0  0  0  0
    0.2510   14.3410   -5.0040 C   0  0  1  0  0  0  0  0  0  0  0  0
    0.9960   13.1730   -4.7120 O   0  0  0  0  0  0  0  0  0  0  0  0
   -0.7960   14.7110   -2.9870 C   0  0  0  0  0  0  0  0  0  0  0  0
   -1.1350   14.2910   -4.3970 C   0  0  2  0  0  0  0  0  0  0  0  0
   -1.7040   13.0040   -4.5330 O   0  0  0  0  0  0  0  0  0  0  0  0
  2  1  1  6
  2  3  1  0
  2  4  1  0
  4  5  1  6
  3  6  1  0
  4  7  1  0
  6  7  1  0
  6  8  1  1
  7  9  1  1
  8 10  1  0
 10 11  1  0
 11 12  1  0
 12 13  1  0
 13 14  1  0
 14 15  1  0
 16 15  1  6
 16 17  1  0
 16 18  1  0
 18 19  1  1
 17 20  1  0
 18 21  1  0
 20 21  1  0
 21 22  1  1
M  END
