5CB5_0_D_γ-3Q6Z_0_A_β
     RDKit          3D

 16 16  0  0  0  0  0  0  0  0999 V2000
    0.4370   12.6500   -4.1070 O   0  0  0  0  0  0  0  0  0  0  0  0
   -0.3640   13.7790   -4.0050 C   0  0  1  0  0  0  0  0  0  0  0  0
    0.0320   14.6960   -2.8530 C   0  0  0  0  0  0  0  0  0  0  0  0
   -0.2040   14.6390   -5.2150 C   0  0  2  0  0  0  0  0  0  0  0  0
    1.0790   14.4010   -5.7070 O   0  0  0  0  0  0  0  0  0  0  0  0
    0.4330   15.8960   -3.4630 O   0  0  0  0  0  0  0  0  0  0  0  0
   -0.3520   15.9660   -4.5890 C   0  0  1  0  0  0  0  0  0  0  0  0
   -0.0630   17.2000   -5.4390 C   0  0  0  0  0  0  0  0  0  0  0  0
   -1.5190   18.0920   -5.7600 P   0  0  0  0  0  0  0  0  0  0  0  0
   -0.9170   19.4050   -6.2590 O   0  0  0  0  0  0  0  0  0  0  0  0
   -2.0740   19.1240   -4.5540 O   0  0  0  0  0  0  0  0  0  0  0  0
   -2.4850   17.8900   -7.0230 O   0  0  0  0  0  0  0  0  0  0  0  0
   -0.1040   19.6640   -7.5940 P   0  0  0  0  0  0  0  0  0  0  0  0
   -1.3380   20.2320   -8.3020 O   0  0  0  0  0  0  0  0  0  0  0  0
    0.0290   18.5170   -8.7940 O   0  0  0  0  0  0  0  0  0  0  0  0
    0.7660   21.0640   -7.7260 O   0  0  0  0  0  0  0  0  0  0  0  0
  2  1  1  6
  2  3  1  0
  2  4  1  0
  4  5  1  1
  3  6  1  0
  4  7  1  0
  6  7  1  0
  7  8  1  6
  8  9  1  0
  9 10  1  0
  9 11  1  0
  9 12  1  0
 10 13  1  0
 13 14  1  0
 13 15  1  0
 13 16  1  0
M  CHG  2  11  -1  15  -1
M  END
