5CB5_0_J_δ-x0591_0_A_α
     RDKit          3D

 23 25  0  0  0  0  0  0  0  0999 V2000
   -3.9570   15.4830    1.8570 N   0  0  0  0  0  0  0  0  0  0  0  0
   -2.7200   15.5170    1.1100 C   0  0  2  0  0  0  0  0  0  0  0  0
   -2.8320   14.8630   -0.2480 C   0  0  2  0  0  0  0  0  0  0  0  0
   -1.6940   14.8650    1.8410 N   0  0  0  0  0  0  0  0  0  0  0  0
   -1.4770   14.5900   -0.8510 C   0  0  2  0  0  0  0  0  0  0  0  0
   -3.4330   15.5570   -1.3440 N   0  0  0  0  0  0  0  0  0  0  0  0
   -0.4380   14.5680    1.1660 C   0  0  0  0  0  0  0  0  0  0  0  0
   -1.8830   13.9230   -2.0680 N   0  0  0  0  0  0  0  0  0  0  0  0
   -3.2340   14.5140   -2.3160 C   0  0  1  0  0  0  0  0  0  0  0  0
   -0.6540   13.7830   -0.0320 N   0  0  0  0  0  0  0  0  0  0  0  0
   -4.3630   13.6550   -1.7220 C   0  0  0  0  0  0  0  0  0  0  0  0
   -3.6350   14.9890   -3.7440 C   0  0  1  0  0  0  0  0  0  0  0  0
   -2.5440   14.5450   -5.1180 S   0  0  0  0  0  0  0  0  0  0  0  0
   -5.5650   14.6000   -1.6870 C   0  0  2  0  0  0  0  0  0  0  0  0
   -5.1180   14.7980   -4.0730 C   0  0  0  0  0  0  0  0  0  0  0  0
   -6.6430   14.4190   -0.6050 C   0  0  0  0  0  0  0  0  0  0  0  0
   -1.1620   15.4750   -4.8930 N   0  0  0  0  0  0  0  0  0  0  0  0
   -2.0970   13.1770   -4.9960 O   0  0  0  0  0  0  0  0  0  0  0  0
   -3.1170   15.0350   -6.3510 O   0  0  0  0  0  0  0  0  0  0  0  0
   -6.0340   14.6370   -3.0960 C   0  0  0  0  0  0  0  0  0  0  0  0
   -6.1870   14.0860    0.6500 N   0  0  0  0  0  0  0  0  0  0  0  0
   -7.8360   14.5720   -0.8470 O   0  0  0  0  0  0  0  0  0  0  0  0
   -6.8640   14.4530    1.8660 C   0  0  0  0  0  0  0  0  0  0  0  0
  2  1  1  1
  2  3  1  0
  2  4  1  0
  3  5  1  0
  3  6  1  6
  4  7  1  0
  5  8  1  6
  9  6  1  0
  8  9  1  0
  5 10  1  0
  7 10  1  0
  9 11  1  1
  9 12  1  0
 12 13  1  6
 11 14  1  0
 12 15  1  0
 14 16  1  1
 13 17  1  0
 13 18  2  0
 13 19  2  0
 14 20  1  0
 15 20  2  0
 16 21  1  0
 16 22  2  0
 21 23  1  0
M  END
