5CB5_0_K_β-6FX7_0_A_γ
     RDKit          3D

 16 16  0  0  0  0  0  0  0  0999 V2000
   -1.6400   20.7710   -8.2810 O   0  0  0  0  0  0  0  0  0  0  0  0
   -0.5130   19.6350   -7.8610 P   0  0  0  0  0  0  0  0  0  0  0  0
   -0.3350   19.2170   -6.2910 O   0  0  0  0  0  0  0  0  0  0  0  0
    0.5430   20.7320   -7.7100 O   0  0  0  0  0  0  0  0  0  0  0  0
    0.2070   18.7530   -8.9600 O   0  0  0  0  0  0  0  0  0  0  0  0
   -1.4990   18.1980   -5.8850 P   0  0  0  0  0  0  0  0  0  0  0  0
   -0.5690   16.9340   -5.9830 O   0  0  0  0  0  0  0  0  0  0  0  0
   -2.5190   17.4860   -7.0180 O   0  0  0  0  0  0  0  0  0  0  0  0
   -1.8940   17.9500   -4.3960 O   0  0  0  0  0  0  0  0  0  0  0  0
   -0.2590   16.0070   -4.9640 C   0  0  1  0  0  0  0  0  0  0  0  0
   -1.1580   16.0780   -3.9170 O   0  0  0  0  0  0  0  0  0  0  0  0
   -0.1990   14.5450   -5.3130 C   0  0  1  0  0  0  0  0  0  0  0  0
    1.1140   14.0390   -5.3520 O   0  0  0  0  0  0  0  0  0  0  0  0
   -0.8670   14.9890   -3.0940 C   0  0  0  0  0  0  0  0  0  0  0  0
   -0.8570   13.8550   -4.1130 C   0  0  1  0  0  0  0  0  0  0  0  0
   -2.1120   13.4420   -4.4770 O   0  0  0  0  0  0  0  0  0  0  0  0
  1  2  1  0
  2  3  1  0
  2  4  1  0
  2  5  1  0
  3  6  1  0
  6  7  1  0
  6  8  1  0
  6  9  1  0
 10  7  1  6
 10 11  1  0
 10 12  1  0
 12 13  1  1
 11 14  1  0
 12 15  1  0
 14 15  1  0
 15 16  1  6
M  CHG  2   4  -1   8  -1
M  END
