5CB5_0_G_γ-x0290_0_A_α
     RDKit          3D

 20 21  0  0  0  0  0  0  0  0999 V2000
   -0.5890   12.4700   -3.3930 O   0  0  0  0  0  0  0  0  0  0  0  0
   -1.1710   13.6900   -3.8330 C   0  0  1  0  0  0  0  0  0  0  0  0
   -1.1880   14.8560   -2.7970 C   0  0  2  0  0  0  0  0  0  0  0  0
   -0.3280   14.2690   -4.9850 C   0  0  2  0  0  0  0  0  0  0  0  0
    0.9800   13.6790   -4.9720 O   0  0  0  0  0  0  0  0  0  0  0  0
   -0.1380   15.7560   -3.2280 O   0  0  0  0  0  0  0  0  0  0  0  0
   -0.2970   15.7640   -4.6460 C   0  0  1  0  0  0  0  0  0  0  0  0
   -1.3260   14.7180   -1.2560 C   0  0  0  0  0  0  0  0  0  0  0  0
    0.7700   16.6290   -5.3030 C   0  0  0  0  0  0  0  0  0  0  0  0
   -0.2460   14.6240   -0.3560 C   0  0  0  0  0  0  0  0  0  0  0  0
   -2.6140   14.7010   -0.6720 C   0  0  0  0  0  0  0  0  0  0  0  0
   -0.5120   14.5290    1.0120 C   0  0  0  0  0  0  0  0  0  0  0  0
   -2.8010   14.6030    0.7060 C   0  0  0  0  0  0  0  0  0  0  0  0
   -4.0570   14.5830    1.3160 N   0  0  0  0  0  0  0  0  0  0  0  0
   -1.7490   14.5190    1.5630 N   0  0  0  0  0  0  0  0  0  0  0  0
   -5.3180   14.4200    0.8370 C   0  0  0  0  0  0  0  0  0  0  0  0
   -5.4780   14.5290   -0.3880 O   0  0  0  0  0  0  0  0  0  0  0  0
   -6.5280   14.0980    1.7100 C   0  0  0  0  0  0  0  0  0  0  0  0
   -7.7460   13.8000    0.9320 N   0  0  0  0  0  0  0  0  0  0  0  0
   -8.5910   14.9730    0.7430 C   0  0  0  0  0  0  0  0  0  0  0  0
  2  1  1  1
  2  3  1  0
  2  4  1  0
  4  5  1  1
  3  6  1  0
  4  7  1  0
  6  7  1  0
  3  8  1  1
  7  9  1  6
  8 10  2  0
  8 11  1  0
 10 12  1  0
 11 13  2  0
 13 14  1  0
 12 15  2  0
 13 15  1  0
 14 16  1  0
 16 17  2  0
 16 18  1  0
 18 19  1  0
 19 20  1  0
M  END
