5CB5_0_G_Î²
     RDKit          3D

  9  8  0  0  0  0  0  0  0  0999 V2000
   -1.4290   20.5800   -9.1210 O   0  0  0  0  0  0  0  0  0  0  0  0
   -0.5680   19.5590   -8.2510 P   0  0  0  0  0  0  0  0  0  0  0  0
   -1.1790   19.4700   -6.7660 O   0  0  0  0  0  0  0  0  0  0  0  0
    0.8270   20.1900   -8.0580 O   0  0  0  0  0  0  0  0  0  0  0  0
   -0.6420   18.2020   -8.9510 O   0  0  0  0  0  0  0  0  0  0  0  0
   -2.1950   18.3720   -6.1590 P   0  0  0  0  0  0  0  0  0  0  0  0
   -1.3770   17.1750   -5.4510 O   0  0  0  0  0  0  0  0  0  0  0  0
   -2.9390   17.7680   -7.3510 O   0  0  0  0  0  0  0  0  0  0  0  0
   -2.9760   19.1310   -5.0420 O   0  0  0  0  0  0  0  0  0  0  0  0
  2  1  1  0
  3  2  1  0
  2  4  1  0
  2  5  1  0
  6  3  1  0
  6  7  1  0
  6  8  1  0
  6  9  1  0
M  CHG  2   4  -1   8  -1
M  END
