5CB5_0_N_β-5CMS_0_Q_α
     RDKit          3D

 17 17  0  0  0  0  0  0  0  0999 V2000
   -1.7170   20.5340   -8.9100 O   0  0  0  0  0  0  0  0  0  0  0  0
   -0.5320   20.0530   -7.7800 P   0  0  0  0  0  0  0  0  0  0  0  0
   -0.7100   19.0690   -6.4930 O   0  0  0  0  0  0  0  0  0  0  0  0
   -1.7050   21.8840   -9.1140 N   0  0  0  0  0  0  0  0  0  0  0  0
    0.8950   20.8740   -7.8800 O   0  0  0  0  0  0  0  0  0  0  0  0
   -0.0800   18.8960   -8.6860 O   0  0  0  0  0  0  0  0  0  0  0  0
   -0.3400   22.4270   -9.0720 C   0  0  0  0  0  0  0  0  0  0  0  0
   -2.1470   22.2450  -10.4990 C   0  0  1  0  0  0  0  0  0  0  0  0
   -1.8600   18.2860   -5.9020 P   0  0  0  0  0  0  0  0  0  0  0  0
   -3.5370   22.1510  -10.6380 O   0  0  0  0  0  0  0  0  0  0  0  0
   -1.7450   23.6930  -10.4630 C   0  0  1  0  0  0  0  0  0  0  0  0
   -0.3240   23.6800   -9.9390 C   0  0  2  0  0  0  0  0  0  0  0  0
   -0.9230   17.0570   -5.3570 O   0  0  0  0  0  0  0  0  0  0  0  0
   -2.6410   18.1810   -7.3020 O   0  0  0  0  0  0  0  0  0  0  0  0
   -2.2570   19.4840   -4.8510 O   0  0  0  0  0  0  0  0  0  0  0  0
    0.6240   23.5830  -10.9610 O   0  0  0  0  0  0  0  0  0  0  0  0
   -1.8510   24.3340  -11.6870 O   0  0  0  0  0  0  0  0  0  0  0  0
  1  2  1  0
  2  3  1  0
  1  4  1  0
  2  5  1  0
  2  6  1  0
  4  7  1  0
  4  8  1  0
  3  9  1  0
  8 10  1  1
  8 11  1  0
  7 12  1  0
 11 12  1  0
  9 13  1  0
  9 14  1  0
  9 15  1  0
 12 16  1  6
 11 17  1  6
M  CHG  2   5  -1  14  -1
M  END
