5CB5_0_Q_β-5CMS_0_R_α
     RDKit          3D

 17 17  0  0  0  0  0  0  0  0999 V2000
   -1.9970   20.4160   -8.3900 O   0  0  0  0  0  0  0  0  0  0  0  0
   -0.5660   19.9760   -7.6190 P   0  0  0  0  0  0  0  0  0  0  0  0
   -0.5790   18.8950   -6.4130 O   0  0  0  0  0  0  0  0  0  0  0  0
   -1.8810   21.4700   -9.2130 N   0  0  0  0  0  0  0  0  0  0  0  0
    0.7620   20.9220   -7.8920 O   0  0  0  0  0  0  0  0  0  0  0  0
   -0.1700   18.9290   -8.6770 O   0  0  0  0  0  0  0  0  0  0  0  0
   -1.1740   22.4910   -8.4870 C   0  0  0  0  0  0  0  0  0  0  0  0
   -3.2590   21.9840   -9.4980 C   0  0  1  0  0  0  0  0  0  0  0  0
   -1.7330   18.0950   -5.8350 P   0  0  0  0  0  0  0  0  0  0  0  0
   -4.1330   21.4930   -8.5500 O   0  0  0  0  0  0  0  0  0  0  0  0
   -3.2430   23.4620   -9.3150 C   0  0  1  0  0  0  0  0  0  0  0  0
   -1.9760   23.7530   -8.5510 C   0  0  2  0  0  0  0  0  0  0  0  0
   -0.8050   16.7960   -5.4650 O   0  0  0  0  0  0  0  0  0  0  0  0
   -2.5990   18.1610   -7.2030 O   0  0  0  0  0  0  0  0  0  0  0  0
   -2.0220   19.2010   -4.6620 O   0  0  0  0  0  0  0  0  0  0  0  0
   -1.2320   24.7160   -9.1400 O   0  0  0  0  0  0  0  0  0  0  0  0
   -3.4370   24.1390  -10.5040 O   0  0  0  0  0  0  0  0  0  0  0  0
  1  2  1  0
  2  3  1  0
  1  4  1  0
  2  5  1  0
  2  6  1  0
  4  7  1  0
  4  8  1  0
  3  9  1  0
  8 10  1  1
  8 11  1  0
  7 12  1  0
 11 12  1  0
  9 13  1  0
  9 14  1  0
  9 15  1  0
 12 16  1  6
 11 17  1  6
M  CHG  2   5  -1  14  -1
M  END
