5CB5_0_O_δ-x0662_0_A_β
     RDKit          3D

 23 25  0  0  0  0  0  0  0  0999 V2000
   -4.1000   15.5050    1.7830 N   0  0  0  0  0  0  0  0  0  0  0  0
   -3.1960   14.6340    1.0310 C   0  0  1  0  0  0  0  0  0  0  0  0
   -3.1220   14.9900   -0.4440 C   0  0  1  0  0  0  0  0  0  0  0  0
   -1.9030   14.6410    1.6890 N   0  0  0  0  0  0  0  0  0  0  0  0
   -1.8450   14.3920   -0.9870 C   0  0  1  0  0  0  0  0  0  0  0  0
   -4.1090   14.4320   -1.3580 N   0  0  0  0  0  0  0  0  0  0  0  0
   -0.7020   15.1500    1.0050 C   0  0  0  0  0  0  0  0  0  0  0  0
   -1.9840   14.7570   -2.3830 N   0  0  0  0  0  0  0  0  0  0  0  0
   -3.4290   14.7440   -2.6280 C   0  0  0  0  0  0  0  0  0  0  0  0
   -0.6230   14.8960   -0.4150 N   0  0  0  0  0  0  0  0  0  0  0  0
   -1.2310   13.8510   -3.2590 C   0  0  0  0  0  0  0  0  0  0  0  0
   -1.4620   12.3300   -3.1790 C   0  0  0  0  0  0  0  0  0  0  0  0
   -0.2570   11.4480   -3.4530 C   0  0  0  0  0  0  0  0  0  0  0  0
   -0.4400   10.7900   -4.7290 N   0  0  0  0  0  0  0  0  0  0  0  0
    0.1500   11.2100   -5.7920 C   0  0  0  0  0  0  0  0  0  0  0  0
    0.9190   12.1800   -5.9350 O   0  0  0  0  0  0  0  0  0  0  0  0
    0.0070   10.5210   -7.1100 C   0  0  0  0  0  0  0  0  0  0  0  0
    0.8150   10.8640   -8.1920 C   0  0  0  0  0  0  0  0  0  0  0  0
   -0.9470    9.5130   -7.2520 C   0  0  0  0  0  0  0  0  0  0  0  0
    0.6890   10.2230   -9.4240 C   0  0  0  0  0  0  0  0  0  0  0  0
   -1.0850    8.8610   -8.4750 C   0  0  0  0  0  0  0  0  0  0  0  0
    1.5000   10.5790  -10.5090 N   0  0  0  0  0  0  0  0  0  0  0  0
   -0.2700    9.2140   -9.5580 C   0  0  0  0  0  0  0  0  0  0  0  0
  2  1  1  1
  2  3  1  0
  2  4  1  0
  3  5  1  0
  3  6  1  6
  4  7  1  0
  5  8  1  0
  6  9  1  0
  8  9  1  0
  5 10  1  1
  7 10  1  0
  8 11  1  0
 11 12  1  0
 12 13  1  0
 13 14  1  0
 14 15  2  3
 15 16  1  0
 15 17  1  0
 17 18  2  0
 17 19  1  0
 18 20  1  0
 19 21  2  0
 20 22  1  0
 20 23  2  0
 21 23  1  0
M  CHG  1  16  -1
M  END
