5CB5_0_A_β-6mea_A_0_A_α
     RDKit          3D

 17 17  0  0  0  0  0  0  0  0999 V2000
   -2.0270   21.4460   -8.7500 O   0  0  0  0  0  0  0  0  0  0  0  0
   -0.8600   20.4440   -7.9680 P   0  0  0  0  0  0  0  0  0  0  0  0
   -1.2650   19.8400   -6.5060 O   0  0  0  0  0  0  0  0  0  0  0  0
   -3.4000   21.5380   -8.2960 C   0  0  1  0  0  0  0  0  0  0  0  0
   -0.3370   21.7140   -7.3290 O   0  0  0  0  0  0  0  0  0  0  0  0
   -1.1940   19.1260   -8.6500 O   0  0  0  0  0  0  0  0  0  0  0  0
   -3.6860   21.1220   -7.0160 O   0  0  0  0  0  0  0  0  0  0  0  0
   -4.0950   22.9620   -8.3090 C   0  0  2  0  0  0  0  0  0  0  0  0
   -1.4030   18.3690   -6.0580 P   0  0  0  0  0  0  0  0  0  0  0  0
   -3.3040   23.9540   -8.7610 O   0  0  0  0  0  0  0  0  0  0  0  0
   -4.8440   21.7700   -6.6560 C   0  0  2  0  0  0  0  0  0  0  0  0
   -4.4470   23.1790   -6.8300 C   0  0  2  0  0  0  0  0  0  0  0  0
   -1.3890   16.8920   -5.6350 O   0  0  0  0  0  0  0  0  0  0  0  0
   -2.6900   18.1270   -7.0350 O   0  0  0  0  0  0  0  0  0  0  0  0
   -1.7030   18.8730   -4.5310 O   0  0  0  0  0  0  0  0  0  0  0  0
   -5.3960   21.4900   -5.4300 O   0  0  0  0  0  0  0  0  0  0  0  0
   -5.5090   24.0940   -6.7620 O   0  0  0  0  0  0  0  0  0  0  0  0
  1  2  1  0
  2  3  1  0
  4  1  1  1
  2  5  1  0
  2  6  1  0
  4  7  1  0
  4  8  1  0
  3  9  1  0
  8 10  1  1
  7 11  1  0
  8 12  1  0
 11 12  1  0
  9 13  1  0
  9 14  1  0
  9 15  1  0
 11 16  1  1
 12 17  1  6
M  CHG  2   5  -1  14  -1
M  END
