5CB5_0_B_Î±
     RDKit          3D

  9  9  0  0  0  0  0  0  0  0999 V2000
   -2.0310   21.5410   -8.4580 C   0  0  0  0  0  0  0  0  0  0  0  0
   -3.3180   21.8370   -9.1210 C   0  0  1  0  0  0  0  0  0  0  0  0
   -4.3160   20.9910   -8.5730 O   0  0  0  0  0  0  0  0  0  0  0  0
   -3.7540   23.2550   -8.8280 C   0  0  2  0  0  0  0  0  0  0  0  0
   -5.2230   21.8050   -7.7780 C   0  0  2  0  0  0  0  0  0  0  0  0
   -4.5900   23.1690   -7.5820 C   0  0  2  0  0  0  0  0  0  0  0  0
   -4.6290   23.6940   -9.8830 O   0  0  0  0  0  0  0  0  0  0  0  0
   -5.3700   21.2660   -6.4630 O   0  0  0  0  0  0  0  0  0  0  0  0
   -5.5890   24.2080   -7.4780 O   0  0  0  0  0  0  0  0  0  0  0  0
  2  1  1  1
  3  2  1  0
  4  2  1  0
  5  3  1  0
  6  4  1  0
  4  7  1  6
  5  8  1  1
  5  6  1  0
  6  9  1  6
M  END
