5CB5_0_J_γ-3ew5_A_0_A_α
     RDKit          3D

 19 19  0  0  0  0  0  0  0  0999 V2000
   -1.1220   12.6430   -4.0830 O   0  0  0  0  0  0  0  0  0  0  0  0
   -0.2560   13.7420   -3.8560 C   0  0  2  0  0  0  0  0  0  0  0  0
   -0.8160   14.7620   -2.8900 C   0  0  0  0  0  0  0  0  0  0  0  0
    0.0020   14.5630   -5.1150 C   0  0  2  0  0  0  0  0  0  0  0  0
    1.2790   14.2270   -5.6250 O   0  0  0  0  0  0  0  0  0  0  0  0
   -0.1810   15.9810   -3.2530 O   0  0  0  0  0  0  0  0  0  0  0  0
   -0.2220   16.0330   -4.6770 C   0  0  1  0  0  0  0  0  0  0  0  0
    0.6660   17.1860   -5.2020 C   0  0  0  0  0  0  0  0  0  0  0  0
    0.2420   17.9560   -6.4610 C   0  0  0  0  0  0  0  0  0  0  0  0
   -0.0560   19.3200   -6.3320 O   0  0  0  0  0  0  0  0  0  0  0  0
   -0.2420   20.1060   -7.7220 P   0  0  1  0  0  0  0  0  0  0  0  0
   -1.8050   20.4520   -7.8520 O   0  0  0  0  0  0  0  0  0  0  0  0
    0.6880   21.2500   -7.9480 O   0  0  0  0  0  0  0  0  0  0  0  0
   -0.0120   18.9130   -8.7890 O   0  0  0  0  0  0  0  0  0  0  0  0
   -2.1880   21.7930   -8.1440 C   0  0  0  0  0  0  0  0  0  0  0  0
   -3.4140   22.2160   -7.3160 C   0  0  2  0  0  0  0  0  0  0  0  0
   -4.7190   22.2280   -8.1190 C   0  0  0  0  0  0  0  0  0  0  0  0
   -3.2140   23.5390   -6.7980 O   0  0  0  0  0  0  0  0  0  0  0  0
   -5.8350   22.0140   -7.2360 O   0  0  0  0  0  0  0  0  0  0  0  0
  2  1  1  6
  2  3  1  0
  2  4  1  0
  4  5  1  1
  3  6  1  0
  4  7  1  0
  6  7  1  0
  7  8  1  6
  8  9  1  0
  9 10  1  0
 10 11  1  0
 11 12  1  0
 11 13  2  0
 11 14  1  6
 12 15  1  0
 15 16  1  0
 16 17  1  0
 16 18  1  6
 17 19  1  0
M  END
