5CB5_0_Q_γ-5CB5_0_N_β
     RDKit          3D

 16 16  0  0  0  0  0  0  0  0999 V2000
   -0.7890   13.0070   -4.3010 O   0  0  0  0  0  0  0  0  0  0  0  0
   -0.7640   14.3930   -4.4250 C   0  0  1  0  0  0  0  0  0  0  0  0
   -0.4640   15.0800   -3.1280 C   0  0  0  0  0  0  0  0  0  0  0  0
    0.4090   14.8860   -5.2140 C   0  0  2  0  0  0  0  0  0  0  0  0
    1.4980   14.0900   -4.8580 O   0  0  0  0  0  0  0  0  0  0  0  0
   -0.1700   16.3770   -3.5600 O   0  0  0  0  0  0  0  0  0  0  0  0
    0.5690   16.3020   -4.7320 C   0  0  2  0  0  0  0  0  0  0  0  0
    0.1790   17.4920   -5.6690 C   0  0  0  0  0  0  0  0  0  0  0  0
   -1.4810   18.1150   -5.7300 P   0  0  0  0  0  0  0  0  0  0  0  0
   -1.3280   19.3730   -6.6050 O   0  0  0  0  0  0  0  0  0  0  0  0
   -2.5880   17.6030   -6.9140 O   0  0  0  0  0  0  0  0  0  0  0  0
   -2.0660   19.1020   -4.6190 O   0  0  0  0  0  0  0  0  0  0  0  0
   -0.2740   19.6770   -7.7610 P   0  0  0  0  0  0  0  0  0  0  0  0
   -1.3340   20.4000   -8.6050 O   0  0  0  0  0  0  0  0  0  0  0  0
    0.6260   21.0940   -7.8320 O   0  0  0  0  0  0  0  0  0  0  0  0
    0.0220   18.5180   -8.8780 O   0  0  0  0  0  0  0  0  0  0  0  0
  2  1  1  1
  2  3  1  0
  2  4  1  0
  4  5  1  1
  3  6  1  0
  4  7  1  0
  6  7  1  0
  7  8  1  6
  8  9  1  0
  9 10  1  0
  9 11  1  0
  9 12  1  0
 10 13  1  0
 13 14  1  0
 13 15  1  0
 13 16  1  0
M  CHG  2  11  -1  15  -1
M  END
