5CB5_0_E_γ-5CB5_0_B_β
     RDKit          3D

 16 16  0  0  0  0  0  0  0  0999 V2000
   -1.0060   12.6450   -4.6840 O   0  0  0  0  0  0  0  0  0  0  0  0
   -1.0890   13.7890   -3.9000 C   0  0  1  0  0  0  0  0  0  0  0  0
   -0.0940   14.5310   -2.9920 C   0  0  0  0  0  0  0  0  0  0  0  0
   -0.3250   14.5060   -4.9990 C   0  0  2  0  0  0  0  0  0  0  0  0
    1.0260   14.1660   -4.8890 O   0  0  0  0  0  0  0  0  0  0  0  0
   -0.1260   15.8950   -3.3300 O   0  0  0  0  0  0  0  0  0  0  0  0
   -0.6520   15.8860   -4.5810 C   0  0  1  0  0  0  0  0  0  0  0  0
   -0.2460   17.1150   -5.4080 C   0  0  0  0  0  0  0  0  0  0  0  0
   -1.6250   18.1620   -5.7100 P   0  0  0  0  0  0  0  0  0  0  0  0
   -1.0080   19.4200   -6.3120 O   0  0  0  0  0  0  0  0  0  0  0  0
   -2.5580   18.0730   -7.1240 O   0  0  0  0  0  0  0  0  0  0  0  0
   -2.1700   19.1220   -4.5670 O   0  0  0  0  0  0  0  0  0  0  0  0
   -0.1430   19.6350   -7.6230 P   0  0  0  0  0  0  0  0  0  0  0  0
   -1.3000   20.3300   -8.3550 O   0  0  0  0  0  0  0  0  0  0  0  0
    0.7470   21.0430   -7.8030 O   0  0  0  0  0  0  0  0  0  0  0  0
    0.0120   18.4530   -8.7500 O   0  0  0  0  0  0  0  0  0  0  0  0
  2  1  1  6
  2  3  1  0
  2  4  1  0
  4  5  1  1
  3  6  1  0
  4  7  1  0
  6  7  1  0
  7  8  1  6
  8  9  1  0
  9 10  1  0
  9 11  1  0
  9 12  1  0
 10 13  1  0
 13 14  1  0
 13 15  1  0
 13 16  1  0
M  CHG  2  11  -1  15  -1
M  END
