5CB5_0_G_α-3ew5_A_0_A_α
     RDKit          3D

 17 18  0  0  0  0  0  0  0  0999 V2000
   -2.6720   21.8490   -8.0310 C   0  0  2  0  0  0  0  0  0  0  0  0
   -2.0860   20.5260   -8.1090 O   0  0  0  0  0  0  0  0  0  0  0  0
   -0.5020   20.2470   -7.8530 P   0  0  0  0  0  0  0  0  0  0  0  0
   -3.2350   22.1420   -6.6460 C   0  0  2  0  0  0  0  0  0  0  0  0
   -3.8040   22.1110   -9.0430 C   0  0  1  0  0  0  0  0  0  0  0  0
   -4.6660   21.6790   -6.3480 C   0  0  0  0  0  0  0  0  0  0  0  0
   -3.2230   23.5470   -6.4280 O   0  0  0  0  0  0  0  0  0  0  0  0
   -5.2620   21.8910   -8.5300 C   0  0  1  0  0  0  0  0  0  0  0  0
   -3.8930   23.5310   -9.5770 C   0  0  1  0  0  0  0  0  0  0  0  0
   -4.4610   23.5920  -10.8780 O   0  0  0  0  0  0  0  0  0  0  0  0
   -5.3220   21.0360   -7.4070 O   0  0  0  0  0  0  0  0  0  0  0  0
    0.3700   21.4490   -7.9350 O   0  0  0  0  0  0  0  0  0  0  0  0
   -0.1030   19.0300   -8.8230 O   0  0  0  0  0  0  0  0  0  0  0  0
   -0.4460   19.4880   -6.4620 O   0  0  0  0  0  0  0  0  0  0  0  0
   -5.8770   23.3070   -8.3270 C   0  0  2  0  0  0  0  0  0  0  0  0
   -4.7760   24.2720   -8.6160 C   0  0  0  0  0  0  0  0  0  0  0  0
   -6.3010   23.6200   -7.0300 O   0  0  0  0  0  0  0  0  0  0  0  0
  1  2  1  1
  2  3  1  0
  1  4  1  0
  1  5  1  0
  4  6  1  0
  4  7  1  6
  5  8  1  0
  5  9  1  1
  9 10  1  6
  6 11  1  0
  8 11  1  1
  3 12  2  0
  3 13  1  0
  3 14  1  0
  8 15  1  0
  9 16  1  0
 15 16  1  0
 15 17  1  1
M  END
