5cb5_J_2_J_γ-5cb5_G_0_G_α
     RDKit          3D

 21 22  0  0  0  0  0  0  0  0999 V2000
   -0.4620   12.4270   -3.9310 O   0  0  0  0  0  0  0  0  0  0  0  0
   -0.8800   13.7720   -4.0470 C   0  0  1  0  0  0  0  0  0  0  0  0
   -0.6810   14.5670   -2.7650 C   0  0  0  0  0  0  0  0  0  0  0  0
   -0.0380   14.5510   -5.0450 C   0  0  2  0  0  0  0  0  0  0  0  0
    1.3190   14.1170   -4.9810 O   0  0  0  0  0  0  0  0  0  0  0  0
   -0.1700   15.8530   -3.1420 O   0  0  0  0  0  0  0  0  0  0  0  0
   -0.3230   15.9720   -4.5620 C   0  0  1  0  0  0  0  0  0  0  0  0
    0.5770   17.1150   -5.0260 C   0  0  0  0  0  0  0  0  0  0  0  0
    0.2120   17.7890   -6.3430 C   0  0  0  0  0  0  0  0  0  0  0  0
   -0.2860   19.2080   -6.3450 C   0  0  0  0  0  0  0  0  0  0  0  0
   -1.3870   19.4590   -7.3690 C   0  0  0  0  0  0  0  0  0  0  0  0
   -1.1490   20.6520   -8.2910 C   0  0  0  0  0  0  0  0  0  0  0  0
   -1.9940   21.8770   -7.9200 C   0  0  0  0  0  0  0  0  0  0  0  0
   -3.3320   21.9880   -8.6770 C   0  0  1  0  0  0  0  0  0  0  0  0
   -4.3040   21.1260   -8.0440 O   0  0  0  0  0  0  0  0  0  0  0  0
   -3.8840   23.4170   -8.6520 C   0  0  1  0  0  0  0  0  0  0  0  0
   -4.2830   23.9860   -9.8880 O   0  0  0  0  0  0  0  0  0  0  0  0
   -5.4300   21.8980   -7.6200 C   0  0  2  0  0  0  0  0  0  0  0  0
   -5.0770   23.3900   -7.7290 C   0  0  2  0  0  0  0  0  0  0  0  0
   -5.7340   21.6100   -6.2600 O   0  0  0  0  0  0  0  0  0  0  0  0
   -6.0980   24.1970   -8.3230 O   0  0  0  0  0  0  0  0  0  0  0  0
  2  1  1  1
  2  3  1  0
  2  4  1  0
  4  5  1  1
  3  6  1  0
  4  7  1  0
  6  7  1  0
  7  8  1  6
  8  9  1  0
  9 10  1  0
 10 11  1  0
 11 12  1  0
 12 13  1  0
 14 13  1  1
 14 15  1  0
 14 16  1  0
 16 17  1  6
 15 18  1  0
 16 19  1  0
 18 19  1  0
 18 20  1  1
 19 21  1  6
M  END
