5cb5_L_0_L_β-5cb5_J_2_J_α
     RDKit          3D

 17 17  0  0  0  0  0  0  0  0999 V2000
   -1.7370   21.2320   -8.8800 O   0  0  0  0  0  0  0  0  0  0  0  0
   -0.7170   20.3540   -7.9480 P   0  0  2  0  0  0  0  0  0  0  0  0
   -1.4140   19.9040   -6.5920 O   0  0  0  0  0  0  0  0  0  0  0  0
   -3.1250   21.6230   -8.7310 C   0  0  1  0  0  0  0  0  0  0  0  0
    0.6020   21.0230   -7.7020 O   0  0  0  0  0  0  0  0  0  0  0  0
   -0.4660   18.9650   -8.7140 O   0  0  0  0  0  0  0  0  0  0  0  0
   -3.8370   20.8810   -7.7340 O   0  0  0  0  0  0  0  0  0  0  0  0
   -3.4040   23.1220   -8.4310 C   0  0  1  0  0  0  0  0  0  0  0  0
   -1.5150   18.3730   -6.1660 P   0  0  0  0  0  0  0  0  0  0  0  0
   -3.9630   23.8680   -9.5290 O   0  0  0  0  0  0  0  0  0  0  0  0
   -4.9820   21.6650   -7.4170 C   0  0  2  0  0  0  0  0  0  0  0  0
   -4.4650   23.1010   -7.3520 C   0  0  2  0  0  0  0  0  0  0  0  0
   -0.0640   17.7410   -6.2890 O   0  0  0  0  0  0  0  0  0  0  0  0
   -2.5550   17.5710   -6.8090 O   0  0  0  0  0  0  0  0  0  0  0  0
   -1.6700   18.4450   -4.5870 O   0  0  0  0  0  0  0  0  0  0  0  0
   -5.4560   21.3260   -6.1230 O   0  0  0  0  0  0  0  0  0  0  0  0
   -5.5010   24.0180   -7.7280 O   0  0  0  0  0  0  0  0  0  0  0  0
  1  2  1  0
  2  3  1  0
  4  1  1  1
  2  5  2  0
  2  6  1  6
  4  7  1  0
  4  8  1  0
  3  9  1  0
  8 10  1  6
  7 11  1  0
  8 12  1  0
 11 12  1  0
  9 13  1  0
  9 14  2  0
  9 15  1  0
 11 16  1  1
 12 17  1  6
M  END
