5CB5_0_A_α-mArh-x0895_0_A_α
     RDKit          3D

 22 23  0  0  0  0  0  0  0  0999 V2000
   -1.8520   21.4210   -8.5970 C   0  0  0  0  0  0  0  0  0  0  0  0
   -3.1720   21.8930   -8.0460 C   0  0  2  0  0  0  0  0  0  0  0  0
   -4.2650   21.1390   -8.5360 O   0  0  0  0  0  0  0  0  0  0  0  0
   -3.7030   23.2860   -8.2690 C   0  0  1  0  0  0  0  0  0  0  0  0
   -4.1000   23.4940   -9.6370 O   0  0  0  0  0  0  0  0  0  0  0  0
   -5.2050   21.5380   -7.5700 C   0  0  2  0  0  0  0  0  0  0  0  0
   -4.9640   23.0850   -7.4330 C   0  0  2  0  0  0  0  0  0  0  0  0
   -4.7990   20.8430   -6.3730 O   0  0  0  0  0  0  0  0  0  0  0  0
   -6.0750   23.8180   -7.9950 O   0  0  0  0  0  0  0  0  0  0  0  0
   -3.6040   20.0180   -6.6600 C   0  0  0  0  0  0  0  0  0  0  0  0
   -2.6010   20.0120   -5.4860 C   0  0  0  0  0  0  0  0  0  0  0  0
   -1.7850   18.6710   -5.2050 C   0  0  0  0  0  0  0  0  0  0  0  0
   -2.3310   17.2190   -5.5080 C   0  0  0  0  0  0  0  0  0  0  0  0
   -2.1900   16.0390   -4.4510 C   0  0  0  0  0  0  0  0  0  0  0  0
   -3.3670   15.5880   -3.4890 C   0  0  0  0  0  0  0  0  0  0  0  0
   -2.8770   14.8850   -2.2880 N   0  0  0  0  0  0  0  0  0  0  0  0
   -3.2390   14.9230   -1.0220 C   0  0  0  0  0  0  0  0  0  0  0  0
   -4.2090   15.6420   -0.3660 N   0  0  0  0  0  0  0  0  0  0  0  0
   -2.6480   14.1790   -0.0770 N   0  0  0  0  0  0  0  0  0  0  0  0
   -3.8850   15.7040    1.0720 C   0  0  0  0  0  0  0  0  0  0  0  0
   -2.6240   14.8450    1.0950 C   0  0  0  0  0  0  0  0  0  0  0  0
   -1.7590   14.7310    1.9530 O   0  0  0  0  0  0  0  0  0  0  0  0
  2  1  1  6
  2  3  1  0
  2  4  1  0
  4  5  1  6
  3  6  1  0
  4  7  1  0
  6  7  1  0
  6  8  1  1
  7  9  1  6
  8 10  1  0
 10 11  1  0
 11 12  1  0
 12 13  1  0
 13 14  1  0
 14 15  1  0
 15 16  1  0
 16 17  2  3
 17 18  1  0
 17 19  1  0
 18 20  1  0
 19 21  1  0
 20 21  1  0
 21 22  2  0
M  END
