5cb5_P_0_P_γ-5mqx_0_A_α
     RDKit          3D

 21 22  0  0  0  0  0  0  0  0999 V2000
    0.9700   12.7430   -3.8450 O   0  0  0  0  0  0  0  0  0  0  0  0
    0.3350   13.9980   -3.6530 C   0  0  1  0  0  0  0  0  0  0  0  0
    1.2060   14.9970   -2.9380 C   0  0  0  0  0  0  0  0  0  0  0  0
    0.0890   14.7440   -4.9570 C   0  0  2  0  0  0  0  0  0  0  0  0
    1.1650   14.4730   -5.8400 O   0  0  0  0  0  0  0  0  0  0  0  0
    0.5780   16.2600   -3.1810 O   0  0  0  0  0  0  0  0  0  0  0  0
   -0.0330   16.2020   -4.4900 C   0  0  1  0  0  0  0  0  0  0  0  0
    0.6370   17.2890   -5.3420 C   0  0  0  0  0  0  0  0  0  0  0  0
   -0.2870   18.2810   -6.0630 C   0  0  0  0  0  0  0  0  0  0  0  0
   -1.5690   18.6490   -5.2900 C   0  0  0  0  0  0  0  0  0  0  0  0
   -2.5930   19.4120   -6.1500 C   0  0  0  0  0  0  0  0  0  0  0  0
   -3.5080   18.4250   -6.9150 C   0  0  0  0  0  0  0  0  0  0  0  0
   -5.0710   18.8090   -7.2510 C   0  0  0  0  0  0  0  0  0  0  0  0
   -5.9220   17.3910   -7.3630 C   0  0  2  0  0  0  0  0  0  0  0  0
   -5.0980   16.3400   -7.9180 O   0  0  0  0  0  0  0  0  0  0  0  0
   -7.2640   17.2970   -8.0990 C   0  0  1  0  0  0  0  0  0  0  0  0
   -7.5610   18.2950   -9.0550 O   0  0  0  0  0  0  0  0  0  0  0  0
   -5.9610   15.2830   -8.3230 C   0  0  1  0  0  0  0  0  0  0  0  0
   -7.3700   15.8440   -8.5510 C   0  0  1  0  0  0  0  0  0  0  0  0
   -5.4850   14.7100   -9.5270 O   0  0  0  0  0  0  0  0  0  0  0  0
   -8.3610   15.1670   -7.7790 O   0  0  0  0  0  0  0  0  0  0  0  0
  2  1  1  6
  2  3  1  0
  2  4  1  0
  4  5  1  6
  3  6  1  0
  4  7  1  0
  6  7  1  0
  7  8  1  6
  8  9  1  0
  9 10  1  0
 10 11  1  0
 11 12  1  0
 12 13  1  0
 14 13  1  6
 14 15  1  0
 14 16  1  0
 16 17  1  6
 15 18  1  0
 16 19  1  0
 18 19  1  0
 18 20  1  6
 19 21  1  1
M  END
