5cb5_H_0_H_α-5cms_B_1_B_α
     RDKit          3D

 17 18  0  0  0  0  0  0  0  0999 V2000
   -3.1780   21.7130   -9.3270 C   0  0  0  0  0  0  0  0  0  0  0  0
   -3.3230   22.3060   -7.9930 C   0  0  2  0  0  0  0  0  0  0  0  0
   -4.0850   21.3560   -7.2550 O   0  0  0  0  0  0  0  0  0  0  0  0
   -2.7420   22.6510  -10.3490 C   0  0  2  0  0  0  0  0  0  0  0  0
   -4.0490   23.6360   -8.0200 C   0  0  1  0  0  0  0  0  0  0  0  0
   -3.2580   23.9180  -10.0320 O   0  0  0  0  0  0  0  0  0  0  0  0
   -3.2220   22.4610  -11.7370 C   0  0  2  0  0  0  0  0  0  0  0  0
   -4.8340   23.8990   -9.2020 O   0  0  0  0  0  0  0  0  0  0  0  0
   -2.6390   21.4030  -12.4380 O   0  0  0  0  0  0  0  0  0  0  0  0
   -5.3000   21.9860   -6.9330 C   0  0  2  0  0  0  0  0  0  0  0  0
   -4.9620   23.4670   -6.8490 C   0  0  2  0  0  0  0  0  0  0  0  0
   -2.7080   24.6330  -11.1090 C   0  0  2  0  0  0  0  0  0  0  0  0
   -2.6050   23.7070  -12.2220 C   0  0  2  0  0  0  0  0  0  0  0  0
   -5.7150   21.5080   -5.6690 O   0  0  0  0  0  0  0  0  0  0  0  0
   -6.1030   24.2860   -6.9700 O   0  0  0  0  0  0  0  0  0  0  0  0
   -1.4080   25.0810  -10.7840 O   0  0  0  0  0  0  0  0  0  0  0  0
   -3.2490   24.2160  -13.3790 O   0  0  0  0  0  0  0  0  0  0  0  0
  2  1  1  6
  2  3  1  0
  4  1  1  1
  2  5  1  0
  4  6  1  0
  4  7  1  0
  5  8  1  6
  7  9  1  6
  3 10  1  0
  5 11  1  0
 10 11  1  0
  6 12  1  0
  7 13  1  0
 12 13  1  0
 10 14  1  1
 11 15  1  6
 12 16  1  1
 13 17  1  6
M  END
