5CB5_0_F_α-mArh-5cms_M_12_M_γ
     RDKit          3D

 25 26  0  0  0  0  0  0  0  0999 V2000
   -1.9190   21.4150   -8.5080 C   0  0  0  0  0  0  0  0  0  0  0  0
   -3.2450   21.6580   -9.2210 C   0  0  2  0  0  0  0  0  0  0  0  0
   -3.6380   23.0980   -9.2200 C   0  0  1  0  0  0  0  0  0  0  0  0
   -4.3420   20.9950   -8.5420 O   0  0  0  0  0  0  0  0  0  0  0  0
   -4.6750   23.4390  -10.1370 O   0  0  0  0  0  0  0  0  0  0  0  0
   -4.0120   23.1500   -7.8080 C   0  0  2  0  0  0  0  0  0  0  0  0
   -5.0060   21.9640   -7.7230 C   0  0  2  0  0  0  0  0  0  0  0  0
   -4.4890   24.4060   -7.5340 O   0  0  0  0  0  0  0  0  0  0  0  0
   -5.1190   21.3880   -6.4000 O   0  0  0  0  0  0  0  0  0  0  0  0
   -4.9270   24.4190   -6.2670 C   0  0  1  0  0  0  0  0  0  0  0  0
   -3.8420   21.1540   -5.8080 C   0  0  0  0  0  0  0  0  0  0  0  0
   -4.5000   25.7170   -5.6200 C   0  0  0  0  0  0  0  0  0  0  0  0
   -6.2670   24.3050   -6.5500 O   0  0  0  0  0  0  0  0  0  0  0  0
   -3.0490   20.0710   -6.5660 C   0  0  0  0  0  0  0  0  0  0  0  0
   -1.8160   19.5470   -5.8150 C   0  0  0  0  0  0  0  0  0  0  0  0
   -1.2320   18.1790   -6.2160 C   0  0  0  0  0  0  0  0  0  0  0  0
    0.2790   18.0120   -5.9380 C   0  0  0  0  0  0  0  0  0  0  0  0
    0.7900   16.7360   -5.2420 C   0  0  0  0  0  0  0  0  0  0  0  0
   -0.2420   15.7050   -4.7860 C   0  0  2  0  0  0  0  0  0  0  0  0
   -0.1980   15.6190   -3.3430 O   0  0  0  0  0  0  0  0  0  0  0  0
   -0.0850   14.2350   -5.1990 C   0  0  1  0  0  0  0  0  0  0  0  0
    1.1940   13.6780   -4.8550 O   0  0  0  0  0  0  0  0  0  0  0  0
   -0.8200   14.3690   -2.9790 C   0  0  0  0  0  0  0  0  0  0  0  0
   -1.1560   13.6660   -4.2950 C   0  0  2  0  0  0  0  0  0  0  0  0
   -1.0530   12.2490   -4.1810 O   0  0  0  0  0  0  0  0  0  0  0  0
  2  1  1  1
  2  3  1  0
  2  4  1  0
  3  5  1  6
  3  6  1  0
  4  7  1  0
  6  7  1  0
  6  8  1  6
  7  9  1  1
  8 10  1  0
  9 11  1  0
 10 12  1  6
 10 13  1  0
 11 14  1  0
 14 15  1  0
 15 16  1  0
 16 17  1  0
 17 18  1  0
 19 18  1  6
 19 20  1  0
 19 21  1  0
 21 22  1  1
 20 23  1  0
 21 24  1  0
 23 24  1  0
 24 25  1  1
M  END
