5CB5_0_Q_γ-5FUD_1_B_α
     RDKit          3D

 21 22  0  0  0  0  0  0  0  0999 V2000
   -1.5350   13.2290   -4.2430 O   0  0  0  0  0  0  0  0  0  0  0  0
   -0.3100   13.8850   -3.9570 C   0  0  2  0  0  0  0  0  0  0  0  0
   -0.4710   14.9960   -2.9170 C   0  0  0  0  0  0  0  0  0  0  0  0
    0.1740   14.6030   -5.1950 C   0  0  2  0  0  0  0  0  0  0  0  0
    1.5660   14.3610   -5.3080 O   0  0  0  0  0  0  0  0  0  0  0  0
    0.0340   16.2050   -3.5110 O   0  0  0  0  0  0  0  0  0  0  0  0
   -0.2260   16.0660   -4.9060 C   0  0  1  0  0  0  0  0  0  0  0  0
    0.4030   17.1440   -5.7920 C   0  0  0  0  0  0  0  0  0  0  0  0
    0.1750   18.5710   -5.3870 C   0  0  0  0  0  0  0  0  0  0  0  0
   -0.8320   19.1700   -6.2340 O   0  0  0  0  0  0  0  0  0  0  0  0
   -0.4800   19.8300   -7.6780 S   0  0  0  0  0  0  0  0  0  0  0  0
    0.6890   20.9210   -7.6690 O   0  0  0  0  0  0  0  0  0  0  0  0
   -0.1780   18.6850   -8.7650 O   0  0  0  0  0  0  0  0  0  0  0  0
   -1.9450   20.6800   -8.2280 C   0  0  0  0  0  0  0  0  0  0  0  0
   -2.1820   22.1000   -7.7820 C   0  0  0  0  0  0  0  0  0  0  0  0
   -3.6350   22.4220   -7.7860 N   0  0  0  0  0  0  0  0  0  0  0  0
   -4.2090   22.6360   -9.1350 C   0  0  0  0  0  0  0  0  0  0  0  0
   -3.9140   23.6330   -7.0030 C   0  0  0  0  0  0  0  0  0  0  0  0
   -5.7270   22.8540   -9.1000 C   0  0  0  0  0  0  0  0  0  0  0  0
   -5.4120   23.8020   -6.8970 C   0  0  0  0  0  0  0  0  0  0  0  0
   -6.1100   23.8640   -8.1550 O   0  0  0  0  0  0  0  0  0  0  0  0
  2  1  1  6
  2  3  1  0
  2  4  1  0
  4  5  1  1
  3  6  1  0
  4  7  1  0
  6  7  1  0
  7  8  1  6
  8  9  1  0
  9 10  1  0
 11 10  1  0
 11 12  1  0
 11 13  1  0
 11 14  1  0
 14 15  1  0
 15 16  1  0
 16 17  1  0
 16 18  1  0
 17 19  1  0
 18 20  1  0
 19 21  1  0
 20 21  1  0
M  END
