5cb5_I_0_I_γ-x0592_0_A_α
     RDKit          3D

 20 21  0  0  0  0  0  0  0  0999 V2000
   -0.8840   12.6140   -3.7590 O   0  0  0  0  0  0  0  0  0  0  0  0
   -0.8370   13.9810   -4.1860 C   0  0  1  0  0  0  0  0  0  0  0  0
   -1.0280   14.9730   -3.0320 C   0  0  1  0  0  0  0  0  0  0  0  0
    0.5540   14.3180   -4.7020 C   0  0  1  0  0  0  0  0  0  0  0  0
    0.6670   14.0260   -6.0750 O   0  0  0  0  0  0  0  0  0  0  0  0
   -1.2570   14.3480   -1.6350 C   0  0  0  0  0  0  0  0  0  0  0  0
    0.1490   15.8270   -2.9880 O   0  0  0  0  0  0  0  0  0  0  0  0
    0.7670   15.7740   -4.2730 C   0  0  2  0  0  0  0  0  0  0  0  0
    0.1980   16.8880   -5.1500 C   0  0  0  0  0  0  0  0  0  0  0  0
   -2.6950   14.4620   -1.4050 N   0  0  0  0  0  0  0  0  0  0  0  0
   -3.3320   14.7160   -0.3160 C   0  0  0  0  0  0  0  0  0  0  0  0
   -2.7220   14.9250    0.8920 N   0  0  0  0  0  0  0  0  0  0  0  0
   -4.7730   14.7940   -0.2970 C   0  0  0  0  0  0  0  0  0  0  0  0
   -5.6320   15.2170   -1.3400 C   0  0  0  0  0  0  0  0  0  0  0  0
   -5.6420   14.4700    0.7260 C   0  0  0  0  0  0  0  0  0  0  0  0
   -6.9210   15.1630   -1.0110 N   0  0  0  0  0  0  0  0  0  0  0  0
   -6.9020   14.7060    0.2490 N   0  0  0  0  0  0  0  0  0  0  0  0
   -8.1480   14.5100    0.9650 C   0  0  0  0  0  0  0  0  0  0  0  0
   -7.9030   14.0780    2.4010 C   0  0  0  0  0  0  0  0  0  0  0  0
   -7.1310   15.0430    3.1110 O   0  0  0  0  0  0  0  0  0  0  0  0
  2  1  1  1
  2  3  1  0
  2  4  1  0
  4  5  1  6
  3  6  1  1
  3  7  1  0
  4  8  1  0
  7  8  1  0
  8  9  1  6
  6 10  1  0
 10 11  2  3
 11 12  1  0
 11 13  1  0
 13 14  1  0
 13 15  2  0
 14 16  2  0
 15 17  1  0
 16 17  1  0
 17 18  1  0
 18 19  1  0
 19 20  1  0
M  END
