5CB5_0_Q_Î´
     RDKit          3D

 10 11  0  0  0  0  0  0  0  0999 V2000
   -1.5720   15.1260   -2.1700 N   0  0  0  0  0  0  0  0  0  0  0  0
   -1.2660   15.1610   -0.9110 C   0  0  0  0  0  0  0  0  0  0  0  0
   -2.9000   15.2190   -2.2910 C   0  0  0  0  0  0  0  0  0  0  0  0
   -0.0830   15.0870   -0.2710 N   0  0  0  0  0  0  0  0  0  0  0  0
   -2.5230   15.2600   -0.1740 C   0  0  0  0  0  0  0  0  0  0  0  0
   -3.5160   15.2920   -1.0740 N   0  0  0  0  0  0  0  0  0  0  0  0
   -0.0810   15.1330    1.0740 C   0  0  0  0  0  0  0  0  0  0  0  0
   -2.4180   15.2990    1.2800 C   0  0  0  0  0  0  0  0  0  0  0  0
   -1.1950   15.2380    1.8320 N   0  0  0  0  0  0  0  0  0  0  0  0
   -3.5120   15.3960    2.0610 N   0  0  0  0  0  0  0  0  0  0  0  0
  1  2  1  0
  1  3  1  0
  4  2  1  0
  2  5  1  0
  6  3  1  0
  7  4  1  0
  8  5  1  0
  5  6  1  0
  9  7  1  0
  9  8  1  0
  8 10  1  0
M  END
