5cb5_F_1_F_γ-5cb5_J_2_J_β
     RDKit          3D

 16 16  0  0  0  0  0  0  0  0999 V2000
   -1.6690   12.9890   -4.1900 O   0  0  0  0  0  0  0  0  0  0  0  0
   -0.4130   13.6060   -3.9810 C   0  0  2  0  0  0  0  0  0  0  0  0
   -0.3910   14.5690   -2.7870 C   0  0  0  0  0  0  0  0  0  0  0  0
   -0.0040   14.4830   -5.1500 C   0  0  2  0  0  0  0  0  0  0  0  0
    1.4200   14.3770   -5.2290 O   0  0  0  0  0  0  0  0  0  0  0  0
   -0.0310   15.8680   -3.2930 O   0  0  0  0  0  0  0  0  0  0  0  0
   -0.4990   15.8460   -4.6450 C   0  0  1  0  0  0  0  0  0  0  0  0
   -0.0330   17.1100   -5.3500 C   0  0  0  0  0  0  0  0  0  0  0  0
   -1.3530   18.2030   -5.9450 P   0  0  1  0  0  0  0  0  0  0  0  0
   -0.6480   19.4570   -6.5570 O   0  0  0  0  0  0  0  0  0  0  0  0
   -2.3900   17.5520   -6.8120 O   0  0  0  0  0  0  0  0  0  0  0  0
   -2.0020   18.9550   -4.6950 O   0  0  0  0  0  0  0  0  0  0  0  0
   -0.1790   19.9280   -7.9490 P   0  0  0  0  0  0  0  0  0  0  0  0
   -1.5120   20.4490   -8.6360 O   0  0  0  0  0  0  0  0  0  0  0  0
    0.9090   20.9220   -7.9660 O   0  0  0  0  0  0  0  0  0  0  0  0
    0.0730   18.5900   -8.7960 O   0  0  0  0  0  0  0  0  0  0  0  0
  2  1  1  6
  2  3  1  0
  2  4  1  0
  4  5  1  1
  3  6  1  0
  4  7  1  0
  6  7  1  0
  7  8  1  6
  8  9  1  0
  9 10  1  0
  9 11  2  0
  9 12  1  1
 10 13  1  0
 13 14  1  0
 13 15  2  0
 13 16  1  0
M  END
