5CB5_0_N_δ-5CB3_0_A_α
     RDKit          3D

 24 26  0  0  0  0  0  0  0  0999 V2000
   -3.7460   15.5770    1.5660 N   0  0  0  0  0  0  0  0  0  0  0  0
   -2.6710   14.8150    0.9570 C   0  0  1  0  0  0  0  0  0  0  0  0
   -2.5930   14.7650   -0.5930 C   0  0  2  0  0  0  0  0  0  0  0  0
   -1.4630   15.3800    1.4980 N   0  0  0  0  0  0  0  0  0  0  0  0
   -1.1400   14.9230   -0.9430 C   0  0  2  0  0  0  0  0  0  0  0  0
   -3.0720   15.7650   -1.5760 N   0  0  0  0  0  0  0  0  0  0  0  0
   -0.2680   14.6050    1.2240 C   0  0  0  0  0  0  0  0  0  0  0  0
   -1.2360   14.4810   -2.3050 N   0  0  0  0  0  0  0  0  0  0  0  0
   -2.2680   15.3810   -2.8090 C   0  0  2  0  0  0  0  0  0  0  0  0
   -0.2550   14.1320   -0.1450 N   0  0  0  0  0  0  0  0  0  0  0  0
   -1.5870   16.5750   -3.5540 C   0  0  0  0  0  0  0  0  0  0  0  0
   -1.3150   16.5510   -5.0720 C   0  0  0  0  0  0  0  0  0  0  0  0
   -2.1480   17.5250   -5.9660 C   0  0  0  0  0  0  0  0  0  0  0  0
   -2.0720   19.0600   -5.7000 C   0  0  0  0  0  0  0  0  0  0  0  0
   -3.0230   19.8660   -6.6290 C   0  0  0  0  0  0  0  0  0  0  0  0
   -3.9360   20.8040   -5.9850 O   0  0  0  0  0  0  0  0  0  0  0  0
   -4.7210   21.5390   -6.9540 C   0  0  2  0  0  0  0  0  0  0  0  0
   -4.4180   21.0380   -8.2520 O   0  0  0  0  0  0  0  0  0  0  0  0
   -4.3540   23.0520   -6.9560 C   0  0  2  0  0  0  0  0  0  0  0  0
   -5.4970   23.9270   -6.7890 O   0  0  0  0  0  0  0  0  0  0  0  0
   -3.4110   21.8910   -8.8010 C   0  0  1  0  0  0  0  0  0  0  0  0
   -3.7930   23.2890   -8.3670 C   0  0  1  0  0  0  0  0  0  0  0  0
   -2.0150   21.5060   -8.3150 C   0  0  0  0  0  0  0  0  0  0  0  0
   -4.7330   23.8850   -9.2680 O   0  0  0  0  0  0  0  0  0  0  0  0
  2  1  1  6
  2  3  1  0
  2  4  1  0
  3  5  1  0
  3  6  1  6
  4  7  1  0
  5  8  1  6
  6  9  1  0
  8  9  1  0
  5 10  1  0
  7 10  1  0
  9 11  1  1
 11 12  1  0
 12 13  1  0
 13 14  1  0
 14 15  1  0
 15 16  1  0
 17 16  1  1
 17 18  1  0
 17 19  1  0
 19 20  1  6
 18 21  1  0
 19 22  1  0
 21 22  1  0
 21 23  1  1
 22 24  1  6
M  END
