5CB5_0_K_γ-5CB5_0_R_α
     RDKit          3D

 21 22  0  0  0  0  0  0  0  0999 V2000
   -0.4950   12.3570   -3.9710 O   0  0  0  0  0  0  0  0  0  0  0  0
   -0.9180   13.6840   -4.2240 C   0  0  1  0  0  0  0  0  0  0  0  0
   -0.9020   14.5600   -2.9830 C   0  0  0  0  0  0  0  0  0  0  0  0
    0.0390   14.4170   -5.1480 C   0  0  2  0  0  0  0  0  0  0  0  0
    1.3770   14.0190   -4.8580 O   0  0  0  0  0  0  0  0  0  0  0  0
   -0.4070   15.8510   -3.3820 O   0  0  0  0  0  0  0  0  0  0  0  0
   -0.3300   15.8610   -4.8130 C   0  0  1  0  0  0  0  0  0  0  0  0
    0.6120   16.9910   -5.2380 C   0  0  0  0  0  0  0  0  0  0  0  0
    0.1760   17.8170   -6.4530 C   0  0  0  0  0  0  0  0  0  0  0  0
   -0.3560   19.1980   -6.2660 C   0  0  0  0  0  0  0  0  0  0  0  0
   -1.5270   19.5270   -7.1880 C   0  0  0  0  0  0  0  0  0  0  0  0
   -1.2180   20.6270   -8.2080 C   0  0  0  0  0  0  0  0  0  0  0  0
   -2.0220   21.9070   -7.9460 C   0  0  0  0  0  0  0  0  0  0  0  0
   -3.3830   21.9630   -8.6610 C   0  0  1  0  0  0  0  0  0  0  0  0
   -4.2390   20.9590   -8.0860 O   0  0  0  0  0  0  0  0  0  0  0  0
   -4.0750   23.3260   -8.5130 C   0  0  1  0  0  0  0  0  0  0  0  0
   -4.4570   23.9610   -9.7210 O   0  0  0  0  0  0  0  0  0  0  0  0
   -5.3530   21.5680   -7.4450 C   0  0  2  0  0  0  0  0  0  0  0  0
   -5.3070   23.0770   -7.6650 C   0  0  1  0  0  0  0  0  0  0  0  0
   -5.3360   21.2870   -6.0560 O   0  0  0  0  0  0  0  0  0  0  0  0
   -5.3180   23.8510   -6.4680 O   0  0  0  0  0  0  0  0  0  0  0  0
  2  1  1  1
  2  3  1  0
  2  4  1  0
  4  5  1  1
  3  6  1  0
  4  7  1  0
  6  7  1  0
  7  8  1  1
  8  9  1  0
  9 10  1  0
 10 11  1  0
 11 12  1  0
 12 13  1  0
 14 13  1  1
 14 15  1  0
 14 16  1  0
 16 17  1  6
 15 18  1  0
 16 19  1  0
 18 19  1  0
 18 20  1  1
 19 21  1  1
M  END
