5cb5_M_1_M_α-EU0034_0_A_α
     RDKit          3D

 27 29  0  0  0  0  0  0  0  0999 V2000
   -1.8610   21.5700   -8.2760 C   0  0  0  0  0  0  0  0  0  0  0  0
   -3.2390   21.8570   -8.8730 C   0  0  2  0  0  0  0  0  0  0  0  0
   -3.8070   23.2170   -8.4990 C   0  0  1  0  0  0  0  0  0  0  0  0
   -4.2190   20.8790   -8.4350 O   0  0  0  0  0  0  0  0  0  0  0  0
   -4.0380   24.0820   -9.5950 O   0  0  0  0  0  0  0  0  0  0  0  0
   -5.1290   22.7770   -8.0030 C   0  0  1  0  0  0  0  0  0  0  0  0
   -4.9360   21.4010   -7.3480 C   0  0  2  0  0  0  0  0  0  0  0  0
   -5.9840   23.8370   -7.5420 O   0  0  0  0  0  0  0  0  0  0  0  0
   -4.0430   21.1260   -6.2600 O   0  0  0  0  0  0  0  0  0  0  0  0
   -6.9720   23.7500   -8.4980 C   0  0  0  0  0  0  0  0  0  0  0  0
   -3.2120   19.9610   -6.6170 C   0  0  0  0  0  0  0  0  0  0  0  0
   -7.7790   24.9490   -8.8950 C   0  0  0  0  0  0  0  0  0  0  0  0
   -7.2320   22.6810   -8.9990 O   0  0  0  0  0  0  0  0  0  0  0  0
   -2.2220   19.4280   -5.5410 C   0  0  0  0  0  0  0  0  0  0  0  0
   -1.6980   17.9260   -5.5910 C   0  0  0  0  0  0  0  0  0  0  0  0
   -2.4640   16.6390   -5.0660 C   0  0  0  0  0  0  0  0  0  0  0  0
   -2.2200   16.0570   -3.6310 C   0  0  0  0  0  0  0  0  0  0  0  0
   -3.3580   15.2530   -2.8950 C   0  0  0  0  0  0  0  0  0  0  0  0
   -3.3440   15.4910   -1.3470 C   0  0  2  0  0  0  0  0  0  0  0  0
   -2.1160   15.0740   -0.6480 C   0  0  0  0  0  0  0  0  0  0  0  0
   -4.3450   14.8170   -0.3530 C   0  0  0  0  0  0  0  0  0  0  0  0
   -2.3910   14.8820    0.6970 C   0  0  0  0  0  0  0  0  0  0  0  0
   -0.8510   14.8670   -1.0760 C   0  0  0  0  0  0  0  0  0  0  0  0
   -3.7620   15.1130    0.9820 N   0  0  0  0  0  0  0  0  0  0  0  0
    0.1130   14.4920   -0.2320 N   0  0  0  0  0  0  0  0  0  0  0  0
   -1.4850   14.5230    1.5910 N   0  0  0  0  0  0  0  0  0  0  0  0
   -0.2700   14.3450    1.0660 C   0  0  0  0  0  0  0  0  0  0  0  0
  2  1  1  1
  2  3  1  0
  2  4  1  0
  3  5  1  6
  3  6  1  0
  4  7  1  0
  6  7  1  0
  6  8  1  1
  7  9  1  1
  8 10  1  0
  9 11  1  0
 10 12  1  0
 10 13  2  0
 11 14  1  0
 14 15  1  0
 15 16  1  0
 16 17  1  0
 17 18  1  0
 19 18  1  6
 19 20  1  0
 19 21  1  0
 20 22  2  0
 20 23  1  0
 21 24  1  0
 22 24  1  0
 23 25  2  0
 22 26  1  0
 25 27  1  0
 26 27  2  0
M  END
