
     RDKit          3D

 36 39  0  0  0  0  0  0  0  0999 V2000
   -1.8510   18.2380   -6.4510 P   0  0  0  0  0  0  0  0  0  0  0  0
   -0.2890   19.5210   -8.4400 P   0  0  0  0  0  0  0  0  0  0  0  0
    0.1280   17.0820   -5.4630 C   0  0  0  0  0  0  0  0  0  0  0  0
   -1.2590   17.1200   -5.5330 O   0  0  0  0  0  0  0  0  0  0  0  0
    0.3910   15.8860   -4.6040 C   0  0  1  0  0  0  0  0  0  0  0  0
   -0.3950   16.0740   -3.4190 O   0  0  0  0  0  0  0  0  0  0  0  0
   -0.0860   14.5710   -5.2210 C   0  0  1  0  0  0  0  0  0  0  0  0
    1.0860   13.7670   -5.4170 O   0  0  0  0  0  0  0  0  0  0  0  0
   -1.0360   13.9690   -4.1770 C   0  0  1  0  0  0  0  0  0  0  0  0
   -0.7250   12.6080   -3.8990 O   0  0  0  0  0  0  0  0  0  0  0  0
   -0.7020   14.7810   -2.9510 C   0  0  2  0  0  0  0  0  0  0  0  0
   -5.1650   21.7010   -7.7730 C   0  0  1  0  0  0  0  0  0  0  0  0
   -1.5530   15.4270    1.9400 N   0  0  0  0  0  0  0  0  0  0  0  0
   -2.6230   17.5270   -7.5470 O   0  0  0  0  0  0  0  0  0  0  0  0
    0.9300   20.4640   -8.3670 O   0  0  0  0  0  0  0  0  0  0  0  0
   -5.3250   20.9730   -6.5500 O   0  0  0  0  0  0  0  0  0  0  0  0
   -0.4040   15.3340    1.2560 C   0  0  0  0  0  0  0  0  0  0  0  0
   -4.6910   23.1000   -7.5220 C   0  0  2  0  0  0  0  0  0  0  0  0
   -2.5720   19.1630   -5.4740 O   0  0  0  0  0  0  0  0  0  0  0  0
    0.0420   18.2600   -9.2300 O   0  0  0  0  0  0  0  0  0  0  0  0
   -5.7470   24.0850   -7.5790 O   0  0  0  0  0  0  0  0  0  0  0  0
   -3.7350   23.3160   -8.6690 C   0  0  2  0  0  0  0  0  0  0  0  0
   -0.3780   15.1970   -0.0570 N   0  0  0  0  0  0  0  0  0  0  0  0
   -0.6160   19.1380   -6.9160 O   0  0  0  0  0  0  0  0  0  0  0  0
   -4.5130   23.8040   -9.7330 O   0  0  0  0  0  0  0  0  0  0  0  0
   -1.5430   15.0930   -0.7380 C   0  0  0  0  0  0  0  0  0  0  0  0
   -3.2640   21.9880   -9.1420 C   0  0  2  0  0  0  0  0  0  0  0  0
   -4.0870   21.0830   -8.4410 O   0  0  0  0  0  0  0  0  0  0  0  0
   -2.8490   15.1900   -0.0840 C   0  0  1  0  0  0  0  0  0  0  0  0
   -1.8340   21.6600   -8.7230 C   0  0  0  0  0  0  0  0  0  0  0  0
   -1.6550   20.2540   -8.9740 O   0  0  0  0  0  0  0  0  0  0  0  0
   -2.7740   15.3990    1.3680 C   0  0  0  0  0  0  0  0  0  0  0  0
   -3.8630   15.5480    2.1640 N   0  0  0  0  0  0  0  0  0  0  0  0
   -3.7940   15.1130   -1.0530 N   0  0  0  0  0  0  0  0  0  0  0  0
   -3.1420   14.9470   -2.2520 C   0  0  0  0  0  0  0  0  0  0  0  0
   -1.8030   14.9240   -2.0240 N   0  0  0  0  0  0  0  0  0  0  0  0
  1  4  1  0
  1 14  1  0
  1 19  1  0
  1 24  1  0
  4  3  1  0
 24  2  1  0
  2 15  1  0
  2 20  1  0
  2 31  1  0
 31 30  1  0
  5  3  1  6
  5  6  1  0
  5  7  1  0
  6 11  1  0
  7  8  1  1
  7  9  1  0
 11  9  1  0
 11 36  1  1
  9 10  1  1
 36 26  1  0
 36 35  1  0
 12 16  1  1
 12 18  1  0
 12 28  1  0
 18 21  1  6
 18 22  1  0
 28 27  1  0
 13 17  1  0
 13 32  1  0
 17 23  1  0
 32 29  1  0
 32 33  1  0
 23 26  1  0
 22 25  1  6
 22 27  1  0
 27 30  1  1
 26 29  1  0
 29 34  1  6
 34 35  1  0
M  CHG  2  14  -1  15  -1
M  END
