5cb5_R_0_R_α-3EW5_0_C_α
     RDKit          3D

 15 16  0  0  0  0  0  0  0  0999 V2000
   -2.0070   20.6230   -7.8750 C   0  0  2  0  0  0  0  0  0  0  0  0
   -0.6150   19.6170   -7.5440 P   0  0  0  0  0  0  0  0  0  0  0  0
    0.4870   20.6860   -7.5900 O   0  0  0  0  0  0  0  0  0  0  0  0
   -1.7880   22.0810   -7.7690 C   0  0  0  0  0  0  0  0  0  0  0  0
   -3.2440   20.2950   -7.1390 C   0  0  0  0  0  0  0  0  0  0  0  0
    0.2110   18.8840   -8.8290 O   0  0  0  0  0  0  0  0  0  0  0  0
   -0.3470   19.0580   -6.0770 O   0  0  0  0  0  0  0  0  0  0  0  0
   -3.1180   22.6850   -8.0950 C   0  0  1  0  0  0  0  0  0  0  0  0
   -4.3110   21.0500   -7.2200 O   0  0  0  0  0  0  0  0  0  0  0  0
   -3.8470   22.1070   -9.2510 C   0  0  0  0  0  0  0  0  0  0  0  0
   -4.0830   22.3430   -7.0300 C   0  0  2  0  0  0  0  0  0  0  0  0
   -4.7120   23.0160   -9.7320 O   0  0  0  0  0  0  0  0  0  0  0  0
   -5.3000   23.1370   -7.3760 C   0  0  1  0  0  0  0  0  0  0  0  0
   -5.4920   24.1300   -6.4180 O   0  0  0  0  0  0  0  0  0  0  0  0
   -5.0640   23.8230   -8.7020 C   0  0  0  0  0  0  0  0  0  0  0  0
  1  2  1  1
  2  3  1  0
  1  4  1  0
  1  5  1  0
  2  6  1  0
  2  7  1  0
  8  4  1  1
  5  9  1  0
  8 10  1  0
  8 11  1  0
 11  9  1  6
 10 12  1  0
 11 13  1  0
 13 14  1  1
 12 15  1  0
 13 15  1  0
M  CHG  1   6  -1
M  END
