5cb5_P_0_P_α-5CB3_0_A_δ
     RDKit          3D

 24 26  0  0  0  0  0  0  0  0999 V2000
   -2.1660   21.3990   -8.9800 C   0  0  0  0  0  0  0  0  0  0  0  0
   -3.1440   21.9610   -8.0310 C   0  0  2  0  0  0  0  0  0  0  0  0
   -4.3930   21.3520   -8.1240 O   0  0  0  0  0  0  0  0  0  0  0  0
   -3.5350   23.4130   -7.9910 C   0  0  1  0  0  0  0  0  0  0  0  0
   -4.3150   23.8910   -9.1000 O   0  0  0  0  0  0  0  0  0  0  0  0
   -4.7640   21.6870   -6.8040 C   0  0  2  0  0  0  0  0  0  0  0  0
   -4.3760   23.2110   -6.7140 C   0  0  2  0  0  0  0  0  0  0  0  0
   -3.9990   20.8350   -5.8890 O   0  0  0  0  0  0  0  0  0  0  0  0
   -5.5420   24.0680   -6.7620 O   0  0  0  0  0  0  0  0  0  0  0  0
   -2.9300   19.9560   -6.4260 C   0  0  0  0  0  0  0  0  0  0  0  0
   -1.9550   19.3010   -5.4190 C   0  0  0  0  0  0  0  0  0  0  0  0
   -1.9150   17.7460   -5.2470 C   0  0  0  0  0  0  0  0  0  0  0  0
   -0.7830   17.3510   -4.2690 C   0  0  0  0  0  0  0  0  0  0  0  0
   -0.9530   16.2710   -3.1300 C   0  0  0  0  0  0  0  0  0  0  0  0
   -2.2530   15.5000   -2.7000 C   0  0  1  0  0  0  0  0  0  0  0  0
   -1.8700   14.1600   -2.2990 N   0  0  0  0  0  0  0  0  0  0  0  0
   -3.0470   16.0270   -1.5530 N   0  0  0  0  0  0  0  0  0  0  0  0
   -1.8670   14.1630   -0.8550 C   0  0  2  0  0  0  0  0  0  0  0  0
   -3.1020   14.9650   -0.5130 C   0  0  1  0  0  0  0  0  0  0  0  0
   -0.6060   14.6070   -0.3240 N   0  0  0  0  0  0  0  0  0  0  0  0
   -3.0210   15.4680    0.9470 C   0  0  1  0  0  0  0  0  0  0  0  0
   -4.2720   15.2980    1.6620 N   0  0  0  0  0  0  0  0  0  0  0  0
   -0.6710   15.1280    1.0170 C   0  0  0  0  0  0  0  0  0  0  0  0
   -1.9460   14.8150    1.6500 N   0  0  0  0  0  0  0  0  0  0  0  0
  2  1  1  6
  2  3  1  0
  2  4  1  0
  4  5  1  6
  3  6  1  0
  4  7  1  0
  6  7  1  0
  6  8  1  1
  7  9  1  6
  8 10  1  0
 10 11  1  0
 11 12  1  0
 12 13  1  0
 13 14  1  0
 15 14  1  1
 15 16  1  0
 15 17  1  0
 18 16  1  6
 19 17  1  6
 18 19  1  0
 18 20  1  0
 19 21  1  0
 21 22  1  1
 20 23  1  0
 21 24  1  0
 23 24  1  0
M  END
