5CB5_0_H_Î²
     RDKit          3D

  9  8  0  0  0  0  0  0  0  0999 V2000
   -1.3390   20.6820   -9.0490 O   0  0  0  0  0  0  0  0  0  0  0  0
   -0.3870   19.7210   -8.1780 P   0  0  0  0  0  0  0  0  0  0  0  0
   -1.2310   19.5210   -6.8220 O   0  0  0  0  0  0  0  0  0  0  0  0
    0.9290   20.4450   -7.8000 O   0  0  0  0  0  0  0  0  0  0  0  0
   -0.2100   18.4710   -9.0560 O   0  0  0  0  0  0  0  0  0  0  0  0
   -1.9980   18.1580   -6.4750 P   0  0  0  0  0  0  0  0  0  0  0  0
   -0.8070   17.0750   -6.2980 O   0  0  0  0  0  0  0  0  0  0  0  0
   -2.8410   17.8140   -7.7080 O   0  0  0  0  0  0  0  0  0  0  0  0
   -2.6790   18.3440   -5.0810 O   0  0  0  0  0  0  0  0  0  0  0  0
  2  1  1  0
  3  2  1  0
  2  4  1  0
  2  5  1  0
  6  3  1  0
  6  7  1  0
  6  8  1  0
  6  9  1  0
M  CHG  2   4  -1   8  -1
M  END
