5cb5_O_0_O_β-2FAV_0_B_γ
     RDKit          3D

 18 18  0  0  0  0  0  0  0  0999 V2000
   -1.5890   20.6040   -8.5660 O   0  0  0  0  0  0  0  0  0  0  0  0
   -0.2580   19.9830   -7.9640 P   0  0  0  0  0  0  0  0  0  0  0  0
   -0.5550   19.4340   -6.5430 O   0  0  0  0  0  0  0  0  0  0  0  0
    0.8340   20.9890   -7.9800 O   0  0  0  0  0  0  0  0  0  0  0  0
   -0.0100   18.7160   -8.8900 O   0  0  0  0  0  0  0  0  0  0  0  0
   -1.7050   18.4860   -6.0830 P   0  0  2  0  0  0  0  0  0  0  0  0
   -0.9630   17.4930   -5.1150 O   0  0  0  0  0  0  0  0  0  0  0  0
   -2.6010   17.8670   -7.0780 O   0  0  0  0  0  0  0  0  0  0  0  0
   -2.4270   19.4290   -5.0250 O   0  0  0  0  0  0  0  0  0  0  0  0
    0.3280   17.8950   -4.7150 C   0  0  0  0  0  0  0  0  0  0  0  0
    1.1710   16.6570   -4.6550 C   0  0  0  0  0  0  0  0  0  0  0  0
    0.3400   15.4540   -4.3560 C   0  0  2  0  0  0  0  0  0  0  0  0
    0.3340   15.1420   -2.9520 O   0  0  0  0  0  0  0  0  0  0  0  0
    0.7410   14.1580   -5.0430 C   0  0  1  0  0  0  0  0  0  0  0  0
    2.0390   13.6800   -4.6760 O   0  0  0  0  0  0  0  0  0  0  0  0
   -0.1870   13.7940   -2.9240 C   0  0  0  0  0  0  0  0  0  0  0  0
   -0.3390   13.3390   -4.3850 C   0  0  2  0  0  0  0  0  0  0  0  0
   -0.0900   11.9460   -4.5220 O   0  0  0  0  0  0  0  0  0  0  0  0
  1  2  1  0
  2  3  1  0
  2  4  2  0
  2  5  1  0
  3  6  1  0
  6  7  1  0
  6  8  2  0
  6  9  1  1
  7 10  1  0
 10 11  1  0
 12 11  1  1
 12 13  1  0
 12 14  1  0
 14 15  1  1
 13 16  1  0
 14 17  1  0
 16 17  1  0
 17 18  1  1
M  END
