5CB5_0_I_α-5CB5_0_E_β
     RDKit          3D

 17 17  0  0  0  0  0  0  0  0999 V2000
   -2.0290   21.5580   -7.5960 C   0  0  0  0  0  0  0  0  0  0  0  0
   -0.7040   20.4600   -7.9710 P   0  0  0  0  0  0  0  0  0  0  0  0
   -0.7370   19.7550   -6.6100 O   0  0  0  0  0  0  0  0  0  0  0  0
   -3.1430   21.7900   -8.6070 C   0  0  1  0  0  0  0  0  0  0  0  0
    0.8260   20.9140   -7.7210 O   0  0  0  0  0  0  0  0  0  0  0  0
   -0.9150   18.8830   -8.5870 O   0  0  0  0  0  0  0  0  0  0  0  0
   -4.2890   21.0810   -8.3310 O   0  0  0  0  0  0  0  0  0  0  0  0
   -3.7060   23.1980   -8.5680 C   0  0  1  0  0  0  0  0  0  0  0  0
   -4.6390   23.3470   -9.5880 O   0  0  0  0  0  0  0  0  0  0  0  0
   -1.4480   18.2830   -6.3290 P   0  0  0  0  0  0  0  0  0  0  0  0
   -5.0700   21.7690   -7.4150 C   0  0  2  0  0  0  0  0  0  0  0  0
   -4.4680   23.1110   -7.2530 C   0  0  2  0  0  0  0  0  0  0  0  0
   -5.1510   21.1890   -6.1530 O   0  0  0  0  0  0  0  0  0  0  0  0
   -5.4690   24.1050   -7.2600 O   0  0  0  0  0  0  0  0  0  0  0  0
   -0.6070   17.1100   -5.4820 O   0  0  0  0  0  0  0  0  0  0  0  0
   -1.9720   18.8110   -5.0320 O   0  0  0  0  0  0  0  0  0  0  0  0
   -2.8640   17.8760   -6.8970 O   0  0  0  0  0  0  0  0  0  0  0  0
  1  2  1  0
  2  3  1  0
  4  1  1  1
  2  5  1  0
  2  6  1  0
  4  7  1  0
  4  8  1  0
  8  9  1  6
  3 10  1  0
  7 11  1  0
  8 12  1  0
 11 12  1  0
 11 13  1  1
 12 14  1  6
 10 15  1  0
 10 16  1  0
 10 17  1  0
M  CHG  2   5  -1  16  -1
M  END
