5CB5_0_P_β-5CB5_0_G_β
     RDKit          3D

  9  8  0  0  0  0  0  0  0  0999 V2000
   -1.7800   20.6580   -7.8900 O   0  0  0  0  0  0  0  0  0  0  0  0
   -0.3060   19.9950   -7.9950 P   0  0  0  0  0  0  0  0  0  0  0  0
   -0.3200   19.0490   -6.8310 O   0  0  0  0  0  0  0  0  0  0  0  0
    1.0360   20.8210   -7.4820 O   0  0  0  0  0  0  0  0  0  0  0  0
   -0.0920   18.6520   -8.9660 O   0  0  0  0  0  0  0  0  0  0  0  0
   -1.6950   18.5330   -6.1390 P   0  0  0  0  0  0  0  0  0  0  0  0
   -0.9700   17.5160   -5.2710 O   0  0  0  0  0  0  0  0  0  0  0  0
   -2.6240   17.3510   -6.7760 O   0  0  0  0  0  0  0  0  0  0  0  0
   -2.2810   19.4530   -4.8980 O   0  0  0  0  0  0  0  0  0  0  0  0
  1  2  1  0
  2  3  1  0
  2  4  1  0
  2  5  1  0
  3  6  1  0
  6  7  1  0
  6  8  1  0
  6  9  1  0
M  CHG  2   4  -1   8  -1
M  END
