5CB5_0_O_β-x0591_0_A_α
     RDKit          3D

 22 22  0  0  0  0  0  0  0  0999 V2000
   -1.6360   20.3830   -8.4460 O   0  0  0  0  0  0  0  0  0  0  0  0
   -0.3990   19.7050   -7.6560 P   0  0  0  0  0  0  0  0  0  0  0  0
   -0.3810   18.2710   -6.9470 O   0  0  0  0  0  0  0  0  0  0  0  0
    1.0270   20.6830   -7.6170 O   0  0  0  0  0  0  0  0  0  0  0  0
    0.1880   18.9500   -8.8410 O   0  0  0  0  0  0  0  0  0  0  0  0
   -1.4260   17.8510   -5.7110 P   0  0  0  0  0  0  0  0  0  0  0  0
   -1.2490   16.4300   -4.9270 O   0  0  0  0  0  0  0  0  0  0  0  0
   -2.3310   19.0860   -5.1730 O   0  0  0  0  0  0  0  0  0  0  0  0
   -2.5450   17.5110   -6.6580 O   0  0  0  0  0  0  0  0  0  0  0  0
   -2.2440   15.1060   -4.9530 S   0  0  0  0  0  0  0  0  0  0  0  0
   -1.4000   13.8380   -5.0310 O   0  0  0  0  0  0  0  0  0  0  0  0
   -3.0640   15.0540   -6.2500 O   0  0  0  0  0  0  0  0  0  0  0  0
   -3.3890   14.9190   -3.6330 C   0  0  0  0  0  0  0  0  0  0  0  0
   -3.0610   14.7540   -2.2830 C   0  0  0  0  0  0  0  0  0  0  0  0
   -4.7120   14.9320   -3.9150 C   0  0  0  0  0  0  0  0  0  0  0  0
   -4.0430   14.6290   -1.3000 C   0  0  0  0  0  0  0  0  0  0  0  0
   -5.6850   14.8140   -2.9580 C   0  0  0  0  0  0  0  0  0  0  0  0
   -5.3800   14.6670   -1.6480 C   0  0  0  0  0  0  0  0  0  0  0  0
   -6.5460   14.5590   -0.7010 C   0  0  0  0  0  0  0  0  0  0  0  0
   -6.4400   14.6130    0.6200 N   0  0  0  0  0  0  0  0  0  0  0  0
   -7.6080   14.4380   -1.3200 O   0  0  0  0  0  0  0  0  0  0  0  0
   -6.4540   14.6670    1.9840 C   0  0  0  0  0  0  0  0  0  0  0  0
  1  2  1  0
  2  3  1  0
  2  4  1  0
  2  5  1  0
  3  6  1  0
  6  7  1  0
  6  8  1  0
  6  9  1  0
 10  7  1  0
 10 11  2  0
 10 12  2  0
 10 13  1  0
 13 14  2  0
 13 15  1  0
 14 16  1  0
 15 17  2  0
 16 18  2  0
 17 18  1  0
 18 19  1  0
 19 20  1  0
 19 21  2  0
 20 22  1  0
M  CHG  2   4  -1   8  -1
M  END
