5CB5_0_D_γ-5cb5_E_0_E_γ
     RDKit          3D

  9  9  0  0  0  0  0  0  0  0999 V2000
    0.0390   12.4320   -4.7380 O   0  0  0  0  0  0  0  0  0  0  0  0
   -0.3710   13.7970   -4.7350 C   0  0  1  0  0  0  0  0  0  0  0  0
   -0.5350   14.3490   -3.3480 C   0  0  2  0  0  0  0  0  0  0  0  0
    0.7370   14.6660   -5.2480 C   0  0  2  0  0  0  0  0  0  0  0  0
    1.9480   13.9870   -5.0390 O   0  0  0  0  0  0  0  0  0  0  0  0
   -1.8090   13.9530   -2.9090 O   0  0  0  0  0  0  0  0  0  0  0  0
   -0.4170   15.7680   -3.4860 O   0  0  0  0  0  0  0  0  0  0  0  0
    0.6020   15.9880   -4.4790 C   0  0  2  0  0  0  0  0  0  0  0  0
    0.2480   17.1850   -5.3500 C   0  0  0  0  0  0  0  0  0  0  0  0
  2  1  1  1
  2  3  1  0
  2  4  1  0
  4  5  1  1
  3  6  1  6
  3  7  1  0
  4  8  1  0
  7  8  1  0
  8  9  1  6
M  END
