5CB5_0_G_γ-2bfq_0_A_α
     RDKit          3D

 21 22  0  0  0  0  0  0  0  0999 V2000
   -0.7080   12.5180   -3.9540 O   0  0  0  0  0  0  0  0  0  0  0  0
   -0.9860   13.8880   -4.1530 C   0  0  1  0  0  0  0  0  0  0  0  0
   -0.6660   14.7590   -2.9450 C   0  0  0  0  0  0  0  0  0  0  0  0
   -0.0770   14.5070   -5.1940 C   0  0  2  0  0  0  0  0  0  0  0  0
    1.2570   14.0520   -4.9730 O   0  0  0  0  0  0  0  0  0  0  0  0
   -0.1720   16.0120   -3.4620 O   0  0  0  0  0  0  0  0  0  0  0  0
   -0.3900   15.9740   -4.8820 C   0  0  1  0  0  0  0  0  0  0  0  0
    0.3730   17.1400   -5.5420 C   0  0  0  0  0  0  0  0  0  0  0  0
   -0.4880   18.2300   -6.2360 C   0  0  0  0  0  0  0  0  0  0  0  0
    0.0860   18.7780   -7.5580 C   0  0  0  0  0  0  0  0  0  0  0  0
   -0.1350   20.2680   -7.8760 C   0  0  0  0  0  0  0  0  0  0  0  0
   -1.5550   20.7440   -8.1570 C   0  0  0  0  0  0  0  0  0  0  0  0
   -1.7500   22.2210   -7.7860 C   0  0  0  0  0  0  0  0  0  0  0  0
   -3.1490   22.5660   -7.2760 C   0  0  2  0  0  0  0  0  0  0  0  0
   -4.1010   21.5760   -7.6190 O   0  0  0  0  0  0  0  0  0  0  0  0
   -3.8370   23.8480   -7.7470 C   0  0  1  0  0  0  0  0  0  0  0  0
   -4.0290   24.0730   -9.1300 O   0  0  0  0  0  0  0  0  0  0  0  0
   -5.2450   22.1170   -6.9630 C   0  0  1  0  0  0  0  0  0  0  0  0
   -5.2000   23.6350   -7.1590 C   0  0  1  0  0  0  0  0  0  0  0  0
   -6.4280   21.6350   -7.5500 O   0  0  0  0  0  0  0  0  0  0  0  0
   -5.4250   24.3880   -5.9980 O   0  0  0  0  0  0  0  0  0  0  0  0
  2  1  1  1
  2  3  1  0
  2  4  1  0
  4  5  1  1
  3  6  1  0
  4  7  1  0
  6  7  1  0
  7  8  1  6
  8  9  1  0
  9 10  1  0
 10 11  1  0
 11 12  1  0
 12 13  1  0
 14 13  1  6
 14 15  1  0
 14 16  1  0
 16 17  1  6
 15 18  1  0
 16 19  1  0
 18 19  1  0
 18 20  1  6
 19 21  1  1
M  END
