5CB5_0_J_δ-5CB5_0_I_β
     RDKit          3D

 21 22  0  0  0  0  0  0  0  0999 V2000
   -3.8520   15.8180    1.3760 N   0  0  0  0  0  0  0  0  0  0  0  0
   -2.7520   14.9200    1.1370 C   0  0  1  0  0  0  0  0  0  0  0  0
   -2.7510   14.3070   -0.2420 C   0  0  2  0  0  0  0  0  0  0  0  0
   -1.5210   15.6720    1.1970 N   0  0  0  0  0  0  0  0  0  0  0  0
   -1.3740   14.6180   -0.8420 C   0  0  2  0  0  0  0  0  0  0  0  0
   -3.6190   14.8070   -1.2480 N   0  0  0  0  0  0  0  0  0  0  0  0
   -0.3600   14.8350    1.1680 C   0  0  0  0  0  0  0  0  0  0  0  0
   -1.6110   14.0410   -2.0870 N   0  0  0  0  0  0  0  0  0  0  0  0
   -2.7830   14.7580   -2.4590 C   0  0  2  0  0  0  0  0  0  0  0  0
   -0.3800   14.0150   -0.0290 N   0  0  0  0  0  0  0  0  0  0  0  0
   -2.1860   16.0740   -2.7520 C   0  0  0  0  0  0  0  0  0  0  0  0
   -2.3360   16.4810   -4.1980 C   0  0  0  0  0  0  0  0  0  0  0  0
   -2.0370   17.8040   -4.3990 O   0  0  0  0  0  0  0  0  0  0  0  0
   -1.9470   18.2650   -5.9330 P   0  0  0  0  0  0  0  0  0  0  0  0
   -1.2660   19.6400   -6.5020 O   0  0  0  0  0  0  0  0  0  0  0  0
   -0.6610   17.4980   -6.2160 O   0  0  0  0  0  0  0  0  0  0  0  0
   -2.7520   17.3080   -7.0050 O   0  0  0  0  0  0  0  0  0  0  0  0
   -0.5230   19.3440   -7.7560 P   0  0  0  0  0  0  0  0  0  0  0  0
   -1.2540   20.6020   -8.5630 O   0  0  0  0  0  0  0  0  0  0  0  0
    0.9220   19.6500   -7.0560 O   0  0  0  0  0  0  0  0  0  0  0  0
    0.2080   18.8410   -8.9620 O   0  0  0  0  0  0  0  0  0  0  0  0
  2  1  1  6
  2  3  1  0
  2  4  1  0
  3  5  1  0
  3  6  1  6
  4  7  1  0
  5  8  1  6
  6  9  1  0
  8  9  1  0
  5 10  1  0
  7 10  1  0
  9 11  1  1
 11 12  1  0
 12 13  1  0
 13 14  1  0
 14 15  1  0
 14 16  1  0
 14 17  1  0
 15 18  1  0
 18 19  1  0
 18 20  1  0
 18 21  1  0
M  CHG  2  17  -1  20  -1
M  END
