
     RDKit          3D

 36 39  0  0  0  0  0  0  0  0999 V2000
   -1.8450   18.1720   -6.5860 P   0  0  0  0  0  0  0  0  0  0  0  0
   -0.5550   19.9210   -8.3320 P   0  0  0  0  0  0  0  0  0  0  0  0
    0.1400   16.7920   -5.6370 C   0  0  0  0  0  0  0  0  0  0  0  0
   -1.2420   17.0860   -5.5890 O   0  0  0  0  0  0  0  0  0  0  0  0
    0.3470   15.6840   -4.6130 C   0  0  1  0  0  0  0  0  0  0  0  0
   -0.4570   15.9130   -3.4590 O   0  0  0  0  0  0  0  0  0  0  0  0
   -0.1440   14.3330   -5.1270 C   0  0  1  0  0  0  0  0  0  0  0  0
    1.0800   13.5740   -5.1880 O   0  0  0  0  0  0  0  0  0  0  0  0
   -1.2330   13.8870   -4.1300 C   0  0  1  0  0  0  0  0  0  0  0  0
   -1.2640   12.5140   -3.7780 O   0  0  0  0  0  0  0  0  0  0  0  0
   -0.8420   14.6690   -2.9100 C   0  0  2  0  0  0  0  0  0  0  0  0
   -5.0970   21.9510   -7.3440 C   0  0  1  0  0  0  0  0  0  0  0  0
   -1.9140   15.4270    2.1320 N   0  0  0  0  0  0  0  0  0  0  0  0
   -2.7670   17.3150   -7.4810 O   0  0  0  0  0  0  0  0  0  0  0  0
    0.6970   20.8000   -8.1980 O   0  0  0  0  0  0  0  0  0  0  0  0
   -4.7200   21.1920   -6.1850 O   0  0  0  0  0  0  0  0  0  0  0  0
   -0.7410   15.1400    1.5130 C   0  0  0  0  0  0  0  0  0  0  0  0
   -4.4110   23.3170   -7.3360 C   0  0  2  0  0  0  0  0  0  0  0  0
   -2.4370   19.3540   -5.7770 O   0  0  0  0  0  0  0  0  0  0  0  0
   -0.7920   19.1210   -9.5940 O   0  0  0  0  0  0  0  0  0  0  0  0
   -5.3800   24.3710   -7.2380 O   0  0  0  0  0  0  0  0  0  0  0  0
   -3.7670   23.4950   -8.6950 C   0  0  2  0  0  0  0  0  0  0  0  0
   -0.6080   14.9810    0.1610 N   0  0  0  0  0  0  0  0  0  0  0  0
   -0.4870   18.7540   -7.2250 O   0  0  0  0  0  0  0  0  0  0  0  0
   -4.6550   24.2670   -9.5050 O   0  0  0  0  0  0  0  0  0  0  0  0
   -1.7180   15.0770   -0.6360 C   0  0  0  0  0  0  0  0  0  0  0  0
   -3.7270   22.1120   -9.3260 C   0  0  2  0  0  0  0  0  0  0  0  0
   -4.6340   21.2910   -8.5440 O   0  0  0  0  0  0  0  0  0  0  0  0
   -3.0250   15.3850   -0.0100 C   0  0  0  0  0  0  0  0  0  0  0  0
   -2.2630   21.5790   -9.3900 C   0  0  0  0  0  0  0  0  0  0  0  0
   -1.9020   20.8160   -8.2100 O   0  0  0  0  0  0  0  0  0  0  0  0
   -3.0570   15.5640    1.4540 C   0  0  0  0  0  0  0  0  0  0  0  0
   -4.1680   15.8590    2.1610 N   0  0  0  0  0  0  0  0  0  0  0  0
   -3.9030   15.4450   -1.0390 N   0  0  0  0  0  0  0  0  0  0  0  0
   -3.2320   15.1900   -2.2200 C   0  0  0  0  0  0  0  0  0  0  0  0
   -1.9250   14.9430   -1.9640 N   0  0  0  0  0  0  0  0  0  0  0  0
  1  4  1  0
  1 14  1  0
  1 19  1  0
  1 24  1  0
  4  3  1  0
 24  2  1  0
  2 15  1  0
  2 20  1  0
  2 31  1  0
 31 30  1  0
  5  3  1  6
  5  6  1  0
  5  7  1  0
  6 11  1  0
  7  8  1  1
  7  9  1  0
 11  9  1  0
 11 36  1  1
  9 10  1  1
 36 26  1  0
 36 35  1  0
 12 16  1  1
 12 18  1  0
 12 28  1  0
 18 21  1  6
 18 22  1  0
 28 27  1  0
 13 17  1  0
 13 32  1  0
 17 23  1  0
 32 29  1  0
 32 33  1  0
 23 26  1  0
 22 25  1  6
 22 27  1  0
 27 30  1  1
 26 29  1  0
 29 34  1  0
 34 35  1  0
M  CHG  2  14  -1  15  -1
M  END
