5cb5_N_0_N_β-x0587_0_A_α
     RDKit          3D

 25 25  0  0  0  0  0  0  0  0999 V2000
   -1.6280   20.7090   -8.6430 O   0  0  0  0  0  0  0  0  0  0  0  0
   -0.4570   20.0360   -7.8170 P   0  0  0  0  0  0  0  0  0  0  0  0
   -1.0600   19.6080   -6.4070 O   0  0  0  0  0  0  0  0  0  0  0  0
    0.8100   20.8040   -7.7790 O   0  0  0  0  0  0  0  0  0  0  0  0
   -0.2490   18.6950   -8.6840 O   0  0  0  0  0  0  0  0  0  0  0  0
   -1.6480   18.1810   -6.0840 P   0  0  2  0  0  0  0  0  0  0  0  0
   -0.3750   17.2500   -6.1550 O   0  0  0  0  0  0  0  0  0  0  0  0
   -2.7380   17.7630   -6.9750 O   0  0  0  0  0  0  0  0  0  0  0  0
   -1.9900   17.9590   -4.5290 O   0  0  0  0  0  0  0  0  0  0  0  0
   -1.3510   16.8250   -3.9160 C   0  0  0  0  0  0  0  0  0  0  0  0
   -2.2330   15.9940   -2.9600 C   0  0  0  0  0  0  0  0  0  0  0  0
   -3.5090   15.3890   -3.5550 C   0  0  0  0  0  0  0  0  0  0  0  0
   -4.5940   15.4330   -2.6030 O   0  0  0  0  0  0  0  0  0  0  0  0
   -4.4290   14.4970   -1.5130 C   0  0  0  0  0  0  0  0  0  0  0  0
   -3.1810   14.7610   -1.0290 F   0  0  0  0  0  0  0  0  0  0  0  0
   -4.3300   13.2560   -2.0700 F   0  0  0  0  0  0  0  0  0  0  0  0
   -5.4860   14.5960   -0.3930 C   0  0  0  0  0  0  0  0  0  0  0  0
   -6.7980   14.3660   -0.6780 N   0  0  0  0  0  0  0  0  0  0  0  0
   -5.0510   14.9080    0.8450 N   0  0  0  0  0  0  0  0  0  0  0  0
   -7.6870   14.4640    0.3460 C   0  0  0  0  0  0  0  0  0  0  0  0
   -5.9820   14.9920    1.8180 C   0  0  0  0  0  0  0  0  0  0  0  0
   -7.3260   14.7810    1.6370 C   0  0  0  0  0  0  0  0  0  0  0  0
   -8.3300   14.8940    2.7110 C   0  0  0  0  0  0  0  0  0  0  0  0
   -7.9020   14.9300    4.0080 N   0  0  0  0  0  0  0  0  0  0  0  0
   -9.5250   14.9710    2.4460 O   0  0  0  0  0  0  0  0  0  0  0  0
  1  2  1  0
  2  3  1  0
  2  4  2  0
  2  5  1  0
  3  6  1  0
  6  7  1  6
  6  8  2  0
  6  9  1  0
  9 10  1  0
 10 11  1  0
 11 12  1  0
 12 13  1  0
 13 14  1  0
 14 15  1  0
 14 16  1  0
 14 17  1  0
 17 18  2  0
 17 19  1  0
 18 20  1  0
 19 21  2  0
 20 22  2  0
 21 22  1  0
 22 23  1  0
 23 24  1  0
 23 25  2  0
M  END
