5CB5_0_H_Î´
     RDKit          3D

 10 11  0  0  0  0  0  0  0  0999 V2000
   -1.8520   14.9170   -1.8680 N   0  0  0  0  0  0  0  0  0  0  0  0
   -1.5510   15.1010   -0.6090 C   0  0  0  0  0  0  0  0  0  0  0  0
   -3.1560   15.1070   -2.0430 C   0  0  0  0  0  0  0  0  0  0  0  0
   -0.3850   15.0370    0.0770 N   0  0  0  0  0  0  0  0  0  0  0  0
   -2.8030   15.4240    0.0710 C   0  0  0  0  0  0  0  0  0  0  0  0
   -3.7440   15.4090   -0.8550 N   0  0  0  0  0  0  0  0  0  0  0  0
   -0.3730   15.2690    1.4120 C   0  0  0  0  0  0  0  0  0  0  0  0
   -2.7130   15.6540    1.5190 C   0  0  0  0  0  0  0  0  0  0  0  0
   -1.4820   15.5570    2.1120 N   0  0  0  0  0  0  0  0  0  0  0  0
   -3.8070   15.9680    2.2390 N   0  0  0  0  0  0  0  0  0  0  0  0
  1  2  1  0
  1  3  1  0
  4  2  1  0
  2  5  1  0
  6  3  1  0
  7  4  1  0
  8  5  1  0
  5  6  1  0
  9  7  1  0
  9  8  1  0
  8 10  1  0
M  END
