5cb5_B_0_B_γ-5DUS_0_A_β
     RDKit          3D

 16 16  0  0  0  0  0  0  0  0999 V2000
   -0.5610   12.4930   -3.9260 O   0  0  0  0  0  0  0  0  0  0  0  0
   -0.8960   13.8380   -3.9260 C   0  0  1  0  0  0  0  0  0  0  0  0
   -0.2720   14.6210   -2.7710 C   0  0  0  0  0  0  0  0  0  0  0  0
   -0.3310   14.5450   -5.1100 C   0  0  2  0  0  0  0  0  0  0  0  0
    0.9960   14.1440   -5.2590 O   0  0  0  0  0  0  0  0  0  0  0  0
    0.1770   15.8300   -3.3480 O   0  0  0  0  0  0  0  0  0  0  0  0
   -0.4940   15.9010   -4.5530 C   0  0  1  0  0  0  0  0  0  0  0  0
   -0.1390   17.1320   -5.3840 C   0  0  0  0  0  0  0  0  0  0  0  0
   -1.5500   18.1290   -5.6220 P   0  0  0  0  0  0  0  0  0  0  0  0
   -0.9670   19.4170   -6.1880 O   0  0  0  0  0  0  0  0  0  0  0  0
   -2.5130   18.0230   -7.0140 O   0  0  0  0  0  0  0  0  0  0  0  0
   -2.1000   19.0540   -4.4570 O   0  0  0  0  0  0  0  0  0  0  0  0
   -0.1810   19.6900   -7.5410 P   0  0  0  0  0  0  0  0  0  0  0  0
   -1.3930   20.3950   -8.1680 O   0  0  0  0  0  0  0  0  0  0  0  0
    0.6860   21.1130   -7.7360 O   0  0  0  0  0  0  0  0  0  0  0  0
   -0.0780   18.5290   -8.6980 O   0  0  0  0  0  0  0  0  0  0  0  0
  2  1  1  1
  2  3  1  0
  2  4  1  0
  4  5  1  1
  3  6  1  0
  4  7  1  0
  6  7  1  0
  7  8  1  6
  8  9  1  0
  9 10  1  0
  9 11  1  0
  9 12  1  0
 10 13  1  0
 13 14  1  0
 13 15  1  0
 13 16  1  0
M  CHG  2  11  -1  15  -1
M  END
