5CB5_0_H_β-mArh-x0662_0_A_β
     RDKit          3D

 22 22  0  0  0  0  0  0  0  0999 V2000
   -1.4430   21.1680   -7.8400 O   0  0  0  0  0  0  0  0  0  0  0  0
   -0.6530   19.8370   -7.9140 P   0  0  0  0  0  0  0  0  0  0  0  0
   -0.7860   19.2620   -6.4820 O   0  0  0  0  0  0  0  0  0  0  0  0
    0.6630   20.8880   -8.0890 O   0  0  0  0  0  0  0  0  0  0  0  0
    0.2170   18.8150   -8.6640 O   0  0  0  0  0  0  0  0  0  0  0  0
   -1.7130   18.1010   -5.9630 P   0  0  0  0  0  0  0  0  0  0  0  0
   -0.6700   16.9500   -6.0290 O   0  0  0  0  0  0  0  0  0  0  0  0
   -2.6750   17.2480   -6.9850 O   0  0  0  0  0  0  0  0  0  0  0  0
   -2.0000   17.8250   -4.4150 O   0  0  0  0  0  0  0  0  0  0  0  0
   -0.1270   16.2540   -4.9130 C   0  0  0  0  0  0  0  0  0  0  0  0
   -0.4580   14.7470   -4.9770 C   0  0  0  0  0  0  0  0  0  0  0  0
    0.5890   13.8850   -5.7460 C   0  0  0  0  0  0  0  0  0  0  0  0
    0.7940   12.5420   -5.3100 O   0  0  0  0  0  0  0  0  0  0  0  0
   -0.1050   11.5220   -5.6510 C   0  0  0  0  0  0  0  0  0  0  0  0
   -0.9840   11.2660   -4.8040 O   0  0  0  0  0  0  0  0  0  0  0  0
   -0.0880   10.7480   -6.9150 C   0  0  0  0  0  0  0  0  0  0  0  0
    0.7630   10.9880   -7.9650 C   0  0  0  0  0  0  0  0  0  0  0  0
   -0.9850    9.7140   -7.0740 C   0  0  0  0  0  0  0  0  0  0  0  0
    0.7430   10.2530   -9.1550 C   0  0  0  0  0  0  0  0  0  0  0  0
   -1.0370    8.9530   -8.2280 C   0  0  0  0  0  0  0  0  0  0  0  0
    1.6210   10.5380  -10.2210 N   0  0  0  0  0  0  0  0  0  0  0  0
   -0.1820    9.2240   -9.2580 C   0  0  0  0  0  0  0  0  0  0  0  0
  1  2  1  0
  2  3  1  0
  2  4  1  0
  2  5  1  0
  3  6  1  0
  6  7  1  0
  6  8  1  0
  6  9  1  0
  7 10  1  0
 10 11  1  0
 11 12  1  0
 12 13  1  0
 13 14  1  0
 14 15  2  0
 14 16  1  0
 16 17  2  0
 16 18  1  0
 17 19  1  0
 18 20  2  0
 19 21  1  0
 19 22  2  0
 20 22  1  0
M  CHG  2   4  -1   8  -1
M  END
