5CB5_0_H_δ-5DUS_0_A_γ
     RDKit          3D

 17 19  0  0  0  0  0  0  0  0999 V2000
   -3.9110   15.6460    1.6800 N   0  0  0  0  0  0  0  0  0  0  0  0
   -2.8530   14.9590    0.9530 C   0  0  1  0  0  0  0  0  0  0  0  0
   -2.6570   15.4070   -0.5030 C   0  0  1  0  0  0  0  0  0  0  0  0
   -1.6370   15.2370    1.6750 N   0  0  0  0  0  0  0  0  0  0  0  0
   -1.4950   14.5690   -1.0330 C   0  0  1  0  0  0  0  0  0  0  0  0
   -3.7270   15.2040   -1.4860 N   0  0  0  0  0  0  0  0  0  0  0  0
   -0.4680   14.5560    1.1440 C   0  0  0  0  0  0  0  0  0  0  0  0
   -1.5270   14.8490   -2.5650 C   0  0  1  0  0  0  0  0  0  0  0  0
   -2.9850   15.3440   -2.7620 C   0  0  0  0  0  0  0  0  0  0  0  0
   -0.3040   14.8840   -0.2580 N   0  0  0  0  0  0  0  0  0  0  0  0
   -0.5280   15.8870   -2.8730 O   0  0  0  0  0  0  0  0  0  0  0  0
   -1.1480   13.7320   -3.5670 C   0  0  1  0  0  0  0  0  0  0  0  0
   -2.1890   12.9260   -4.0830 O   0  0  0  0  0  0  0  0  0  0  0  0
   -0.3380   15.8660   -4.3020 C   0  0  2  0  0  0  0  0  0  0  0  0
   -0.3880   14.4000   -4.7200 C   0  0  1  0  0  0  0  0  0  0  0  0
    0.9370   16.5820   -4.7030 C   0  0  0  0  0  0  0  0  0  0  0  0
    0.8760   13.7750   -4.9260 O   0  0  0  0  0  0  0  0  0  0  0  0
  2  1  1  1
  2  3  1  0
  2  4  1  0
  3  5  1  0
  3  6  1  6
  4  7  1  0
  5  8  1  0
  6  9  1  0
  8  9  1  6
  5 10  1  1
  7 10  1  0
  8 11  1  0
  8 12  1  0
 12 13  1  6
 11 14  1  0
 12 15  1  0
 14 15  1  0
 14 16  1  1
 15 17  1  1
M  END
