5CB5_0_F_γ-6WOJ_0_A_δ
     RDKit          3D

 17 19  0  0  0  0  0  0  0  0999 V2000
   -1.3200   12.4210   -4.0090 O   0  0  0  0  0  0  0  0  0  0  0  0
   -0.4810   13.5140   -3.6690 C   0  0  2  0  0  0  0  0  0  0  0  0
   -1.1420   14.6220   -2.8380 C   0  0  2  0  0  0  0  0  0  0  0  0
   -0.0010   14.1930   -4.9610 C   0  0  2  0  0  0  0  0  0  0  0  0
    1.3490   13.8670   -5.2410 O   0  0  0  0  0  0  0  0  0  0  0  0
   -0.4730   15.8200   -3.3190 O   0  0  0  0  0  0  0  0  0  0  0  0
   -0.2980   15.6800   -4.7360 C   0  0  1  0  0  0  0  0  0  0  0  0
   -1.1290   14.6650   -1.2630 C   0  0  1  0  0  0  0  0  0  0  0  0
   -2.6800   14.6280   -3.0940 C   0  0  0  0  0  0  0  0  0  0  0  0
    0.7330   16.6870   -5.2200 C   0  0  0  0  0  0  0  0  0  0  0  0
   -2.6250   14.9390   -0.9330 C   0  0  1  0  0  0  0  0  0  0  0  0
   -3.3270   14.0860   -1.8680 N   0  0  0  0  0  0  0  0  0  0  0  0
   -0.5650   13.6220   -0.4100 N   0  0  0  0  0  0  0  0  0  0  0  0
   -0.5930   14.0720    0.9790 C   0  0  0  0  0  0  0  0  0  0  0  0
   -2.8870   14.9580    0.6090 C   0  0  1  0  0  0  0  0  0  0  0  0
   -4.2120   14.4910    0.9520 N   0  0  0  0  0  0  0  0  0  0  0  0
   -1.9570   14.2340    1.4580 N   0  0  0  0  0  0  0  0  0  0  0  0
  2  1  1  6
  2  3  1  0
  2  4  1  0
  4  5  1  1
  3  6  1  0
  4  7  1  0
  6  7  1  0
  3  8  1  0
  3  9  1  6
  7 10  1  1
  8 11  1  0
  9 12  1  0
 11 12  1  6
  8 13  1  1
 13 14  1  0
 11 15  1  0
 15 16  1  6
 14 17  1  0
 15 17  1  0
M  END
