5CB5_0_B_α-EU0046_1_B_α
     RDKit          3D

 24 25  0  0  0  0  0  0  0  0999 V2000
   -4.9370   22.4830  -11.3220 C   0  0  0  0  0  0  0  0  0  0  0  0
   -4.4640   22.2720   -9.8900 C   0  0  2  0  0  0  0  0  0  0  0  0
   -5.4270   21.4920   -9.1940 O   0  0  0  0  0  0  0  0  0  0  0  0
   -4.3710   23.5780   -9.1400 C   0  0  1  0  0  0  0  0  0  0  0  0
   -5.2500   24.5130   -9.7310 O   0  0  0  0  0  0  0  0  0  0  0  0
   -5.3140   21.8060   -7.8240 C   0  0  2  0  0  0  0  0  0  0  0  0
   -4.7480   23.2260   -7.7020 C   0  0  2  0  0  0  0  0  0  0  0  0
   -4.4060   20.9510   -7.1230 O   0  0  0  0  0  0  0  0  0  0  0  0
   -5.6650   24.1610   -7.1070 O   0  0  0  0  0  0  0  0  0  0  0  0
   -4.4840   21.4090   -5.7910 C   0  0  0  0  0  0  0  0  0  0  0  0
   -5.9120   21.9240   -5.7160 C   0  0  0  0  0  0  0  0  0  0  0  0
   -6.5980   21.7090   -4.3100 C   0  0  0  0  0  0  0  0  0  0  0  0
   -7.6020   23.0210   -3.3260 C   0  0  0  0  0  0  0  0  0  0  0  0
   -9.3260   23.5370   -2.2810 C   0  0  0  0  0  0  0  0  0  0  0  0
  -10.8520   22.8750   -2.4760 C   0  0  0  0  0  0  0  0  0  0  0  0
  -11.6920   23.1240   -1.3130 N   0  0  0  0  0  0  0  0  0  0  0  0
  -12.6950   24.0340   -1.3270 C   0  0  0  0  0  0  0  0  0  0  0  0
  -13.7980   24.0580   -0.4240 C   0  0  0  0  0  0  0  0  0  0  0  0
  -12.7850   25.0450   -2.1930 N   0  0  0  0  0  0  0  0  0  0  0  0
  -14.0970   23.1690    0.6470 C   0  0  0  0  0  0  0  0  0  0  0  0
  -13.9030   25.6980   -1.8520 N   0  0  0  0  0  0  0  0  0  0  0  0
  -14.5600   25.1520   -0.7900 C   0  0  0  0  0  0  0  0  0  0  0  0
  -15.8150   25.7210   -0.2480 C   0  0  0  0  0  0  0  0  0  0  0  0
  -14.3650   22.4490    1.5140 N   0  0  0  0  0  0  0  0  0  0  0  0
  2  1  1  6
  2  3  1  0
  2  4  1  0
  4  5  1  6
  3  6  1  0
  4  7  1  0
  6  7  1  0
  6  8  1  1
  7  9  1  6
  8 10  1  0
 10 11  1  0
 11 12  1  0
 12 13  1  0
 13 14  1  0
 14 15  1  0
 15 16  1  0
 16 17  1  0
 17 18  1  0
 17 19  2  0
 18 20  1  0
 19 21  1  0
 18 22  2  0
 21 22  1  0
 22 23  1  0
 20 24  3  0
M  END
