5CB5_0_H_β-EU0704_0_A_α
     RDKit          3D

 26 27  0  0  0  0  0  0  0  0999 V2000
   -1.5470   20.4980   -8.6180 O   0  0  0  0  0  0  0  0  0  0  0  0
   -0.4370   19.9730   -7.6990 P   0  0  0  0  0  0  0  0  0  0  0  0
   -1.4660   19.6750   -6.4790 O   0  0  0  0  0  0  0  0  0  0  0  0
    0.7980   19.5400   -6.9230 O   0  0  0  0  0  0  0  0  0  0  0  0
   -0.0920   18.7360   -8.7680 O   0  0  0  0  0  0  0  0  0  0  0  0
   -1.3440   18.1480   -5.8180 P   0  0  0  0  0  0  0  0  0  0  0  0
   -0.1830   17.1630   -6.2380 O   0  0  0  0  0  0  0  0  0  0  0  0
   -2.4260   17.6590   -6.7970 O   0  0  0  0  0  0  0  0  0  0  0  0
   -2.3750   17.6960   -4.5600 O   0  0  0  0  0  0  0  0  0  0  0  0
   -2.5990   16.3230   -4.5120 C   0  0  0  0  0  0  0  0  0  0  0  0
   -2.7040   15.7530   -3.0970 C   0  0  0  0  0  0  0  0  0  0  0  0
   -4.1090   15.1930   -2.7250 C   0  0  0  0  0  0  0  0  0  0  0  0
   -4.3280   15.2080   -1.2380 C   0  0  0  0  0  0  0  0  0  0  0  0
   -5.5520   14.8880   -0.6200 C   0  0  0  0  0  0  0  0  0  0  0  0
   -3.2710   15.5390   -0.4650 C   0  0  0  0  0  0  0  0  0  0  0  0
   -5.7020   14.8820    0.7630 C   0  0  0  0  0  0  0  0  0  0  0  0
   -6.7880   14.5300   -1.0710 N   0  0  0  0  0  0  0  0  0  0  0  0
   -3.4150   15.5570    0.8830 C   0  0  0  0  0  0  0  0  0  0  0  0
   -6.9670   14.4960    1.1370 N   0  0  0  0  0  0  0  0  0  0  0  0
   -7.6150   14.3010   -0.0280 C   0  0  0  0  0  0  0  0  0  0  0  0
   -4.5870   15.2460    1.5180 C   0  0  0  0  0  0  0  0  0  0  0  0
   -7.5710   14.2830    2.4780 C   0  0  0  0  0  0  0  0  0  0  0  0
   -8.0440   15.3970    3.3040 C   0  0  0  0  0  0  0  0  0  0  0  0
   -7.5690   15.6480    4.6290 N   0  0  0  0  0  0  0  0  0  0  0  0
   -8.9480   16.1540    2.8650 O   0  0  0  0  0  0  0  0  0  0  0  0
   -8.4530   16.0020    5.6960 C   0  0  0  0  0  0  0  0  0  0  0  0
  1  2  1  0
  2  3  1  0
  2  4  1  0
  2  5  1  0
  3  6  1  0
  6  7  1  0
  6  8  1  0
  6  9  1  0
  9 10  1  0
 10 11  1  0
 11 12  1  0
 12 13  1  0
 13 14  2  0
 13 15  1  0
 14 16  1  0
 14 17  1  0
 15 18  2  0
 16 19  1  0
 17 20  2  0
 19 20  1  0
 16 21  2  0
 18 21  1  0
 19 22  1  0
 22 23  1  0
 23 24  1  0
 23 25  2  0
 24 26  1  0
M  CHG  2   4  -1   8  -1
M  END
