5cb5_Q_0_Q_γ-5MQX_0_A_δ
     RDKit          3D

 19 21  0  0  0  0  0  0  0  0999 V2000
   -0.8110   12.8200   -4.3030 O   0  0  0  0  0  0  0  0  0  0  0  0
    0.0490   13.9100   -3.9660 C   0  0  2  0  0  0  0  0  0  0  0  0
   -0.6310   14.9960   -3.1460 C   0  0  2  0  0  0  0  0  0  0  0  0
    0.4640   14.6350   -5.2130 C   0  0  2  0  0  0  0  0  0  0  0  0
    1.5590   13.9290   -5.7570 O   0  0  0  0  0  0  0  0  0  0  0  0
   -2.1230   14.6770   -3.0000 C   0  0  0  0  0  0  0  0  0  0  0  0
   -0.3490   16.2630   -3.7750 O   0  0  0  0  0  0  0  0  0  0  0  0
    0.7030   16.0660   -4.7090 C   0  0  2  0  0  0  0  0  0  0  0  0
    0.6350   17.2320   -5.6850 C   0  0  0  0  0  0  0  0  0  0  0  0
   -2.5280   13.8120   -1.8950 N   0  0  0  0  0  0  0  0  0  0  0  0
   -2.0640   14.2300   -0.6040 C   0  0  1  0  0  0  0  0  0  0  0  0
   -3.9850   13.7630   -1.7220 C   0  0  0  0  0  0  0  0  0  0  0  0
   -3.1280   13.7290    0.2990 C   0  0  2  0  0  0  0  0  0  0  0  0
   -4.3240   14.2030   -0.3660 N   0  0  0  0  0  0  0  0  0  0  0  0
   -0.7100   13.9500   -0.2040 N   0  0  0  0  0  0  0  0  0  0  0  0
   -0.4880   14.7930    0.9320 C   0  0  0  0  0  0  0  0  0  0  0  0
   -2.7750   14.1730    1.6900 C   0  0  2  0  0  0  0  0  0  0  0  0
   -3.5290   15.3220    2.1100 N   0  0  0  0  0  0  0  0  0  0  0  0
   -1.3590   14.3710    1.9580 N   0  0  0  0  0  0  0  0  0  0  0  0
  2  1  1  6
  2  3  1  0
  2  4  1  0
  4  5  1  1
  3  6  1  6
  3  7  1  0
  4  8  1  0
  7  8  1  0
  8  9  1  6
  6 10  1  0
 10 11  1  0
 10 12  1  0
 11 13  1  0
 12 14  1  0
 13 14  1  6
 11 15  1  1
 15 16  1  0
 13 17  1  0
 17 18  1  6
 16 19  1  0
 17 19  1  0
M  END
