5CB5_0_N_δ-5L9K_0_A_α
     RDKit          3D

 25 27  0  0  0  0  0  0  0  0999 V2000
   -3.9860   15.4910    1.6640 N   0  0  0  0  0  0  0  0  0  0  0  0
   -2.7050   15.4650    0.9690 C   0  0  2  0  0  0  0  0  0  0  0  0
   -2.7470   14.8160   -0.4120 C   0  0  2  0  0  0  0  0  0  0  0  0
   -1.8000   14.6920    1.7880 N   0  0  0  0  0  0  0  0  0  0  0  0
   -1.3110   14.8590   -0.8480 C   0  0  2  0  0  0  0  0  0  0  0  0
   -3.3780   15.5440   -1.5550 N   0  0  0  0  0  0  0  0  0  0  0  0
   -0.4230   14.6520    1.2550 C   0  0  0  0  0  0  0  0  0  0  0  0
   -1.4220   14.5040   -2.2270 N   0  0  0  0  0  0  0  0  0  0  0  0
   -2.2620   15.6470   -2.5200 C   0  0  1  0  0  0  0  0  0  0  0  0
   -0.3960   14.1200   -0.0780 N   0  0  0  0  0  0  0  0  0  0  0  0
   -2.6140   15.8030   -4.0060 C   0  0  0  0  0  0  0  0  0  0  0  0
   -1.4940   16.5350   -4.7900 C   0  0  0  0  0  0  0  0  0  0  0  0
   -1.8580   17.7850   -5.6090 C   0  0  0  0  0  0  0  0  0  0  0  0
   -0.6700   18.4340   -6.3400 C   0  0  0  0  0  0  0  0  0  0  0  0
   -1.1190   19.2350   -7.5640 C   0  0  0  0  0  0  0  0  0  0  0  0
   -1.0290   20.7670   -7.5030 C   0  0  0  0  0  0  0  0  0  0  0  0
   -1.9840   21.6000   -8.3850 C   0  0  0  0  0  0  0  0  0  0  0  0
   -3.2020   22.1620   -7.6640 C   0  0  2  0  0  0  0  0  0  0  0  0
   -4.2640   21.2510   -7.5450 O   0  0  0  0  0  0  0  0  0  0  0  0
   -3.9500   23.4050   -8.1630 C   0  0  1  0  0  0  0  0  0  0  0  0
   -4.6260   23.3550   -9.4150 O   0  0  0  0  0  0  0  0  0  0  0  0
   -5.3140   21.9860   -6.9370 C   0  0  1  0  0  0  0  0  0  0  0  0
   -4.8670   23.4590   -6.9470 C   0  0  2  0  0  0  0  0  0  0  0  0
   -6.4870   21.8120   -7.7010 O   0  0  0  0  0  0  0  0  0  0  0  0
   -6.0280   24.2800   -7.0740 O   0  0  0  0  0  0  0  0  0  0  0  0
  2  1  1  1
  2  3  1  0
  2  4  1  0
  3  5  1  0
  3  6  1  6
  4  7  1  0
  5  8  1  6
  6  9  1  0
  8  9  1  0
  5 10  1  0
  7 10  1  0
  9 11  1  6
 11 12  1  0
 12 13  1  0
 13 14  1  0
 14 15  1  0
 15 16  1  0
 16 17  1  0
 18 17  1  6
 18 19  1  0
 18 20  1  0
 20 21  1  6
 19 22  1  0
 20 23  1  0
 22 23  1  0
 22 24  1  6
 23 25  1  6
M  END
