5CB5_0_A_β-5CB5_0_A_δ
     RDKit          3D

 21 22  0  0  0  0  0  0  0  0999 V2000
   -1.7510   20.6570   -8.0640 O   0  0  0  0  0  0  0  0  0  0  0  0
   -0.5440   19.7470   -7.8700 P   0  0  0  0  0  0  0  0  0  0  0  0
   -1.1010   19.3260   -6.3180 O   0  0  0  0  0  0  0  0  0  0  0  0
    0.4930   20.9740   -7.9810 O   0  0  0  0  0  0  0  0  0  0  0  0
    0.5510   18.6810   -7.8040 O   0  0  0  0  0  0  0  0  0  0  0  0
   -1.6810   17.9180   -6.0830 P   0  0  0  0  0  0  0  0  0  0  0  0
   -0.1140   17.3490   -6.4570 O   0  0  0  0  0  0  0  0  0  0  0  0
   -2.7640   18.1720   -7.1950 O   0  0  0  0  0  0  0  0  0  0  0  0
   -1.9990   17.8240   -4.5470 O   0  0  0  0  0  0  0  0  0  0  0  0
   -2.4500   16.5270   -4.3030 C   0  0  0  0  0  0  0  0  0  0  0  0
   -2.2390   16.0520   -2.8880 C   0  0  0  0  0  0  0  0  0  0  0  0
   -2.9470   14.7950   -2.5430 C   0  0  1  0  0  0  0  0  0  0  0  0
   -1.9040   13.9560   -2.0170 N   0  0  0  0  0  0  0  0  0  0  0  0
   -3.7750   15.1130   -1.3460 N   0  0  0  0  0  0  0  0  0  0  0  0
   -1.6190   14.6920   -0.8550 C   0  0  1  0  0  0  0  0  0  0  0  0
   -3.0170   14.6400   -0.2260 C   0  0  1  0  0  0  0  0  0  0  0  0
   -0.6710   14.0860    0.0120 N   0  0  0  0  0  0  0  0  0  0  0  0
   -2.9530   15.5320    0.9500 C   0  0  1  0  0  0  0  0  0  0  0  0
   -4.2100   15.6000    1.6960 N   0  0  0  0  0  0  0  0  0  0  0  0
   -0.6610   14.8630    1.2280 C   0  0  0  0  0  0  0  0  0  0  0  0
   -1.9720   14.9500    1.8050 N   0  0  0  0  0  0  0  0  0  0  0  0
  1  2  1  0
  2  3  1  0
  2  4  1  0
  2  5  1  0
  3  6  1  0
  6  7  1  0
  6  8  1  0
  6  9  1  0
  9 10  1  0
 10 11  1  0
 12 11  1  1
 12 13  1  0
 12 14  1  0
 15 13  1  6
 16 14  1  6
 15 16  1  0
 15 17  1  0
 16 18  1  0
 18 19  1  1
 17 20  1  0
 18 21  1  0
 20 21  1  0
M  CHG  2   4  -1   8  -1
M  END
