5CB5_0_M_δ-5cms_I_8_I_β
     RDKit          3D

 21 22  0  0  0  0  0  0  0  0999 V2000
   -3.7210   15.5940    1.7200 N   0  0  0  0  0  0  0  0  0  0  0  0
   -2.5470   15.3820    0.8840 C   0  0  2  0  0  0  0  0  0  0  0  0
   -2.7560   14.3060   -0.1770 C   0  0  2  0  0  0  0  0  0  0  0  0
   -1.4510   14.9560    1.7200 N   0  0  0  0  0  0  0  0  0  0  0  0
   -1.3990   14.1140   -0.8320 C   0  0  1  0  0  0  0  0  0  0  0  0
   -3.6740   14.6800   -1.2760 N   0  0  0  0  0  0  0  0  0  0  0  0
   -0.1830   14.8490    0.9950 C   0  0  0  0  0  0  0  0  0  0  0  0
   -1.5710   14.1600   -2.2610 N   0  0  0  0  0  0  0  0  0  0  0  0
   -2.8850   14.6740   -2.5170 C   0  0  2  0  0  0  0  0  0  0  0  0
   -0.4140   15.0530   -0.4040 N   0  0  0  0  0  0  0  0  0  0  0  0
   -2.8510   16.0760   -3.0390 C   0  0  0  0  0  0  0  0  0  0  0  0
   -1.6670   16.5290   -3.8950 C   0  0  0  0  0  0  0  0  0  0  0  0
   -1.9720   17.8130   -4.4750 O   0  0  0  0  0  0  0  0  0  0  0  0
   -1.7880   17.9270   -6.0430 P   0  0  1  0  0  0  0  0  0  0  0  0
   -1.3760   19.3530   -6.5530 O   0  0  0  0  0  0  0  0  0  0  0  0
   -0.3800   17.1840   -6.1220 O   0  0  0  0  0  0  0  0  0  0  0  0
   -2.7740   17.2100   -6.8580 O   0  0  0  0  0  0  0  0  0  0  0  0
   -0.2580   19.6300   -7.6240 P   0  0  0  0  0  0  0  0  0  0  0  0
   -0.6610   20.9590   -8.3830 O   0  0  0  0  0  0  0  0  0  0  0  0
    1.1200   19.6860   -7.0840 O   0  0  0  0  0  0  0  0  0  0  0  0
   -0.3440   18.5210   -8.7480 O   0  0  0  0  0  0  0  0  0  0  0  0
  2  1  1  1
  2  3  1  0
  2  4  1  0
  3  5  1  0
  3  6  1  6
  4  7  1  0
  5  8  1  6
  6  9  1  0
  8  9  1  0
  5 10  1  0
  7 10  1  0
  9 11  1  1
 11 12  1  0
 12 13  1  0
 13 14  1  0
 14 15  1  0
 14 16  1  1
 14 17  2  0
 15 18  1  0
 18 19  1  0
 18 20  2  0
 18 21  1  0
M  END
