5cb5_H_0_H_β-5cms_E_5_E_γ
     RDKit          3D

 16 16  0  0  0  0  0  0  0  0999 V2000
   -1.4190   20.5240   -8.3630 O   0  0  0  0  0  0  0  0  0  0  0  0
   -0.1420   19.8350   -7.7050 P   0  0  0  0  0  0  0  0  0  0  0  0
   -0.6460   19.3070   -6.3020 O   0  0  0  0  0  0  0  0  0  0  0  0
    1.0400   20.7430   -7.6370 O   0  0  0  0  0  0  0  0  0  0  0  0
    0.0370   18.5700   -8.6690 O   0  0  0  0  0  0  0  0  0  0  0  0
   -1.4000   17.9470   -6.0270 P   0  0  2  0  0  0  0  0  0  0  0  0
   -0.2950   16.7910   -5.7160 O   0  0  0  0  0  0  0  0  0  0  0  0
   -2.5320   17.6380   -6.9380 O   0  0  0  0  0  0  0  0  0  0  0  0
   -1.9140   18.2560   -4.5570 O   0  0  0  0  0  0  0  0  0  0  0  0
   -0.6620   15.6850   -4.8710 C   0  0  2  0  0  0  0  0  0  0  0  0
   -0.1520   15.7350   -3.5300 O   0  0  0  0  0  0  0  0  0  0  0  0
   -0.2870   14.2400   -5.2800 C   0  0  1  0  0  0  0  0  0  0  0  0
    1.1040   13.8700   -5.1920 O   0  0  0  0  0  0  0  0  0  0  0  0
   -0.4980   14.4470   -2.9590 C   0  0  0  0  0  0  0  0  0  0  0  0
   -0.9800   13.5700   -4.1210 C   0  0  2  0  0  0  0  0  0  0  0  0
   -0.6090   12.2030   -4.0010 O   0  0  0  0  0  0  0  0  0  0  0  0
  1  2  1  0
  2  3  1  0
  2  4  2  0
  2  5  1  0
  3  6  1  0
  6  7  1  0
  6  8  2  0
  6  9  1  1
 10  7  1  6
 10 11  1  0
 10 12  1  0
 12 13  1  1
 11 14  1  0
 12 15  1  0
 14 15  1  0
 15 16  1  1
M  END
