5cb5_H_0_H_α-5cb5_M_1_M_β
     RDKit          3D

 17 17  0  0  0  0  0  0  0  0999 V2000
   -1.7360   21.6050   -7.7540 C   0  0  0  0  0  0  0  0  0  0  0  0
   -0.6020   20.1950   -7.8590 P   0  0  1  0  0  0  0  0  0  0  0  0
   -0.5520   19.4880   -6.4580 O   0  0  0  0  0  0  0  0  0  0  0  0
   -3.0470   21.7050   -8.5530 C   0  0  1  0  0  0  0  0  0  0  0  0
   -0.6980   19.1230   -8.8800 O   0  0  0  0  0  0  0  0  0  0  0  0
    0.8360   20.9080   -7.8570 O   0  0  0  0  0  0  0  0  0  0  0  0
   -4.0750   20.9000   -7.9530 O   0  0  0  0  0  0  0  0  0  0  0  0
   -3.7020   23.0960   -8.5520 C   0  0  1  0  0  0  0  0  0  0  0  0
   -4.6560   23.2350   -9.6090 O   0  0  0  0  0  0  0  0  0  0  0  0
   -1.7160   18.5250   -6.0060 P   0  0  0  0  0  0  0  0  0  0  0  0
   -4.5940   21.6530   -6.8530 C   0  0  1  0  0  0  0  0  0  0  0  0
   -4.3610   23.1430   -7.1600 C   0  0  2  0  0  0  0  0  0  0  0  0
   -5.9580   21.3460   -6.6340 O   0  0  0  0  0  0  0  0  0  0  0  0
   -5.6320   23.8370   -7.1770 O   0  0  0  0  0  0  0  0  0  0  0  0
   -1.0520   17.2640   -5.2990 O   0  0  0  0  0  0  0  0  0  0  0  0
   -2.7160   18.1390   -7.0160 O   0  0  0  0  0  0  0  0  0  0  0  0
   -2.3160   19.3620   -4.8010 O   0  0  0  0  0  0  0  0  0  0  0  0
  1  2  1  0
  2  3  1  0
  4  1  1  1
  2  5  2  0
  2  6  1  6
  4  7  1  0
  4  8  1  0
  8  9  1  6
  3 10  1  0
  7 11  1  0
  8 12  1  0
 11 12  1  0
 11 13  1  6
 12 14  1  6
 10 15  1  0
 10 16  2  0
 10 17  1  0
M  END
