5CB5_0_D_γ-5CB5_0_F_β
     RDKit          3D

 16 16  0  0  0  0  0  0  0  0999 V2000
    0.4140   12.7550   -4.1240 O   0  0  0  0  0  0  0  0  0  0  0  0
   -0.3390   13.9150   -3.9990 C   0  0  1  0  0  0  0  0  0  0  0  0
    0.1450   14.8260   -2.8790 C   0  0  0  0  0  0  0  0  0  0  0  0
   -0.2080   14.7590   -5.2180 C   0  0  2  0  0  0  0  0  0  0  0  0
    1.0570   14.4880   -5.7420 O   0  0  0  0  0  0  0  0  0  0  0  0
    0.5090   16.0310   -3.5120 O   0  0  0  0  0  0  0  0  0  0  0  0
   -0.3240   16.1010   -4.6040 C   0  0  1  0  0  0  0  0  0  0  0  0
   -0.1070   17.3550   -5.4650 C   0  0  0  0  0  0  0  0  0  0  0  0
   -1.6290   18.1790   -5.6990 P   0  0  0  0  0  0  0  0  0  0  0  0
   -1.3390   19.3270   -6.6700 O   0  0  0  0  0  0  0  0  0  0  0  0
   -2.7240   17.6120   -6.8580 O   0  0  0  0  0  0  0  0  0  0  0  0
   -2.1550   19.2870   -4.6820 O   0  0  0  0  0  0  0  0  0  0  0  0
   -0.1680   19.5470   -7.7090 P   0  0  0  0  0  0  0  0  0  0  0  0
   -1.1690   20.0220   -8.7430 O   0  0  0  0  0  0  0  0  0  0  0  0
    0.2430   18.4250   -8.8560 O   0  0  0  0  0  0  0  0  0  0  0  0
    0.6680   20.9750   -7.6900 O   0  0  0  0  0  0  0  0  0  0  0  0
  2  1  1  6
  2  3  1  0
  2  4  1  0
  4  5  1  1
  3  6  1  0
  4  7  1  0
  6  7  1  0
  7  8  1  6
  8  9  1  0
  9 10  1  0
  9 11  1  0
  9 12  1  0
 10 13  1  0
 13 14  1  0
 13 15  1  0
 13 16  1  0
M  CHG  2  11  -1  15  -1
M  END
