5CB5_0_C_β-6WOJ_0_B_β
     RDKit          3D

 10  9  0  0  0  0  0  0  0  0999 V2000
   -0.5010   21.3970   -7.6910 O   0  0  0  0  0  0  0  0  0  0  0  0
   -0.5250   19.7560   -7.7020 P   0  0  0  0  0  0  0  0  0  0  0  0
   -1.9700   18.9980   -7.5450 O   0  0  0  0  0  0  0  0  0  0  0  0
   -0.7610   19.8920   -9.1520 O   0  0  0  0  0  0  0  0  0  0  0  0
    0.7670   18.8540   -7.8840 O   0  0  0  0  0  0  0  0  0  0  0  0
   -2.1070   18.3140   -6.1600 P   0  0  0  0  0  0  0  0  0  0  0  0
   -1.9980   16.7380   -5.8470 O   0  0  0  0  0  0  0  0  0  0  0  0
   -0.6250   18.3910   -5.9330 O   0  0  0  0  0  0  0  0  0  0  0  0
   -2.2320   19.3290   -4.8000 O   0  0  0  0  0  0  0  0  0  0  0  0
   -0.7050   16.3830   -4.8560 P   0  0  0  0  0  0  0  0  0  0  0  0
  1  2  1  0
  2  3  1  0
  2  4  1  0
  2  5  1  0
  3  6  1  0
  6  7  1  0
  6  8  1  0
  6  9  1  0
  7 10  1  0
M  CHG  2   4  -1   8  -1
M  END
