5CB5_0_D_δ-mArh-6mea_B_0_B_γ
     RDKit          3D

 17 19  0  0  0  0  0  0  0  0999 V2000
   -3.8320   15.4320    1.5510 N   0  0  0  0  0  0  0  0  0  0  0  0
   -2.7370   14.8570    0.7850 C   0  0  1  0  0  0  0  0  0  0  0  0
   -2.6550   15.4180   -0.6510 C   0  0  1  0  0  0  0  0  0  0  0  0
   -1.5620   15.2150    1.5320 N   0  0  0  0  0  0  0  0  0  0  0  0
   -1.2000   15.3020   -1.1600 C   0  0  2  0  0  0  0  0  0  0  0  0
   -3.5150   14.7830   -1.6670 N   0  0  0  0  0  0  0  0  0  0  0  0
   -0.3440   14.5930    1.0390 C   0  0  0  0  0  0  0  0  0  0  0  0
   -1.3510   15.0530   -2.7030 C   0  0  1  0  0  0  0  0  0  0  0  0
   -2.8620   15.1940   -2.9210 C   0  0  0  0  0  0  0  0  0  0  0  0
   -0.4380   14.3270   -0.3840 N   0  0  0  0  0  0  0  0  0  0  0  0
   -0.6140   16.1780   -3.2820 O   0  0  0  0  0  0  0  0  0  0  0  0
   -0.7550   13.8350   -3.4670 C   0  0  1  0  0  0  0  0  0  0  0  0
   -1.6170   12.7520   -3.7580 O   0  0  0  0  0  0  0  0  0  0  0  0
   -0.3350   15.8940   -4.6550 C   0  0  2  0  0  0  0  0  0  0  0  0
   -0.1790   14.3820   -4.7820 C   0  0  1  0  0  0  0  0  0  0  0  0
    0.8570   16.7110   -5.1130 C   0  0  0  0  0  0  0  0  0  0  0  0
    1.1470   13.9080   -5.0040 O   0  0  0  0  0  0  0  0  0  0  0  0
  2  1  1  1
  2  3  1  0
  2  4  1  0
  3  5  1  0
  3  6  1  6
  4  7  1  0
  5  8  1  0
  6  9  1  0
  8  9  1  6
  5 10  1  1
  7 10  1  0
  8 11  1  0
  8 12  1  0
 12 13  1  6
 11 14  1  0
 12 15  1  0
 14 15  1  0
 14 16  1  1
 15 17  1  1
M  END
