5CB5_0_A_β-5cms_Q_16_Q_γ
     RDKit          3D

 16 16  0  0  0  0  0  0  0  0999 V2000
   -1.4550   20.6340   -8.2480 O   0  0  0  0  0  0  0  0  0  0  0  0
   -0.4410   19.3590   -7.9150 P   0  0  0  0  0  0  0  0  0  0  0  0
   -0.2330   18.7200   -6.4150 O   0  0  0  0  0  0  0  0  0  0  0  0
    0.6890   20.3540   -7.6680 O   0  0  0  0  0  0  0  0  0  0  0  0
    0.2060   18.5400   -9.0780 O   0  0  0  0  0  0  0  0  0  0  0  0
   -1.5980   18.1740   -5.8090 P   0  0  0  0  0  0  0  0  0  0  0  0
   -1.2260   16.6360   -5.5870 O   0  0  0  0  0  0  0  0  0  0  0  0
   -2.8310   17.5670   -6.7860 O   0  0  0  0  0  0  0  0  0  0  0  0
   -1.8990   18.5300   -4.3010 O   0  0  0  0  0  0  0  0  0  0  0  0
   -0.1640   15.9430   -4.9310 C   0  0  1  0  0  0  0  0  0  0  0  0
   -0.2790   15.9400   -3.5410 O   0  0  0  0  0  0  0  0  0  0  0  0
   -0.0250   14.4750   -5.2570 C   0  0  1  0  0  0  0  0  0  0  0  0
    1.2930   13.9790   -5.1540 O   0  0  0  0  0  0  0  0  0  0  0  0
   -1.2420   14.9540   -3.2670 C   0  0  0  0  0  0  0  0  0  0  0  0
   -0.7370   13.7710   -4.0950 C   0  0  1  0  0  0  0  0  0  0  0  0
   -1.7370   12.9930   -4.6210 O   0  0  0  0  0  0  0  0  0  0  0  0
  1  2  1  0
  2  3  1  0
  2  4  1  0
  2  5  1  0
  3  6  1  0
  6  7  1  0
  6  8  1  0
  6  9  1  0
 10  7  1  6
 10 11  1  0
 10 12  1  0
 12 13  1  1
 11 14  1  0
 12 15  1  0
 14 15  1  0
 15 16  1  6
M  CHG  2   4  -1   8  -1
M  END
