5cb5_Q_0_Q_γ-5CB5_0_A_α
     RDKit          3D

 21 22  0  0  0  0  0  0  0  0999 V2000
   -0.5080   12.7220   -4.0050 O   0  0  0  0  0  0  0  0  0  0  0  0
   -0.7200   14.1080   -4.2030 C   0  0  1  0  0  0  0  0  0  0  0  0
   -0.4140   14.9600   -2.9840 C   0  0  0  0  0  0  0  0  0  0  0  0
    0.2500   14.7140   -5.1930 C   0  0  2  0  0  0  0  0  0  0  0  0
    1.5810   14.3100   -4.8930 O   0  0  0  0  0  0  0  0  0  0  0  0
   -0.0160   16.2540   -3.4910 O   0  0  0  0  0  0  0  0  0  0  0  0
   -0.1030   16.1770   -4.9230 C   0  0  1  0  0  0  0  0  0  0  0  0
    0.7460   17.2800   -5.5470 C   0  0  0  0  0  0  0  0  0  0  0  0
    0.1030   18.0450   -6.7030 C   0  0  0  0  0  0  0  0  0  0  0  0
   -0.4650   19.3960   -6.4360 C   0  0  0  0  0  0  0  0  0  0  0  0
   -1.6530   19.7110   -7.3080 C   0  0  0  0  0  0  0  0  0  0  0  0
   -1.3260   20.7980   -8.3260 C   0  0  0  0  0  0  0  0  0  0  0  0
   -2.0670   22.1010   -8.0300 C   0  0  0  0  0  0  0  0  0  0  0  0
   -3.4620   22.1290   -8.6570 C   0  0  1  0  0  0  0  0  0  0  0  0
   -4.2710   21.3420   -7.7970 O   0  0  0  0  0  0  0  0  0  0  0  0
   -4.1230   23.5060   -8.7390 C   0  0  1  0  0  0  0  0  0  0  0  0
   -4.3860   23.9240  -10.0670 O   0  0  0  0  0  0  0  0  0  0  0  0
   -5.5470   21.9460   -7.6260 C   0  0  2  0  0  0  0  0  0  0  0  0
   -5.4290   23.4180   -7.9500 C   0  0  1  0  0  0  0  0  0  0  0  0
   -5.9590   21.7600   -6.2760 O   0  0  0  0  0  0  0  0  0  0  0  0
   -5.4710   24.2300   -6.7840 O   0  0  0  0  0  0  0  0  0  0  0  0
  2  1  1  1
  2  3  1  0
  2  4  1  0
  4  5  1  1
  3  6  1  0
  4  7  1  0
  6  7  1  0
  7  8  1  6
  8  9  1  0
  9 10  1  0
 10 11  1  0
 11 12  1  0
 12 13  1  0
 14 13  1  1
 14 15  1  0
 14 16  1  0
 16 17  1  6
 15 18  1  0
 16 19  1  0
 18 19  1  0
 18 20  1  1
 19 21  1  1
M  END
