5CB5_0_I_δ-5CB5_0_J_α
     RDKit          3D

 24 26  0  0  0  0  0  0  0  0999 V2000
   -3.9460   15.5810    1.6320 N   0  0  0  0  0  0  0  0  0  0  0  0
   -2.9000   14.9080    0.8820 C   0  0  1  0  0  0  0  0  0  0  0  0
   -2.5770   15.4940   -0.5090 C   0  0  1  0  0  0  0  0  0  0  0  0
   -1.7480   15.0200    1.7510 N   0  0  0  0  0  0  0  0  0  0  0  0
   -1.3320   14.7510   -0.9300 C   0  0  1  0  0  0  0  0  0  0  0  0
   -3.4430   15.3140   -1.7040 N   0  0  0  0  0  0  0  0  0  0  0  0
   -0.5050   14.4800    1.2240 C   0  0  0  0  0  0  0  0  0  0  0  0
   -1.1480   15.2210   -2.2670 N   0  0  0  0  0  0  0  0  0  0  0  0
   -2.4800   15.0470   -2.8180 C   0  0  2  0  0  0  0  0  0  0  0  0
   -0.2240   15.0450   -0.0780 N   0  0  0  0  0  0  0  0  0  0  0  0
   -2.7510   15.8910   -4.0980 C   0  0  0  0  0  0  0  0  0  0  0  0
   -1.7250   16.9830   -4.5440 C   0  0  0  0  0  0  0  0  0  0  0  0
   -2.0620   17.7230   -5.8690 C   0  0  0  0  0  0  0  0  0  0  0  0
   -2.1700   19.2740   -5.7510 C   0  0  0  0  0  0  0  0  0  0  0  0
   -3.1850   19.8830   -6.7320 C   0  0  0  0  0  0  0  0  0  0  0  0
   -4.0590   20.8900   -6.1660 O   0  0  0  0  0  0  0  0  0  0  0  0
   -4.7830   21.5850   -7.1970 C   0  0  2  0  0  0  0  0  0  0  0  0
   -4.3300   21.1180   -8.4590 O   0  0  0  0  0  0  0  0  0  0  0  0
   -4.4980   23.1070   -7.1410 C   0  0  2  0  0  0  0  0  0  0  0  0
   -5.7170   23.8870   -7.1130 O   0  0  0  0  0  0  0  0  0  0  0  0
   -3.3190   22.0160   -8.9060 C   0  0  1  0  0  0  0  0  0  0  0  0
   -3.7730   23.3930   -8.4650 C   0  0  1  0  0  0  0  0  0  0  0  0
   -1.9500   21.6430   -8.3480 C   0  0  0  0  0  0  0  0  0  0  0  0
   -4.6130   24.0050   -9.4470 O   0  0  0  0  0  0  0  0  0  0  0  0
  2  1  1  1
  2  3  1  0
  2  4  1  0
  3  5  1  0
  3  6  1  6
  4  7  1  0
  5  8  1  6
  6  9  1  0
  8  9  1  0
  5 10  1  0
  7 10  1  0
  9 11  1  6
 11 12  1  0
 12 13  1  0
 13 14  1  0
 14 15  1  0
 15 16  1  0
 17 16  1  1
 17 18  1  0
 17 19  1  0
 19 20  1  6
 18 21  1  0
 19 22  1  0
 21 22  1  0
 21 23  1  1
 22 24  1  6
M  END
