5cb5_G_0_G_β-2FAV_0_B_δ
     RDKit          3D

 21 22  0  0  0  0  0  0  0  0999 V2000
   -1.5550   20.4840   -8.4470 O   0  0  0  0  0  0  0  0  0  0  0  0
   -0.2410   19.8470   -7.8280 P   0  0  0  0  0  0  0  0  0  0  0  0
   -0.5380   19.1890   -6.4380 O   0  0  0  0  0  0  0  0  0  0  0  0
    0.9120   20.7780   -7.8200 O   0  0  0  0  0  0  0  0  0  0  0  0
   -0.0140   18.5830   -8.7820 O   0  0  0  0  0  0  0  0  0  0  0  0
   -1.8730   18.5180   -5.9840 P   0  0  2  0  0  0  0  0  0  0  0  0
   -1.5480   17.7070   -4.6600 O   0  0  0  0  0  0  0  0  0  0  0  0
   -2.6980   17.7920   -6.9760 O   0  0  0  0  0  0  0  0  0  0  0  0
   -2.6260   19.7200   -5.2620 O   0  0  0  0  0  0  0  0  0  0  0  0
   -1.7620   16.3050   -4.6360 C   0  0  0  0  0  0  0  0  0  0  0  0
   -2.7300   15.9640   -3.5160 C   0  0  0  0  0  0  0  0  0  0  0  0
   -2.6510   14.6480   -2.7760 C   0  0  1  0  0  0  0  0  0  0  0  0
   -1.3000   14.3810   -2.2910 N   0  0  0  0  0  0  0  0  0  0  0  0
   -3.5790   14.6300   -1.6150 N   0  0  0  0  0  0  0  0  0  0  0  0
   -1.3910   14.6830   -0.8850 C   0  0  1  0  0  0  0  0  0  0  0  0
   -2.7070   14.0380   -0.5610 C   0  0  1  0  0  0  0  0  0  0  0  0
   -0.3190   14.0320   -0.1700 N   0  0  0  0  0  0  0  0  0  0  0  0
   -2.9720   14.3250    0.9260 C   0  0  2  0  0  0  0  0  0  0  0  0
   -4.1180   15.1470    1.2500 N   0  0  0  0  0  0  0  0  0  0  0  0
   -0.5300   14.2570    1.2620 C   0  0  0  0  0  0  0  0  0  0  0  0
   -1.8020   14.9390    1.5210 N   0  0  0  0  0  0  0  0  0  0  0  0
  1  2  1  0
  2  3  1  0
  2  4  2  0
  2  5  1  0
  3  6  1  0
  6  7  1  0
  6  8  2  0
  6  9  1  1
  7 10  1  0
 10 11  1  0
 12 11  1  1
 12 13  1  0
 12 14  1  0
 15 13  1  6
 16 14  1  6
 15 16  1  0
 15 17  1  0
 16 18  1  0
 18 19  1  6
 17 20  1  0
 18 21  1  0
 20 21  1  0
M  END
