5CB5_0_M_β-5CB5_0_K_γ
     RDKit          3D

 18 18  0  0  0  0  0  0  0  0999 V2000
   -1.5530   20.9520   -8.7840 O   0  0  0  0  0  0  0  0  0  0  0  0
   -0.5530   19.8260   -8.0780 P   0  0  0  0  0  0  0  0  0  0  0  0
   -0.5370   19.6340   -6.5190 O   0  0  0  0  0  0  0  0  0  0  0  0
    0.1760   18.6810   -8.9760 O   0  0  0  0  0  0  0  0  0  0  0  0
    0.6320   20.7600   -8.0580 O   0  0  0  0  0  0  0  0  0  0  0  0
   -1.8940   18.9900   -5.9680 P   0  0  0  0  0  0  0  0  0  0  0  0
   -1.0910   17.8560   -5.3310 O   0  0  0  0  0  0  0  0  0  0  0  0
   -2.6940   17.7630   -6.8510 O   0  0  0  0  0  0  0  0  0  0  0  0
   -2.5220   19.5870   -4.6620 O   0  0  0  0  0  0  0  0  0  0  0  0
    0.2720   17.8310   -5.6440 C   0  0  0  0  0  0  0  0  0  0  0  0
    0.8060   16.5710   -5.1340 C   0  0  0  0  0  0  0  0  0  0  0  0
   -0.2460   15.6130   -4.7450 C   0  0  2  0  0  0  0  0  0  0  0  0
   -0.3180   15.5810   -3.3580 O   0  0  0  0  0  0  0  0  0  0  0  0
   -0.0460   14.1940   -5.1230 C   0  0  1  0  0  0  0  0  0  0  0  0
    1.2610   13.7960   -4.8560 O   0  0  0  0  0  0  0  0  0  0  0  0
   -0.9800   14.4410   -2.9930 C   0  0  0  0  0  0  0  0  0  0  0  0
   -0.9870   13.5130   -4.1750 C   0  0  2  0  0  0  0  0  0  0  0  0
   -0.4200   12.2680   -3.8810 O   0  0  0  0  0  0  0  0  0  0  0  0
  1  2  1  0
  2  3  1  0
  2  4  1  0
  2  5  1  0
  3  6  1  0
  6  7  1  0
  6  8  1  0
  6  9  1  0
  7 10  1  0
 10 11  1  0
 12 11  1  1
 12 13  1  0
 12 14  1  0
 14 15  1  1
 13 16  1  0
 14 17  1  0
 16 17  1  0
 17 18  1  1
M  CHG  2   4  -1   8  -1
M  END
