5CB5_0_E_β-5CB5_0_P_γ
     RDKit          3D

 16 16  0  0  0  0  0  0  0  0999 V2000
   -1.3590   20.0210   -8.6650 O   0  0  0  0  0  0  0  0  0  0  0  0
   -0.1510   19.6800   -7.6180 P   0  0  0  0  0  0  0  0  0  0  0  0
   -0.2030   18.3360   -6.6550 O   0  0  0  0  0  0  0  0  0  0  0  0
    0.3860   18.8060   -8.7020 O   0  0  0  0  0  0  0  0  0  0  0  0
    1.0780   20.6710   -7.5650 O   0  0  0  0  0  0  0  0  0  0  0  0
   -1.6050   18.1090   -5.9450 P   0  0  0  0  0  0  0  0  0  0  0  0
   -1.3410   16.6340   -5.4610 O   0  0  0  0  0  0  0  0  0  0  0  0
   -2.8660   17.4030   -6.7910 O   0  0  0  0  0  0  0  0  0  0  0  0
   -1.8820   18.7420   -4.4950 O   0  0  0  0  0  0  0  0  0  0  0  0
   -0.2030   16.0130   -4.9120 C   0  0  1  0  0  0  0  0  0  0  0  0
   -0.2120   16.0620   -3.5220 O   0  0  0  0  0  0  0  0  0  0  0  0
   -0.0570   14.5560   -5.2320 C   0  0  1  0  0  0  0  0  0  0  0  0
    1.2780   14.1510   -5.4470 O   0  0  0  0  0  0  0  0  0  0  0  0
   -1.0590   15.0070   -3.1450 C   0  0  0  0  0  0  0  0  0  0  0  0
   -0.4160   13.8620   -3.9170 C   0  0  1  0  0  0  0  0  0  0  0  0
   -1.2710   12.8410   -4.2050 O   0  0  0  0  0  0  0  0  0  0  0  0
  1  2  1  0
  2  3  1  0
  2  4  1  0
  2  5  1  0
  3  6  1  0
  6  7  1  0
  6  8  1  0
  6  9  1  0
 10  7  1  6
 10 11  1  0
 10 12  1  0
 12 13  1  1
 11 14  1  0
 12 15  1  0
 14 15  1  0
 15 16  1  6
M  CHG  2   4  -1   8  -1
M  END
