5cb5_F_1_F_γ-5CB5_0_R_α
     RDKit          3D

 21 22  0  0  0  0  0  0  0  0999 V2000
   -0.8420   12.4370   -4.1450 O   0  0  0  0  0  0  0  0  0  0  0  0
   -0.9750   13.8390   -4.1100 C   0  0  1  0  0  0  0  0  0  0  0  0
   -0.5310   14.4780   -2.8000 C   0  0  0  0  0  0  0  0  0  0  0  0
   -0.0420   14.5050   -5.0870 C   0  0  2  0  0  0  0  0  0  0  0  0
    1.2480   13.8900   -5.0390 O   0  0  0  0  0  0  0  0  0  0  0  0
    0.0170   15.7670   -3.1370 O   0  0  0  0  0  0  0  0  0  0  0  0
   -0.1750   15.9250   -4.5540 C   0  0  1  0  0  0  0  0  0  0  0  0
    0.7760   16.9830   -5.0810 C   0  0  0  0  0  0  0  0  0  0  0  0
    0.3050   17.7280   -6.3170 C   0  0  0  0  0  0  0  0  0  0  0  0
   -0.2620   19.0990   -6.1850 C   0  0  0  0  0  0  0  0  0  0  0  0
   -1.4550   19.3500   -7.1000 C   0  0  0  0  0  0  0  0  0  0  0  0
   -1.2860   20.5600   -8.0110 C   0  0  0  0  0  0  0  0  0  0  0  0
   -2.2180   21.7180   -7.6290 C   0  0  0  0  0  0  0  0  0  0  0  0
   -3.4940   21.8400   -8.4860 C   0  0  1  0  0  0  0  0  0  0  0  0
   -4.4560   20.8930   -8.0060 O   0  0  0  0  0  0  0  0  0  0  0  0
   -4.1200   23.2440   -8.4180 C   0  0  1  0  0  0  0  0  0  0  0  0
   -4.5010   23.8520   -9.6440 O   0  0  0  0  0  0  0  0  0  0  0  0
   -5.4940   21.5820   -7.3360 C   0  0  2  0  0  0  0  0  0  0  0  0
   -5.3410   23.0860   -7.5450 C   0  0  1  0  0  0  0  0  0  0  0  0
   -5.4420   21.2940   -5.9530 O   0  0  0  0  0  0  0  0  0  0  0  0
   -5.2490   23.8310   -6.3420 O   0  0  0  0  0  0  0  0  0  0  0  0
  2  1  1  1
  2  3  1  0
  2  4  1  0
  4  5  1  1
  3  6  1  0
  4  7  1  0
  6  7  1  0
  7  8  1  6
  8  9  1  0
  9 10  1  0
 10 11  1  0
 11 12  1  0
 12 13  1  0
 14 13  1  1
 14 15  1  0
 14 16  1  0
 16 17  1  6
 15 18  1  0
 16 19  1  0
 18 19  1  0
 18 20  1  1
 19 21  1  1
M  END
