5CB5_0_I_α-x0918_0_B_α
     RDKit          3D

 20 21  0  0  0  0  0  0  0  0999 V2000
   -1.7410   22.0340   -8.0400 C   0  0  0  0  0  0  0  0  0  0  0  0
   -3.1490   21.9920   -8.6290 C   0  0  1  0  0  0  0  0  0  0  0  0
   -3.8800   21.1070   -7.7970 O   0  0  0  0  0  0  0  0  0  0  0  0
   -3.9180   23.3200   -8.5990 C   0  0  1  0  0  0  0  0  0  0  0  0
   -4.9610   23.4680   -9.5760 O   0  0  0  0  0  0  0  0  0  0  0  0
   -4.9910   21.8130   -7.2350 C   0  0  2  0  0  0  0  0  0  0  0  0
   -4.5260   23.2440   -7.2000 C   0  0  2  0  0  0  0  0  0  0  0  0
   -5.2950   21.3330   -5.9360 O   0  0  0  0  0  0  0  0  0  0  0  0
   -5.6770   24.0930   -6.9910 O   0  0  0  0  0  0  0  0  0  0  0  0
   -6.0030   24.3880   -9.2600 C   0  0  0  0  0  0  0  0  0  0  0  0
   -6.8480   24.6470  -10.5090 C   0  0  0  0  0  0  0  0  0  0  0  0
   -6.8300   26.0780  -11.0500 C   0  0  0  0  0  0  0  0  0  0  0  0
   -5.6400   26.3960  -11.9660 C   0  0  0  0  0  0  0  0  0  0  0  0
   -5.6630   27.7420  -12.6640 C   0  0  0  0  0  0  0  0  0  0  0  0
   -6.8430   28.4090  -12.6920 N   0  0  0  0  0  0  0  0  0  0  0  0
   -4.5050   28.2450  -13.2590 C   0  0  0  0  0  0  0  0  0  0  0  0
   -4.5530   29.4630  -13.9240 C   0  0  0  0  0  0  0  0  0  0  0  0
   -6.8640   29.5890  -13.3430 C   0  0  0  0  0  0  0  0  0  0  0  0
   -3.4050   29.9850  -14.5360 N   0  0  0  0  0  0  0  0  0  0  0  0
   -5.7610   30.1420  -13.9700 C   0  0  0  0  0  0  0  0  0  0  0  0
  2  1  1  1
  2  3  1  0
  2  4  1  0
  4  5  1  6
  3  6  1  0
  4  7  1  0
  6  7  1  0
  6  8  1  1
  7  9  1  6
  5 10  1  0
 10 11  1  0
 11 12  1  0
 12 13  1  0
 13 14  1  0
 14 15  2  0
 14 16  1  0
 16 17  2  0
 15 18  1  0
 17 19  1  0
 17 20  1  0
 18 20  2  0
M  END
