5CB5_0_O_γ-5cb3_0_A_α
     RDKit          3D

 21 22  0  0  0  0  0  0  0  0999 V2000
   -0.7120   12.5080   -4.1180 O   0  0  0  0  0  0  0  0  0  0  0  0
   -0.9120   13.9020   -4.2460 C   0  0  1  0  0  0  0  0  0  0  0  0
   -0.6390   14.6790   -2.9690 C   0  0  0  0  0  0  0  0  0  0  0  0
    0.0940   14.5210   -5.1860 C   0  0  2  0  0  0  0  0  0  0  0  0
    1.3880   13.9620   -4.9610 O   0  0  0  0  0  0  0  0  0  0  0  0
   -0.1390   15.9720   -3.3790 O   0  0  0  0  0  0  0  0  0  0  0  0
   -0.1020   15.9960   -4.8220 C   0  0  1  0  0  0  0  0  0  0  0  0
    0.9830   16.9760   -5.2420 C   0  0  0  0  0  0  0  0  0  0  0  0
    0.6540   18.2330   -6.0640 C   0  0  0  0  0  0  0  0  0  0  0  0
   -0.7800   18.7740   -6.0010 C   0  0  0  0  0  0  0  0  0  0  0  0
   -0.8870   20.1410   -6.7080 C   0  0  0  0  0  0  0  0  0  0  0  0
   -1.8090   20.1630   -7.8870 C   0  0  0  0  0  0  0  0  0  0  0  0
   -2.1440   21.5370   -8.5130 C   0  0  0  0  0  0  0  0  0  0  0  0
   -3.3210   22.2760   -7.8500 C   0  0  2  0  0  0  0  0  0  0  0  0
   -4.1380   21.2850   -7.2200 O   0  0  0  0  0  0  0  0  0  0  0  0
   -4.3740   22.9670   -8.7170 C   0  0  2  0  0  0  0  0  0  0  0  0
   -4.0440   24.1290   -9.4170 O   0  0  0  0  0  0  0  0  0  0  0  0
   -5.4740   21.8060   -7.1280 C   0  0  2  0  0  0  0  0  0  0  0  0
   -5.4760   23.2010   -7.6920 C   0  0  1  0  0  0  0  0  0  0  0  0
   -5.8690   21.7530   -5.7830 O   0  0  0  0  0  0  0  0  0  0  0  0
   -5.2920   24.1950   -6.6840 O   0  0  0  0  0  0  0  0  0  0  0  0
  2  1  1  1
  2  3  1  0
  2  4  1  0
  4  5  1  1
  3  6  1  0
  4  7  1  0
  6  7  1  0
  7  8  1  1
  8  9  1  0
  9 10  1  0
 10 11  1  0
 11 12  1  0
 12 13  1  0
 14 13  1  6
 14 15  1  0
 14 16  1  0
 16 17  1  1
 15 18  1  0
 16 19  1  0
 18 19  1  0
 18 20  1  1
 19 21  1  1
M  END
