5cb5_P_0_P_γ-x0290_0_A_α
     RDKit          3D

 20 21  0  0  0  0  0  0  0  0999 V2000
   -0.6080   12.4770   -3.2850 O   0  0  0  0  0  0  0  0  0  0  0  0
   -1.1620   13.6940   -3.7760 C   0  0  1  0  0  0  0  0  0  0  0  0
   -1.2080   14.8710   -2.7550 C   0  0  2  0  0  0  0  0  0  0  0  0
   -0.2770   14.2540   -4.9100 C   0  0  2  0  0  0  0  0  0  0  0  0
    1.0380   13.6810   -4.8340 O   0  0  0  0  0  0  0  0  0  0  0  0
   -0.1730   15.7870   -3.1810 O   0  0  0  0  0  0  0  0  0  0  0  0
   -0.2540   15.7540   -4.6070 C   0  0  1  0  0  0  0  0  0  0  0  0
   -1.3290   14.7390   -1.2150 C   0  0  0  0  0  0  0  0  0  0  0  0
    0.8620   16.5810   -5.2240 C   0  0  0  0  0  0  0  0  0  0  0  0
   -0.2440   14.6400   -0.3250 C   0  0  0  0  0  0  0  0  0  0  0  0
   -2.6140   14.7260   -0.6330 C   0  0  0  0  0  0  0  0  0  0  0  0
   -0.5030   14.5480    1.0460 C   0  0  0  0  0  0  0  0  0  0  0  0
   -2.7940   14.6280    0.7420 C   0  0  0  0  0  0  0  0  0  0  0  0
   -4.0470   14.6170    1.3540 N   0  0  0  0  0  0  0  0  0  0  0  0
   -1.7400   14.5420    1.5970 N   0  0  0  0  0  0  0  0  0  0  0  0
   -5.3090   14.4350    0.8810 C   0  0  0  0  0  0  0  0  0  0  0  0
   -5.4750   14.5190   -0.3430 O   0  0  0  0  0  0  0  0  0  0  0  0
   -6.5120   14.1230    1.7700 C   0  0  0  0  0  0  0  0  0  0  0  0
   -7.7340   13.8170    1.0030 N   0  0  0  0  0  0  0  0  0  0  0  0
   -8.5480   14.9980    0.7370 C   0  0  0  0  0  0  0  0  0  0  0  0
  2  1  1  1
  2  3  1  0
  2  4  1  0
  4  5  1  1
  3  6  1  0
  4  7  1  0
  6  7  1  0
  3  8  1  1
  7  9  1  6
  8 10  2  0
  8 11  1  0
 10 12  1  0
 11 13  2  0
 13 14  1  0
 12 15  2  0
 13 15  1  0
 14 16  1  0
 16 17  2  0
 16 18  1  0
 18 19  1  0
 19 20  1  0
M  END
