5cb5_C_0_C_β-5CB5_0_K_α
     RDKit          3D

 17 17  0  0  0  0  0  0  0  0999 V2000
   -2.1610   20.9820   -7.6210 O   0  0  0  0  0  0  0  0  0  0  0  0
   -0.6890   20.2810   -7.8280 P   0  0  2  0  0  0  0  0  0  0  0  0
   -0.4130   19.4360   -6.5210 O   0  0  0  0  0  0  0  0  0  0  0  0
   -3.0710   21.6270   -8.5470 C   0  0  1  0  0  0  0  0  0  0  0  0
    0.4800   21.1790   -8.0620 O   0  0  0  0  0  0  0  0  0  0  0  0
   -0.7580   19.0270   -8.8110 O   0  0  0  0  0  0  0  0  0  0  0  0
   -4.3750   21.0320   -8.4080 O   0  0  0  0  0  0  0  0  0  0  0  0
   -3.3930   23.1290   -8.2750 C   0  0  1  0  0  0  0  0  0  0  0  0
   -1.5270   18.4290   -6.0430 P   0  0  0  0  0  0  0  0  0  0  0  0
   -4.0360   23.8360   -9.3580 O   0  0  0  0  0  0  0  0  0  0  0  0
   -5.1110   21.7430   -7.4050 C   0  0  2  0  0  0  0  0  0  0  0  0
   -4.3700   23.0470   -7.1070 C   0  0  2  0  0  0  0  0  0  0  0  0
   -0.7770   17.1270   -5.5240 O   0  0  0  0  0  0  0  0  0  0  0  0
   -2.6150   18.1690   -6.9860 O   0  0  0  0  0  0  0  0  0  0  0  0
   -2.0040   19.1340   -4.7000 O   0  0  0  0  0  0  0  0  0  0  0  0
   -5.1270   20.9830   -6.2120 O   0  0  0  0  0  0  0  0  0  0  0  0
   -5.3210   24.1300   -7.1150 O   0  0  0  0  0  0  0  0  0  0  0  0
  1  2  1  0
  2  3  1  0
  4  1  1  1
  2  5  2  0
  2  6  1  6
  4  7  1  0
  4  8  1  0
  3  9  1  0
  8 10  1  6
  7 11  1  0
  8 12  1  0
 11 12  1  0
  9 13  1  0
  9 14  2  0
  9 15  1  0
 11 16  1  1
 12 17  1  6
M  END
