5cb5_E_0_E_γ-x1018_0_A_α
     RDKit          3D

 19 21  0  0  0  0  0  0  0  0999 V2000
   -0.8960   13.0070   -3.5640 O   0  0  0  0  0  0  0  0  0  0  0  0
   -1.2490   14.0260   -4.4970 C   0  0  1  0  0  0  0  0  0  0  0  0
   -1.7330   15.3780   -3.9350 C   0  0  1  0  0  0  0  0  0  0  0  0
    0.0460   14.4850   -5.1930 C   0  0  2  0  0  0  0  0  0  0  0  0
    1.1970   13.8920   -4.6180 O   0  0  0  0  0  0  0  0  0  0  0  0
   -2.7380   15.5760   -2.8210 C   0  0  0  0  0  0  0  0  0  0  0  0
   -0.5690   16.1660   -3.7400 O   0  0  0  0  0  0  0  0  0  0  0  0
   -0.1040   16.0200   -5.0680 C   0  0  1  0  0  0  0  0  0  0  0  0
    1.0320   16.9510   -5.3450 C   0  0  0  0  0  0  0  0  0  0  0  0
   -3.3100   14.4930   -2.0800 N   0  0  0  0  0  0  0  0  0  0  0  0
   -2.9740   14.6070   -0.6840 N   0  0  0  0  0  0  0  0  0  0  0  0
   -4.7320   14.4410   -2.2540 N   0  0  0  0  0  0  0  0  0  0  0  0
   -5.1920   14.6860   -0.9800 N   0  0  0  0  0  0  0  0  0  0  0  0
   -4.2090   14.1500   -0.0730 C   0  0  2  0  0  0  0  0  0  0  0  0
   -6.5220   14.5540   -0.7340 N   0  0  0  0  0  0  0  0  0  0  0  0
   -4.5130   14.6460    1.2670 C   0  0  0  0  0  0  0  0  0  0  0  0
   -6.8030   14.6460    0.5310 C   0  0  0  0  0  0  0  0  0  0  0  0
   -5.7850   14.8850    1.5980 C   0  0  0  0  0  0  0  0  0  0  0  0
   -8.4690   14.4960    0.9620 Cl  0  0  0  0  0  0  0  0  0  0  0  0
  2  1  1  1
  2  3  1  0
  2  4  1  0
  4  5  1  1
  3  6  1  1
  3  7  1  0
  4  8  1  0
  7  8  1  0
  8  9  1  1
  6 10  1  0
 10 11  1  0
 10 12  1  0
 12 13  1  0
 11 14  1  0
 13 14  1  0
 13 15  1  0
 14 16  1  1
 15 17  2  0
 16 18  2  0
 17 18  1  0
 17 19  1  0
M  END
