5CB5_0_C_γ-6fx_7_0A_γ
     RDKit          3D

  8  8  0  0  0  0  0  0  0  0999 V2000
   -0.5970   12.4990   -3.7630 O   0  0  0  0  0  0  0  0  0  0  0  0
   -1.0040   13.8370   -4.0290 C   0  0  1  0  0  0  0  0  0  0  0  0
   -0.7100   14.7510   -2.8470 C   0  0  0  0  0  0  0  0  0  0  0  0
   -0.1310   14.4220   -5.1170 C   0  0  2  0  0  0  0  0  0  0  0  0
    1.1750   13.8580   -5.0740 O   0  0  0  0  0  0  0  0  0  0  0  0
   -0.1250   15.9640   -3.3770 O   0  0  0  0  0  0  0  0  0  0  0  0
   -0.2510   15.9150   -4.8000 C   0  0  1  0  0  0  0  0  0  0  0  0
    0.7460   16.8740   -5.4340 C   0  0  0  0  0  0  0  0  0  0  0  0
  2  1  1  1
  2  3  1  0
  2  4  1  0
  4  5  1  1
  3  6  1  0
  4  7  1  0
  6  7  1  0
  7  8  1  6
M  END
