5CB5_0_L_δ-4jca_0_A_α
     RDKit          3D

 25 26  0  0  0  0  0  0  0  0999 V2000
   -3.5900   15.4430    1.8440 N   0  0  0  0  0  0  0  0  0  0  0  0
   -2.6190   14.6330    1.1560 C   0  0  1  0  0  0  0  0  0  0  0  0
   -2.8040   14.4320   -0.3460 C   0  0  2  0  0  0  0  0  0  0  0  0
   -1.2990   15.1630    1.4180 N   0  0  0  0  0  0  0  0  0  0  0  0
   -1.4550   14.5860   -1.0190 C   0  0  2  0  0  0  0  0  0  0  0  0
   -3.5950   15.3230   -1.1850 N   0  0  0  0  0  0  0  0  0  0  0  0
   -0.1660   14.4190    0.8600 C   0  0  0  0  0  0  0  0  0  0  0  0
   -1.7970   14.3790   -2.4170 N   0  0  0  0  0  0  0  0  0  0  0  0
   -3.1460   14.9810   -2.5300 C   0  0  0  0  0  0  0  0  0  0  0  0
   -0.4920   13.7350   -0.4120 N   0  0  0  0  0  0  0  0  0  0  0  0
    0.7090   13.6570   -1.2670 C   0  0  0  0  0  0  0  0  0  0  0  0
    0.8750   12.5210   -2.2980 C   0  0  0  0  0  0  0  0  0  0  0  0
    0.2520   11.2900   -1.8720 O   0  0  0  0  0  0  0  0  0  0  0  0
   -0.4120   10.5740   -2.8530 C   0  0  0  0  0  0  0  0  0  0  0  0
    0.5450   10.1720   -4.0140 C   0  0  0  0  0  0  0  0  0  0  0  0
   -1.5920   10.2810   -2.8020 O   0  0  0  0  0  0  0  0  0  0  0  0
   -0.0680    9.4090   -5.2160 C   0  0  0  0  0  0  0  0  0  0  0  0
    1.1650   11.4050   -4.6290 C   0  0  0  0  0  0  0  0  0  0  0  0
    1.6160    9.4750   -3.4410 O   0  0  0  0  0  0  0  0  0  0  0  0
   -0.8200    8.1450   -5.1120 C   0  0  0  0  0  0  0  0  0  0  0  0
    1.9430   11.0710   -5.8670 C   0  0  0  0  0  0  0  0  0  0  0  0
   -1.9820    7.9960   -4.8330 O   0  0  0  0  0  0  0  0  0  0  0  0
   -0.0860    7.0670   -5.3540 O   0  0  0  0  0  0  0  0  0  0  0  0
    3.1430   11.0050   -5.8560 O   0  0  0  0  0  0  0  0  0  0  0  0
    1.2240   10.8170   -6.9780 O   0  0  0  0  0  0  0  0  0  0  0  0
  2  1  1  6
  2  3  1  0
  2  4  1  0
  3  5  1  0
  3  6  1  6
  4  7  1  0
  5  8  1  6
  6  9  1  0
  8  9  1  0
  5 10  1  0
  7 10  1  0
 10 11  1  0
 11 12  1  0
 12 13  1  0
 13 14  1  0
 14 15  1  0
 14 16  2  0
 15 17  1  0
 15 18  1  0
 15 19  1  0
 17 20  1  0
 18 21  1  0
 20 22  2  0
 20 23  1  0
 21 24  2  0
 21 25  1  0
M  END
