5CB5_0_R_β-5MQX_0_A_α
     RDKit          3D

 20 20  0  0  0  0  0  0  0  0999 V2000
   -1.0120   21.2820   -8.4690 O   0  0  0  0  0  0  0  0  0  0  0  0
    0.0640   20.1100   -8.0390 P   0  0  0  0  0  0  0  0  0  0  0  0
   -0.6890   19.9710   -6.7650 O   0  0  0  0  0  0  0  0  0  0  0  0
    1.3990   20.6330   -7.2790 O   0  0  0  0  0  0  0  0  0  0  0  0
   -0.0880   18.5730   -8.5570 O   0  0  0  0  0  0  0  0  0  0  0  0
   -1.2980   18.6890   -5.8500 P   0  0  0  0  0  0  0  0  0  0  0  0
   -0.6080   17.2440   -5.7390 O   0  0  0  0  0  0  0  0  0  0  0  0
   -2.3310   18.1180   -6.8380 O   0  0  0  0  0  0  0  0  0  0  0  0
   -2.5620   19.3140   -5.0680 O   0  0  0  0  0  0  0  0  0  0  0  0
   -2.8370   20.6780   -5.1850 C   0  0  0  0  0  0  0  0  0  0  0  0
   -4.2760   21.1440   -5.6120 C   0  0  0  0  0  0  0  0  0  0  0  0
   -4.5900   20.6790   -7.0030 C   0  0  0  0  0  0  0  0  0  0  0  0
   -5.9670   20.0860   -7.3970 C   0  0  2  0  0  0  0  0  0  0  0  0
   -5.9260   18.6730   -7.2790 O   0  0  0  0  0  0  0  0  0  0  0  0
   -6.9310   20.4400   -8.5070 C   0  0  1  0  0  0  0  0  0  0  0  0
   -6.5360   21.1280   -9.6110 O   0  0  0  0  0  0  0  0  0  0  0  0
   -6.9900   18.0630   -7.9350 C   0  0  1  0  0  0  0  0  0  0  0  0
   -7.7580   19.1180   -8.7200 C   0  0  2  0  0  0  0  0  0  0  0  0
   -6.7250   16.8270   -8.4700 O   0  0  0  0  0  0  0  0  0  0  0  0
   -8.0450   18.8050  -10.0130 O   0  0  0  0  0  0  0  0  0  0  0  0
  1  2  1  0
  2  3  1  0
  2  4  1  0
  2  5  1  0
  3  6  1  0
  6  7  1  0
  6  8  1  0
  6  9  1  0
  9 10  1  0
 10 11  1  0
 11 12  1  0
 13 12  1  6
 13 14  1  0
 13 15  1  0
 15 16  1  6
 14 17  1  0
 15 18  1  0
 17 18  1  0
 17 19  1  6
 18 20  1  6
M  CHG  2   4  -1   8  -1
M  END
