5CB5_0_B_Î³
     RDKit          3D

  8  8  0  0  0  0  0  0  0  0999 V2000
   -0.7100   14.7250   -3.0060 C   0  0  0  0  0  0  0  0  0  0  0  0
   -0.1660   15.9840   -3.3560 O   0  0  0  0  0  0  0  0  0  0  0  0
   -1.2050   14.1270   -4.2820 C   0  0  1  0  0  0  0  0  0  0  0  0
    0.3490   15.9050   -4.7010 C   0  0  1  0  0  0  0  0  0  0  0  0
   -0.2090   14.6320   -5.2860 C   0  0  1  0  0  0  0  0  0  0  0  0
   -0.9490   12.7210   -4.2670 O   0  0  0  0  0  0  0  0  0  0  0  0
   -0.0220   17.1030   -5.5760 C   0  0  0  0  0  0  0  0  0  0  0  0
    0.9200   13.7580   -5.3540 O   0  0  0  0  0  0  0  0  0  0  0  0
  1  2  1  1
  1  3  1  0
  4  2  1  0
  5  3  1  0
  3  6  1  1
  4  7  1  6
  4  5  1  0
  5  8  1  1
M  END
