5CB5_0_A_γ-5CMS_0_B_δ
     RDKit          3D

 17 19  0  0  0  0  0  0  0  0999 V2000
   -1.5520   12.8220   -3.7980 O   0  0  0  0  0  0  0  0  0  0  0  0
   -0.6940   13.8890   -3.4150 C   0  0  2  0  0  0  0  0  0  0  0  0
   -1.3370   15.0390   -2.6020 C   0  0  2  0  0  0  0  0  0  0  0  0
   -0.1040   14.5310   -4.6800 C   0  0  2  0  0  0  0  0  0  0  0  0
    1.2930   14.3050   -4.7600 O   0  0  0  0  0  0  0  0  0  0  0  0
   -0.7820   16.2490   -3.1900 O   0  0  0  0  0  0  0  0  0  0  0  0
   -0.5380   15.9910   -4.5880 C   0  0  1  0  0  0  0  0  0  0  0  0
   -1.1640   15.1660   -1.0420 C   0  0  1  0  0  0  0  0  0  0  0  0
   -2.8950   15.0030   -2.7290 C   0  0  0  0  0  0  0  0  0  0  0  0
    0.4410   17.0300   -5.1360 C   0  0  0  0  0  0  0  0  0  0  0  0
   -2.5950   15.5440   -0.5960 C   0  0  1  0  0  0  0  0  0  0  0  0
   -3.4660   14.7020   -1.3940 N   0  0  0  0  0  0  0  0  0  0  0  0
   -0.5750   14.0920   -0.2260 N   0  0  0  0  0  0  0  0  0  0  0  0
   -0.5780   14.4290    1.1880 C   0  0  0  0  0  0  0  0  0  0  0  0
   -2.6950   15.5710    0.9470 C   0  0  1  0  0  0  0  0  0  0  0  0
   -4.0490   15.5790    1.4800 N   0  0  0  0  0  0  0  0  0  0  0  0
   -1.9370   14.5760    1.6590 N   0  0  0  0  0  0  0  0  0  0  0  0
  2  1  1  6
  2  3  1  0
  2  4  1  0
  4  5  1  1
  3  6  1  0
  4  7  1  0
  6  7  1  0
  3  8  1  0
  3  9  1  1
  7 10  1  1
  8 11  1  0
  9 12  1  0
 11 12  1  1
  8 13  1  1
 13 14  1  0
 11 15  1  0
 15 16  1  6
 14 17  1  0
 15 17  1  0
M  END
