5cb5_B_0_B_γ-3ew5_B_0_B_α
     RDKit          3D

 19 19  0  0  0  0  0  0  0  0999 V2000
   -0.5590   12.4350   -3.9420 O   0  0  0  0  0  0  0  0  0  0  0  0
   -0.9180   13.8080   -4.0030 C   0  0  1  0  0  0  0  0  0  0  0  0
   -0.4760   14.6080   -2.7810 C   0  0  0  0  0  0  0  0  0  0  0  0
   -0.1780   14.5220   -5.1130 C   0  0  2  0  0  0  0  0  0  0  0  0
    1.2030   14.1170   -5.0530 O   0  0  0  0  0  0  0  0  0  0  0  0
   -0.0090   15.8890   -3.2530 O   0  0  0  0  0  0  0  0  0  0  0  0
   -0.3940   15.9540   -4.6330 C   0  0  1  0  0  0  0  0  0  0  0  0
    0.2160   17.1540   -5.3670 C   0  0  0  0  0  0  0  0  0  0  0  0
   -0.8280   17.9920   -6.1080 C   0  0  0  0  0  0  0  0  0  0  0  0
   -0.4040   19.3190   -6.2660 O   0  0  0  0  0  0  0  0  0  0  0  0
   -0.1960   19.8780   -7.7460 P   0  0  2  0  0  0  0  0  0  0  0  0
   -1.4850   20.8340   -7.9560 O   0  0  0  0  0  0  0  0  0  0  0  0
    0.0750   18.8360   -8.7790 O   0  0  0  0  0  0  0  0  0  0  0  0
    1.0160   20.9150   -7.5580 O   0  0  0  0  0  0  0  0  0  0  0  0
   -2.5140   20.8170   -6.9670 C   0  0  0  0  0  0  0  0  0  0  0  0
   -3.6870   21.7820   -7.2550 C   0  0  2  0  0  0  0  0  0  0  0  0
   -5.0730   21.1580   -7.0760 C   0  0  0  0  0  0  0  0  0  0  0  0
   -3.6500   22.2490   -8.6060 O   0  0  0  0  0  0  0  0  0  0  0  0
   -5.7140   21.6040   -5.8760 O   0  0  0  0  0  0  0  0  0  0  0  0
  2  1  1  1
  2  3  1  0
  2  4  1  0
  4  5  1  1
  3  6  1  0
  4  7  1  0
  6  7  1  0
  7  8  1  6
  8  9  1  0
  9 10  1  0
 10 11  1  0
 11 12  1  0
 11 13  2  0
 11 14  1  1
 12 15  1  0
 15 16  1  0
 16 17  1  0
 16 18  1  6
 17 19  1  0
M  END
