5CB5_0_O_β-mArh-6fx_7_0A_γ
     RDKit          3D

 16 16  0  0  0  0  0  0  0  0999 V2000
   -1.5420   20.2570   -8.3790 O   0  0  0  0  0  0  0  0  0  0  0  0
   -0.1830   19.7510   -7.5840 P   0  0  0  0  0  0  0  0  0  0  0  0
   -0.2050   18.3600   -6.6660 O   0  0  0  0  0  0  0  0  0  0  0  0
    0.2290   18.8960   -8.7520 O   0  0  0  0  0  0  0  0  0  0  0  0
    1.0790   20.7030   -7.6280 O   0  0  0  0  0  0  0  0  0  0  0  0
   -1.6500   18.1270   -6.0280 P   0  0  0  0  0  0  0  0  0  0  0  0
   -1.3930   16.7970   -5.2240 O   0  0  0  0  0  0  0  0  0  0  0  0
   -2.7980   17.1970   -6.8150 O   0  0  0  0  0  0  0  0  0  0  0  0
   -2.1000   19.0050   -4.7540 O   0  0  0  0  0  0  0  0  0  0  0  0
   -0.2330   16.0730   -4.9190 C   0  0  1  0  0  0  0  0  0  0  0  0
   -0.0450   16.0350   -3.5410 O   0  0  0  0  0  0  0  0  0  0  0  0
   -0.2370   14.6240   -5.2970 C   0  0  1  0  0  0  0  0  0  0  0  0
    1.0500   14.0770   -5.4650 O   0  0  0  0  0  0  0  0  0  0  0  0
   -0.9940   15.0950   -3.0950 C   0  0  0  0  0  0  0  0  0  0  0  0
   -0.7800   13.9280   -4.0530 C   0  0  1  0  0  0  0  0  0  0  0  0
   -1.9450   13.3050   -4.4110 O   0  0  0  0  0  0  0  0  0  0  0  0
  1  2  1  0
  2  3  1  0
  2  4  1  0
  2  5  1  0
  3  6  1  0
  6  7  1  0
  6  8  1  0
  6  9  1  0
 10  7  1  1
 10 11  1  0
 10 12  1  0
 12 13  1  1
 11 14  1  0
 12 15  1  0
 14 15  1  0
 15 16  1  6
M  CHG  2   4  -1   8  -1
M  END
