5cb5_L_0_L_γ-6MEA_0_A_γ
     RDKit          3D

  8  8  0  0  0  0  0  0  0  0999 V2000
   -0.3070   12.4050   -3.8530 O   0  0  0  0  0  0  0  0  0  0  0  0
   -0.7620   13.7230   -4.1590 C   0  0  1  0  0  0  0  0  0  0  0  0
   -0.5610   14.6690   -2.9830 C   0  0  0  0  0  0  0  0  0  0  0  0
    0.1210   14.3460   -5.2200 C   0  0  2  0  0  0  0  0  0  0  0  0
    1.4470   13.8480   -5.1460 O   0  0  0  0  0  0  0  0  0  0  0  0
   -0.0900   15.9300   -3.5030 O   0  0  0  0  0  0  0  0  0  0  0  0
   -0.0980   15.8350   -4.9310 C   0  0  1  0  0  0  0  0  0  0  0  0
    0.8610   16.8560   -5.5120 C   0  0  0  0  0  0  0  0  0  0  0  0
  2  1  1  1
  2  3  1  0
  2  4  1  0
  4  5  1  1
  3  6  1  0
  4  7  1  0
  6  7  1  0
  7  8  1  6
M  END
