5CB5_0_B_α-mArh-EU0815_0_A_β
     RDKit          3D

 22 23  0  0  0  0  0  0  0  0999 V2000
   -2.1180   21.3660   -8.5940 C   0  0  0  0  0  0  0  0  0  0  0  0
   -3.4320   22.0150   -9.0360 C   0  0  1  0  0  0  0  0  0  0  0  0
   -4.5270   21.3540   -8.4140 O   0  0  0  0  0  0  0  0  0  0  0  0
   -3.6020   23.4290   -8.5070 C   0  0  1  0  0  0  0  0  0  0  0  0
   -4.5190   24.1210   -9.3760 O   0  0  0  0  0  0  0  0  0  0  0  0
   -4.2910   21.6520   -7.0510 C   0  0  2  0  0  0  0  0  0  0  0  0
   -4.2470   23.1960   -7.1200 C   0  0  2  0  0  0  0  0  0  0  0  0
   -2.9820   21.0560   -6.8060 O   0  0  0  0  0  0  0  0  0  0  0  0
   -5.5180   23.8480   -7.0020 O   0  0  0  0  0  0  0  0  0  0  0  0
   -2.7210   20.0750   -5.7540 C   0  0  0  0  0  0  0  0  0  0  0  0
   -2.4970   18.5830   -6.2700 C   0  0  0  0  0  0  0  0  0  0  0  0
   -2.2210   17.3990   -5.2420 C   0  0  0  0  0  0  0  0  0  0  0  0
   -3.2110   16.1430   -5.1230 C   0  0  0  0  0  0  0  0  0  0  0  0
   -3.4950   15.4970   -3.6790 C   0  0  0  0  0  0  0  0  0  0  0  0
   -4.8520   15.5940   -3.0390 O   0  0  0  0  0  0  0  0  0  0  0  0
   -4.9290   15.2270   -1.6690 C   0  0  0  0  0  0  0  0  0  0  0  0
   -3.7550   14.7590   -1.0830 C   0  0  0  0  0  0  0  0  0  0  0  0
   -6.0930   15.2970   -0.8650 C   0  0  0  0  0  0  0  0  0  0  0  0
   -2.5070   14.6560   -1.8850 C   0  0  0  0  0  0  0  0  0  0  0  0
   -6.0450   14.9000    0.4890 C   0  0  0  0  0  0  0  0  0  0  0  0
   -3.7220   14.3740    0.2640 C   0  0  0  0  0  0  0  0  0  0  0  0
   -4.8610   14.4440    1.0510 C   0  0  0  0  0  0  0  0  0  0  0  0
  2  1  1  1
  2  3  1  0
  2  4  1  0
  4  5  1  6
  3  6  1  0
  4  7  1  0
  6  7  1  0
  6  8  1  6
  7  9  1  6
  8 10  1  0
 10 11  1  0
 11 12  1  0
 12 13  1  0
 13 14  1  0
 14 15  1  0
 15 16  1  0
 16 17  2  0
 16 18  1  0
 17 19  1  0
 18 20  2  0
 17 21  1  0
 20 22  1  0
 21 22  2  0
M  END
