5cb5_K_0_K_γ-6WOJ_0_C_γ
     RDKit          3D

  8  8  0  0  0  0  0  0  0  0999 V2000
   -0.4220   12.3640   -3.8450 O   0  0  0  0  0  0  0  0  0  0  0  0
   -0.9130   13.6640   -4.1700 C   0  0  1  0  0  0  0  0  0  0  0  0
   -0.8350   14.6140   -2.9800 C   0  0  0  0  0  0  0  0  0  0  0  0
    0.0190   14.3160   -5.1750 C   0  0  2  0  0  0  0  0  0  0  0  0
    1.3450   13.8320   -5.0280 O   0  0  0  0  0  0  0  0  0  0  0  0
   -0.3180   15.8730   -3.4580 O   0  0  0  0  0  0  0  0  0  0  0  0
   -0.2210   15.8020   -4.8790 C   0  0  1  0  0  0  0  0  0  0  0  0
    0.7970   16.8140   -5.3860 C   0  0  0  0  0  0  0  0  0  0  0  0
  2  1  1  1
  2  3  1  0
  2  4  1  0
  4  5  1  1
  3  6  1  0
  4  7  1  0
  6  7  1  0
  7  8  1  1
M  END
