5CB5_0_A_γ-5CMS_0_F_α
     RDKit          3D

 21 22  0  0  0  0  0  0  0  0999 V2000
   -0.9500   12.4950   -4.1770 O   0  0  0  0  0  0  0  0  0  0  0  0
   -1.1110   13.8940   -4.2560 C   0  0  1  0  0  0  0  0  0  0  0  0
   -0.8500   14.6330   -2.9520 C   0  0  0  0  0  0  0  0  0  0  0  0
   -0.0560   14.5030   -5.1390 C   0  0  2  0  0  0  0  0  0  0  0  0
    1.2230   13.9670   -4.8070 O   0  0  0  0  0  0  0  0  0  0  0  0
   -0.2570   15.8950   -3.3300 O   0  0  0  0  0  0  0  0  0  0  0  0
   -0.2860   15.9590   -4.7710 C   0  0  1  0  0  0  0  0  0  0  0  0
    0.7370   16.9740   -5.2580 C   0  0  0  0  0  0  0  0  0  0  0  0
    0.2850   18.4220   -5.4710 C   0  0  0  0  0  0  0  0  0  0  0  0
   -0.5350   18.7610   -6.7370 C   0  0  0  0  0  0  0  0  0  0  0  0
    0.1340   19.8300   -7.6320 C   0  0  0  0  0  0  0  0  0  0  0  0
   -0.5930   21.1890   -7.7980 C   0  0  0  0  0  0  0  0  0  0  0  0
   -1.9620   21.0210   -8.4630 C   0  0  0  0  0  0  0  0  0  0  0  0
   -2.9730   22.1660   -8.3050 C   0  0  2  0  0  0  0  0  0  0  0  0
   -4.2030   21.8720   -9.0360 O   0  0  0  0  0  0  0  0  0  0  0  0
   -2.5280   23.5220   -8.7930 C   0  0  1  0  0  0  0  0  0  0  0  0
   -1.1160   23.5520   -8.8140 O   0  0  0  0  0  0  0  0  0  0  0  0
   -4.6480   23.1070   -9.6000 C   0  0  2  0  0  0  0  0  0  0  0  0
   -3.3680   23.5430  -10.0910 C   0  0  1  0  0  0  0  0  0  0  0  0
   -5.1300   24.0370   -8.6740 O   0  0  0  0  0  0  0  0  0  0  0  0
   -3.4150   24.7280  -10.9100 O   0  0  0  0  0  0  0  0  0  0  0  0
  2  1  1  1
  2  3  1  0
  2  4  1  0
  4  5  1  1
  3  6  1  0
  4  7  1  0
  6  7  1  0
  7  8  1  6
  8  9  1  0
  9 10  1  0
 10 11  1  0
 11 12  1  0
 12 13  1  0
 14 13  1  6
 14 15  1  0
 14 16  1  0
 16 17  1  6
 15 18  1  0
 16 19  1  0
 18 19  1  0
 18 20  1  1
 19 21  1  1
M  END
