5CB5_0_R_γ-6FX7_0_A_α
     RDKit          3D

 21 22  0  0  0  0  0  0  0  0999 V2000
   -0.8030   12.4310   -4.1440 O   0  0  0  0  0  0  0  0  0  0  0  0
   -0.9630   13.8310   -4.2580 C   0  0  1  0  0  0  0  0  0  0  0  0
   -0.7400   14.5810   -2.9530 C   0  0  0  0  0  0  0  0  0  0  0  0
    0.1130   14.4480   -5.1180 C   0  0  2  0  0  0  0  0  0  0  0  0
    1.3820   13.9100   -4.7480 O   0  0  0  0  0  0  0  0  0  0  0  0
   -0.1830   15.8610   -3.3140 O   0  0  0  0  0  0  0  0  0  0  0  0
   -0.1410   15.9050   -4.7550 C   0  0  1  0  0  0  0  0  0  0  0  0
    0.8890   16.9280   -5.1940 C   0  0  0  0  0  0  0  0  0  0  0  0
    0.4200   18.3430   -5.5380 C   0  0  0  0  0  0  0  0  0  0  0  0
   -0.0500   18.6410   -6.9790 C   0  0  0  0  0  0  0  0  0  0  0  0
   -0.4140   20.1290   -7.1380 C   0  0  0  0  0  0  0  0  0  0  0  0
   -1.5410   20.5110   -8.0700 C   0  0  0  0  0  0  0  0  0  0  0  0
   -2.0660   21.9620   -7.9110 C   0  0  0  0  0  0  0  0  0  0  0  0
   -3.3310   22.1360   -8.7610 C   0  0  2  0  0  0  0  0  0  0  0  0
   -3.3640   23.3090   -9.5490 O   0  0  0  0  0  0  0  0  0  0  0  0
   -4.7000   22.2530   -8.0970 C   0  0  1  0  0  0  0  0  0  0  0  0
   -4.7660   23.0680   -6.9490 O   0  0  0  0  0  0  0  0  0  0  0  0
   -4.4830   22.9420  -10.3370 C   0  0  1  0  0  0  0  0  0  0  0  0
   -5.5410   22.7590   -9.2700 C   0  0  2  0  0  0  0  0  0  0  0  0
   -4.8350   23.9350  -11.2830 O   0  0  0  0  0  0  0  0  0  0  0  0
   -6.1700   23.9870   -8.9490 O   0  0  0  0  0  0  0  0  0  0  0  0
  2  1  1  1
  2  3  1  0
  2  4  1  0
  4  5  1  1
  3  6  1  0
  4  7  1  0
  6  7  1  0
  7  8  1  1
  8  9  1  0
  9 10  1  0
 10 11  1  0
 11 12  1  0
 12 13  1  0
 14 13  1  1
 14 15  1  0
 14 16  1  0
 16 17  1  1
 15 18  1  0
 16 19  1  0
 18 19  1  0
 18 20  1  6
 19 21  1  1
M  END
