5CB5_0_N_Î³
     RDKit          3D

  8  8  0  0  0  0  0  0  0  0999 V2000
   -0.6300   14.9230   -2.9840 C   0  0  0  0  0  0  0  0  0  0  0  0
   -0.2320   16.2340   -3.4240 O   0  0  0  0  0  0  0  0  0  0  0  0
   -1.1420   14.2460   -4.2320 C   0  0  1  0  0  0  0  0  0  0  0  0
    0.4150   16.0620   -4.6510 C   0  0  1  0  0  0  0  0  0  0  0  0
   -0.1300   14.7910   -5.2250 C   0  0  1  0  0  0  0  0  0  0  0  0
   -1.0470   12.8040   -4.0940 O   0  0  0  0  0  0  0  0  0  0  0  0
   -0.0190   17.1370   -5.5810 C   0  0  0  0  0  0  0  0  0  0  0  0
    1.0040   13.9370   -5.3040 O   0  0  0  0  0  0  0  0  0  0  0  0
  1  2  1  1
  1  3  1  0
  4  2  1  0
  5  3  1  0
  3  6  1  1
  4  7  1  6
  4  5  1  0
  5  8  1  1
M  END
