5cb5_E_0_E_β-6WOJ_0_B_β
     RDKit          3D

 10  9  0  0  0  0  0  0  0  0999 V2000
   -1.1750   20.2680   -9.1420 O   0  0  0  0  0  0  0  0  0  0  0  0
   -0.2590   19.8510   -7.9350 P   0  0  0  0  0  0  0  0  0  0  0  0
   -1.3230   19.7380   -6.8120 O   0  0  0  0  0  0  0  0  0  0  0  0
    0.8750   20.7910   -7.7560 O   0  0  0  0  0  0  0  0  0  0  0  0
    0.0520   18.4370   -8.5820 O   0  0  0  0  0  0  0  0  0  0  0  0
   -1.7850   18.3900   -6.1750 P   0  0  0  0  0  0  0  0  0  0  0  0
   -0.4940   17.5280   -5.9010 O   0  0  0  0  0  0  0  0  0  0  0  0
   -2.8720   17.6580   -6.8300 O   0  0  0  0  0  0  0  0  0  0  0  0
   -2.1580   18.9380   -4.7170 O   0  0  0  0  0  0  0  0  0  0  0  0
    0.4310   17.5010   -4.6020 P   0  0  0  0  0  0  0  0  0  0  0  0
  1  2  1  0
  2  3  1  0
  2  4  2  0
  2  5  1  0
  3  6  1  0
  6  7  1  0
  6  8  2  0
  6  9  1  0
  7 10  1  0
M  END
