5cb5_L_0_L_γ-4IQY_0_A_γ
     RDKit          3D

  8  8  0  0  0  0  0  0  0  0999 V2000
   -0.3140   12.4000   -3.8490 O   0  0  0  0  0  0  0  0  0  0  0  0
   -0.7630   13.7180   -4.1580 C   0  0  1  0  0  0  0  0  0  0  0  0
   -0.5630   14.6640   -2.9800 C   0  0  0  0  0  0  0  0  0  0  0  0
    0.1200   14.3440   -5.2190 C   0  0  2  0  0  0  0  0  0  0  0  0
    1.4470   13.8470   -5.1460 O   0  0  0  0  0  0  0  0  0  0  0  0
   -0.0890   15.9260   -3.5000 O   0  0  0  0  0  0  0  0  0  0  0  0
   -0.0980   15.8320   -4.9270 C   0  0  1  0  0  0  0  0  0  0  0  0
    0.8590   16.8580   -5.5100 C   0  0  0  0  0  0  0  0  0  0  0  0
  2  1  1  1
  2  3  1  0
  2  4  1  0
  4  5  1  1
  3  6  1  0
  4  7  1  0
  6  7  1  0
  7  8  1  6
M  END
