5CB5_0_P_α-x0742_0_A_α
     RDKit          3D

 30 33  0  0  0  0  0  0  0  0999 V2000
   -1.8880   21.2840   -8.7630 C   0  0  0  0  0  0  0  0  0  0  0  0
   -2.9090   21.8890   -7.8740 C   0  0  2  0  0  0  0  0  0  0  0  0
   -4.1260   21.2360   -8.0600 O   0  0  0  0  0  0  0  0  0  0  0  0
   -3.3990   23.3140   -7.9240 C   0  0  1  0  0  0  0  0  0  0  0  0
   -4.1340   23.7360   -9.0820 O   0  0  0  0  0  0  0  0  0  0  0  0
   -4.6780   21.5950   -6.8070 C   0  0  2  0  0  0  0  0  0  0  0  0
   -4.2840   23.1170   -6.6790 C   0  0  2  0  0  0  0  0  0  0  0  0
   -4.1630   20.6340   -5.7860 O   0  0  0  0  0  0  0  0  0  0  0  0
   -5.3880   24.0280   -6.6570 O   0  0  0  0  0  0  0  0  0  0  0  0
   -2.7680   20.1000   -5.6730 C   0  0  0  0  0  0  0  0  0  0  0  0
   -2.3910   18.7130   -6.4010 C   0  0  0  0  0  0  0  0  0  0  0  0
   -2.6890   17.1910   -5.9070 C   0  0  0  0  0  0  0  0  0  0  0  0
   -2.1570   16.6530   -4.5360 C   0  0  0  0  0  0  0  0  0  0  0  0
   -2.1440   15.1300   -4.0520 C   0  0  0  0  0  0  0  0  0  0  0  0
   -3.2320   14.5580   -3.0290 C   0  0  1  0  0  0  0  0  0  0  0  0
   -3.1320   13.7290   -1.6600 C   0  0  2  0  0  0  0  0  0  0  0  0
   -4.1110   15.6080   -2.4930 C   0  0  0  0  0  0  0  0  0  0  0  0
   -4.5970   13.8540   -1.0280 C   0  0  1  0  0  0  0  0  0  0  0  0
   -5.2930   14.8100   -2.0170 C   0  0  0  0  0  0  0  0  0  0  0  0
   -2.0470   14.0570   -0.6500 C   0  0  0  0  0  0  0  0  0  0  0  0
   -5.2680   12.4600   -0.9090 C   0  0  0  0  0  0  0  0  0  0  0  0
   -4.6780   14.4980    0.3800 C   0  0  0  0  0  0  0  0  0  0  0  0
   -0.7460   14.2670   -1.0800 C   0  0  0  0  0  0  0  0  0  0  0  0
   -2.2880   14.1510    0.7510 C   0  0  0  0  0  0  0  0  0  0  0  0
   -5.1080   11.6010   -1.7810 O   0  0  0  0  0  0  0  0  0  0  0  0
   -6.1290   12.1330    0.2920 C   0  0  0  0  0  0  0  0  0  0  0  0
   -1.3370   14.4190    1.6590 N   0  0  0  0  0  0  0  0  0  0  0  0
    0.2400   14.5510   -0.1570 C   0  0  0  0  0  0  0  0  0  0  0  0
   -3.6460   13.9520    1.3400 C   0  0  0  0  0  0  0  0  0  0  0  0
   -0.1060   14.6140    1.1800 C   0  0  0  0  0  0  0  0  0  0  0  0
  2  1  1  6
  2  3  1  0
  2  4  1  0
  4  5  1  6
  3  6  1  0
  4  7  1  0
  6  7  1  0
  6  8  1  1
  7  9  1  6
  8 10  1  0
 10 11  1  0
 11 12  1  0
 12 13  1  0
 13 14  1  0
 15 14  1  1
 15 16  1  0
 15 17  1  0
 16 18  1  0
 17 19  1  0
 18 19  1  0
 16 20  1  1
 18 21  1  1
 18 22  1  0
 20 23  1  0
 20 24  2  0
 21 25  2  0
 21 26  1  0
 24 27  1  0
 23 28  2  0
 22 29  1  0
 24 29  1  0
 27 30  2  0
 28 30  1  0
M  END
