5cb5_K_0_K_γ-5cms_F_6_F_β
     RDKit          3D

 16 16  0  0  0  0  0  0  0  0999 V2000
   -1.1230   12.5010   -4.1160 O   0  0  0  0  0  0  0  0  0  0  0  0
   -0.2350   13.5760   -3.8830 C   0  0  2  0  0  0  0  0  0  0  0  0
   -0.7630   14.6040   -2.8880 C   0  0  0  0  0  0  0  0  0  0  0  0
    0.0590   14.3870   -5.1440 C   0  0  2  0  0  0  0  0  0  0  0  0
    1.4830   14.4440   -5.2180 O   0  0  0  0  0  0  0  0  0  0  0  0
   -0.4010   15.8810   -3.4150 O   0  0  0  0  0  0  0  0  0  0  0  0
   -0.5920   15.7380   -4.8220 C   0  0  1  0  0  0  0  0  0  0  0  0
   -0.0770   17.0080   -5.4900 C   0  0  0  0  0  0  0  0  0  0  0  0
   -1.4250   18.1030   -6.0140 P   0  0  1  0  0  0  0  0  0  0  0  0
   -0.8730   19.4750   -6.5630 O   0  0  0  0  0  0  0  0  0  0  0  0
   -2.4900   17.4680   -6.8520 O   0  0  0  0  0  0  0  0  0  0  0  0
   -2.0080   18.5920   -4.6270 O   0  0  0  0  0  0  0  0  0  0  0  0
   -0.2870   20.0010   -7.9100 P   0  0  0  0  0  0  0  0  0  0  0  0
   -1.5600   20.5820   -8.6650 O   0  0  0  0  0  0  0  0  0  0  0  0
    0.8360   20.9600   -7.8520 O   0  0  0  0  0  0  0  0  0  0  0  0
   -0.0200   18.7020   -8.8030 O   0  0  0  0  0  0  0  0  0  0  0  0
  2  1  1  6
  2  3  1  0
  2  4  1  0
  4  5  1  1
  3  6  1  0
  4  7  1  0
  6  7  1  0
  7  8  1  6
  8  9  1  0
  9 10  1  0
  9 11  2  0
  9 12  1  1
 10 13  1  0
 13 14  1  0
 13 15  2  0
 13 16  1  0
M  END
