5CB5_0_R_Î³
     RDKit          3D

  8  8  0  0  0  0  0  0  0  0999 V2000
   -0.6400   14.6050   -2.9690 C   0  0  0  0  0  0  0  0  0  0  0  0
   -0.1150   15.9160   -3.1690 O   0  0  0  0  0  0  0  0  0  0  0  0
   -1.0640   14.1730   -4.3290 C   0  0  1  0  0  0  0  0  0  0  0  0
    0.5970   15.8950   -4.3990 C   0  0  1  0  0  0  0  0  0  0  0  0
    0.1470   14.6000   -5.1060 C   0  0  1  0  0  0  0  0  0  0  0  0
   -1.1510   12.7690   -4.2640 O   0  0  0  0  0  0  0  0  0  0  0  0
    0.2920   17.2270   -5.0300 C   0  0  0  0  0  0  0  0  0  0  0  0
    1.1430   13.5660   -4.9310 O   0  0  0  0  0  0  0  0  0  0  0  0
  1  2  1  1
  1  3  1  0
  4  2  1  0
  5  3  1  0
  3  6  1  1
  4  7  1  6
  4  5  1  0
  5  8  1  1
M  END
