5cb5_F_1_F_β-5CMS_0_Q_α
     RDKit          3D

 17 17  0  0  0  0  0  0  0  0999 V2000
   -1.9660   19.8200   -7.8910 O   0  0  0  0  0  0  0  0  0  0  0  0
   -0.3970   19.6800   -7.8170 P   0  0  1  0  0  0  0  0  0  0  0  0
   -0.3680   19.2060   -6.3300 O   0  0  0  0  0  0  0  0  0  0  0  0
    0.1050   18.6850   -8.8020 O   0  0  0  0  0  0  0  0  0  0  0  0
   -0.1520   21.2390   -8.0770 O   0  0  0  0  0  0  0  0  0  0  0  0
   -1.5550   18.2920   -5.8100 P   0  0  0  0  0  0  0  0  0  0  0  0
   -0.8550   21.7990   -9.2130 C   0  0  1  0  0  0  0  0  0  0  0  0
   -0.9180   17.1380   -4.9260 O   0  0  0  0  0  0  0  0  0  0  0  0
   -2.5610   17.7850   -6.7830 O   0  0  0  0  0  0  0  0  0  0  0  0
   -2.2360   19.2280   -4.7230 O   0  0  0  0  0  0  0  0  0  0  0  0
   -2.2820   21.7070   -9.2380 O   0  0  0  0  0  0  0  0  0  0  0  0
   -0.5230   23.2540   -9.5700 C   0  0  1  0  0  0  0  0  0  0  0  0
    0.5930   23.4530  -10.4320 O   0  0  0  0  0  0  0  0  0  0  0  0
   -2.5040   22.3530  -10.4990 C   0  0  2  0  0  0  0  0  0  0  0  0
   -1.8210   23.6840  -10.2480 C   0  0  2  0  0  0  0  0  0  0  0  0
   -3.8840   22.5060  -10.7980 O   0  0  0  0  0  0  0  0  0  0  0  0
   -1.5980   24.4910  -11.4110 O   0  0  0  0  0  0  0  0  0  0  0  0
  2  1  1  6
  2  3  1  0
  2  4  2  0
  2  5  1  0
  3  6  1  0
  7  5  1  1
  6  8  1  0
  6  9  2  0
  6 10  1  0
  7 11  1  0
  7 12  1  0
 12 13  1  6
 11 14  1  0
 12 15  1  0
 14 15  1  0
 14 16  1  1
 15 17  1  6
M  END
