5CB5_0_Q_γ-mac-120_0_A_α
     RDKit          3D

 17 18  0  0  0  0  0  0  0  0999 V2000
   -0.6470   12.7630   -4.2140 O   0  0  0  0  0  0  0  0  0  0  0  0
   -0.9860   14.0250   -4.7790 C   0  0  1  0  0  0  0  0  0  0  0  0
   -1.4760   15.0660   -3.7490 C   0  0  1  0  0  0  0  0  0  0  0  0
    0.2710   14.6800   -5.3330 C   0  0  2  0  0  0  0  0  0  0  0  0
    1.4040   14.2990   -4.5440 O   0  0  0  0  0  0  0  0  0  0  0  0
   -1.5870   14.4830   -2.3610 C   0  0  0  0  0  0  0  0  0  0  0  0
   -0.5430   16.1640   -3.8060 O   0  0  0  0  0  0  0  0  0  0  0  0
   -0.1170   16.1480   -5.1590 C   0  0  1  0  0  0  0  0  0  0  0  0
    0.9110   17.2200   -5.4330 C   0  0  0  0  0  0  0  0  0  0  0  0
   -2.8880   14.6310   -1.5980 C   0  0  0  0  0  0  0  0  0  0  0  0
   -2.6380   14.6830   -0.2920 N   0  0  0  0  0  0  0  0  0  0  0  0
   -4.1930   14.7060   -2.1040 C   0  0  0  0  0  0  0  0  0  0  0  0
   -5.2620   14.8400   -1.1880 C   0  0  0  0  0  0  0  0  0  0  0  0
   -3.6240   14.8100    0.5670 C   0  0  0  0  0  0  0  0  0  0  0  0
   -6.6870   14.9260   -1.6450 C   0  0  0  0  0  0  0  0  0  0  0  0
   -3.2130   14.8540    1.8910 N   0  0  0  0  0  0  0  0  0  0  0  0
   -4.9500   14.8910    0.1790 C   0  0  0  0  0  0  0  0  0  0  0  0
  2  1  1  1
  2  3  1  0
  2  4  1  0
  4  5  1  1
  3  6  1  1
  3  7  1  0
  4  8  1  0
  7  8  1  0
  8  9  1  1
  6 10  1  0
 10 11  2  0
 10 12  1  0
 12 13  2  0
 11 14  1  0
 13 15  1  0
 14 16  1  0
 13 17  1  0
 14 17  2  0
M  END
