5CB5_0_Q_Î³
     RDKit          3D

  8  8  0  0  0  0  0  0  0  0999 V2000
   -0.5410   15.0570   -3.1750 C   0  0  0  0  0  0  0  0  0  0  0  0
   -0.2310   16.3870   -3.5900 O   0  0  0  0  0  0  0  0  0  0  0  0
   -0.9100   14.3500   -4.4480 C   0  0  1  0  0  0  0  0  0  0  0  0
    0.5560   16.2060   -4.7800 C   0  0  1  0  0  0  0  0  0  0  0  0
    0.2010   14.8340   -5.3710 C   0  0  1  0  0  0  0  0  0  0  0  0
   -0.8360   12.9500   -4.2510 O   0  0  0  0  0  0  0  0  0  0  0  0
    0.1420   17.2710   -5.7690 C   0  0  0  0  0  0  0  0  0  0  0  0
    1.3180   13.9420   -5.3840 O   0  0  0  0  0  0  0  0  0  0  0  0
  1  2  1  1
  1  3  1  0
  4  2  1  0
  5  3  1  0
  3  6  1  1
  4  7  1  6
  4  5  1  0
  5  8  1  1
M  END
