5CB5_0_F_α-mArh-5cb5_L_0_L_α
     RDKit          3D

 12 12  0  0  0  0  0  0  0  0999 V2000
   -1.8290   21.1890   -8.5690 C   0  0  0  0  0  0  0  0  0  0  0  0
   -3.1020   21.7100   -9.2190 C   0  0  2  0  0  0  0  0  0  0  0  0
   -3.2960   23.1780   -8.9890 C   0  0  1  0  0  0  0  0  0  0  0  0
   -4.2520   21.1550   -8.5960 O   0  0  0  0  0  0  0  0  0  0  0  0
   -4.2890   23.8030   -9.8130 O   0  0  0  0  0  0  0  0  0  0  0  0
   -3.7000   23.1720   -7.5590 C   0  0  2  0  0  0  0  0  0  0  0  0
   -4.2980   21.7610   -7.3250 C   0  0  1  0  0  0  0  0  0  0  0  0
   -4.5780   24.2390   -7.6270 O   0  0  0  0  0  0  0  0  0  0  0  0
   -5.6170   21.6760   -6.7640 O   0  0  0  0  0  0  0  0  0  0  0  0
   -5.1290   24.3320   -6.4030 C   0  0  1  0  0  0  0  0  0  0  0  0
   -4.5340   25.5830   -5.7860 C   0  0  0  0  0  0  0  0  0  0  0  0
   -6.4680   24.3600   -6.7100 O   0  0  0  0  0  0  0  0  0  0  0  0
  2  1  1  1
  2  3  1  0
  2  4  1  0
  3  5  1  6
  3  6  1  0
  4  7  1  0
  6  7  1  0
  6  8  1  6
  7  9  1  6
  8 10  1  0
 10 11  1  6
 10 12  1  0
M  END
