5cb5_B_0_B_α-MAC-194_0_A_α
     RDKit          3D

 27 29  0  0  0  0  0  0  0  0999 V2000
   -2.2550   21.6210   -8.4290 C   0  0  0  0  0  0  0  0  0  0  0  0
   -3.6870   21.6920   -7.9460 C   0  0  2  0  0  0  0  0  0  0  0  0
   -4.5760   20.8690   -8.6850 O   0  0  0  0  0  0  0  0  0  0  0  0
   -4.3890   23.0230   -8.0230 C   0  0  1  0  0  0  0  0  0  0  0  0
   -4.3250   23.7220   -9.2680 O   0  0  0  0  0  0  0  0  0  0  0  0
   -5.8310   20.9790   -8.0300 C   0  0  1  0  0  0  0  0  0  0  0  0
   -5.8200   22.5320   -7.7370 C   0  0  2  0  0  0  0  0  0  0  0  0
   -6.9760   20.3690   -8.8520 O   0  0  0  0  0  0  0  0  0  0  0  0
   -6.7090   23.3450   -8.4770 O   0  0  0  0  0  0  0  0  0  0  0  0
   -7.8130   19.1480   -8.4280 C   0  0  0  0  0  0  0  0  0  0  0  0
   -8.1130   17.7090   -9.0310 C   0  0  0  0  0  0  0  0  0  0  0  0
   -8.3480   16.4020   -8.0500 C   0  0  0  0  0  0  0  0  0  0  0  0
   -7.3610   15.7290   -6.9580 C   0  0  0  0  0  0  0  0  0  0  0  0
   -7.8310   14.7450   -5.7300 C   0  0  0  0  0  0  0  0  0  0  0  0
   -6.9050   14.4870   -4.3990 C   0  0  0  0  0  0  0  0  0  0  0  0
   -7.5350   14.6140   -2.9780 N   0  0  0  0  0  0  0  0  0  0  0  0
   -6.9450   14.6840   -1.7190 C   0  0  0  0  0  0  0  0  0  0  0  0
   -7.6110   14.7740   -0.4690 N   0  0  0  0  0  0  0  0  0  0  0  0
   -5.4400   14.6690   -1.4890 C   0  0  0  0  0  0  0  0  0  0  0  0
   -7.0300   14.6280    0.7880 C   0  0  0  0  0  0  0  0  0  0  0  0
   -4.9480   14.5980   -0.1470 C   0  0  0  0  0  0  0  0  0  0  0  0
   -4.5320   14.7230   -2.5450 C   0  0  0  0  0  0  0  0  0  0  0  0
   -7.8790   14.5830    1.8570 N   0  0  0  0  0  0  0  0  0  0  0  0
   -5.7660   14.5400    0.9930 N   0  0  0  0  0  0  0  0  0  0  0  0
   -3.5660   14.5850    0.0840 C   0  0  0  0  0  0  0  0  0  0  0  0
   -3.1580   14.7090   -2.2890 C   0  0  0  0  0  0  0  0  0  0  0  0
   -2.6760   14.6400   -0.9830 C   0  0  0  0  0  0  0  0  0  0  0  0
  2  1  1  6
  2  3  1  0
  2  4  1  0
  4  5  1  6
  3  6  1  0
  4  7  1  0
  6  7  1  0
  6  8  1  6
  7  9  1  6
  8 10  1  0
 10 11  1  0
 11 12  1  0
 12 13  1  0
 13 14  1  0
 14 15  1  0
 15 16  1  0
 16 17  2  3
 17 18  1  0
 17 19  1  0
 18 20  1  0
 19 21  2  0
 19 22  1  0
 20 23  1  0
 20 24  2  0
 21 24  1  0
 21 25  1  0
 22 26  2  0
 25 27  2  0
 26 27  1  0
M  END
