
     RDKit          3D

 36 39  0  0  0  0  0  0  0  0999 V2000
   -2.2400   18.2540   -6.3620 P   0  0  0  0  0  0  0  0  0  0  0  0
   -0.4510   19.5290   -8.1380 P   0  0  0  0  0  0  0  0  0  0  0  0
   -0.0220   17.1030   -5.5760 C   0  0  0  0  0  0  0  0  0  0  0  0
   -1.2960   16.9440   -6.1700 O   0  0  0  0  0  0  0  0  0  0  0  0
    0.3490   15.9050   -4.7010 C   0  0  1  0  0  0  0  0  0  0  0  0
   -0.1660   15.9840   -3.3560 O   0  0  0  0  0  0  0  0  0  0  0  0
   -0.2090   14.6320   -5.2860 C   0  0  1  0  0  0  0  0  0  0  0  0
    0.9200   13.7580   -5.3540 O   0  0  0  0  0  0  0  0  0  0  0  0
   -1.2050   14.1270   -4.2820 C   0  0  1  0  0  0  0  0  0  0  0  0
   -0.9490   12.7210   -4.2670 O   0  0  0  0  0  0  0  0  0  0  0  0
   -0.7100   14.7250   -3.0060 C   0  0  2  0  0  0  0  0  0  0  0  0
   -5.2230   21.8050   -7.7780 C   0  0  1  0  0  0  0  0  0  0  0  0
   -1.3650   15.2210    1.9610 N   0  0  0  0  0  0  0  0  0  0  0  0
   -3.2520   17.9440   -7.4660 O   0  0  0  0  0  0  0  0  0  0  0  0
    0.6850   20.5080   -7.8820 O   0  0  0  0  0  0  0  0  0  0  0  0
   -5.3700   21.2660   -6.4630 O   0  0  0  0  0  0  0  0  0  0  0  0
   -0.2770   14.9840    1.2030 C   0  0  0  0  0  0  0  0  0  0  0  0
   -4.5900   23.1690   -7.5820 C   0  0  2  0  0  0  0  0  0  0  0  0
   -2.7540   18.6360   -4.9530 O   0  0  0  0  0  0  0  0  0  0  0  0
   -0.0860   18.1450   -8.6760 O   0  0  0  0  0  0  0  0  0  0  0  0
   -5.5890   24.2080   -7.4780 O   0  0  0  0  0  0  0  0  0  0  0  0
   -3.7540   23.2550   -8.8280 C   0  0  2  0  0  0  0  0  0  0  0  0
   -0.2680   14.8790   -0.1310 N   0  0  0  0  0  0  0  0  0  0  0  0
   -1.1720   19.4010   -6.7460 O   0  0  0  0  0  0  0  0  0  0  0  0
   -4.6290   23.6940   -9.8830 O   0  0  0  0  0  0  0  0  0  0  0  0
   -1.4390   15.0300   -0.7630 C   0  0  0  0  0  0  0  0  0  0  0  0
   -3.3180   21.8370   -9.1210 C   0  0  2  0  0  0  0  0  0  0  0  0
   -4.3160   20.9910   -8.5730 O   0  0  0  0  0  0  0  0  0  0  0  0
   -2.7000   15.2960   -0.0290 C   0  0  0  0  0  0  0  0  0  0  0  0
   -2.0310   21.5410   -8.4580 C   0  0  0  0  0  0  0  0  0  0  0  0
   -1.6760   20.2500   -8.9150 O   0  0  0  0  0  0  0  0  0  0  0  0
   -2.5930   15.3930    1.4320 C   0  0  0  0  0  0  0  0  0  0  0  0
   -3.6630   15.6300    2.2370 N   0  0  0  0  0  0  0  0  0  0  0  0
   -3.6780   15.3690   -0.9450 N   0  0  0  0  0  0  0  0  0  0  0  0
   -3.0820   15.1640   -2.1690 C   0  0  0  0  0  0  0  0  0  0  0  0
   -1.7480   14.9580   -2.0370 N   0  0  0  0  0  0  0  0  0  0  0  0
  1  4  1  0
  1 14  1  0
  1 19  1  0
  1 24  1  0
  4  3  1  0
 24  2  1  0
  2 15  1  0
  2 20  1  0
  2 31  1  0
 31 30  1  0
  5  3  1  6
  5  6  1  0
  5  7  1  0
  6 11  1  0
  7  8  1  1
  7  9  1  0
 11  9  1  0
 11 36  1  1
  9 10  1  1
 36 26  1  0
 36 35  1  0
 12 16  1  1
 12 18  1  0
 12 28  1  0
 18 21  1  6
 18 22  1  0
 28 27  1  0
 13 17  1  0
 13 32  1  0
 17 23  1  0
 32 29  1  0
 32 33  1  0
 23 26  1  0
 22 25  1  6
 22 27  1  0
 27 30  1  1
 26 29  1  0
 29 34  1  0
 34 35  1  0
M  CHG  2  14  -1  15  -1
M  END
