5CB5_0_H_α-EU0716_0_A_α
     RDKit          3D

 29 30  0  0  0  0  0  0  0  0999 V2000
   -1.6420   22.4420   -8.1010 C   0  0  0  0  0  0  0  0  0  0  0  0
   -2.9630   22.0140   -8.6990 C   0  0  1  0  0  0  0  0  0  0  0  0
   -3.2780   20.8450   -8.0370 O   0  0  0  0  0  0  0  0  0  0  0  0
   -4.1190   22.9640   -8.4060 C   0  0  1  0  0  0  0  0  0  0  0  0
   -5.0310   23.0900   -9.4900 O   0  0  0  0  0  0  0  0  0  0  0  0
   -3.5720   21.3500   -6.7700 C   0  0  1  0  0  0  0  0  0  0  0  0
   -4.7460   22.3150   -7.1550 C   0  0  1  0  0  0  0  0  0  0  0  0
   -3.7380   20.1650   -5.9630 O   0  0  0  0  0  0  0  0  0  0  0  0
   -5.0840   23.3820   -6.2470 O   0  0  0  0  0  0  0  0  0  0  0  0
   -2.5080   19.2750   -5.8700 C   0  0  0  0  0  0  0  0  0  0  0  0
   -2.6930   17.6700   -6.0840 C   0  0  0  0  0  0  0  0  0  0  0  0
   -2.5890   16.6360   -4.8450 C   0  0  0  0  0  0  0  0  0  0  0  0
   -3.6980   15.5290   -4.3980 C   0  0  0  0  0  0  0  0  0  0  0  0
   -4.0650   15.4120   -2.8270 C   0  0  0  0  0  0  0  0  0  0  0  0
   -5.4390   14.9820   -2.2390 N   0  0  0  0  0  0  0  0  0  0  0  0
   -5.4890   14.8570   -0.8980 C   0  0  0  0  0  0  0  0  0  0  0  0
   -4.1200   15.2570   -0.4120 C   0  0  0  0  0  0  0  0  0  0  0  0
   -6.3980   14.4310    0.3660 C   0  0  2  0  0  0  0  0  0  0  0  0
   -7.8540   14.9030    0.8280 C   0  0  1  0  0  0  0  0  0  0  0  0
   -5.4960   14.8530    1.5370 C   0  0  2  0  0  0  0  0  0  0  0  0
   -9.0780   14.1340    0.3810 C   0  0  0  0  0  0  0  0  0  0  0  0
   -4.3320   13.8860    1.7400 C   0  0  0  0  0  0  0  0  0  0  0  0
   -6.3170   15.0560    2.7440 N   0  0  0  0  0  0  0  0  0  0  0  0
   -7.7500   15.1640    2.3840 C   0  0  2  0  0  0  0  0  0  0  0  0
  -10.2990   15.0510    0.5210 C   0  0  0  0  0  0  0  0  0  0  0  0
   -8.6290   14.6450    3.5430 C   0  0  0  0  0  0  0  0  0  0  0  0
   -7.9570   14.4220    4.7320 N   0  0  0  0  0  0  0  0  0  0  0  0
   -9.8420   14.5180    3.4350 O   0  0  0  0  0  0  0  0  0  0  0  0
   -8.3240   15.1030    5.9500 C   0  0  0  0  0  0  0  0  0  0  0  0
  2  1  1  1
  2  3  1  0
  2  4  1  0
  4  5  1  6
  3  6  1  0
  4  7  1  0
  6  7  1  0
  6  8  1  1
  7  9  1  1
  8 10  1  0
 10 11  1  0
 11 12  1  0
 12 13  1  0
 13 14  1  0
 14 15  1  0
 15 16  2  3
 16 17  1  0
 18 16  1  6
 18 19  1  0
 18 20  1  0
 19 21  1  1
 20 22  1  1
 20 23  1  0
 19 24  1  0
 23 24  1  0
 21 25  1  0
 24 26  1  1
 26 27  1  0
 26 28  2  0
 27 29  1  0
M  END
