5CB5_0_L_β-5L9K_0_A_β
     RDKit          3D

 10  9  0  0  0  0  0  0  0  0999 V2000
   -1.7920   20.9450   -8.7740 O   0  0  0  0  0  0  0  0  0  0  0  0
   -0.4770   20.2340   -8.1940 P   0  0  0  0  0  0  0  0  0  0  0  0
   -1.0810   19.8650   -6.8490 O   0  0  0  0  0  0  0  0  0  0  0  0
    0.7730   21.0750   -7.5800 O   0  0  0  0  0  0  0  0  0  0  0  0
   -0.2200   18.6020   -8.5520 O   0  0  0  0  0  0  0  0  0  0  0  0
   -1.0990   18.4980   -5.9940 P   0  0  0  0  0  0  0  0  0  0  0  0
   -0.1020   17.2020   -6.2960 O   0  0  0  0  0  0  0  0  0  0  0  0
   -2.2410   17.8110   -6.7420 O   0  0  0  0  0  0  0  0  0  0  0  0
   -1.9520   18.3850   -4.6050 O   0  0  0  0  0  0  0  0  0  0  0  0
   -2.9570   16.4620   -5.9360 P   0  0  0  0  0  0  0  0  0  0  0  0
  1  2  1  0
  2  3  1  0
  2  4  1  0
  2  5  1  0
  3  6  1  0
  6  7  1  0
  6  8  1  0
  6  9  1  0
  8 10  1  0
M  CHG  1   4  -1
M  END
