5CB5_0_M_β-x0290_0_A_α
     RDKit          3D

 24 24  0  0  0  0  0  0  0  0999 V2000
   -1.6370   20.3130   -8.3200 O   0  0  0  0  0  0  0  0  0  0  0  0
   -0.2780   19.8450   -7.8130 P   0  0  0  0  0  0  0  0  0  0  0  0
   -0.7280   19.4240   -6.3600 O   0  0  0  0  0  0  0  0  0  0  0  0
    0.0610   18.6650   -8.8760 O   0  0  0  0  0  0  0  0  0  0  0  0
    1.1630   19.8580   -7.3140 O   0  0  0  0  0  0  0  0  0  0  0  0
   -1.7950   18.2720   -5.9150 P   0  0  0  0  0  0  0  0  0  0  0  0
   -0.8110   17.0720   -5.7200 O   0  0  0  0  0  0  0  0  0  0  0  0
   -2.7060   17.3660   -6.9310 O   0  0  0  0  0  0  0  0  0  0  0  0
   -2.1620   18.2820   -4.3800 O   0  0  0  0  0  0  0  0  0  0  0  0
   -1.2800   15.7570   -5.2850 C   0  0  0  0  0  0  0  0  0  0  0  0
   -1.3300   15.7300   -3.8090 C   0  0  0  0  0  0  0  0  0  0  0  0
   -1.3280   14.4380   -2.9990 C   0  0  0  0  0  0  0  0  0  0  0  0
   -1.4550   14.5830   -1.4660 C   0  0  0  0  0  0  0  0  0  0  0  0
   -0.3120   14.5610   -0.6950 C   0  0  0  0  0  0  0  0  0  0  0  0
   -2.6650   14.7200   -0.8180 C   0  0  0  0  0  0  0  0  0  0  0  0
   -0.4670   14.6730    0.7070 C   0  0  0  0  0  0  0  0  0  0  0  0
   -2.7980   14.8350    0.6090 C   0  0  0  0  0  0  0  0  0  0  0  0
   -4.0670   14.9770    1.2020 N   0  0  0  0  0  0  0  0  0  0  0  0
   -1.6530   14.7980    1.2770 N   0  0  0  0  0  0  0  0  0  0  0  0
   -5.2890   14.4210    0.8510 C   0  0  0  0  0  0  0  0  0  0  0  0
   -5.3690   14.1050   -0.4440 O   0  0  0  0  0  0  0  0  0  0  0  0
   -6.5080   14.1060    1.5690 C   0  0  0  0  0  0  0  0  0  0  0  0
   -7.6870   13.7620    0.8610 N   0  0  0  0  0  0  0  0  0  0  0  0
   -8.5680   14.9390    0.7430 C   0  0  0  0  0  0  0  0  0  0  0  0
  1  2  1  0
  2  3  1  0
  2  4  1  0
  2  5  1  0
  3  6  1  0
  6  7  1  0
  6  8  1  0
  6  9  1  0
  7 10  1  0
 10 11  1  0
 11 12  1  0
 12 13  1  0
 13 14  2  0
 13 15  1  0
 14 16  1  0
 15 17  2  0
 17 18  1  0
 16 19  2  0
 17 19  1  0
 18 20  1  0
 20 21  2  0
 20 22  1  0
 22 23  1  0
 23 24  1  0
M  CHG  2   4  -1   8  -1
M  END
