5CB5_0_J_γ-5CMS_0_F_β
     RDKit          3D

 16 16  0  0  0  0  0  0  0  0999 V2000
   -0.3460   12.5470   -3.8340 O   0  0  0  0  0  0  0  0  0  0  0  0
   -0.7640   13.8660   -3.9270 C   0  0  1  0  0  0  0  0  0  0  0  0
   -0.2720   14.7380   -2.7730 C   0  0  0  0  0  0  0  0  0  0  0  0
   -0.1940   14.5680   -5.1230 C   0  0  2  0  0  0  0  0  0  0  0  0
    1.1600   14.2360   -5.2260 O   0  0  0  0  0  0  0  0  0  0  0  0
    0.1570   15.9380   -3.3790 O   0  0  0  0  0  0  0  0  0  0  0  0
   -0.4500   15.9370   -4.6180 C   0  0  1  0  0  0  0  0  0  0  0  0
   -0.1380   17.1790   -5.4690 C   0  0  0  0  0  0  0  0  0  0  0  0
   -1.6180   18.0750   -5.7380 P   0  0  0  0  0  0  0  0  0  0  0  0
   -1.2550   19.3240   -6.5550 O   0  0  0  0  0  0  0  0  0  0  0  0
   -2.6740   17.7020   -7.0030 O   0  0  0  0  0  0  0  0  0  0  0  0
   -2.1390   19.0810   -4.6310 O   0  0  0  0  0  0  0  0  0  0  0  0
   -0.1750   19.5890   -7.6850 P   0  0  0  0  0  0  0  0  0  0  0  0
   -1.2140   20.1090   -8.6610 O   0  0  0  0  0  0  0  0  0  0  0  0
    0.6050   21.0700   -7.7880 O   0  0  0  0  0  0  0  0  0  0  0  0
    0.2090   18.4420   -8.7800 O   0  0  0  0  0  0  0  0  0  0  0  0
  2  1  1  1
  2  3  1  0
  2  4  1  0
  4  5  1  1
  3  6  1  0
  4  7  1  0
  6  7  1  0
  7  8  1  6
  8  9  1  0
  9 10  1  0
  9 11  1  0
  9 12  1  0
 10 13  1  0
 13 14  1  0
 13 15  1  0
 13 16  1  0
M  CHG  2  11  -1  15  -1
M  END
