5CB5_0_L_Î³
     RDKit          3D

  8  8  0  0  0  0  0  0  0  0999 V2000
   -0.5560   14.7860   -3.1660 C   0  0  0  0  0  0  0  0  0  0  0  0
   -0.2870   16.0980   -3.7170 O   0  0  0  0  0  0  0  0  0  0  0  0
   -0.9100   13.9130   -4.3190 C   0  0  1  0  0  0  0  0  0  0  0  0
    0.5620   15.7900   -4.8340 C   0  0  1  0  0  0  0  0  0  0  0  0
    0.0690   14.4250   -5.3540 C   0  0  1  0  0  0  0  0  0  0  0  0
   -0.5120   12.6030   -3.9270 O   0  0  0  0  0  0  0  0  0  0  0  0
    0.4420   16.8780   -5.8920 C   0  0  0  0  0  0  0  0  0  0  0  0
    1.1960   13.5200   -5.3700 O   0  0  0  0  0  0  0  0  0  0  0  0
  1  2  1  1
  1  3  1  0
  4  2  1  0
  5  3  1  0
  3  6  1  1
  4  7  1  6
  4  5  1  0
  5  8  1  1
M  END
