5cb5_G_0_G_γ-5cb5_P_0_P_α
     RDKit          3D

 21 22  0  0  0  0  0  0  0  0999 V2000
   -0.6750   12.4250   -3.9320 O   0  0  0  0  0  0  0  0  0  0  0  0
   -0.9620   13.7970   -4.1120 C   0  0  1  0  0  0  0  0  0  0  0  0
   -0.6390   14.6500   -2.8920 C   0  0  0  0  0  0  0  0  0  0  0  0
   -0.0660   14.4080   -5.1670 C   0  0  2  0  0  0  0  0  0  0  0  0
    1.2530   13.8820   -5.0370 O   0  0  0  0  0  0  0  0  0  0  0  0
   -0.0920   15.8870   -3.3820 O   0  0  0  0  0  0  0  0  0  0  0  0
   -0.2850   15.8740   -4.8030 C   0  0  1  0  0  0  0  0  0  0  0  0
    0.5610   16.9730   -5.4360 C   0  0  0  0  0  0  0  0  0  0  0  0
   -0.2650   18.0920   -6.0790 C   0  0  0  0  0  0  0  0  0  0  0  0
    0.5090   19.0460   -6.9920 C   0  0  0  0  0  0  0  0  0  0  0  0
   -0.2850   20.3240   -7.2990 C   0  0  0  0  0  0  0  0  0  0  0  0
   -1.4580   20.1200   -8.2080 C   0  0  0  0  0  0  0  0  0  0  0  0
   -2.0440   21.4120   -8.7940 C   0  0  0  0  0  0  0  0  0  0  0  0
   -3.0130   22.0770   -7.8570 C   0  0  2  0  0  0  0  0  0  0  0  0
   -4.2440   21.4080   -7.8470 O   0  0  0  0  0  0  0  0  0  0  0  0
   -3.4840   23.5220   -7.9870 C   0  0  1  0  0  0  0  0  0  0  0  0
   -4.1780   23.9460   -9.1520 O   0  0  0  0  0  0  0  0  0  0  0  0
   -4.6940   21.9780   -6.6370 C   0  0  1  0  0  0  0  0  0  0  0  0
   -4.4440   23.5000   -6.8010 C   0  0  2  0  0  0  0  0  0  0  0  0
   -6.0360   21.6400   -6.4150 O   0  0  0  0  0  0  0  0  0  0  0  0
   -5.6190   24.2480   -7.0840 O   0  0  0  0  0  0  0  0  0  0  0  0
  2  1  1  1
  2  3  1  0
  2  4  1  0
  4  5  1  1
  3  6  1  0
  4  7  1  0
  6  7  1  0
  7  8  1  6
  8  9  1  0
  9 10  1  0
 10 11  1  0
 11 12  1  0
 12 13  1  0
 14 13  1  6
 14 15  1  0
 14 16  1  0
 16 17  1  6
 15 18  1  0
 16 19  1  0
 18 19  1  0
 18 20  1  6
 19 21  1  6
M  END
