5cb5_O_0_O_β-5CB5_0_B_α
     RDKit          3D

 17 17  0  0  0  0  0  0  0  0999 V2000
   -2.0240   21.1250   -7.6220 O   0  0  0  0  0  0  0  0  0  0  0  0
   -0.6540   20.2460   -7.8420 P   0  0  2  0  0  0  0  0  0  0  0  0
   -0.4060   19.3910   -6.5320 O   0  0  0  0  0  0  0  0  0  0  0  0
   -3.0380   21.5510   -8.5620 C   0  0  1  0  0  0  0  0  0  0  0  0
    0.5880   21.0130   -8.1320 O   0  0  0  0  0  0  0  0  0  0  0  0
   -0.8720   18.9990   -8.8070 O   0  0  0  0  0  0  0  0  0  0  0  0
   -4.2840   20.9090   -8.2200 O   0  0  0  0  0  0  0  0  0  0  0  0
   -3.4280   23.0550   -8.5490 C   0  0  1  0  0  0  0  0  0  0  0  0
   -1.4990   18.3540   -6.0340 P   0  0  0  0  0  0  0  0  0  0  0  0
   -4.1040   23.4990   -9.7370 O   0  0  0  0  0  0  0  0  0  0  0  0
   -5.1510   21.8230   -7.5360 C   0  0  2  0  0  0  0  0  0  0  0  0
   -4.3980   23.1400   -7.3930 C   0  0  2  0  0  0  0  0  0  0  0  0
   -0.7080   17.2140   -5.2550 O   0  0  0  0  0  0  0  0  0  0  0  0
   -2.4620   17.8360   -7.0120 O   0  0  0  0  0  0  0  0  0  0  0  0
   -2.1890   19.1770   -4.8590 O   0  0  0  0  0  0  0  0  0  0  0  0
   -5.4070   21.3480   -6.2220 O   0  0  0  0  0  0  0  0  0  0  0  0
   -5.3200   24.2200   -7.5920 O   0  0  0  0  0  0  0  0  0  0  0  0
  1  2  1  0
  2  3  1  0
  4  1  1  1
  2  5  2  0
  2  6  1  6
  4  7  1  0
  4  8  1  0
  3  9  1  0
  8 10  1  6
  7 11  1  0
  8 12  1  0
 11 12  1  0
  9 13  1  0
  9 14  2  0
  9 15  1  0
 11 16  1  1
 12 17  1  6
M  END
