5CB5_0_J_Î²
     RDKit          3D

  9  8  0  0  0  0  0  0  0  0999 V2000
   -1.6550   20.2540   -8.9740 O   0  0  0  0  0  0  0  0  0  0  0  0
   -0.2890   19.5210   -8.4400 P   0  0  0  0  0  0  0  0  0  0  0  0
   -0.6160   19.1380   -6.9160 O   0  0  0  0  0  0  0  0  0  0  0  0
    0.9300   20.4640   -8.3670 O   0  0  0  0  0  0  0  0  0  0  0  0
    0.0420   18.2600   -9.2300 O   0  0  0  0  0  0  0  0  0  0  0  0
   -1.8510   18.2380   -6.4510 P   0  0  0  0  0  0  0  0  0  0  0  0
   -1.2590   17.1200   -5.5330 O   0  0  0  0  0  0  0  0  0  0  0  0
   -2.6230   17.5270   -7.5470 O   0  0  0  0  0  0  0  0  0  0  0  0
   -2.5720   19.1630   -5.4740 O   0  0  0  0  0  0  0  0  0  0  0  0
  2  1  1  0
  3  2  1  0
  2  4  1  0
  2  5  1  0
  6  3  1  0
  6  7  1  0
  6  8  1  0
  6  9  1  0
M  CHG  2   4  -1   8  -1
M  END
