5CB5_0_O_Î´
     RDKit          3D

 10 11  0  0  0  0  0  0  0  0999 V2000
   -1.7010   14.8940   -2.1080 N   0  0  0  0  0  0  0  0  0  0  0  0
   -1.4700   15.0300   -0.8110 C   0  0  0  0  0  0  0  0  0  0  0  0
   -3.0340   14.9710   -2.3480 C   0  0  0  0  0  0  0  0  0  0  0  0
   -0.3500   15.0380   -0.0780 N   0  0  0  0  0  0  0  0  0  0  0  0
   -2.7920   15.2000   -0.1880 C   0  0  0  0  0  0  0  0  0  0  0  0
   -3.7130   15.1570   -1.1750 N   0  0  0  0  0  0  0  0  0  0  0  0
   -0.4310   15.2070    1.2550 C   0  0  0  0  0  0  0  0  0  0  0  0
   -2.7910   15.3720    1.2770 C   0  0  0  0  0  0  0  0  0  0  0  0
   -1.5880   15.3650    1.9220 N   0  0  0  0  0  0  0  0  0  0  0  0
   -3.9390   15.5530    1.9720 N   0  0  0  0  0  0  0  0  0  0  0  0
  1  2  1  0
  1  3  1  0
  4  2  1  0
  2  5  1  0
  6  3  1  0
  7  4  1  0
  8  5  1  0
  5  6  1  0
  9  7  1  0
  9  8  1  0
  8 10  1  0
M  END
