5CB5_0_P_α-5cb5_H_0_H_β
     RDKit          3D

 17 17  0  0  0  0  0  0  0  0999 V2000
   -1.7180   21.8700   -8.0050 C   0  0  0  0  0  0  0  0  0  0  0  0
   -0.7130   20.3900   -7.7770 P   0  0  2  0  0  0  0  0  0  0  0  0
   -1.2570   19.7900   -6.4160 O   0  0  0  0  0  0  0  0  0  0  0  0
   -3.1150   21.9920   -8.6410 C   0  0  1  0  0  0  0  0  0  0  0  0
    0.7580   20.6470   -7.7180 O   0  0  0  0  0  0  0  0  0  0  0  0
   -1.0370   19.1830   -8.7820 O   0  0  0  0  0  0  0  0  0  0  0  0
   -4.0890   21.1850   -7.9810 O   0  0  0  0  0  0  0  0  0  0  0  0
   -3.6510   23.4220   -8.4400 C   0  0  1  0  0  0  0  0  0  0  0  0
   -4.5640   23.8710   -9.4480 O   0  0  0  0  0  0  0  0  0  0  0  0
   -1.6460   18.2790   -6.1910 P   0  0  0  0  0  0  0  0  0  0  0  0
   -4.4860   21.8690   -6.7930 C   0  0  1  0  0  0  0  0  0  0  0  0
   -4.3100   23.3730   -7.0510 C   0  0  2  0  0  0  0  0  0  0  0  0
   -5.8180   21.5360   -6.4470 O   0  0  0  0  0  0  0  0  0  0  0  0
   -5.6070   24.0090   -7.0510 O   0  0  0  0  0  0  0  0  0  0  0  0
   -0.2760   17.4870   -6.2950 O   0  0  0  0  0  0  0  0  0  0  0  0
   -2.7290   17.7060   -7.0060 O   0  0  0  0  0  0  0  0  0  0  0  0
   -1.8940   18.1680   -4.6320 O   0  0  0  0  0  0  0  0  0  0  0  0
  1  2  1  0
  2  3  1  0
  4  1  1  1
  2  5  2  0
  2  6  1  6
  4  7  1  0
  4  8  1  0
  8  9  1  6
  3 10  1  0
  7 11  1  0
  8 12  1  0
 11 12  1  0
 11 13  1  6
 12 14  1  6
 10 15  1  0
 10 16  2  0
 10 17  1  0
M  END
