5CB5_0_K_Î±
     RDKit          3D

  9  9  0  0  0  0  0  0  0  0999 V2000
   -1.9010   21.6340   -8.7330 C   0  0  0  0  0  0  0  0  0  0  0  0
   -3.3500   21.9300   -9.1200 C   0  0  1  0  0  0  0  0  0  0  0  0
   -4.3150   21.0240   -8.5080 O   0  0  0  0  0  0  0  0  0  0  0  0
   -3.6720   23.3140   -8.6760 C   0  0  2  0  0  0  0  0  0  0  0  0
   -5.1300   21.6940   -7.5360 C   0  0  2  0  0  0  0  0  0  0  0  0
   -4.5310   23.0940   -7.4440 C   0  0  2  0  0  0  0  0  0  0  0  0
   -4.4100   23.8610   -9.7430 O   0  0  0  0  0  0  0  0  0  0  0  0
   -5.0940   21.0300   -6.2460 O   0  0  0  0  0  0  0  0  0  0  0  0
   -5.5620   24.0990   -7.3880 O   0  0  0  0  0  0  0  0  0  0  0  0
  2  1  1  1
  3  2  1  0
  4  2  1  0
  5  3  1  0
  6  4  1  0
  4  7  1  6
  5  8  1  1
  5  6  1  0
  6  9  1  6
M  END
