5cb5_K_0_K_β-5CMS_0_J_β
     RDKit          3D

  9  8  0  0  0  0  0  0  0  0999 V2000
   -1.6570   20.4360   -8.2600 O   0  0  0  0  0  0  0  0  0  0  0  0
   -0.1980   19.9510   -7.8510 P   0  0  0  0  0  0  0  0  0  0  0  0
   -0.3210   19.2210   -6.4880 O   0  0  0  0  0  0  0  0  0  0  0  0
    0.8120   21.0330   -7.9260 O   0  0  0  0  0  0  0  0  0  0  0  0
    0.0490   18.7620   -8.8920 O   0  0  0  0  0  0  0  0  0  0  0  0
   -1.4470   18.2190   -6.0530 P   0  0  0  0  0  0  0  0  0  0  0  0
   -0.6670   16.8760   -5.7330 O   0  0  0  0  0  0  0  0  0  0  0  0
   -2.5560   18.0740   -7.0250 O   0  0  0  0  0  0  0  0  0  0  0  0
   -1.8410   18.7640   -4.6200 O   0  0  0  0  0  0  0  0  0  0  0  0
  1  2  1  0
  2  3  1  0
  2  4  2  0
  2  5  1  0
  3  6  1  0
  6  7  1  0
  6  8  2  0
  6  9  1  0
M  END
