5CB5_0_N_β-5cb5_C_0_C_γ
     RDKit          3D

 16 16  0  0  0  0  0  0  0  0999 V2000
   -1.5850   20.2720   -8.3810 O   0  0  0  0  0  0  0  0  0  0  0  0
   -0.2240   19.7650   -7.5870 P   0  0  0  0  0  0  0  0  0  0  0  0
   -0.2680   18.4080   -6.6270 O   0  0  0  0  0  0  0  0  0  0  0  0
    0.1770   18.8760   -8.7360 O   0  0  0  0  0  0  0  0  0  0  0  0
    1.0480   20.7010   -7.6560 O   0  0  0  0  0  0  0  0  0  0  0  0
   -1.7190   18.2020   -5.9920 P   0  0  0  0  0  0  0  0  0  0  0  0
   -1.4440   16.9090   -5.1370 O   0  0  0  0  0  0  0  0  0  0  0  0
   -2.8580   17.2450   -6.7590 O   0  0  0  0  0  0  0  0  0  0  0  0
   -2.1830   19.1420   -4.7640 O   0  0  0  0  0  0  0  0  0  0  0  0
   -0.2640   16.1790   -4.9010 C   0  0  1  0  0  0  0  0  0  0  0  0
    0.0980   16.2900   -3.5520 O   0  0  0  0  0  0  0  0  0  0  0  0
   -0.3220   14.7170   -5.1720 C   0  0  1  0  0  0  0  0  0  0  0  0
    0.9530   14.0960   -5.1940 O   0  0  0  0  0  0  0  0  0  0  0  0
   -0.1680   15.0660   -2.8830 C   0  0  0  0  0  0  0  0  0  0  0  0
   -0.9720   14.2380   -3.8870 C   0  0  2  0  0  0  0  0  0  0  0  0
   -0.7430   12.8910   -3.7660 O   0  0  0  0  0  0  0  0  0  0  0  0
  1  2  1  0
  2  3  1  0
  2  4  1  0
  2  5  1  0
  3  6  1  0
  6  7  1  0
  6  8  1  0
  6  9  1  0
 10  7  1  1
 10 11  1  0
 10 12  1  0
 12 13  1  1
 11 14  1  0
 12 15  1  0
 14 15  1  0
 15 16  1  1
M  CHG  2   4  -1   8  -1
M  END
