5CB5_0_N_β-5LW0_0_A_β
     RDKit          3D

 11 10  0  0  0  0  0  0  0  0999 V2000
   -2.1530   20.9500   -8.1290 O   0  0  0  0  0  0  0  0  0  0  0  0
   -0.8040   20.1150   -7.9650 P   0  0  0  0  0  0  0  0  0  0  0  0
   -1.0120   19.7390   -6.5040 O   0  0  0  0  0  0  0  0  0  0  0  0
    0.6440   20.8510   -7.6620 O   0  0  0  0  0  0  0  0  0  0  0  0
   -0.7760   18.4930   -8.2710 O   0  0  0  0  0  0  0  0  0  0  0  0
   -1.5340   18.3980   -5.9400 P   0  0  0  0  0  0  0  0  0  0  0  0
    0.1550   18.3280   -9.1170 O   0  0  0  0  0  0  0  0  0  0  0  0
   -1.9640   17.0510   -5.3250 O   0  0  0  0  0  0  0  0  0  0  0  0
   -2.5900   18.1830   -7.1470 O   0  0  0  0  0  0  0  0  0  0  0  0
   -2.0840   19.2280   -4.6450 O   0  0  0  0  0  0  0  0  0  0  0  0
   -1.1140   16.0530   -5.3260 O   0  0  0  0  0  0  0  0  0  0  0  0
  1  2  1  0
  2  3  1  0
  2  4  1  0
  2  5  1  0
  3  6  1  0
  5  7  1  0
  6  8  1  0
  6  9  1  0
  6 10  1  0
  8 11  1  0
M  CHG  3   4  -1   7  -1   9  -1
M  END
