5cb5_O_0_O_α-5cb5_N_0_N_α
     RDKit          3D

  9  9  0  0  0  0  0  0  0  0999 V2000
   -2.0510   22.0620   -8.1100 C   0  0  0  0  0  0  0  0  0  0  0  0
   -3.4020   22.2520   -8.7800 C   0  0  1  0  0  0  0  0  0  0  0  0
   -4.3110   21.3140   -8.2400 O   0  0  0  0  0  0  0  0  0  0  0  0
   -4.0060   23.6380   -8.5840 C   0  0  1  0  0  0  0  0  0  0  0  0
   -4.3150   24.2490   -9.8210 O   0  0  0  0  0  0  0  0  0  0  0  0
   -5.4800   21.9410   -7.7270 C   0  0  2  0  0  0  0  0  0  0  0  0
   -5.3240   23.4420   -7.8380 C   0  0  1  0  0  0  0  0  0  0  0  0
   -5.6090   21.5790   -6.3460 O   0  0  0  0  0  0  0  0  0  0  0  0
   -5.4000   24.1260   -6.5870 O   0  0  0  0  0  0  0  0  0  0  0  0
  2  1  1  1
  2  3  1  0
  2  4  1  0
  4  5  1  6
  3  6  1  0
  4  7  1  0
  6  7  1  0
  6  8  1  1
  7  9  1  1
M  END
