5CB5_0_P_α-5cb5_E_0_E_γ
     RDKit          3D

 21 22  0  0  0  0  0  0  0  0999 V2000
   -2.2290   21.6450   -9.0550 C   0  0  0  0  0  0  0  0  0  0  0  0
   -3.3030   22.1030   -8.1290 C   0  0  2  0  0  0  0  0  0  0  0  0
   -4.4600   21.3470   -8.3590 O   0  0  0  0  0  0  0  0  0  0  0  0
   -3.8080   23.5400   -8.1370 C   0  0  1  0  0  0  0  0  0  0  0  0
   -4.1630   24.0550   -9.4150 O   0  0  0  0  0  0  0  0  0  0  0  0
   -5.2700   21.8070   -7.3070 C   0  0  2  0  0  0  0  0  0  0  0  0
   -5.1180   23.3460   -7.3860 C   0  0  1  0  0  0  0  0  0  0  0  0
   -4.8540   21.2270   -6.0410 O   0  0  0  0  0  0  0  0  0  0  0  0
   -5.1410   23.9890   -6.1130 O   0  0  0  0  0  0  0  0  0  0  0  0
   -3.4170   20.9880   -5.8410 C   0  0  0  0  0  0  0  0  0  0  0  0
   -2.7670   19.8250   -6.6580 C   0  0  0  0  0  0  0  0  0  0  0  0
   -1.3520   19.3060   -6.3120 C   0  0  0  0  0  0  0  0  0  0  0  0
   -1.2660   18.2830   -5.1530 C   0  0  0  0  0  0  0  0  0  0  0  0
   -0.1280   17.2190   -5.2810 C   0  0  0  0  0  0  0  0  0  0  0  0
   -0.5840   15.8850   -4.6430 C   0  0  2  0  0  0  0  0  0  0  0  0
   -0.2620   15.8430   -3.2460 O   0  0  0  0  0  0  0  0  0  0  0  0
   -0.0640   14.5100   -5.1200 C   0  0  1  0  0  0  0  0  0  0  0  0
    1.3410   14.4020   -5.2300 O   0  0  0  0  0  0  0  0  0  0  0  0
   -0.8400   14.5950   -2.8400 C   0  0  0  0  0  0  0  0  0  0  0  0
   -0.4990   13.6110   -3.9610 C   0  0  1  0  0  0  0  0  0  0  0  0
   -1.6060   12.8130   -4.3810 O   0  0  0  0  0  0  0  0  0  0  0  0
  2  1  1  6
  2  3  1  0
  2  4  1  0
  4  5  1  6
  3  6  1  0
  4  7  1  0
  6  7  1  0
  6  8  1  1
  7  9  1  1
  8 10  1  0
 10 11  1  0
 11 12  1  0
 12 13  1  0
 13 14  1  0
 15 14  1  6
 15 16  1  0
 15 17  1  0
 17 18  1  1
 16 19  1  0
 17 20  1  0
 19 20  1  0
 20 21  1  6
M  END
