5CB5_0_G_γ-5cb5_A_0_A_α
     RDKit          3D

 21 22  0  0  0  0  0  0  0  0999 V2000
   -0.6920   12.3660   -3.9630 O   0  0  0  0  0  0  0  0  0  0  0  0
   -1.0050   13.7310   -4.1360 C   0  0  1  0  0  0  0  0  0  0  0  0
   -0.7330   14.5750   -2.8970 C   0  0  0  0  0  0  0  0  0  0  0  0
   -0.0980   14.3700   -5.1650 C   0  0  2  0  0  0  0  0  0  0  0  0
    1.2220   13.8480   -5.0210 O   0  0  0  0  0  0  0  0  0  0  0  0
   -0.1640   15.8160   -3.3520 O   0  0  0  0  0  0  0  0  0  0  0  0
   -0.3310   15.8270   -4.7760 C   0  0  1  0  0  0  0  0  0  0  0  0
    0.5310   16.9390   -5.3610 C   0  0  0  0  0  0  0  0  0  0  0  0
   -0.2570   18.1190   -5.9280 C   0  0  0  0  0  0  0  0  0  0  0  0
    0.4930   18.9170   -6.9900 C   0  0  0  0  0  0  0  0  0  0  0  0
   -0.4190   19.6660   -7.9600 C   0  0  0  0  0  0  0  0  0  0  0  0
   -1.5840   20.4440   -7.3400 C   0  0  0  0  0  0  0  0  0  0  0  0
   -1.8160   21.7860   -8.0460 C   0  0  0  0  0  0  0  0  0  0  0  0
   -3.2550   21.9780   -8.5480 C   0  0  1  0  0  0  0  0  0  0  0  0
   -4.0840   21.2600   -7.6370 O   0  0  0  0  0  0  0  0  0  0  0  0
   -3.7590   23.4310   -8.5060 C   0  0  1  0  0  0  0  0  0  0  0  0
   -4.2230   23.9930   -9.7130 O   0  0  0  0  0  0  0  0  0  0  0  0
   -5.2970   21.9780   -7.4560 C   0  0  2  0  0  0  0  0  0  0  0  0
   -4.9270   23.4450   -7.5430 C   0  0  2  0  0  0  0  0  0  0  0  0
   -5.8550   21.6980   -6.1800 O   0  0  0  0  0  0  0  0  0  0  0  0
   -5.9630   24.2420   -8.1210 O   0  0  0  0  0  0  0  0  0  0  0  0
  2  1  1  1
  2  3  1  0
  2  4  1  0
  4  5  1  1
  3  6  1  0
  4  7  1  0
  6  7  1  0
  7  8  1  6
  8  9  1  0
  9 10  1  0
 10 11  1  0
 11 12  1  0
 12 13  1  0
 14 13  1  1
 14 15  1  0
 14 16  1  0
 16 17  1  6
 15 18  1  0
 16 19  1  0
 18 19  1  0
 18 20  1  1
 19 21  1  6
M  END
