5CB5_0_P_β-5CMS_0_F_α
     RDKit          3D

 17 17  0  0  0  0  0  0  0  0999 V2000
   -1.5070   21.7000   -8.6810 O   0  0  0  0  0  0  0  0  0  0  0  0
   -0.4480   20.4530   -8.1670 P   0  0  0  0  0  0  0  0  0  0  0  0
   -0.7030   19.8120   -6.6650 O   0  0  0  0  0  0  0  0  0  0  0  0
   -1.7690   21.7880  -10.0610 C   0  0  1  0  0  0  0  0  0  0  0  0
    0.4350   21.5490   -7.5840 O   0  0  0  0  0  0  0  0  0  0  0  0
   -1.2020   19.3360   -8.8130 O   0  0  0  0  0  0  0  0  0  0  0  0
   -3.0780   22.1220  -10.3340 O   0  0  0  0  0  0  0  0  0  0  0  0
   -0.9830   22.9150  -10.8070 C   0  0  2  0  0  0  0  0  0  0  0  0
   -1.2540   18.4480   -6.1310 P   0  0  0  0  0  0  0  0  0  0  0  0
    0.2160   23.1660  -10.1670 O   0  0  0  0  0  0  0  0  0  0  0  0
   -3.2360   23.4050  -10.7840 C   0  0  2  0  0  0  0  0  0  0  0  0
   -1.9030   24.1010  -10.6900 C   0  0  2  0  0  0  0  0  0  0  0  0
   -1.6110   17.0710   -5.5500 O   0  0  0  0  0  0  0  0  0  0  0  0
   -2.3630   18.2700   -7.3070 O   0  0  0  0  0  0  0  0  0  0  0  0
   -1.8010   19.2120   -4.7830 O   0  0  0  0  0  0  0  0  0  0  0  0
   -4.2770   24.0910  -10.1640 O   0  0  0  0  0  0  0  0  0  0  0  0
   -1.6650   24.9100  -11.8320 O   0  0  0  0  0  0  0  0  0  0  0  0
  1  2  1  0
  2  3  1  0
  4  1  1  1
  2  5  1  0
  2  6  1  0
  4  7  1  0
  4  8  1  0
  3  9  1  0
  8 10  1  1
  7 11  1  0
  8 12  1  0
 11 12  1  0
  9 13  1  0
  9 14  1  0
  9 15  1  0
 11 16  1  1
 12 17  1  6
M  CHG  2   5  -1  14  -1
M  END
