5cb5_B_0_B_γ-6fx_7_0A_α
     RDKit          3D

 21 22  0  0  0  0  0  0  0  0999 V2000
   -0.6510   12.5390   -4.0000 O   0  0  0  0  0  0  0  0  0  0  0  0
   -0.9320   13.9220   -4.1040 C   0  0  1  0  0  0  0  0  0  0  0  0
   -0.5740   14.7180   -2.8580 C   0  0  0  0  0  0  0  0  0  0  0  0
   -0.0570   14.5930   -5.1390 C   0  0  2  0  0  0  0  0  0  0  0  0
    1.2820   14.1210   -5.0170 O   0  0  0  0  0  0  0  0  0  0  0  0
   -0.0820   15.9960   -3.3160 O   0  0  0  0  0  0  0  0  0  0  0  0
   -0.3150   16.0460   -4.7360 C   0  0  1  0  0  0  0  0  0  0  0  0
    0.5240   17.1780   -5.3480 C   0  0  0  0  0  0  0  0  0  0  0  0
   -0.0950   17.9290   -6.5380 C   0  0  0  0  0  0  0  0  0  0  0  0
   -0.6290   19.3170   -6.3270 C   0  0  0  0  0  0  0  0  0  0  0  0
   -1.8480   19.6370   -7.1790 C   0  0  0  0  0  0  0  0  0  0  0  0
   -2.5230   20.9530   -6.7890 C   0  0  0  0  0  0  0  0  0  0  0  0
   -2.2260   22.1200   -7.7570 C   0  0  0  0  0  0  0  0  0  0  0  0
   -3.2350   22.0680   -8.8990 C   0  0  2  0  0  0  0  0  0  0  0  0
   -3.3510   23.2750   -9.6460 O   0  0  0  0  0  0  0  0  0  0  0  0
   -4.6860   21.7890   -8.4760 C   0  0  1  0  0  0  0  0  0  0  0  0
   -5.0430   22.2710   -7.1910 O   0  0  0  0  0  0  0  0  0  0  0  0
   -4.3620   22.8430  -10.5420 C   0  0  1  0  0  0  0  0  0  0  0  0
   -5.4860   22.4520   -9.5960 C   0  0  2  0  0  0  0  0  0  0  0  0
   -4.7580   23.8560  -11.4410 O   0  0  0  0  0  0  0  0  0  0  0  0
   -6.2260   23.5640   -9.1170 O   0  0  0  0  0  0  0  0  0  0  0  0
  2  1  1  1
  2  3  1  0
  2  4  1  0
  4  5  1  1
  3  6  1  0
  4  7  1  0
  6  7  1  0
  7  8  1  6
  8  9  1  0
  9 10  1  0
 10 11  1  0
 11 12  1  0
 12 13  1  0
 14 13  1  1
 14 15  1  0
 14 16  1  0
 16 17  1  1
 15 18  1  0
 16 19  1  0
 18 19  1  0
 18 20  1  6
 19 21  1  1
M  END
