5CB5_0_M_β-mArh-5l9k_B_0_B_γ
     RDKit          3D

 16 16  0  0  0  0  0  0  0  0999 V2000
   -1.3500   20.0300   -8.6460 O   0  0  0  0  0  0  0  0  0  0  0  0
   -0.1250   19.6680   -7.6190 P   0  0  0  0  0  0  0  0  0  0  0  0
   -0.2200   18.3390   -6.6150 O   0  0  0  0  0  0  0  0  0  0  0  0
    0.3420   18.7340   -8.7170 O   0  0  0  0  0  0  0  0  0  0  0  0
    1.1170   20.6890   -7.5670 O   0  0  0  0  0  0  0  0  0  0  0  0
   -1.6530   18.2230   -5.9260 P   0  0  0  0  0  0  0  0  0  0  0  0
   -1.6170   16.7110   -5.4390 O   0  0  0  0  0  0  0  0  0  0  0  0
   -2.9520   17.6960   -6.8330 O   0  0  0  0  0  0  0  0  0  0  0  0
   -1.9180   18.8820   -4.4850 O   0  0  0  0  0  0  0  0  0  0  0  0
   -0.6030   15.9020   -4.8860 C   0  0  1  0  0  0  0  0  0  0  0  0
   -0.5910   15.9060   -3.4960 O   0  0  0  0  0  0  0  0  0  0  0  0
   -0.6840   14.4390   -5.1860 C   0  0  1  0  0  0  0  0  0  0  0  0
    0.5610   13.7830   -5.0600 O   0  0  0  0  0  0  0  0  0  0  0  0
   -1.6730   15.0880   -3.1170 C   0  0  0  0  0  0  0  0  0  0  0  0
   -1.5050   13.8740   -4.0190 C   0  0  1  0  0  0  0  0  0  0  0  0
   -2.6930   13.4030   -4.5060 O   0  0  0  0  0  0  0  0  0  0  0  0
  1  2  1  0
  2  3  1  0
  2  4  1  0
  2  5  1  0
  3  6  1  0
  6  7  1  0
  6  8  1  0
  6  9  1  0
 10  7  1  1
 10 11  1  0
 10 12  1  0
 12 13  1  1
 11 14  1  0
 12 15  1  0
 14 15  1  0
 15 16  1  6
M  CHG  2   4  -1   8  -1
M  END
