5cb5_E_0_E_β-3VFQ_0_A_β
     RDKit          3D

 15 14  0  0  0  0  0  0  0  0999 V2000
   -1.4340   20.7280   -8.1870 O   0  0  0  0  0  0  0  0  0  0  0  0
   -0.0780   19.8300   -7.6620 P   0  0  0  0  0  0  0  0  0  0  0  0
   -0.3080   19.2870   -6.1100 O   0  0  0  0  0  0  0  0  0  0  0  0
    1.0680   20.8160   -7.6340 O   0  0  0  0  0  0  0  0  0  0  0  0
    0.2060   18.6300   -8.7540 O   0  0  0  0  0  0  0  0  0  0  0  0
   -1.4360   18.0970   -6.0880 P   0  0  0  0  0  0  0  0  0  0  0  0
   -0.3760   17.0280   -5.2840 O   0  0  0  0  0  0  0  0  0  0  0  0
   -2.7980   18.2720   -6.6930 C   0  0  0  0  0  0  0  0  0  0  0  0
   -1.6980   16.5160   -5.5850 O   0  0  0  0  0  0  0  0  0  0  0  0
   -3.0850   19.4900   -7.2250 O   0  0  0  0  0  0  0  0  0  0  0  0
   -3.6410   17.2370   -6.6730 O   0  0  0  0  0  0  0  0  0  0  0  0
   -3.2220   15.7970   -5.1700 P   0  0  0  0  0  0  0  0  0  0  0  0
   -3.1180   14.1230   -4.9360 O   0  0  0  0  0  0  0  0  0  0  0  0
   -3.6640   16.2320   -3.6390 O   0  0  0  0  0  0  0  0  0  0  0  0
   -4.5560   16.1020   -6.2850 O   0  0  0  0  0  0  0  0  0  0  0  0
  1  2  1  0
  2  3  1  0
  2  4  2  0
  2  5  1  0
  3  6  1  0
  6  7  1  0
  6  8  2  3
  6  9  1  0
  8 10  1  0
  8 11  1  0
  9 12  1  0
 12 13  1  0
 12 14  1  0
 12 15  1  0
M  CHG  1  14  -1
M  END
