
     RDKit          3D

 36 39  0  0  0  0  0  0  0  0999 V2000
   -2.2410   18.2450   -6.3530 P   0  0  0  0  0  0  0  0  0  0  0  0
   -0.5040   19.6980   -8.2050 P   0  0  0  0  0  0  0  0  0  0  0  0
    0.1420   17.2710   -5.7690 C   0  0  0  0  0  0  0  0  0  0  0  0
   -1.2480   17.0310   -5.9820 O   0  0  0  0  0  0  0  0  0  0  0  0
    0.5560   16.2060   -4.7800 C   0  0  1  0  0  0  0  0  0  0  0  0
   -0.2310   16.3870   -3.5900 O   0  0  0  0  0  0  0  0  0  0  0  0
    0.2010   14.8340   -5.3710 C   0  0  1  0  0  0  0  0  0  0  0  0
    1.3180   13.9420   -5.3840 O   0  0  0  0  0  0  0  0  0  0  0  0
   -0.9100   14.3500   -4.4480 C   0  0  1  0  0  0  0  0  0  0  0  0
   -0.8360   12.9500   -4.2510 O   0  0  0  0  0  0  0  0  0  0  0  0
   -0.5410   15.0570   -3.1750 C   0  0  2  0  0  0  0  0  0  0  0  0
   -5.1840   21.6960   -7.7900 C   0  0  1  0  0  0  0  0  0  0  0  0
   -1.1950   15.2380    1.8320 N   0  0  0  0  0  0  0  0  0  0  0  0
   -3.2070   17.7010   -7.4000 O   0  0  0  0  0  0  0  0  0  0  0  0
    0.4650   20.7770   -7.8550 O   0  0  0  0  0  0  0  0  0  0  0  0
   -5.3160   20.9880   -6.5700 O   0  0  0  0  0  0  0  0  0  0  0  0
   -0.0810   15.1330    1.0740 C   0  0  0  0  0  0  0  0  0  0  0  0
   -4.5440   22.9890   -7.4530 C   0  0  2  0  0  0  0  0  0  0  0  0
   -2.7880   18.8030   -5.0360 O   0  0  0  0  0  0  0  0  0  0  0  0
   -0.1570   18.4950   -9.0680 O   0  0  0  0  0  0  0  0  0  0  0  0
   -5.5650   23.8650   -7.1370 O   0  0  0  0  0  0  0  0  0  0  0  0
   -3.9180   23.3760   -8.7630 C   0  0  2  0  0  0  0  0  0  0  0  0
   -0.0830   15.0870   -0.2710 N   0  0  0  0  0  0  0  0  0  0  0  0
   -1.2050   19.3960   -6.8340 O   0  0  0  0  0  0  0  0  0  0  0  0
   -4.9810   23.7620   -9.6380 O   0  0  0  0  0  0  0  0  0  0  0  0
   -1.2660   15.1610   -0.9110 C   0  0  0  0  0  0  0  0  0  0  0  0
   -3.3140   22.0810   -9.2490 C   0  0  2  0  0  0  0  0  0  0  0  0
   -4.2630   21.0950   -8.7380 O   0  0  0  0  0  0  0  0  0  0  0  0
   -2.5230   15.2600   -0.1740 C   0  0  0  0  0  0  0  0  0  0  0  0
   -1.9100   21.8840   -8.6440 C   0  0  0  0  0  0  0  0  0  0  0  0
   -1.7100   20.5030   -8.8490 O   0  0  0  0  0  0  0  0  0  0  0  0
   -2.4180   15.2990    1.2800 C   0  0  0  0  0  0  0  0  0  0  0  0
   -3.5120   15.3960    2.0610 N   0  0  0  0  0  0  0  0  0  0  0  0
   -3.5160   15.2920   -1.0740 N   0  0  0  0  0  0  0  0  0  0  0  0
   -2.9000   15.2190   -2.2910 C   0  0  0  0  0  0  0  0  0  0  0  0
   -1.5720   15.1260   -2.1700 N   0  0  0  0  0  0  0  0  0  0  0  0
  1  4  1  0
  1 14  1  0
  1 19  1  0
  1 24  1  0
  4  3  1  0
 24  2  1  0
  2 15  1  0
  2 20  1  0
  2 31  1  0
 31 30  1  0
  5  3  1  6
  5  6  1  0
  5  7  1  0
  6 11  1  0
  7  8  1  1
  7  9  1  0
 11  9  1  0
 11 36  1  1
  9 10  1  1
 36 26  1  0
 36 35  1  0
 12 16  1  1
 12 18  1  0
 12 28  1  0
 18 21  1  6
 18 22  1  0
 28 27  1  0
 13 17  1  0
 13 32  1  0
 17 23  1  0
 32 29  1  0
 32 33  1  0
 23 26  1  0
 22 25  1  6
 22 27  1  0
 27 30  1  1
 26 29  1  0
 29 34  1  0
 34 35  1  0
M  CHG  2  14  -1  15  -1
M  END
