5CB5_0_H_Î³
     RDKit          3D

  8  8  0  0  0  0  0  0  0  0999 V2000
   -0.8020   14.5900   -2.8120 C   0  0  0  0  0  0  0  0  0  0  0  0
   -0.1020   15.7920   -3.1330 O   0  0  0  0  0  0  0  0  0  0  0  0
   -1.3390   14.0380   -4.0730 C   0  0  1  0  0  0  0  0  0  0  0  0
    0.2890   15.8070   -4.5050 C   0  0  1  0  0  0  0  0  0  0  0  0
   -0.4230   14.6120   -5.0900 C   0  0  1  0  0  0  0  0  0  0  0  0
   -0.9610   12.6670   -4.0670 O   0  0  0  0  0  0  0  0  0  0  0  0
   -0.0530   17.1640   -5.0950 C   0  0  0  0  0  0  0  0  0  0  0  0
    0.5430   13.5440   -5.1480 O   0  0  0  0  0  0  0  0  0  0  0  0
  1  2  1  1
  1  3  1  0
  4  2  1  0
  5  3  1  0
  3  6  1  1
  4  7  1  6
  4  5  1  0
  5  8  1  1
M  END
