5cb5_P_0_P_β-5cms_H_7_H_α
     RDKit          3D

 17 17  0  0  0  0  0  0  0  0999 V2000
   -1.6730   20.8730   -8.4550 O   0  0  0  0  0  0  0  0  0  0  0  0
   -0.3470   20.0920   -7.9510 P   0  0  2  0  0  0  0  0  0  0  0  0
   -0.4610   19.3790   -6.5420 O   0  0  0  0  0  0  0  0  0  0  0  0
   -1.6500   21.6620   -9.6660 C   0  0  1  0  0  0  0  0  0  0  0  0
    0.8720   20.9580   -7.9650 O   0  0  0  0  0  0  0  0  0  0  0  0
   -0.2280   18.7850   -8.8630 O   0  0  0  0  0  0  0  0  0  0  0  0
   -2.9450   22.1750   -9.9960 O   0  0  0  0  0  0  0  0  0  0  0  0
   -0.7090   22.8970   -9.6030 C   0  0  1  0  0  0  0  0  0  0  0  0
   -1.6720   18.4700   -6.0910 P   0  0  0  0  0  0  0  0  0  0  0  0
    0.6020   22.7210  -10.1510 O   0  0  0  0  0  0  0  0  0  0  0  0
   -2.7170   23.2620  -10.8790 C   0  0  2  0  0  0  0  0  0  0  0  0
   -1.4380   23.9610  -10.3910 C   0  0  2  0  0  0  0  0  0  0  0  0
   -1.0360   17.3270   -5.1880 O   0  0  0  0  0  0  0  0  0  0  0  0
   -2.6270   17.9680   -7.0870 O   0  0  0  0  0  0  0  0  0  0  0  0
   -2.3310   19.4280   -5.0050 O   0  0  0  0  0  0  0  0  0  0  0  0
   -3.8360   24.1290  -10.7940 O   0  0  0  0  0  0  0  0  0  0  0  0
   -0.6570   24.4360  -11.4840 O   0  0  0  0  0  0  0  0  0  0  0  0
  1  2  1  0
  2  3  1  0
  4  1  1  1
  2  5  2  0
  2  6  1  6
  4  7  1  0
  4  8  1  0
  3  9  1  0
  8 10  1  6
  7 11  1  0
  8 12  1  0
 11 12  1  0
  9 13  1  0
  9 14  2  0
  9 15  1  0
 11 16  1  1
 12 17  1  6
M  END
