5cb5_Q_0_Q_γ-x0895_1_A_α
     RDKit          3D

 18 19  0  0  0  0  0  0  0  0999 V2000
   -0.6200   12.7450   -4.0720 O   0  0  0  0  0  0  0  0  0  0  0  0
   -0.5760   14.1690   -4.0270 C   0  0  1  0  0  0  0  0  0  0  0  0
    0.0880   14.7730   -2.7980 C   0  0  2  0  0  0  0  0  0  0  0  0
    0.3760   14.6850   -5.0950 C   0  0  2  0  0  0  0  0  0  0  0  0
    1.4980   13.8020   -5.1880 O   0  0  0  0  0  0  0  0  0  0  0  0
   -0.7040   14.6540   -1.4780 C   0  0  0  0  0  0  0  0  0  0  0  0
    0.2490   16.1460   -3.2140 O   0  0  0  0  0  0  0  0  0  0  0  0
    0.8090   16.0510   -4.5490 C   0  0  2  0  0  0  0  0  0  0  0  0
    0.3310   17.2310   -5.3900 C   0  0  0  0  0  0  0  0  0  0  0  0
   -0.0250   14.9910   -0.1330 C   0  0  0  0  0  0  0  0  0  0  0  0
   -0.4380   14.1130    1.0490 C   0  0  0  0  0  0  0  0  0  0  0  0
   -1.7410   14.4520    1.6400 N   0  0  0  0  0  0  0  0  0  0  0  0
   -2.7940   14.6440    0.9030 C   0  0  0  0  0  0  0  0  0  0  0  0
   -3.0130   14.6020   -0.5990 C   0  0  0  0  0  0  0  0  0  0  0  0
   -3.9780   14.9210    1.5090 N   0  0  0  0  0  0  0  0  0  0  0  0
   -4.3760   15.0280   -0.6540 N   0  0  0  0  0  0  0  0  0  0  0  0
   -4.9610   14.9340    0.5760 C   0  0  0  0  0  0  0  0  0  0  0  0
   -6.1590   14.8640    0.7780 O   0  0  0  0  0  0  0  0  0  0  0  0
  2  1  1  1
  2  3  1  0
  2  4  1  0
  4  5  1  1
  3  6  1  1
  3  7  1  0
  4  8  1  0
  7  8  1  0
  8  9  1  6
  6 10  1  0
 10 11  1  0
 11 12  1  0
 12 13  2  3
 13 14  1  0
 13 15  1  0
 14 16  1  0
 15 17  1  0
 16 17  1  0
 17 18  2  0
M  END
