5CB5_0_I_δ-5L9K_0_B_α
     RDKit          3D

 25 27  0  0  0  0  0  0  0  0999 V2000
   -3.9570   15.4610    1.6490 N   0  0  0  0  0  0  0  0  0  0  0  0
   -2.8740   14.8410    0.8970 C   0  0  1  0  0  0  0  0  0  0  0  0
   -2.6970   15.4940   -0.4870 C   0  0  1  0  0  0  0  0  0  0  0  0
   -1.7250   15.0690    1.7130 N   0  0  0  0  0  0  0  0  0  0  0  0
   -1.2520   15.4280   -0.9860 C   0  0  2  0  0  0  0  0  0  0  0  0
   -3.4610   14.8030   -1.5580 N   0  0  0  0  0  0  0  0  0  0  0  0
   -0.5470   14.4560    1.1390 C   0  0  0  0  0  0  0  0  0  0  0  0
   -1.2690   14.4840   -2.1000 N   0  0  0  0  0  0  0  0  0  0  0  0
   -2.5650   14.7470   -2.7150 C   0  0  2  0  0  0  0  0  0  0  0  0
   -0.1800   15.1290   -0.0790 N   0  0  0  0  0  0  0  0  0  0  0  0
   -2.6520   16.0580   -3.5320 C   0  0  0  0  0  0  0  0  0  0  0  0
   -1.9840   16.1780   -4.9310 C   0  0  0  0  0  0  0  0  0  0  0  0
   -1.2680   17.5190   -5.2780 C   0  0  0  0  0  0  0  0  0  0  0  0
   -2.0040   18.4480   -6.2780 C   0  0  0  0  0  0  0  0  0  0  0  0
   -1.0920   19.2050   -7.2810 C   0  0  0  0  0  0  0  0  0  0  0  0
   -1.1560   20.7510   -7.2770 C   0  0  0  0  0  0  0  0  0  0  0  0
   -1.9940   21.5100   -8.3380 C   0  0  0  0  0  0  0  0  0  0  0  0
   -3.3200   22.0580   -7.7990 C   0  0  2  0  0  0  0  0  0  0  0  0
   -4.4730   21.3330   -8.1500 O   0  0  0  0  0  0  0  0  0  0  0  0
   -3.8410   23.4560   -8.1210 C   0  0  1  0  0  0  0  0  0  0  0  0
   -4.3870   23.6930   -9.4140 O   0  0  0  0  0  0  0  0  0  0  0  0
   -5.4930   22.0170   -7.4250 C   0  0  1  0  0  0  0  0  0  0  0  0
   -4.8800   23.3700   -7.0130 C   0  0  2  0  0  0  0  0  0  0  0  0
   -6.6060   22.1990   -8.2740 O   0  0  0  0  0  0  0  0  0  0  0  0
   -5.9060   24.3610   -7.0110 O   0  0  0  0  0  0  0  0  0  0  0  0
  2  1  1  1
  2  3  1  0
  2  4  1  0
  3  5  1  0
  3  6  1  6
  4  7  1  0
  5  8  1  6
  6  9  1  0
  8  9  1  0
  5 10  1  0
  7 10  1  0
  9 11  1  1
 11 12  1  0
 12 13  1  0
 13 14  1  0
 14 15  1  0
 15 16  1  0
 16 17  1  0
 18 17  1  6
 18 19  1  0
 18 20  1  0
 20 21  1  6
 19 22  1  0
 20 23  1  0
 22 23  1  0
 22 24  1  6
 23 25  1  6
M  END
