5CB5_0_J_δ-mArh-5cb5_C_0_C_α
     RDKit          3D

 24 26  0  0  0  0  0  0  0  0999 V2000
   -4.1040   15.5050    1.5400 N   0  0  0  0  0  0  0  0  0  0  0  0
   -2.8230   15.4550    0.8510 C   0  0  2  0  0  0  0  0  0  0  0  0
   -2.8440   14.8110   -0.5550 C   0  0  2  0  0  0  0  0  0  0  0  0
   -1.9340   14.7520    1.7590 N   0  0  0  0  0  0  0  0  0  0  0  0
   -1.3730   14.6510   -0.9620 C   0  0  1  0  0  0  0  0  0  0  0  0
   -3.4610   15.4880   -1.7270 N   0  0  0  0  0  0  0  0  0  0  0  0
   -0.6110   14.5160    1.2040 C   0  0  0  0  0  0  0  0  0  0  0  0
   -1.2400   15.2510   -2.2630 N   0  0  0  0  0  0  0  0  0  0  0  0
   -2.5550   15.0930   -2.8280 C   0  0  2  0  0  0  0  0  0  0  0  0
   -0.4750   15.2570   -0.0250 N   0  0  0  0  0  0  0  0  0  0  0  0
   -2.7580   15.8740   -4.1570 C   0  0  0  0  0  0  0  0  0  0  0  0
   -1.7360   16.9810   -4.5610 C   0  0  0  0  0  0  0  0  0  0  0  0
   -2.0520   17.7290   -5.8850 C   0  0  0  0  0  0  0  0  0  0  0  0
   -2.1660   19.2730   -5.7440 C   0  0  0  0  0  0  0  0  0  0  0  0
   -3.1840   19.8870   -6.7150 C   0  0  0  0  0  0  0  0  0  0  0  0
   -4.1450   20.7790   -6.1020 O   0  0  0  0  0  0  0  0  0  0  0  0
   -4.7840   21.5900   -7.0960 C   0  0  2  0  0  0  0  0  0  0  0  0
   -4.3310   21.1670   -8.3810 O   0  0  0  0  0  0  0  0  0  0  0  0
   -4.3570   23.0640   -6.9010 C   0  0  2  0  0  0  0  0  0  0  0  0
   -5.4680   23.9620   -6.6560 O   0  0  0  0  0  0  0  0  0  0  0  0
   -3.3120   22.0800   -8.7940 C   0  0  1  0  0  0  0  0  0  0  0  0
   -3.7440   23.4260   -8.2560 C   0  0  1  0  0  0  0  0  0  0  0  0
   -1.9350   21.6680   -8.2860 C   0  0  0  0  0  0  0  0  0  0  0  0
   -4.6760   24.0640   -9.1250 O   0  0  0  0  0  0  0  0  0  0  0  0
  2  1  1  1
  2  3  1  0
  2  4  1  0
  3  5  1  0
  3  6  1  6
  4  7  1  0
  5  8  1  6
  6  9  1  0
  8  9  1  0
  5 10  1  0
  7 10  1  0
  9 11  1  6
 11 12  1  0
 12 13  1  0
 13 14  1  0
 14 15  1  0
 15 16  1  0
 17 16  1  1
 17 18  1  0
 17 19  1  0
 19 20  1  6
 18 21  1  0
 19 22  1  0
 21 22  1  0
 21 23  1  1
 22 24  1  6
M  END
