5cb5_G_0_G_γ-2fav_B_0_B_γ
     RDKit          3D

  8  8  0  0  0  0  0  0  0  0999 V2000
   -0.6360   12.4340   -3.8630 O   0  0  0  0  0  0  0  0  0  0  0  0
   -0.9930   13.7930   -4.1100 C   0  0  1  0  0  0  0  0  0  0  0  0
   -0.7050   14.6870   -2.9080 C   0  0  0  0  0  0  0  0  0  0  0  0
   -0.0690   14.3720   -5.1550 C   0  0  2  0  0  0  0  0  0  0  0  0
    1.2250   13.7880   -5.0560 O   0  0  0  0  0  0  0  0  0  0  0  0
   -0.1080   15.9050   -3.4060 O   0  0  0  0  0  0  0  0  0  0  0  0
   -0.2090   15.8600   -4.8340 C   0  0  1  0  0  0  0  0  0  0  0  0
    0.7610   16.8500   -5.4590 C   0  0  0  0  0  0  0  0  0  0  0  0
  2  1  1  1
  2  3  1  0
  2  4  1  0
  4  5  1  1
  3  6  1  0
  4  7  1  0
  6  7  1  0
  7  8  1  6
M  END
