5CB5_0_H_β-x0805_0_A_β
     RDKit          3D

 19 19  0  0  0  0  0  0  0  0999 V2000
   -1.5090   20.8800   -8.1560 O   0  0  0  0  0  0  0  0  0  0  0  0
   -0.4530   19.7890   -7.6080 P   0  0  0  0  0  0  0  0  0  0  0  0
   -1.4740   18.6700   -7.4720 O   0  0  0  0  0  0  0  0  0  0  0  0
    0.7550   20.7250   -7.7730 O   0  0  0  0  0  0  0  0  0  0  0  0
    0.2300   18.7790   -8.7470 O   0  0  0  0  0  0  0  0  0  0  0  0
   -2.0500   18.0280   -6.1080 P   0  0  0  0  0  0  0  0  0  0  0  0
   -0.8600   17.1050   -5.7930 O   0  0  0  0  0  0  0  0  0  0  0  0
   -3.0150   16.6810   -6.2550 O   0  0  0  0  0  0  0  0  0  0  0  0
   -1.9030   18.8150   -4.7040 O   0  0  0  0  0  0  0  0  0  0  0  0
   -1.2060   16.0670   -4.9000 C   0  0  0  0  0  0  0  0  0  0  0  0
   -0.0360   15.5360   -4.1400 C   0  0  1  0  0  0  0  0  0  0  0  0
   -0.3720   14.1860   -3.5200 C   0  0  0  0  0  0  0  0  0  0  0  0
    1.2460   15.3830   -4.9110 C   0  0  0  0  0  0  0  0  0  0  0  0
    0.4480   12.9960   -3.9300 C   0  0  2  0  0  0  0  0  0  0  0  0
    2.1730   14.5620   -4.3400 O   0  0  0  0  0  0  0  0  0  0  0  0
    0.5080   12.1290   -2.7330 C   0  0  0  0  0  0  0  0  0  0  0  0
    1.8340   13.2670   -4.3690 C   0  0  0  0  0  0  0  0  0  0  0  0
    0.4540   10.7670   -2.9460 O   0  0  0  0  0  0  0  0  0  0  0  0
    0.6030   12.5650   -1.5540 O   0  0  0  0  0  0  0  0  0  0  0  0
  1  2  1  0
  2  3  1  0
  2  4  1  0
  2  5  1  0
  3  6  1  0
  6  7  1  0
  6  8  1  0
  6  9  1  0
  7 10  1  0
 11 10  1  6
 11 12  1  0
 11 13  1  0
 12 14  1  0
 13 15  1  0
 14 16  1  1
 14 17  1  0
 15 17  1  0
 16 18  1  0
 16 19  2  0
M  CHG  2   4  -1   8  -1
M  END
