5CB5_0_I_α-6WOJ_0_C_β
     RDKit          3D

 17 17  0  0  0  0  0  0  0  0999 V2000
   -2.0400   21.4370   -7.4930 C   0  0  0  0  0  0  0  0  0  0  0  0
   -0.6140   20.4580   -7.8630 P   0  0  0  0  0  0  0  0  0  0  0  0
   -0.5290   19.7570   -6.4800 O   0  0  0  0  0  0  0  0  0  0  0  0
   -3.1430   21.6380   -8.5390 C   0  0  1  0  0  0  0  0  0  0  0  0
    0.8740   21.0630   -7.6690 O   0  0  0  0  0  0  0  0  0  0  0  0
   -0.7110   18.8710   -8.4850 O   0  0  0  0  0  0  0  0  0  0  0  0
   -4.2830   20.8740   -8.2810 O   0  0  0  0  0  0  0  0  0  0  0  0
   -3.7420   23.0380   -8.5090 C   0  0  1  0  0  0  0  0  0  0  0  0
   -4.6490   23.1880   -9.5510 O   0  0  0  0  0  0  0  0  0  0  0  0
   -1.1170   18.2450   -6.1170 P   0  0  0  0  0  0  0  0  0  0  0  0
   -5.0770   21.5410   -7.3760 C   0  0  2  0  0  0  0  0  0  0  0  0
   -4.5340   22.9170   -7.2120 C   0  0  2  0  0  0  0  0  0  0  0  0
   -5.1160   20.9630   -6.1240 O   0  0  0  0  0  0  0  0  0  0  0  0
   -5.5690   23.8790   -7.2210 O   0  0  0  0  0  0  0  0  0  0  0  0
   -0.1290   17.1040   -5.3730 O   0  0  0  0  0  0  0  0  0  0  0  0
   -1.5480   18.7130   -4.7230 O   0  0  0  0  0  0  0  0  0  0  0  0
   -2.5350   17.7460   -6.6600 O   0  0  0  0  0  0  0  0  0  0  0  0
  1  2  1  0
  2  3  1  0
  4  1  1  1
  2  5  1  0
  2  6  1  0
  4  7  1  0
  4  8  1  0
  8  9  1  6
  3 10  1  0
  7 11  1  0
  8 12  1  0
 11 12  1  0
 11 13  1  1
 12 14  1  6
 10 15  1  0
 10 16  1  0
 10 17  1  0
M  CHG  2   5  -1  16  -1
M  END
