5CB5_0_L_β-5CB5_0_A_α
     RDKit          3D

 17 17  0  0  0  0  0  0  0  0999 V2000
   -1.8270   21.1860   -9.0140 O   0  0  0  0  0  0  0  0  0  0  0  0
   -0.7770   20.3670   -7.9510 P   0  0  0  0  0  0  0  0  0  0  0  0
   -1.3760   19.7780   -6.5510 O   0  0  0  0  0  0  0  0  0  0  0  0
   -3.1660   21.5600   -8.6810 C   0  0  1  0  0  0  0  0  0  0  0  0
   -0.4740   21.7110   -7.3100 O   0  0  0  0  0  0  0  0  0  0  0  0
   -0.9290   19.0130   -8.6410 O   0  0  0  0  0  0  0  0  0  0  0  0
   -3.6800   21.1940   -7.4690 O   0  0  0  0  0  0  0  0  0  0  0  0
   -3.3730   23.1010   -8.6480 C   0  0  1  0  0  0  0  0  0  0  0  0
   -1.2900   18.3150   -6.0780 P   0  0  0  0  0  0  0  0  0  0  0  0
   -3.9450   23.4350   -9.8690 O   0  0  0  0  0  0  0  0  0  0  0  0
   -4.8710   21.8760   -7.3590 C   0  0  2  0  0  0  0  0  0  0  0  0
   -4.4790   23.2940   -7.5950 C   0  0  2  0  0  0  0  0  0  0  0  0
   -1.0610   16.8510   -5.6780 O   0  0  0  0  0  0  0  0  0  0  0  0
   -2.5780   17.9280   -7.0070 O   0  0  0  0  0  0  0  0  0  0  0  0
   -1.5900   18.7510   -4.5290 O   0  0  0  0  0  0  0  0  0  0  0  0
   -5.6050   21.7080   -6.1870 O   0  0  0  0  0  0  0  0  0  0  0  0
   -5.4820   24.0110   -8.2690 O   0  0  0  0  0  0  0  0  0  0  0  0
  1  2  1  0
  2  3  1  0
  4  1  1  1
  2  5  1  0
  2  6  1  0
  4  7  1  0
  4  8  1  0
  3  9  1  0
  8 10  1  6
  7 11  1  0
  8 12  1  0
 11 12  1  0
  9 13  1  0
  9 14  1  0
  9 15  1  0
 11 16  1  1
 12 17  1  6
M  CHG  2   5  -1  14  -1
M  END
