5cb5_O_0_O_γ-5cb5_J_2_J_β
     RDKit          3D

 16 16  0  0  0  0  0  0  0  0999 V2000
   -1.3660   12.8020   -4.1050 O   0  0  0  0  0  0  0  0  0  0  0  0
   -0.2460   13.6440   -3.9300 C   0  0  2  0  0  0  0  0  0  0  0  0
   -0.3970   14.6400   -2.7780 C   0  0  0  0  0  0  0  0  0  0  0  0
    0.0020   14.5230   -5.1450 C   0  0  2  0  0  0  0  0  0  0  0  0
    1.4100   14.4390   -5.3760 O   0  0  0  0  0  0  0  0  0  0  0  0
   -0.0040   15.9240   -3.2860 O   0  0  0  0  0  0  0  0  0  0  0  0
   -0.4760   15.8900   -4.6370 C   0  0  1  0  0  0  0  0  0  0  0  0
   -0.0100   17.1460   -5.3560 C   0  0  0  0  0  0  0  0  0  0  0  0
   -1.3390   18.2230   -5.9640 P   0  0  1  0  0  0  0  0  0  0  0  0
   -0.6330   19.4780   -6.5760 O   0  0  0  0  0  0  0  0  0  0  0  0
   -2.3720   17.5550   -6.8230 O   0  0  0  0  0  0  0  0  0  0  0  0
   -1.9980   18.9740   -4.7210 O   0  0  0  0  0  0  0  0  0  0  0  0
   -0.2160   19.9950   -7.9710 P   0  0  0  0  0  0  0  0  0  0  0  0
   -1.5710   20.5400   -8.5960 O   0  0  0  0  0  0  0  0  0  0  0  0
    0.8810   20.9790   -8.0060 O   0  0  0  0  0  0  0  0  0  0  0  0
    0.0040   18.6880   -8.8650 O   0  0  0  0  0  0  0  0  0  0  0  0
  2  1  1  6
  2  3  1  0
  2  4  1  0
  4  5  1  1
  3  6  1  0
  4  7  1  0
  6  7  1  0
  7  8  1  6
  8  9  1  0
  9 10  1  0
  9 11  2  0
  9 12  1  1
 10 13  1  0
 13 14  1  0
 13 15  2  0
 13 16  1  0
M  END
