5CB5_0_I_α-6mea_A_0_A_γ
     RDKit          3D

 22 23  0  0  0  0  0  0  0  0999 V2000
   -2.0310   21.9080   -8.2050 C   0  0  0  0  0  0  0  0  0  0  0  0
   -3.4220   21.9920   -8.8350 C   0  0  1  0  0  0  0  0  0  0  0  0
   -4.2210   20.9220   -8.3270 O   0  0  0  0  0  0  0  0  0  0  0  0
   -4.1250   23.3040   -8.5130 C   0  0  1  0  0  0  0  0  0  0  0  0
   -4.6170   23.9240   -9.7100 O   0  0  0  0  0  0  0  0  0  0  0  0
   -5.2830   21.3940   -7.5250 C   0  0  2  0  0  0  0  0  0  0  0  0
   -5.3370   22.9200   -7.6830 C   0  0  1  0  0  0  0  0  0  0  0  0
   -5.0670   21.0470   -6.1610 O   0  0  0  0  0  0  0  0  0  0  0  0
   -5.3760   23.6400   -6.4540 O   0  0  0  0  0  0  0  0  0  0  0  0
   -3.6650   20.9160   -5.8480 C   0  0  0  0  0  0  0  0  0  0  0  0
   -2.9260   19.8650   -6.7090 C   0  0  0  0  0  0  0  0  0  0  0  0
   -1.5130   19.5080   -6.2350 C   0  0  0  0  0  0  0  0  0  0  0  0
   -1.4570   18.4060   -5.1640 C   0  0  0  0  0  0  0  0  0  0  0  0
   -0.6580   17.1780   -5.6080 C   0  0  0  0  0  0  0  0  0  0  0  0
    0.6950   16.9790   -4.9190 C   0  0  0  0  0  0  0  0  0  0  0  0
    0.8820   15.6920   -4.0700 C   0  0  1  0  0  0  0  0  0  0  0  0
    0.0690   15.7860   -2.8670 O   0  0  0  0  0  0  0  0  0  0  0  0
    0.5210   14.3090   -4.6430 C   0  0  2  0  0  0  0  0  0  0  0  0
    0.7030   14.0660   -6.0100 O   0  0  0  0  0  0  0  0  0  0  0  0
   -0.8100   14.6490   -2.8080 C   0  0  0  0  0  0  0  0  0  0  0  0
   -0.9270   14.1640   -4.2350 C   0  0  2  0  0  0  0  0  0  0  0  0
   -1.3550   12.8240   -4.3900 O   0  0  0  0  0  0  0  0  0  0  0  0
  2  1  1  1
  2  3  1  0
  2  4  1  0
  4  5  1  6
  3  6  1  0
  4  7  1  0
  6  7  1  0
  6  8  1  1
  7  9  1  1
  8 10  1  0
 10 11  1  0
 11 12  1  0
 12 13  1  0
 13 14  1  0
 14 15  1  0
 16 15  1  6
 16 17  1  0
 16 18  1  0
 18 19  1  6
 17 20  1  0
 18 21  1  0
 20 21  1  0
 21 22  1  1
M  END
