5cb5_N_0_N_γ-x1018_0_A_α
     RDKit          3D

 19 21  0  0  0  0  0  0  0  0999 V2000
   -0.6070   13.1320   -3.5630 O   0  0  0  0  0  0  0  0  0  0  0  0
   -1.0440   14.1950   -4.4100 C   0  0  1  0  0  0  0  0  0  0  0  0
   -1.5090   15.5080   -3.7390 C   0  0  1  0  0  0  0  0  0  0  0  0
    0.1730   14.6940   -5.2010 C   0  0  2  0  0  0  0  0  0  0  0  0
    1.4020   14.2420   -4.6650 O   0  0  0  0  0  0  0  0  0  0  0  0
   -2.2320   15.5770   -2.4180 C   0  0  0  0  0  0  0  0  0  0  0  0
   -0.4000   16.4040   -3.7790 O   0  0  0  0  0  0  0  0  0  0  0  0
   -0.0750   16.2140   -5.1450 C   0  0  1  0  0  0  0  0  0  0  0  0
    0.9750   17.1880   -5.5890 C   0  0  0  0  0  0  0  0  0  0  0  0
   -3.0840   14.5210   -1.9320 N   0  0  0  0  0  0  0  0  0  0  0  0
   -2.8780   14.4140   -0.5230 N   0  0  0  0  0  0  0  0  0  0  0  0
   -4.4860   14.6810   -2.2400 N   0  0  0  0  0  0  0  0  0  0  0  0
   -5.0670   14.7570   -0.9850 N   0  0  0  0  0  0  0  0  0  0  0  0
   -4.2050   14.0850   -0.0530 C   0  0  2  0  0  0  0  0  0  0  0  0
   -6.4190   14.6500   -0.8450 N   0  0  0  0  0  0  0  0  0  0  0  0
   -4.5430   14.5730    1.2710 C   0  0  0  0  0  0  0  0  0  0  0  0
   -6.7790   14.6940    0.4110 C   0  0  0  0  0  0  0  0  0  0  0  0
   -5.8170   14.8680    1.5410 C   0  0  0  0  0  0  0  0  0  0  0  0
   -8.4680   14.5610    0.7460 Cl  0  0  0  0  0  0  0  0  0  0  0  0
  2  1  1  1
  2  3  1  0
  2  4  1  0
  4  5  1  1
  3  6  1  1
  3  7  1  0
  4  8  1  0
  7  8  1  0
  8  9  1  1
  6 10  1  0
 10 11  1  0
 10 12  1  0
 12 13  1  0
 11 14  1  0
 13 14  1  0
 13 15  1  0
 14 16  1  1
 15 17  2  0
 16 18  2  0
 17 18  1  0
 17 19  1  0
M  END
