5cb5_A_0_A_α-5CB5_0_C_α
     RDKit          3D

  9  9  0  0  0  0  0  0  0  0999 V2000
   -1.9980   21.9180   -8.2750 C   0  0  0  0  0  0  0  0  0  0  0  0
   -3.4560   22.0760   -8.6850 C   0  0  1  0  0  0  0  0  0  0  0  0
   -4.2200   21.3270   -7.7510 O   0  0  0  0  0  0  0  0  0  0  0  0
   -3.9950   23.5030   -8.6040 C   0  0  1  0  0  0  0  0  0  0  0  0
   -4.2450   24.0870   -9.8700 O   0  0  0  0  0  0  0  0  0  0  0  0
   -5.5010   21.9230   -7.6080 C   0  0  2  0  0  0  0  0  0  0  0  0
   -5.3490   23.4010   -7.8890 C   0  0  1  0  0  0  0  0  0  0  0  0
   -5.9130   21.7220   -6.2550 O   0  0  0  0  0  0  0  0  0  0  0  0
   -5.4560   24.1930   -6.7100 O   0  0  0  0  0  0  0  0  0  0  0  0
  2  1  1  1
  2  3  1  0
  2  4  1  0
  4  5  1  6
  3  6  1  0
  4  7  1  0
  6  7  1  0
  6  8  1  1
  7  9  1  1
M  END
