5CB5_0_H_γ-3Q6Z_0_A_δ
     RDKit          3D

 17 19  0  0  0  0  0  0  0  0999 V2000
   -1.4340   12.1850   -3.7840 O   0  0  0  0  0  0  0  0  0  0  0  0
   -0.9910   13.5050   -3.5490 C   0  0  2  0  0  0  0  0  0  0  0  0
   -2.0440   14.5480   -3.1530 C   0  0  2  0  0  0  0  0  0  0  0  0
   -0.3890   14.0860   -4.8450 C   0  0  2  0  0  0  0  0  0  0  0  0
    0.9710   13.7120   -4.9950 O   0  0  0  0  0  0  0  0  0  0  0  0
   -1.2750   15.7410   -3.4450 O   0  0  0  0  0  0  0  0  0  0  0  0
   -0.6460   15.5860   -4.7220 C   0  0  1  0  0  0  0  0  0  0  0  0
   -2.6880   14.6820   -1.7150 C   0  0  1  0  0  0  0  0  0  0  0  0
   -3.3260   14.4670   -4.0330 C   0  0  0  0  0  0  0  0  0  0  0  0
    0.5540   16.5350   -4.8120 C   0  0  0  0  0  0  0  0  0  0  0  0
   -4.1580   15.0680   -2.0220 C   0  0  1  0  0  0  0  0  0  0  0  0
   -4.4950   14.2060   -3.1530 N   0  0  0  0  0  0  0  0  0  0  0  0
   -2.5690   13.7030   -0.6390 N   0  0  0  0  0  0  0  0  0  0  0  0
   -3.1940   14.2200    0.5750 C   0  0  0  0  0  0  0  0  0  0  0  0
   -5.0580   15.0950   -0.7340 C   0  0  1  0  0  0  0  0  0  0  0  0
   -6.4280   14.6800   -0.9610 N   0  0  0  0  0  0  0  0  0  0  0  0
   -4.6220   14.2990    0.3960 N   0  0  0  0  0  0  0  0  0  0  0  0
  2  1  1  6
  2  3  1  0
  2  4  1  0
  4  5  1  1
  3  6  1  0
  4  7  1  0
  6  7  1  0
  3  8  1  0
  3  9  1  6
  7 10  1  1
  8 11  1  0
  9 12  1  0
 11 12  1  6
  8 13  1  6
 13 14  1  0
 11 15  1  0
 15 16  1  6
 14 17  1  0
 15 17  1  0
M  END
