5CB5_0_A_β-6WOJ_0_D_α
     RDKit          3D

 17 17  0  0  0  0  0  0  0  0999 V2000
   -1.8390   21.3180   -8.8080 O   0  0  0  0  0  0  0  0  0  0  0  0
   -0.7380   20.3120   -7.9650 P   0  0  0  0  0  0  0  0  0  0  0  0
   -1.2110   19.7630   -6.5070 O   0  0  0  0  0  0  0  0  0  0  0  0
   -3.1660   21.5720   -8.3230 C   0  0  1  0  0  0  0  0  0  0  0  0
   -0.1870   21.5800   -7.3540 O   0  0  0  0  0  0  0  0  0  0  0  0
   -1.1210   19.0060   -8.6430 O   0  0  0  0  0  0  0  0  0  0  0  0
   -3.4900   21.1180   -7.0720 O   0  0  0  0  0  0  0  0  0  0  0  0
   -3.5680   23.1000   -8.2210 C   0  0  2  0  0  0  0  0  0  0  0  0
   -1.4040   18.3020   -6.0470 P   0  0  0  0  0  0  0  0  0  0  0  0
   -2.4550   23.8700   -8.3300 O   0  0  0  0  0  0  0  0  0  0  0  0
   -4.6260   21.8000   -6.7280 C   0  0  2  0  0  0  0  0  0  0  0  0
   -4.1710   23.2080   -6.7970 C   0  0  2  0  0  0  0  0  0  0  0  0
   -1.4540   16.8310   -5.6220 O   0  0  0  0  0  0  0  0  0  0  0  0
   -2.6930   18.1080   -7.0280 O   0  0  0  0  0  0  0  0  0  0  0  0
   -1.6900   18.8310   -4.5260 O   0  0  0  0  0  0  0  0  0  0  0  0
   -5.2370   21.4870   -5.5300 O   0  0  0  0  0  0  0  0  0  0  0  0
   -5.2400   24.1280   -6.7990 O   0  0  0  0  0  0  0  0  0  0  0  0
  1  2  1  0
  2  3  1  0
  4  1  1  1
  2  5  1  0
  2  6  1  0
  4  7  1  0
  4  8  1  0
  3  9  1  0
  8 10  1  1
  7 11  1  0
  8 12  1  0
 11 12  1  0
  9 13  1  0
  9 14  1  0
  9 15  1  0
 11 16  1  1
 12 17  1  6
M  CHG  2   5  -1  14  -1
M  END
