5cb5_B_0_B_β-5LW0_1_B_α
     RDKit          3D

 17 17  0  0  0  0  0  0  0  0999 V2000
   -2.0160   21.5100   -8.1780 O   0  0  0  0  0  0  0  0  0  0  0  0
   -0.8960   20.3680   -7.7750 P   0  0  2  0  0  0  0  0  0  0  0  0
   -1.2940   19.8440   -6.3330 O   0  0  0  0  0  0  0  0  0  0  0  0
   -3.3900   21.3830   -8.6120 C   0  0  1  0  0  0  0  0  0  0  0  0
    0.5200   20.8590   -7.7630 O   0  0  0  0  0  0  0  0  0  0  0  0
   -0.9850   19.0210   -8.6560 O   0  0  0  0  0  0  0  0  0  0  0  0
   -4.1890   20.4650   -7.8110 O   0  0  0  0  0  0  0  0  0  0  0  0
   -4.2540   22.6590   -8.6910 C   0  0  1  0  0  0  0  0  0  0  0  0
   -1.6910   18.3320   -6.0990 P   0  0  0  0  0  0  0  0  0  0  0  0
   -4.9510   22.7430   -9.9510 O   0  0  0  0  0  0  0  0  0  0  0  0
   -5.5060   20.9910   -7.8100 C   0  0  2  0  0  0  0  0  0  0  0  0
   -5.2750   22.4620   -7.5910 C   0  0  2  0  0  0  0  0  0  0  0  0
   -0.3460   17.4990   -6.1900 O   0  0  0  0  0  0  0  0  0  0  0  0
   -2.7940   17.7800   -6.8980 O   0  0  0  0  0  0  0  0  0  0  0  0
   -1.9380   18.2600   -4.5350 O   0  0  0  0  0  0  0  0  0  0  0  0
   -6.2720   20.4040   -6.7860 O   0  0  0  0  0  0  0  0  0  0  0  0
   -6.4510   23.2010   -7.9130 O   0  0  0  0  0  0  0  0  0  0  0  0
  1  2  1  0
  2  3  1  0
  4  1  1  1
  2  5  2  0
  2  6  1  6
  4  7  1  0
  4  8  1  0
  3  9  1  0
  8 10  1  6
  7 11  1  0
  8 12  1  0
 11 12  1  0
  9 13  1  0
  9 14  2  0
  9 15  1  0
 11 16  1  1
 12 17  1  6
M  END
