5CB5_0_O_α-5CB5_0_J_α
     RDKit          3D

  9  9  0  0  0  0  0  0  0  0999 V2000
   -2.0430   22.0910   -8.1060 C   0  0  0  0  0  0  0  0  0  0  0  0
   -3.4000   22.2740   -8.7680 C   0  0  1  0  0  0  0  0  0  0  0  0
   -4.3020   21.3250   -8.2360 O   0  0  0  0  0  0  0  0  0  0  0  0
   -4.0110   23.6550   -8.5690 C   0  0  1  0  0  0  0  0  0  0  0  0
   -4.3310   24.2720   -9.8010 O   0  0  0  0  0  0  0  0  0  0  0  0
   -5.4710   21.9470   -7.7120 C   0  0  2  0  0  0  0  0  0  0  0  0
   -5.3260   23.4530   -7.8280 C   0  0  1  0  0  0  0  0  0  0  0  0
   -5.5950   21.5840   -6.3310 O   0  0  0  0  0  0  0  0  0  0  0  0
   -5.4160   24.1440   -6.5850 O   0  0  0  0  0  0  0  0  0  0  0  0
  2  1  1  1
  2  3  1  0
  2  4  1  0
  4  5  1  6
  3  6  1  0
  4  7  1  0
  6  7  1  0
  6  8  1  1
  7  9  1  1
M  END
