5cb5_L_0_L_β-5cms_J_9_J_α
     RDKit          3D

 16 17  0  0  0  0  0  0  0  0999 V2000
   -2.0220   20.2720   -8.1490 O   0  0  0  0  0  0  0  0  0  0  0  0
   -0.5560   20.0110   -7.6980 P   0  0  2  0  0  0  0  0  0  0  0  0
   -0.5580   19.3110   -6.3170 O   0  0  0  0  0  0  0  0  0  0  0  0
   -1.8700   21.1800   -9.2710 N   0  0  0  0  0  0  0  0  0  0  0  0
   -0.1290   21.6390   -7.6180 N   0  0  0  0  0  0  0  0  0  0  0  0
    0.1770   19.0520   -8.7280 O   0  0  0  0  0  0  0  0  0  0  0  0
   -1.0350   22.2200   -8.6520 C   0  0  2  0  0  0  0  0  0  0  0  0
   -3.2020   21.7490   -9.5540 C   0  0  0  0  0  0  0  0  0  0  0  0
   -1.5100   18.1030   -5.9880 P   0  0  0  0  0  0  0  0  0  0  0  0
   -3.2990   23.1530   -9.0470 C   0  0  1  0  0  0  0  0  0  0  0  0
   -1.9480   23.4270   -8.3720 C   0  0  2  0  0  0  0  0  0  0  0  0
   -0.4490   16.9220   -5.8120 O   0  0  0  0  0  0  0  0  0  0  0  0
   -2.6340   17.8060   -6.9040 O   0  0  0  0  0  0  0  0  0  0  0  0
   -1.8360   18.3830   -4.4770 O   0  0  0  0  0  0  0  0  0  0  0  0
   -1.4120   24.5610   -9.0240 O   0  0  0  0  0  0  0  0  0  0  0  0
   -3.6460   24.0290  -10.1290 O   0  0  0  0  0  0  0  0  0  0  0  0
  1  2  1  0
  2  3  1  0
  1  4  1  0
  2  5  2  0
  2  6  1  6
  4  7  1  0
  7  5  1  1
  4  8  1  0
  3  9  1  0
  8 10  1  0
  7 11  1  0
 10 11  1  0
  9 12  1  0
  9 13  2  0
  9 14  1  0
 11 15  1  6
 10 16  1  6
M  END
