5CB5_0_N_β-1VHU_0_A_α
     RDKit          3D

 17 17  0  0  0  0  0  0  0  0999 V2000
   -1.8900   20.6240   -8.2800 O   0  0  0  0  0  0  0  0  0  0  0  0
   -0.4390   19.9890   -7.7520 P   0  0  0  0  0  0  0  0  0  0  0  0
   -0.4380   18.7020   -6.7250 O   0  0  0  0  0  0  0  0  0  0  0  0
   -2.0350   21.9130   -7.7990 C   0  0  0  0  0  0  0  0  0  0  0  0
    0.8460   20.8410   -8.1220 O   0  0  0  0  0  0  0  0  0  0  0  0
   -0.2080   18.9370   -8.8440 O   0  0  0  0  0  0  0  0  0  0  0  0
   -3.3940   22.3850   -7.8800 N   0  0  0  0  0  0  0  0  0  0  0  0
   -1.8030   18.6400   -5.9380 P   0  0  0  0  0  0  0  0  0  0  0  0
    1.6600   21.3620   -7.3170 O   0  0  0  0  0  0  0  0  0  0  0  0
   -3.7540   22.8290   -9.1740 C   0  0  0  0  0  0  0  0  0  0  0  0
   -3.7140   23.3160   -6.8500 C   0  0  0  0  0  0  0  0  0  0  0  0
   -1.9450   17.6950   -4.6170 O   0  0  0  0  0  0  0  0  0  0  0  0
   -3.0340   19.6510   -6.4160 O   0  0  0  0  0  0  0  0  0  0  0  0
   -2.4870   17.5750   -6.7440 O   0  0  0  0  0  0  0  0  0  0  0  0
   -5.2430   23.1430   -9.1810 C   0  0  0  0  0  0  0  0  0  0  0  0
   -5.1860   23.6910   -6.9690 C   0  0  0  0  0  0  0  0  0  0  0  0
   -5.5170   24.1060   -8.2500 O   0  0  0  0  0  0  0  0  0  0  0  0
  1  2  1  0
  2  3  1  0
  1  4  1  0
  2  5  1  0
  2  6  1  0
  4  7  1  0
  3  8  1  0
  5  9  1  0
  7 10  1  0
  7 11  1  0
  8 12  1  0
  8 13  1  0
  8 14  1  0
 10 15  1  0
 11 16  1  0
 15 17  1  0
 16 17  1  0
M  CHG  1  13  -1
M  END
