5CB5_0_N_Î²
     RDKit          3D

  9  8  0  0  0  0  0  0  0  0999 V2000
   -1.8060   20.4110   -8.9430 O   0  0  0  0  0  0  0  0  0  0  0  0
   -0.5590   19.5870   -8.3270 P   0  0  0  0  0  0  0  0  0  0  0  0
   -0.9390   19.2860   -6.8040 O   0  0  0  0  0  0  0  0  0  0  0  0
    0.6610   20.5230   -8.3720 O   0  0  0  0  0  0  0  0  0  0  0  0
   -0.3900   18.3500   -9.1920 O   0  0  0  0  0  0  0  0  0  0  0  0
   -2.2230   18.3410   -6.4140 P   0  0  0  0  0  0  0  0  0  0  0  0
   -1.4590   17.1260   -5.5890 O   0  0  0  0  0  0  0  0  0  0  0  0
   -2.9430   17.8770   -7.6770 O   0  0  0  0  0  0  0  0  0  0  0  0
   -3.1280   19.0600   -5.3530 O   0  0  0  0  0  0  0  0  0  0  0  0
  2  1  1  0
  3  2  1  0
  2  4  1  0
  2  5  1  0
  6  3  1  0
  6  7  1  0
  6  8  1  0
  6  9  1  0
M  CHG  2   4  -1   8  -1
M  END
