5CB5_0_E_δ-x0926_0_A_α
     RDKit          3D

 11 12  0  0  0  0  0  0  0  0999 V2000
   -3.9830   15.6260    1.9890 N   0  0  0  0  0  0  0  0  0  0  0  0
   -3.1380   14.7800    1.1730 C   0  0  1  0  0  0  0  0  0  0  0  0
   -3.2920   15.1450   -0.2620 C   0  0  1  0  0  0  0  0  0  0  0  0
   -1.8000   15.1020    1.6440 N   0  0  0  0  0  0  0  0  0  0  0  0
   -2.1670   14.4870   -1.0080 C   0  0  1  0  0  0  0  0  0  0  0  0
   -4.4220   14.7010   -1.1150 C   0  0  0  0  0  0  0  0  0  0  0  0
   -0.6470   14.6450    0.8680 C   0  0  0  0  0  0  0  0  0  0  0  0
   -5.5780   14.4230   -0.7550 O   0  0  0  0  0  0  0  0  0  0  0  0
   -2.4240   14.8180   -2.3920 N   0  0  0  0  0  0  0  0  0  0  0  0
   -3.8940   14.6860   -2.5440 C   0  0  0  0  0  0  0  0  0  0  0  0
   -0.8450   14.8400   -0.5590 N   0  0  0  0  0  0  0  0  0  0  0  0
  2  1  1  1
  2  3  1  0
  2  4  1  0
  3  5  1  0
  3  6  1  6
  4  7  1  0
  6  8  2  0
  5  9  1  6
  6 10  1  0
  9 10  1  0
  5 11  1  0
  7 11  1  0
M  END
