5cb5_K_0_K_β-5CMS_0_N_β
     RDKit          3D

  9  8  0  0  0  0  0  0  0  0999 V2000
   -1.6610   20.4290   -8.2440 O   0  0  0  0  0  0  0  0  0  0  0  0
   -0.1950   19.9510   -7.8470 P   0  0  0  0  0  0  0  0  0  0  0  0
   -0.3070   19.2040   -6.4880 O   0  0  0  0  0  0  0  0  0  0  0  0
    0.8090   21.0410   -7.9240 O   0  0  0  0  0  0  0  0  0  0  0  0
    0.0530   18.7640   -8.8900 O   0  0  0  0  0  0  0  0  0  0  0  0
   -1.4560   18.2210   -6.0570 P   0  0  0  0  0  0  0  0  0  0  0  0
   -0.7170   16.8530   -5.7240 O   0  0  0  0  0  0  0  0  0  0  0  0
   -2.5510   18.1020   -7.0430 O   0  0  0  0  0  0  0  0  0  0  0  0
   -1.8630   18.7860   -4.6330 O   0  0  0  0  0  0  0  0  0  0  0  0
  1  2  1  0
  2  3  1  0
  2  4  2  0
  2  5  1  0
  3  6  1  0
  6  7  1  0
  6  8  2  0
  6  9  1  0
M  END
