5cb5_F_1_F_α-5cms_E_5_E_α
     RDKit          3D

 18 20  0  0  0  0  0  0  0  0999 V2000
   -1.7030   21.2830   -9.2530 C   0  0  0  0  0  0  0  0  0  0  0  0
   -2.6920   21.5520   -8.1170 C   0  0  1  0  0  0  0  0  0  0  0  0
   -3.7320   22.4130   -8.7480 C   0  0  2  0  0  0  0  0  0  0  0  0
   -2.4800   21.9590  -10.3580 C   0  0  1  0  0  0  0  0  0  0  0  0
   -3.5570   20.5610   -7.5670 O   0  0  0  0  0  0  0  0  0  0  0  0
   -2.9860   23.1190   -9.6810 N   0  0  0  0  0  0  0  0  0  0  0  0
   -1.8830   22.5540  -11.6100 C   0  0  1  0  0  0  0  0  0  0  0  0
   -2.4770   21.8700  -12.7060 O   0  0  0  0  0  0  0  0  0  0  0  0
   -4.2800   22.8210   -7.4700 C   0  0  2  0  0  0  0  0  0  0  0  0
   -4.5040   21.4190   -6.8570 C   0  0  1  0  0  0  0  0  0  0  0  0
   -3.6000   23.8350  -10.7280 C   0  0  0  0  0  0  0  0  0  0  0  0
   -2.3660   23.9930  -11.5890 C   0  0  1  0  0  0  0  0  0  0  0  0
   -5.3870   23.6420   -7.7670 O   0  0  0  0  0  0  0  0  0  0  0  0
   -5.8260   20.9220   -6.9250 O   0  0  0  0  0  0  0  0  0  0  0  0
   -1.3370   24.7800  -11.0000 O   0  0  0  0  0  0  0  0  0  0  0  0
   -5.3320   24.3910   -6.7070 C   0  0  0  0  0  0  0  0  0  0  0  0
   -4.6430   25.6700   -6.8670 C   0  0  0  0  0  0  0  0  0  0  0  0
   -5.7390   24.0040   -5.7100 O   0  0  0  0  0  0  0  0  0  0  0  0
  2  1  1  6
  2  3  1  0
  4  1  1  1
  2  5  1  0
  3  6  1  1
  4  6  1  0
  4  7  1  0
  7  8  1  6
  3  9  1  0
  5 10  1  0
  9 10  1  0
  6 11  1  0
  7 12  1  0
 11 12  1  0
  9 13  1  6
 10 14  1  6
 12 15  1  1
 13 16  1  0
 16 17  1  0
 16 18  2  0
M  END
