5CB5_0_E_δ-5LW0_0_A_γ
     RDKit          3D

 17 19  0  0  0  0  0  0  0  0999 V2000
   -3.7640   15.5750    1.6270 N   0  0  0  0  0  0  0  0  0  0  0  0
   -2.8030   14.8160    0.8520 C   0  0  1  0  0  0  0  0  0  0  0  0
   -2.6110   15.2780   -0.6050 C   0  0  1  0  0  0  0  0  0  0  0  0
   -1.5490   14.8310    1.5910 N   0  0  0  0  0  0  0  0  0  0  0  0
   -1.4480   14.4180   -1.0930 C   0  0  1  0  0  0  0  0  0  0  0  0
   -3.6910   15.0130   -1.5780 N   0  0  0  0  0  0  0  0  0  0  0  0
   -0.3920   15.3710    0.8600 C   0  0  0  0  0  0  0  0  0  0  0  0
   -1.4810   14.5440   -2.6270 C   0  0  1  0  0  0  0  0  0  0  0  0
   -2.9860   14.8370   -2.8850 C   0  0  0  0  0  0  0  0  0  0  0  0
   -0.2200   14.7670   -0.4310 N   0  0  0  0  0  0  0  0  0  0  0  0
   -0.6370   15.6790   -3.0360 O   0  0  0  0  0  0  0  0  0  0  0  0
   -0.8160   13.3620   -3.3960 C   0  0  1  0  0  0  0  0  0  0  0  0
   -1.5970   12.2530   -3.7900 O   0  0  0  0  0  0  0  0  0  0  0  0
   -0.3230   15.4610   -4.4260 C   0  0  2  0  0  0  0  0  0  0  0  0
   -0.0430   13.9670   -4.5710 C   0  0  1  0  0  0  0  0  0  0  0  0
    0.8060   16.3600   -4.8970 C   0  0  0  0  0  0  0  0  0  0  0  0
    1.3360   13.5970   -4.5130 O   0  0  0  0  0  0  0  0  0  0  0  0
  2  1  1  1
  2  3  1  0
  2  4  1  0
  3  5  1  0
  3  6  1  6
  4  7  1  0
  5  8  1  0
  6  9  1  0
  8  9  1  6
  5 10  1  1
  7 10  1  0
  8 11  1  0
  8 12  1  0
 12 13  1  6
 11 14  1  0
 12 15  1  0
 14 15  1  0
 14 16  1  1
 15 17  1  1
M  END
