5CB5_0_E_γ-x0722_0_A_α
     RDKit          3D

 20 21  0  0  0  0  0  0  0  0999 V2000
   -0.6000   12.2870   -4.0160 O   0  0  0  0  0  0  0  0  0  0  0  0
   -1.0040   13.6530   -4.1190 C   0  0  1  0  0  0  0  0  0  0  0  0
   -0.8570   14.3900   -2.7670 C   0  0  2  0  0  0  0  0  0  0  0  0
   -0.0710   14.3860   -5.0510 C   0  0  2  0  0  0  0  0  0  0  0  0
    1.2670   13.9500   -4.8220 O   0  0  0  0  0  0  0  0  0  0  0  0
   -2.2550   14.4350   -2.1100 C   0  0  0  0  0  0  0  0  0  0  0  0
   -0.3490   15.7090   -3.1320 O   0  0  0  0  0  0  0  0  0  0  0  0
   -0.3210   15.8150   -4.5750 C   0  0  1  0  0  0  0  0  0  0  0  0
    0.7090   16.8490   -5.0080 C   0  0  0  0  0  0  0  0  0  0  0  0
   -2.4590   14.7260   -0.6380 C   0  0  0  0  0  0  0  0  0  0  0  0
   -3.6290   15.2340   -0.1060 C   0  0  0  0  0  0  0  0  0  0  0  0
   -1.6050   14.5720    0.4540 N   0  0  0  0  0  0  0  0  0  0  0  0
   -0.2440   14.0920    0.5350 C   0  0  0  0  0  0  0  0  0  0  0  0
   -4.8870   15.5990   -0.8400 C   0  0  0  0  0  0  0  0  0  0  0  0
   -2.1700   14.9410    1.6080 N   0  0  0  0  0  0  0  0  0  0  0  0
   -3.3900   15.3440    1.2710 C   0  0  0  0  0  0  0  0  0  0  0  0
   -4.3020   15.8400    2.3000 C   0  0  0  0  0  0  0  0  0  0  0  0
   -6.0680   14.7000   -0.5360 C   0  0  0  0  0  0  0  0  0  0  0  0
   -7.2320   15.0380   -0.7400 O   0  0  0  0  0  0  0  0  0  0  0  0
   -5.7900   13.4710   -0.0080 N   0  0  0  0  0  0  0  0  0  0  0  0
  2  1  1  1
  2  3  1  0
  2  4  1  0
  4  5  1  1
  3  6  1  6
  3  7  1  0
  4  8  1  0
  7  8  1  0
  8  9  1  1
  6 10  1  0
 10 11  2  0
 10 12  1  0
 12 13  1  0
 11 14  1  0
 12 15  1  0
 11 16  1  0
 15 16  2  0
 16 17  1  0
 14 18  1  0
 18 19  2  0
 18 20  1  0
M  END
