5cb5_A_0_A_β-3ew5_C_0_C_α
     RDKit          3D

 14 13  0  0  0  0  0  0  0  0999 V2000
   -1.6650   20.4420   -8.2830 O   0  0  0  0  0  0  0  0  0  0  0  0
   -0.2570   19.8330   -7.8170 P   0  0  2  0  0  0  0  0  0  0  0  0
   -0.4400   19.0280   -6.4870 O   0  0  0  0  0  0  0  0  0  0  0  0
   -2.1340   21.5890   -7.5560 C   0  0  0  0  0  0  0  0  0  0  0  0
    0.8660   20.8100   -7.8240 O   0  0  0  0  0  0  0  0  0  0  0  0
    0.0270   18.6210   -8.8380 O   0  0  0  0  0  0  0  0  0  0  0  0
   -3.6390   21.8740   -7.7730 C   0  0  2  0  0  0  0  0  0  0  0  0
   -1.7060   18.2690   -5.9770 P   0  0  0  0  0  0  0  0  0  0  0  0
   -3.8890   23.1820   -8.5200 C   0  0  0  0  0  0  0  0  0  0  0  0
   -4.3850   21.9240   -6.5480 O   0  0  0  0  0  0  0  0  0  0  0  0
   -1.2220   16.8780   -5.3900 O   0  0  0  0  0  0  0  0  0  0  0  0
   -2.7770   18.0630   -6.9700 O   0  0  0  0  0  0  0  0  0  0  0  0
   -2.1880   19.1070   -4.7200 O   0  0  0  0  0  0  0  0  0  0  0  0
   -4.6160   22.9480   -9.7290 O   0  0  0  0  0  0  0  0  0  0  0  0
  1  2  1  0
  2  3  1  0
  1  4  1  0
  2  5  2  0
  2  6  1  6
  4  7  1  0
  3  8  1  0
  7  9  1  0
  7 10  1  1
  8 11  1  0
  8 12  2  0
  8 13  1  0
  9 14  1  0
M  END
