5CB5_0_H_γ-mArh-EU0172_0_A_α
     RDKit          3D

 20 21  0  0  0  0  0  0  0  0999 V2000
   -1.4220   12.6320   -4.1420 O   0  0  0  0  0  0  0  0  0  0  0  0
   -0.5150   13.6670   -3.7720 C   0  0  2  0  0  0  0  0  0  0  0  0
   -1.1450   14.8410   -3.0450 C   0  0  2  0  0  0  0  0  0  0  0  0
    0.0160   14.3790   -5.0020 C   0  0  2  0  0  0  0  0  0  0  0  0
    0.9910   13.5590   -5.6280 O   0  0  0  0  0  0  0  0  0  0  0  0
   -2.4920   15.2590   -3.6440 C   0  0  0  0  0  0  0  0  0  0  0  0
   -0.1480   15.8750   -3.1660 O   0  0  0  0  0  0  0  0  0  0  0  0
    0.5180   15.7180   -4.4300 C   0  0  2  0  0  0  0  0  0  0  0  0
    0.2610   16.9780   -5.2520 C   0  0  0  0  0  0  0  0  0  0  0  0
   -3.6680   14.4180   -3.1540 C   0  0  0  0  0  0  0  0  0  0  0  0
   -4.2830   14.6610   -1.7900 C   0  0  0  0  0  0  0  0  0  0  0  0
   -3.4940   14.7110   -0.5630 C   0  0  0  0  0  0  0  0  0  0  0  0
   -5.6080   14.7900   -1.7100 C   0  0  0  0  0  0  0  0  0  0  0  0
   -4.1190   14.6810    0.6300 C   0  0  0  0  0  0  0  0  0  0  0  0
   -6.2780   14.9460   -0.4090 C   0  0  0  0  0  0  0  0  0  0  0  0
   -7.4460   15.3170   -0.3710 O   0  0  0  0  0  0  0  0  0  0  0  0
   -5.5020   14.6060    0.6940 N   0  0  0  0  0  0  0  0  0  0  0  0
   -6.1410   13.8220    1.7530 C   0  0  0  0  0  0  0  0  0  0  0  0
   -7.0400   14.7030    2.6340 C   0  0  0  0  0  0  0  0  0  0  0  0
   -7.7570   13.9450    3.6520 N   0  0  0  0  0  0  0  0  0  0  0  0
  2  1  1  6
  2  3  1  0
  2  4  1  0
  4  5  1  1
  3  6  1  6
  3  7  1  0
  4  8  1  0
  7  8  1  0
  8  9  1  6
  6 10  1  0
 10 11  1  0
 11 12  1  0
 11 13  2  0
 12 14  2  0
 13 15  1  0
 15 16  2  0
 14 17  1  0
 15 17  1  0
 17 18  1  0
 18 19  1  0
 19 20  1  0
M  END
