5cb5_Q_0_Q_α-5cb5_M_1_M_β
     RDKit          3D

 17 17  0  0  0  0  0  0  0  0999 V2000
   -1.7460   21.6920   -7.7660 C   0  0  0  0  0  0  0  0  0  0  0  0
   -0.6800   20.2270   -7.8760 P   0  0  1  0  0  0  0  0  0  0  0  0
   -0.6420   19.5060   -6.4760 O   0  0  0  0  0  0  0  0  0  0  0  0
   -3.0360   21.9150   -8.5850 C   0  0  1  0  0  0  0  0  0  0  0  0
   -0.8150   19.1720   -8.9030 O   0  0  0  0  0  0  0  0  0  0  0  0
    0.7850   20.8810   -7.8820 O   0  0  0  0  0  0  0  0  0  0  0  0
   -4.1020   21.1200   -8.1020 O   0  0  0  0  0  0  0  0  0  0  0  0
   -3.6200   23.3340   -8.4170 C   0  0  1  0  0  0  0  0  0  0  0  0
   -4.5230   23.7350   -9.4550 O   0  0  0  0  0  0  0  0  0  0  0  0
   -1.7650   18.4910   -6.0250 P   0  0  0  0  0  0  0  0  0  0  0  0
   -4.5780   21.7360   -6.9040 C   0  0  1  0  0  0  0  0  0  0  0  0
   -4.3510   23.2420   -7.0650 C   0  0  2  0  0  0  0  0  0  0  0  0
   -5.9380   21.4100   -6.6620 O   0  0  0  0  0  0  0  0  0  0  0  0
   -5.6350   23.9030   -7.0910 O   0  0  0  0  0  0  0  0  0  0  0  0
   -1.0320   17.2570   -5.3460 O   0  0  0  0  0  0  0  0  0  0  0  0
   -2.7740   18.0570   -7.0180 O   0  0  0  0  0  0  0  0  0  0  0  0
   -2.3620   19.2880   -4.7840 O   0  0  0  0  0  0  0  0  0  0  0  0
  1  2  1  0
  2  3  1  0
  4  1  1  1
  2  5  2  0
  2  6  1  6
  4  7  1  0
  4  8  1  0
  8  9  1  6
  3 10  1  0
  7 11  1  0
  8 12  1  0
 11 12  1  0
 11 13  1  6
 12 14  1  6
 10 15  1  0
 10 16  2  0
 10 17  1  0
M  END
