5CB5_0_M_γ-5cms_P_15_P_γ
     RDKit          3D

  8  8  0  0  0  0  0  0  0  0999 V2000
   -0.3580   12.4450   -3.8050 O   0  0  0  0  0  0  0  0  0  0  0  0
   -0.9200   13.7360   -4.0430 C   0  0  1  0  0  0  0  0  0  0  0  0
   -0.7000   14.6750   -2.8640 C   0  0  0  0  0  0  0  0  0  0  0  0
   -0.1610   14.4170   -5.1620 C   0  0  2  0  0  0  0  0  0  0  0  0
    1.1790   13.9590   -5.2320 O   0  0  0  0  0  0  0  0  0  0  0  0
   -0.2250   15.9340   -3.3910 O   0  0  0  0  0  0  0  0  0  0  0  0
   -0.3690   15.8910   -4.8150 C   0  0  1  0  0  0  0  0  0  0  0  0
    0.5530   16.9110   -5.4640 C   0  0  0  0  0  0  0  0  0  0  0  0
  2  1  1  1
  2  3  1  0
  2  4  1  0
  4  5  1  1
  3  6  1  0
  4  7  1  0
  6  7  1  0
  7  8  1  6
M  END
