5cb5_K_0_K_γ-5cms_H_7_H_α
     RDKit          3D

 21 22  0  0  0  0  0  0  0  0999 V2000
   -0.4960   12.2510   -3.9360 O   0  0  0  0  0  0  0  0  0  0  0  0
   -0.9260   13.5710   -4.2030 C   0  0  1  0  0  0  0  0  0  0  0  0
   -0.8550   14.4740   -2.9870 C   0  0  0  0  0  0  0  0  0  0  0  0
    0.0070   14.2490   -5.1840 C   0  0  2  0  0  0  0  0  0  0  0  0
    1.3330   13.7680   -5.0000 O   0  0  0  0  0  0  0  0  0  0  0  0
   -0.5430   15.7890   -3.4620 O   0  0  0  0  0  0  0  0  0  0  0  0
   -0.2260   15.7240   -4.8640 C   0  0  1  0  0  0  0  0  0  0  0  0
    0.9410   16.6600   -5.0880 C   0  0  0  0  0  0  0  0  0  0  0  0
    0.6210   18.1450   -5.1530 C   0  0  0  0  0  0  0  0  0  0  0  0
    0.7130   18.6970   -6.5740 C   0  0  0  0  0  0  0  0  0  0  0  0
   -0.5740   18.5530   -7.3680 C   0  0  0  0  0  0  0  0  0  0  0  0
   -1.4950   19.7570   -7.3760 C   0  0  0  0  0  0  0  0  0  0  0  0
   -1.3980   20.5660   -8.6740 C   0  0  0  0  0  0  0  0  0  0  0  0
   -2.3860   21.6870   -8.6520 C   0  0  2  0  0  0  0  0  0  0  0  0
   -2.9870   22.0830   -9.9160 O   0  0  0  0  0  0  0  0  0  0  0  0
   -1.5690   22.8100   -8.1560 C   0  0  1  0  0  0  0  0  0  0  0  0
   -0.2190   22.7750   -8.5620 O   0  0  0  0  0  0  0  0  0  0  0  0
   -3.2920   23.4720   -9.7060 C   0  0  2  0  0  0  0  0  0  0  0  0
   -2.2920   23.9690   -8.6490 C   0  0  2  0  0  0  0  0  0  0  0  0
   -4.6050   23.7140   -9.2630 O   0  0  0  0  0  0  0  0  0  0  0  0
   -1.2950   24.8040   -9.1280 O   0  0  0  0  0  0  0  0  0  0  0  0
  2  1  1  1
  2  3  1  0
  2  4  1  0
  4  5  1  1
  3  6  1  0
  4  7  1  0
  6  7  1  0
  7  8  1  1
  8  9  1  0
  9 10  1  0
 10 11  1  0
 11 12  1  0
 12 13  1  0
 14 13  1  6
 14 15  1  0
 14 16  1  0
 16 17  1  6
 15 18  1  0
 16 19  1  0
 18 19  1  0
 18 20  1  1
 19 21  1  6
M  END
