5CB5_0_G_γ-5CMS_0_K_γ
     RDKit          3D

  8  8  0  0  0  0  0  0  0  0999 V2000
   -0.6650   12.4190   -3.8840 O   0  0  0  0  0  0  0  0  0  0  0  0
   -1.0270   13.7750   -4.1290 C   0  0  1  0  0  0  0  0  0  0  0  0
   -0.7440   14.6630   -2.9230 C   0  0  0  0  0  0  0  0  0  0  0  0
   -0.0970   14.3580   -5.1610 C   0  0  2  0  0  0  0  0  0  0  0  0
    1.1950   13.7750   -5.0560 O   0  0  0  0  0  0  0  0  0  0  0  0
   -0.1340   15.8810   -3.4080 O   0  0  0  0  0  0  0  0  0  0  0  0
   -0.2370   15.8450   -4.8340 C   0  0  1  0  0  0  0  0  0  0  0  0
    0.7380   16.8320   -5.4600 C   0  0  0  0  0  0  0  0  0  0  0  0
  2  1  1  1
  2  3  1  0
  2  4  1  0
  4  5  1  1
  3  6  1  0
  4  7  1  0
  6  7  1  0
  7  8  1  6
M  END
