5CB5_0_L_δ-5CB5_0_A_δ
     RDKit          3D

 10 11  0  0  0  0  0  0  0  0999 V2000
   -3.7160   15.4320    1.7170 N   0  0  0  0  0  0  0  0  0  0  0  0
   -2.4800   15.3870    0.9550 C   0  0  2  0  0  0  0  0  0  0  0  0
   -2.6710   14.8590   -0.4450 C   0  0  2  0  0  0  0  0  0  0  0  0
   -1.4850   14.6300    1.6700 N   0  0  0  0  0  0  0  0  0  0  0  0
   -1.3330   15.1710   -1.0560 C   0  0  2  0  0  0  0  0  0  0  0  0
   -3.5970   15.5020   -1.3720 N   0  0  0  0  0  0  0  0  0  0  0  0
   -0.1970   14.4980    0.9870 C   0  0  0  0  0  0  0  0  0  0  0  0
   -1.5780   14.8330   -2.4330 N   0  0  0  0  0  0  0  0  0  0  0  0
   -2.9530   15.2800   -2.6710 C   0  0  0  0  0  0  0  0  0  0  0  0
   -0.2740   14.3960   -0.4710 N   0  0  0  0  0  0  0  0  0  0  0  0
  2  1  1  1
  2  3  1  0
  2  4  1  0
  3  5  1  0
  3  6  1  6
  4  7  1  0
  5  8  1  6
  6  9  1  0
  8  9  1  0
  5 10  1  0
  7 10  1  0
M  END
