
     RDKit          3D

 36 39  0  0  0  0  0  0  0  0999 V2000
   -1.6910   18.1550   -6.5450 P   0  0  0  0  0  0  0  0  0  0  0  0
   -0.2540   19.7750   -8.1970 P   0  0  0  0  0  0  0  0  0  0  0  0
    0.4320   16.8840   -5.6820 C   0  0  0  0  0  0  0  0  0  0  0  0
   -0.7360   16.8430   -6.4980 O   0  0  0  0  0  0  0  0  0  0  0  0
    0.3230   15.8030   -4.6390 C   0  0  1  0  0  0  0  0  0  0  0  0
   -0.6660   16.0820   -3.6330 O   0  0  0  0  0  0  0  0  0  0  0  0
   -0.0940   14.4560   -5.2250 C   0  0  1  0  0  0  0  0  0  0  0  0
    1.0740   13.6230   -5.2060 O   0  0  0  0  0  0  0  0  0  0  0  0
   -1.0930   13.8400   -4.2450 C   0  0  1  0  0  0  0  0  0  0  0  0
   -0.6480   12.4990   -3.9570 O   0  0  0  0  0  0  0  0  0  0  0  0
   -0.8790   14.7560   -3.0550 C   0  0  2  0  0  0  0  0  0  0  0  0
   -5.1300   21.6940   -7.5360 C   0  0  1  0  0  0  0  0  0  0  0  0
   -1.1570   15.2730    1.9540 N   0  0  0  0  0  0  0  0  0  0  0  0
   -2.5150   18.0230   -7.8260 O   0  0  0  0  0  0  0  0  0  0  0  0
    0.6670   20.9540   -7.9500 O   0  0  0  0  0  0  0  0  0  0  0  0
   -5.0940   21.0300   -6.2460 O   0  0  0  0  0  0  0  0  0  0  0  0
   -0.1290   15.1230    1.0850 C   0  0  0  0  0  0  0  0  0  0  0  0
   -4.5310   23.0940   -7.4440 C   0  0  2  0  0  0  0  0  0  0  0  0
   -2.3640   18.4310   -5.2130 O   0  0  0  0  0  0  0  0  0  0  0  0
    0.0840   18.6840   -9.2050 O   0  0  0  0  0  0  0  0  0  0  0  0
   -5.5620   24.0990   -7.3880 O   0  0  0  0  0  0  0  0  0  0  0  0
   -3.6720   23.3140   -8.6760 C   0  0  2  0  0  0  0  0  0  0  0  0
   -0.2770   14.9930   -0.2540 N   0  0  0  0  0  0  0  0  0  0  0  0
   -0.5240   19.2510   -6.7310 O   0  0  0  0  0  0  0  0  0  0  0  0
   -4.4100   23.8610   -9.7430 O   0  0  0  0  0  0  0  0  0  0  0  0
   -1.5140   14.9830   -0.7740 C   0  0  0  0  0  0  0  0  0  0  0  0
   -3.3500   21.9300   -9.1200 C   0  0  2  0  0  0  0  0  0  0  0  0
   -4.3150   21.0240   -8.5080 O   0  0  0  0  0  0  0  0  0  0  0  0
   -2.7220   15.1250    0.0720 C   0  0  0  0  0  0  0  0  0  0  0  0
   -1.9010   21.6340   -8.7330 C   0  0  0  0  0  0  0  0  0  0  0  0
   -1.7100   20.2310   -8.6860 O   0  0  0  0  0  0  0  0  0  0  0  0
   -2.4410   15.2860    1.5410 C   0  0  0  0  0  0  0  0  0  0  0  0
   -3.3980   15.4280    2.4890 N   0  0  0  0  0  0  0  0  0  0  0  0
   -3.7990   15.0790   -0.7790 N   0  0  0  0  0  0  0  0  0  0  0  0
   -3.2850   14.9270   -2.0520 C   0  0  0  0  0  0  0  0  0  0  0  0
   -1.9220   14.8520   -2.0140 N   0  0  0  0  0  0  0  0  0  0  0  0
  1  4  1  0
  1 14  1  0
  1 19  1  0
  1 24  1  0
  4  3  1  0
 24  2  1  0
  2 15  1  0
  2 20  1  0
  2 31  1  0
 31 30  1  0
  5  3  1  6
  5  6  1  0
  5  7  1  0
  6 11  1  0
  7  8  1  1
  7  9  1  0
 11  9  1  0
 11 36  1  1
  9 10  1  1
 36 26  1  0
 36 35  1  0
 12 16  1  1
 12 18  1  0
 12 28  1  0
 18 21  1  6
 18 22  1  0
 28 27  1  0
 13 17  1  0
 13 32  1  0
 17 23  1  0
 32 29  1  0
 32 33  1  0
 23 26  1  0
 22 25  1  6
 22 27  1  0
 27 30  1  1
 26 29  1  0
 29 34  1  0
 34 35  1  0
M  CHG  2  14  -1  15  -1
M  END
