5CB5_0_G_γ-3Q6Z_0_A_γ
     RDKit          3D

  8  8  0  0  0  0  0  0  0  0999 V2000
   -0.6830   12.4250   -3.8840 O   0  0  0  0  0  0  0  0  0  0  0  0
   -1.0380   13.7820   -4.1380 C   0  0  1  0  0  0  0  0  0  0  0  0
   -0.7520   14.6710   -2.9330 C   0  0  0  0  0  0  0  0  0  0  0  0
   -0.1040   14.3510   -5.1800 C   0  0  2  0  0  0  0  0  0  0  0  0
    1.1860   13.7620   -5.0760 O   0  0  0  0  0  0  0  0  0  0  0  0
   -0.1460   15.8850   -3.4280 O   0  0  0  0  0  0  0  0  0  0  0  0
   -0.2330   15.8430   -4.8580 C   0  0  1  0  0  0  0  0  0  0  0  0
    0.7500   16.8300   -5.4630 C   0  0  0  0  0  0  0  0  0  0  0  0
  2  1  1  1
  2  3  1  0
  2  4  1  0
  4  5  1  1
  3  6  1  0
  4  7  1  0
  6  7  1  0
  7  8  1  6
M  END
