5CB5_0_C_β-5CMS_0_M_γ
     RDKit          3D

 16 16  0  0  0  0  0  0  0  0999 V2000
   -1.5270   20.2700   -8.4050 O   0  0  0  0  0  0  0  0  0  0  0  0
   -0.1740   19.7730   -7.5870 P   0  0  0  0  0  0  0  0  0  0  0  0
   -0.1560   18.3770   -6.6830 O   0  0  0  0  0  0  0  0  0  0  0  0
    0.2420   18.9050   -8.7400 O   0  0  0  0  0  0  0  0  0  0  0  0
    1.0860   20.7320   -7.6300 O   0  0  0  0  0  0  0  0  0  0  0  0
   -1.5260   18.1090   -5.9140 P   0  0  0  0  0  0  0  0  0  0  0  0
   -1.2660   16.5950   -5.5170 O   0  0  0  0  0  0  0  0  0  0  0  0
   -2.8520   17.5060   -6.7570 O   0  0  0  0  0  0  0  0  0  0  0  0
   -1.7230   18.6670   -4.4240 O   0  0  0  0  0  0  0  0  0  0  0  0
   -0.1430   15.9310   -4.9510 C   0  0  1  0  0  0  0  0  0  0  0  0
   -0.1860   15.9250   -3.5590 O   0  0  0  0  0  0  0  0  0  0  0  0
    0.0200   14.4760   -5.2880 C   0  0  1  0  0  0  0  0  0  0  0  0
    1.3550   14.0180   -5.2290 O   0  0  0  0  0  0  0  0  0  0  0  0
   -1.1260   14.9300   -3.2490 C   0  0  0  0  0  0  0  0  0  0  0  0
   -0.6400   13.7580   -4.1080 C   0  0  1  0  0  0  0  0  0  0  0  0
   -1.6510   12.9780   -4.6070 O   0  0  0  0  0  0  0  0  0  0  0  0
  1  2  1  0
  2  3  1  0
  2  4  1  0
  2  5  1  0
  3  6  1  0
  6  7  1  0
  6  8  1  0
  6  9  1  0
 10  7  1  6
 10 11  1  0
 10 12  1  0
 12 13  1  1
 11 14  1  0
 12 15  1  0
 14 15  1  0
 15 16  1  6
M  CHG  2   4  -1   8  -1
M  END
