5cb5_M_1_M_γ-x0438_0_A_α
     RDKit          3D

 23 25  0  0  0  0  0  0  0  0999 V2000
   -0.9680   12.7290   -3.9940 O   0  0  0  0  0  0  0  0  0  0  0  0
   -0.5630   14.0550   -3.7100 C   0  0  2  0  0  0  0  0  0  0  0  0
   -1.6780   15.0560   -3.3220 C   0  0  1  0  0  0  0  0  0  0  0  0
   -0.0100   14.6780   -4.9720 C   0  0  2  0  0  0  0  0  0  0  0  0
    1.2420   14.1000   -5.3130 O   0  0  0  0  0  0  0  0  0  0  0  0
   -1.7890   15.3640   -1.8260 C   0  0  0  0  0  0  0  0  0  0  0  0
   -1.2720   16.3190   -3.9290 O   0  0  0  0  0  0  0  0  0  0  0  0
    0.0310   16.1220   -4.5060 C   0  0  2  0  0  0  0  0  0  0  0  0
    0.2830   17.1560   -5.5880 C   0  0  0  0  0  0  0  0  0  0  0  0
   -3.0730   15.1410   -1.0250 C   0  0  0  0  0  0  0  0  0  0  0  0
   -4.4170   15.0370   -1.5100 C   0  0  0  0  0  0  0  0  0  0  0  0
   -2.8230   15.0310    0.3400 C   0  0  0  0  0  0  0  0  0  0  0  0
   -5.4260   14.8080   -0.5290 C   0  0  0  0  0  0  0  0  0  0  0  0
   -3.8270   14.8150    1.2670 C   0  0  0  0  0  0  0  0  0  0  0  0
   -6.8050   14.6390   -0.5670 N   0  0  0  0  0  0  0  0  0  0  0  0
   -5.1400   14.6970    0.8270 C   0  0  0  0  0  0  0  0  0  0  0  0
   -7.2670   14.4320    0.7310 C   0  0  0  0  0  0  0  0  0  0  0  0
   -6.2680   14.4710    1.5710 N   0  0  0  0  0  0  0  0  0  0  0  0
   -8.6940   14.1890    1.0940 C   0  0  0  0  0  0  0  0  0  0  0  0
   -9.3140   15.2750    2.3830 S   0  0  0  0  0  0  0  0  0  0  0  0
   -8.0770   15.3550    3.6690 C   0  0  0  0  0  0  0  0  0  0  0  0
  -10.4760   14.6270    2.9680 O   0  0  0  0  0  0  0  0  0  0  0  0
   -9.4930   16.5870    1.8010 O   0  0  0  0  0  0  0  0  0  0  0  0
  2  1  1  6
  2  3  1  0
  2  4  1  0
  4  5  1  1
  3  6  1  1
  3  7  1  0
  4  8  1  0
  7  8  1  0
  8  9  1  6
  6 10  1  0
 10 11  2  0
 10 12  1  0
 11 13  1  0
 12 14  2  0
 13 15  1  0
 13 16  2  0
 14 16  1  0
 15 17  1  0
 16 18  1  0
 17 18  2  0
 17 19  1  0
 20 19  1  0
 20 21  1  0
 20 22  2  0
 20 23  2  0
M  END
