5CB5_0_B_δ-5cb5_H_0_H_γ
     RDKit          3D

 17 19  0  0  0  0  0  0  0  0999 V2000
   -3.8600   15.5430    1.6640 N   0  0  0  0  0  0  0  0  0  0  0  0
   -2.7990   14.8780    0.9260 C   0  0  1  0  0  0  0  0  0  0  0  0
   -2.6380   15.3540   -0.5310 C   0  0  1  0  0  0  0  0  0  0  0  0
   -1.5890   15.1700    1.6560 N   0  0  0  0  0  0  0  0  0  0  0  0
   -1.4240   14.5990   -1.0680 C   0  0  1  0  0  0  0  0  0  0  0  0
   -3.7010   15.0810   -1.5090 N   0  0  0  0  0  0  0  0  0  0  0  0
   -0.3920   14.5600    1.0950 C   0  0  0  0  0  0  0  0  0  0  0  0
   -1.4810   14.8760   -2.5950 C   0  0  1  0  0  0  0  0  0  0  0  0
   -2.9870   15.1660   -2.8140 C   0  0  0  0  0  0  0  0  0  0  0  0
   -0.2480   14.9460   -0.2940 N   0  0  0  0  0  0  0  0  0  0  0  0
   -0.6570   16.0520   -2.9330 O   0  0  0  0  0  0  0  0  0  0  0  0
   -0.8670   13.8370   -3.5550 C   0  0  1  0  0  0  0  0  0  0  0  0
   -1.5730   12.6450   -3.8390 O   0  0  0  0  0  0  0  0  0  0  0  0
   -0.5570   16.0660   -4.3730 C   0  0  2  0  0  0  0  0  0  0  0  0
   -0.5600   14.6040   -4.8340 C   0  0  1  0  0  0  0  0  0  0  0  0
    0.6440   16.8700   -4.8450 C   0  0  0  0  0  0  0  0  0  0  0  0
    0.6600   14.1390   -5.3970 O   0  0  0  0  0  0  0  0  0  0  0  0
  2  1  1  1
  2  3  1  0
  2  4  1  0
  3  5  1  0
  3  6  1  6
  4  7  1  0
  5  8  1  0
  6  9  1  0
  8  9  1  6
  5 10  1  1
  7 10  1  0
  8 11  1  0
  8 12  1  0
 12 13  1  6
 11 14  1  0
 12 15  1  0
 14 15  1  0
 14 16  1  1
 15 17  1  1
M  END
