5cb5_P_0_P_α-5CMS_0_M_γ
     RDKit          3D

 21 22  0  0  0  0  0  0  0  0999 V2000
   -4.2370   22.0890  -10.3220 C   0  0  0  0  0  0  0  0  0  0  0  0
   -3.7460   22.1220   -8.9170 C   0  0  2  0  0  0  0  0  0  0  0  0
   -4.6410   21.3430   -8.1270 O   0  0  0  0  0  0  0  0  0  0  0  0
   -3.7770   23.5480   -8.3880 C   0  0  1  0  0  0  0  0  0  0  0  0
   -4.5960   24.3120   -9.2670 O   0  0  0  0  0  0  0  0  0  0  0  0
   -4.5060   21.9090   -6.8390 C   0  0  2  0  0  0  0  0  0  0  0  0
   -4.4500   23.4310   -7.0290 C   0  0  2  0  0  0  0  0  0  0  0  0
   -3.2410   21.5820   -6.3020 O   0  0  0  0  0  0  0  0  0  0  0  0
   -5.7670   24.0270   -7.0530 O   0  0  0  0  0  0  0  0  0  0  0  0
   -3.0040   20.2130   -6.0390 C   0  0  0  0  0  0  0  0  0  0  0  0
   -1.6430   19.6530   -6.4850 C   0  0  0  0  0  0  0  0  0  0  0  0
   -1.1190   18.4780   -5.6260 C   0  0  0  0  0  0  0  0  0  0  0  0
    0.3090   18.0240   -5.9880 C   0  0  0  0  0  0  0  0  0  0  0  0
    0.8510   16.7800   -5.2290 C   0  0  0  0  0  0  0  0  0  0  0  0
   -0.1700   15.7200   -4.7870 C   0  0  2  0  0  0  0  0  0  0  0  0
   -0.2130   15.6810   -3.3430 O   0  0  0  0  0  0  0  0  0  0  0  0
    0.0820   14.2430   -5.1730 C   0  0  1  0  0  0  0  0  0  0  0  0
    1.4450   13.8440   -5.1240 O   0  0  0  0  0  0  0  0  0  0  0  0
   -1.0040   14.5280   -3.0320 C   0  0  0  0  0  0  0  0  0  0  0  0
   -0.6660   13.4720   -4.0830 C   0  0  1  0  0  0  0  0  0  0  0  0
   -1.8240   12.8510   -4.6520 O   0  0  0  0  0  0  0  0  0  0  0  0
  2  1  1  6
  2  3  1  0
  2  4  1  0
  4  5  1  6
  3  6  1  0
  4  7  1  0
  6  7  1  0
  6  8  1  6
  7  9  1  6
  8 10  1  0
 10 11  1  0
 11 12  1  0
 12 13  1  0
 13 14  1  0
 15 14  1  1
 15 16  1  0
 15 17  1  0
 17 18  1  1
 16 19  1  0
 17 20  1  0
 19 20  1  0
 20 21  1  6
M  END
