5CB5_0_J_β-6woj_B_0_B_α
     RDKit          3D

 17 17  0  0  0  0  0  0  0  0999 V2000
   -1.8560   21.2430   -8.8340 O   0  0  0  0  0  0  0  0  0  0  0  0
   -0.6940   20.2980   -8.0030 P   0  0  0  0  0  0  0  0  0  0  0  0
   -1.0760   19.7660   -6.5160 O   0  0  0  0  0  0  0  0  0  0  0  0
   -3.1300   21.6280   -8.2830 C   0  0  1  0  0  0  0  0  0  0  0  0
   -0.1450   21.5980   -7.4410 O   0  0  0  0  0  0  0  0  0  0  0  0
   -1.0860   18.9760   -8.6340 O   0  0  0  0  0  0  0  0  0  0  0  0
   -3.5100   21.0720   -7.0980 O   0  0  0  0  0  0  0  0  0  0  0  0
   -3.2680   23.1710   -7.9580 C   0  0  1  0  0  0  0  0  0  0  0  0
   -1.2950   18.3240   -6.0080 P   0  0  0  0  0  0  0  0  0  0  0  0
   -4.0330   23.7440   -8.9740 O   0  0  0  0  0  0  0  0  0  0  0  0
   -4.6150   21.7710   -6.7000 C   0  0  2  0  0  0  0  0  0  0  0  0
   -4.1290   23.1740   -6.6570 C   0  0  2  0  0  0  0  0  0  0  0  0
   -1.3590   16.8960   -5.4520 O   0  0  0  0  0  0  0  0  0  0  0  0
   -2.5000   18.0350   -7.0770 O   0  0  0  0  0  0  0  0  0  0  0  0
   -1.7300   18.9690   -4.5730 O   0  0  0  0  0  0  0  0  0  0  0  0
   -5.2120   21.3980   -5.5110 O   0  0  0  0  0  0  0  0  0  0  0  0
   -5.1940   24.0920   -6.7850 O   0  0  0  0  0  0  0  0  0  0  0  0
  1  2  1  0
  2  3  1  0
  4  1  1  1
  2  5  1  0
  2  6  1  0
  4  7  1  0
  4  8  1  0
  3  9  1  0
  8 10  1  6
  7 11  1  0
  8 12  1  0
 11 12  1  0
  9 13  1  0
  9 14  1  0
  9 15  1  0
 11 16  1  1
 12 17  1  6
M  CHG  2   5  -1  14  -1
M  END
