5cb5_D_0_D_β-x0471_0_A_α
     RDKit          3D

 28 29  0  0  0  0  0  0  0  0999 V2000
   -1.3990   20.8710   -8.6710 O   0  0  0  0  0  0  0  0  0  0  0  0
   -0.3670   20.0180   -7.8210 P   0  0  0  0  0  0  0  0  0  0  0  0
   -1.1400   19.7090   -6.4740 O   0  0  0  0  0  0  0  0  0  0  0  0
    0.9310   20.7240   -7.6680 O   0  0  0  0  0  0  0  0  0  0  0  0
   -0.2660   18.6810   -8.6980 O   0  0  0  0  0  0  0  0  0  0  0  0
   -1.6930   18.2770   -6.1460 P   0  0  2  0  0  0  0  0  0  0  0  0
   -0.3910   17.3840   -6.2540 O   0  0  0  0  0  0  0  0  0  0  0  0
   -2.7840   17.7950   -7.0110 O   0  0  0  0  0  0  0  0  0  0  0  0
   -1.9440   18.1200   -4.5840 O   0  0  0  0  0  0  0  0  0  0  0  0
   -1.3920   16.9070   -4.0690 C   0  0  0  0  0  0  0  0  0  0  0  0
   -2.4800   15.9790   -3.5300 C   0  0  0  0  0  0  0  0  0  0  0  0
   -2.1560   15.6030   -2.0890 C   0  0  0  0  0  0  0  0  0  0  0  0
   -3.3290   15.3850   -1.1540 C   0  0  0  0  0  0  0  0  0  0  0  0
   -4.6800   15.2140   -1.5710 C   0  0  0  0  0  0  0  0  0  0  0  0
   -3.0030   15.3480    0.2050 C   0  0  0  0  0  0  0  0  0  0  0  0
   -5.6350   14.9990   -0.5490 C   0  0  0  0  0  0  0  0  0  0  0  0
   -3.9640   15.1390    1.1830 C   0  0  0  0  0  0  0  0  0  0  0  0
   -7.0030   14.7890   -0.5420 N   0  0  0  0  0  0  0  0  0  0  0  0
   -5.2910   14.9590    0.7960 C   0  0  0  0  0  0  0  0  0  0  0  0
   -7.4090   14.6330    0.7790 C   0  0  0  0  0  0  0  0  0  0  0  0
   -6.3860   14.7320    1.5850 N   0  0  0  0  0  0  0  0  0  0  0  0
   -8.8190   14.3920    1.1910 C   0  0  0  0  0  0  0  0  0  0  0  0
   -8.8430   14.0200    2.6000 N   0  0  0  0  0  0  0  0  0  0  0  0
   -8.9650   14.9630    3.6060 C   0  0  0  0  0  0  0  0  0  0  0  0
   -9.2860   16.1290    3.3770 O   0  0  0  0  0  0  0  0  0  0  0  0
   -8.6800   14.4250    5.0110 C   0  0  0  0  0  0  0  0  0  0  0  0
   -9.8970   13.6700    5.5580 C   0  0  0  0  0  0  0  0  0  0  0  0
   -8.2800   15.5510    5.9630 C   0  0  0  0  0  0  0  0  0  0  0  0
  1  2  1  0
  2  3  1  0
  2  4  2  0
  2  5  1  0
  3  6  1  0
  6  7  1  6
  6  8  2  0
  6  9  1  0
  9 10  1  0
 10 11  1  0
 11 12  1  0
 12 13  1  0
 13 14  2  0
 13 15  1  0
 14 16  1  0
 15 17  2  0
 16 18  1  0
 16 19  2  0
 17 19  1  0
 18 20  1  0
 19 21  1  0
 20 21  2  0
 20 22  1  0
 22 23  1  0
 23 24  1  0
 24 25  2  0
 24 26  1  0
 26 27  1  0
 26 28  1  0
M  END
