5CB5_0_Q_Î±
     RDKit          3D

  9  9  0  0  0  0  0  0  0  0999 V2000
   -1.9100   21.8840   -8.6440 C   0  0  0  0  0  0  0  0  0  0  0  0
   -3.3140   22.0810   -9.2490 C   0  0  1  0  0  0  0  0  0  0  0  0
   -4.2630   21.0950   -8.7380 O   0  0  0  0  0  0  0  0  0  0  0  0
   -3.9180   23.3760   -8.7630 C   0  0  2  0  0  0  0  0  0  0  0  0
   -5.1840   21.6960   -7.7900 C   0  0  2  0  0  0  0  0  0  0  0  0
   -4.5440   22.9890   -7.4530 C   0  0  2  0  0  0  0  0  0  0  0  0
   -4.9810   23.7620   -9.6380 O   0  0  0  0  0  0  0  0  0  0  0  0
   -5.3160   20.9880   -6.5700 O   0  0  0  0  0  0  0  0  0  0  0  0
   -5.5650   23.8650   -7.1370 O   0  0  0  0  0  0  0  0  0  0  0  0
  2  1  1  1
  3  2  1  0
  4  2  1  0
  5  3  1  0
  6  4  1  0
  4  7  1  6
  5  8  1  1
  5  6  1  0
  6  9  1  6
M  END
