5cb5_M_1_M_α-4iqy_B_0_B_α
     RDKit          3D

 12 12  0  0  0  0  0  0  0  0999 V2000
   -1.7890   21.7710   -8.1350 C   0  0  0  0  0  0  0  0  0  0  0  0
   -3.2320   21.7670   -8.6090 C   0  0  2  0  0  0  0  0  0  0  0  0
   -3.9150   23.1150   -8.4770 C   0  0  1  0  0  0  0  0  0  0  0  0
   -3.9650   20.8340   -7.7950 O   0  0  0  0  0  0  0  0  0  0  0  0
   -3.9540   23.8630   -9.6760 O   0  0  0  0  0  0  0  0  0  0  0  0
   -5.3320   22.7280   -8.1630 C   0  0  1  0  0  0  0  0  0  0  0  0
   -5.2630   21.3590   -7.5040 C   0  0  2  0  0  0  0  0  0  0  0  0
   -5.9530   23.7850   -7.4420 O   0  0  0  0  0  0  0  0  0  0  0  0
   -5.5000   21.3970   -6.1100 O   0  0  0  0  0  0  0  0  0  0  0  0
   -6.7240   24.4380   -8.3440 C   0  0  0  0  0  0  0  0  0  0  0  0
   -5.9870   25.5540   -8.9860 C   0  0  0  0  0  0  0  0  0  0  0  0
   -7.8690   24.1490   -8.6200 O   0  0  0  0  0  0  0  0  0  0  0  0
  2  1  1  1
  2  3  1  0
  2  4  1  0
  3  5  1  6
  3  6  1  0
  4  7  1  0
  6  7  1  0
  6  8  1  1
  7  9  1  1
  8 10  1  0
 10 11  1  0
 10 12  2  0
M  END
