5CB5_0_J_γ-5cms_M_12_M_β
     RDKit          3D

 16 16  0  0  0  0  0  0  0  0999 V2000
   -1.1960   12.4790   -3.9420 O   0  0  0  0  0  0  0  0  0  0  0  0
   -0.2500   13.5200   -3.8240 C   0  0  2  0  0  0  0  0  0  0  0  0
   -0.5830   14.5150   -2.7100 C   0  0  0  0  0  0  0  0  0  0  0  0
   -0.1650   14.3790   -5.0790 C   0  0  2  0  0  0  0  0  0  0  0  0
    1.2250   14.4130   -5.4310 O   0  0  0  0  0  0  0  0  0  0  0  0
   -0.2580   15.8010   -3.2290 O   0  0  0  0  0  0  0  0  0  0  0  0
   -0.6870   15.7330   -4.5910 C   0  0  1  0  0  0  0  0  0  0  0  0
   -0.1680   16.9640   -5.2840 C   0  0  0  0  0  0  0  0  0  0  0  0
   -1.4100   18.1070   -5.9240 P   0  0  1  0  0  0  0  0  0  0  0  0
   -0.5240   19.2480   -6.4900 O   0  0  0  0  0  0  0  0  0  0  0  0
   -2.4410   17.5320   -6.8480 O   0  0  0  0  0  0  0  0  0  0  0  0
   -2.0570   18.9250   -4.7170 O   0  0  0  0  0  0  0  0  0  0  0  0
   -0.2240   19.8580   -7.8640 P   0  0  0  0  0  0  0  0  0  0  0  0
   -1.6350   20.4170   -8.3340 O   0  0  0  0  0  0  0  0  0  0  0  0
    0.8570   20.8560   -7.8840 O   0  0  0  0  0  0  0  0  0  0  0  0
   -0.0220   18.5940   -8.8280 O   0  0  0  0  0  0  0  0  0  0  0  0
  2  1  1  6
  2  3  1  0
  2  4  1  0
  4  5  1  1
  3  6  1  0
  4  7  1  0
  6  7  1  0
  7  8  1  6
  8  9  1  0
  9 10  1  0
  9 11  2  0
  9 12  1  1
 10 13  1  0
 13 14  1  0
 13 15  2  0
 13 16  1  0
M  END
