5CB5_0_H_α-EU0569_0_A_α
     RDKit          3D

 27 29  0  0  0  0  0  0  0  0999 V2000
   -1.9080   21.3410   -8.0870 C   0  0  0  0  0  0  0  0  0  0  0  0
   -3.2870   21.7060   -8.6030 C   0  0  1  0  0  0  0  0  0  0  0  0
   -4.2740   20.8280   -8.0670 O   0  0  0  0  0  0  0  0  0  0  0  0
   -3.6910   23.0950   -8.1640 C   0  0  1  0  0  0  0  0  0  0  0  0
   -4.6300   23.7130   -9.0500 O   0  0  0  0  0  0  0  0  0  0  0  0
   -4.4480   21.2340   -6.7290 C   0  0  2  0  0  0  0  0  0  0  0  0
   -4.2440   22.8000   -6.7600 C   0  0  2  0  0  0  0  0  0  0  0  0
   -3.5360   20.4870   -5.8140 O   0  0  0  0  0  0  0  0  0  0  0  0
   -5.4790   23.5700   -6.6830 O   0  0  0  0  0  0  0  0  0  0  0  0
   -2.7950   19.3060   -6.3750 C   0  0  0  0  0  0  0  0  0  0  0  0
   -2.1510   18.2160   -5.3760 C   0  0  0  0  0  0  0  0  0  0  0  0
   -2.7850   16.7380   -5.1370 C   0  0  0  0  0  0  0  0  0  0  0  0
   -2.8580   16.0380   -3.6830 C   0  0  0  0  0  0  0  0  0  0  0  0
   -4.1260   15.2500   -3.0490 C   0  0  0  0  0  0  0  0  0  0  0  0
   -4.1710   15.1430   -1.5000 C   0  0  0  0  0  0  0  0  0  0  0  0
   -5.2800   15.0600   -0.5280 C   0  0  0  0  0  0  0  0  0  0  0  0
   -2.8760   15.1240   -0.9870 C   0  0  0  0  0  0  0  0  0  0  0  0
   -6.6240   15.0650   -0.8900 O   0  0  0  0  0  0  0  0  0  0  0  0
   -4.9580   14.9740    0.8520 C   0  0  0  0  0  0  0  0  0  0  0  0
   -2.6090   15.0310    0.3640 C   0  0  0  0  0  0  0  0  0  0  0  0
   -7.6410   14.7180    0.1130 C   0  0  0  0  0  0  0  0  0  0  0  0
   -5.9770   14.9190    1.8950 C   0  0  0  0  0  0  0  0  0  0  0  0
   -3.6370   14.9570    1.2730 C   0  0  0  0  0  0  0  0  0  0  0  0
   -7.2540   14.8130    1.5640 C   0  0  0  0  0  0  0  0  0  0  0  0
   -8.2390   14.8480    2.7000 C   0  0  0  0  0  0  0  0  0  0  0  0
   -7.7380   14.8000    3.9650 N   0  0  0  0  0  0  0  0  0  0  0  0
   -9.4530   14.9500    2.5440 O   0  0  0  0  0  0  0  0  0  0  0  0
  2  1  1  1
  2  3  1  0
  2  4  1  0
  4  5  1  6
  3  6  1  0
  4  7  1  0
  6  7  1  0
  6  8  1  1
  7  9  1  6
  8 10  1  0
 10 11  1  0
 11 12  1  0
 12 13  1  0
 13 14  1  0
 14 15  1  0
 15 16  1  0
 15 17  2  0
 16 18  1  0
 16 19  2  0
 17 20  1  0
 18 21  1  0
 19 22  1  0
 19 23  1  0
 20 23  2  0
 21 24  1  0
 22 24  2  0
 24 25  1  0
 25 26  1  0
 25 27  2  0
M  END
