5cb5_H_0_H_α-5CMS_0_P_α
     RDKit          3D

 16 18  0  0  0  0  0  0  0  0999 V2000
   -2.1820   21.7550   -8.9670 C   0  0  0  0  0  0  0  0  0  0  0  0
   -3.6260   21.7580   -8.5810 C   0  0  1  0  0  0  0  0  0  0  0  0
   -4.0250   21.0190   -7.4520 O   0  0  0  0  0  0  0  0  0  0  0  0
   -2.3100   22.2840  -10.3920 C   0  0  1  0  0  0  0  0  0  0  0  0
   -3.9970   23.1740   -8.3030 C   0  0  1  0  0  0  0  0  0  0  0  0
   -3.6250   23.0300  -10.6430 N   0  0  0  0  0  0  0  0  0  0  0  0
   -1.1540   23.1080  -10.9770 C   0  0  2  0  0  0  0  0  0  0  0  0
   -4.1430   23.8510   -9.5150 O   0  0  0  0  0  0  0  0  0  0  0  0
    0.0580   23.1560  -10.2440 O   0  0  0  0  0  0  0  0  0  0  0  0
   -5.3250   21.5670   -7.1790 C   0  0  2  0  0  0  0  0  0  0  0  0
   -5.3450   23.0470   -7.6340 C   0  0  1  0  0  0  0  0  0  0  0  0
   -3.2540   24.1660  -11.4780 C   0  0  0  0  0  0  0  0  0  0  0  0
   -1.7730   24.4740  -11.2140 C   0  0  2  0  0  0  0  0  0  0  0  0
   -5.6120   21.4500   -5.8080 O   0  0  0  0  0  0  0  0  0  0  0  0
   -5.5070   23.9330   -6.4930 O   0  0  0  0  0  0  0  0  0  0  0  0
   -1.3130   25.1760  -12.3530 O   0  0  0  0  0  0  0  0  0  0  0  0
  2  1  1  1
  2  3  1  0
  4  1  1  1
  2  5  1  0
  4  6  1  0
  4  7  1  0
  5  8  1  6
  6  8  1  0
  7  9  1  1
  3 10  1  0
  5 11  1  0
 10 11  1  0
  6 12  1  0
  7 13  1  0
 12 13  1  0
 10 14  1  1
 11 15  1  1
 13 16  1  6
M  END
