5cb5_F_1_F_β-x0722_0_A_α
     RDKit          3D

 24 24  0  0  0  0  0  0  0  0999 V2000
   -1.6490   20.4130   -8.2870 O   0  0  0  0  0  0  0  0  0  0  0  0
   -0.2960   19.6640   -7.9320 P   0  0  0  0  0  0  0  0  0  0  0  0
   -0.4260   19.1490   -6.4530 O   0  0  0  0  0  0  0  0  0  0  0  0
    0.1470   18.6430   -8.8990 O   0  0  0  0  0  0  0  0  0  0  0  0
    0.7100   20.8930   -7.7970 O   0  0  0  0  0  0  0  0  0  0  0  0
   -1.6370   18.2550   -5.9730 P   0  0  0  0  0  0  0  0  0  0  0  0
   -0.9800   16.9970   -5.2390 O   0  0  0  0  0  0  0  0  0  0  0  0
   -2.6430   17.8930   -7.0040 O   0  0  0  0  0  0  0  0  0  0  0  0
   -2.2080   19.1800   -4.8250 O   0  0  0  0  0  0  0  0  0  0  0  0
   -0.7420   17.0640   -3.8600 C   0  0  0  0  0  0  0  0  0  0  0  0
    0.0970   15.9080   -3.3370 C   0  0  0  0  0  0  0  0  0  0  0  0
   -0.2470   15.5470   -1.8800 C   0  0  0  0  0  0  0  0  0  0  0  0
   -1.5110   14.6900   -1.7190 C   0  0  0  0  0  0  0  0  0  0  0  0
   -2.2150   14.8130   -0.4000 C   0  0  0  0  0  0  0  0  0  0  0  0
   -3.5480   15.1070   -0.1290 C   0  0  0  0  0  0  0  0  0  0  0  0
   -1.6180   14.6360    0.8290 N   0  0  0  0  0  0  0  0  0  0  0  0
   -0.2460   14.3170    1.1440 C   0  0  0  0  0  0  0  0  0  0  0  0
   -4.6770   15.3970   -1.0720 C   0  0  0  0  0  0  0  0  0  0  0  0
   -2.4680   14.7860    1.8490 N   0  0  0  0  0  0  0  0  0  0  0  0
   -3.6300   15.0660    1.2720 C   0  0  0  0  0  0  0  0  0  0  0  0
   -4.8260   15.2890    2.0900 C   0  0  0  0  0  0  0  0  0  0  0  0
   -5.9840   14.7020   -0.7110 C   0  0  0  0  0  0  0  0  0  0  0  0
   -7.1020   15.1930   -0.8240 O   0  0  0  0  0  0  0  0  0  0  0  0
   -5.8570   13.4300   -0.2270 N   0  0  0  0  0  0  0  0  0  0  0  0
  1  2  1  0
  2  3  1  0
  2  4  2  0
  2  5  1  0
  3  6  1  0
  6  7  1  0
  6  8  2  0
  6  9  1  0
  7 10  1  0
 10 11  1  0
 11 12  1  0
 12 13  1  0
 13 14  1  0
 14 15  2  0
 14 16  1  0
 16 17  1  0
 15 18  1  0
 16 19  1  0
 15 20  1  0
 19 20  2  0
 20 21  1  0
 18 22  1  0
 22 23  2  0
 22 24  1  0
M  END
