5CB5_0_O_β-5CMS_0_G_γ
     RDKit          3D

 21 22  0  0  0  0  0  0  0  0999 V2000
   -1.3780   20.6430   -9.0220 O   0  0  0  0  0  0  0  0  0  0  0  0
   -0.7870   19.9270   -7.8200 P   0  0  0  0  0  0  0  0  0  0  0  0
   -0.4460   19.0970   -6.5930 O   0  0  0  0  0  0  0  0  0  0  0  0
    0.3710   21.0410   -7.6190 O   0  0  0  0  0  0  0  0  0  0  0  0
   -0.3310   18.6110   -8.7360 O   0  0  0  0  0  0  0  0  0  0  0  0
   -1.2010   17.9290   -5.9420 P   0  0  0  0  0  0  0  0  0  0  0  0
   -1.7910   16.6540   -5.3070 O   0  0  0  0  0  0  0  0  0  0  0  0
   -2.3230   17.8890   -7.1280 O   0  0  0  0  0  0  0  0  0  0  0  0
   -1.6220   18.8010   -4.6470 O   0  0  0  0  0  0  0  0  0  0  0  0
   -1.2510   16.2130   -4.0800 C   0  0  0  0  0  0  0  0  0  0  0  0
   -2.3250   15.9330   -3.0750 C   0  0  0  0  0  0  0  0  0  0  0  0
   -2.1120   14.7080   -2.2870 N   0  0  0  0  0  0  0  0  0  0  0  0
   -1.7120   15.0820   -0.9500 C   0  0  1  0  0  0  0  0  0  0  0  0
   -3.4480   14.1660   -2.1690 C   0  0  0  0  0  0  0  0  0  0  0  0
   -2.7550   14.3050   -0.1220 C   0  0  2  0  0  0  0  0  0  0  0  0
   -3.9110   14.6370   -0.8590 N   0  0  0  0  0  0  0  0  0  0  0  0
   -0.4160   14.5780   -0.5290 N   0  0  0  0  0  0  0  0  0  0  0  0
   -0.3400   14.7690    0.9120 C   0  0  0  0  0  0  0  0  0  0  0  0
   -2.7150   14.8050    1.2940 C   0  0  2  0  0  0  0  0  0  0  0  0
   -3.8350   15.7320    1.4780 N   0  0  0  0  0  0  0  0  0  0  0  0
   -1.4620   15.4970    1.3980 N   0  0  0  0  0  0  0  0  0  0  0  0
  1  2  1  0
  2  3  1  0
  2  4  1  0
  2  5  1  0
  3  6  1  0
  6  7  1  0
  6  8  1  0
  6  9  1  0
  7 10  1  0
 10 11  1  0
 11 12  1  0
 12 13  1  0
 12 14  1  0
 13 15  1  0
 14 16  1  0
 15 16  1  6
 13 17  1  1
 17 18  1  0
 15 19  1  0
 19 20  1  6
 18 21  1  0
 19 21  1  0
M  CHG  2   4  -1   8  -1
M  END
