5cb5_M_1_M_α-5cb5_N_0_N_α
     RDKit          3D

 12 12  0  0  0  0  0  0  0  0999 V2000
   -1.7900   21.7730   -8.1330 C   0  0  0  0  0  0  0  0  0  0  0  0
   -3.2330   21.7690   -8.6080 C   0  0  2  0  0  0  0  0  0  0  0  0
   -3.9140   23.1160   -8.4750 C   0  0  1  0  0  0  0  0  0  0  0  0
   -3.9660   20.8360   -7.7950 O   0  0  0  0  0  0  0  0  0  0  0  0
   -3.9490   23.8660   -9.6740 O   0  0  0  0  0  0  0  0  0  0  0  0
   -5.3300   22.7270   -8.1640 C   0  0  1  0  0  0  0  0  0  0  0  0
   -5.2630   21.3610   -7.5030 C   0  0  2  0  0  0  0  0  0  0  0  0
   -5.9520   23.7840   -7.4430 O   0  0  0  0  0  0  0  0  0  0  0  0
   -5.4990   21.3980   -6.1100 O   0  0  0  0  0  0  0  0  0  0  0  0
   -6.7260   24.4390   -8.3460 C   0  0  0  0  0  0  0  0  0  0  0  0
   -5.9880   25.5530   -8.9880 C   0  0  0  0  0  0  0  0  0  0  0  0
   -7.8710   24.1500   -8.6190 O   0  0  0  0  0  0  0  0  0  0  0  0
  2  1  1  1
  2  3  1  0
  2  4  1  0
  3  5  1  6
  3  6  1  0
  4  7  1  0
  6  7  1  0
  6  8  1  1
  7  9  1  1
  8 10  1  0
 10 11  1  0
 10 12  2  0
M  END
