5CB5_0_K_δ-2fav_B_0_B_δ
     RDKit          3D

 10 11  0  0  0  0  0  0  0  0999 V2000
   -3.6740   15.1890    2.0670 N   0  0  0  0  0  0  0  0  0  0  0  0
   -2.6410   15.3810    1.0850 C   0  0  2  0  0  0  0  0  0  0  0  0
   -2.9010   14.7290   -0.2530 C   0  0  2  0  0  0  0  0  0  0  0  0
   -1.3960   14.8930    1.6300 N   0  0  0  0  0  0  0  0  0  0  0  0
   -1.7200   15.2030   -1.0750 C   0  0  2  0  0  0  0  0  0  0  0  0
   -4.0150   15.1440   -1.1040 N   0  0  0  0  0  0  0  0  0  0  0  0
   -0.2940   15.3090    0.7900 C   0  0  0  0  0  0  0  0  0  0  0  0
   -2.0540   14.6180   -2.3400 N   0  0  0  0  0  0  0  0  0  0  0  0
   -3.4760   14.9370   -2.4590 C   0  0  0  0  0  0  0  0  0  0  0  0
   -0.4490   14.7820   -0.5500 N   0  0  0  0  0  0  0  0  0  0  0  0
  2  1  1  1
  2  3  1  0
  2  4  1  0
  3  5  1  0
  3  6  1  6
  4  7  1  0
  5  8  1  6
  6  9  1  0
  8  9  1  0
  5 10  1  0
  7 10  1  0
M  END
