5CB5_0_J_δ-5MQX_0_A_δ
     RDKit          3D

 10 11  0  0  0  0  0  0  0  0999 V2000
   -4.0810   15.1960    1.8060 N   0  0  0  0  0  0  0  0  0  0  0  0
   -2.9060   15.4550    0.9990 C   0  0  2  0  0  0  0  0  0  0  0  0
   -3.0010   14.8370   -0.3870 C   0  0  2  0  0  0  0  0  0  0  0  0
   -1.7450   14.9310    1.6870 N   0  0  0  0  0  0  0  0  0  0  0  0
   -1.7030   15.2540   -1.0420 C   0  0  2  0  0  0  0  0  0  0  0  0
   -3.9810   15.3090   -1.3610 N   0  0  0  0  0  0  0  0  0  0  0  0
   -0.4960   15.1770    0.9730 C   0  0  0  0  0  0  0  0  0  0  0  0
   -1.9020   14.7400   -2.3660 N   0  0  0  0  0  0  0  0  0  0  0  0
   -3.3020   15.0630   -2.6400 C   0  0  0  0  0  0  0  0  0  0  0  0
   -0.5520   14.7040   -0.3910 N   0  0  0  0  0  0  0  0  0  0  0  0
  2  1  1  1
  2  3  1  0
  2  4  1  0
  3  5  1  0
  3  6  1  6
  4  7  1  0
  5  8  1  6
  6  9  1  0
  8  9  1  0
  5 10  1  0
  7 10  1  0
M  END
