5cb5_L_0_L_γ-5cb5_H_0_H_γ
     RDKit          3D

  8  8  0  0  0  0  0  0  0  0999 V2000
   -0.3090   12.4040   -3.8510 O   0  0  0  0  0  0  0  0  0  0  0  0
   -0.7610   13.7220   -4.1590 C   0  0  1  0  0  0  0  0  0  0  0  0
   -0.5610   14.6680   -2.9830 C   0  0  0  0  0  0  0  0  0  0  0  0
    0.1220   14.3450   -5.2190 C   0  0  2  0  0  0  0  0  0  0  0  0
    1.4480   13.8470   -5.1470 O   0  0  0  0  0  0  0  0  0  0  0  0
   -0.0880   15.9280   -3.5030 O   0  0  0  0  0  0  0  0  0  0  0  0
   -0.0980   15.8340   -4.9290 C   0  0  1  0  0  0  0  0  0  0  0  0
    0.8600   16.8560   -5.5110 C   0  0  0  0  0  0  0  0  0  0  0  0
  2  1  1  1
  2  3  1  0
  2  4  1  0
  4  5  1  1
  3  6  1  0
  4  7  1  0
  6  7  1  0
  7  8  1  6
M  END
