5CB5_0_R_γ-5CB5_0_I_α
     RDKit          3D

 21 22  0  0  0  0  0  0  0  0999 V2000
   -0.7890   12.3780   -4.1540 O   0  0  0  0  0  0  0  0  0  0  0  0
   -0.9780   13.7750   -4.2280 C   0  0  1  0  0  0  0  0  0  0  0  0
   -0.7330   14.5000   -2.9160 C   0  0  0  0  0  0  0  0  0  0  0  0
    0.0630   14.4110   -5.1180 C   0  0  2  0  0  0  0  0  0  0  0  0
    1.3400   13.8400   -4.8430 O   0  0  0  0  0  0  0  0  0  0  0  0
   -0.1730   15.7820   -3.2580 O   0  0  0  0  0  0  0  0  0  0  0  0
   -0.1550   15.8580   -4.6960 C   0  0  1  0  0  0  0  0  0  0  0  0
    0.8880   16.8760   -5.1200 C   0  0  0  0  0  0  0  0  0  0  0  0
    0.4350   18.3230   -5.2930 C   0  0  0  0  0  0  0  0  0  0  0  0
    0.3260   18.8630   -6.7350 C   0  0  0  0  0  0  0  0  0  0  0  0
   -1.0210   19.5520   -7.0520 C   0  0  0  0  0  0  0  0  0  0  0  0
   -0.9700   20.6270   -8.1540 C   0  0  0  0  0  0  0  0  0  0  0  0
   -1.8890   21.8470   -7.8940 C   0  0  0  0  0  0  0  0  0  0  0  0
   -3.2530   21.7900   -8.6210 C   0  0  1  0  0  0  0  0  0  0  0  0
   -4.0600   20.8010   -7.9480 O   0  0  0  0  0  0  0  0  0  0  0  0
   -4.0590   23.1000   -8.6460 C   0  0  1  0  0  0  0  0  0  0  0  0
   -4.4830   23.5010   -9.9380 O   0  0  0  0  0  0  0  0  0  0  0  0
   -5.2930   21.3680   -7.5200 C   0  0  2  0  0  0  0  0  0  0  0  0
   -5.2880   22.8670   -7.7790 C   0  0  1  0  0  0  0  0  0  0  0  0
   -5.4480   21.1790   -6.1260 O   0  0  0  0  0  0  0  0  0  0  0  0
   -5.2940   23.6550   -6.5900 O   0  0  0  0  0  0  0  0  0  0  0  0
  2  1  1  1
  2  3  1  0
  2  4  1  0
  4  5  1  1
  3  6  1  0
  4  7  1  0
  6  7  1  0
  7  8  1  1
  8  9  1  0
  9 10  1  0
 10 11  1  0
 11 12  1  0
 12 13  1  0
 14 13  1  1
 14 15  1  0
 14 16  1  0
 16 17  1  6
 15 18  1  0
 16 19  1  0
 18 19  1  0
 18 20  1  1
 19 21  1  1
M  END
