5CB5_0_M_Î´
     RDKit          3D

 10 11  0  0  0  0  0  0  0  0999 V2000
   -1.8370   15.0470   -1.9980 N   0  0  0  0  0  0  0  0  0  0  0  0
   -1.4620   15.1470   -0.6640 C   0  0  0  0  0  0  0  0  0  0  0  0
   -3.1780   15.1970   -2.0930 C   0  0  0  0  0  0  0  0  0  0  0  0
   -0.2250   15.0530   -0.0470 N   0  0  0  0  0  0  0  0  0  0  0  0
   -2.6190   15.3720    0.0600 C   0  0  0  0  0  0  0  0  0  0  0  0
   -3.6830   15.3980   -0.8520 N   0  0  0  0  0  0  0  0  0  0  0  0
   -0.1780   15.1880    1.3150 C   0  0  0  0  0  0  0  0  0  0  0  0
   -2.4870   15.5180    1.4960 C   0  0  0  0  0  0  0  0  0  0  0  0
   -1.2620   15.4060    2.0740 N   0  0  0  0  0  0  0  0  0  0  0  0
   -3.6720   15.7660    2.3280 N   0  0  0  0  0  0  0  0  0  0  0  0
  1  2  1  0
  1  3  1  0
  4  2  1  0
  2  5  1  0
  6  3  1  0
  7  4  1  0
  8  5  1  0
  5  6  1  0
  9  7  1  0
  9  8  1  0
  8 10  1  0
M  END
