5CB5_0_G_γ-5cb5_M_1_M_β
     RDKit          3D

 16 16  0  0  0  0  0  0  0  0999 V2000
   -1.5730   12.7740   -4.0010 O   0  0  0  0  0  0  0  0  0  0  0  0
   -0.4620   13.6450   -3.9050 C   0  0  2  0  0  0  0  0  0  0  0  0
   -0.5850   14.6790   -2.7860 C   0  0  0  0  0  0  0  0  0  0  0  0
   -0.2520   14.4830   -5.1550 C   0  0  2  0  0  0  0  0  0  0  0  0
    1.1540   14.3930   -5.4150 O   0  0  0  0  0  0  0  0  0  0  0  0
   -0.1840   15.9320   -3.3530 O   0  0  0  0  0  0  0  0  0  0  0  0
   -0.7060   15.8770   -4.6830 C   0  0  1  0  0  0  0  0  0  0  0  0
   -0.2310   17.1300   -5.4190 C   0  0  0  0  0  0  0  0  0  0  0  0
   -1.5330   18.2880   -5.9480 P   0  0  1  0  0  0  0  0  0  0  0  0
   -0.8300   19.5380   -6.5920 O   0  0  0  0  0  0  0  0  0  0  0  0
   -2.5890   17.6780   -6.8210 O   0  0  0  0  0  0  0  0  0  0  0  0
   -2.1430   19.0130   -4.6600 O   0  0  0  0  0  0  0  0  0  0  0  0
   -0.3050   19.8230   -8.0150 P   0  0  0  0  0  0  0  0  0  0  0  0
   -1.4510   20.7160   -8.6600 O   0  0  0  0  0  0  0  0  0  0  0  0
    0.0820   18.6690   -8.8530 O   0  0  0  0  0  0  0  0  0  0  0  0
    0.8310   20.9250   -7.8130 O   0  0  0  0  0  0  0  0  0  0  0  0
  2  1  1  6
  2  3  1  0
  2  4  1  0
  4  5  1  1
  3  6  1  0
  4  7  1  0
  6  7  1  0
  7  8  1  6
  8  9  1  0
  9 10  1  0
  9 11  2  0
  9 12  1  1
 10 13  1  0
 13 14  1  0
 13 15  2  0
 13 16  1  0
M  END
