5CB5_0_M_β-mArh-x0962_0_A_α
     RDKit          3D

 19 19  0  0  0  0  0  0  0  0999 V2000
   -1.3220   19.9600   -8.7620 O   0  0  0  0  0  0  0  0  0  0  0  0
   -0.2110   19.3700   -7.7280 P   0  0  0  0  0  0  0  0  0  0  0  0
   -1.0020   19.8020   -6.5380 O   0  0  0  0  0  0  0  0  0  0  0  0
    0.4230   18.7330   -8.9180 O   0  0  0  0  0  0  0  0  0  0  0  0
    1.0370   20.3830   -7.3990 O   0  0  0  0  0  0  0  0  0  0  0  0
   -1.8830   18.6400   -5.8980 P   0  0  0  0  0  0  0  0  0  0  0  0
   -0.8780   17.5050   -5.9840 O   0  0  0  0  0  0  0  0  0  0  0  0
   -2.8900   17.7300   -6.8430 O   0  0  0  0  0  0  0  0  0  0  0  0
   -1.9670   18.4070   -4.2880 O   0  0  0  0  0  0  0  0  0  0  0  0
    0.0840   17.3190   -4.9890 C   0  0  0  0  0  0  0  0  0  0  0  0
   -0.2930   16.4480   -3.8330 C   0  0  0  0  0  0  0  0  0  0  0  0
   -1.6050   15.6680   -4.0130 C   0  0  0  0  0  0  0  0  0  0  0  0
   -2.2950   15.4510   -2.7200 C   0  0  0  0  0  0  0  0  0  0  0  0
   -2.9290   15.3230   -1.6740 C   0  0  0  0  0  0  0  0  0  0  0  0
   -3.7240   15.2790   -0.4760 C   0  0  0  0  0  0  0  0  0  0  0  0
   -3.3450   15.5640    0.7890 N   0  0  0  0  0  0  0  0  0  0  0  0
   -5.0570   14.9350   -0.3780 C   0  0  0  0  0  0  0  0  0  0  0  0
   -4.3740   15.4200    1.6280 C   0  0  0  0  0  0  0  0  0  0  0  0
   -5.4440   15.0240    0.9210 N   0  0  0  0  0  0  0  0  0  0  0  0
  1  2  1  0
  2  3  1  0
  2  4  1  0
  2  5  1  0
  3  6  1  0
  6  7  1  0
  6  8  1  0
  6  9  1  0
  7 10  1  0
 10 11  1  0
 11 12  1  0
 12 13  1  0
 13 14  3  0
 14 15  1  0
 15 16  1  0
 15 17  2  0
 16 18  1  0
 17 19  1  0
 18 19  2  0
M  CHG  2   4  -1   8  -1
M  END
