5CB5_0_P_α-6WOJ_0_B_β
     RDKit          3D

 17 17  0  0  0  0  0  0  0  0999 V2000
   -1.8520   21.3820   -8.7080 C   0  0  0  0  0  0  0  0  0  0  0  0
   -0.9110   20.6520   -7.4130 P   0  0  0  0  0  0  0  0  0  0  0  0
   -1.2150   19.1540   -7.5470 O   0  0  0  0  0  0  0  0  0  0  0  0
   -3.3240   21.8050   -8.5630 C   0  0  1  0  0  0  0  0  0  0  0  0
    0.6770   20.3640   -7.5730 O   0  0  0  0  0  0  0  0  0  0  0  0
   -1.6400   20.3840   -5.9320 O   0  0  0  0  0  0  0  0  0  0  0  0
   -3.9490   21.1460   -7.5320 O   0  0  0  0  0  0  0  0  0  0  0  0
   -3.5270   23.3100   -8.2750 C   0  0  1  0  0  0  0  0  0  0  0  0
   -4.3190   23.9020   -9.2530 O   0  0  0  0  0  0  0  0  0  0  0  0
   -1.4830   18.0280   -6.3080 P   0  0  0  0  0  0  0  0  0  0  0  0
   -4.9590   21.9410   -7.0860 C   0  0  2  0  0  0  0  0  0  0  0  0
   -4.3810   23.3030   -7.0120 C   0  0  2  0  0  0  0  0  0  0  0  0
   -5.4240   21.5950   -5.8280 O   0  0  0  0  0  0  0  0  0  0  0  0
   -5.3940   24.2710   -7.1720 O   0  0  0  0  0  0  0  0  0  0  0  0
   -0.2170   17.4400   -5.3720 O   0  0  0  0  0  0  0  0  0  0  0  0
   -1.8050   18.9960   -5.1560 O   0  0  0  0  0  0  0  0  0  0  0  0
   -2.8550   17.2040   -6.2740 O   0  0  0  0  0  0  0  0  0  0  0  0
  1  2  1  0
  2  3  1  0
  4  1  1  1
  2  5  1  0
  2  6  1  0
  4  7  1  0
  4  8  1  0
  8  9  1  6
  3 10  1  0
  7 11  1  0
  8 12  1  0
 11 12  1  0
 11 13  1  1
 12 14  1  6
 10 15  1  0
 10 16  1  0
 10 17  1  0
M  CHG  2   5  -1  16  -1
M  END
