5CB5_0_M_β-6fx_7_0A_α
     RDKit          3D

 17 17  0  0  0  0  0  0  0  0999 V2000
   -1.7490   21.7250   -7.8400 O   0  0  0  0  0  0  0  0  0  0  0  0
   -0.5870   20.4420   -7.9460 P   0  0  0  0  0  0  0  0  0  0  0  0
   -0.4570   19.4840   -6.6070 O   0  0  0  0  0  0  0  0  0  0  0  0
   -2.8780   21.8760   -8.6800 C   0  0  2  0  0  0  0  0  0  0  0  0
   -1.4010   19.3520   -8.5270 O   0  0  0  0  0  0  0  0  0  0  0  0
    0.4320   21.4630   -7.4740 O   0  0  0  0  0  0  0  0  0  0  0  0
   -2.9110   22.9240   -9.5130 O   0  0  0  0  0  0  0  0  0  0  0  0
   -4.1190   22.4360   -7.9400 C   0  0  2  0  0  0  0  0  0  0  0  0
   -1.3770   18.3340   -6.0560 P   0  0  0  0  0  0  0  0  0  0  0  0
   -4.5860   21.5320   -7.0270 O   0  0  0  0  0  0  0  0  0  0  0  0
   -4.0580   22.7310  -10.2220 C   0  0  1  0  0  0  0  0  0  0  0  0
   -5.0770   22.5560   -9.1530 C   0  0  2  0  0  0  0  0  0  0  0  0
   -2.0990   17.0770   -5.5470 O   0  0  0  0  0  0  0  0  0  0  0  0
   -2.3770   18.3730   -7.3350 O   0  0  0  0  0  0  0  0  0  0  0  0
   -1.8730   19.2130   -4.7620 O   0  0  0  0  0  0  0  0  0  0  0  0
   -4.4340   23.7030  -11.1350 O   0  0  0  0  0  0  0  0  0  0  0  0
   -5.8150   23.7430   -8.9990 O   0  0  0  0  0  0  0  0  0  0  0  0
  1  2  1  0
  2  3  1  0
  4  1  1  1
  2  5  1  0
  2  6  1  0
  4  7  1  0
  4  8  1  0
  3  9  1  0
  8 10  1  1
  7 11  1  0
  8 12  1  0
 11 12  1  0
  9 13  1  0
  9 14  1  0
  9 15  1  0
 11 16  1  1
 12 17  1  1
M  CHG  2   5  -1  14  -1
M  END
