
     RDKit          3D

 36 39  0  0  0  0  0  0  0  0999 V2000
   -1.8910   18.1150   -6.5980 P   0  0  0  0  0  0  0  0  0  0  0  0
   -0.3740   19.6830   -8.4410 P   0  0  0  0  0  0  0  0  0  0  0  0
    0.2870   17.1860   -5.4110 C   0  0  0  0  0  0  0  0  0  0  0  0
   -1.0530   16.9780   -5.8490 O   0  0  0  0  0  0  0  0  0  0  0  0
    0.6550   15.9400   -4.5820 C   0  0  1  0  0  0  0  0  0  0  0  0
   -0.0480   16.0130   -3.3330 O   0  0  0  0  0  0  0  0  0  0  0  0
    0.1720   14.6550   -5.2720 C   0  0  1  0  0  0  0  0  0  0  0  0
    1.2330   13.6870   -5.3190 O   0  0  0  0  0  0  0  0  0  0  0  0
   -0.9720   14.1760   -4.3930 C   0  0  1  0  0  0  0  0  0  0  0  0
   -0.9420   12.7500   -4.3170 O   0  0  0  0  0  0  0  0  0  0  0  0
   -0.5940   14.7290   -3.0450 C   0  0  2  0  0  0  0  0  0  0  0  0
   -5.2040   21.8480   -7.9970 C   0  0  1  0  0  0  0  0  0  0  0  0
   -1.5880   15.3650    1.9220 N   0  0  0  0  0  0  0  0  0  0  0  0
   -2.4030   17.4730   -7.8730 O   0  0  0  0  0  0  0  0  0  0  0  0
    0.8030   20.6270   -8.3740 O   0  0  0  0  0  0  0  0  0  0  0  0
   -5.5260   21.0190   -6.8820 O   0  0  0  0  0  0  0  0  0  0  0  0
   -0.4310   15.2070    1.2550 C   0  0  0  0  0  0  0  0  0  0  0  0
   -4.6440   23.1970   -7.5880 C   0  0  2  0  0  0  0  0  0  0  0  0
   -2.9040   18.6130   -5.5730 O   0  0  0  0  0  0  0  0  0  0  0  0
   -0.2180   18.3360   -9.1040 O   0  0  0  0  0  0  0  0  0  0  0  0
   -5.6430   24.2060   -7.6180 O   0  0  0  0  0  0  0  0  0  0  0  0
   -3.7240   23.5150   -8.7050 C   0  0  2  0  0  0  0  0  0  0  0  0
   -0.3500   15.0380   -0.0780 N   0  0  0  0  0  0  0  0  0  0  0  0
   -0.7750   19.2550   -6.9430 O   0  0  0  0  0  0  0  0  0  0  0  0
   -4.5350   23.9420   -9.8020 O   0  0  0  0  0  0  0  0  0  0  0  0
   -1.4700   15.0300   -0.8110 C   0  0  0  0  0  0  0  0  0  0  0  0
   -3.1590   22.1820   -9.1020 C   0  0  2  0  0  0  0  0  0  0  0  0
   -4.1600   21.2280   -8.7540 O   0  0  0  0  0  0  0  0  0  0  0  0
   -2.7920   15.2000   -0.1880 C   0  0  0  0  0  0  0  0  0  0  0  0
   -1.8690   21.7750   -8.4040 C   0  0  0  0  0  0  0  0  0  0  0  0
   -1.6460   20.4850   -8.9280 O   0  0  0  0  0  0  0  0  0  0  0  0
   -2.7910   15.3720    1.2770 C   0  0  0  0  0  0  0  0  0  0  0  0
   -3.9390   15.5530    1.9720 N   0  0  0  0  0  0  0  0  0  0  0  0
   -3.7130   15.1570   -1.1750 N   0  0  0  0  0  0  0  0  0  0  0  0
   -3.0340   14.9710   -2.3480 C   0  0  0  0  0  0  0  0  0  0  0  0
   -1.7010   14.8940   -2.1080 N   0  0  0  0  0  0  0  0  0  0  0  0
  1  4  1  0
  1 14  1  0
  1 19  1  0
  1 24  1  0
  4  3  1  0
 24  2  1  0
  2 15  1  0
  2 20  1  0
  2 31  1  0
 31 30  1  0
  5  3  1  6
  5  6  1  0
  5  7  1  0
  6 11  1  0
  7  8  1  1
  7  9  1  0
 11  9  1  0
 11 36  1  1
  9 10  1  1
 36 26  1  0
 36 35  1  0
 12 16  1  1
 12 18  1  0
 12 28  1  0
 18 21  1  6
 18 22  1  0
 28 27  1  0
 13 17  1  0
 13 32  1  0
 17 23  1  0
 32 29  1  0
 32 33  1  0
 23 26  1  0
 22 25  1  6
 22 27  1  0
 27 30  1  1
 26 29  1  0
 29 34  1  0
 34 35  1  0
M  CHG  2  14  -1  15  -1
M  END
