5CB5_0_I_α-3VFQ_0_A_β
     RDKit          3D

 19 19  0  0  0  0  0  0  0  0999 V2000
   -1.8420   21.2590   -8.1710 C   0  0  0  0  0  0  0  0  0  0  0  0
   -3.2150   21.7150   -8.5740 C   0  0  1  0  0  0  0  0  0  0  0  0
   -4.2500   20.8440   -8.2860 O   0  0  0  0  0  0  0  0  0  0  0  0
   -3.6410   22.9590   -7.8850 C   0  0  1  0  0  0  0  0  0  0  0  0
   -4.5540   23.6710   -8.6590 O   0  0  0  0  0  0  0  0  0  0  0  0
   -4.2540   20.7650   -6.9190 C   0  0  2  0  0  0  0  0  0  0  0  0
   -4.2710   22.3360   -6.6210 C   0  0  2  0  0  0  0  0  0  0  0  0
   -3.2330   19.9720   -6.2740 O   0  0  0  0  0  0  0  0  0  0  0  0
   -5.5710   22.8170   -6.6530 O   0  0  0  0  0  0  0  0  0  0  0  0
   -3.1260   18.6060   -6.7730 C   0  0  0  0  0  0  0  0  0  0  0  0
   -2.5480   17.4150   -5.9970 N   0  0  0  0  0  0  0  0  0  0  0  0
   -1.0390   17.8630   -5.6050 P   0  0  0  0  0  0  0  0  0  0  0  0
   -3.2660   16.0400   -5.3870 P   0  0  0  0  0  0  0  0  0  0  0  0
   -0.9870   19.0790   -6.5140 O   0  0  0  0  0  0  0  0  0  0  0  0
   -1.0060   18.8350   -4.3050 O   0  0  0  0  0  0  0  0  0  0  0  0
    0.2740   17.1620   -6.2890 O   0  0  0  0  0  0  0  0  0  0  0  0
   -1.9400   15.0790   -5.6640 O   0  0  0  0  0  0  0  0  0  0  0  0
   -3.4300   16.3610   -3.8370 O   0  0  0  0  0  0  0  0  0  0  0  0
   -4.5360   16.0790   -6.4220 O   0  0  0  0  0  0  0  0  0  0  0  0
  2  1  1  1
  2  3  1  0
  2  4  1  0
  4  5  1  6
  3  6  1  0
  4  7  1  0
  6  7  1  0
  6  8  1  1
  7  9  1  6
  8 10  1  0
 10 11  1  0
 11 12  1  0
 11 13  1  0
 12 14  1  0
 12 15  1  0
 12 16  1  0
 13 17  1  0
 13 18  1  0
 13 19  1  0
M  CHG  2  15  -1  18  -1
M  END
