5CB5_0_B_β-5CMS_0_H_α
     RDKit          3D

 17 17  0  0  0  0  0  0  0  0999 V2000
   -1.7050   21.3860   -8.6780 O   0  0  0  0  0  0  0  0  0  0  0  0
   -0.5310   20.2940   -8.0730 P   0  0  0  0  0  0  0  0  0  0  0  0
   -0.8430   19.7230   -6.5610 O   0  0  0  0  0  0  0  0  0  0  0  0
   -1.7600   21.6910  -10.0530 C   0  0  1  0  0  0  0  0  0  0  0  0
    0.1850   21.5020   -7.4970 O   0  0  0  0  0  0  0  0  0  0  0  0
   -1.1060   19.0300   -8.6720 O   0  0  0  0  0  0  0  0  0  0  0  0
   -2.9810   22.1870  -10.4370 O   0  0  0  0  0  0  0  0  0  0  0  0
   -0.8220   22.8380  -10.5280 C   0  0  2  0  0  0  0  0  0  0  0  0
   -1.3590   18.3340   -6.1000 P   0  0  0  0  0  0  0  0  0  0  0  0
    0.3440   22.8360   -9.7920 O   0  0  0  0  0  0  0  0  0  0  0  0
   -3.0280   23.5440  -10.2850 C   0  0  1  0  0  0  0  0  0  0  0  0
   -1.6220   24.0880  -10.2790 C   0  0  2  0  0  0  0  0  0  0  0  0
   -1.7030   16.8980   -5.6750 O   0  0  0  0  0  0  0  0  0  0  0  0
   -2.5910   18.3380   -7.1680 O   0  0  0  0  0  0  0  0  0  0  0  0
   -1.6890   18.9120   -4.6020 O   0  0  0  0  0  0  0  0  0  0  0  0
   -3.8390   24.2000  -11.1880 O   0  0  0  0  0  0  0  0  0  0  0  0
   -1.3500   24.9100  -11.3950 O   0  0  0  0  0  0  0  0  0  0  0  0
  1  2  1  0
  2  3  1  0
  4  1  1  1
  2  5  1  0
  2  6  1  0
  4  7  1  0
  4  8  1  0
  3  9  1  0
  8 10  1  1
  7 11  1  0
  8 12  1  0
 11 12  1  0
  9 13  1  0
  9 14  1  0
  9 15  1  0
 11 16  1  6
 12 17  1  6
M  CHG  2   5  -1  14  -1
M  END
