5CB5_0_L_γ-5cms_F_6_F_β
     RDKit          3D

 16 16  0  0  0  0  0  0  0  0999 V2000
   -1.0440   12.5570   -3.9720 O   0  0  0  0  0  0  0  0  0  0  0  0
   -0.1030   13.6110   -3.9010 C   0  0  2  0  0  0  0  0  0  0  0  0
   -0.4410   14.6620   -2.8470 C   0  0  0  0  0  0  0  0  0  0  0  0
   -0.0130   14.3990   -5.2040 C   0  0  2  0  0  0  0  0  0  0  0  0
    1.3680   14.3330   -5.5630 O   0  0  0  0  0  0  0  0  0  0  0  0
   -0.0670   15.9220   -3.4160 O   0  0  0  0  0  0  0  0  0  0  0  0
   -0.4920   15.7970   -4.7730 C   0  0  1  0  0  0  0  0  0  0  0  0
   -0.0350   17.0410   -5.5280 C   0  0  0  0  0  0  0  0  0  0  0  0
   -1.4180   18.1020   -6.0150 P   0  0  1  0  0  0  0  0  0  0  0  0
   -0.8990   19.4860   -6.5700 O   0  0  0  0  0  0  0  0  0  0  0  0
   -2.4760   17.4500   -6.8510 O   0  0  0  0  0  0  0  0  0  0  0  0
   -1.9950   18.5590   -4.6120 O   0  0  0  0  0  0  0  0  0  0  0  0
   -0.2900   19.9960   -7.9120 P   0  0  0  0  0  0  0  0  0  0  0  0
   -1.5530   20.5640   -8.6890 O   0  0  0  0  0  0  0  0  0  0  0  0
    0.8340   20.9570   -7.8520 O   0  0  0  0  0  0  0  0  0  0  0  0
   -0.0120   18.6900   -8.7920 O   0  0  0  0  0  0  0  0  0  0  0  0
  2  1  1  6
  2  3  1  0
  2  4  1  0
  4  5  1  1
  3  6  1  0
  4  7  1  0
  6  7  1  0
  7  8  1  6
  8  9  1  0
  9 10  1  0
  9 11  2  0
  9 12  1  1
 10 13  1  0
 13 14  1  0
 13 15  2  0
 13 16  1  0
M  END
