5cb5_P_0_P_α-3Q6Z_0_A_β
     RDKit          3D

 17 17  0  0  0  0  0  0  0  0999 V2000
   -1.9320   21.3930   -8.6570 C   0  0  0  0  0  0  0  0  0  0  0  0
   -0.7030   20.2660   -8.1290 P   0  0  0  0  0  0  0  0  0  0  0  0
   -1.1170   19.8540   -6.6930 O   0  0  0  0  0  0  0  0  0  0  0  0
   -3.1550   21.8900   -7.9690 C   0  0  2  0  0  0  0  0  0  0  0  0
   -0.6730   18.6820   -8.5280 O   0  0  0  0  0  0  0  0  0  0  0  0
    0.7270   20.8950   -7.5140 O   0  0  0  0  0  0  0  0  0  0  0  0
   -4.3800   21.3690   -8.2080 O   0  0  0  0  0  0  0  0  0  0  0  0
   -3.4760   23.3690   -8.0220 C   0  0  1  0  0  0  0  0  0  0  0  0
   -4.1540   23.8180   -9.1280 O   0  0  0  0  0  0  0  0  0  0  0  0
   -1.4330   18.2740   -6.2580 P   0  0  0  0  0  0  0  0  0  0  0  0
   -5.1310   21.9480   -7.2140 C   0  0  2  0  0  0  0  0  0  0  0  0
   -4.5370   23.3070   -6.9070 C   0  0  2  0  0  0  0  0  0  0  0  0
   -5.1240   21.2650   -6.0020 O   0  0  0  0  0  0  0  0  0  0  0  0
   -5.4500   24.3170   -7.1250 O   0  0  0  0  0  0  0  0  0  0  0  0
   -0.2700   17.3440   -5.4680 O   0  0  0  0  0  0  0  0  0  0  0  0
   -1.9460   18.7090   -4.8910 O   0  0  0  0  0  0  0  0  0  0  0  0
   -2.7440   17.5080   -6.7670 O   0  0  0  0  0  0  0  0  0  0  0  0
  1  2  1  0
  2  3  1  0
  4  1  1  6
  2  5  1  0
  2  6  1  0
  4  7  1  0
  4  8  1  0
  8  9  1  6
  3 10  1  0
  7 11  1  0
  8 12  1  0
 11 12  1  0
 11 13  1  1
 12 14  1  6
 10 15  1  0
 10 16  1  0
 10 17  1  0
M  CHG  2   5  -1  16  -1
M  END
