5CB5_0_Q_δ-4IQY_0_B_β
     RDKit          3D

 21 22  0  0  0  0  0  0  0  0999 V2000
   -3.7560   15.3320    1.5450 N   0  0  0  0  0  0  0  0  0  0  0  0
   -2.5990   14.7430    0.8760 C   0  0  1  0  0  0  0  0  0  0  0  0
   -2.4570   15.4250   -0.4290 C   0  0  1  0  0  0  0  0  0  0  0  0
   -1.4450   15.1140    1.6160 N   0  0  0  0  0  0  0  0  0  0  0  0
   -1.1310   15.1560   -1.0560 C   0  0  2  0  0  0  0  0  0  0  0  0
   -3.4250   15.0450   -1.3980 N   0  0  0  0  0  0  0  0  0  0  0  0
   -0.1970   14.6690    1.0820 C   0  0  0  0  0  0  0  0  0  0  0  0
   -1.3390   14.6360   -2.3290 N   0  0  0  0  0  0  0  0  0  0  0  0
   -2.7480   14.6880   -2.6460 C   0  0  2  0  0  0  0  0  0  0  0  0
   -0.4280   14.1440   -0.2590 N   0  0  0  0  0  0  0  0  0  0  0  0
   -3.0140   15.6810   -3.7170 C   0  0  0  0  0  0  0  0  0  0  0  0
   -1.7970   16.4610   -4.0930 C   0  0  0  0  0  0  0  0  0  0  0  0
   -2.0570   17.7910   -4.2870 O   0  0  0  0  0  0  0  0  0  0  0  0
   -1.6840   18.1410   -5.8590 P   0  0  0  0  0  0  0  0  0  0  0  0
   -0.9080   19.3670   -6.3760 O   0  0  0  0  0  0  0  0  0  0  0  0
   -0.6410   17.1090   -5.9320 O   0  0  0  0  0  0  0  0  0  0  0  0
   -2.7370   17.2620   -6.8810 O   0  0  0  0  0  0  0  0  0  0  0  0
   -0.7830   19.7040   -7.9080 P   0  0  0  0  0  0  0  0  0  0  0  0
   -1.6190   20.8790   -8.6440 O   0  0  0  0  0  0  0  0  0  0  0  0
    0.4770   20.5480   -7.7600 O   0  0  0  0  0  0  0  0  0  0  0  0
    0.1470   18.6710   -8.8400 O   0  0  0  0  0  0  0  0  0  0  0  0
  2  1  1  1
  2  3  1  0
  2  4  1  0
  3  5  1  0
  3  6  1  6
  4  7  1  0
  5  8  1  6
  6  9  1  0
  8  9  1  0
  5 10  1  0
  7 10  1  0
  9 11  1  6
 11 12  1  0
 12 13  1  0
 13 14  1  0
 14 15  1  0
 14 16  1  0
 14 17  1  0
 15 18  1  0
 18 19  1  0
 18 20  1  0
 18 21  1  0
M  CHG  1  20  -1
M  END
