5cb5_M_1_M_γ-3VFQ_0_A_β
     RDKit          3D

 18 18  0  0  0  0  0  0  0  0999 V2000
   -0.0880   12.5690   -3.7090 O   0  0  0  0  0  0  0  0  0  0  0  0
   -0.5700   13.8590   -3.8390 C   0  0  1  0  0  0  0  0  0  0  0  0
   -0.1060   14.6290   -2.5830 C   0  0  0  0  0  0  0  0  0  0  0  0
    0.2310   14.5530   -4.9620 C   0  0  2  0  0  0  0  0  0  0  0  0
    1.1780   13.6810   -5.5100 O   0  0  0  0  0  0  0  0  0  0  0  0
    0.0920   15.9170   -3.0900 O   0  0  0  0  0  0  0  0  0  0  0  0
    0.8230   15.6890   -4.2640 C   0  0  2  0  0  0  0  0  0  0  0  0
    0.8980   16.9680   -4.9980 C   0  0  0  0  0  0  0  0  0  0  0  0
   -0.2090   17.9150   -5.1790 C   0  0  0  0  0  0  0  0  0  0  0  0
   -0.8900   17.5100   -6.3770 O   0  0  0  0  0  0  0  0  0  0  0  0
   -2.3160   18.1040   -6.2300 P   0  0  0  0  0  0  0  0  0  0  0  0
   -1.7970   19.6060   -6.5150 O   0  0  0  0  0  0  0  0  0  0  0  0
   -2.4500   17.3560   -4.8110 O   0  0  0  0  0  0  0  0  0  0  0  0
   -2.9280   17.1240   -7.3730 O   0  0  0  0  0  0  0  0  0  0  0  0
   -3.0520   15.8630   -4.7210 P   0  0  0  0  0  0  0  0  0  0  0  0
   -2.4140   14.5660   -5.5200 O   0  0  0  0  0  0  0  0  0  0  0  0
   -4.2840   15.4510   -3.6350 O   0  0  0  0  0  0  0  0  0  0  0  0
   -4.1000   16.0320   -5.8380 O   0  0  0  0  0  0  0  0  0  0  0  0
  2  1  1  1
  2  3  1  0
  2  4  1  0
  4  5  1  1
  3  6  1  0
  4  7  1  0
  6  7  1  0
  7  8  1  6
  8  9  1  0
  9 10  1  0
 10 11  1  0
 11 12  1  0
 11 13  1  0
 11 14  1  0
 13 15  1  0
 15 16  1  0
 15 17  1  0
 15 18  1  0
M  CHG  1  17  -1
M  END
