5CB5_0_K_β-5CB5_0_C_α
     RDKit          3D

 17 17  0  0  0  0  0  0  0  0999 V2000
   -1.9040   21.2900   -8.9190 O   0  0  0  0  0  0  0  0  0  0  0  0
   -0.7830   20.4460   -7.9480 P   0  0  0  0  0  0  0  0  0  0  0  0
   -1.2680   19.8390   -6.5170 O   0  0  0  0  0  0  0  0  0  0  0  0
   -3.2270   21.6620   -8.5240 C   0  0  1  0  0  0  0  0  0  0  0  0
   -0.4200   21.7780   -7.3170 O   0  0  0  0  0  0  0  0  0  0  0  0
   -0.9970   19.0980   -8.6370 O   0  0  0  0  0  0  0  0  0  0  0  0
   -3.6900   21.0900   -7.3840 O   0  0  0  0  0  0  0  0  0  0  0  0
   -3.4140   23.2030   -8.2110 C   0  0  1  0  0  0  0  0  0  0  0  0
   -1.2210   18.3600   -6.0970 P   0  0  0  0  0  0  0  0  0  0  0  0
   -4.2100   23.7600   -9.2120 O   0  0  0  0  0  0  0  0  0  0  0  0
   -4.7890   21.8100   -7.0110 C   0  0  2  0  0  0  0  0  0  0  0  0
   -4.2500   23.1800   -6.9020 C   0  0  2  0  0  0  0  0  0  0  0  0
   -1.0180   16.8840   -5.7400 O   0  0  0  0  0  0  0  0  0  0  0  0
   -2.4950   18.0290   -7.0700 O   0  0  0  0  0  0  0  0  0  0  0  0
   -1.5570   18.7510   -4.5420 O   0  0  0  0  0  0  0  0  0  0  0  0
   -5.4350   21.4460   -5.8440 O   0  0  0  0  0  0  0  0  0  0  0  0
   -5.2970   24.1240   -6.9660 O   0  0  0  0  0  0  0  0  0  0  0  0
  1  2  1  0
  2  3  1  0
  4  1  1  1
  2  5  1  0
  2  6  1  0
  4  7  1  0
  4  8  1  0
  3  9  1  0
  8 10  1  6
  7 11  1  0
  8 12  1  0
 11 12  1  0
  9 13  1  0
  9 14  1  0
  9 15  1  0
 11 16  1  1
 12 17  1  6
M  CHG  2   5  -1  14  -1
M  END
