5CB5_0_Q_γ-5cms_M_12_M_α
     RDKit          3D

 21 22  0  0  0  0  0  0  0  0999 V2000
   -0.5280   12.6780   -4.0600 O   0  0  0  0  0  0  0  0  0  0  0  0
   -0.7400   14.0620   -4.2590 C   0  0  1  0  0  0  0  0  0  0  0  0
   -0.4900   14.9070   -3.0200 C   0  0  0  0  0  0  0  0  0  0  0  0
    0.2620   14.6820   -5.2100 C   0  0  2  0  0  0  0  0  0  0  0  0
    1.5840   14.2780   -4.8700 O   0  0  0  0  0  0  0  0  0  0  0  0
   -0.0640   16.1990   -3.5000 O   0  0  0  0  0  0  0  0  0  0  0  0
   -0.0990   16.1380   -4.9330 C   0  0  1  0  0  0  0  0  0  0  0  0
    0.7540   17.2680   -5.4950 C   0  0  0  0  0  0  0  0  0  0  0  0
   -0.0100   18.3870   -6.2130 C   0  0  0  0  0  0  0  0  0  0  0  0
   -1.3000   18.8290   -5.4900 C   0  0  0  0  0  0  0  0  0  0  0  0
   -1.8650   20.1660   -6.0070 C   0  0  0  0  0  0  0  0  0  0  0  0
   -2.4460   20.0800   -7.3970 C   0  0  0  0  0  0  0  0  0  0  0  0
   -3.3990   21.2290   -7.7890 C   0  0  0  0  0  0  0  0  0  0  0  0
   -3.0180   22.0060   -9.0550 C   0  0  1  0  0  0  0  0  0  0  0  0
   -3.6510   21.5130  -10.2540 O   0  0  0  0  0  0  0  0  0  0  0  0
   -3.4280   23.4540   -8.9360 C   0  0  1  0  0  0  0  0  0  0  0  0
   -2.3070   24.2110   -8.6010 O   0  0  0  0  0  0  0  0  0  0  0  0
   -4.4930   22.4970  -10.8900 C   0  0  2  0  0  0  0  0  0  0  0  0
   -4.3100   23.8230  -10.1760 C   0  0  2  0  0  0  0  0  0  0  0  0
   -5.8590   22.1740  -10.8270 O   0  0  0  0  0  0  0  0  0  0  0  0
   -3.8860   24.8740  -11.0700 O   0  0  0  0  0  0  0  0  0  0  0  0
  2  1  1  1
  2  3  1  0
  2  4  1  0
  4  5  1  1
  3  6  1  0
  4  7  1  0
  6  7  1  0
  7  8  1  6
  8  9  1  0
  9 10  1  0
 10 11  1  0
 11 12  1  0
 12 13  1  0
 14 13  1  1
 14 15  1  0
 14 16  1  0
 16 17  1  6
 15 18  1  0
 16 19  1  0
 18 19  1  0
 18 20  1  1
 19 21  1  6
M  END
