5CB5_0_E_δ-EU0046_0_A_α
     RDKit          3D

 14 15  0  0  0  0  0  0  0  0999 V2000
   -3.8470   15.5370    2.1020 N   0  0  0  0  0  0  0  0  0  0  0  0
   -3.1740   14.9010    1.0360 C   0  0  0  0  0  0  0  0  0  0  0  0
   -3.2210   15.7270   -0.2320 C   0  0  1  0  0  0  0  0  0  0  0  0
   -3.9980   13.7410    0.9070 N   0  0  0  0  0  0  0  0  0  0  0  0
   -1.9000   14.4310    1.4860 N   0  0  0  0  0  0  0  0  0  0  0  0
   -1.9160   15.7860   -1.0000 C   0  0  2  0  0  0  0  0  0  0  0  0
   -4.2860   15.2980   -1.1890 N   0  0  0  0  0  0  0  0  0  0  0  0
   -0.8070   14.3510    0.5140 C   0  0  2  0  0  0  0  0  0  0  0  0
    0.2970   15.3200    0.7880 C   0  0  0  0  0  0  0  0  0  0  0  0
   -2.3760   15.8990   -2.3780 N   0  0  0  0  0  0  0  0  0  0  0  0
   -3.6000   15.1380   -2.4590 C   0  0  0  0  0  0  0  0  0  0  0  0
   -1.1750   14.5770   -0.8790 N   0  0  0  0  0  0  0  0  0  0  0  0
   -1.3620   13.6740   -1.8290 C   0  0  0  0  0  0  0  0  0  0  0  0
   -1.5590   12.9730   -2.7180 N   0  0  0  0  0  0  0  0  0  0  0  0
  2  1  1  0
  2  3  1  0
  2  4  1  0
  2  5  1  0
  3  6  1  0
  3  7  1  6
  5  8  1  0
  8  9  1  1
  6 10  1  6
  7 11  1  0
 10 11  1  0
  6 12  1  0
  8 12  1  0
 12 13  1  0
 13 14  3  0
M  END
