5CB5_0_R_Î±
     RDKit          3D

  9  9  0  0  0  0  0  0  0  0999 V2000
   -2.0830   21.5490   -8.4000 C   0  0  0  0  0  0  0  0  0  0  0  0
   -3.3980   21.7840   -9.0730 C   0  0  1  0  0  0  0  0  0  0  0  0
   -4.4210   20.9430   -8.5050 O   0  0  0  0  0  0  0  0  0  0  0  0
   -3.7840   23.1660   -8.7080 C   0  0  2  0  0  0  0  0  0  0  0  0
   -5.1000   21.6050   -7.4250 C   0  0  2  0  0  0  0  0  0  0  0  0
   -4.3790   22.9530   -7.3280 C   0  0  2  0  0  0  0  0  0  0  0  0
   -4.7620   23.5950   -9.6480 O   0  0  0  0  0  0  0  0  0  0  0  0
   -4.9920   20.7320   -6.2740 O   0  0  0  0  0  0  0  0  0  0  0  0
   -5.2500   24.0550   -7.0360 O   0  0  0  0  0  0  0  0  0  0  0  0
  2  1  1  1
  3  2  1  0
  4  2  1  0
  5  3  1  0
  6  4  1  0
  4  7  1  6
  5  8  1  1
  5  6  1  0
  6  9  1  6
M  END
