5cms_L_11_L_β-2bfq_0_A_α
     RDKit          3D

 20 20  0  0  0  0  0  0  0  0999 V2000
   -0.9130   20.2120   -8.9300 O   0  0  0  0  0  0  0  0  0  0  0  0
   -0.3040   19.4600   -7.6820 P   0  0  0  0  0  0  0  0  0  0  0  0
   -1.5560   19.3560   -6.6910 N   0  0  0  0  0  0  0  0  0  0  0  0
    0.9980   20.0640   -7.3470 O   0  0  0  0  0  0  0  0  0  0  0  0
   -0.1420   18.1780   -8.5730 O   0  0  0  0  0  0  0  0  0  0  0  0
   -1.8320   17.9140   -6.1000 P   0  0  0  0  0  0  0  0  0  0  0  0
   -1.8870   20.4850   -5.9130 C   0  0  0  0  0  0  0  0  0  0  0  0
   -0.4270   17.1610   -6.0140 O   0  0  0  0  0  0  0  0  0  0  0  0
   -2.8560   17.0790   -6.7500 O   0  0  0  0  0  0  0  0  0  0  0  0
   -2.0120   18.0850   -4.5330 O   0  0  0  0  0  0  0  0  0  0  0  0
   -2.9610   21.3120   -6.4810 C   0  0  0  0  0  0  0  0  0  0  0  0
   -2.4000   22.1390   -7.6290 C   0  0  0  0  0  0  0  0  0  0  0  0
   -3.5370   22.5270   -8.5080 C   0  0  1  0  0  0  0  0  0  0  0  0
   -4.5580   21.5940   -8.1760 O   0  0  0  0  0  0  0  0  0  0  0  0
   -4.1220   23.8870   -8.1780 C   0  0  1  0  0  0  0  0  0  0  0  0
   -4.6260   24.4200   -9.4060 O   0  0  0  0  0  0  0  0  0  0  0  0
   -5.1570   22.1210   -7.0080 C   0  0  1  0  0  0  0  0  0  0  0  0
   -5.3450   23.5960   -7.3200 C   0  0  1  0  0  0  0  0  0  0  0  0
   -6.3680   21.4450   -6.7990 O   0  0  0  0  0  0  0  0  0  0  0  0
   -5.4200   24.4020   -6.1580 O   0  0  0  0  0  0  0  0  0  0  0  0
  1  2  1  0
  2  3  1  0
  2  4  2  0
  2  5  1  0
  3  6  1  0
  3  7  1  0
  6  8  1  0
  6  9  2  0
  6 10  1  0
  7 11  1  0
 11 12  1  0
 13 12  1  1
 13 14  1  0
 13 15  1  0
 15 16  1  6
 14 17  1  0
 15 18  1  0
 17 18  1  0
 17 19  1  6
 18 20  1  1
M  END
