5cms_R_17_R_γ-4IQY_0_B_α
     RDKit          3D

 21 22  0  0  0  0  0  0  0  0999 V2000
    0.4950   12.3010   -3.6740 O   0  0  0  0  0  0  0  0  0  0  0  0
   -0.0270   13.5710   -4.0170 C   0  0  1  0  0  0  0  0  0  0  0  0
   -0.1190   14.5560   -2.8650 C   0  0  0  0  0  0  0  0  0  0  0  0
    0.8920   14.3520   -4.9350 C   0  0  1  0  0  0  0  0  0  0  0  0
    0.9780   13.6570   -6.1680 O   0  0  0  0  0  0  0  0  0  0  0  0
   -0.1200   15.8590   -3.4800 O   0  0  0  0  0  0  0  0  0  0  0  0
    0.1360   15.6770   -4.8900 C   0  0  1  0  0  0  0  0  0  0  0  0
    0.8000   16.9580   -5.3960 C   0  0  0  0  0  0  0  0  0  0  0  0
   -0.1530   18.0300   -5.9320 C   0  0  0  0  0  0  0  0  0  0  0  0
    0.4310   18.9050   -7.0470 C   0  0  0  0  0  0  0  0  0  0  0  0
   -0.6370   19.5920   -7.8940 C   0  0  0  0  0  0  0  0  0  0  0  0
   -1.1460   20.9260   -7.3470 C   0  0  0  0  0  0  0  0  0  0  0  0
   -2.0910   21.6550   -8.3040 C   0  0  0  0  0  0  0  0  0  0  0  0
   -3.4190   22.0430   -7.6590 C   0  0  2  0  0  0  0  0  0  0  0  0
   -4.3840   20.9870   -7.7480 O   0  0  0  0  0  0  0  0  0  0  0  0
   -4.1470   23.2380   -8.2660 C   0  0  1  0  0  0  0  0  0  0  0  0
   -4.3280   23.2340   -9.6690 O   0  0  0  0  0  0  0  0  0  0  0  0
   -5.5900   21.6110   -7.2910 C   0  0  1  0  0  0  0  0  0  0  0  0
   -5.4840   23.1270   -7.5660 C   0  0  1  0  0  0  0  0  0  0  0  0
   -6.7180   21.0870   -7.9910 O   0  0  0  0  0  0  0  0  0  0  0  0
   -5.5570   23.9490   -6.4010 O   0  0  0  0  0  0  0  0  0  0  0  0
  2  1  1  1
  2  3  1  0
  2  4  1  0
  4  5  1  6
  3  6  1  0
  4  7  1  0
  6  7  1  0
  7  8  1  1
  8  9  1  0
  9 10  1  0
 10 11  1  0
 11 12  1  0
 12 13  1  0
 14 13  1  6
 14 15  1  0
 14 16  1  0
 16 17  1  6
 15 18  1  0
 16 19  1  0
 18 19  1  0
 18 20  1  6
 19 21  1  1
M  END
