5CMS_0_A_γ-5CB5_0_R_α
     RDKit          3D

 21 22  0  0  0  0  0  0  0  0999 V2000
   -0.5260   11.9810   -4.0840 O   0  0  0  0  0  0  0  0  0  0  0  0
   -0.8790   13.3400   -4.2660 C   0  0  1  0  0  0  0  0  0  0  0  0
   -0.7620   14.1630   -2.9900 C   0  0  0  0  0  0  0  0  0  0  0  0
    0.0830   14.0470   -5.1960 C   0  0  2  0  0  0  0  0  0  0  0  0
    1.4100   13.5720   -4.9610 O   0  0  0  0  0  0  0  0  0  0  0  0
   -0.3390   15.4810   -3.3800 O   0  0  0  0  0  0  0  0  0  0  0  0
   -0.2220   15.5010   -4.8180 C   0  0  1  0  0  0  0  0  0  0  0  0
    0.7830   16.5840   -5.1900 C   0  0  0  0  0  0  0  0  0  0  0  0
    0.2750   18.0330   -5.2150 C   0  0  0  0  0  0  0  0  0  0  0  0
    0.2360   18.7280   -6.5940 C   0  0  0  0  0  0  0  0  0  0  0  0
   -1.1430   19.3200   -6.9380 C   0  0  0  0  0  0  0  0  0  0  0  0
   -1.1430   20.4820   -7.9460 C   0  0  0  0  0  0  0  0  0  0  0  0
   -2.0920   21.6420   -7.5610 C   0  0  0  0  0  0  0  0  0  0  0  0
   -3.3880   21.7890   -8.4000 C   0  0  1  0  0  0  0  0  0  0  0  0
   -4.3470   20.8420   -7.9150 O   0  0  0  0  0  0  0  0  0  0  0  0
   -4.0170   23.2010   -8.2950 C   0  0  1  0  0  0  0  0  0  0  0  0
   -4.3260   23.8840   -9.4950 O   0  0  0  0  0  0  0  0  0  0  0  0
   -5.4240   21.5240   -7.2900 C   0  0  2  0  0  0  0  0  0  0  0  0
   -5.3030   23.0240   -7.5350 C   0  0  1  0  0  0  0  0  0  0  0  0
   -5.4080   21.2730   -5.9030 O   0  0  0  0  0  0  0  0  0  0  0  0
   -5.3490   23.8290   -6.3590 O   0  0  0  0  0  0  0  0  0  0  0  0
  2  1  1  1
  2  3  1  0
  2  4  1  0
  4  5  1  1
  3  6  1  0
  4  7  1  0
  6  7  1  0
  7  8  1  1
  8  9  1  0
  9 10  1  0
 10 11  1  0
 11 12  1  0
 12 13  1  0
 14 13  1  1
 14 15  1  0
 14 16  1  0
 16 17  1  6
 15 18  1  0
 16 19  1  0
 18 19  1  0
 18 20  1  1
 19 21  1  1
M  END
