5CMS_0_H_γ-5CMS_0_B_β
     RDKit          3D

 16 16  0  0  0  0  0  0  0  0999 V2000
   -1.6960   13.0550   -3.9600 O   0  0  0  0  0  0  0  0  0  0  0  0
   -0.4360   13.6380   -3.8960 C   0  0  2  0  0  0  0  0  0  0  0  0
   -0.2930   14.6340   -2.7480 C   0  0  0  0  0  0  0  0  0  0  0  0
   -0.1270   14.4610   -5.1180 C   0  0  2  0  0  0  0  0  0  0  0  0
    1.2190   14.2290   -5.3930 O   0  0  0  0  0  0  0  0  0  0  0  0
    0.2530   15.7780   -3.3550 O   0  0  0  0  0  0  0  0  0  0  0  0
   -0.4110   15.8100   -4.5620 C   0  0  1  0  0  0  0  0  0  0  0  0
   -0.1430   17.0850   -5.3900 C   0  0  0  0  0  0  0  0  0  0  0  0
   -1.6210   17.9820   -5.6960 P   0  0  0  0  0  0  0  0  0  0  0  0
   -1.2100   19.2580   -6.4530 O   0  0  0  0  0  0  0  0  0  0  0  0
   -2.6330   17.6250   -7.0020 O   0  0  0  0  0  0  0  0  0  0  0  0
   -2.1870   18.9950   -4.6140 O   0  0  0  0  0  0  0  0  0  0  0  0
   -0.2190   19.5230   -7.6680 P   0  0  0  0  0  0  0  0  0  0  0  0
   -1.3070   20.2700   -8.4520 O   0  0  0  0  0  0  0  0  0  0  0  0
    0.7010   20.9240   -7.7550 O   0  0  0  0  0  0  0  0  0  0  0  0
   -0.0070   18.3940   -8.8280 O   0  0  0  0  0  0  0  0  0  0  0  0
  2  1  1  6
  2  3  1  0
  2  4  1  0
  4  5  1  1
  3  6  1  0
  4  7  1  0
  6  7  1  0
  7  8  1  6
  8  9  1  0
  9 10  1  0
  9 11  1  0
  9 12  1  0
 10 13  1  0
 13 14  1  0
 13 15  1  0
 13 16  1  0
M  CHG  2  11  -1  15  -1
M  END
