5CMS_0_C_δ-x0371_0_A_β
     RDKit          3D

 15 17  0  0  0  0  0  0  0  0999 V2000
   -3.7010   16.1380    1.4560 N   0  0  0  0  0  0  0  0  0  0  0  0
   -2.7620   15.0570    1.4050 C   0  0  1  0  0  0  0  0  0  0  0  0
   -3.0420   14.1530    0.2490 C   0  0  2  0  0  0  0  0  0  0  0  0
   -1.4590   15.6400    1.4100 N   0  0  0  0  0  0  0  0  0  0  0  0
   -1.8730   13.9930   -0.7480 C   0  0  1  0  0  0  0  0  0  0  0  0
   -4.3260   14.2840   -0.5860 C   0  0  1  0  0  0  0  0  0  0  0  0
   -0.4080   14.8130    0.9140 C   0  0  0  0  0  0  0  0  0  0  0  0
   -2.3970   14.4900   -1.9950 N   0  0  0  0  0  0  0  0  0  0  0  0
   -3.7840   13.9720   -1.9910 C   0  0  0  0  0  0  0  0  0  0  0  0
   -0.6380   14.6910   -0.4860 N   0  0  0  0  0  0  0  0  0  0  0  0
   -5.3990   13.3790   -0.0070 N   0  0  0  0  0  0  0  0  0  0  0  0
   -5.1270   15.5350   -0.6880 C   0  0  0  0  0  0  0  0  0  0  0  0
   -6.4570   14.1240    0.1260 C   0  0  0  0  0  0  0  0  0  0  0  0
   -6.3520   15.3990   -0.3010 N   0  0  0  0  0  0  0  0  0  0  0  0
   -7.7650   13.6880    0.7130 C   0  0  0  0  0  0  0  0  0  0  0  0
  2  1  1  6
  3  2  1  6
  2  4  1  0
  3  5  1  0
  3  6  1  0
  4  7  1  0
  5  8  1  6
  6  9  1  6
  8  9  1  0
  5 10  1  0
  7 10  1  0
  6 11  1  0
  6 12  1  0
 11 13  2  0
 12 14  2  0
 13 14  1  0
 13 15  1  0
M  END
