5CMS_0_M_α-6WOJ_0_D_α
     RDKit          3D

 17 18  0  0  0  0  0  0  0  0999 V2000
   -2.5810   22.0060   -9.1940 C   0  0  0  0  0  0  0  0  0  0  0  0
   -3.1760   22.7410  -10.2910 C   0  0  2  0  0  0  0  0  0  0  0  0
   -3.3900   21.9730  -11.4390 O   0  0  0  0  0  0  0  0  0  0  0  0
   -3.1470   22.2900   -7.8290 C   0  0  2  0  0  0  0  0  0  0  0  0
   -2.2800   23.8100  -10.8410 C   0  0  1  0  0  0  0  0  0  0  0  0
   -3.8470   21.1800   -7.2310 O   0  0  0  0  0  0  0  0  0  0  0  0
   -4.1800   23.3550   -7.8470 C   0  0  2  0  0  0  0  0  0  0  0  0
   -1.1370   23.3420  -11.5660 O   0  0  0  0  0  0  0  0  0  0  0  0
   -3.6700   24.5840   -8.1120 O   0  0  0  0  0  0  0  0  0  0  0  0
   -4.0460   22.9760  -12.1890 C   0  0  2  0  0  0  0  0  0  0  0  0
   -3.3140   24.3150  -11.8230 C   0  0  2  0  0  0  0  0  0  0  0  0
   -4.9760   21.8090   -6.5920 C   0  0  2  0  0  0  0  0  0  0  0  0
   -4.5530   23.2490   -6.4360 C   0  0  2  0  0  0  0  0  0  0  0  0
   -5.3860   22.9870  -11.7410 O   0  0  0  0  0  0  0  0  0  0  0  0
   -2.6840   25.0020  -12.9000 O   0  0  0  0  0  0  0  0  0  0  0  0
   -5.2630   21.2370   -5.3490 O   0  0  0  0  0  0  0  0  0  0  0  0
   -5.5280   24.2070   -6.0820 O   0  0  0  0  0  0  0  0  0  0  0  0
  2  1  1  1
  2  3  1  0
  4  1  1  6
  2  5  1  0
  4  6  1  0
  4  7  1  0
  5  8  1  6
  7  9  1  1
  3 10  1  0
  5 11  1  0
 10 11  1  0
  6 12  1  0
  7 13  1  0
 12 13  1  0
 10 14  1  1
 11 15  1  6
 12 16  1  1
 13 17  1  6
M  END
