5CMS_0_F_δ-EU0716_0_A_α
     RDKit          3D

 24 26  0  0  0  0  0  0  0  0999 V2000
   -4.1150   14.3130    1.8020 N   0  0  0  0  0  0  0  0  0  0  0  0
   -2.8670   14.4200    0.9540 C   0  0  1  0  0  0  0  0  0  0  0  0
   -2.7500   15.5300   -0.0970 C   0  0  1  0  0  0  0  0  0  0  0  0
   -5.3430   15.1240    1.6010 C   0  0  2  0  0  0  0  0  0  0  0  0
   -1.7620   14.6940    1.8410 N   0  0  0  0  0  0  0  0  0  0  0  0
   -6.1580   15.0960    2.8420 N   0  0  0  0  0  0  0  0  0  0  0  0
   -6.4540   14.7960    0.5390 C   0  0  1  0  0  0  0  0  0  0  0  0
   -6.2140   13.9800   -0.6880 C   0  0  0  0  0  0  0  0  0  0  0  0
   -1.3050   15.5090   -0.6780 C   0  0  2  0  0  0  0  0  0  0  0  0
   -3.6030   15.4230   -1.2820 N   0  0  0  0  0  0  0  0  0  0  0  0
   -0.4600   14.3700    1.2710 C   0  0  0  0  0  0  0  0  0  0  0  0
   -7.6300   15.1820    2.6820 C   0  0  1  0  0  0  0  0  0  0  0  0
   -7.8960   14.9200    1.1850 C   0  0  2  0  0  0  0  0  0  0  0  0
   -9.0760   14.0030    0.9090 C   0  0  0  0  0  0  0  0  0  0  0  0
   -6.9770   14.0590   -1.6500 O   0  0  0  0  0  0  0  0  0  0  0  0
   -8.5040   14.7170    3.8640 C   0  0  0  0  0  0  0  0  0  0  0  0
   -5.0030   13.0950   -0.7290 C   0  0  0  0  0  0  0  0  0  0  0  0
   -1.4680   15.1860   -2.0820 N   0  0  0  0  0  0  0  0  0  0  0  0
   -2.8100   14.6520   -2.2030 C   0  0  0  0  0  0  0  0  0  0  0  0
   -0.4280   14.4900   -0.1600 N   0  0  0  0  0  0  0  0  0  0  0  0
  -10.3510   14.8450    0.8440 C   0  0  0  0  0  0  0  0  0  0  0  0
   -7.8190   14.4000    5.0180 N   0  0  0  0  0  0  0  0  0  0  0  0
   -9.7310   14.6900    3.8100 O   0  0  0  0  0  0  0  0  0  0  0  0
   -8.1250   15.0540    6.2680 C   0  0  0  0  0  0  0  0  0  0  0  0
  2  1  1  1
  2  3  1  0
  4  1  1  1
  2  5  1  0
  4  6  1  0
  4  7  1  0
  7  8  1  1
  3  9  1  0
  3 10  1  6
  5 11  1  0
  6 12  1  0
  7 13  1  0
 12 13  1  0
 13 14  1  1
  8 15  2  0
 12 16  1  1
  8 17  1  0
  9 18  1  6
 10 19  1  0
 18 19  1  0
  9 20  1  0
 11 20  1  0
 14 21  1  0
 16 22  1  0
 16 23  2  0
 22 24  1  0
M  END
