5cms_D_3_D_γ-5cb5_N_0_N_α
     RDKit          3D

 24 26  0  0  0  0  0  0  0  0999 V2000
   -3.8980   15.7030    1.6080 N   0  0  0  0  0  0  0  0  0  0  0  0
   -2.8520   14.9590    0.9300 C   0  0  1  0  0  0  0  0  0  0  0  0
   -2.8870   14.9520   -0.6280 C   0  0  2  0  0  0  0  0  0  0  0  0
   -1.6140   15.5030    1.4480 N   0  0  0  0  0  0  0  0  0  0  0  0
   -1.6020   14.2810   -1.0410 C   0  0  1  0  0  0  0  0  0  0  0  0
   -2.7920   16.1330   -1.5090 N   0  0  0  0  0  0  0  0  0  0  0  0
   -0.4270   14.8650    0.9180 C   0  0  0  0  0  0  0  0  0  0  0  0
   -1.6940   14.3170   -2.4900 N   0  0  0  0  0  0  0  0  0  0  0  0
   -2.4100   15.5550   -2.8370 C   0  0  2  0  0  0  0  0  0  0  0  0
   -0.4350   14.9540   -0.5280 N   0  0  0  0  0  0  0  0  0  0  0  0
   -1.5340   16.4720   -3.7910 C   0  0  0  0  0  0  0  0  0  0  0  0
   -2.1460   17.1520   -5.0740 C   0  0  0  0  0  0  0  0  0  0  0  0
   -1.8490   18.6850   -5.3240 C   0  0  0  0  0  0  0  0  0  0  0  0
   -2.7370   19.4300   -6.4000 C   0  0  0  0  0  0  0  0  0  0  0  0
   -3.4090   20.7840   -5.9430 C   0  0  0  0  0  0  0  0  0  0  0  0
   -4.8210   20.9570   -6.3340 O   0  0  0  0  0  0  0  0  0  0  0  0
   -5.0930   21.6580   -7.5820 C   0  0  2  0  0  0  0  0  0  0  0  0
   -4.3450   21.0580   -8.6140 O   0  0  0  0  0  0  0  0  0  0  0  0
   -4.7410   23.1740   -7.5710 C   0  0  2  0  0  0  0  0  0  0  0  0
   -5.8510   24.0110   -7.9710 O   0  0  0  0  0  0  0  0  0  0  0  0
   -3.3290   21.9430   -9.0620 C   0  0  1  0  0  0  0  0  0  0  0  0
   -3.7490   23.3540   -8.7140 C   0  0  1  0  0  0  0  0  0  0  0  0
   -1.9830   21.5640   -8.4560 C   0  0  0  0  0  0  0  0  0  0  0  0
   -4.3700   24.0420   -9.8040 O   0  0  0  0  0  0  0  0  0  0  0  0
  2  1  1  1
  2  3  1  0
  2  4  1  0
  3  5  1  0
  3  6  1  6
  4  7  1  0
  5  8  1  6
  6  9  1  0
  8  9  1  0
  5 10  1  0
  7 10  1  0
  9 11  1  1
 11 12  1  0
 12 13  1  0
 13 14  1  0
 14 15  1  0
 15 16  1  0
 17 16  1  1
 17 18  1  0
 17 19  1  0
 19 20  1  6
 18 21  1  0
 19 22  1  0
 21 22  1  0
 21 23  1  1
 22 24  1  6
M  END
