5cms_E_5_E_β-6WOJ_0_A_δ
     RDKit          3D

 20 21  0  0  0  0  0  0  0  0999 V2000
   -1.7310   20.1440   -7.9720 O   0  0  0  0  0  0  0  0  0  0  0  0
   -0.3040   19.5130   -7.6840 P   0  0  0  0  0  0  0  0  0  0  0  0
   -0.4380   18.4300   -6.5320 O   0  0  0  0  0  0  0  0  0  0  0  0
    0.7550   20.5410   -7.5670 O   0  0  0  0  0  0  0  0  0  0  0  0
   -0.0320   18.5830   -8.9450 O   0  0  0  0  0  0  0  0  0  0  0  0
   -1.7440   17.8110   -5.8680 P   0  0  2  0  0  0  0  0  0  0  0  0
   -1.2970   16.6420   -4.8580 O   0  0  0  0  0  0  0  0  0  0  0  0
   -2.7720   17.3850   -6.8320 O   0  0  0  0  0  0  0  0  0  0  0  0
   -2.2240   18.9880   -4.9140 O   0  0  0  0  0  0  0  0  0  0  0  0
   -2.2750   15.7300   -4.3060 C   0  0  0  0  0  0  0  0  0  0  0  0
   -2.0470   15.5580   -2.7780 C   0  0  2  0  0  0  0  0  0  0  0  0
   -1.0360   14.5830   -2.3820 N   0  0  0  0  0  0  0  0  0  0  0  0
   -3.1580   15.1570   -1.9170 N   0  0  0  0  0  0  0  0  0  0  0  0
   -1.0440   14.8810   -0.9620 C   0  0  1  0  0  0  0  0  0  0  0  0
   -2.4470   15.4740   -0.6620 C   0  0  2  0  0  0  0  0  0  0  0  0
   -0.7350   13.7430   -0.1810 N   0  0  0  0  0  0  0  0  0  0  0  0
   -2.9390   15.1780    0.7950 C   0  0  1  0  0  0  0  0  0  0  0  0
   -4.2300   14.5520    0.9270 N   0  0  0  0  0  0  0  0  0  0  0  0
   -0.7100   14.1630    1.2000 C   0  0  0  0  0  0  0  0  0  0  0  0
   -2.0620   14.4010    1.6740 N   0  0  0  0  0  0  0  0  0  0  0  0
  1  2  1  0
  2  3  1  0
  2  4  2  0
  2  5  1  0
  3  6  1  0
  6  7  1  0
  6  8  2  0
  6  9  1  1
  7 10  1  0
 11 10  1  6
 11 12  1  0
 11 13  1  0
 14 12  1  6
 15 13  1  6
 14 15  1  0
 14 16  1  0
 15 17  1  0
 17 18  1  6
 16 19  1  0
 17 20  1  0
 19 20  1  0
M  END
