5CMS_0_F_α-5CMS_0_B_β
     RDKit          3D

 17 17  0  0  0  0  0  0  0  0999 V2000
   -1.9930   21.4450   -8.6110 C   0  0  0  0  0  0  0  0  0  0  0  0
   -0.7580   20.2970   -8.1410 P   0  0  0  0  0  0  0  0  0  0  0  0
   -1.4220   19.9150   -6.7860 O   0  0  0  0  0  0  0  0  0  0  0  0
   -1.8400   22.0190  -10.0110 C   0  0  1  0  0  0  0  0  0  0  0  0
    0.6340   20.7720   -7.4980 O   0  0  0  0  0  0  0  0  0  0  0  0
   -0.8540   18.6520   -8.5390 O   0  0  0  0  0  0  0  0  0  0  0  0
   -3.0750   22.1250  -10.6620 O   0  0  0  0  0  0  0  0  0  0  0  0
   -1.2300   23.4260  -10.0310 C   0  0  1  0  0  0  0  0  0  0  0  0
    0.1470   23.3640  -10.2080 O   0  0  0  0  0  0  0  0  0  0  0  0
   -1.3740   18.4360   -6.0150 P   0  0  0  0  0  0  0  0  0  0  0  0
   -3.1660   23.3590  -11.2470 C   0  0  2  0  0  0  0  0  0  0  0  0
   -1.7720   23.8700  -11.3510 C   0  0  1  0  0  0  0  0  0  0  0  0
   -3.9710   24.2350  -10.5410 O   0  0  0  0  0  0  0  0  0  0  0  0
   -1.6590   25.2710  -11.4640 O   0  0  0  0  0  0  0  0  0  0  0  0
   -0.2090   17.3130   -6.4170 O   0  0  0  0  0  0  0  0  0  0  0  0
   -2.3750   17.8280   -7.0010 O   0  0  0  0  0  0  0  0  0  0  0  0
   -2.2280   18.0710   -4.7240 O   0  0  0  0  0  0  0  0  0  0  0  0
  1  2  1  0
  2  3  1  0
  4  1  1  1
  2  5  1  0
  2  6  1  0
  4  7  1  0
  4  8  1  0
  8  9  1  6
  3 10  1  0
  7 11  1  0
  8 12  1  0
 11 12  1  0
 11 13  1  1
 12 14  1  1
 10 15  1  0
 10 16  1  0
 10 17  1  0
M  CHG  2   5  -1  16  -1
M  END
