5cms_J_9_J_β-6woj_A_0_A_β
     RDKit          3D

 11 10  0  0  0  0  0  0  0  0999 V2000
    1.0700   20.9490   -7.7690 O   0  0  0  0  0  0  0  0  0  0  0  0
   -0.1660   19.7680   -7.6990 P   0  0  0  0  0  0  0  0  0  0  0  0
   -0.1520   18.5450   -6.6440 O   0  0  0  0  0  0  0  0  0  0  0  0
    0.4280   18.8960   -8.6360 O   0  0  0  0  0  0  0  0  0  0  0  0
   -1.3380   19.9060   -8.8790 O   0  0  0  0  0  0  0  0  0  0  0  0
   -0.8450   20.6670   -6.9260 O   0  0  0  0  0  0  0  0  0  0  0  0
   -1.5430   17.9840   -6.0490 P   0  0  0  0  0  0  0  0  0  0  0  0
   -1.2300   16.9650   -4.7280 O   0  0  0  0  0  0  0  0  0  0  0  0
   -2.4670   17.3190   -7.0070 O   0  0  0  0  0  0  0  0  0  0  0  0
   -2.4160   19.3640   -5.5250 N   0  0  0  0  0  0  0  0  0  0  0  0
   -2.3260   19.6870   -4.4090 O   0  0  0  0  0  0  0  0  0  0  0  0
  1  2  1  0
  2  3  1  0
  2  4  2  0
  2  5  1  0
  2  6  2  0
  3  7  1  0
  7  8  1  0
  7  9  2  0
  7 10  1  0
 10 11  2  0
M  END
