5CMS_0_H_δ-x0900_1_A_α
     RDKit          3D

 20 22  0  0  0  0  0  0  0  0999 V2000
   -3.8200   15.4510    1.7800 N   0  0  0  0  0  0  0  0  0  0  0  0
   -2.6980   14.6570    1.3010 C   0  0  1  0  0  0  0  0  0  0  0  0
   -2.8780   14.1890   -0.1580 C   0  0  2  0  0  0  0  0  0  0  0  0
   -1.5080   15.4280    1.5110 N   0  0  0  0  0  0  0  0  0  0  0  0
   -1.5210   13.9330   -0.8050 C   0  0  1  0  0  0  0  0  0  0  0  0
   -3.5150   15.1980   -1.0250 N   0  0  0  0  0  0  0  0  0  0  0  0
   -0.3000   14.8260    0.9900 C   0  0  0  0  0  0  0  0  0  0  0  0
   -1.8670   13.9630   -2.2210 N   0  0  0  0  0  0  0  0  0  0  0  0
   -3.0050   14.8790   -2.3530 C   0  0  0  0  0  0  0  0  0  0  0  0
   -0.4690   14.8490   -0.4370 N   0  0  0  0  0  0  0  0  0  0  0  0
   -2.2070   12.6620   -2.8060 C   0  0  0  0  0  0  0  0  0  0  0  0
   -1.1680   11.7660   -3.5230 C   0  0  0  0  0  0  0  0  0  0  0  0
   -1.7390   10.5950   -4.3460 C   0  0  0  0  0  0  0  0  0  0  0  0
   -0.7560    9.8180   -5.2360 C   0  0  0  0  0  0  0  0  0  0  0  0
   -1.3690    8.8510   -6.2830 C   0  0  1  0  0  0  0  0  0  0  0  0
   -1.9910    9.5620   -7.5000 C   0  0  0  0  0  0  0  0  0  0  0  0
   -0.2720    8.0060   -6.9240 C   0  0  0  0  0  0  0  0  0  0  0  0
    0.1460    8.7920   -8.0370 N   0  0  0  0  0  0  0  0  0  0  0  0
   -0.9160    9.4950   -8.5610 C   0  0  0  0  0  0  0  0  0  0  0  0
   -0.9630    9.9690   -9.6810 O   0  0  0  0  0  0  0  0  0  0  0  0
  2  1  1  6
  2  3  1  0
  2  4  1  0
  3  5  1  0
  3  6  1  6
  4  7  1  0
  5  8  1  0
  6  9  1  0
  8  9  1  0
  5 10  1  6
  7 10  1  0
  8 11  1  0
 11 12  1  0
 12 13  1  0
 13 14  1  0
 15 14  1  1
 15 16  1  0
 15 17  1  0
 17 18  1  0
 16 19  1  0
 18 19  1  0
 19 20  2  0
M  END
