5CMS_0_N_δ-mArh-5cb5_J_2_J_β
     RDKit          3D

 21 22  0  0  0  0  0  0  0  0999 V2000
   -3.7590   14.8710    1.1610 N   0  0  0  0  0  0  0  0  0  0  0  0
   -2.5400   15.3220    0.5310 C   0  0  2  0  0  0  0  0  0  0  0  0
   -2.3300   14.7360   -0.8670 C   0  0  2  0  0  0  0  0  0  0  0  0
   -1.4900   14.8810    1.4240 N   0  0  0  0  0  0  0  0  0  0  0  0
   -0.9300   15.1300   -1.2370 C   0  0  2  0  0  0  0  0  0  0  0  0
   -3.1240   15.1890   -2.0280 N   0  0  0  0  0  0  0  0  0  0  0  0
   -0.1500   15.1690    0.9280 C   0  0  0  0  0  0  0  0  0  0  0  0
   -0.8940   14.6690   -2.6050 N   0  0  0  0  0  0  0  0  0  0  0  0
   -2.1030   15.3420   -3.0730 C   0  0  1  0  0  0  0  0  0  0  0  0
    0.0760   14.5880   -0.3790 N   0  0  0  0  0  0  0  0  0  0  0  0
   -2.4760   14.8590   -4.4710 C   0  0  0  0  0  0  0  0  0  0  0  0
   -2.6270   16.0340   -5.4190 C   0  0  0  0  0  0  0  0  0  0  0  0
   -1.5180   16.9320   -5.3560 O   0  0  0  0  0  0  0  0  0  0  0  0
   -1.7080   18.3100   -6.1340 P   0  0  1  0  0  0  0  0  0  0  0  0
   -0.2810   18.8980   -6.4880 O   0  0  0  0  0  0  0  0  0  0  0  0
   -2.5880   18.1900   -7.2870 O   0  0  0  0  0  0  0  0  0  0  0  0
   -2.2340   19.3160   -5.0330 O   0  0  0  0  0  0  0  0  0  0  0  0
   -0.1560   19.7660   -7.8120 P   0  0  0  0  0  0  0  0  0  0  0  0
   -1.6170   20.2790   -8.1740 O   0  0  0  0  0  0  0  0  0  0  0  0
    0.8620   20.8410   -7.8060 O   0  0  0  0  0  0  0  0  0  0  0  0
    0.0630   18.6400   -8.9060 O   0  0  0  0  0  0  0  0  0  0  0  0
  2  1  1  1
  2  3  1  0
  2  4  1  0
  3  5  1  0
  3  6  1  6
  4  7  1  0
  5  8  1  6
  6  9  1  0
  8  9  1  0
  5 10  1  0
  7 10  1  0
  9 11  1  6
 11 12  1  0
 12 13  1  0
 13 14  1  0
 14 15  1  0
 14 16  2  0
 14 17  1  1
 15 18  1  0
 18 19  1  0
 18 20  2  0
 18 21  1  0
M  END
