5CMS_0_P_β-1HJZ_0_A_α
     RDKit          3D

 17 17  0  0  0  0  0  0  0  0999 V2000
   -1.5050   20.9140   -8.5370 O   0  0  0  0  0  0  0  0  0  0  0  0
   -0.7090   19.6850   -7.7250 P   0  0  0  0  0  0  0  0  0  0  0  0
   -1.6100   18.3400   -7.4100 O   0  0  0  0  0  0  0  0  0  0  0  0
   -1.8590   21.9630   -7.6870 C   0  0  0  0  0  0  0  0  0  0  0  0
    0.7630   19.9290   -7.1630 O   0  0  0  0  0  0  0  0  0  0  0  0
   -0.1150   18.9150   -8.8990 O   0  0  0  0  0  0  0  0  0  0  0  0
   -3.2630   22.3410   -7.8090 N   0  0  0  0  0  0  0  0  0  0  0  0
   -1.5260   17.9090   -5.9070 P   0  0  0  0  0  0  0  0  0  0  0  0
    1.4320   20.9740   -7.4400 O   0  0  0  0  0  0  0  0  0  0  0  0
   -3.6130   22.7480   -9.1160 C   0  0  0  0  0  0  0  0  0  0  0  0
   -3.6850   23.2510   -6.7880 C   0  0  0  0  0  0  0  0  0  0  0  0
   -0.6250   16.6130   -5.4160 O   0  0  0  0  0  0  0  0  0  0  0  0
   -2.2070   18.9480   -4.8270 O   0  0  0  0  0  0  0  0  0  0  0  0
   -2.8080   17.1100   -5.9080 O   0  0  0  0  0  0  0  0  0  0  0  0
   -5.1090   23.0290   -9.1800 C   0  0  0  0  0  0  0  0  0  0  0  0
   -5.1560   23.6250   -6.9900 C   0  0  0  0  0  0  0  0  0  0  0  0
   -5.4300   24.0180   -8.2910 O   0  0  0  0  0  0  0  0  0  0  0  0
  1  2  1  0
  2  3  1  0
  1  4  1  0
  2  5  1  0
  2  6  1  0
  4  7  1  0
  3  8  1  0
  5  9  1  0
  7 10  1  0
  7 11  1  0
  8 12  1  0
  8 13  1  0
  8 14  1  0
 10 15  1  0
 11 16  1  0
 15 17  1  0
 16 17  1  0
M  CHG  1  13  -1
M  END
