5cms_D_3_D_γ-5cb5_R_0_R_γ
     RDKit          3D

 17 19  0  0  0  0  0  0  0  0999 V2000
   -3.9090   15.6410    1.6150 N   0  0  0  0  0  0  0  0  0  0  0  0
   -2.8360   14.9700    0.9010 C   0  0  1  0  0  0  0  0  0  0  0  0
   -2.6260   15.4260   -0.5570 C   0  0  1  0  0  0  0  0  0  0  0  0
   -1.6390   15.2450    1.6570 N   0  0  0  0  0  0  0  0  0  0  0  0
   -1.4020   14.6540   -1.0540 C   0  0  1  0  0  0  0  0  0  0  0  0
   -3.6570   15.1420   -1.5600 N   0  0  0  0  0  0  0  0  0  0  0  0
   -0.4520   14.5880    1.1380 C   0  0  0  0  0  0  0  0  0  0  0  0
   -1.4060   14.9300   -2.5870 C   0  0  1  0  0  0  0  0  0  0  0  0
   -2.9060   15.2290   -2.8430 C   0  0  0  0  0  0  0  0  0  0  0  0
   -0.2540   14.9960   -0.2340 N   0  0  0  0  0  0  0  0  0  0  0  0
   -0.5770   16.1060   -2.8910 O   0  0  0  0  0  0  0  0  0  0  0  0
   -0.7950   13.8630   -3.5450 C   0  0  1  0  0  0  0  0  0  0  0  0
   -1.6340   12.8500   -4.0610 O   0  0  0  0  0  0  0  0  0  0  0  0
   -0.3650   16.0870   -4.3180 C   0  0  2  0  0  0  0  0  0  0  0  0
   -0.1090   14.6240   -4.6840 C   0  0  1  0  0  0  0  0  0  0  0  0
    0.7270   17.0510   -4.7420 C   0  0  0  0  0  0  0  0  0  0  0  0
    1.2610   14.2470   -4.7850 O   0  0  0  0  0  0  0  0  0  0  0  0
  2  1  1  1
  2  3  1  0
  2  4  1  0
  3  5  1  0
  3  6  1  6
  4  7  1  0
  5  8  1  0
  6  9  1  0
  8  9  1  6
  5 10  1  1
  7 10  1  0
  8 11  1  0
  8 12  1  0
 12 13  1  6
 11 14  1  0
 12 15  1  0
 14 15  1  0
 14 16  1  1
 15 17  1  1
M  END
