5CMS_0_D_γ-5CB5_0_E_γ
     RDKit          3D

 17 19  0  0  0  0  0  0  0  0999 V2000
   -3.9230   15.6390    1.6390 N   0  0  0  0  0  0  0  0  0  0  0  0
   -2.8570   14.9640    0.9120 C   0  0  1  0  0  0  0  0  0  0  0  0
   -2.6880   15.4060   -0.5540 C   0  0  1  0  0  0  0  0  0  0  0  0
   -1.6460   15.2610    1.6400 N   0  0  0  0  0  0  0  0  0  0  0  0
   -1.4700   14.6420   -1.0730 C   0  0  1  0  0  0  0  0  0  0  0  0
   -3.7480   15.0980   -1.5260 N   0  0  0  0  0  0  0  0  0  0  0  0
   -0.4590   14.6180    1.0930 C   0  0  0  0  0  0  0  0  0  0  0  0
   -1.5240   14.8840   -2.6120 C   0  0  1  0  0  0  0  0  0  0  0  0
   -3.0370   15.1450   -2.8330 C   0  0  0  0  0  0  0  0  0  0  0  0
   -0.3000   15.0110   -0.2910 N   0  0  0  0  0  0  0  0  0  0  0  0
   -0.7420   16.0760   -2.9780 O   0  0  0  0  0  0  0  0  0  0  0  0
   -0.9090   13.8120   -3.5570 C   0  0  1  0  0  0  0  0  0  0  0  0
   -1.6830   12.7010   -3.9610 O   0  0  0  0  0  0  0  0  0  0  0  0
   -0.5800   16.0330   -4.4100 C   0  0  2  0  0  0  0  0  0  0  0  0
   -0.3780   14.5590   -4.7800 C   0  0  1  0  0  0  0  0  0  0  0  0
    0.5350   16.9540   -4.8770 C   0  0  0  0  0  0  0  0  0  0  0  0
    0.9650   14.1700   -5.0420 O   0  0  0  0  0  0  0  0  0  0  0  0
  2  1  1  1
  2  3  1  0
  2  4  1  0
  3  5  1  0
  3  6  1  6
  4  7  1  0
  5  8  1  0
  6  9  1  0
  8  9  1  6
  5 10  1  1
  7 10  1  0
  8 11  1  0
  8 12  1  0
 12 13  1  6
 11 14  1  0
 12 15  1  0
 14 15  1  0
 14 16  1  1
 15 17  1  1
M  END
