5CMS_0_F_α-5cb5_M_1_M_β
     RDKit          3D

 17 17  0  0  0  0  0  0  0  0999 V2000
   -1.8600   20.9940   -7.9340 C   0  0  0  0  0  0  0  0  0  0  0  0
   -0.4280   19.9010   -7.8680 P   0  0  1  0  0  0  0  0  0  0  0  0
   -0.4680   19.2660   -6.4350 O   0  0  0  0  0  0  0  0  0  0  0  0
   -1.9150   21.9710   -9.0800 C   0  0  1  0  0  0  0  0  0  0  0  0
   -0.2060   18.7930   -8.8520 O   0  0  0  0  0  0  0  0  0  0  0  0
    0.8240   20.9070   -7.7740 O   0  0  0  0  0  0  0  0  0  0  0  0
   -2.8370   21.5540  -10.1190 O   0  0  0  0  0  0  0  0  0  0  0  0
   -2.2880   23.3970   -8.7030 C   0  0  1  0  0  0  0  0  0  0  0  0
   -1.1860   24.2720   -8.8400 O   0  0  0  0  0  0  0  0  0  0  0  0
   -1.7330   18.4360   -5.9920 P   0  0  0  0  0  0  0  0  0  0  0  0
   -3.9560   22.4400  -10.1350 C   0  0  1  0  0  0  0  0  0  0  0  0
   -3.5100   23.7500   -9.5790 C   0  0  2  0  0  0  0  0  0  0  0  0
   -4.4690   22.6680  -11.4230 O   0  0  0  0  0  0  0  0  0  0  0  0
   -3.3240   24.5810  -10.7460 O   0  0  0  0  0  0  0  0  0  0  0  0
   -1.1940   17.1630   -5.2170 O   0  0  0  0  0  0  0  0  0  0  0  0
   -2.7300   18.0920   -7.0220 O   0  0  0  0  0  0  0  0  0  0  0  0
   -2.3150   19.3620   -4.8350 O   0  0  0  0  0  0  0  0  0  0  0  0
  1  2  1  0
  2  3  1  0
  4  1  1  1
  2  5  2  0
  2  6  1  1
  4  7  1  0
  4  8  1  0
  8  9  1  6
  3 10  1  0
  7 11  1  0
  8 12  1  0
 11 12  1  0
 11 13  1  6
 12 14  1  6
 10 15  1  0
 10 16  2  0
 10 17  1  0
M  END
