5CMS_0_E_δ-6MEA_0_B_δ
     RDKit          3D

 10 11  0  0  0  0  0  0  0  0999 V2000
   -4.0230   15.5470    1.7320 N   0  0  0  0  0  0  0  0  0  0  0  0
   -2.8000   15.4610    0.9550 C   0  0  2  0  0  0  0  0  0  0  0  0
   -2.9540   14.7270   -0.3570 C   0  0  2  0  0  0  0  0  0  0  0  0
   -1.7560   14.8520    1.7450 N   0  0  0  0  0  0  0  0  0  0  0  0
   -1.6080   14.9770   -1.0000 C   0  0  2  0  0  0  0  0  0  0  0  0
   -3.8760   15.2070   -1.3840 N   0  0  0  0  0  0  0  0  0  0  0  0
   -0.4500   14.8220    1.0840 C   0  0  0  0  0  0  0  0  0  0  0  0
   -1.8320   14.4200   -2.3050 N   0  0  0  0  0  0  0  0  0  0  0  0
   -3.1890   14.8630   -2.6330 C   0  0  0  0  0  0  0  0  0  0  0  0
   -0.5290   14.3420   -0.2890 N   0  0  0  0  0  0  0  0  0  0  0  0
  2  1  1  1
  2  3  1  0
  2  4  1  0
  3  5  1  0
  3  6  1  6
  4  7  1  0
  5  8  1  6
  6  9  1  0
  8  9  1  0
  5 10  1  0
  7 10  1  0
M  END
