5CMS_0_O_α-1vhu_0_A_α
     RDKit          3D

 20 21  0  0  0  0  0  0  0  0999 V2000
   -0.7570   22.0170   -8.4330 C   0  0  1  0  0  0  0  0  0  0  0  0
   -1.7420   22.4240   -7.3500 C   0  0  0  0  0  0  0  0  0  0  0  0
   -3.2200   22.4770   -7.5740 N   0  0  0  0  0  0  0  0  0  0  0  0
   -0.1600   20.3620   -7.8820 S   0  0  0  0  0  0  0  0  0  0  0  0
   -1.4110   22.4320   -9.7600 C   0  0  2  0  0  0  0  0  0  0  0  0
   -0.3350   19.3080   -8.8710 O   0  0  0  0  0  0  0  0  0  0  0  0
   -0.9470   20.0560   -6.6890 O   0  0  0  0  0  0  0  0  0  0  0  0
    1.2400   20.6520   -7.5490 O   0  0  0  0  0  0  0  0  0  0  0  0
   -1.5570   21.5450  -10.8650 O   0  0  0  0  0  0  0  0  0  0  0  0
   -1.1610   23.8140  -10.3680 C   0  0  1  0  0  0  0  0  0  0  0  0
    0.0920   23.9270  -11.0650 O   0  0  0  0  0  0  0  0  0  0  0  0
   -2.5620   22.2800  -11.5570 C   0  0  2  0  0  0  0  0  0  0  0  0
   -2.2100   23.7880  -11.4570 C   0  0  1  0  0  0  0  0  0  0  0  0
   -3.5820   22.8450   -8.9520 C   0  0  0  0  0  0  0  0  0  0  0  0
   -3.7450   23.5280   -6.6800 C   0  0  0  0  0  0  0  0  0  0  0  0
   -3.8200   22.0690  -10.9560 O   0  0  0  0  0  0  0  0  0  0  0  0
   -3.3540   24.6130  -11.2280 O   0  0  0  0  0  0  0  0  0  0  0  0
   -5.0830   23.1120   -9.1180 C   0  0  0  0  0  0  0  0  0  0  0  0
   -5.2250   23.8100   -6.9180 C   0  0  0  0  0  0  0  0  0  0  0  0
   -5.4980   24.1760   -8.2680 O   0  0  0  0  0  0  0  0  0  0  0  0
  1  2  1  1
  2  3  1  0
  1  4  1  0
  1  5  1  0
  4  6  2  0
  4  7  2  0
  4  8  1  0
  5  9  1  6
  5 10  1  0
 10 11  1  6
  9 12  1  0
 10 13  1  0
 12 13  1  0
  3 14  1  0
  3 15  1  0
 12 16  1  1
 13 17  1  1
 14 18  1  0
 15 19  1  0
 18 20  1  0
 19 20  1  0
M  CHG  1   8  -1
M  END
