5cms_O_14_O_γ-5FUD_1_B_α
     RDKit          3D

 22 23  0  0  0  0  0  0  0  0999 V2000
   -0.7740   12.1820   -4.1180 O   0  0  0  0  0  0  0  0  0  0  0  0
   -0.9000   13.5870   -4.2190 C   0  0  1  0  0  0  0  0  0  0  0  0
   -0.5560   14.3210   -2.9310 C   0  0  0  0  0  0  0  0  0  0  0  0
    0.0980   14.1990   -5.1770 C   0  0  2  0  0  0  0  0  0  0  0  0
    1.4010   13.6370   -5.0310 O   0  0  0  0  0  0  0  0  0  0  0  0
   -0.0460   15.6060   -3.3110 O   0  0  0  0  0  0  0  0  0  0  0  0
   -0.0620   15.6600   -4.7480 C   0  0  1  0  0  0  0  0  0  0  0  0
    1.0160   16.6120   -5.2190 C   0  0  0  0  0  0  0  0  0  0  0  0
    0.5590   17.9350   -5.8300 C   0  0  0  0  0  0  0  0  0  0  0  0
   -0.9490   18.1460   -5.8130 C   0  0  0  0  0  0  0  0  0  0  0  0
   -1.2120   19.4480   -6.3080 O   0  0  0  0  0  0  0  0  0  0  0  0
   -0.7790   19.9170   -7.7870 S   0  0  0  0  0  0  0  0  0  0  0  0
    0.4960   20.8790   -7.7240 O   0  0  0  0  0  0  0  0  0  0  0  0
   -0.4400   18.6640   -8.7430 O   0  0  0  0  0  0  0  0  0  0  0  0
   -2.1210   20.9440   -8.3980 C   0  0  0  0  0  0  0  0  0  0  0  0
   -2.1230   22.3610   -7.8950 C   0  0  0  0  0  0  0  0  0  0  0  0
   -3.3620   23.0930   -8.2300 N   0  0  0  0  0  0  0  0  0  0  0  0
   -4.2980   22.3260   -9.0910 C   0  0  0  0  0  0  0  0  0  0  0  0
   -3.9920   23.5470   -6.9860 C   0  0  0  0  0  0  0  0  0  0  0  0
   -5.6020   23.0840   -9.3980 C   0  0  0  0  0  0  0  0  0  0  0  0
   -5.4830   23.7720   -7.1260 C   0  0  0  0  0  0  0  0  0  0  0  0
   -5.8680   24.1220   -8.4540 O   0  0  0  0  0  0  0  0  0  0  0  0
  2  1  1  1
  2  3  1  0
  2  4  1  0
  4  5  1  1
  3  6  1  0
  4  7  1  0
  6  7  1  0
  7  8  1  6
  8  9  1  0
  9 10  1  0
 10 11  1  0
 12 11  1  0
 12 13  1  0
 12 14  1  0
 12 15  1  0
 15 16  1  0
 16 17  1  0
 17 18  1  0
 17 19  1  0
 18 20  1  0
 19 21  1  0
 20 22  1  0
 21 22  1  0
M  END
