
     RDKit          3D

 36 39  0  0  0  0  0  0  0  0999 V2000
   -2.1210   17.8030   -6.5080 P   0  0  0  0  0  0  0  0  0  0  0  0
   -0.3140   19.3690   -8.1610 P   0  0  0  0  0  0  0  0  0  0  0  0
    0.0660   16.7140   -5.4960 C   0  0  0  0  0  0  0  0  0  0  0  0
   -0.9720   16.6870   -6.4620 O   0  0  0  0  0  0  0  0  0  0  0  0
    0.3780   15.4130   -4.7470 C   0  0  1  0  0  0  0  0  0  0  0  0
   -0.1130   15.5460   -3.4100 O   0  0  0  0  0  0  0  0  0  0  0  0
   -0.1730   14.0640   -5.2230 C   0  0  1  0  0  0  0  0  0  0  0  0
    0.7890   13.0260   -4.9250 O   0  0  0  0  0  0  0  0  0  0  0  0
   -1.3290   13.7300   -4.3300 C   0  0  1  0  0  0  0  0  0  0  0  0
   -1.5150   12.3100   -4.3600 O   0  0  0  0  0  0  0  0  0  0  0  0
   -0.7560   14.3140   -3.0220 C   0  0  2  0  0  0  0  0  0  0  0  0
   -3.1100   23.5550  -11.5090 C   0  0  1  0  0  0  0  0  0  0  0  0
   -1.2390   14.9280    2.1250 N   0  0  0  0  0  0  0  0  0  0  0  0
   -3.3230   17.3310   -7.3400 O   0  0  0  0  0  0  0  0  0  0  0  0
    0.9670   19.6830   -7.4100 O   0  0  0  0  0  0  0  0  0  0  0  0
   -4.2220   24.2510  -10.9260 O   0  0  0  0  0  0  0  0  0  0  0  0
   -0.1370   14.5820    1.3930 C   0  0  0  0  0  0  0  0  0  0  0  0
   -1.7820   24.2220  -11.0730 C   0  0  2  0  0  0  0  0  0  0  0  0
   -2.4520   18.2120   -5.0900 O   0  0  0  0  0  0  0  0  0  0  0  0
   -0.3370   18.1870   -9.0850 O   0  0  0  0  0  0  0  0  0  0  0  0
   -0.9630   24.6940  -12.1670 O   0  0  0  0  0  0  0  0  0  0  0  0
   -1.0840   23.1880  -10.1790 C   0  0  2  0  0  0  0  0  0  0  0  0
   -0.1320   14.4570    0.0340 N   0  0  0  0  0  0  0  0  0  0  0  0
   -1.5560   19.1540   -7.1900 O   0  0  0  0  0  0  0  0  0  0  0  0
    0.3380   23.0710  -10.4270 O   0  0  0  0  0  0  0  0  0  0  0  0
   -1.3050   14.6830   -0.6380 C   0  0  0  0  0  0  0  0  0  0  0  0
   -1.8980   21.8940  -10.4030 C   0  0  2  0  0  0  0  0  0  0  0  0
   -3.1490   22.2080  -11.0260 O   0  0  0  0  0  0  0  0  0  0  0  0
   -2.5310   15.0500    0.0900 C   0  0  0  0  0  0  0  0  0  0  0  0
   -2.0640   21.1240   -9.1110 C   0  0  0  0  0  0  0  0  0  0  0  0
   -0.7250   20.7620   -8.8620 O   0  0  0  0  0  0  0  0  0  0  0  0
   -2.4480   15.1700    1.5300 C   0  0  0  0  0  0  0  0  0  0  0  0
   -3.5960   15.5230    2.1370 N   0  0  0  0  0  0  0  0  0  0  0  0
   -3.5280   15.2160   -0.7790 N   0  0  0  0  0  0  0  0  0  0  0  0
   -3.0060   14.9760   -2.0020 C   0  0  0  0  0  0  0  0  0  0  0  0
   -1.6920   14.6490   -1.9130 N   0  0  0  0  0  0  0  0  0  0  0  0
  1  4  1  0
  1 14  1  0
  1 19  1  0
  1 24  1  0
  4  3  1  0
 24  2  1  0
  2 15  1  0
  2 20  1  0
  2 31  1  0
 31 30  1  0
  5  3  1  6
  5  6  1  0
  5  7  1  0
  6 11  1  0
  7  8  1  1
  7  9  1  0
 11  9  1  0
 11 36  1  1
  9 10  1  1
 36 26  1  0
 36 35  1  0
 12 16  1  1
 12 18  1  0
 12 28  1  0
 18 21  1  6
 18 22  1  0
 28 27  1  0
 13 17  1  0
 13 32  1  0
 17 23  1  0
 32 29  1  0
 32 33  1  0
 23 26  1  0
 22 25  1  6
 22 27  1  0
 27 30  1  1
 26 29  1  0
 29 34  1  0
 34 35  1  0
M  CHG  2  14  -1  15  -1
M  END
