5CMS_0_I_δ-5CB5_0_F_β
     RDKit          3D

 21 22  0  0  0  0  0  0  0  0999 V2000
   -3.9500   15.3260    1.7400 N   0  0  0  0  0  0  0  0  0  0  0  0
   -2.7850   15.4310    0.9440 C   0  0  2  0  0  0  0  0  0  0  0  0
   -2.7740   14.7470   -0.3550 C   0  0  2  0  0  0  0  0  0  0  0  0
   -1.6410   14.8700    1.6480 N   0  0  0  0  0  0  0  0  0  0  0  0
   -1.4820   15.2730   -1.0280 C   0  0  2  0  0  0  0  0  0  0  0  0
   -3.7540   15.1080   -1.3020 N   0  0  0  0  0  0  0  0  0  0  0  0
   -0.4030   14.9970    0.9670 C   0  0  0  0  0  0  0  0  0  0  0  0
   -1.7520   15.1830   -2.3920 N   0  0  0  0  0  0  0  0  0  0  0  0
   -3.0730   14.6700   -2.5460 C   0  0  0  0  0  0  0  0  0  0  0  0
   -0.4500   14.5020   -0.4190 N   0  0  0  0  0  0  0  0  0  0  0  0
   -1.3710   16.2400   -3.2570 C   0  0  0  0  0  0  0  0  0  0  0  0
   -1.3950   15.8100   -4.7400 C   0  0  0  0  0  0  0  0  0  0  0  0
   -0.7610   16.7460   -5.5240 O   0  0  0  0  0  0  0  0  0  0  0  0
   -1.5980   18.1730   -5.8500 P   0  0  0  0  0  0  0  0  0  0  0  0
   -1.5800   18.8830   -7.2290 O   0  0  0  0  0  0  0  0  0  0  0  0
   -2.7700   17.3410   -6.3860 O   0  0  0  0  0  0  0  0  0  0  0  0
   -2.3280   18.9380   -4.6590 O   0  0  0  0  0  0  0  0  0  0  0  0
   -0.3570   19.5080   -7.9270 P   0  0  0  0  0  0  0  0  0  0  0  0
   -1.1380   20.0620   -9.0640 O   0  0  0  0  0  0  0  0  0  0  0  0
    0.3830   18.5190   -9.0050 O   0  0  0  0  0  0  0  0  0  0  0  0
    0.4310   20.9410   -7.5740 O   0  0  0  0  0  0  0  0  0  0  0  0
  2  1  1  1
  2  3  1  0
  2  4  1  0
  3  5  1  0
  3  6  1  6
  4  7  1  0
  5  8  1  0
  6  9  1  0
  8  9  1  0
  5 10  1  6
  7 10  1  0
  8 11  1  0
 11 12  1  0
 12 13  1  0
 13 14  1  0
 14 15  1  0
 14 16  1  0
 14 17  1  0
 15 18  1  0
 18 19  1  0
 18 20  1  0
 18 21  1  0
M  CHG  2  16  -1  20  -1
M  END
