5CMS_0_E_γ-5CB5_0_C_α
     RDKit          3D

 21 22  0  0  0  0  0  0  0  0999 V2000
   -0.7120   12.0070   -4.2220 O   0  0  0  0  0  0  0  0  0  0  0  0
   -0.9580   13.3960   -4.3010 C   0  0  1  0  0  0  0  0  0  0  0  0
   -0.7290   14.1250   -2.9810 C   0  0  0  0  0  0  0  0  0  0  0  0
    0.0320   14.0870   -5.2140 C   0  0  2  0  0  0  0  0  0  0  0  0
    1.3290   13.5350   -4.9990 O   0  0  0  0  0  0  0  0  0  0  0  0
   -0.1630   15.4060   -3.3090 O   0  0  0  0  0  0  0  0  0  0  0  0
   -0.2310   15.5160   -4.7450 C   0  0  1  0  0  0  0  0  0  0  0  0
    0.6430   16.6850   -5.2130 C   0  0  0  0  0  0  0  0  0  0  0  0
   -0.1080   18.0200   -5.3700 C   0  0  0  0  0  0  0  0  0  0  0  0
    0.0490   18.7740   -6.7110 C   0  0  0  0  0  0  0  0  0  0  0  0
   -1.2120   19.5880   -7.0870 C   0  0  0  0  0  0  0  0  0  0  0  0
   -1.0450   20.6600   -8.1820 C   0  0  0  0  0  0  0  0  0  0  0  0
   -1.7840   21.9890   -7.8770 C   0  0  0  0  0  0  0  0  0  0  0  0
   -3.2080   22.1290   -8.4680 C   0  0  1  0  0  0  0  0  0  0  0  0
   -4.0410   21.2430   -7.7290 O   0  0  0  0  0  0  0  0  0  0  0  0
   -3.8530   23.5230   -8.3240 C   0  0  1  0  0  0  0  0  0  0  0  0
   -4.2610   24.1200   -9.5340 O   0  0  0  0  0  0  0  0  0  0  0  0
   -5.2840   21.8700   -7.3980 C   0  0  2  0  0  0  0  0  0  0  0  0
   -5.1070   23.3570   -7.4850 C   0  0  1  0  0  0  0  0  0  0  0  0
   -5.6600   21.5370   -6.0680 O   0  0  0  0  0  0  0  0  0  0  0  0
   -5.0890   23.9910   -6.2180 O   0  0  0  0  0  0  0  0  0  0  0  0
  2  1  1  1
  2  3  1  0
  2  4  1  0
  4  5  1  1
  3  6  1  0
  4  7  1  0
  6  7  1  0
  7  8  1  6
  8  9  1  0
  9 10  1  0
 10 11  1  0
 11 12  1  0
 12 13  1  0
 14 13  1  1
 14 15  1  0
 14 16  1  0
 16 17  1  6
 15 18  1  0
 16 19  1  0
 18 19  1  0
 18 20  1  1
 19 21  1  1
M  END
