5CMS_0_J_δ-mArh-x0282_0_A_α
     RDKit          3D

 17 19  0  0  0  0  0  0  0  0999 V2000
   -3.0350   14.0930    2.4960 N   0  0  0  0  0  0  0  0  0  0  0  0
   -3.2220   14.6670    0.6950 S   0  0  0  0  0  0  0  0  0  0  0  0
   -1.8920   14.6410   -0.4710 C   0  0  1  0  0  0  0  0  0  0  0  0
   -1.5850   15.5460    0.7720 N   0  0  0  0  0  0  0  0  0  0  0  0
   -4.2560   13.3400    0.2710 C   0  0  0  0  0  0  0  0  0  0  0  0
   -4.6980   15.4250   -0.1200 C   0  0  0  0  0  0  0  0  0  0  0  0
   -1.1920   13.5020   -0.7410 C   0  0  1  0  0  0  0  0  0  0  0  0
   -2.5520   15.1090   -1.7030 N   0  0  0  0  0  0  0  0  0  0  0  0
   -0.4440   14.8060    0.8840 C   0  0  0  0  0  0  0  0  0  0  0  0
   -5.4700   13.2940    1.1200 C   0  0  0  0  0  0  0  0  0  0  0  0
   -5.9870   15.1390    0.3410 C   0  0  0  0  0  0  0  0  0  0  0  0
   -1.3040   13.4220   -2.1540 N   0  0  0  0  0  0  0  0  0  0  0  0
   -2.6390   13.9150   -2.4340 C   0  0  0  0  0  0  0  0  0  0  0  0
    0.0910   14.0430   -0.2940 N   0  0  0  0  0  0  0  0  0  0  0  0
   -6.5230   13.7370    0.2050 C   0  0  0  0  0  0  0  0  0  0  0  0
   -7.8580   13.6410    0.8570 C   0  0  0  0  0  0  0  0  0  0  0  0
   -8.6880   14.5680    0.2220 O   0  0  0  0  0  0  0  0  0  0  0  0
  1  2  1  0
  2  3  1  0
  2  4  1  0
  2  5  1  0
  2  6  1  0
  3  7  1  0
  3  8  1  6
  4  9  1  0
  5 10  1  0
  6 11  1  0
  7 12  1  6
  8 13  1  0
 12 13  1  0
  7 14  1  0
  9 14  1  0
 10 15  1  0
 11 15  1  0
 15 16  1  0
 16 17  1  0
M  END
