5CMS_0_N_δ-5cb5_I_0_I_β
     RDKit          3D

 21 22  0  0  0  0  0  0  0  0999 V2000
   -3.8670   15.1460    1.2580 N   0  0  0  0  0  0  0  0  0  0  0  0
   -2.5390   15.2600    0.6890 C   0  0  2  0  0  0  0  0  0  0  0  0
   -2.4200   14.5300   -0.6420 C   0  0  2  0  0  0  0  0  0  0  0  0
   -1.5780   14.6650    1.6020 N   0  0  0  0  0  0  0  0  0  0  0  0
   -0.9930   14.8080   -1.0240 C   0  0  2  0  0  0  0  0  0  0  0  0
   -3.1820   15.0370   -1.8200 N   0  0  0  0  0  0  0  0  0  0  0  0
   -0.1830   14.6510    1.1160 C   0  0  0  0  0  0  0  0  0  0  0  0
   -0.9910   14.5710   -2.4250 N   0  0  0  0  0  0  0  0  0  0  0  0
   -2.0650   15.5000   -2.6360 C   0  0  1  0  0  0  0  0  0  0  0  0
   -0.0530   14.1150   -0.2270 N   0  0  0  0  0  0  0  0  0  0  0  0
   -2.3000   15.8930   -4.0580 C   0  0  0  0  0  0  0  0  0  0  0  0
   -1.2460   16.9560   -4.3170 C   0  0  0  0  0  0  0  0  0  0  0  0
   -1.8690   18.1420   -4.7390 O   0  0  0  0  0  0  0  0  0  0  0  0
   -1.6760   18.3300   -6.2780 P   0  0  1  0  0  0  0  0  0  0  0  0
   -1.2220   19.7620   -6.6610 O   0  0  0  0  0  0  0  0  0  0  0  0
   -0.2740   17.5760   -6.4150 O   0  0  0  0  0  0  0  0  0  0  0  0
   -2.6630   17.6640   -7.1100 O   0  0  0  0  0  0  0  0  0  0  0  0
   -0.3450   20.0880   -7.9040 P   0  0  0  0  0  0  0  0  0  0  0  0
   -1.3160   20.9680   -8.7900 O   0  0  0  0  0  0  0  0  0  0  0  0
    0.9500   20.7670   -7.6330 O   0  0  0  0  0  0  0  0  0  0  0  0
   -0.1710   18.7580   -8.7770 O   0  0  0  0  0  0  0  0  0  0  0  0
  2  1  1  1
  2  3  1  0
  2  4  1  0
  3  5  1  0
  3  6  1  6
  4  7  1  0
  5  8  1  6
  6  9  1  0
  8  9  1  0
  5 10  1  0
  7 10  1  0
  9 11  1  6
 11 12  1  0
 12 13  1  0
 13 14  1  0
 14 15  1  0
 14 16  1  6
 14 17  2  0
 15 18  1  0
 18 19  1  0
 18 20  2  0
 18 21  1  0
M  END
