5cms_Q_16_Q_α-5cms_C_2_C_γ
     RDKit          3D

 23 24  0  0  0  0  0  0  0  0999 V2000
   -1.8310   22.2890   -7.6450 C   0  0  0  0  0  0  0  0  0  0  0  0
   -1.6310   22.0770   -9.1280 C   0  0  1  0  0  0  0  0  0  0  0  0
   -2.9070   22.0110   -9.7530 O   0  0  0  0  0  0  0  0  0  0  0  0
   -0.8450   23.2180   -9.7770 C   0  0  1  0  0  0  0  0  0  0  0  0
    0.4830   22.7850  -10.0390 O   0  0  0  0  0  0  0  0  0  0  0  0
   -2.7110   22.4270  -11.0940 C   0  0  2  0  0  0  0  0  0  0  0  0
   -1.5070   23.3860  -11.1280 C   0  0  1  0  0  0  0  0  0  0  0  0
   -3.8970   23.0300  -11.5790 O   0  0  0  0  0  0  0  0  0  0  0  0
   -1.8970   24.7480  -11.3750 O   0  0  0  0  0  0  0  0  0  0  0  0
    1.3250   22.7270   -8.8940 C   0  0  0  0  0  0  0  0  0  0  0  0
    0.7920   21.7840   -7.7920 C   0  0  0  0  0  0  0  0  0  0  0  0
   -0.0380   20.5200   -8.1580 C   0  0  0  0  0  0  0  0  0  0  0  0
   -0.5610   19.6800   -6.9980 C   0  0  0  0  0  0  0  0  0  0  0  0
    0.5320   18.7340   -6.4620 C   0  0  0  0  0  0  0  0  0  0  0  0
    0.1650   17.9560   -5.2010 C   0  0  0  0  0  0  0  0  0  0  0  0
    0.7610   16.5520   -5.0540 C   0  0  0  0  0  0  0  0  0  0  0  0
   -0.1940   15.4260   -4.6860 C   0  0  2  0  0  0  0  0  0  0  0  0
   -0.5380   15.5040   -3.2880 O   0  0  0  0  0  0  0  0  0  0  0  0
    0.2610   13.9910   -4.8630 C   0  0  2  0  0  0  0  0  0  0  0  0
    0.3260   13.4920   -6.1790 O   0  0  0  0  0  0  0  0  0  0  0  0
   -0.9020   14.1810   -2.8630 C   0  0  0  0  0  0  0  0  0  0  0  0
   -0.8600   13.3230   -4.1180 C   0  0  2  0  0  0  0  0  0  0  0  0
   -0.5670   11.9530   -3.9250 O   0  0  0  0  0  0  0  0  0  0  0  0
  2  1  1  1
  2  3  1  0
  2  4  1  0
  4  5  1  6
  3  6  1  0
  4  7  1  0
  6  7  1  0
  6  8  1  1
  7  9  1  1
  5 10  1  0
 10 11  1  0
 11 12  1  0
 12 13  1  0
 13 14  1  0
 14 15  1  0
 15 16  1  0
 17 16  1  1
 17 18  1  0
 17 19  1  0
 19 20  1  6
 18 21  1  0
 19 22  1  0
 21 22  1  0
 22 23  1  1
M  END
