5cms_M_12_M_α-5CB5_0_C_β
     RDKit          3D

 17 17  0  0  0  0  0  0  0  0999 V2000
   -2.1770   21.1390   -7.9840 C   0  0  0  0  0  0  0  0  0  0  0  0
   -0.6130   20.3350   -8.1300 P   0  0  0  0  0  0  0  0  0  0  0  0
   -0.4430   19.6650   -6.7600 O   0  0  0  0  0  0  0  0  0  0  0  0
   -2.5410   21.9600   -9.2270 C   0  0  1  0  0  0  0  0  0  0  0  0
    0.7600   21.1320   -7.8350 O   0  0  0  0  0  0  0  0  0  0  0  0
   -0.4870   18.7380   -8.7060 O   0  0  0  0  0  0  0  0  0  0  0  0
   -3.5580   21.4470  -10.0160 O   0  0  0  0  0  0  0  0  0  0  0  0
   -3.0210   23.3720   -8.9600 C   0  0  1  0  0  0  0  0  0  0  0  0
   -1.9170   24.1740   -8.9070 O   0  0  0  0  0  0  0  0  0  0  0  0
   -1.4960   18.7300   -5.8990 P   0  0  0  0  0  0  0  0  0  0  0  0
   -4.1180   22.4160  -10.8280 C   0  0  2  0  0  0  0  0  0  0  0  0
   -3.9740   23.7120  -10.1490 C   0  0  2  0  0  0  0  0  0  0  0  0
   -5.4740   22.2890  -11.0680 O   0  0  0  0  0  0  0  0  0  0  0  0
   -3.5060   24.6880  -11.0630 O   0  0  0  0  0  0  0  0  0  0  0  0
   -1.3380   17.0610   -5.7950 O   0  0  0  0  0  0  0  0  0  0  0  0
   -2.4440   18.5310   -7.0800 O   0  0  0  0  0  0  0  0  0  0  0  0
   -2.4920   19.4800   -4.9160 O   0  0  0  0  0  0  0  0  0  0  0  0
  1  2  1  0
  2  3  1  0
  4  1  1  1
  2  5  1  0
  2  6  1  0
  4  7  1  0
  4  8  1  0
  8  9  1  6
  3 10  1  0
  7 11  1  0
  8 12  1  0
 11 12  1  0
 11 13  1  1
 12 14  1  6
 10 15  1  0
 10 16  1  0
 10 17  1  0
M  CHG  2   5  -1  16  -1
M  END
