5CMS_0_I_δ-4IQY_0_A_α
     RDKit          3D

 25 27  0  0  0  0  0  0  0  0999 V2000
   -4.0730   15.4870    1.5780 N   0  0  0  0  0  0  0  0  0  0  0  0
   -2.7710   15.4330    0.9190 C   0  0  2  0  0  0  0  0  0  0  0  0
   -2.8040   14.7280   -0.4340 C   0  0  2  0  0  0  0  0  0  0  0  0
   -1.8850   14.6900    1.7880 N   0  0  0  0  0  0  0  0  0  0  0  0
   -1.3650   14.7780   -0.8530 C   0  0  2  0  0  0  0  0  0  0  0  0
   -3.4380   15.4100   -1.5950 N   0  0  0  0  0  0  0  0  0  0  0  0
   -0.4990   14.5240    1.2800 C   0  0  0  0  0  0  0  0  0  0  0  0
   -1.4460   14.4560   -2.2480 N   0  0  0  0  0  0  0  0  0  0  0  0
   -2.3040   15.5920   -2.5220 C   0  0  1  0  0  0  0  0  0  0  0  0
   -0.4550   14.0410   -0.0760 N   0  0  0  0  0  0  0  0  0  0  0  0
   -2.6410   15.8250   -4.0030 C   0  0  0  0  0  0  0  0  0  0  0  0
   -1.7750   16.9480   -4.6330 C   0  0  0  0  0  0  0  0  0  0  0  0
   -2.2180   17.5740   -5.9640 C   0  0  0  0  0  0  0  0  0  0  0  0
   -1.9720   19.0760   -6.1040 C   0  0  0  0  0  0  0  0  0  0  0  0
   -0.9690   19.3580   -7.2370 C   0  0  0  0  0  0  0  0  0  0  0  0
   -0.7460   20.8130   -7.6370 C   0  0  0  0  0  0  0  0  0  0  0  0
   -1.8320   21.5250   -8.4300 C   0  0  0  0  0  0  0  0  0  0  0  0
   -2.9880   22.0430   -7.6020 C   0  0  2  0  0  0  0  0  0  0  0  0
   -4.0180   21.1100   -7.3950 O   0  0  0  0  0  0  0  0  0  0  0  0
   -3.7650   23.2750   -8.0500 C   0  0  1  0  0  0  0  0  0  0  0  0
   -4.4540   23.2430   -9.2920 O   0  0  0  0  0  0  0  0  0  0  0  0
   -5.0480   21.8340   -6.7330 C   0  0  1  0  0  0  0  0  0  0  0  0
   -4.6580   23.3170   -6.8140 C   0  0  2  0  0  0  0  0  0  0  0  0
   -6.2840   21.6180   -7.3860 O   0  0  0  0  0  0  0  0  0  0  0  0
   -5.8460   24.1040   -6.9540 O   0  0  0  0  0  0  0  0  0  0  0  0
  2  1  1  1
  2  3  1  0
  2  4  1  0
  3  5  1  0
  3  6  1  6
  4  7  1  0
  5  8  1  6
  6  9  1  0
  8  9  1  0
  5 10  1  0
  7 10  1  0
  9 11  1  6
 11 12  1  0
 12 13  1  0
 13 14  1  0
 14 15  1  0
 15 16  1  0
 16 17  1  0
 18 17  1  6
 18 19  1  0
 18 20  1  0
 20 21  1  6
 19 22  1  0
 20 23  1  0
 22 23  1  0
 22 24  1  6
 23 25  1  6
M  END
