5cms_L_11_L_β-5CB5_0_J_δ
     RDKit          3D

 21 22  0  0  0  0  0  0  0  0999 V2000
   -1.2600   20.5050   -8.7460 O   0  0  0  0  0  0  0  0  0  0  0  0
   -0.3430   19.6910   -7.7410 P   0  0  0  0  0  0  0  0  0  0  0  0
   -1.2300   19.4390   -6.4440 O   0  0  0  0  0  0  0  0  0  0  0  0
    0.9430   20.3860   -7.5110 O   0  0  0  0  0  0  0  0  0  0  0  0
   -0.2080   18.3410   -8.5770 O   0  0  0  0  0  0  0  0  0  0  0  0
   -1.7210   18.0010   -6.0300 P   0  0  2  0  0  0  0  0  0  0  0  0
   -0.3710   17.1690   -6.1430 O   0  0  0  0  0  0  0  0  0  0  0  0
   -2.8100   17.4630   -6.8700 O   0  0  0  0  0  0  0  0  0  0  0  0
   -1.9280   17.9220   -4.4610 O   0  0  0  0  0  0  0  0  0  0  0  0
   -1.6100   16.6590   -3.8890 C   0  0  0  0  0  0  0  0  0  0  0  0
   -2.8160   15.7190   -3.8980 C   0  0  0  0  0  0  0  0  0  0  0  0
   -2.9850   14.7630   -2.7110 C   0  0  1  0  0  0  0  0  0  0  0  0
   -1.6860   14.2910   -2.2240 N   0  0  0  0  0  0  0  0  0  0  0  0
   -3.7320   15.2860   -1.5460 N   0  0  0  0  0  0  0  0  0  0  0  0
   -1.5640   14.9730   -0.9710 C   0  0  1  0  0  0  0  0  0  0  0  0
   -2.9490   14.7690   -0.4180 C   0  0  1  0  0  0  0  0  0  0  0  0
   -0.5280   14.3790   -0.1880 N   0  0  0  0  0  0  0  0  0  0  0  0
   -2.9370   15.5150    0.9020 C   0  0  1  0  0  0  0  0  0  0  0  0
   -4.1850   15.4390    1.6530 N   0  0  0  0  0  0  0  0  0  0  0  0
   -0.5510   15.0010    1.1150 C   0  0  0  0  0  0  0  0  0  0  0  0
   -1.8860   14.9780    1.7240 N   0  0  0  0  0  0  0  0  0  0  0  0
  1  2  1  0
  2  3  1  0
  2  4  2  0
  2  5  1  0
  3  6  1  0
  6  7  1  1
  6  8  2  0
  6  9  1  0
  9 10  1  0
 10 11  1  0
 12 11  1  6
 12 13  1  0
 12 14  1  0
 15 13  1  6
 16 14  1  6
 15 16  1  0
 15 17  1  0
 16 18  1  0
 18 19  1  1
 17 20  1  0
 18 21  1  0
 20 21  1  0
M  END
