5CMS_0_R_γ-5cms_J_9_J_α
     RDKit          3D

 21 22  0  0  0  0  0  0  0  0999 V2000
    0.5440   12.5120   -3.7500 O   0  0  0  0  0  0  0  0  0  0  0  0
   -0.0440   13.7380   -4.1570 C   0  0  1  0  0  0  0  0  0  0  0  0
   -0.4330   14.6460   -3.0280 C   0  0  0  0  0  0  0  0  0  0  0  0
    0.9120   14.6800   -4.8670 C   0  0  1  0  0  0  0  0  0  0  0  0
    1.2530   14.0390   -6.0770 O   0  0  0  0  0  0  0  0  0  0  0  0
   -0.7250   15.8820   -3.6940 O   0  0  0  0  0  0  0  0  0  0  0  0
    0.0380   15.9620   -4.9220 C   0  0  1  0  0  0  0  0  0  0  0  0
    0.6310   17.3920   -4.8720 C   0  0  0  0  0  0  0  0  0  0  0  0
    0.8070   18.2580   -6.1460 C   0  0  0  0  0  0  0  0  0  0  0  0
   -0.4500   18.9710   -6.7200 C   0  0  0  0  0  0  0  0  0  0  0  0
   -0.1940   19.8230   -8.0070 C   0  0  0  0  0  0  0  0  0  0  0  0
    0.2870   21.2930   -7.8020 C   0  0  0  0  0  0  0  0  0  0  0  0
    0.2790   22.2900   -9.0070 C   0  0  0  0  0  0  0  0  0  0  0  0
   -1.1420   22.5540   -9.5350 C   0  0  2  0  0  0  0  0  0  0  0  0
   -1.5620   21.6250  -10.5210 O   0  0  0  0  0  0  0  0  0  0  0  0
   -1.5140   23.8720  -10.2200 C   0  0  1  0  0  0  0  0  0  0  0  0
   -0.8430   24.2310  -11.4190 O   0  0  0  0  0  0  0  0  0  0  0  0
   -2.9170   22.0380  -10.6510 C   0  0  2  0  0  0  0  0  0  0  0  0
   -2.9690   23.5640  -10.5640 C   0  0  1  0  0  0  0  0  0  0  0  0
   -3.6460   21.5490   -9.5420 O   0  0  0  0  0  0  0  0  0  0  0  0
   -3.9530   23.9870   -9.6180 O   0  0  0  0  0  0  0  0  0  0  0  0
  2  1  1  1
  2  3  1  0
  2  4  1  0
  4  5  1  6
  3  6  1  0
  4  7  1  0
  6  7  1  0
  7  8  1  1
  8  9  1  0
  9 10  1  0
 10 11  1  0
 11 12  1  0
 12 13  1  0
 14 13  1  6
 14 15  1  0
 14 16  1  0
 16 17  1  6
 15 18  1  0
 16 19  1  0
 18 19  1  0
 18 20  1  1
 19 21  1  1
M  END
