5CMS_0_D_β-6FX7_0_A_α
     RDKit          3D

 21 22  0  0  0  0  0  0  0  0999 V2000
   -0.6880   12.3600   -4.0810 O   0  0  0  0  0  0  0  0  0  0  0  0
   -0.8970   13.7570   -4.1150 C   0  0  1  0  0  0  0  0  0  0  0  0
   -0.4470   14.4910   -2.8520 C   0  0  0  0  0  0  0  0  0  0  0  0
   -0.0380   14.4280   -5.1640 C   0  0  2  0  0  0  0  0  0  0  0  0
    1.2840   13.8910   -5.1250 O   0  0  0  0  0  0  0  0  0  0  0  0
    0.0950   15.7590   -3.2860 O   0  0  0  0  0  0  0  0  0  0  0  0
   -0.2420   15.8600   -4.6830 C   0  0  1  0  0  0  0  0  0  0  0  0
    0.4800   17.0450   -5.3500 C   0  0  0  0  0  0  0  0  0  0  0  0
   -0.4740   18.1210   -5.9140 C   0  0  0  0  0  0  0  0  0  0  0  0
    0.0260   19.0060   -7.0780 C   0  0  0  0  0  0  0  0  0  0  0  0
   -1.1090   19.8600   -7.6890 C   0  0  0  0  0  0  0  0  0  0  0  0
   -0.8830   21.3820   -7.7820 C   0  0  0  0  0  0  0  0  0  0  0  0
   -2.1340   22.2750   -7.5890 C   0  0  0  0  0  0  0  0  0  0  0  0
   -3.2370   22.0550   -8.6380 C   0  0  2  0  0  0  0  0  0  0  0  0
   -3.5080   23.2310   -9.4000 O   0  0  0  0  0  0  0  0  0  0  0  0
   -4.6480   21.6980   -8.1320 C   0  0  1  0  0  0  0  0  0  0  0  0
   -4.9660   22.1940   -6.8470 O   0  0  0  0  0  0  0  0  0  0  0  0
   -4.5370   22.7170  -10.2340 C   0  0  1  0  0  0  0  0  0  0  0  0
   -5.5640   22.2820   -9.2180 C   0  0  2  0  0  0  0  0  0  0  0  0
   -5.0320   23.6910  -11.1340 O   0  0  0  0  0  0  0  0  0  0  0  0
   -6.3350   23.3740   -8.7380 O   0  0  0  0  0  0  0  0  0  0  0  0
  2  1  1  1
  2  3  1  0
  2  4  1  0
  4  5  1  1
  3  6  1  0
  4  7  1  0
  6  7  1  0
  7  8  1  6
  8  9  1  0
  9 10  1  0
 10 11  1  0
 11 12  1  0
 12 13  1  0
 14 13  1  1
 14 15  1  0
 14 16  1  0
 16 17  1  1
 15 18  1  0
 16 19  1  0
 18 19  1  0
 18 20  1  6
 19 21  1  1
M  END
