5CMS_0_O_β-6WOJ_0_B_γ
     RDKit          3D

 18 18  0  0  0  0  0  0  0  0999 V2000
   -1.7010   20.8610   -8.5670 O   0  0  0  0  0  0  0  0  0  0  0  0
   -0.7460   19.7010   -7.8650 P   0  0  0  0  0  0  0  0  0  0  0  0
   -0.8950   19.4560   -6.2900 O   0  0  0  0  0  0  0  0  0  0  0  0
    0.2000   18.7450   -8.7780 O   0  0  0  0  0  0  0  0  0  0  0  0
    0.4000   20.6230   -7.7380 O   0  0  0  0  0  0  0  0  0  0  0  0
   -1.8840   18.2360   -5.8940 P   0  0  0  0  0  0  0  0  0  0  0  0
   -0.7490   17.2350   -5.9570 O   0  0  0  0  0  0  0  0  0  0  0  0
   -2.6220   17.3120   -7.0860 O   0  0  0  0  0  0  0  0  0  0  0  0
   -2.2770   17.8400   -4.4520 O   0  0  0  0  0  0  0  0  0  0  0  0
    0.4970   17.6740   -5.5460 C   0  0  0  0  0  0  0  0  0  0  0  0
    1.0940   16.5640   -4.8090 C   0  0  0  0  0  0  0  0  0  0  0  0
    0.1520   15.5170   -4.4040 C   0  0  2  0  0  0  0  0  0  0  0  0
    0.3130   15.1650   -3.0650 O   0  0  0  0  0  0  0  0  0  0  0  0
    0.2860   14.2040   -5.0670 C   0  0  1  0  0  0  0  0  0  0  0  0
    1.5280   13.6260   -4.8150 O   0  0  0  0  0  0  0  0  0  0  0  0
   -0.4030   13.9970   -2.9000 C   0  0  0  0  0  0  0  0  0  0  0  0
   -0.7650   13.5030   -4.2770 C   0  0  2  0  0  0  0  0  0  0  0  0
   -0.5770   12.1270   -4.4550 O   0  0  0  0  0  0  0  0  0  0  0  0
  1  2  1  0
  2  3  1  0
  2  4  1  0
  2  5  1  0
  3  6  1  0
  6  7  1  0
  6  8  1  0
  6  9  1  0
  7 10  1  0
 10 11  1  0
 12 11  1  6
 12 13  1  0
 12 14  1  0
 14 15  1  1
 13 16  1  0
 14 17  1  0
 16 17  1  0
 17 18  1  1
M  CHG  2   4  -1   8  -1
M  END
