5cms_I_8_I_α-3VFQ_0_A_α
     RDKit          3D

 17 18  0  0  0  0  0  0  0  0999 V2000
   -2.0160   21.4460   -8.3640 C   0  0  0  0  0  0  0  0  0  0  0  0
   -2.9610   21.9050   -9.4700 C   0  0  1  0  0  0  0  0  0  0  0  0
   -4.3660   21.6310   -9.3280 O   0  0  0  0  0  0  0  0  0  0  0  0
   -3.1200   23.3660   -9.5100 C   0  0  1  0  0  0  0  0  0  0  0  0
   -1.9330   24.0780   -9.3580 O   0  0  0  0  0  0  0  0  0  0  0  0
   -5.0700   22.7180  -10.0340 C   0  0  2  0  0  0  0  0  0  0  0  0
   -3.9990   23.3930  -10.7690 C   0  0  2  0  0  0  0  0  0  0  0  0
   -5.5670   23.6790   -9.1460 O   0  0  0  0  0  0  0  0  0  0  0  0
   -3.7920   22.5040  -11.8620 O   0  0  0  0  0  0  0  0  0  0  0  0
   -5.7510   22.9170   -8.0170 C   0  0  2  0  0  0  0  0  0  0  0  0
   -4.4520   22.5800   -7.4590 O   0  0  0  0  0  0  0  0  0  0  0  0
   -6.3080   21.5770   -8.4830 C   0  0  2  0  0  0  0  0  0  0  0  0
   -7.7210   21.4120   -8.7260 O   0  0  0  0  0  0  0  0  0  0  0  0
   -4.4210   21.1490   -7.3930 C   0  0  2  0  0  0  0  0  0  0  0  0
   -5.8720   20.8670   -7.2600 C   0  0  1  0  0  0  0  0  0  0  0  0
   -3.5720   20.6640   -6.2500 C   0  0  0  0  0  0  0  0  0  0  0  0
   -6.2930   21.4430   -6.0730 O   0  0  0  0  0  0  0  0  0  0  0  0
  2  1  1  1
  2  3  1  0
  2  4  1  0
  4  5  1  6
  3  6  1  0
  4  7  1  0
  6  7  1  0
  6  8  1  1
  7  9  1  6
 10  8  1  6
 10 11  1  0
 10 12  1  0
 12 13  1  1
 11 14  1  0
 12 15  1  0
 14 15  1  0
 14 16  1  1
 15 17  1  1
M  END
