5CMS_0_Q_γ-mArh-5cb5_A_0_A_α
     RDKit          3D

 21 22  0  0  0  0  0  0  0  0999 V2000
   -0.8320   12.0670   -4.2370 O   0  0  0  0  0  0  0  0  0  0  0  0
   -1.0600   13.4600   -4.2400 C   0  0  1  0  0  0  0  0  0  0  0  0
   -0.6990   14.1720   -2.9300 C   0  0  0  0  0  0  0  0  0  0  0  0
   -0.1370   14.1580   -5.2000 C   0  0  2  0  0  0  0  0  0  0  0  0
    1.1900   13.6690   -5.0100 O   0  0  0  0  0  0  0  0  0  0  0  0
   -0.1780   15.4670   -3.3080 O   0  0  0  0  0  0  0  0  0  0  0  0
   -0.4670   15.5600   -4.7120 C   0  0  1  0  0  0  0  0  0  0  0  0
    0.1590   16.7910   -5.3600 C   0  0  0  0  0  0  0  0  0  0  0  0
   -0.8440   17.6030   -6.2090 C   0  0  0  0  0  0  0  0  0  0  0  0
   -1.2480   18.9520   -5.6560 C   0  0  0  0  0  0  0  0  0  0  0  0
   -2.1230   19.7730   -6.6210 C   0  0  0  0  0  0  0  0  0  0  0  0
   -1.3300   20.4880   -7.7310 C   0  0  0  0  0  0  0  0  0  0  0  0
   -2.0690   21.5900   -8.5210 C   0  0  0  0  0  0  0  0  0  0  0  0
   -3.3590   22.1570   -7.9090 C   0  0  2  0  0  0  0  0  0  0  0  0
   -4.4370   21.3110   -8.2330 O   0  0  0  0  0  0  0  0  0  0  0  0
   -3.9180   23.4720   -8.4570 C   0  0  1  0  0  0  0  0  0  0  0  0
   -3.9820   23.5750   -9.8650 O   0  0  0  0  0  0  0  0  0  0  0  0
   -5.6010   21.9710   -7.7300 C   0  0  2  0  0  0  0  0  0  0  0  0
   -5.3440   23.4650   -7.9040 C   0  0  1  0  0  0  0  0  0  0  0  0
   -5.8030   21.6710   -6.3480 O   0  0  0  0  0  0  0  0  0  0  0  0
   -5.5050   24.2020   -6.6980 O   0  0  0  0  0  0  0  0  0  0  0  0
  2  1  1  1
  2  3  1  0
  2  4  1  0
  4  5  1  1
  3  6  1  0
  4  7  1  0
  6  7  1  0
  7  8  1  6
  8  9  1  0
  9 10  1  0
 10 11  1  0
 11 12  1  0
 12 13  1  0
 14 13  1  6
 14 15  1  0
 14 16  1  0
 16 17  1  6
 15 18  1  0
 16 19  1  0
 18 19  1  0
 18 20  1  1
 19 21  1  1
M  END
