5CMS_0_G_β-x0592_0_A_α
     RDKit          3D

 20 21  0  0  0  0  0  0  0  0999 V2000
   -1.2130   12.8150   -4.0230 O   0  0  0  0  0  0  0  0  0  0  0  0
   -0.9900   14.2070   -3.8420 C   0  0  1  0  0  0  0  0  0  0  0  0
   -0.1610   14.5390   -2.5990 C   0  0  2  0  0  0  0  0  0  0  0  0
   -0.0050   14.6050   -4.9260 C   0  0  2  0  0  0  0  0  0  0  0  0
    0.8300   13.5010   -5.2700 O   0  0  0  0  0  0  0  0  0  0  0  0
   -0.8840   14.6370   -1.2200 C   0  0  0  0  0  0  0  0  0  0  0  0
    0.3850   15.8400   -2.9390 O   0  0  0  0  0  0  0  0  0  0  0  0
    0.7220   15.8160   -4.3390 C   0  0  2  0  0  0  0  0  0  0  0  0
    0.3960   17.1590   -4.9850 C   0  0  0  0  0  0  0  0  0  0  0  0
   -2.3560   14.6760   -1.3330 N   0  0  0  0  0  0  0  0  0  0  0  0
   -3.1540   14.7800   -0.3130 C   0  0  0  0  0  0  0  0  0  0  0  0
   -2.6630   14.8650    0.9600 N   0  0  0  0  0  0  0  0  0  0  0  0
   -4.6040   14.8160   -0.3660 C   0  0  0  0  0  0  0  0  0  0  0  0
   -5.4530   15.1470   -1.4520 C   0  0  0  0  0  0  0  0  0  0  0  0
   -5.4970   14.5290    0.6550 C   0  0  0  0  0  0  0  0  0  0  0  0
   -6.7530   15.0730   -1.1460 N   0  0  0  0  0  0  0  0  0  0  0  0
   -6.7560   14.6960    0.1440 N   0  0  0  0  0  0  0  0  0  0  0  0
   -8.0190   14.5120    0.8400 C   0  0  0  0  0  0  0  0  0  0  0  0
   -7.8230   14.0680    2.2850 C   0  0  0  0  0  0  0  0  0  0  0  0
   -7.0920   15.0340    3.0360 O   0  0  0  0  0  0  0  0  0  0  0  0
  2  1  1  6
  2  3  1  0
  2  4  1  0
  4  5  1  1
  3  6  1  1
  3  7  1  0
  4  8  1  0
  7  8  1  0
  8  9  1  6
  6 10  1  0
 10 11  2  3
 11 12  1  0
 11 13  1  0
 13 14  1  0
 13 15  2  0
 14 16  2  0
 15 17  1  0
 16 17  1  0
 17 18  1  0
 18 19  1  0
 19 20  1  0
M  END
