5cms_A_0_A_α-6woj_D_0_D_γ
     RDKit          3D

 24 25  0  0  0  0  0  0  0  0999 V2000
   -1.9920   21.2320   -9.1620 C   0  0  0  0  0  0  0  0  0  0  0  0
   -3.2570   21.9580   -9.5130 C   0  0  2  0  0  0  0  0  0  0  0  0
   -3.5780   21.8860  -10.8910 O   0  0  0  0  0  0  0  0  0  0  0  0
   -3.1100   23.4210   -9.2080 C   0  0  1  0  0  0  0  0  0  0  0  0
   -1.7270   23.6240   -9.0720 O   0  0  0  0  0  0  0  0  0  0  0  0
   -4.5330   22.9000  -11.0390 C   0  0  2  0  0  0  0  0  0  0  0  0
   -3.9580   24.0910  -10.3230 C   0  0  2  0  0  0  0  0  0  0  0  0
   -5.7100   22.5460  -10.3330 O   0  0  0  0  0  0  0  0  0  0  0  0
   -3.3890   25.0480  -11.2280 O   0  0  0  0  0  0  0  0  0  0  0  0
   -1.3880   23.0050   -7.8250 C   0  0  0  0  0  0  0  0  0  0  0  0
    0.0230   22.4160   -7.7550 C   0  0  0  0  0  0  0  0  0  0  0  0
    0.1420   20.8770   -7.9030 C   0  0  0  0  0  0  0  0  0  0  0  0
   -1.1240   20.0040   -7.8320 C   0  0  0  0  0  0  0  0  0  0  0  0
   -1.4820   19.4210   -6.4590 C   0  0  0  0  0  0  0  0  0  0  0  0
   -1.0900   17.9480   -6.3480 C   0  0  0  0  0  0  0  0  0  0  0  0
   -0.6420   17.5120   -4.9510 C   0  0  0  0  0  0  0  0  0  0  0  0
    0.7990   16.9960   -4.9640 C   0  0  0  0  0  0  0  0  0  0  0  0
    1.0630   15.6660   -4.2260 C   0  0  1  0  0  0  0  0  0  0  0  0
    0.3320   15.6690   -2.9840 O   0  0  0  0  0  0  0  0  0  0  0  0
    0.6990   14.3640   -4.9740 C   0  0  1  0  0  0  0  0  0  0  0  0
    1.8430   13.5500   -5.2000 O   0  0  0  0  0  0  0  0  0  0  0  0
   -0.7470   14.7410   -3.1120 C   0  0  0  0  0  0  0  0  0  0  0  0
   -0.2750   13.6480   -4.0450 C   0  0  1  0  0  0  0  0  0  0  0  0
   -1.3220   12.9980   -4.7440 O   0  0  0  0  0  0  0  0  0  0  0  0
  2  1  1  6
  2  3  1  0
  2  4  1  0
  4  5  1  6
  3  6  1  0
  4  7  1  0
  6  7  1  0
  6  8  1  1
  7  9  1  6
  5 10  1  0
 10 11  1  0
 11 12  1  0
 12 13  1  0
 13 14  1  0
 14 15  1  0
 15 16  1  0
 16 17  1  0
 18 17  1  6
 18 19  1  0
 18 20  1  0
 20 21  1  1
 19 22  1  0
 20 23  1  0
 22 23  1  0
 23 24  1  6
M  END
