5CMS_0_N_γ-mArh-5cms_R_17_R_β
     RDKit          3D

 16 16  0  0  0  0  0  0  0  0999 V2000
    0.9330   12.4790   -4.3150 O   0  0  0  0  0  0  0  0  0  0  0  0
    0.0620   13.5790   -4.1030 C   0  0  1  0  0  0  0  0  0  0  0  0
    0.6280   14.5600   -3.0730 C   0  0  0  0  0  0  0  0  0  0  0  0
   -0.0970   14.4200   -5.3550 C   0  0  2  0  0  0  0  0  0  0  0  0
    1.1080   14.2180   -6.0860 O   0  0  0  0  0  0  0  0  0  0  0  0
    0.6640   15.8680   -3.6630 O   0  0  0  0  0  0  0  0  0  0  0  0
   -0.2650   15.8250   -4.7470 C   0  0  1  0  0  0  0  0  0  0  0  0
   -0.0260   17.0730   -5.5870 C   0  0  0  0  0  0  0  0  0  0  0  0
   -1.5340   17.9820   -5.9720 P   0  0  1  0  0  0  0  0  0  0  0  0
   -1.1590   19.3590   -6.6080 O   0  0  0  0  0  0  0  0  0  0  0  0
   -2.5790   17.2340   -6.7310 O   0  0  0  0  0  0  0  0  0  0  0  0
   -2.0180   18.4420   -4.5410 O   0  0  0  0  0  0  0  0  0  0  0  0
   -0.2820   19.7980   -7.8080 P   0  0  0  0  0  0  0  0  0  0  0  0
   -1.3640   20.5970   -8.6370 O   0  0  0  0  0  0  0  0  0  0  0  0
    0.9730   20.5300   -7.5490 O   0  0  0  0  0  0  0  0  0  0  0  0
   -0.1240   18.5390   -8.7710 O   0  0  0  0  0  0  0  0  0  0  0  0
  2  1  1  6
  2  3  1  0
  2  4  1  0
  4  5  1  6
  3  6  1  0
  4  7  1  0
  6  7  1  0
  7  8  1  6
  8  9  1  0
  9 10  1  0
  9 11  2  0
  9 12  1  1
 10 13  1  0
 13 14  1  0
 13 15  2  0
 13 16  1  0
M  END
