5cms_O_14_O_β-2BFQ_1_A_α
     RDKit          3D

 17 17  0  0  0  0  0  0  0  0999 V2000
   -1.6290   21.5680   -8.2550 O   0  0  0  0  0  0  0  0  0  0  0  0
   -0.8250   20.2400   -7.7260 P   0  0  2  0  0  0  0  0  0  0  0  0
   -1.5190   19.7120   -6.3920 O   0  0  0  0  0  0  0  0  0  0  0  0
   -3.0480   21.9120   -8.2310 C   0  0  1  0  0  0  0  0  0  0  0  0
    0.6450   20.4530   -7.5330 O   0  0  0  0  0  0  0  0  0  0  0  0
   -1.0170   19.0050   -8.7260 O   0  0  0  0  0  0  0  0  0  0  0  0
   -3.8610   21.1630   -7.3080 O   0  0  0  0  0  0  0  0  0  0  0  0
   -3.3980   23.4140   -7.8890 C   0  0  1  0  0  0  0  0  0  0  0  0
   -1.7580   18.1550   -6.1530 P   0  0  0  0  0  0  0  0  0  0  0  0
   -4.1750   24.0500   -8.9300 O   0  0  0  0  0  0  0  0  0  0  0  0
   -4.9650   22.0420   -7.1070 C   0  0  2  0  0  0  0  0  0  0  0  0
   -4.2480   23.2740   -6.6240 C   0  0  2  0  0  0  0  0  0  0  0  0
   -0.3340   17.4760   -6.0000 O   0  0  0  0  0  0  0  0  0  0  0  0
   -2.6850   17.4520   -7.0440 O   0  0  0  0  0  0  0  0  0  0  0  0
   -2.2270   18.0530   -4.6520 O   0  0  0  0  0  0  0  0  0  0  0  0
   -5.9120   21.6140   -6.1440 O   0  0  0  0  0  0  0  0  0  0  0  0
   -5.1950   24.3280   -6.3680 O   0  0  0  0  0  0  0  0  0  0  0  0
  1  2  1  0
  2  3  1  0
  4  1  1  1
  2  5  2  0
  2  6  1  6
  4  7  1  0
  4  8  1  0
  3  9  1  0
  8 10  1  6
  7 11  1  0
  8 12  1  0
 11 12  1  0
  9 13  1  0
  9 14  2  0
  9 15  1  0
 11 16  1  1
 12 17  1  6
M  END
