
     RDKit          3D

 36 39  0  0  0  0  0  0  0  0999 V2000
   -2.2440   17.9050   -6.2280 P   0  0  0  0  0  0  0  0  0  0  0  0
   -0.3400   19.0120   -8.1270 P   0  0  0  0  0  0  0  0  0  0  0  0
    0.1260   16.9970   -5.8040 C   0  0  0  0  0  0  0  0  0  0  0  0
   -1.2460   16.7060   -5.9270 O   0  0  0  0  0  0  0  0  0  0  0  0
    0.7130   15.7910   -5.1410 C   0  0  1  0  0  0  0  0  0  0  0  0
    0.3470   15.8980   -3.7810 O   0  0  0  0  0  0  0  0  0  0  0  0
    0.1760   14.4800   -5.7030 C   0  0  1  0  0  0  0  0  0  0  0  0
    1.1800   13.7990   -6.4580 O   0  0  0  0  0  0  0  0  0  0  0  0
   -0.2480   13.7160   -4.4640 C   0  0  1  0  0  0  0  0  0  0  0  0
    0.4640   12.4810   -4.3330 O   0  0  0  0  0  0  0  0  0  0  0  0
    0.0870   14.6130   -3.2740 C   0  0  2  0  0  0  0  0  0  0  0  0
   -3.9060   22.7510  -10.0890 C   0  0  1  0  0  0  0  0  0  0  0  0
   -1.1330   15.0900    1.8080 N   0  0  0  0  0  0  0  0  0  0  0  0
   -3.2510   17.4830   -7.2910 O   0  0  0  0  0  0  0  0  0  0  0  0
    0.9320   19.6860   -7.7070 O   0  0  0  0  0  0  0  0  0  0  0  0
   -4.4070   22.8900   -8.7550 O   0  0  0  0  0  0  0  0  0  0  0  0
    0.0680   14.8940    1.2160 C   0  0  0  0  0  0  0  0  0  0  0  0
   -2.9220   23.8790  -10.4310 C   0  0  2  0  0  0  0  0  0  0  0  0
   -2.7350   18.3620   -4.8880 O   0  0  0  0  0  0  0  0  0  0  0  0
   -0.3600   17.7040   -8.8730 O   0  0  0  0  0  0  0  0  0  0  0  0
   -3.2620   24.5060  -11.6700 O   0  0  0  0  0  0  0  0  0  0  0  0
   -1.4990   23.3150  -10.4580 C   0  0  2  0  0  0  0  0  0  0  0  0
    0.2220   14.7910   -0.1300 N   0  0  0  0  0  0  0  0  0  0  0  0
   -1.2670   19.0550   -6.8040 O   0  0  0  0  0  0  0  0  0  0  0  0
   -0.7440   23.5230  -11.6820 O   0  0  0  0  0  0  0  0  0  0  0  0
   -0.8480   14.8880   -0.9870 C   0  0  0  0  0  0  0  0  0  0  0  0
   -1.7440   21.8440  -10.1720 C   0  0  2  0  0  0  0  0  0  0  0  0
   -3.1580   21.5450  -10.1790 O   0  0  0  0  0  0  0  0  0  0  0  0
   -2.1920   15.0950   -0.4140 C   0  0  0  0  0  0  0  0  0  0  0  0
   -1.1080   21.4150   -8.8590 C   0  0  0  0  0  0  0  0  0  0  0  0
   -1.1280   20.0200   -9.0520 O   0  0  0  0  0  0  0  0  0  0  0  0
   -2.2900   15.1970    1.0810 C   0  0  0  0  0  0  0  0  0  0  0  0
   -3.4910   15.3920    1.7020 N   0  0  0  0  0  0  0  0  0  0  0  0
   -3.0340   15.1370   -1.4660 N   0  0  0  0  0  0  0  0  0  0  0  0
   -2.3190   14.9770   -2.6130 C   0  0  0  0  0  0  0  0  0  0  0  0
   -1.0180   14.8120   -2.3160 N   0  0  0  0  0  0  0  0  0  0  0  0
  1  4  1  0
  1 14  1  0
  1 19  1  0
  1 24  1  0
  4  3  1  0
 24  2  1  0
  2 15  1  0
  2 20  1  0
  2 31  1  0
 31 30  1  0
  5  3  1  6
  5  6  1  0
  5  7  1  0
  6 11  1  0
  7  8  1  1
  7  9  1  0
 11  9  1  0
 11 36  1  1
  9 10  1  1
 36 26  1  0
 36 35  1  0
 12 16  1  1
 12 18  1  0
 12 28  1  0
 18 21  1  6
 18 22  1  0
 28 27  1  0
 13 17  1  0
 13 32  1  0
 17 23  1  0
 32 29  1  0
 32 33  1  0
 23 26  1  0
 22 25  1  6
 22 27  1  0
 27 30  1  1
 26 29  1  0
 29 34  1  0
 34 35  1  0
M  CHG  2  14  -1  15  -1
M  END
