5CMS_0_N_γ-mArh-5cb5_I_0_I_β
     RDKit          3D

 16 16  0  0  0  0  0  0  0  0999 V2000
    0.8850   12.5670   -4.2930 O   0  0  0  0  0  0  0  0  0  0  0  0
    0.0330   13.6880   -4.0900 C   0  0  1  0  0  0  0  0  0  0  0  0
    0.6180   14.6770   -3.0810 C   0  0  0  0  0  0  0  0  0  0  0  0
   -0.1170   14.5120   -5.3540 C   0  0  2  0  0  0  0  0  0  0  0  0
    1.0900   14.2850   -6.0780 O   0  0  0  0  0  0  0  0  0  0  0  0
    0.6340   15.9850   -3.6750 O   0  0  0  0  0  0  0  0  0  0  0  0
   -0.2770   15.9330   -4.7770 C   0  0  1  0  0  0  0  0  0  0  0  0
   -0.0060   17.1730   -5.6320 C   0  0  0  0  0  0  0  0  0  0  0  0
   -1.4830   18.1110   -6.0820 P   0  0  1  0  0  0  0  0  0  0  0  0
   -1.0910   19.5150   -6.6790 O   0  0  0  0  0  0  0  0  0  0  0  0
   -2.4870   17.3730   -6.8990 O   0  0  0  0  0  0  0  0  0  0  0  0
   -2.0710   18.5200   -4.6720 O   0  0  0  0  0  0  0  0  0  0  0  0
   -0.1960   19.9780   -7.8680 P   0  0  0  0  0  0  0  0  0  0  0  0
   -1.2490   20.7950   -8.7350 O   0  0  0  0  0  0  0  0  0  0  0  0
    1.0570   20.7280   -7.5790 O   0  0  0  0  0  0  0  0  0  0  0  0
   -0.0450   18.6940   -8.8110 O   0  0  0  0  0  0  0  0  0  0  0  0
  2  1  1  6
  2  3  1  0
  2  4  1  0
  4  5  1  6
  3  6  1  0
  4  7  1  0
  6  7  1  0
  7  8  1  6
  8  9  1  0
  9 10  1  0
  9 11  2  0
  9 12  1  1
 10 13  1  0
 13 14  1  0
 13 15  2  0
 13 16  1  0
M  END
