5CMS_0_R_Î±
     RDKit          3D

  9  9  0  0  0  0  0  0  0  0999 V2000
   -0.4830   21.4870   -9.2940 C   0  0  0  0  0  0  0  0  0  0  0  0
   -1.2200   22.0810  -10.4670 C   0  0  1  0  0  0  0  0  0  0  0  0
   -2.5730   21.5960  -10.4660 O   0  0  0  0  0  0  0  0  0  0  0  0
   -1.2020   23.5810  -10.3390 C   0  0  2  0  0  0  0  0  0  0  0  0
   -3.4560   22.5900   -9.9600 C   0  0  2  0  0  0  0  0  0  0  0  0
   -2.6920   23.9010  -10.1170 C   0  0  2  0  0  0  0  0  0  0  0  0
   -0.5040   24.1350  -11.4690 O   0  0  0  0  0  0  0  0  0  0  0  0
   -3.8000   22.3550   -8.5910 O   0  0  0  0  0  0  0  0  0  0  0  0
   -3.3460   24.6460  -11.1590 O   0  0  0  0  0  0  0  0  0  0  0  0
  2  1  1  1
  3  2  1  0
  4  2  1  0
  5  3  1  0
  6  4  1  0
  4  7  1  6
  5  8  1  1
  5  6  1  0
  6  9  1  6
M  END
