5CMS_0_F_δ-5cb5_N_0_N_β
     RDKit          3D

 21 22  0  0  0  0  0  0  0  0999 V2000
   -3.6480   15.4210    1.8390 N   0  0  0  0  0  0  0  0  0  0  0  0
   -2.3910   15.3350    1.1000 C   0  0  2  0  0  0  0  0  0  0  0  0
   -2.4840   14.8180   -0.3030 C   0  0  2  0  0  0  0  0  0  0  0  0
   -1.4190   14.5510    1.7710 N   0  0  0  0  0  0  0  0  0  0  0  0
   -1.1590   15.2190   -0.9040 C   0  0  2  0  0  0  0  0  0  0  0  0
   -3.4830   15.3710   -1.2100 N   0  0  0  0  0  0  0  0  0  0  0  0
   -0.1270   14.4340    1.1180 C   0  0  0  0  0  0  0  0  0  0  0  0
   -1.4090   15.0430   -2.3280 N   0  0  0  0  0  0  0  0  0  0  0  0
   -2.8660   15.0940   -2.5090 C   0  0  0  0  0  0  0  0  0  0  0  0
   -0.1620   14.3340   -0.3500 N   0  0  0  0  0  0  0  0  0  0  0  0
   -0.6390   15.8830   -3.2610 C   0  0  0  0  0  0  0  0  0  0  0  0
   -1.2620   16.3430   -4.6000 C   0  0  0  0  0  0  0  0  0  0  0  0
   -1.5240   17.7390   -4.6030 O   0  0  0  0  0  0  0  0  0  0  0  0
   -1.8440   18.5010   -5.9780 P   0  0  1  0  0  0  0  0  0  0  0  0
   -0.4950   19.1530   -6.4570 O   0  0  0  0  0  0  0  0  0  0  0  0
   -2.6740   17.7250   -6.9340 O   0  0  0  0  0  0  0  0  0  0  0  0
   -2.6360   19.7060   -5.3130 O   0  0  0  0  0  0  0  0  0  0  0  0
   -0.2450   19.8520   -7.8410 P   0  0  0  0  0  0  0  0  0  0  0  0
   -1.6470   20.4500   -8.3270 O   0  0  0  0  0  0  0  0  0  0  0  0
    0.7790   20.9240   -7.8780 O   0  0  0  0  0  0  0  0  0  0  0  0
   -0.0460   18.6610   -8.8720 O   0  0  0  0  0  0  0  0  0  0  0  0
  2  1  1  1
  2  3  1  0
  2  4  1  0
  3  5  1  0
  3  6  1  6
  4  7  1  0
  5  8  1  0
  6  9  1  0
  8  9  1  0
  5 10  1  1
  7 10  1  0
  8 11  1  0
 11 12  1  0
 12 13  1  0
 13 14  1  0
 14 15  1  0
 14 16  2  0
 14 17  1  1
 15 18  1  0
 18 19  1  0
 18 20  2  0
 18 21  1  0
M  END
