5CMS_0_Q_γ-6MEA_0_A_β
     RDKit          3D

 16 16  0  0  0  0  0  0  0  0999 V2000
   -1.8570   12.6750   -4.3090 O   0  0  0  0  0  0  0  0  0  0  0  0
   -0.6520   13.3020   -4.0240 C   0  0  2  0  0  0  0  0  0  0  0  0
   -0.7520   14.2840   -2.8600 C   0  0  0  0  0  0  0  0  0  0  0  0
   -0.1620   14.1510   -5.1700 C   0  0  2  0  0  0  0  0  0  0  0  0
    1.2130   13.9330   -5.2220 O   0  0  0  0  0  0  0  0  0  0  0  0
   -0.1360   15.4490   -3.3420 O   0  0  0  0  0  0  0  0  0  0  0  0
   -0.5580   15.4930   -4.6540 C   0  0  1  0  0  0  0  0  0  0  0  0
   -0.1210   16.7930   -5.3550 C   0  0  0  0  0  0  0  0  0  0  0  0
   -1.4420   17.9380   -5.5950 P   0  0  0  0  0  0  0  0  0  0  0  0
   -0.6880   19.1870   -6.0730 O   0  0  0  0  0  0  0  0  0  0  0  0
   -2.3600   18.0290   -7.0210 O   0  0  0  0  0  0  0  0  0  0  0  0
   -1.9430   18.8600   -4.4040 O   0  0  0  0  0  0  0  0  0  0  0  0
   -0.1480   19.6110   -7.5100 P   0  0  0  0  0  0  0  0  0  0  0  0
   -1.4880   20.2100   -7.9630 O   0  0  0  0  0  0  0  0  0  0  0  0
    0.5440   21.1230   -7.7390 O   0  0  0  0  0  0  0  0  0  0  0  0
   -0.0610   18.5030   -8.7140 O   0  0  0  0  0  0  0  0  0  0  0  0
  2  1  1  6
  2  3  1  0
  2  4  1  0
  4  5  1  1
  3  6  1  0
  4  7  1  0
  6  7  1  0
  7  8  1  6
  8  9  1  0
  9 10  1  0
  9 11  1  0
  9 12  1  0
 10 13  1  0
 13 14  1  0
 13 15  1  0
 13 16  1  0
M  CHG  2  11  -1  15  -1
M  END
