5CMS_0_H_δ-mArh-4iqy_B_0_B_β
     RDKit          3D

 21 22  0  0  0  0  0  0  0  0999 V2000
   -3.7480   15.5180    1.7990 N   0  0  0  0  0  0  0  0  0  0  0  0
   -2.4270   15.4600    1.1920 C   0  0  2  0  0  0  0  0  0  0  0  0
   -2.4390   15.6300   -0.3140 C   0  0  1  0  0  0  0  0  0  0  0  0
   -1.7730   14.2810    1.6530 N   0  0  0  0  0  0  0  0  0  0  0  0
   -1.0570   15.2980   -0.8900 C   0  0  2  0  0  0  0  0  0  0  0  0
   -3.3330   14.8640   -1.1820 N   0  0  0  0  0  0  0  0  0  0  0  0
   -0.4020   14.2730    1.1690 C   0  0  0  0  0  0  0  0  0  0  0  0
   -1.3770   14.8650   -2.2410 N   0  0  0  0  0  0  0  0  0  0  0  0
   -2.7290   15.3950   -2.3870 C   0  0  1  0  0  0  0  0  0  0  0  0
   -0.3940   14.1810   -0.2670 N   0  0  0  0  0  0  0  0  0  0  0  0
   -3.4180   15.0650   -3.7020 C   0  0  0  0  0  0  0  0  0  0  0  0
   -2.9120   15.9060   -4.9120 C   0  0  0  0  0  0  0  0  0  0  0  0
   -2.3620   17.2460   -4.6190 N   0  0  0  0  0  0  0  0  0  0  0  0
   -1.5600   17.8010   -5.9530 P   0  0  0  0  0  0  0  0  0  0  0  0
   -1.2710   19.3080   -6.3340 O   0  0  0  0  0  0  0  0  0  0  0  0
   -0.2170   17.0150   -6.1540 O   0  0  0  0  0  0  0  0  0  0  0  0
   -2.5890   17.3220   -7.0470 O   0  0  0  0  0  0  0  0  0  0  0  0
   -0.4650   19.7530   -7.6800 P   0  0  0  0  0  0  0  0  0  0  0  0
   -1.5780   20.5430   -8.5100 O   0  0  0  0  0  0  0  0  0  0  0  0
    0.8040   20.5010   -7.4930 O   0  0  0  0  0  0  0  0  0  0  0  0
   -0.2930   18.4280   -8.5700 O   0  0  0  0  0  0  0  0  0  0  0  0
  2  1  1  6
  2  3  1  0
  2  4  1  0
  3  5  1  0
  3  6  1  6
  4  7  1  0
  5  8  1  6
  6  9  1  0
  8  9  1  0
  5 10  1  0
  7 10  1  0
  9 11  1  6
 11 12  1  0
 12 13  1  0
 13 14  2  3
 14 15  1  0
 14 16  1  0
 14 17  1  0
 15 18  1  0
 18 19  1  0
 18 20  2  0
 18 21  1  0
M  END
