5CMS_0_A_β-5CMS_0_K_δ
     RDKit          3D

 21 22  0  0  0  0  0  0  0  0999 V2000
   -1.3610   20.5420   -9.0010 O   0  0  0  0  0  0  0  0  0  0  0  0
   -0.8200   19.7440   -7.8300 P   0  0  0  0  0  0  0  0  0  0  0  0
   -0.5300   18.8100   -6.6720 O   0  0  0  0  0  0  0  0  0  0  0  0
    0.2340   20.8980   -7.4470 O   0  0  0  0  0  0  0  0  0  0  0  0
   -0.2070   18.5670   -8.8300 O   0  0  0  0  0  0  0  0  0  0  0  0
   -1.4740   18.0140   -5.7640 P   0  0  0  0  0  0  0  0  0  0  0  0
   -2.2630   17.1340   -4.8010 O   0  0  0  0  0  0  0  0  0  0  0  0
   -2.4110   17.4220   -6.9640 O   0  0  0  0  0  0  0  0  0  0  0  0
   -2.0950   19.3290   -5.0550 O   0  0  0  0  0  0  0  0  0  0  0  0
   -1.6420   15.9590   -4.3670 C   0  0  0  0  0  0  0  0  0  0  0  0
   -1.5260   15.9880   -2.8890 C   0  0  0  0  0  0  0  0  0  0  0  0
   -1.9310   14.7340   -2.2710 N   0  0  0  0  0  0  0  0  0  0  0  0
   -1.7010   14.9430   -0.8800 C   0  0  1  0  0  0  0  0  0  0  0  0
   -3.3720   14.6870   -2.4530 C   0  0  0  0  0  0  0  0  0  0  0  0
   -2.9680   14.3160   -0.2950 C   0  0  2  0  0  0  0  0  0  0  0  0
   -3.9400   14.9370   -1.1170 N   0  0  0  0  0  0  0  0  0  0  0  0
   -0.5860   14.2180   -0.3180 N   0  0  0  0  0  0  0  0  0  0  0  0
   -0.5880   14.5370    1.1000 C   0  0  0  0  0  0  0  0  0  0  0  0
   -3.0040   14.6700    1.1710 C   0  0  2  0  0  0  0  0  0  0  0  0
   -4.1100   15.6130    1.3730 N   0  0  0  0  0  0  0  0  0  0  0  0
   -1.7380   15.3090    1.4590 N   0  0  0  0  0  0  0  0  0  0  0  0
  1  2  1  0
  2  3  1  0
  2  4  1  0
  2  5  1  0
  3  6  1  0
  6  7  1  0
  6  8  1  0
  6  9  1  0
  7 10  1  0
 10 11  1  0
 11 12  1  0
 12 13  1  0
 12 14  1  0
 13 15  1  0
 14 16  1  0
 15 16  1  6
 13 17  1  1
 17 18  1  0
 15 19  1  0
 19 20  1  6
 18 21  1  0
 19 21  1  0
M  CHG  2   4  -1   8  -1
M  END
