5CMS_0_Q_γ-5cb5_Q_0_Q_β
     RDKit          3D

 16 16  0  0  0  0  0  0  0  0999 V2000
   -1.9120   12.6410   -4.3310 O   0  0  0  0  0  0  0  0  0  0  0  0
   -0.6880   13.2900   -4.0410 C   0  0  2  0  0  0  0  0  0  0  0  0
   -0.7710   14.2500   -2.8470 C   0  0  0  0  0  0  0  0  0  0  0  0
   -0.2140   14.1810   -5.1820 C   0  0  2  0  0  0  0  0  0  0  0  0
    1.2180   14.0260   -5.1940 O   0  0  0  0  0  0  0  0  0  0  0  0
   -0.3050   15.5320   -3.3020 O   0  0  0  0  0  0  0  0  0  0  0  0
   -0.7000   15.5530   -4.6790 C   0  0  1  0  0  0  0  0  0  0  0  0
   -0.1820   16.8380   -5.3270 C   0  0  0  0  0  0  0  0  0  0  0  0
   -1.4510   18.0330   -5.8690 P   0  0  1  0  0  0  0  0  0  0  0  0
   -0.6990   19.3000   -6.4180 O   0  0  0  0  0  0  0  0  0  0  0  0
   -2.5180   17.4860   -6.7710 O   0  0  0  0  0  0  0  0  0  0  0  0
   -2.0610   18.7250   -4.5660 O   0  0  0  0  0  0  0  0  0  0  0  0
   -0.2390   19.8600   -7.7920 P   0  0  0  0  0  0  0  0  0  0  0  0
   -1.5850   20.4370   -8.4080 O   0  0  0  0  0  0  0  0  0  0  0  0
    0.8600   20.8450   -7.7760 O   0  0  0  0  0  0  0  0  0  0  0  0
    0.0000   18.5880   -8.7410 O   0  0  0  0  0  0  0  0  0  0  0  0
  2  1  1  6
  2  3  1  0
  2  4  1  0
  4  5  1  1
  3  6  1  0
  4  7  1  0
  6  7  1  0
  7  8  1  6
  8  9  1  0
  9 10  1  0
  9 11  2  0
  9 12  1  1
 10 13  1  0
 13 14  1  0
 13 15  2  0
 13 16  1  0
M  END
