5CMS_0_E_γ-5CMS_0_B_α
     RDKit          3D

 21 22  0  0  0  0  0  0  0  0999 V2000
   -0.6550   12.0810   -4.1480 O   0  0  0  0  0  0  0  0  0  0  0  0
   -0.9390   13.4650   -4.2400 C   0  0  1  0  0  0  0  0  0  0  0  0
   -0.6530   14.2340   -2.9500 C   0  0  0  0  0  0  0  0  0  0  0  0
   -0.0230   14.1710   -5.2220 C   0  0  2  0  0  0  0  0  0  0  0  0
    1.3040   13.6690   -5.0640 O   0  0  0  0  0  0  0  0  0  0  0  0
   -0.1240   15.5200   -3.3410 O   0  0  0  0  0  0  0  0  0  0  0  0
   -0.3140   15.6060   -4.7660 C   0  0  1  0  0  0  0  0  0  0  0  0
    0.4520   16.8120   -5.3470 C   0  0  0  0  0  0  0  0  0  0  0  0
   -0.4300   17.9280   -5.9680 C   0  0  0  0  0  0  0  0  0  0  0  0
    0.2680   18.8710   -6.9760 C   0  0  0  0  0  0  0  0  0  0  0  0
   -0.6640   19.8230   -7.7760 C   0  0  0  0  0  0  0  0  0  0  0  0
   -2.0690   20.0900   -7.2040 C   0  0  0  0  0  0  0  0  0  0  0  0
   -2.8500   21.2840   -7.8430 C   0  0  0  0  0  0  0  0  0  0  0  0
   -2.5600   21.5780   -9.3230 C   0  0  2  0  0  0  0  0  0  0  0  0
   -1.5800   22.5440   -9.2150 O   0  0  0  0  0  0  0  0  0  0  0  0
   -3.6190   22.2650  -10.2210 C   0  0  1  0  0  0  0  0  0  0  0  0
   -4.9520   21.9460  -10.0310 O   0  0  0  0  0  0  0  0  0  0  0  0
   -2.3030   23.6860   -8.9100 C   0  0  2  0  0  0  0  0  0  0  0  0
   -3.5060   23.7190   -9.8780 C   0  0  1  0  0  0  0  0  0  0  0  0
   -1.3860   24.7220   -9.0040 O   0  0  0  0  0  0  0  0  0  0  0  0
   -3.5270   24.5570  -11.0450 O   0  0  0  0  0  0  0  0  0  0  0  0
  2  1  1  1
  2  3  1  0
  2  4  1  0
  4  5  1  1
  3  6  1  0
  4  7  1  0
  6  7  1  0
  7  8  1  6
  8  9  1  0
  9 10  1  0
 10 11  1  0
 11 12  1  0
 12 13  1  0
 14 13  1  1
 14 15  1  0
 14 16  1  0
 16 17  1  1
 15 18  1  0
 16 19  1  0
 18 19  1  0
 18 20  1  6
 19 21  1  6
M  END
