5CMS_0_L_β-4IQY_0_A_γ
     RDKit          3D

 16 16  0  0  0  0  0  0  0  0999 V2000
   -1.4130   20.6880   -8.2820 O   0  0  0  0  0  0  0  0  0  0  0  0
   -0.5270   19.3810   -7.7960 P   0  0  0  0  0  0  0  0  0  0  0  0
   -0.5320   18.9490   -6.2050 O   0  0  0  0  0  0  0  0  0  0  0  0
    0.6720   20.2730   -7.5210 O   0  0  0  0  0  0  0  0  0  0  0  0
    0.1650   18.4720   -8.8930 O   0  0  0  0  0  0  0  0  0  0  0  0
   -1.7120   17.9340   -5.8070 P   0  0  0  0  0  0  0  0  0  0  0  0
   -0.7530   16.6830   -5.7850 O   0  0  0  0  0  0  0  0  0  0  0  0
   -2.6640   17.1440   -6.9340 O   0  0  0  0  0  0  0  0  0  0  0  0
   -2.2140   17.7220   -4.3420 O   0  0  0  0  0  0  0  0  0  0  0  0
   -0.2230   15.9510   -4.6970 C   0  0  1  0  0  0  0  0  0  0  0  0
   -1.1330   15.8200   -3.6580 O   0  0  0  0  0  0  0  0  0  0  0  0
    0.2330   14.5500   -4.9950 C   0  0  1  0  0  0  0  0  0  0  0  0
    1.6200   14.3490   -4.8220 O   0  0  0  0  0  0  0  0  0  0  0  0
   -0.6250   14.8270   -2.8210 C   0  0  0  0  0  0  0  0  0  0  0  0
   -0.3640   13.7270   -3.8450 C   0  0  1  0  0  0  0  0  0  0  0  0
   -1.4950   13.1040   -4.2910 O   0  0  0  0  0  0  0  0  0  0  0  0
  1  2  1  0
  2  3  1  0
  2  4  1  0
  2  5  1  0
  3  6  1  0
  6  7  1  0
  6  8  1  0
  6  9  1  0
 10  7  1  6
 10 11  1  0
 10 12  1  0
 12 13  1  1
 11 14  1  0
 12 15  1  0
 14 15  1  0
 15 16  1  6
M  CHG  2   4  -1   8  -1
M  END
