5CMS_0_P_Î´
     RDKit          3D

 10 11  0  0  0  0  0  0  0  0999 V2000
   -1.6920   14.6490   -1.9130 N   0  0  0  0  0  0  0  0  0  0  0  0
   -1.3050   14.6830   -0.6380 C   0  0  0  0  0  0  0  0  0  0  0  0
   -3.0060   14.9760   -2.0020 C   0  0  0  0  0  0  0  0  0  0  0  0
   -0.1320   14.4570    0.0340 N   0  0  0  0  0  0  0  0  0  0  0  0
   -2.5310   15.0500    0.0900 C   0  0  0  0  0  0  0  0  0  0  0  0
   -3.5280   15.2160   -0.7790 N   0  0  0  0  0  0  0  0  0  0  0  0
   -0.1370   14.5820    1.3930 C   0  0  0  0  0  0  0  0  0  0  0  0
   -2.4480   15.1700    1.5300 C   0  0  0  0  0  0  0  0  0  0  0  0
   -1.2390   14.9280    2.1250 N   0  0  0  0  0  0  0  0  0  0  0  0
   -3.5960   15.5230    2.1370 N   0  0  0  0  0  0  0  0  0  0  0  0
  1  2  1  0
  1  3  1  0
  4  2  1  0
  2  5  1  0
  6  3  1  0
  7  4  1  0
  8  5  1  0
  5  6  1  0
  9  7  1  0
  9  8  1  0
  8 10  1  0
M  END
