5cms_G_3_G_α-x0918_1_B_α
     RDKit          3D

 19 19  0  0  0  0  0  0  0  0999 V2000
   -0.2250   17.2480   -5.9830 O   0  0  0  0  0  0  0  0  0  0  0  0
   -1.5400   18.1320   -6.0430 P   0  0  0  0  0  0  0  0  0  0  0  0
   -1.9760   19.1240   -4.7310 O   0  0  0  0  0  0  0  0  0  0  0  0
   -2.7420   17.8950   -7.1190 O   0  0  0  0  0  0  0  0  0  0  0  0
   -0.9770   19.4410   -6.6580 O   0  0  0  0  0  0  0  0  0  0  0  0
   -0.7150   19.9580   -8.1150 P   0  0  0  0  0  0  0  0  0  0  0  0
   -2.2300   20.7810   -8.0160 O   0  0  0  0  0  0  0  0  0  0  0  0
   -0.4190   18.5030   -8.6400 O   0  0  0  0  0  0  0  0  0  0  0  0
    0.5570   20.9230   -7.6380 O   0  0  0  0  0  0  0  0  0  0  0  0
   -2.1440   21.8990   -8.9190 C   0  0  0  0  0  0  0  0  0  0  0  0
   -3.4580   22.6510   -9.0120 C   0  0  0  0  0  0  0  0  0  0  0  0
   -4.1020   23.1150  -10.2670 C   0  0  0  0  0  0  0  0  0  0  0  0
   -3.7510   24.4200  -10.7990 N   0  0  0  0  0  0  0  0  0  0  0  0
   -4.0320   25.0530  -12.0540 C   0  0  0  0  0  0  0  0  0  0  0  0
   -5.1410   24.8410  -12.7780 C   0  0  0  0  0  0  0  0  0  0  0  0
   -3.1220   25.9730  -12.6550 C   0  0  0  0  0  0  0  0  0  0  0  0
   -5.3610   25.4730  -14.0060 C   0  0  0  0  0  0  0  0  0  0  0  0
   -3.3810   26.5640  -13.8670 C   0  0  0  0  0  0  0  0  0  0  0  0
   -4.4920   26.3260  -14.5540 N   0  0  0  0  0  0  0  0  0  0  0  0
  1  2  1  0
  2  3  1  0
  2  4  1  0
  2  5  1  0
  5  6  1  0
  6  7  1  0
  6  8  1  0
  6  9  1  0
  7 10  1  0
 10 11  1  0
 11 12  1  0
 12 13  1  0
 13 14  1  0
 14 15  2  0
 14 16  1  0
 15 17  1  0
 16 18  2  0
 17 19  2  0
 18 19  1  0
M  CHG  2   3  -1   8  -1
M  END
