5CMS_0_E_γ-5cms_E_5_E_γ
     RDKit          3D

  8  8  0  0  0  0  0  0  0  0999 V2000
   -0.6650   11.9940   -4.1560 O   0  0  0  0  0  0  0  0  0  0  0  0
   -0.9910   13.3790   -4.2750 C   0  0  1  0  0  0  0  0  0  0  0  0
   -0.7680   14.1310   -2.9650 C   0  0  0  0  0  0  0  0  0  0  0  0
    0.0010   14.0530   -5.1940 C   0  0  2  0  0  0  0  0  0  0  0  0
    1.2860   13.4550   -5.0690 O   0  0  0  0  0  0  0  0  0  0  0  0
   -0.1500   15.3950   -3.2920 O   0  0  0  0  0  0  0  0  0  0  0  0
   -0.1670   15.4980   -4.7200 C   0  0  1  0  0  0  0  0  0  0  0  0
    0.8210   16.5490   -5.1910 C   0  0  0  0  0  0  0  0  0  0  0  0
  2  1  1  1
  2  3  1  0
  2  4  1  0
  4  5  1  1
  3  6  1  0
  4  7  1  0
  6  7  1  0
  7  8  1  6
M  END
