5CMS_0_Q_γ-5CB5_0_I_α
     RDKit          3D

 21 22  0  0  0  0  0  0  0  0999 V2000
   -1.0450   12.1610   -4.4180 O   0  0  0  0  0  0  0  0  0  0  0  0
   -1.1270   13.5720   -4.4450 C   0  0  1  0  0  0  0  0  0  0  0  0
   -0.9090   14.2470   -3.0910 C   0  0  0  0  0  0  0  0  0  0  0  0
    0.0140   14.1570   -5.2370 C   0  0  2  0  0  0  0  0  0  0  0  0
    1.2280   13.5090   -4.8540 O   0  0  0  0  0  0  0  0  0  0  0  0
   -0.2680   15.5060   -3.3710 O   0  0  0  0  0  0  0  0  0  0  0  0
   -0.1740   15.6090   -4.8100 C   0  0  1  0  0  0  0  0  0  0  0  0
    0.8940   16.6330   -5.1690 C   0  0  0  0  0  0  0  0  0  0  0  0
    0.4540   18.0910   -5.3840 C   0  0  0  0  0  0  0  0  0  0  0  0
    0.0330   18.4660   -6.8200 C   0  0  0  0  0  0  0  0  0  0  0  0
   -0.4590   19.9140   -6.9630 C   0  0  0  0  0  0  0  0  0  0  0  0
   -1.5710   20.1520   -7.9610 C   0  0  0  0  0  0  0  0  0  0  0  0
   -1.8900   21.6250   -8.2990 C   0  0  0  0  0  0  0  0  0  0  0  0
   -3.2410   22.1330   -7.7780 C   0  0  2  0  0  0  0  0  0  0  0  0
   -4.2740   21.2750   -8.2060 O   0  0  0  0  0  0  0  0  0  0  0  0
   -3.8410   23.4390   -8.3060 C   0  0  1  0  0  0  0  0  0  0  0  0
   -3.9720   23.5360   -9.7110 O   0  0  0  0  0  0  0  0  0  0  0  0
   -5.4420   21.8660   -7.6150 C   0  0  2  0  0  0  0  0  0  0  0  0
   -5.2440   23.3700   -7.7100 C   0  0  1  0  0  0  0  0  0  0  0  0
   -5.5460   21.4750   -6.2470 O   0  0  0  0  0  0  0  0  0  0  0  0
   -5.4100   24.0590   -6.4710 O   0  0  0  0  0  0  0  0  0  0  0  0
  2  1  1  1
  2  3  1  0
  2  4  1  0
  4  5  1  1
  3  6  1  0
  4  7  1  0
  6  7  1  0
  7  8  1  1
  8  9  1  0
  9 10  1  0
 10 11  1  0
 11 12  1  0
 12 13  1  0
 14 13  1  6
 14 15  1  0
 14 16  1  0
 16 17  1  6
 15 18  1  0
 16 19  1  0
 18 19  1  0
 18 20  1  1
 19 21  1  1
M  END
