5CMS_0_R_α-5CB5_0_Q_α
     RDKit          3D

 17 18  0  0  0  0  0  0  0  0999 V2000
   -2.4640   21.6750   -8.9140 C   0  0  0  0  0  0  0  0  0  0  0  0
   -3.7210   22.0360   -9.6930 C   0  0  2  0  0  0  0  0  0  0  0  0
   -3.6770   21.8990  -11.1020 O   0  0  0  0  0  0  0  0  0  0  0  0
   -2.8100   22.1230   -7.5190 C   0  0  2  0  0  0  0  0  0  0  0  0
   -3.9240   23.5150   -9.4960 C   0  0  1  0  0  0  0  0  0  0  0  0
   -3.6170   21.0990   -6.8670 O   0  0  0  0  0  0  0  0  0  0  0  0
   -3.7310   23.3360   -7.5860 C   0  0  2  0  0  0  0  0  0  0  0  0
   -2.6230   24.0480   -9.3210 O   0  0  0  0  0  0  0  0  0  0  0  0
   -3.0940   24.5770   -7.6500 O   0  0  0  0  0  0  0  0  0  0  0  0
   -4.7200   22.7520  -11.5650 C   0  0  2  0  0  0  0  0  0  0  0  0
   -4.5910   24.0360  -10.7650 C   0  0  2  0  0  0  0  0  0  0  0  0
   -4.8470   21.7520   -6.5130 C   0  0  2  0  0  0  0  0  0  0  0  0
   -4.4710   23.1970   -6.3220 C   0  0  2  0  0  0  0  0  0  0  0  0
   -5.9730   22.1760  -11.2580 O   0  0  0  0  0  0  0  0  0  0  0  0
   -3.8670   25.0720  -11.4240 O   0  0  0  0  0  0  0  0  0  0  0  0
   -5.3830   21.2440   -5.3250 O   0  0  0  0  0  0  0  0  0  0  0  0
   -5.5530   24.1160   -6.2500 O   0  0  0  0  0  0  0  0  0  0  0  0
  2  1  1  1
  2  3  1  0
  4  1  1  6
  2  5  1  0
  4  6  1  0
  4  7  1  0
  5  8  1  6
  7  9  1  1
  3 10  1  0
  5 11  1  0
 10 11  1  0
  6 12  1  0
  7 13  1  0
 12 13  1  0
 10 14  1  1
 11 15  1  6
 12 16  1  1
 13 17  1  6
M  END
