5CMS_0_A_β-3EW5_1_B_α
     RDKit          3D

 14 13  0  0  0  0  0  0  0  0999 V2000
   -2.0780   20.1470   -7.6560 O   0  0  0  0  0  0  0  0  0  0  0  0
   -0.5090   19.8050   -7.9970 P   0  0  0  0  0  0  0  0  0  0  0  0
   -0.3420   19.0430   -6.6570 O   0  0  0  0  0  0  0  0  0  0  0  0
   -2.3130   21.3660   -7.0460 C   0  0  0  0  0  0  0  0  0  0  0  0
    0.6750   20.8700   -7.5380 O   0  0  0  0  0  0  0  0  0  0  0  0
   -0.0730   18.5300   -8.8640 O   0  0  0  0  0  0  0  0  0  0  0  0
   -3.6800   21.9340   -7.4140 C   0  0  2  0  0  0  0  0  0  0  0  0
   -1.3330   18.3130   -5.7800 P   0  0  0  0  0  0  0  0  0  0  0  0
   -4.7890   21.0340   -6.9370 C   0  0  0  0  0  0  0  0  0  0  0  0
   -3.8130   22.3760   -8.6760 O   0  0  0  0  0  0  0  0  0  0  0  0
   -0.2900   17.0900   -5.4790 O   0  0  0  0  0  0  0  0  0  0  0  0
   -2.3810   18.1290   -7.0540 O   0  0  0  0  0  0  0  0  0  0  0  0
   -2.4230   17.7030   -4.9080 O   0  0  0  0  0  0  0  0  0  0  0  0
   -5.5890   21.5810   -5.9680 O   0  0  0  0  0  0  0  0  0  0  0  0
  1  2  1  0
  2  3  1  0
  1  4  1  0
  2  5  1  0
  2  6  1  0
  4  7  1  0
  3  8  1  0
  7  9  1  0
  7 10  1  6
  8 11  1  0
  8 12  1  0
  8 13  1  0
  9 14  1  0
M  CHG  2   5  -1  12  -1
M  END
