5CMS_0_C_δ-6fx_7_0A_γ
     RDKit          3D

 17 19  0  0  0  0  0  0  0  0999 V2000
   -3.8130   15.5760    1.6640 N   0  0  0  0  0  0  0  0  0  0  0  0
   -2.7410   14.9220    0.9340 C   0  0  1  0  0  0  0  0  0  0  0  0
   -2.6290   15.3490   -0.5370 C   0  0  1  0  0  0  0  0  0  0  0  0
   -1.5230   15.2830    1.6140 N   0  0  0  0  0  0  0  0  0  0  0  0
   -1.4210   14.6190   -1.1120 C   0  0  1  0  0  0  0  0  0  0  0  0
   -3.7190   15.0160   -1.4600 N   0  0  0  0  0  0  0  0  0  0  0  0
   -0.3290   14.6850    1.0400 C   0  0  0  0  0  0  0  0  0  0  0  0
   -1.5520   14.8960   -2.6500 C   0  0  1  0  0  0  0  0  0  0  0  0
   -3.0670   15.1950   -2.7790 C   0  0  0  0  0  0  0  0  0  0  0  0
   -0.2330   15.0220   -0.3670 N   0  0  0  0  0  0  0  0  0  0  0  0
   -0.7400   16.0690   -3.0370 O   0  0  0  0  0  0  0  0  0  0  0  0
   -1.0870   13.8260   -3.6670 C   0  0  1  0  0  0  0  0  0  0  0  0
   -2.0280   12.8640   -4.0970 O   0  0  0  0  0  0  0  0  0  0  0  0
   -0.6150   16.0430   -4.4770 C   0  0  2  0  0  0  0  0  0  0  0  0
   -0.5130   14.5710   -4.8770 C   0  0  1  0  0  0  0  0  0  0  0  0
    0.5360   16.9060   -4.9770 C   0  0  0  0  0  0  0  0  0  0  0  0
    0.7990   14.1100   -5.1780 O   0  0  0  0  0  0  0  0  0  0  0  0
  2  1  1  1
  2  3  1  0
  2  4  1  0
  3  5  1  0
  3  6  1  6
  4  7  1  0
  5  8  1  0
  6  9  1  0
  8  9  1  1
  5 10  1  1
  7 10  1  0
  8 11  1  0
  8 12  1  0
 12 13  1  6
 11 14  1  0
 12 15  1  0
 14 15  1  0
 14 16  1  1
 15 17  1  1
M  END
