5CMS_0_F_α-5CB5_0_Q_α
     RDKit          3D

 16 18  0  0  0  0  0  0  0  0999 V2000
   -1.9730   21.8080   -9.0520 C   0  0  0  0  0  0  0  0  0  0  0  0
   -1.7830   22.5000  -10.3970 C   0  0  2  0  0  0  0  0  0  0  0  0
   -0.4480   23.2660  -10.6100 C   0  0  2  0  0  0  0  0  0  0  0  0
   -3.2100   22.2170   -8.2560 C   0  0  2  0  0  0  0  0  0  0  0  0
   -2.8850   23.5110  -10.8780 C   0  0  1  0  0  0  0  0  0  0  0  0
   -4.2990   21.3290   -8.4680 O   0  0  0  0  0  0  0  0  0  0  0  0
   -3.7900   23.5860   -8.5320 C   0  0  1  0  0  0  0  0  0  0  0  0
    0.5320   22.9610   -9.6420 O   0  0  0  0  0  0  0  0  0  0  0  0
   -3.8620   24.0070   -9.9120 O   0  0  0  0  0  0  0  0  0  0  0  0
   -1.9500   24.5770  -11.4860 C   0  0  2  0  0  0  0  0  0  0  0  0
   -5.3990   21.9410   -7.7890 C   0  0  2  0  0  0  0  0  0  0  0  0
   -5.1930   23.4560   -7.9000 C   0  0  1  0  0  0  0  0  0  0  0  0
   -0.8560   24.6940  -10.4590 C   0  0  0  0  0  0  0  0  0  0  0  0
   -2.5260   25.8160  -11.8540 O   0  0  0  0  0  0  0  0  0  0  0  0
   -5.4430   21.5330   -6.4190 O   0  0  0  0  0  0  0  0  0  0  0  0
   -5.3730   24.1020   -6.6280 O   0  0  0  0  0  0  0  0  0  0  0  0
  2  1  1  1
  2  3  1  0
  4  1  1  6
  2  5  1  0
  4  6  1  0
  4  7  1  0
  3  8  1  1
  5  9  1  1
  7  9  1  6
  5 10  1  0
  6 11  1  0
  7 12  1  0
 11 12  1  0
  3 13  1  0
 10 13  1  0
 10 14  1  1
 11 15  1  1
 12 16  1  1
M  END
