5CMS_0_C_β-x0104_0_A_β
     RDKit          3D

 20 20  0  0  0  0  0  0  0  0999 V2000
   -1.6670   20.2870   -8.2500 O   0  0  0  0  0  0  0  0  0  0  0  0
   -0.2950   19.6200   -7.5950 P   0  0  0  0  0  0  0  0  0  0  0  0
   -0.3300   18.2710   -6.7470 O   0  0  0  0  0  0  0  0  0  0  0  0
    1.0550   20.6270   -7.5850 O   0  0  0  0  0  0  0  0  0  0  0  0
    0.2000   18.8550   -8.7980 O   0  0  0  0  0  0  0  0  0  0  0  0
   -1.7300   17.9890   -6.0250 P   0  0  0  0  0  0  0  0  0  0  0  0
   -1.3640   16.5920   -5.5180 O   0  0  0  0  0  0  0  0  0  0  0  0
   -2.9780   17.3530   -6.7880 O   0  0  0  0  0  0  0  0  0  0  0  0
   -1.8790   18.6200   -4.5050 O   0  0  0  0  0  0  0  0  0  0  0  0
   -1.9830   16.1850   -4.3410 C   0  0  0  0  0  0  0  0  0  0  0  0
   -2.9270   15.0030   -4.4300 C   0  0  0  0  0  0  0  0  0  0  0  0
   -3.2910   14.5510   -3.0300 C   0  0  0  0  0  0  0  0  0  0  0  0
   -4.5810   14.9650   -2.6350 O   0  0  0  0  0  0  0  0  0  0  0  0
   -5.0960   14.8870   -1.3420 C   0  0  0  0  0  0  0  0  0  0  0  0
   -4.2970   14.8570   -0.2360 N   0  0  0  0  0  0  0  0  0  0  0  0
   -6.4550   14.8330   -1.1060 C   0  0  0  0  0  0  0  0  0  0  0  0
   -4.8100   14.7890    1.0100 C   0  0  0  0  0  0  0  0  0  0  0  0
   -7.0020   14.7560    0.1560 C   0  0  0  0  0  0  0  0  0  0  0  0
   -6.1640   14.7360    1.2700 C   0  0  0  0  0  0  0  0  0  0  0  0
   -6.7050   14.6720    2.5730 N   0  0  0  0  0  0  0  0  0  0  0  0
  1  2  1  0
  2  3  1  0
  2  4  1  0
  2  5  1  0
  3  6  1  0
  6  7  1  0
  6  8  1  0
  6  9  1  0
  7 10  1  0
 10 11  1  0
 11 12  1  0
 12 13  1  0
 13 14  1  0
 14 15  2  0
 14 16  1  0
 15 17  1  0
 16 18  2  0
 17 19  2  0
 18 19  1  0
 19 20  1  0
M  CHG  2   4  -1   8  -1
M  END
