5CMS_0_G_γ-mArh-6fx_7_0A_γ
     RDKit          3D

 17 19  0  0  0  0  0  0  0  0999 V2000
   -3.6560   15.5700    1.7950 N   0  0  0  0  0  0  0  0  0  0  0  0
   -2.7570   14.8010    0.9590 C   0  0  1  0  0  0  0  0  0  0  0  0
   -2.6090   15.3290   -0.4790 C   0  0  1  0  0  0  0  0  0  0  0  0
   -1.4780   14.7760    1.6460 N   0  0  0  0  0  0  0  0  0  0  0  0
   -1.4890   14.5100   -1.1220 C   0  0  1  0  0  0  0  0  0  0  0  0
   -3.7490   15.1540   -1.3940 N   0  0  0  0  0  0  0  0  0  0  0  0
   -0.3660   15.3430    0.8740 C   0  0  0  0  0  0  0  0  0  0  0  0
   -1.6200   14.8590   -2.6400 C   0  0  1  0  0  0  0  0  0  0  0  0
   -3.1230   15.2200   -2.7410 C   0  0  0  0  0  0  0  0  0  0  0  0
   -0.2330   14.7470   -0.4340 N   0  0  0  0  0  0  0  0  0  0  0  0
   -0.7670   16.0190   -2.9880 O   0  0  0  0  0  0  0  0  0  0  0  0
   -1.1820   13.8110   -3.6940 C   0  0  1  0  0  0  0  0  0  0  0  0
   -2.1500   12.9000   -4.1740 O   0  0  0  0  0  0  0  0  0  0  0  0
   -0.6390   16.0350   -4.4290 C   0  0  2  0  0  0  0  0  0  0  0  0
   -0.5600   14.5720   -4.8660 C   0  0  1  0  0  0  0  0  0  0  0  0
    0.5320   16.8840   -4.9020 C   0  0  0  0  0  0  0  0  0  0  0  0
    0.7520   14.0920   -5.1470 O   0  0  0  0  0  0  0  0  0  0  0  0
  2  1  1  1
  2  3  1  0
  2  4  1  0
  3  5  1  0
  3  6  1  6
  4  7  1  0
  5  8  1  0
  6  9  1  0
  8  9  1  6
  5 10  1  1
  7 10  1  0
  8 11  1  0
  8 12  1  0
 12 13  1  6
 11 14  1  0
 12 15  1  0
 14 15  1  0
 14 16  1  1
 15 17  1  1
M  END
