5CMS_0_B_γ-5cb5_Q_0_Q_β
     RDKit          3D

 16 16  0  0  0  0  0  0  0  0999 V2000
   -1.0470   12.2530   -3.8170 O   0  0  0  0  0  0  0  0  0  0  0  0
   -0.2000   13.3910   -3.8630 C   0  0  2  0  0  0  0  0  0  0  0  0
   -0.3470   14.3140   -2.6590 C   0  0  0  0  0  0  0  0  0  0  0  0
   -0.4850   14.2960   -5.0580 C   0  0  2  0  0  0  0  0  0  0  0  0
    0.7130   14.2420   -5.8420 O   0  0  0  0  0  0  0  0  0  0  0  0
   -0.0620   15.6310   -3.1570 O   0  0  0  0  0  0  0  0  0  0  0  0
   -0.7380   15.6840   -4.4350 C   0  0  1  0  0  0  0  0  0  0  0  0
   -0.2390   16.9110   -5.2090 C   0  0  0  0  0  0  0  0  0  0  0  0
   -1.4660   18.0960   -5.8610 P   0  0  1  0  0  0  0  0  0  0  0  0
   -0.6570   19.3140   -6.4430 O   0  0  0  0  0  0  0  0  0  0  0  0
   -2.5260   17.5260   -6.7560 O   0  0  0  0  0  0  0  0  0  0  0  0
   -2.0810   18.8990   -4.6370 O   0  0  0  0  0  0  0  0  0  0  0  0
   -0.2470   19.8930   -7.8270 P   0  0  0  0  0  0  0  0  0  0  0  0
   -1.6060   20.4490   -8.4280 O   0  0  0  0  0  0  0  0  0  0  0  0
    0.8310   20.8980   -7.8210 O   0  0  0  0  0  0  0  0  0  0  0  0
    0.0110   18.6210   -8.7660 O   0  0  0  0  0  0  0  0  0  0  0  0
  2  1  1  1
  2  3  1  0
  2  4  1  0
  4  5  1  6
  3  6  1  0
  4  7  1  0
  6  7  1  0
  7  8  1  6
  8  9  1  0
  9 10  1  0
  9 11  2  0
  9 12  1  1
 10 13  1  0
 13 14  1  0
 13 15  2  0
 13 16  1  0
M  END
