5cms_K_10_K_γ-5cb5_H_0_H_β
     RDKit          3D

 16 16  0  0  0  0  0  0  0  0999 V2000
   -1.5600   12.6780   -4.2240 O   0  0  0  0  0  0  0  0  0  0  0  0
   -0.3620   13.4010   -3.9980 C   0  0  2  0  0  0  0  0  0  0  0  0
   -0.4590   14.4230   -2.8560 C   0  0  0  0  0  0  0  0  0  0  0  0
    0.0470   14.2410   -5.1950 C   0  0  2  0  0  0  0  0  0  0  0  0
    1.4730   14.1140   -5.2510 O   0  0  0  0  0  0  0  0  0  0  0  0
   -0.0370   15.6850   -3.3800 O   0  0  0  0  0  0  0  0  0  0  0  0
   -0.4630   15.6220   -4.7460 C   0  0  1  0  0  0  0  0  0  0  0  0
   -0.0080   16.8950   -5.4720 C   0  0  0  0  0  0  0  0  0  0  0  0
   -1.3520   18.0140   -5.9620 P   0  0  1  0  0  0  0  0  0  0  0  0
   -0.7700   19.3810   -6.4700 O   0  0  0  0  0  0  0  0  0  0  0  0
   -2.4250   17.4440   -6.8380 O   0  0  0  0  0  0  0  0  0  0  0  0
   -1.9510   18.4920   -4.5780 O   0  0  0  0  0  0  0  0  0  0  0  0
   -0.1380   19.9190   -7.7820 P   0  0  0  0  0  0  0  0  0  0  0  0
   -1.3810   20.6250   -8.4610 O   0  0  0  0  0  0  0  0  0  0  0  0
    1.0560   20.7990   -7.6430 O   0  0  0  0  0  0  0  0  0  0  0  0
    0.0200   18.6700   -8.7800 O   0  0  0  0  0  0  0  0  0  0  0  0
  2  1  1  6
  2  3  1  0
  2  4  1  0
  4  5  1  1
  3  6  1  0
  4  7  1  0
  6  7  1  0
  7  8  1  6
  8  9  1  0
  9 10  1  0
  9 11  2  0
  9 12  1  1
 10 13  1  0
 13 14  1  0
 13 15  2  0
 13 16  1  0
M  END
