5CMS_0_F_β-x0689_0_A_α
     RDKit          3D

 22 22  0  0  0  0  0  0  0  0999 V2000
   -1.5010   20.3370   -8.3850 O   0  0  0  0  0  0  0  0  0  0  0  0
   -0.3210   19.8120   -7.5780 P   0  0  0  0  0  0  0  0  0  0  0  0
   -1.2070   19.3540   -6.2830 O   0  0  0  0  0  0  0  0  0  0  0  0
    0.4520   21.2500   -7.6900 O   0  0  0  0  0  0  0  0  0  0  0  0
    0.0330   18.6690   -8.7520 O   0  0  0  0  0  0  0  0  0  0  0  0
   -1.5300   17.8990   -6.0230 P   0  0  0  0  0  0  0  0  0  0  0  0
   -0.0250   17.4550   -6.5710 O   0  0  0  0  0  0  0  0  0  0  0  0
   -2.7700   17.9930   -7.0580 O   0  0  0  0  0  0  0  0  0  0  0  0
   -1.7520   17.9200   -4.4330 O   0  0  0  0  0  0  0  0  0  0  0  0
   -1.4170   16.7220   -3.8570 C   0  0  0  0  0  0  0  0  0  0  0  0
   -2.6660   15.8310   -3.8230 C   0  0  0  0  0  0  0  0  0  0  0  0
   -3.0120   15.5010   -2.3960 C   0  0  0  0  0  0  0  0  0  0  0  0
   -4.4090   15.1690   -2.0570 C   0  0  0  0  0  0  0  0  0  0  0  0
   -4.7440   14.5330   -0.7720 C   0  0  0  0  0  0  0  0  0  0  0  0
   -4.8150   15.3220    0.4740 C   0  0  0  0  0  0  0  0  0  0  0  0
   -3.8200   15.0660    1.4670 N   0  0  0  0  0  0  0  0  0  0  0  0
   -2.4890   14.8810    0.9820 C   0  0  0  0  0  0  0  0  0  0  0  0
   -2.1640   15.0290   -0.2840 N   0  0  0  0  0  0  0  0  0  0  0  0
   -1.5300   14.5460    1.8310 N   0  0  0  0  0  0  0  0  0  0  0  0
   -0.9340   14.8650   -0.7680 C   0  0  0  0  0  0  0  0  0  0  0  0
   -0.2790   14.3600    1.4180 C   0  0  0  0  0  0  0  0  0  0  0  0
    0.0800   14.5130    0.0940 C   0  0  0  0  0  0  0  0  0  0  0  0
  1  2  1  0
  2  3  1  0
  2  4  1  0
  2  5  1  0
  3  6  1  0
  6  7  1  0
  6  8  1  0
  6  9  1  0
  9 10  1  0
 10 11  1  0
 11 12  1  0
 12 13  1  0
 13 14  1  0
 14 15  1  0
 15 16  1  0
 16 17  1  0
 17 18  2  0
 17 19  1  0
 18 20  1  0
 19 21  2  0
 20 22  2  0
 21 22  1  0
M  CHG  2   4  -1   8  -1
M  END
