5CMS_0_K_α-6WOJ_0_D_α
     RDKit          3D

 17 18  0  0  0  0  0  0  0  0999 V2000
   -3.1600   21.6720   -9.1320 C   0  0  0  0  0  0  0  0  0  0  0  0
   -3.8930   22.3630  -10.2600 C   0  0  2  0  0  0  0  0  0  0  0  0
   -3.4520   22.0170  -11.5530 O   0  0  0  0  0  0  0  0  0  0  0  0
   -3.0880   22.3240   -7.8030 C   0  0  2  0  0  0  0  0  0  0  0  0
   -4.1130   23.8650  -10.3390 C   0  0  1  0  0  0  0  0  0  0  0  0
   -3.6750   21.3290   -6.9200 O   0  0  0  0  0  0  0  0  0  0  0  0
   -4.0020   23.5050   -7.7160 C   0  0  2  0  0  0  0  0  0  0  0  0
   -3.2060   24.7490  -10.9280 O   0  0  0  0  0  0  0  0  0  0  0  0
   -3.3640   24.7030   -7.8240 O   0  0  0  0  0  0  0  0  0  0  0  0
   -4.4440   22.6690  -12.3360 C   0  0  2  0  0  0  0  0  0  0  0  0
   -4.9450   23.8910  -11.5590 C   0  0  2  0  0  0  0  0  0  0  0  0
   -4.9080   21.9130   -6.5270 C   0  0  2  0  0  0  0  0  0  0  0  0
   -4.5050   23.3510   -6.3440 C   0  0  2  0  0  0  0  0  0  0  0  0
   -5.5340   21.8040  -12.5110 O   0  0  0  0  0  0  0  0  0  0  0  0
   -4.6530   25.1200  -12.2230 O   0  0  0  0  0  0  0  0  0  0  0  0
   -5.3910   21.3530   -5.3380 O   0  0  0  0  0  0  0  0  0  0  0  0
   -5.5250   24.2810   -6.0710 O   0  0  0  0  0  0  0  0  0  0  0  0
  2  1  1  1
  2  3  1  0
  4  1  1  6
  2  5  1  0
  4  6  1  0
  4  7  1  0
  5  8  1  6
  7  9  1  1
  3 10  1  0
  5 11  1  0
 10 11  1  0
  6 12  1  0
  7 13  1  0
 12 13  1  0
 10 14  1  1
 11 15  1  6
 12 16  1  1
 13 17  1  6
M  END
