5cms_O_14_O_β-5MQX_0_A_δ
     RDKit          3D

 22 23  0  0  0  0  0  0  0  0999 V2000
   -1.4880   20.4740   -8.1860 O   0  0  0  0  0  0  0  0  0  0  0  0
   -0.1560   19.7420   -7.7060 P   0  0  0  0  0  0  0  0  0  0  0  0
   -0.4480   18.8970   -6.3970 O   0  0  0  0  0  0  0  0  0  0  0  0
    1.0260   20.6500   -7.5810 O   0  0  0  0  0  0  0  0  0  0  0  0
    0.0040   18.6450   -8.8410 O   0  0  0  0  0  0  0  0  0  0  0  0
   -1.8810   18.3250   -6.0270 P   0  0  2  0  0  0  0  0  0  0  0  0
   -1.7380   17.6560   -4.5680 O   0  0  0  0  0  0  0  0  0  0  0  0
   -2.5510   17.4330   -6.9960 O   0  0  0  0  0  0  0  0  0  0  0  0
   -2.6990   19.6560   -5.7110 O   0  0  0  0  0  0  0  0  0  0  0  0
   -2.1140   16.2810   -4.4240 C   0  0  0  0  0  0  0  0  0  0  0  0
   -2.0040   15.7060   -2.9960 C   0  0  0  0  0  0  0  0  0  0  0  0
   -1.7770   14.1690   -2.9810 C   0  0  0  0  0  0  0  0  0  0  0  0
   -2.1500   13.4630   -1.7200 N   0  0  0  0  0  0  0  0  0  0  0  0
   -1.8270   14.1350   -0.4640 C   0  0  1  0  0  0  0  0  0  0  0  0
   -3.6020   13.2010   -1.6320 C   0  0  0  0  0  0  0  0  0  0  0  0
   -3.0630   14.0350    0.4050 C   0  0  2  0  0  0  0  0  0  0  0  0
   -4.1770   13.9580   -0.5220 N   0  0  0  0  0  0  0  0  0  0  0  0
   -0.6230   13.7050    0.1900 N   0  0  0  0  0  0  0  0  0  0  0  0
   -0.6090   14.2420    1.5250 C   0  0  0  0  0  0  0  0  0  0  0  0
   -2.9080   15.3020    1.1770 C   0  0  1  0  0  0  0  0  0  0  0  0
   -3.8970   15.5490    2.2060 N   0  0  0  0  0  0  0  0  0  0  0  0
   -1.5870   15.3080    1.7470 N   0  0  0  0  0  0  0  0  0  0  0  0
  1  2  1  0
  2  3  1  0
  2  4  2  0
  2  5  1  0
  3  6  1  0
  6  7  1  0
  6  8  2  0
  6  9  1  1
  7 10  1  0
 10 11  1  0
 11 12  1  0
 12 13  1  0
 13 14  1  0
 13 15  1  0
 14 16  1  0
 15 17  1  0
 16 17  1  6
 14 18  1  1
 18 19  1  0
 16 20  1  0
 20 21  1  1
 19 22  1  0
 20 22  1  0
M  END
