5CMS_0_I_γ-2BFQ_1_A_α
     RDKit          3D

 21 22  0  0  0  0  0  0  0  0999 V2000
   -1.2440   12.5100   -4.4570 O   0  0  0  0  0  0  0  0  0  0  0  0
   -1.1870   13.9160   -4.3910 C   0  0  1  0  0  0  0  0  0  0  0  0
   -0.8040   14.4870   -3.0360 C   0  0  0  0  0  0  0  0  0  0  0  0
   -0.0530   14.4520   -5.2190 C   0  0  2  0  0  0  0  0  0  0  0  0
    1.1520   13.7540   -4.9160 O   0  0  0  0  0  0  0  0  0  0  0  0
   -0.1670   15.7520   -3.3230 O   0  0  0  0  0  0  0  0  0  0  0  0
   -0.1590   15.9040   -4.7650 C   0  0  1  0  0  0  0  0  0  0  0  0
    0.9660   16.8510   -5.1460 C   0  0  0  0  0  0  0  0  0  0  0  0
    0.7060   18.1200   -5.9810 C   0  0  0  0  0  0  0  0  0  0  0  0
   -0.7400   18.5690   -6.2310 C   0  0  0  0  0  0  0  0  0  0  0  0
   -0.7780   20.0200   -6.7670 C   0  0  0  0  0  0  0  0  0  0  0  0
   -1.6960   20.3090   -7.9230 C   0  0  0  0  0  0  0  0  0  0  0  0
   -1.9590   21.8000   -8.2340 C   0  0  0  0  0  0  0  0  0  0  0  0
   -3.0830   22.3910   -7.3990 C   0  0  2  0  0  0  0  0  0  0  0  0
   -4.1350   21.4550   -7.4530 O   0  0  0  0  0  0  0  0  0  0  0  0
   -3.7850   23.7180   -7.7590 C   0  0  1  0  0  0  0  0  0  0  0  0
   -4.0460   24.0190   -9.1220 O   0  0  0  0  0  0  0  0  0  0  0  0
   -5.0690   22.0800   -6.6120 C   0  0  1  0  0  0  0  0  0  0  0  0
   -5.1250   23.5330   -7.0730 C   0  0  1  0  0  0  0  0  0  0  0  0
   -6.3200   21.4630   -6.7550 O   0  0  0  0  0  0  0  0  0  0  0  0
   -5.3650   24.4400   -6.0220 O   0  0  0  0  0  0  0  0  0  0  0  0
  2  1  1  1
  2  3  1  0
  2  4  1  0
  4  5  1  1
  3  6  1  0
  4  7  1  0
  6  7  1  0
  7  8  1  1
  8  9  1  0
  9 10  1  0
 10 11  1  0
 11 12  1  0
 12 13  1  0
 14 13  1  6
 14 15  1  0
 14 16  1  0
 16 17  1  6
 15 18  1  0
 16 19  1  0
 18 19  1  0
 18 20  1  6
 19 21  1  1
M  END
