5CMS_0_C_δ-5cms_K_10_K_β
     RDKit          3D

 21 22  0  0  0  0  0  0  0  0999 V2000
   -4.0320   15.3940    1.5770 N   0  0  0  0  0  0  0  0  0  0  0  0
   -2.7090   15.5550    0.9690 C   0  0  2  0  0  0  0  0  0  0  0  0
   -2.6690   15.4360   -0.5490 C   0  0  1  0  0  0  0  0  0  0  0  0
   -1.7130   14.7560    1.6490 N   0  0  0  0  0  0  0  0  0  0  0  0
   -1.4800   14.6170   -0.9740 C   0  0  1  0  0  0  0  0  0  0  0  0
   -3.7260   14.7650   -1.3010 N   0  0  0  0  0  0  0  0  0  0  0  0
   -0.4010   14.5760    1.0250 C   0  0  0  0  0  0  0  0  0  0  0  0
   -1.6040   14.8560   -2.3970 N   0  0  0  0  0  0  0  0  0  0  0  0
   -3.0400   14.5890   -2.6030 C   0  0  0  0  0  0  0  0  0  0  0  0
   -0.3370   15.1590   -0.2990 N   0  0  0  0  0  0  0  0  0  0  0  0
   -1.2130   16.1960   -2.8610 C   0  0  0  0  0  0  0  0  0  0  0  0
   -0.4530   16.4940   -4.1730 C   0  0  0  0  0  0  0  0  0  0  0  0
   -1.3280   16.6010   -5.2970 O   0  0  0  0  0  0  0  0  0  0  0  0
   -1.6660   18.0050   -6.0300 P   0  0  1  0  0  0  0  0  0  0  0  0
   -0.3220   18.7220   -6.4550 O   0  0  0  0  0  0  0  0  0  0  0  0
   -2.6620   17.8180   -7.0950 O   0  0  0  0  0  0  0  0  0  0  0  0
   -2.2210   18.9650   -4.8950 O   0  0  0  0  0  0  0  0  0  0  0  0
   -0.1570   19.6310   -7.7410 P   0  0  0  0  0  0  0  0  0  0  0  0
   -1.6140   20.1540   -8.1340 O   0  0  0  0  0  0  0  0  0  0  0  0
    0.7740   20.7850   -7.6950 O   0  0  0  0  0  0  0  0  0  0  0  0
    0.0990   18.5900   -8.9050 O   0  0  0  0  0  0  0  0  0  0  0  0
  2  1  1  1
  2  3  1  0
  2  4  1  0
  3  5  1  0
  3  6  1  1
  4  7  1  0
  5  8  1  0
  6  9  1  0
  8  9  1  0
  5 10  1  1
  7 10  1  0
  8 11  1  0
 11 12  1  0
 12 13  1  0
 13 14  1  0
 14 15  1  0
 14 16  2  0
 14 17  1  1
 15 18  1  0
 18 19  1  0
 18 20  2  0
 18 21  1  0
M  END
