5CMS_0_Q_δ-5CMS_0_F_γ
     RDKit          3D

 17 19  0  0  0  0  0  0  0  0999 V2000
   -3.9970   15.6270    1.5790 N   0  0  0  0  0  0  0  0  0  0  0  0
   -2.9290   14.9340    0.8730 C   0  0  1  0  0  0  0  0  0  0  0  0
   -2.7190   15.3390   -0.6030 C   0  0  1  0  0  0  0  0  0  0  0  0
   -1.7320   15.2360    1.6260 N   0  0  0  0  0  0  0  0  0  0  0  0
   -1.5090   14.5320   -1.0790 C   0  0  1  0  0  0  0  0  0  0  0  0
   -3.7520   15.0390   -1.6070 N   0  0  0  0  0  0  0  0  0  0  0  0
   -0.5470   14.5520    1.1260 C   0  0  0  0  0  0  0  0  0  0  0  0
   -1.5020   14.7520   -2.6240 C   0  0  1  0  0  0  0  0  0  0  0  0
   -2.9890   15.1190   -2.8860 C   0  0  0  0  0  0  0  0  0  0  0  0
   -0.3530   14.8890   -0.2670 N   0  0  0  0  0  0  0  0  0  0  0  0
   -0.5970   15.8620   -2.9830 O   0  0  0  0  0  0  0  0  0  0  0  0
   -0.9380   13.6280   -3.5510 C   0  0  1  0  0  0  0  0  0  0  0  0
   -1.7920   12.5850   -3.9690 O   0  0  0  0  0  0  0  0  0  0  0  0
   -0.4660   15.8070   -4.4190 C   0  0  2  0  0  0  0  0  0  0  0  0
   -0.3210   14.3280   -4.7670 C   0  0  1  0  0  0  0  0  0  0  0  0
    0.6550   16.6990   -4.9240 C   0  0  0  0  0  0  0  0  0  0  0  0
    1.0150   13.8710   -4.9770 O   0  0  0  0  0  0  0  0  0  0  0  0
  2  1  1  1
  2  3  1  0
  2  4  1  0
  3  5  1  0
  3  6  1  6
  4  7  1  0
  5  8  1  0
  6  9  1  0
  8  9  1  6
  5 10  1  1
  7 10  1  0
  8 11  1  0
  8 12  1  0
 12 13  1  6
 11 14  1  0
 12 15  1  0
 14 15  1  0
 14 16  1  1
 15 17  1  1
M  END
