5CMS_0_H_β-5cms_N_13_N_γ
     RDKit          3D

 16 16  0  0  0  0  0  0  0  0999 V2000
   -1.4220   20.4970   -8.4540 O   0  0  0  0  0  0  0  0  0  0  0  0
   -0.4690   19.4420   -7.6070 P   0  0  0  0  0  0  0  0  0  0  0  0
   -1.0300   17.9290   -7.2520 O   0  0  0  0  0  0  0  0  0  0  0  0
    0.0820   18.7760   -8.8260 O   0  0  0  0  0  0  0  0  0  0  0  0
    0.9820   19.9060   -7.2160 O   0  0  0  0  0  0  0  0  0  0  0  0
   -2.0370   17.7230   -6.0310 P   0  0  0  0  0  0  0  0  0  0  0  0
   -1.4350   16.3810   -5.4840 O   0  0  0  0  0  0  0  0  0  0  0  0
   -3.4000   16.7260   -6.2460 O   0  0  0  0  0  0  0  0  0  0  0  0
   -1.8360   18.5550   -4.6640 O   0  0  0  0  0  0  0  0  0  0  0  0
   -0.1340   15.9080   -5.2560 C   0  0  1  0  0  0  0  0  0  0  0  0
    0.3130   16.2680   -3.9760 O   0  0  0  0  0  0  0  0  0  0  0  0
   -0.0440   14.4050   -5.3360 C   0  0  1  0  0  0  0  0  0  0  0  0
    0.7070   13.8580   -6.3860 O   0  0  0  0  0  0  0  0  0  0  0  0
    0.1990   15.1060   -3.1900 C   0  0  0  0  0  0  0  0  0  0  0  0
    0.8180   14.0920   -4.1410 C   0  0  1  0  0  0  0  0  0  0  0  0
    0.6250   12.7760   -3.7970 O   0  0  0  0  0  0  0  0  0  0  0  0
  1  2  1  0
  2  3  1  0
  2  4  1  0
  2  5  1  0
  3  6  1  0
  6  7  1  0
  6  8  1  0
  6  9  1  0
 10  7  1  1
 10 11  1  0
 10 12  1  0
 12 13  1  6
 11 14  1  0
 12 15  1  0
 14 15  1  0
 15 16  1  1
M  CHG  2   4  -1   8  -1
M  END
