5CMS_0_K_α-5mqx_0_A_β
     RDKit          3D

 23 23  0  0  0  0  0  0  0  0999 V2000
   -2.1780   21.0670   -8.1270 C   0  0  0  0  0  0  0  0  0  0  0  0
   -2.1590   22.0610   -9.2360 C   0  0  1  0  0  0  0  0  0  0  0  0
   -2.9860   21.6050  -10.3530 O   0  0  0  0  0  0  0  0  0  0  0  0
   -2.6710   23.4350   -8.8290 C   0  0  1  0  0  0  0  0  0  0  0  0
   -1.6080   24.3740   -8.9120 O   0  0  0  0  0  0  0  0  0  0  0  0
   -4.2070   22.2960  -10.1800 C   0  0  1  0  0  0  0  0  0  0  0  0
   -3.8380   23.7110   -9.7960 C   0  0  2  0  0  0  0  0  0  0  0  0
   -5.0570   22.3440  -11.3120 O   0  0  0  0  0  0  0  0  0  0  0  0
   -3.6500   24.6000  -10.9020 O   0  0  0  0  0  0  0  0  0  0  0  0
   -6.3490   22.6740  -10.8010 C   0  0  0  0  0  0  0  0  0  0  0  0
   -6.3360   22.6440   -9.2500 C   0  0  0  0  0  0  0  0  0  0  0  0
   -5.7040   21.3890   -8.6050 C   0  0  0  0  0  0  0  0  0  0  0  0
   -5.4500   21.3640   -7.1020 C   0  0  0  0  0  0  0  0  0  0  0  0
   -3.9790   21.1850   -6.6720 C   0  0  0  0  0  0  0  0  0  0  0  0
   -3.5290   19.8000   -6.6500 O   0  0  0  0  0  0  0  0  0  0  0  0
   -2.3980   19.4970   -5.5280 P   0  0  2  0  0  0  0  0  0  0  0  0
   -1.9820   17.8850   -5.4010 O   0  0  0  0  0  0  0  0  0  0  0  0
   -2.8830   20.1610   -4.2950 O   0  0  0  0  0  0  0  0  0  0  0  0
   -1.1790   20.2770   -6.0940 O   0  0  0  0  0  0  0  0  0  0  0  0
   -2.6930   16.4710   -4.9170 P   0  0  0  0  0  0  0  0  0  0  0  0
   -1.6350   15.3270   -5.1820 O   0  0  0  0  0  0  0  0  0  0  0  0
   -3.2580   16.3580   -3.5330 O   0  0  0  0  0  0  0  0  0  0  0  0
   -3.7780   16.1090   -6.0260 O   0  0  0  0  0  0  0  0  0  0  0  0
  2  1  1  1
  2  3  1  0
  2  4  1  0
  4  5  1  6
  3  6  1  0
  4  7  1  0
  6  7  1  0
  6  8  1  6
  7  9  1  6
  8 10  1  0
 10 11  1  0
 11 12  1  0
 12 13  1  0
 13 14  1  0
 14 15  1  0
 15 16  1  0
 16 17  1  0
 16 18  2  0
 16 19  1  6
 17 20  1  0
 20 21  1  0
 20 22  2  0
 20 23  1  0
M  END
