5CMS_0_G_β-3Q6Z_0_A_β
     RDKit          3D

 16 16  0  0  0  0  0  0  0  0999 V2000
   -1.9530   13.0050   -4.0070 O   0  0  0  0  0  0  0  0  0  0  0  0
   -0.6710   13.5280   -3.8680 C   0  0  2  0  0  0  0  0  0  0  0  0
   -0.5460   14.5020   -2.6980 C   0  0  0  0  0  0  0  0  0  0  0  0
   -0.2680   14.3540   -5.0590 C   0  0  2  0  0  0  0  0  0  0  0  0
    1.0780   14.0710   -5.2890 O   0  0  0  0  0  0  0  0  0  0  0  0
    0.0730   15.6350   -3.2540 O   0  0  0  0  0  0  0  0  0  0  0  0
   -0.5130   15.7050   -4.5000 C   0  0  1  0  0  0  0  0  0  0  0  0
   -0.0990   16.9360   -5.3070 C   0  0  0  0  0  0  0  0  0  0  0  0
   -1.4580   17.9770   -5.7080 P   0  0  0  0  0  0  0  0  0  0  0  0
   -0.6910   19.2340   -6.1340 O   0  0  0  0  0  0  0  0  0  0  0  0
   -2.0060   19.0460   -4.5300 O   0  0  0  0  0  0  0  0  0  0  0  0
   -2.3640   17.9010   -7.0340 O   0  0  0  0  0  0  0  0  0  0  0  0
   -0.0640   19.5960   -7.5510 P   0  0  0  0  0  0  0  0  0  0  0  0
   -1.3910   20.1120   -8.1210 O   0  0  0  0  0  0  0  0  0  0  0  0
    0.0210   18.4900   -8.7920 O   0  0  0  0  0  0  0  0  0  0  0  0
    0.6960   21.0520   -7.7250 O   0  0  0  0  0  0  0  0  0  0  0  0
  2  1  1  6
  2  3  1  0
  2  4  1  0
  4  5  1  1
  3  6  1  0
  4  7  1  0
  6  7  1  0
  7  8  1  6
  8  9  1  0
  9 10  1  0
  9 11  1  0
  9 12  1  0
 10 13  1  0
 13 14  1  0
 13 15  1  0
 13 16  1  0
M  CHG  2  11  -1  15  -1
M  END
