5CMS_0_I_Î³
     RDKit          3D

  8  8  0  0  0  0  0  0  0  0999 V2000
   -0.6350   14.4890   -3.0440 C   0  0  0  0  0  0  0  0  0  0  0  0
    0.2240   15.6060   -3.2780 O   0  0  0  0  0  0  0  0  0  0  0  0
   -1.2670   14.2000   -4.4070 C   0  0  1  0  0  0  0  0  0  0  0  0
    0.5140   15.7120   -4.7060 C   0  0  1  0  0  0  0  0  0  0  0  0
   -0.1110   14.4860   -5.3570 C   0  0  1  0  0  0  0  0  0  0  0  0
   -1.8450   12.8910   -4.4600 O   0  0  0  0  0  0  0  0  0  0  0  0
    0.0330   17.0410   -5.3040 C   0  0  0  0  0  0  0  0  0  0  0  0
    0.8850   13.4740   -5.3560 O   0  0  0  0  0  0  0  0  0  0  0  0
  1  2  1  1
  1  3  1  0
  4  2  1  0
  5  3  1  0
  3  6  1  1
  4  7  1  6
  4  5  1  0
  5  8  1  1
M  END
