5CMS_0_P_β-x0282_0_A_α
     RDKit          3D

 27 28  0  0  0  0  0  0  0  0999 V2000
   -0.5340   20.8640   -8.5240 O   0  0  0  0  0  0  0  0  0  0  0  0
   -0.3420   19.4800   -7.7370 P   0  0  0  0  0  0  0  0  0  0  0  0
   -1.7310   18.5880   -7.4680 O   0  0  0  0  0  0  0  0  0  0  0  0
   -0.6770   20.0240   -6.3680 O   0  0  0  0  0  0  0  0  0  0  0  0
    0.0110   18.5350   -8.8840 O   0  0  0  0  0  0  0  0  0  0  0  0
   -1.8040   17.7280   -6.1470 P   0  0  0  0  0  0  0  0  0  0  0  0
   -0.3860   17.4950   -5.2300 O   0  0  0  0  0  0  0  0  0  0  0  0
   -2.2150   18.8170   -5.2010 O   0  0  0  0  0  0  0  0  0  0  0  0
   -3.1020   16.8300   -5.7390 O   0  0  0  0  0  0  0  0  0  0  0  0
   -2.7740   15.5550   -5.3690 C   0  0  0  0  0  0  0  0  0  0  0  0
   -2.7270   15.5350   -3.8580 C   0  0  0  0  0  0  0  0  0  0  0  0
   -3.8010   14.7460   -3.2150 C   0  0  0  0  0  0  0  0  0  0  0  0
   -4.0860   15.2920   -1.8670 C   0  0  0  0  0  0  0  0  0  0  0  0
   -4.4810   14.2990   -0.8060 C   0  0  1  0  0  0  0  0  0  0  0  0
   -3.5710   14.3170    0.3480 N   0  0  0  0  0  0  0  0  0  0  0  0
   -5.9090   14.7200   -0.4630 C   0  0  0  0  0  0  0  0  0  0  0  0
   -6.2720   14.3090    0.8930 C   0  0  2  0  0  0  0  0  0  0  0  0
   -4.0250   14.1680    1.7150 C   0  0  0  0  0  0  0  0  0  0  0  0
   -2.2020   14.4520    0.2010 C   0  0  0  0  0  0  0  0  0  0  0  0
   -7.7310   14.3980    1.2790 C   0  0  0  0  0  0  0  0  0  0  0  0
   -5.3160   14.9150    1.8250 C   0  0  0  0  0  0  0  0  0  0  0  0
   -1.6870   14.4970   -1.0370 N   0  0  0  0  0  0  0  0  0  0  0  0
   -1.4120   14.5360    1.2910 N   0  0  0  0  0  0  0  0  0  0  0  0
   -8.4930   14.6070    0.1310 O   0  0  0  0  0  0  0  0  0  0  0  0
   -0.3720   14.6340   -1.1500 C   0  0  0  0  0  0  0  0  0  0  0  0
   -0.0930   14.6710    1.2080 C   0  0  0  0  0  0  0  0  0  0  0  0
    0.4540   14.7270   -0.0720 C   0  0  0  0  0  0  0  0  0  0  0  0
  1  2  1  0
  2  3  1  0
  2  4  1  0
  2  5  1  0
  3  6  1  0
  6  7  1  0
  6  8  1  0
  6  9  1  0
  9 10  1  0
 10 11  1  0
 11 12  1  0
 12 13  1  0
 14 13  1  6
 14 15  1  0
 14 16  1  0
 16 17  1  0
 15 18  1  0
 15 19  1  0
 17 20  1  1
 17 21  1  0
 18 21  1  0
 19 22  2  0
 19 23  1  0
 20 24  1  0
 22 25  1  0
 23 26  2  0
 25 27  2  0
 26 27  1  0
M  CHG  2   4  -1   8  -1
M  END
