5CMS_0_C_β-5CB3_0_A_α
     RDKit          3D

 17 17  0  0  0  0  0  0  0  0999 V2000
   -1.8940   21.2050   -8.8860 O   0  0  0  0  0  0  0  0  0  0  0  0
   -0.8860   20.2270   -7.8990 P   0  0  0  0  0  0  0  0  0  0  0  0
   -1.5410   19.5740   -6.5580 O   0  0  0  0  0  0  0  0  0  0  0  0
   -3.2370   21.5840   -8.5270 C   0  0  1  0  0  0  0  0  0  0  0  0
   -0.5400   21.4990   -7.1620 O   0  0  0  0  0  0  0  0  0  0  0  0
   -1.0730   18.9340   -8.6710 O   0  0  0  0  0  0  0  0  0  0  0  0
   -3.6950   21.0780   -7.3500 O   0  0  0  0  0  0  0  0  0  0  0  0
   -3.4500   23.1410   -8.3130 C   0  0  1  0  0  0  0  0  0  0  0  0
   -1.4280   18.1320   -6.0240 P   0  0  0  0  0  0  0  0  0  0  0  0
   -4.2740   23.6190   -9.3380 O   0  0  0  0  0  0  0  0  0  0  0  0
   -4.7870   21.8140   -6.9910 C   0  0  2  0  0  0  0  0  0  0  0  0
   -4.2570   23.1930   -6.9850 C   0  0  2  0  0  0  0  0  0  0  0  0
   -1.1970   16.7020   -5.5200 O   0  0  0  0  0  0  0  0  0  0  0  0
   -2.7160   17.6720   -6.9110 O   0  0  0  0  0  0  0  0  0  0  0  0
   -1.7050   18.6960   -4.5180 O   0  0  0  0  0  0  0  0  0  0  0  0
   -5.4070   21.5050   -5.7910 O   0  0  0  0  0  0  0  0  0  0  0  0
   -5.3120   24.1200   -7.0710 O   0  0  0  0  0  0  0  0  0  0  0  0
  1  2  1  0
  2  3  1  0
  4  1  1  1
  2  5  1  0
  2  6  1  0
  4  7  1  0
  4  8  1  0
  3  9  1  0
  8 10  1  6
  7 11  1  0
  8 12  1  0
 11 12  1  0
  9 13  1  0
  9 14  1  0
  9 15  1  0
 11 16  1  1
 12 17  1  6
M  CHG  2   5  -1  14  -1
M  END
