5CMS_0_Q_α-4IQY_0_B_β
     RDKit          3D

 18 18  0  0  0  0  0  0  0  0999 V2000
   -0.4320   22.7900   -7.7050 C   0  0  0  0  0  0  0  0  0  0  0  0
   -0.3890   22.3090   -9.1050 C   0  0  1  0  0  0  0  0  0  0  0  0
   -1.7180   21.7140   -9.3440 N   0  0  0  0  0  0  0  0  0  0  0  0
   -0.2230   23.4300  -10.1430 C   0  0  2  0  0  0  0  0  0  0  0  0
    0.4710   24.5210   -9.6630 O   0  0  0  0  0  0  0  0  0  0  0  0
   -1.4280   20.4190   -9.3810 O   0  0  0  0  0  0  0  0  0  0  0  0
   -2.1510   22.3060  -10.5910 C   0  0  2  0  0  0  0  0  0  0  0  0
   -1.6590   23.7080  -10.4820 C   0  0  2  0  0  0  0  0  0  0  0  0
   -3.5520   22.3370  -10.7970 O   0  0  0  0  0  0  0  0  0  0  0  0
   -1.8190   24.5010  -11.6000 O   0  0  0  0  0  0  0  0  0  0  0  0
   -0.7670   19.6760   -8.0250 P   0  0  0  0  0  0  0  0  0  0  0  0
   -1.4380   18.4040   -7.4310 O   0  0  0  0  0  0  0  0  0  0  0  0
    0.6910   20.3320   -7.4340 O   0  0  0  0  0  0  0  0  0  0  0  0
    0.1490   18.7730   -8.8400 O   0  0  0  0  0  0  0  0  0  0  0  0
   -1.5930   17.9520   -5.9180 P   0  0  0  0  0  0  0  0  0  0  0  0
   -0.9190   16.4950   -5.3910 O   0  0  0  0  0  0  0  0  0  0  0  0
   -2.2850   18.9650   -4.8790 O   0  0  0  0  0  0  0  0  0  0  0  0
   -2.8450   17.2390   -6.3900 O   0  0  0  0  0  0  0  0  0  0  0  0
  2  1  1  1
  2  3  1  0
  2  4  1  0
  4  5  1  1
  3  6  1  0
  3  7  1  0
  4  8  1  0
  7  8  1  0
  7  9  1  1
  8 10  1  6
  6 11  1  0
 11 12  1  0
 11 13  1  0
 11 14  1  0
 12 15  1  0
 15 16  1  0
 15 17  1  0
 15 18  1  0
M  CHG  2  13  -1  17  -1
M  END
