5CMS_0_J_δ-5cms_R_17_R_α
     RDKit          3D

 26 28  0  0  0  0  0  0  0  0999 V2000
   -3.9210   15.4260    1.6110 N   0  0  0  0  0  0  0  0  0  0  0  0
   -2.8540   14.7960    0.8460 C   0  0  1  0  0  0  0  0  0  0  0  0
   -2.7160   15.3600   -0.5860 C   0  0  1  0  0  0  0  0  0  0  0  0
   -1.6960   15.1000    1.6410 N   0  0  0  0  0  0  0  0  0  0  0  0
   -1.2670   15.1340   -1.0110 C   0  0  2  0  0  0  0  0  0  0  0  0
   -3.5440   14.7790   -1.6740 N   0  0  0  0  0  0  0  0  0  0  0  0
   -0.4720   14.4680    1.2040 C   0  0  0  0  0  0  0  0  0  0  0  0
   -1.3360   14.5020   -2.3130 N   0  0  0  0  0  0  0  0  0  0  0  0
   -2.6420   14.8000   -2.8410 C   0  0  2  0  0  0  0  0  0  0  0  0
   -0.4750   14.2160   -0.2190 N   0  0  0  0  0  0  0  0  0  0  0  0
   -2.6290   16.1560   -3.5790 C   0  0  0  0  0  0  0  0  0  0  0  0
   -1.5540   16.5400   -4.6390 C   0  0  0  0  0  0  0  0  0  0  0  0
   -2.0470   17.5610   -5.7170 C   0  0  0  0  0  0  0  0  0  0  0  0
   -1.8230   19.0810   -5.4350 C   0  0  0  0  0  0  0  0  0  0  0  0
   -2.5710   20.1480   -6.2970 C   0  0  0  0  0  0  0  0  0  0  0  0
   -3.6490   21.1150   -5.6990 C   0  0  0  0  0  0  0  0  0  0  0  0
   -3.6250   22.5910   -6.2090 C   0  0  0  0  0  0  0  0  0  0  0  0
   -4.7000   22.9630   -7.0650 O   0  0  0  0  0  0  0  0  0  0  0  0
   -4.4260   22.3970   -8.2860 C   0  0  2  0  0  0  0  0  0  0  0  0
   -3.3250   21.5080   -7.9950 O   0  0  0  0  0  0  0  0  0  0  0  0
   -3.8250   23.3390   -9.3210 C   0  0  2  0  0  0  0  0  0  0  0  0
   -4.6600   24.1330  -10.1810 O   0  0  0  0  0  0  0  0  0  0  0  0
   -2.3490   21.8540   -8.9360 C   0  0  2  0  0  0  0  0  0  0  0  0
   -3.5090   22.0310   -9.9030 C   0  0  2  0  0  0  0  0  0  0  0  0
   -1.3440   20.7470   -8.8350 C   0  0  0  0  0  0  0  0  0  0  0  0
   -3.5810   21.9300  -11.3060 O   0  0  0  0  0  0  0  0  0  0  0  0
  2  1  1  1
  2  3  1  0
  2  4  1  0
  3  5  1  0
  3  6  1  6
  4  7  1  0
  5  8  1  6
  6  9  1  0
  8  9  1  0
  5 10  1  0
  7 10  1  0
  9 11  1  1
 11 12  1  0
 12 13  1  0
 13 14  1  0
 14 15  1  0
 15 16  1  0
 16 17  1  0
 17 18  1  0
 19 18  1  1
 19 20  1  0
 19 21  1  0
 21 22  1  6
 20 23  1  0
 21 24  1  0
 23 24  1  0
 23 25  1  6
 24 26  1  6
M  END
