5CMS_0_F_β-5CMS_0_J_γ
     RDKit          3D

 16 16  0  0  0  0  0  0  0  0999 V2000
   -1.5600   20.2790   -8.4180 O   0  0  0  0  0  0  0  0  0  0  0  0
   -0.2230   19.7560   -7.5950 P   0  0  0  0  0  0  0  0  0  0  0  0
   -0.2190   18.3250   -6.7390 O   0  0  0  0  0  0  0  0  0  0  0  0
    0.2080   18.9230   -8.7630 O   0  0  0  0  0  0  0  0  0  0  0  0
    1.0530   20.7000   -7.6110 O   0  0  0  0  0  0  0  0  0  0  0  0
   -1.5570   17.9820   -5.9380 P   0  0  0  0  0  0  0  0  0  0  0  0
   -1.2400   16.4690   -5.6130 O   0  0  0  0  0  0  0  0  0  0  0  0
   -2.8810   17.3380   -6.7460 O   0  0  0  0  0  0  0  0  0  0  0  0
   -1.7240   18.4480   -4.4220 O   0  0  0  0  0  0  0  0  0  0  0  0
   -0.1750   15.7900   -4.9640 C   0  0  1  0  0  0  0  0  0  0  0  0
   -0.2780   15.8410   -3.5790 O   0  0  0  0  0  0  0  0  0  0  0  0
   -0.0960   14.3200   -5.2500 C   0  0  1  0  0  0  0  0  0  0  0  0
    1.1840   13.7540   -5.0430 O   0  0  0  0  0  0  0  0  0  0  0  0
   -1.2990   14.9260   -3.2710 C   0  0  0  0  0  0  0  0  0  0  0  0
   -0.9260   13.6990   -4.1180 C   0  0  1  0  0  0  0  0  0  0  0  0
   -2.0030   13.0640   -4.6780 O   0  0  0  0  0  0  0  0  0  0  0  0
  1  2  1  0
  2  3  1  0
  2  4  1  0
  2  5  1  0
  3  6  1  0
  6  7  1  0
  6  8  1  0
  6  9  1  0
 10  7  1  6
 10 11  1  0
 10 12  1  0
 12 13  1  1
 11 14  1  0
 12 15  1  0
 14 15  1  0
 15 16  1  6
M  CHG  2   4  -1   8  -1
M  END
