5CMS_0_E_γ-5CB5_0_B_α
     RDKit          3D

 21 22  0  0  0  0  0  0  0  0999 V2000
   -0.7090   12.0130   -4.2040 O   0  0  0  0  0  0  0  0  0  0  0  0
   -0.9660   13.4030   -4.2980 C   0  0  1  0  0  0  0  0  0  0  0  0
   -0.7530   14.1480   -2.9850 C   0  0  0  0  0  0  0  0  0  0  0  0
    0.0290   14.0880   -5.2130 C   0  0  2  0  0  0  0  0  0  0  0  0
    1.3250   13.5330   -5.0030 O   0  0  0  0  0  0  0  0  0  0  0  0
   -0.1950   15.4330   -3.3210 O   0  0  0  0  0  0  0  0  0  0  0  0
   -0.2110   15.5310   -4.7590 C   0  0  1  0  0  0  0  0  0  0  0  0
    0.7530   16.6410   -5.1840 C   0  0  0  0  0  0  0  0  0  0  0  0
    0.1500   18.0560   -5.2810 C   0  0  0  0  0  0  0  0  0  0  0  0
    0.2270   18.7590   -6.6560 C   0  0  0  0  0  0  0  0  0  0  0  0
   -1.0920   19.4650   -7.0600 C   0  0  0  0  0  0  0  0  0  0  0  0
   -0.9820   20.5440   -8.1590 C   0  0  0  0  0  0  0  0  0  0  0  0
   -1.7460   21.8520   -7.8330 C   0  0  0  0  0  0  0  0  0  0  0  0
   -3.1000   22.0610   -8.5530 C   0  0  1  0  0  0  0  0  0  0  0  0
   -4.0480   21.1880   -7.9500 O   0  0  0  0  0  0  0  0  0  0  0  0
   -3.6990   23.4680   -8.3910 C   0  0  1  0  0  0  0  0  0  0  0  0
   -4.4780   23.9600   -9.4720 O   0  0  0  0  0  0  0  0  0  0  0  0
   -5.0890   21.9440   -7.3260 C   0  0  2  0  0  0  0  0  0  0  0  0
   -4.5360   23.3290   -7.1300 C   0  0  2  0  0  0  0  0  0  0  0  0
   -5.4250   21.4290   -6.0470 O   0  0  0  0  0  0  0  0  0  0  0  0
   -5.5910   24.2750   -7.0040 O   0  0  0  0  0  0  0  0  0  0  0  0
  2  1  1  1
  2  3  1  0
  2  4  1  0
  4  5  1  1
  3  6  1  0
  4  7  1  0
  6  7  1  0
  7  8  1  1
  8  9  1  0
  9 10  1  0
 10 11  1  0
 11 12  1  0
 12 13  1  0
 14 13  1  1
 14 15  1  0
 14 16  1  0
 16 17  1  6
 15 18  1  0
 16 19  1  0
 18 19  1  0
 18 20  1  1
 19 21  1  6
M  END
