5CMS_0_N_δ-3vfq_B_0_A_γ
     RDKit          3D

 16 18  0  0  0  0  0  0  0  0999 V2000
   -3.5820   15.2170    1.2980 N   0  0  0  0  0  0  0  0  0  0  0  0
   -2.4020   14.5340    0.8090 C   0  0  1  0  0  0  0  0  0  0  0  0
   -2.3960   14.1830   -0.7140 C   0  0  2  0  0  0  0  0  0  0  0  0
   -1.2850   15.3320    1.2700 N   0  0  0  0  0  0  0  0  0  0  0  0
   -0.9740   14.1880   -1.3150 C   0  0  1  0  0  0  0  0  0  0  0  0
   -3.2020   14.9130   -1.6910 N   0  0  0  0  0  0  0  0  0  0  0  0
   -0.0160   14.9070    0.7420 C   0  0  0  0  0  0  0  0  0  0  0  0
   -1.1280   14.4640   -2.7560 N   0  0  0  0  0  0  0  0  0  0  0  0
   -2.5940   14.5830   -2.9930 C   0  0  2  0  0  0  0  0  0  0  0  0
   -0.0320   15.0760   -0.6930 N   0  0  0  0  0  0  0  0  0  0  0  0
   -4.5590   14.3610   -1.6860 C   0  0  0  0  0  0  0  0  0  0  0  0
   -2.8740   15.7050   -3.9980 C   0  0  0  0  0  0  0  0  0  0  0  0
   -3.3190   13.3090   -3.5210 C   0  0  2  0  0  0  0  0  0  0  0  0
   -4.6020   13.1910   -2.6820 C   0  0  1  0  0  0  0  0  0  0  0  0
   -4.6710   11.9120   -2.0480 O   0  0  0  0  0  0  0  0  0  0  0  0
   -2.5270   12.1150   -3.3440 O   0  0  0  0  0  0  0  0  0  0  0  0
  2  1  1  6
  2  3  1  0
  2  4  1  0
  3  5  1  0
  3  6  1  6
  4  7  1  0
  5  8  1  6
  9  6  1  0
  8  9  1  0
  5 10  1  0
  7 10  1  0
  6 11  1  0
  9 12  1  6
  9 13  1  0
 11 14  1  0
 13 14  1  0
 14 15  1  1
 13 16  1  1
M  END
