5cms_N_13_N_β-6MEA_0_A_γ
     RDKit          3D

 18 18  0  0  0  0  0  0  0  0999 V2000
   -1.3240   20.6770   -8.9130 O   0  0  0  0  0  0  0  0  0  0  0  0
   -0.4480   19.8600   -7.8850 P   0  0  0  0  0  0  0  0  0  0  0  0
   -1.3890   19.6160   -6.6520 O   0  0  0  0  0  0  0  0  0  0  0  0
    0.8420   20.5390   -7.6190 O   0  0  0  0  0  0  0  0  0  0  0  0
   -0.3080   18.4820   -8.6640 O   0  0  0  0  0  0  0  0  0  0  0  0
   -1.7850   18.1880   -6.1680 P   0  0  2  0  0  0  0  0  0  0  0  0
   -0.4210   17.3990   -6.3370 O   0  0  0  0  0  0  0  0  0  0  0  0
   -2.9350   17.5490   -6.8260 O   0  0  0  0  0  0  0  0  0  0  0  0
   -1.8670   18.3220   -4.5790 O   0  0  0  0  0  0  0  0  0  0  0  0
    0.6570   17.7750   -5.5150 C   0  0  0  0  0  0  0  0  0  0  0  0
    1.1060   16.5490   -4.7440 C   0  0  0  0  0  0  0  0  0  0  0  0
   -0.0420   15.6960   -4.2610 C   0  0  2  0  0  0  0  0  0  0  0  0
    0.0660   15.4090   -2.8500 O   0  0  0  0  0  0  0  0  0  0  0  0
   -0.1740   14.3190   -4.9160 C   0  0  1  0  0  0  0  0  0  0  0  0
    1.0040   13.5090   -4.8270 O   0  0  0  0  0  0  0  0  0  0  0  0
   -0.7720   14.2490   -2.6400 C   0  0  0  0  0  0  0  0  0  0  0  0
   -1.2680   13.7910   -4.0120 C   0  0  2  0  0  0  0  0  0  0  0  0
   -1.3520   12.3690   -4.0690 O   0  0  0  0  0  0  0  0  0  0  0  0
  1  2  1  0
  2  3  1  0
  2  4  2  0
  2  5  1  0
  3  6  1  0
  6  7  1  0
  6  8  2  0
  6  9  1  1
  7 10  1  0
 10 11  1  0
 12 11  1  6
 12 13  1  0
 12 14  1  0
 14 15  1  1
 13 16  1  0
 14 17  1  0
 16 17  1  0
 17 18  1  1
M  END
