5CMS_0_A_γ-5cms_D_3_D_β
     RDKit          3D

  8  8  0  0  0  0  0  0  0  0999 V2000
   -0.4720   11.9710   -4.0020 O   0  0  0  0  0  0  0  0  0  0  0  0
   -0.8980   13.3160   -4.2200 C   0  0  1  0  0  0  0  0  0  0  0  0
   -0.7450   14.1650   -2.9590 C   0  0  0  0  0  0  0  0  0  0  0  0
    0.0430   14.0100   -5.1810 C   0  0  2  0  0  0  0  0  0  0  0  0
    1.3680   13.5130   -5.0390 O   0  0  0  0  0  0  0  0  0  0  0  0
   -0.2430   15.4580   -3.3630 O   0  0  0  0  0  0  0  0  0  0  0  0
   -0.2240   15.4660   -4.7950 C   0  0  1  0  0  0  0  0  0  0  0  0
    0.7200   16.5460   -5.2950 C   0  0  0  0  0  0  0  0  0  0  0  0
  2  1  1  1
  2  3  1  0
  2  4  1  0
  4  5  1  1
  3  6  1  0
  4  7  1  0
  6  7  1  0
  7  8  1  1
M  END
