5CMS_0_F_δ-mArh-x0587_0_A_α
     RDKit          3D

 22 24  0  0  0  0  0  0  0  0999 V2000
   -3.5560   15.2670    1.8210 N   0  0  0  0  0  0  0  0  0  0  0  0
   -2.3610   15.3230    1.0190 C   0  0  2  0  0  0  0  0  0  0  0  0
   -2.4780   14.6800   -0.3440 C   0  0  2  0  0  0  0  0  0  0  0  0
   -1.3110   14.7100    1.7670 N   0  0  0  0  0  0  0  0  0  0  0  0
   -1.1310   15.0730   -0.9250 C   0  0  2  0  0  0  0  0  0  0  0  0
   -3.3730   15.2070   -1.3670 N   0  0  0  0  0  0  0  0  0  0  0  0
   -0.0390   14.4810    1.1340 C   0  0  0  0  0  0  0  0  0  0  0  0
   -1.2880   14.6820   -2.2940 N   0  0  0  0  0  0  0  0  0  0  0  0
   -2.6210   15.2000   -2.6060 C   0  0  0  0  0  0  0  0  0  0  0  0
   -0.0290   14.4010   -0.3120 N   0  0  0  0  0  0  0  0  0  0  0  0
   -4.6690   14.5530   -1.5240 C   0  0  0  0  0  0  0  0  0  0  0  0
   -4.4210   13.2620   -1.9120 F   0  0  0  0  0  0  0  0  0  0  0  0
   -5.2090   15.1240   -2.6420 F   0  0  0  0  0  0  0  0  0  0  0  0
   -5.6630   14.6180   -0.3370 C   0  0  0  0  0  0  0  0  0  0  0  0
   -6.9930   14.5330   -0.6020 N   0  0  0  0  0  0  0  0  0  0  0  0
   -5.1650   14.7620    0.9070 N   0  0  0  0  0  0  0  0  0  0  0  0
   -7.8380   14.6120    0.4550 C   0  0  0  0  0  0  0  0  0  0  0  0
   -6.0500   14.8350    1.9190 C   0  0  0  0  0  0  0  0  0  0  0  0
   -7.4100   14.7710    1.7570 C   0  0  0  0  0  0  0  0  0  0  0  0
   -8.3660   14.8740    2.8650 C   0  0  0  0  0  0  0  0  0  0  0  0
   -7.8610   14.8250    4.1340 N   0  0  0  0  0  0  0  0  0  0  0  0
   -9.5640   15.0130    2.6610 O   0  0  0  0  0  0  0  0  0  0  0  0
  2  1  1  1
  2  3  1  0
  2  4  1  0
  3  5  1  0
  3  6  1  6
  4  7  1  0
  5  8  1  6
  6  9  1  0
  8  9  1  0
  5 10  1  0
  7 10  1  0
  6 11  1  0
 11 12  1  0
 11 13  1  0
 11 14  1  0
 14 15  2  0
 14 16  1  0
 15 17  1  0
 16 18  2  0
 17 19  2  0
 18 19  1  0
 19 20  1  0
 20 21  1  0
 20 22  2  0
M  END
