5cms_K_10_K_β-5CB5_0_K_γ
     RDKit          3D

 16 16  0  0  0  0  0  0  0  0999 V2000
   -1.6120   20.2730   -8.2950 O   0  0  0  0  0  0  0  0  0  0  0  0
   -0.1890   19.7730   -7.8040 P   0  0  0  0  0  0  0  0  0  0  0  0
   -0.4090   19.1500   -6.3850 O   0  0  0  0  0  0  0  0  0  0  0  0
    0.8410   20.8310   -7.8460 O   0  0  0  0  0  0  0  0  0  0  0  0
    0.0900   18.5450   -8.7880 O   0  0  0  0  0  0  0  0  0  0  0  0
   -1.4000   17.9860   -6.0420 P   0  0  2  0  0  0  0  0  0  0  0  0
   -0.4010   16.8150   -5.5870 O   0  0  0  0  0  0  0  0  0  0  0  0
   -2.4770   17.6690   -7.0100 O   0  0  0  0  0  0  0  0  0  0  0  0
   -1.9910   18.5820   -4.6950 O   0  0  0  0  0  0  0  0  0  0  0  0
   -0.8590   15.7450   -4.8040 C   0  0  2  0  0  0  0  0  0  0  0  0
   -0.4430   15.8520   -3.4460 O   0  0  0  0  0  0  0  0  0  0  0  0
   -0.3810   14.3410   -5.1920 C   0  0  1  0  0  0  0  0  0  0  0  0
    1.0450   14.1110   -5.1360 O   0  0  0  0  0  0  0  0  0  0  0  0
   -0.7160   14.5650   -2.8680 C   0  0  0  0  0  0  0  0  0  0  0  0
   -0.9970   13.6080   -4.0290 C   0  0  2  0  0  0  0  0  0  0  0  0
   -0.4170   12.3290   -3.8640 O   0  0  0  0  0  0  0  0  0  0  0  0
  1  2  1  0
  2  3  1  0
  2  4  2  0
  2  5  1  0
  3  6  1  0
  6  7  1  0
  6  8  2  0
  6  9  1  1
 10  7  1  6
 10 11  1  0
 10 12  1  0
 12 13  1  1
 11 14  1  0
 12 15  1  0
 14 15  1  0
 15 16  1  1
M  END
