5CMS_0_F_Î³
     RDKit          3D

  8  8  0  0  0  0  0  0  0  0999 V2000
   -0.4720   14.4350   -2.9740 C   0  0  0  0  0  0  0  0  0  0  0  0
    0.2900   15.5740   -3.3180 O   0  0  0  0  0  0  0  0  0  0  0  0
   -1.0920   13.9410   -4.2760 C   0  0  1  0  0  0  0  0  0  0  0  0
    0.5190   15.6200   -4.7170 C   0  0  1  0  0  0  0  0  0  0  0  0
   -0.0250   14.3170   -5.2370 C   0  0  1  0  0  0  0  0  0  0  0  0
   -1.2000   12.5110   -4.2960 O   0  0  0  0  0  0  0  0  0  0  0  0
   -0.1130   16.9200   -5.1810 C   0  0  0  0  0  0  0  0  0  0  0  0
    0.9940   13.3120   -5.1030 O   0  0  0  0  0  0  0  0  0  0  0  0
  1  2  1  1
  1  3  1  0
  4  2  1  0
  5  3  1  0
  3  6  1  1
  4  7  1  6
  4  5  1  0
  5  8  1  1
M  END
