5CMS_0_R_δ-mArh-x0864_0_A_α
     RDKit          3D

 23 25  0  0  0  0  0  0  0  0999 V2000
   -3.8740   15.4060    1.4700 N   0  0  0  0  0  0  0  0  0  0  0  0
   -2.7030   14.6440    1.0670 C   0  0  1  0  0  0  0  0  0  0  0  0
   -2.5710   14.2570   -0.4390 C   0  0  2  0  0  0  0  0  0  0  0  0
   -1.5360   15.2800    1.5710 N   0  0  0  0  0  0  0  0  0  0  0  0
   -1.1100   14.2870   -0.9420 C   0  0  1  0  0  0  0  0  0  0  0  0
   -3.3190   15.1050   -1.4040 N   0  0  0  0  0  0  0  0  0  0  0  0
   -0.3450   14.5520    1.2740 C   0  0  0  0  0  0  0  0  0  0  0  0
   -1.1620   15.0060   -2.1940 N   0  0  0  0  0  0  0  0  0  0  0  0
   -2.5460   14.8840   -2.6300 C   0  0  0  0  0  0  0  0  0  0  0  0
   -0.0730   14.8320   -0.0910 N   0  0  0  0  0  0  0  0  0  0  0  0
   -0.1620   14.4650   -3.0570 C   0  0  0  0  0  0  0  0  0  0  0  0
    0.2430   13.1830   -2.5160 N   0  0  0  0  0  0  0  0  0  0  0  0
    0.6250   12.3400   -3.3450 C   0  0  0  0  0  0  0  0  0  0  0  0
    0.7600   12.5340   -4.8330 C   0  0  0  0  0  0  0  0  0  0  0  0
    0.9330   11.1520   -2.8300 O   0  0  0  0  0  0  0  0  0  0  0  0
   -0.1400   11.7100   -5.6080 N   0  0  0  0  0  0  0  0  0  0  0  0
   -1.2660   11.1540   -5.0250 C   0  0  0  0  0  0  0  0  0  0  0  0
    0.4600   11.1650   -6.7160 C   0  0  0  0  0  0  0  0  0  0  0  0
    1.5200   11.5660   -7.1620 O   0  0  0  0  0  0  0  0  0  0  0  0
   -1.8640   10.0960   -5.5830 C   0  0  0  0  0  0  0  0  0  0  0  0
   -0.2240   10.0310   -7.3550 C   0  0  0  0  0  0  0  0  0  0  0  0
   -1.3330    9.5300   -6.8000 C   0  0  0  0  0  0  0  0  0  0  0  0
   -2.2340    8.0920   -7.5680 Br  0  0  0  0  0  0  0  0  0  0  0  0
  2  1  1  6
  2  3  1  0
  2  4  1  0
  3  5  1  0
  3  6  1  6
  4  7  1  0
  5  8  1  0
  6  9  1  0
  8  9  1  0
  5 10  1  1
  7 10  1  0
  8 11  1  0
 11 12  1  0
 12 13  2  3
 13 14  1  0
 13 15  1  0
 14 16  1  0
 16 17  1  0
 16 18  1  0
 18 19  2  0
 17 20  2  0
 18 21  1  0
 20 22  1  0
 21 22  2  0
 22 23  1  0
M  END
