5cms_C_2_C_γ-4gvw_0_A_α
     RDKit          3D

 22 23  0  0  0  0  0  0  0  0999 V2000
   -0.9870   12.0490   -3.9630 O   0  0  0  0  0  0  0  0  0  0  0  0
   -1.2450   13.4410   -4.0680 C   0  0  1  0  0  0  0  0  0  0  0  0
   -0.8900   14.2340   -2.8170 C   0  0  0  0  0  0  0  0  0  0  0  0
   -0.3520   14.0410   -5.1330 C   0  0  2  0  0  0  0  0  0  0  0  0
    0.9340   13.4090   -5.1140 O   0  0  0  0  0  0  0  0  0  0  0  0
   -0.2470   15.4440   -3.2430 O   0  0  0  0  0  0  0  0  0  0  0  0
   -0.2960   15.5050   -4.6850 C   0  0  1  0  0  0  0  0  0  0  0  0
    0.9060   16.3150   -5.1490 C   0  0  0  0  0  0  0  0  0  0  0  0
    0.6200   17.7630   -5.5700 C   0  0  0  0  0  0  0  0  0  0  0  0
   -0.8590   18.0840   -5.7690 C   0  0  0  0  0  0  0  0  0  0  0  0
   -0.9930   19.4500   -6.2920 N   0  0  0  0  0  0  0  0  0  0  0  0
   -0.2280   19.8650   -7.7600 S   0  0  1  0  0  0  0  0  0  0  0  0
    0.9830   20.5910   -7.4450 O   0  0  0  0  0  0  0  0  0  0  0  0
   -0.1980   18.7020   -8.6550 O   0  0  0  0  0  0  0  0  0  0  0  0
   -1.3890   21.0960   -8.3500 C   0  0  0  0  0  0  0  0  0  0  0  0
   -2.1360   21.7770   -7.2270 C   0  0  0  0  0  0  0  0  0  0  0  0
   -3.5390   22.1630   -7.4190 N   0  0  0  0  0  0  0  0  0  0  0  0
   -3.8590   23.3080   -6.5740 C   0  0  0  0  0  0  0  0  0  0  0  0
   -3.9350   22.4340   -8.8070 C   0  0  0  0  0  0  0  0  0  0  0  0
   -5.3170   23.6850   -6.7250 C   0  0  0  0  0  0  0  0  0  0  0  0
   -5.4120   22.8500   -8.9340 C   0  0  0  0  0  0  0  0  0  0  0  0
   -5.7300   23.9320   -8.0710 O   0  0  0  0  0  0  0  0  0  0  0  0
  2  1  1  1
  2  3  1  0
  2  4  1  0
  4  5  1  1
  3  6  1  0
  4  7  1  0
  6  7  1  0
  7  8  1  6
  8  9  1  0
  9 10  1  0
 10 11  1  0
 11 12  2  0
 12 13  2  0
 12 14  1  6
 12 15  1  0
 15 16  1  0
 16 17  1  0
 17 18  1  0
 17 19  1  0
 18 20  1  0
 19 21  1  0
 20 22  1  0
 21 22  1  0
M  CHG  1  14  -1
M  END
