5CMS_0_A_γ-x0681_0_A_α
     RDKit          3D

 20 22  0  0  0  0  0  0  0  0999 V2000
   -0.4110   12.0560   -3.4980 O   0  0  0  0  0  0  0  0  0  0  0  0
   -1.0390   13.2480   -3.9650 C   0  0  1  0  0  0  0  0  0  0  0  0
   -1.2380   14.3300   -2.8480 C   0  0  2  0  0  0  0  0  0  0  0  0
   -0.1490   13.9410   -5.0010 C   0  0  2  0  0  0  0  0  0  0  0  0
    1.2050   13.4590   -4.8900 O   0  0  0  0  0  0  0  0  0  0  0  0
   -2.6010   14.8220   -3.0730 N   0  0  0  0  0  0  0  0  0  0  0  0
   -0.2430   15.3340   -3.1360 O   0  0  0  0  0  0  0  0  0  0  0  0
   -0.2620   15.4010   -4.5710 C   0  0  1  0  0  0  0  0  0  0  0  0
    0.8030   16.3510   -5.0890 C   0  0  0  0  0  0  0  0  0  0  0  0
   -3.6450   14.9750   -2.2930 C   0  0  0  0  0  0  0  0  0  0  0  0
   -4.8050   15.4560   -2.8090 N   0  0  0  0  0  0  0  0  0  0  0  0
   -3.8880   14.6960   -0.7920 C   0  0  1  0  0  0  0  0  0  0  0  0
   -4.8310   13.5520   -0.6790 C   0  0  0  0  0  0  0  0  0  0  0  0
   -2.8360   14.5990    0.2950 C   0  0  0  0  0  0  0  0  0  0  0  0
   -5.2350   13.1590    0.5370 N   0  0  0  0  0  0  0  0  0  0  0  0
   -3.5830   14.7340    1.6310 C   0  0  0  0  0  0  0  0  0  0  0  0
   -5.3820   12.8090   -1.6190 N   0  0  0  0  0  0  0  0  0  0  0  0
   -4.7870   13.7730    1.7510 C   0  0  0  0  0  0  0  0  0  0  0  0
   -6.0950   12.1200    0.4090 C   0  0  0  0  0  0  0  0  0  0  0  0
   -6.1770   11.9100   -0.9460 C   0  0  0  0  0  0  0  0  0  0  0  0
  2  1  1  1
  2  3  1  0
  2  4  1  0
  4  5  1  1
  3  6  1  6
  3  7  1  0
  4  8  1  0
  7  8  1  0
  8  9  1  6
  6 10  2  3
 10 11  1  0
 12 10  1  6
 12 13  1  0
 12 14  1  0
 13 15  1  0
 14 16  1  0
 13 17  2  0
 15 18  1  0
 16 18  1  0
 15 19  1  0
 17 20  1  0
 19 20  2  0
M  END
