5cms_P_15_P_β-5CMS_0_D_β
     RDKit          3D

 16 16  0  0  0  0  0  0  0  0999 V2000
   -1.1320   20.6190   -8.5570 O   0  0  0  0  0  0  0  0  0  0  0  0
   -0.2140   19.6560   -7.7000 P   0  0  0  0  0  0  0  0  0  0  0  0
   -1.1560   19.3120   -6.4900 O   0  0  0  0  0  0  0  0  0  0  0  0
    1.1030   20.2280   -7.3690 O   0  0  0  0  0  0  0  0  0  0  0  0
   -0.1430   18.3930   -8.6630 O   0  0  0  0  0  0  0  0  0  0  0  0
   -1.6000   17.8740   -6.0250 P   0  0  2  0  0  0  0  0  0  0  0  0
   -0.3430   16.8990   -5.7520 O   0  0  0  0  0  0  0  0  0  0  0  0
   -2.7540   17.3110   -6.7550 O   0  0  0  0  0  0  0  0  0  0  0  0
   -1.9440   18.2280   -4.5240 O   0  0  0  0  0  0  0  0  0  0  0  0
   -0.6100   15.8350   -4.8350 C   0  0  2  0  0  0  0  0  0  0  0  0
    0.0260   15.9200   -3.5470 O   0  0  0  0  0  0  0  0  0  0  0  0
   -0.2830   14.3910   -5.2460 C   0  0  1  0  0  0  0  0  0  0  0  0
    1.1130   14.0360   -5.2490 O   0  0  0  0  0  0  0  0  0  0  0  0
   -0.2940   14.6510   -2.9220 C   0  0  0  0  0  0  0  0  0  0  0  0
   -0.9000   13.7670   -4.0220 C   0  0  2  0  0  0  0  0  0  0  0  0
   -0.5760   12.3940   -3.9300 O   0  0  0  0  0  0  0  0  0  0  0  0
  1  2  1  0
  2  3  1  0
  2  4  2  0
  2  5  1  0
  3  6  1  0
  6  7  1  0
  6  8  2  0
  6  9  1  1
 10  7  1  6
 10 11  1  0
 10 12  1  0
 12 13  1  1
 11 14  1  0
 12 15  1  0
 14 15  1  0
 15 16  1  1
M  END
