5CMS_0_B_γ-6fx_7_0A_β
     RDKit          3D

 16 16  0  0  0  0  0  0  0  0999 V2000
   -0.9840   12.2700   -3.8680 O   0  0  0  0  0  0  0  0  0  0  0  0
   -0.1410   13.4060   -3.9030 C   0  0  2  0  0  0  0  0  0  0  0  0
   -0.3230   14.3540   -2.7240 C   0  0  0  0  0  0  0  0  0  0  0  0
   -0.3980   14.2880   -5.1210 C   0  0  2  0  0  0  0  0  0  0  0  0
    0.8210   14.2280   -5.8720 O   0  0  0  0  0  0  0  0  0  0  0  0
   -0.0110   15.6540   -3.2330 O   0  0  0  0  0  0  0  0  0  0  0  0
   -0.6730   15.6850   -4.5140 C   0  0  1  0  0  0  0  0  0  0  0  0
   -0.1810   16.9080   -5.3020 C   0  0  0  0  0  0  0  0  0  0  0  0
   -1.4290   18.1440   -5.7880 P   0  0  2  0  0  0  0  0  0  0  0  0
   -0.6970   19.3670   -6.4670 O   0  0  0  0  0  0  0  0  0  0  0  0
   -2.1580   18.6410   -4.6130 O   0  0  0  0  0  0  0  0  0  0  0  0
   -2.4610   17.5480   -6.8710 O   0  0  0  0  0  0  0  0  0  0  0  0
   -0.3370   19.7640   -7.9140 P   0  0  0  0  0  0  0  0  0  0  0  0
   -1.5810   20.6490   -8.3620 O   0  0  0  0  0  0  0  0  0  0  0  0
    0.0290   18.6890   -8.8550 O   0  0  0  0  0  0  0  0  0  0  0  0
    0.7630   20.9090   -7.7470 O   0  0  0  0  0  0  0  0  0  0  0  0
  2  1  1  1
  2  3  1  0
  2  4  1  0
  4  5  1  6
  3  6  1  0
  4  7  1  0
  6  7  1  0
  7  8  1  6
  8  9  1  0
  9 10  1  0
  9 11  2  0
  9 12  1  6
 10 13  1  0
 13 14  1  0
 13 15  2  0
 13 16  1  0
M  END
