5CMS_0_G_Î³
     RDKit          3D

 10 11  0  0  0  0  0  0  0  0999 V2000
   -1.7820   14.7820   -1.8400 N   0  0  0  0  0  0  0  0  0  0  0  0
   -1.4630   14.9660   -0.5640 C   0  0  0  0  0  0  0  0  0  0  0  0
   -3.1400   14.8800   -1.9980 C   0  0  0  0  0  0  0  0  0  0  0  0
   -0.2970   14.9790    0.1610 N   0  0  0  0  0  0  0  0  0  0  0  0
   -2.7550   15.1910    0.1210 C   0  0  0  0  0  0  0  0  0  0  0  0
   -3.7540   15.1280   -0.7950 N   0  0  0  0  0  0  0  0  0  0  0  0
   -0.3040   15.1830    1.5140 C   0  0  0  0  0  0  0  0  0  0  0  0
   -2.6690   15.4170    1.5750 C   0  0  0  0  0  0  0  0  0  0  0  0
   -1.4600   15.4010    2.2120 N   0  0  0  0  0  0  0  0  0  0  0  0
   -3.8170   15.6230    2.2150 N   0  0  0  0  0  0  0  0  0  0  0  0
  1  2  1  0
  1  3  1  0
  4  2  1  0
  2  5  1  0
  6  3  1  0
  7  4  1  0
  8  5  1  0
  5  6  1  0
  9  7  1  0
  9  8  1  0
  8 10  1  0
M  END
