5cms_F_6_F_α-5dus_0_A_β
     RDKit          3D

 17 17  0  0  0  0  0  0  0  0999 V2000
   -1.7740   21.4890   -8.6130 C   0  0  0  0  0  0  0  0  0  0  0  0
   -0.5930   20.3290   -7.8680 P   0  0  2  0  0  0  0  0  0  0  0  0
   -1.2000   19.8780   -6.4620 O   0  0  0  0  0  0  0  0  0  0  0  0
   -1.5290   21.9940  -10.0420 C   0  0  1  0  0  0  0  0  0  0  0  0
    0.8010   20.8460   -7.7250 O   0  0  0  0  0  0  0  0  0  0  0  0
   -0.6260   18.9350   -8.6740 O   0  0  0  0  0  0  0  0  0  0  0  0
   -2.7900   22.3320  -10.6450 O   0  0  0  0  0  0  0  0  0  0  0  0
   -0.6420   23.2680  -10.1790 C   0  0  1  0  0  0  0  0  0  0  0  0
    0.4440   23.2150  -11.0810 O   0  0  0  0  0  0  0  0  0  0  0  0
   -1.6300   18.4140   -6.0000 P   0  0  0  0  0  0  0  0  0  0  0  0
   -2.9580   23.7070  -10.3550 C   0  0  1  0  0  0  0  0  0  0  0  0
   -1.5860   24.3460  -10.6410 C   0  0  2  0  0  0  0  0  0  0  0  0
   -4.0370   24.2610  -11.0750 O   0  0  0  0  0  0  0  0  0  0  0  0
   -1.4600   24.7520  -12.0180 O   0  0  0  0  0  0  0  0  0  0  0  0
   -0.3030   17.5500   -5.8560 O   0  0  0  0  0  0  0  0  0  0  0  0
   -2.7040   17.7110   -6.7450 O   0  0  0  0  0  0  0  0  0  0  0  0
   -1.9320   18.6800   -4.4660 O   0  0  0  0  0  0  0  0  0  0  0  0
  1  2  1  0
  2  3  1  0
  4  1  1  1
  2  5  2  0
  2  6  1  6
  4  7  1  0
  4  8  1  0
  8  9  1  6
  3 10  1  0
  7 11  1  0
  8 12  1  0
 11 12  1  0
 11 13  1  6
 12 14  1  6
 10 15  1  0
 10 16  2  0
 10 17  1  0
M  END
