5cms_A_0_A_β-5CMS_0_J_δ
     RDKit          3D

 21 22  0  0  0  0  0  0  0  0999 V2000
   -1.6730   20.2180   -8.1190 O   0  0  0  0  0  0  0  0  0  0  0  0
   -0.2220   19.6860   -7.7390 P   0  0  0  0  0  0  0  0  0  0  0  0
   -0.3990   18.8050   -6.4250 O   0  0  0  0  0  0  0  0  0  0  0  0
    0.7790   20.7830   -7.7030 O   0  0  0  0  0  0  0  0  0  0  0  0
    0.0480   18.6100   -8.8790 O   0  0  0  0  0  0  0  0  0  0  0  0
   -1.8000   18.2480   -5.9320 P   0  0  2  0  0  0  0  0  0  0  0  0
   -1.5630   17.5640   -4.5130 O   0  0  0  0  0  0  0  0  0  0  0  0
   -2.5880   17.4300   -6.8910 O   0  0  0  0  0  0  0  0  0  0  0  0
   -2.5300   19.5320   -5.3530 O   0  0  0  0  0  0  0  0  0  0  0  0
   -1.6650   16.1480   -4.4070 C   0  0  0  0  0  0  0  0  0  0  0  0
   -1.1210   15.6340   -3.0490 C   0  0  0  0  0  0  0  0  0  0  0  0
   -1.9640   14.5810   -2.4280 N   0  0  0  0  0  0  0  0  0  0  0  0
   -1.8330   14.4590   -0.9760 C   0  0  2  0  0  0  0  0  0  0  0  0
   -3.4210   14.8580   -2.5920 C   0  0  0  0  0  0  0  0  0  0  0  0
   -2.8700   15.4660   -0.5160 C   0  0  1  0  0  0  0  0  0  0  0  0
   -4.0290   14.9890   -1.2590 N   0  0  0  0  0  0  0  0  0  0  0  0
   -0.5020   14.6740   -0.4360 N   0  0  0  0  0  0  0  0  0  0  0  0
   -0.5730   14.9170    1.0000 C   0  0  0  0  0  0  0  0  0  0  0  0
   -2.8970   15.5180    0.9950 C   0  0  1  0  0  0  0  0  0  0  0  0
   -4.2030   15.3160    1.6020 N   0  0  0  0  0  0  0  0  0  0  0  0
   -1.8960   14.6320    1.5410 N   0  0  0  0  0  0  0  0  0  0  0  0
  1  2  1  0
  2  3  1  0
  2  4  2  0
  2  5  1  0
  3  6  1  0
  6  7  1  0
  6  8  2  0
  6  9  1  1
  7 10  1  0
 10 11  1  0
 11 12  1  0
 12 13  1  0
 12 14  1  0
 13 15  1  0
 14 16  1  0
 15 16  1  1
 13 17  1  6
 17 18  1  0
 15 19  1  0
 19 20  1  1
 18 21  1  0
 19 21  1  0
M  END
