5cms_P_15_P_γ-x1018_0_A_α
     RDKit          3D

 19 21  0  0  0  0  0  0  0  0999 V2000
   -1.2680   12.4810   -3.8530 O   0  0  0  0  0  0  0  0  0  0  0  0
   -1.3650   13.5680   -4.7730 C   0  0  1  0  0  0  0  0  0  0  0  0
   -1.8140   14.9280   -4.2200 C   0  0  1  0  0  0  0  0  0  0  0  0
    0.0570   13.9340   -5.2300 C   0  0  2  0  0  0  0  0  0  0  0  0
    1.0420   13.1420   -4.5800 O   0  0  0  0  0  0  0  0  0  0  0  0
   -3.1060   15.1660   -3.4430 C   0  0  0  0  0  0  0  0  0  0  0  0
   -0.6400   15.5270   -3.6910 O   0  0  0  0  0  0  0  0  0  0  0  0
    0.0730   15.4440   -4.9190 C   0  0  1  0  0  0  0  0  0  0  0  0
    1.3510   16.1920   -4.8280 C   0  0  0  0  0  0  0  0  0  0  0  0
   -3.5220   14.3940   -2.2940 N   0  0  0  0  0  0  0  0  0  0  0  0
   -3.0870   14.8700   -0.9920 N   0  0  0  0  0  0  0  0  0  0  0  0
   -4.9440   14.2740   -2.3020 N   0  0  0  0  0  0  0  0  0  0  0  0
   -5.2780   14.6650   -1.0270 N   0  0  0  0  0  0  0  0  0  0  0  0
   -4.1640   14.2880   -0.1920 C   0  0  2  0  0  0  0  0  0  0  0  0
   -6.5700   14.5120   -0.6550 N   0  0  0  0  0  0  0  0  0  0  0  0
   -4.4090   14.7780    1.1770 C   0  0  0  0  0  0  0  0  0  0  0  0
   -6.7570   14.6460    0.6180 C   0  0  0  0  0  0  0  0  0  0  0  0
   -5.6700   14.9490    1.5960 C   0  0  0  0  0  0  0  0  0  0  0  0
   -8.3860   14.4760    1.1630 Cl  0  0  0  0  0  0  0  0  0  0  0  0
  2  1  1  1
  2  3  1  0
  2  4  1  0
  4  5  1  1
  3  6  1  1
  3  7  1  0
  4  8  1  0
  7  8  1  0
  8  9  1  1
  6 10  1  0
 10 11  1  0
 10 12  1  0
 12 13  1  0
 11 14  1  0
 13 14  1  0
 13 15  1  0
 14 16  1  1
 15 17  2  0
 16 18  2  0
 17 18  1  0
 17 19  1  0
M  END
