5CMS_0_J_γ-5CB5_0_B_β
     RDKit          3D

 16 16  0  0  0  0  0  0  0  0999 V2000
   -2.0110   12.7660   -4.2730 O   0  0  0  0  0  0  0  0  0  0  0  0
   -0.7930   13.3880   -4.0040 C   0  0  2  0  0  0  0  0  0  0  0  0
   -0.8760   14.4050   -2.8670 C   0  0  0  0  0  0  0  0  0  0  0  0
   -0.2900   14.2020   -5.1710 C   0  0  2  0  0  0  0  0  0  0  0  0
    1.0780   13.9460   -5.2170 O   0  0  0  0  0  0  0  0  0  0  0  0
   -0.2210   15.5360   -3.3760 O   0  0  0  0  0  0  0  0  0  0  0  0
   -0.6590   15.5640   -4.6800 C   0  0  1  0  0  0  0  0  0  0  0  0
   -0.2260   16.8580   -5.4030 C   0  0  0  0  0  0  0  0  0  0  0  0
   -1.5510   18.0040   -5.7010 P   0  0  0  0  0  0  0  0  0  0  0  0
   -0.8210   19.2590   -6.2040 O   0  0  0  0  0  0  0  0  0  0  0  0
   -2.4400   18.0660   -7.1490 O   0  0  0  0  0  0  0  0  0  0  0  0
   -2.0840   18.9550   -4.5410 O   0  0  0  0  0  0  0  0  0  0  0  0
   -0.1310   19.5880   -7.5990 P   0  0  0  0  0  0  0  0  0  0  0  0
   -1.3840   20.2460   -8.1920 O   0  0  0  0  0  0  0  0  0  0  0  0
    0.6710   21.0430   -7.8130 O   0  0  0  0  0  0  0  0  0  0  0  0
   -0.0260   18.4460   -8.7660 O   0  0  0  0  0  0  0  0  0  0  0  0
  2  1  1  6
  2  3  1  0
  2  4  1  0
  4  5  1  1
  3  6  1  0
  4  7  1  0
  6  7  1  0
  7  8  1  6
  8  9  1  0
  9 10  1  0
  9 11  1  0
  9 12  1  0
 10 13  1  0
 13 14  1  0
 13 15  1  0
 13 16  1  0
M  CHG  2  11  -1  15  -1
M  END
