5CMS_0_F_γ-4IQY_0_B_δ
     RDKit          3D

 17 19  0  0  0  0  0  0  0  0999 V2000
   -1.4160   12.5540   -3.5720 O   0  0  0  0  0  0  0  0  0  0  0  0
   -0.6090   13.7040   -3.3540 C   0  0  2  0  0  0  0  0  0  0  0  0
   -1.2700   14.9050   -2.6220 C   0  0  2  0  0  0  0  0  0  0  0  0
   -0.1550   14.2360   -4.7200 C   0  0  2  0  0  0  0  0  0  0  0  0
    1.1820   13.8420   -5.0020 O   0  0  0  0  0  0  0  0  0  0  0  0
   -0.6710   16.0610   -3.2670 O   0  0  0  0  0  0  0  0  0  0  0  0
   -0.4190   15.7450   -4.6510 C   0  0  1  0  0  0  0  0  0  0  0  0
   -1.1330   15.1580   -1.0740 C   0  0  1  0  0  0  0  0  0  0  0  0
   -2.8280   14.8690   -2.7630 C   0  0  0  0  0  0  0  0  0  0  0  0
    0.6710   16.6700   -5.1650 C   0  0  0  0  0  0  0  0  0  0  0  0
   -2.5880   15.4850   -0.6390 C   0  0  1  0  0  0  0  0  0  0  0  0
   -3.4070   14.5820   -1.4280 N   0  0  0  0  0  0  0  0  0  0  0  0
   -0.4640   14.2000   -0.1980 N   0  0  0  0  0  0  0  0  0  0  0  0
   -0.4770   14.6880    1.1600 C   0  0  0  0  0  0  0  0  0  0  0  0
   -2.7520   15.5290    0.9000 C   0  0  1  0  0  0  0  0  0  0  0  0
   -4.0910   15.2220    1.3680 N   0  0  0  0  0  0  0  0  0  0  0  0
   -1.8320   14.7220    1.6620 N   0  0  0  0  0  0  0  0  0  0  0  0
  2  1  1  6
  2  3  1  0
  2  4  1  0
  4  5  1  1
  3  6  1  0
  4  7  1  0
  6  7  1  0
  3  8  1  0
  3  9  1  1
  7 10  1  1
  8 11  1  0
  9 12  1  0
 11 12  1  1
  8 13  1  1
 13 14  1  0
 11 15  1  0
 15 16  1  6
 14 17  1  0
 15 17  1  0
M  END
