5CMS_0_N_δ-EU0144_0_A_α
     RDKit          3D

 18 20  0  0  0  0  0  0  0  0999 V2000
   -3.6910   14.5650    1.1610 N   0  0  0  0  0  0  0  0  0  0  0  0
   -2.4440   15.2800    0.8160 C   0  0  2  0  0  0  0  0  0  0  0  0
   -2.0880   15.5420   -0.6910 C   0  0  1  0  0  0  0  0  0  0  0  0
   -4.9000   14.5650    0.5400 C   0  0  0  0  0  0  0  0  0  0  0  0
   -1.2170   14.8190    1.4390 N   0  0  0  0  0  0  0  0  0  0  0  0
   -6.0150   14.7600    1.3110 O   0  0  0  0  0  0  0  0  0  0  0  0
   -5.3670   14.3950   -0.7480 C   0  0  0  0  0  0  0  0  0  0  0  0
   -4.6340   14.1520   -1.9330 C   0  0  0  0  0  0  0  0  0  0  0  0
   -1.0750   14.5150   -1.1540 C   0  0  1  0  0  0  0  0  0  0  0  0
   -3.0450   15.4980   -1.7890 N   0  0  0  0  0  0  0  0  0  0  0  0
   -0.0750   15.3820    0.7580 C   0  0  0  0  0  0  0  0  0  0  0  0
   -6.7380   14.4730   -0.7950 N   0  0  0  0  0  0  0  0  0  0  0  0
   -7.0670   14.6830    0.4520 C   0  0  0  0  0  0  0  0  0  0  0  0
   -8.4070   14.8450    1.0390 C   0  0  0  0  0  0  0  0  0  0  0  0
   -4.0850   13.9150   -2.9280 N   0  0  0  0  0  0  0  0  0  0  0  0
   -0.8630   14.9060   -2.5410 N   0  0  0  0  0  0  0  0  0  0  0  0
   -2.1620   15.4530   -2.9590 C   0  0  0  0  0  0  0  0  0  0  0  0
    0.1640   14.6390   -0.4470 N   0  0  0  0  0  0  0  0  0  0  0  0
  2  1  1  6
  2  3  1  0
  1  4  1  0
  2  5  1  0
  4  6  1  0
  4  7  2  0
  7  8  1  0
  3  9  1  0
  3 10  1  6
  5 11  1  0
  7 12  1  0
  6 13  1  0
 12 13  2  0
 13 14  1  0
  8 15  3  0
  9 16  1  6
 10 17  1  0
 16 17  1  0
  9 18  1  0
 11 18  1  0
M  END
