5CMS_0_E_γ-6woj_D_0_D_γ
     RDKit          3D

  8  8  0  0  0  0  0  0  0  0999 V2000
   -0.6970   11.9880   -4.1580 O   0  0  0  0  0  0  0  0  0  0  0  0
   -0.9970   13.3790   -4.2770 C   0  0  1  0  0  0  0  0  0  0  0  0
   -0.7690   14.1370   -2.9710 C   0  0  0  0  0  0  0  0  0  0  0  0
   -0.0020   14.0400   -5.1990 C   0  0  2  0  0  0  0  0  0  0  0  0
    1.2840   13.4360   -5.0860 O   0  0  0  0  0  0  0  0  0  0  0  0
   -0.1350   15.3910   -3.3010 O   0  0  0  0  0  0  0  0  0  0  0  0
   -0.1620   15.4860   -4.7300 C   0  0  1  0  0  0  0  0  0  0  0  0
    0.8290   16.5250   -5.2120 C   0  0  0  0  0  0  0  0  0  0  0  0
  2  1  1  1
  2  3  1  0
  2  4  1  0
  4  5  1  1
  3  6  1  0
  4  7  1  0
  6  7  1  0
  7  8  1  6
M  END
