5cms_D_3_D_γ-6MEA_0_A_δ
     RDKit          3D

 10 11  0  0  0  0  0  0  0  0999 V2000
   -4.1000   15.4840    1.8660 N   0  0  0  0  0  0  0  0  0  0  0  0
   -2.8880   15.4620    1.0750 C   0  0  2  0  0  0  0  0  0  0  0  0
   -3.1200   14.8050   -0.2870 C   0  0  2  0  0  0  0  0  0  0  0  0
   -1.8660   14.8010    1.8540 N   0  0  0  0  0  0  0  0  0  0  0  0
   -1.7430   14.4020   -0.8560 C   0  0  1  0  0  0  0  0  0  0  0  0
   -3.7720   15.5700   -1.3490 N   0  0  0  0  0  0  0  0  0  0  0  0
   -0.6040   14.4860    1.1890 C   0  0  0  0  0  0  0  0  0  0  0  0
   -1.7690   14.7940   -2.2460 N   0  0  0  0  0  0  0  0  0  0  0  0
   -3.1690   15.0240   -2.5530 C   0  0  0  0  0  0  0  0  0  0  0  0
   -0.6100   14.9520   -0.1670 N   0  0  0  0  0  0  0  0  0  0  0  0
  2  1  1  1
  2  3  1  0
  2  4  1  0
  3  5  1  0
  3  6  1  6
  4  7  1  0
  5  8  1  6
  6  9  1  0
  8  9  1  0
  5 10  1  0
  7 10  1  0
M  END
