
     RDKit          3D

 36 39  0  0  0  0  0  0  0  0999 V2000
   -2.1010   17.9190   -6.3070 P   0  0  0  0  0  0  0  0  0  0  0  0
   -0.3320   19.4140   -8.2140 P   0  0  0  0  0  0  0  0  0  0  0  0
   -0.0920   16.4160   -5.6710 C   0  0  0  0  0  0  0  0  0  0  0  0
   -1.4150   16.8330   -5.3530 O   0  0  0  0  0  0  0  0  0  0  0  0
    0.3770   15.3490   -4.6960 C   0  0  1  0  0  0  0  0  0  0  0  0
   -0.2820   15.5500   -3.4460 O   0  0  0  0  0  0  0  0  0  0  0  0
    0.0550   13.9260   -5.1460 C   0  0  1  0  0  0  0  0  0  0  0  0
    1.2220   13.1010   -5.0150 O   0  0  0  0  0  0  0  0  0  0  0  0
   -1.0250   13.4630   -4.2060 C   0  0  1  0  0  0  0  0  0  0  0  0
   -0.8130   12.0830   -3.9800 O   0  0  0  0  0  0  0  0  0  0  0  0
   -0.7200   14.2760   -2.9650 C   0  0  2  0  0  0  0  0  0  0  0  0
   -3.5990   23.4120  -10.6730 C   0  0  1  0  0  0  0  0  0  0  0  0
   -1.8240   15.4980    2.0010 N   0  0  0  0  0  0  0  0  0  0  0  0
   -2.6820   17.1420   -7.4720 O   0  0  0  0  0  0  0  0  0  0  0  0
    0.6560   20.5360   -7.9730 O   0  0  0  0  0  0  0  0  0  0  0  0
   -4.5540   23.4900   -9.6060 O   0  0  0  0  0  0  0  0  0  0  0  0
   -0.6370   15.1920    1.4190 C   0  0  0  0  0  0  0  0  0  0  0  0
   -2.2550   24.0880  -10.3050 C   0  0  2  0  0  0  0  0  0  0  0  0
   -3.0100   18.7760   -5.4440 O   0  0  0  0  0  0  0  0  0  0  0  0
    0.0740   18.2410   -9.0980 O   0  0  0  0  0  0  0  0  0  0  0  0
   -1.9830   25.2620  -11.0800 O   0  0  0  0  0  0  0  0  0  0  0  0
   -1.1690   23.0330  -10.4860 C   0  0  2  0  0  0  0  0  0  0  0  0
   -0.5020   14.8810    0.1010 N   0  0  0  0  0  0  0  0  0  0  0  0
   -0.8240   18.8640   -6.7560 O   0  0  0  0  0  0  0  0  0  0  0  0
   -0.4880   23.0750  -11.7460 O   0  0  0  0  0  0  0  0  0  0  0  0
   -1.5840   14.8640   -0.7360 C   0  0  0  0  0  0  0  0  0  0  0  0
   -1.9950   21.7630  -10.3430 C   0  0  2  0  0  0  0  0  0  0  0  0
   -3.2950   22.0390  -10.9130 O   0  0  0  0  0  0  0  0  0  0  0  0
   -2.9020   15.1930   -0.1700 C   0  0  0  0  0  0  0  0  0  0  0  0
   -2.0420   21.3760   -8.8570 C   0  0  0  0  0  0  0  0  0  0  0  0
   -1.7310   20.0040   -8.7460 O   0  0  0  0  0  0  0  0  0  0  0  0
   -2.9670   15.5180    1.2780 C   0  0  0  0  0  0  0  0  0  0  0  0
   -4.1410   15.8250    1.8400 N   0  0  0  0  0  0  0  0  0  0  0  0
   -3.7820   15.1070   -1.1900 N   0  0  0  0  0  0  0  0  0  0  0  0
   -3.0980   14.7570   -2.3220 C   0  0  0  0  0  0  0  0  0  0  0  0
   -1.8000   14.6000   -2.0300 N   0  0  0  0  0  0  0  0  0  0  0  0
  1  4  1  0
  1 14  1  0
  1 19  1  0
  1 24  1  0
  4  3  1  0
 24  2  1  0
  2 15  1  0
  2 20  1  0
  2 31  1  0
 31 30  1  0
  5  3  1  6
  5  6  1  0
  5  7  1  0
  6 11  1  0
  7  8  1  1
  7  9  1  0
 11  9  1  0
 11 36  1  1
  9 10  1  1
 36 26  1  0
 36 35  1  0
 12 16  1  1
 12 18  1  0
 12 28  1  0
 18 21  1  6
 18 22  1  0
 28 27  1  0
 13 17  1  0
 13 32  1  0
 17 23  1  0
 32 29  1  0
 32 33  1  0
 23 26  1  0
 22 25  1  6
 22 27  1  0
 27 30  1  1
 26 29  1  0
 29 34  1  0
 34 35  1  0
M  CHG  2  14  -1  15  -1
M  END
