5CMS_0_N_Î´
     RDKit          3D

 10 11  0  0  0  0  0  0  0  0999 V2000
   -1.0140   14.8810   -2.6080 N   0  0  0  0  0  0  0  0  0  0  0  0
   -0.8490   14.9670   -1.2890 C   0  0  0  0  0  0  0  0  0  0  0  0
   -2.3420   14.9360   -2.9270 C   0  0  0  0  0  0  0  0  0  0  0  0
    0.2380   14.9570   -0.4540 N   0  0  0  0  0  0  0  0  0  0  0  0
   -2.2160   15.0740   -0.7370 C   0  0  0  0  0  0  0  0  0  0  0  0
   -3.0990   15.0550   -1.7860 N   0  0  0  0  0  0  0  0  0  0  0  0
    0.0870   15.0510    0.9020 C   0  0  0  0  0  0  0  0  0  0  0  0
   -2.2780   15.1640    0.7490 C   0  0  0  0  0  0  0  0  0  0  0  0
   -1.1290   15.1530    1.5070 N   0  0  0  0  0  0  0  0  0  0  0  0
   -3.4830   15.2520    1.3310 N   0  0  0  0  0  0  0  0  0  0  0  0
  1  2  1  0
  1  3  1  0
  4  2  1  0
  2  5  1  0
  6  3  1  0
  7  4  1  0
  8  5  1  0
  5  6  1  0
  9  7  1  0
  9  8  1  0
  8 10  1  0
M  END
