5CMS_0_O_β-4IQY_0_B_α
     RDKit          3D

 17 17  0  0  0  0  0  0  0  0999 V2000
   -1.7270   21.6670   -8.1300 O   0  0  0  0  0  0  0  0  0  0  0  0
   -0.5970   20.3440   -7.9730 P   0  0  0  0  0  0  0  0  0  0  0  0
   -0.5810   19.5450   -6.5270 O   0  0  0  0  0  0  0  0  0  0  0  0
   -3.0770   21.4690   -8.5350 C   0  0  1  0  0  0  0  0  0  0  0  0
    0.3810   21.3730   -7.4470 O   0  0  0  0  0  0  0  0  0  0  0  0
   -1.3700   19.2460   -8.5980 O   0  0  0  0  0  0  0  0  0  0  0  0
   -3.8130   20.6450   -7.6850 O   0  0  0  0  0  0  0  0  0  0  0  0
   -4.0120   22.7310   -8.4900 C   0  0  2  0  0  0  0  0  0  0  0  0
   -1.2650   18.2270   -6.0140 P   0  0  0  0  0  0  0  0  0  0  0  0
   -3.3840   23.8860   -8.8360 O   0  0  0  0  0  0  0  0  0  0  0  0
   -4.8330   21.3200   -7.0300 C   0  0  1  0  0  0  0  0  0  0  0  0
   -4.4220   22.7490   -7.0290 C   0  0  2  0  0  0  0  0  0  0  0  0
   -1.7490   16.8780   -5.4600 O   0  0  0  0  0  0  0  0  0  0  0  0
   -2.2770   18.1140   -7.2770 O   0  0  0  0  0  0  0  0  0  0  0  0
   -1.8720   19.0280   -4.7190 O   0  0  0  0  0  0  0  0  0  0  0  0
   -6.0920   21.1780   -7.5930 O   0  0  0  0  0  0  0  0  0  0  0  0
   -5.4910   23.6690   -6.9350 O   0  0  0  0  0  0  0  0  0  0  0  0
  1  2  1  0
  2  3  1  0
  4  1  1  1
  2  5  1  0
  2  6  1  0
  4  7  1  0
  4  8  1  0
  3  9  1  0
  8 10  1  1
  7 11  1  0
  8 12  1  0
 11 12  1  0
  9 13  1  0
  9 14  1  0
  9 15  1  0
 11 16  1  6
 12 17  1  6
M  CHG  2   5  -1  14  -1
M  END
