5cms_L_11_L_α-5CMS_0_A_γ
     RDKit          3D

 23 24  0  0  0  0  0  0  0  0999 V2000
   -1.2140   21.3770   -7.7830 C   0  0  0  0  0  0  0  0  0  0  0  0
   -2.0420   22.0380   -8.8600 C   0  0  1  0  0  0  0  0  0  0  0  0
   -3.2900   21.3630   -9.0870 O   0  0  0  0  0  0  0  0  0  0  0  0
   -2.3980   23.4740   -8.5620 C   0  0  1  0  0  0  0  0  0  0  0  0
   -1.3790   24.3710   -8.9060 O   0  0  0  0  0  0  0  0  0  0  0  0
   -4.3340   22.3290   -9.2230 C   0  0  2  0  0  0  0  0  0  0  0  0
   -3.6850   23.6710   -9.3570 C   0  0  2  0  0  0  0  0  0  0  0  0
   -5.1280   22.4620   -8.0450 O   0  0  0  0  0  0  0  0  0  0  0  0
   -3.6480   24.2250  -10.6700 O   0  0  0  0  0  0  0  0  0  0  0  0
   -5.1730   21.2960   -7.2240 C   0  0  0  0  0  0  0  0  0  0  0  0
   -3.9330   21.1700   -6.3310 C   0  0  0  0  0  0  0  0  0  0  0  0
   -3.0540   19.9590   -6.6910 C   0  0  0  0  0  0  0  0  0  0  0  0
   -1.9730   19.5890   -5.6680 C   0  0  0  0  0  0  0  0  0  0  0  0
   -1.5640   18.1010   -5.6900 C   0  0  0  0  0  0  0  0  0  0  0  0
   -0.0500   17.8690   -5.9030 C   0  0  0  0  0  0  0  0  0  0  0  0
    0.6250   16.6390   -5.2550 C   0  0  0  0  0  0  0  0  0  0  0  0
   -0.2550   15.4950   -4.7460 C   0  0  2  0  0  0  0  0  0  0  0  0
   -0.2870   15.4620   -3.3090 O   0  0  0  0  0  0  0  0  0  0  0  0
    0.0250   14.0520   -5.1530 C   0  0  1  0  0  0  0  0  0  0  0  0
    1.3610   13.5880   -4.9530 O   0  0  0  0  0  0  0  0  0  0  0  0
   -0.7940   14.1750   -2.9340 C   0  0  0  0  0  0  0  0  0  0  0  0
   -0.9560   13.3650   -4.2220 C   0  0  2  0  0  0  0  0  0  0  0  0
   -0.6720   11.9870   -4.0770 O   0  0  0  0  0  0  0  0  0  0  0  0
  2  1  1  1
  2  3  1  0
  2  4  1  0
  4  5  1  6
  3  6  1  0
  4  7  1  0
  6  7  1  0
  6  8  1  1
  7  9  1  6
  8 10  1  0
 10 11  1  0
 11 12  1  0
 12 13  1  0
 13 14  1  0
 14 15  1  0
 15 16  1  0
 17 16  1  1
 17 18  1  0
 17 19  1  0
 19 20  1  1
 18 21  1  0
 19 22  1  0
 21 22  1  0
 22 23  1  1
M  END
