5CMS_0_O_β-6MEA_0_A_δ
     RDKit          3D

 21 22  0  0  0  0  0  0  0  0999 V2000
   -1.2170   20.6930   -8.8580 O   0  0  0  0  0  0  0  0  0  0  0  0
   -0.7460   19.8010   -7.7170 P   0  0  0  0  0  0  0  0  0  0  0  0
   -0.5120   18.8280   -6.5640 O   0  0  0  0  0  0  0  0  0  0  0  0
    0.5910   20.6680   -7.4720 O   0  0  0  0  0  0  0  0  0  0  0  0
   -0.5060   18.5070   -8.7220 O   0  0  0  0  0  0  0  0  0  0  0  0
   -1.3930   17.7980   -5.8360 P   0  0  0  0  0  0  0  0  0  0  0  0
   -2.1020   16.6440   -5.0870 O   0  0  0  0  0  0  0  0  0  0  0  0
   -2.4230   17.6120   -7.0820 O   0  0  0  0  0  0  0  0  0  0  0  0
   -1.8850   18.8780   -4.7470 O   0  0  0  0  0  0  0  0  0  0  0  0
   -1.3120   15.7410   -4.3480 C   0  0  0  0  0  0  0  0  0  0  0  0
   -1.4220   15.9730   -2.8710 C   0  0  0  0  0  0  0  0  0  0  0  0
   -1.8120   14.7510   -2.1400 N   0  0  0  0  0  0  0  0  0  0  0  0
   -1.4510   14.9150   -0.7610 C   0  0  1  0  0  0  0  0  0  0  0  0
   -3.2630   14.7500   -2.1810 C   0  0  0  0  0  0  0  0  0  0  0  0
   -2.6850   14.2820   -0.1010 C   0  0  2  0  0  0  0  0  0  0  0  0
   -3.6940   14.9810   -0.7940 N   0  0  0  0  0  0  0  0  0  0  0  0
   -0.3210   14.1420   -0.3010 N   0  0  0  0  0  0  0  0  0  0  0  0
   -0.2230   14.4540    1.1170 C   0  0  0  0  0  0  0  0  0  0  0  0
   -2.6130   14.5620    1.3740 C   0  0  2  0  0  0  0  0  0  0  0  0
   -3.6950   15.4960    1.6850 N   0  0  0  0  0  0  0  0  0  0  0  0
   -1.3490   15.2050    1.5530 N   0  0  0  0  0  0  0  0  0  0  0  0
  1  2  1  0
  2  3  1  0
  2  4  1  0
  2  5  1  0
  3  6  1  0
  6  7  1  0
  6  8  1  0
  6  9  1  0
  7 10  1  0
 10 11  1  0
 11 12  1  0
 12 13  1  0
 12 14  1  0
 13 15  1  0
 14 16  1  0
 15 16  1  6
 13 17  1  6
 17 18  1  0
 15 19  1  0
 19 20  1  6
 18 21  1  0
 19 21  1  0
M  CHG  2   4  -1   8  -1
M  END
