5CMS_0_M_α-mArh-6mea_A_0_A_β
     RDKit          3D

 17 17  0  0  0  0  0  0  0  0999 V2000
   -2.1030   21.1870   -7.9790 C   0  0  0  0  0  0  0  0  0  0  0  0
   -0.6040   20.2150   -7.7540 P   0  0  2  0  0  0  0  0  0  0  0  0
   -0.7000   19.5290   -6.3300 O   0  0  0  0  0  0  0  0  0  0  0  0
   -2.1750   22.0530   -9.2220 C   0  0  1  0  0  0  0  0  0  0  0  0
    0.6900   20.9480   -7.8940 O   0  0  0  0  0  0  0  0  0  0  0  0
   -0.6610   18.9010   -8.6760 O   0  0  0  0  0  0  0  0  0  0  0  0
   -3.0010   21.5020  -10.2790 O   0  0  0  0  0  0  0  0  0  0  0  0
   -2.6690   23.4700   -8.9870 C   0  0  1  0  0  0  0  0  0  0  0  0
   -1.5690   24.3440   -9.0490 O   0  0  0  0  0  0  0  0  0  0  0  0
   -1.5280   18.2380   -5.9530 P   0  0  0  0  0  0  0  0  0  0  0  0
   -4.1210   22.3700  -10.5380 C   0  0  1  0  0  0  0  0  0  0  0  0
   -3.8060   23.7510  -10.0040 C   0  0  2  0  0  0  0  0  0  0  0  0
   -4.4930   22.4190  -11.8990 O   0  0  0  0  0  0  0  0  0  0  0  0
   -3.5100   24.6470  -11.0990 O   0  0  0  0  0  0  0  0  0  0  0  0
   -0.4540   17.0800   -5.7490 O   0  0  0  0  0  0  0  0  0  0  0  0
   -2.6820   17.8350   -6.7830 O   0  0  0  0  0  0  0  0  0  0  0  0
   -1.8530   18.5660   -4.4450 O   0  0  0  0  0  0  0  0  0  0  0  0
  1  2  1  0
  2  3  1  0
  4  1  1  1
  2  5  2  0
  2  6  1  6
  4  7  1  0
  4  8  1  0
  8  9  1  6
  3 10  1  0
  7 11  1  0
  8 12  1  0
 11 12  1  0
 11 13  1  6
 12 14  1  6
 10 15  1  0
 10 16  2  0
 10 17  1  0
M  END
