5CMS_0_R_γ-mArh-3vfq_B_0_A_β
     RDKit          3D

 18 18  0  0  0  0  0  0  0  0999 V2000
   -0.3530   12.3450   -4.1080 O   0  0  0  0  0  0  0  0  0  0  0  0
    0.3610   13.5450   -3.8450 C   0  0  2  0  0  0  0  0  0  0  0  0
   -0.3940   14.5430   -2.9930 C   0  0  0  0  0  0  0  0  0  0  0  0
    0.6360   14.3840   -5.0800 C   0  0  2  0  0  0  0  0  0  0  0  0
    1.6480   13.6440   -5.7850 O   0  0  0  0  0  0  0  0  0  0  0  0
    0.2400   15.8100   -3.2280 O   0  0  0  0  0  0  0  0  0  0  0  0
    1.1090   15.6810   -4.3810 C   0  0  2  0  0  0  0  0  0  0  0  0
    1.0860   16.9940   -5.1700 C   0  0  0  0  0  0  0  0  0  0  0  0
   -0.2200   17.2740   -5.8360 C   0  0  0  0  0  0  0  0  0  0  0  0
   -0.9110   18.4500   -5.4050 N   0  0  0  0  0  0  0  0  0  0  0  0
   -2.2820   18.2250   -6.2450 P   0  0  0  0  0  0  0  0  0  0  0  0
   -3.0140   19.6050   -6.4460 O   0  0  0  0  0  0  0  0  0  0  0  0
   -3.1040   17.0070   -5.6170 O   0  0  0  0  0  0  0  0  0  0  0  0
   -1.6850   17.9410   -7.6210 O   0  0  0  0  0  0  0  0  0  0  0  0
   -3.9930   15.7230   -6.0200 P   0  0  0  0  0  0  0  0  0  0  0  0
   -4.3070   15.0670   -4.6000 O   0  0  0  0  0  0  0  0  0  0  0  0
   -3.4570   14.8130   -6.9830 O   0  0  0  0  0  0  0  0  0  0  0  0
   -5.4800   16.0950   -6.4990 O   0  0  0  0  0  0  0  0  0  0  0  0
  2  1  1  6
  2  3  1  0
  2  4  1  0
  4  5  1  6
  3  6  1  0
  4  7  1  0
  6  7  1  0
  7  8  1  6
  8  9  1  0
  9 10  1  0
 10 11  2  3
 11 12  1  0
 11 13  1  0
 11 14  1  0
 13 15  1  0
 15 16  1  0
 15 17  2  0
 15 18  1  0
M  END
