5cms_I_8_I_γ-5CB5_0_J_α
     RDKit          3D

 21 22  0  0  0  0  0  0  0  0999 V2000
   -1.1520   12.4320   -4.4030 O   0  0  0  0  0  0  0  0  0  0  0  0
   -1.1290   13.8380   -4.3440 C   0  0  1  0  0  0  0  0  0  0  0  0
   -0.7330   14.4190   -2.9930 C   0  0  0  0  0  0  0  0  0  0  0  0
   -0.0340   14.3990   -5.2050 C   0  0  2  0  0  0  0  0  0  0  0  0
    1.1940   13.7140   -4.9620 O   0  0  0  0  0  0  0  0  0  0  0  0
   -0.0950   15.6800   -3.2870 O   0  0  0  0  0  0  0  0  0  0  0  0
   -0.1400   15.8370   -4.7240 C   0  0  1  0  0  0  0  0  0  0  0  0
    0.9300   16.8230   -5.1430 C   0  0  0  0  0  0  0  0  0  0  0  0
    0.5140   18.2720   -5.4060 C   0  0  0  0  0  0  0  0  0  0  0  0
    0.1120   18.6140   -6.8490 C   0  0  0  0  0  0  0  0  0  0  0  0
   -0.4780   20.0310   -7.0090 C   0  0  0  0  0  0  0  0  0  0  0  0
   -1.6120   20.1320   -7.9880 C   0  0  0  0  0  0  0  0  0  0  0  0
   -2.0650   21.5350   -8.4460 C   0  0  0  0  0  0  0  0  0  0  0  0
   -3.3250   22.0840   -7.7700 C   0  0  2  0  0  0  0  0  0  0  0  0
   -4.4350   21.3680   -8.2630 O   0  0  0  0  0  0  0  0  0  0  0  0
   -3.8160   23.5130   -8.0420 C   0  0  1  0  0  0  0  0  0  0  0  0
   -3.8780   23.9870   -9.3630 O   0  0  0  0  0  0  0  0  0  0  0  0
   -5.5260   21.9510   -7.5560 C   0  0  2  0  0  0  0  0  0  0  0  0
   -5.2690   23.4510   -7.5950 C   0  0  1  0  0  0  0  0  0  0  0  0
   -5.5460   21.5030   -6.2060 O   0  0  0  0  0  0  0  0  0  0  0  0
   -5.5210   24.1400   -6.3810 O   0  0  0  0  0  0  0  0  0  0  0  0
  2  1  1  1
  2  3  1  0
  2  4  1  0
  4  5  1  1
  3  6  1  0
  4  7  1  0
  6  7  1  0
  7  8  1  6
  8  9  1  0
  9 10  1  0
 10 11  1  0
 11 12  1  0
 12 13  1  0
 14 13  1  6
 14 15  1  0
 14 16  1  0
 16 17  1  6
 15 18  1  0
 16 19  1  0
 18 19  1  0
 18 20  1  1
 19 21  1  1
M  END
