5CMS_0_N_γ-mArh-EU0815_0_A_α
     RDKit          3D

 22 22  0  0  0  0  0  0  0  0999 V2000
    1.0100   12.8640   -3.9350 O   0  0  0  0  0  0  0  0  0  0  0  0
   -0.1270   13.7180   -4.0680 C   0  0  1  0  0  0  0  0  0  0  0  0
   -0.2350   14.8390   -3.0220 C   0  0  2  0  0  0  0  0  0  0  0  0
   -0.0050   14.5080   -5.3480 C   0  0  2  0  0  0  0  0  0  0  0  0
    0.7110   13.6930   -6.2850 O   0  0  0  0  0  0  0  0  0  0  0  0
   -1.6710   15.3140   -2.7240 C   0  0  0  0  0  0  0  0  0  0  0  0
    0.4940   15.9720   -3.5420 O   0  0  0  0  0  0  0  0  0  0  0  0
    0.8050   15.7400   -4.9280 C   0  0  2  0  0  0  0  0  0  0  0  0
    0.4530   17.0390   -5.6510 C   0  0  0  0  0  0  0  0  0  0  0  0
   -2.0900   15.1420   -1.2590 C   0  0  0  0  0  0  0  0  0  0  0  0
   -3.5400   15.5880   -1.0080 C   0  0  0  0  0  0  0  0  0  0  0  0
   -4.5690   14.4490   -0.8810 C   0  0  0  0  0  0  0  0  0  0  0  0
   -5.8320   14.7730   -0.0630 C   0  0  0  0  0  0  0  0  0  0  0  0
   -5.5560   14.7860    1.4450 C   0  0  0  0  0  0  0  0  0  0  0  0
   -6.6160   14.2310    2.3010 N   0  0  0  0  0  0  0  0  0  0  0  0
   -7.7040   14.9430    2.7840 C   0  0  0  0  0  0  0  0  0  0  0  0
   -7.7210   15.0130    4.1670 N   0  0  0  0  0  0  0  0  0  0  0  0
   -8.5730   15.4500    2.0840 O   0  0  0  0  0  0  0  0  0  0  0  0
   -8.9750   14.9480    4.9260 C   0  0  1  0  0  0  0  0  0  0  0  0
   -9.3460   13.4910    5.2010 C   0  0  0  0  0  0  0  0  0  0  0  0
   -8.9110   15.7640    6.2380 C   0  0  0  0  0  0  0  0  0  0  0  0
  -10.1380   15.7100    6.9650 O   0  0  0  0  0  0  0  0  0  0  0  0
  2  1  1  1
  2  3  1  0
  2  4  1  0
  4  5  1  6
  3  6  1  6
  3  7  1  0
  4  8  1  0
  7  8  1  0
  8  9  1  6
  6 10  1  0
 10 11  1  0
 11 12  1  0
 12 13  1  0
 13 14  1  0
 14 15  1  0
 15 16  1  0
 16 17  1  0
 16 18  2  0
 17 19  1  0
 19 20  1  1
 19 21  1  0
 21 22  1  0
M  END
