5cms_G_3_G_β-5cms_R_17_R_β
     RDKit          3D

 16 16  0  0  0  0  0  0  0  0999 V2000
   -1.9730   13.0490   -4.0260 O   0  0  0  0  0  0  0  0  0  0  0  0
   -0.6520   13.5460   -3.8890 C   0  0  2  0  0  0  0  0  0  0  0  0
   -0.4740   14.5290   -2.7200 C   0  0  0  0  0  0  0  0  0  0  0  0
   -0.2150   14.3580   -5.1010 C   0  0  2  0  0  0  0  0  0  0  0  0
    1.1920   14.1110   -5.2480 O   0  0  0  0  0  0  0  0  0  0  0  0
    0.0030   15.7700   -3.2710 O   0  0  0  0  0  0  0  0  0  0  0  0
   -0.5510   15.7600   -4.5940 C   0  0  1  0  0  0  0  0  0  0  0  0
   -0.0830   16.9720   -5.3890 C   0  0  0  0  0  0  0  0  0  0  0  0
   -1.4650   18.0050   -5.9430 P   0  0  1  0  0  0  0  0  0  0  0  0
   -0.9680   19.3650   -6.5580 O   0  0  0  0  0  0  0  0  0  0  0  0
   -2.5090   17.3150   -6.7620 O   0  0  0  0  0  0  0  0  0  0  0  0
   -2.0500   18.5340   -4.5770 O   0  0  0  0  0  0  0  0  0  0  0  0
   -0.1590   19.8290   -7.8120 P   0  0  0  0  0  0  0  0  0  0  0  0
   -1.2810   20.5830   -8.6480 O   0  0  0  0  0  0  0  0  0  0  0  0
    1.0560   20.6570   -7.5920 O   0  0  0  0  0  0  0  0  0  0  0  0
    0.0100   18.5610   -8.7730 O   0  0  0  0  0  0  0  0  0  0  0  0
  2  1  1  6
  2  3  1  0
  2  4  1  0
  4  5  1  1
  3  6  1  0
  4  7  1  0
  6  7  1  0
  7  8  1  6
  8  9  1  0
  9 10  1  0
  9 11  2  0
  9 12  1  1
 10 13  1  0
 13 14  1  0
 13 15  2  0
 13 16  1  0
M  END
