5cms_D_3_D_β-3q6z_0_A_γ
     RDKit          3D

  8  8  0  0  0  0  0  0  0  0999 V2000
   -0.6700   12.3030   -4.0700 O   0  0  0  0  0  0  0  0  0  0  0  0
   -0.9410   13.6990   -4.1380 C   0  0  1  0  0  0  0  0  0  0  0  0
   -0.5640   14.4290   -2.8500 C   0  0  0  0  0  0  0  0  0  0  0  0
   -0.0190   14.3450   -5.1380 C   0  0  2  0  0  0  0  0  0  0  0  0
    1.2650   13.7290   -5.1330 O   0  0  0  0  0  0  0  0  0  0  0  0
    0.0710   15.6720   -3.2370 O   0  0  0  0  0  0  0  0  0  0  0  0
   -0.1150   15.7900   -4.6550 C   0  0  1  0  0  0  0  0  0  0  0  0
    0.8200   16.8280   -5.2470 C   0  0  0  0  0  0  0  0  0  0  0  0
  2  1  1  1
  2  3  1  0
  2  4  1  0
  4  5  1  1
  3  6  1  0
  4  7  1  0
  6  7  1  0
  7  8  1  6
M  END
