5CMS_0_M_δ-5CMS_0_F_β
     RDKit          3D

 21 22  0  0  0  0  0  0  0  0999 V2000
   -3.7330   15.8660    1.3010 N   0  0  0  0  0  0  0  0  0  0  0  0
   -2.6730   14.9110    1.0970 C   0  0  1  0  0  0  0  0  0  0  0  0
   -2.7000   14.2650   -0.2660 C   0  0  2  0  0  0  0  0  0  0  0  0
   -1.4130   15.6120    1.1250 N   0  0  0  0  0  0  0  0  0  0  0  0
   -1.3240   14.5430   -0.8870 C   0  0  2  0  0  0  0  0  0  0  0  0
   -3.5840   14.7590   -1.2570 N   0  0  0  0  0  0  0  0  0  0  0  0
   -0.2920   14.7240    1.1160 C   0  0  0  0  0  0  0  0  0  0  0  0
   -1.5960   13.9940   -2.1420 N   0  0  0  0  0  0  0  0  0  0  0  0
   -2.7620   14.7410   -2.4760 C   0  0  2  0  0  0  0  0  0  0  0  0
   -0.3390   13.9070   -0.0890 N   0  0  0  0  0  0  0  0  0  0  0  0
   -2.1680   16.0690   -2.7280 C   0  0  0  0  0  0  0  0  0  0  0  0
   -2.2710   16.4910   -4.1740 C   0  0  0  0  0  0  0  0  0  0  0  0
   -1.9570   17.8110   -4.3560 O   0  0  0  0  0  0  0  0  0  0  0  0
   -1.9220   18.3010   -5.8860 P   0  0  0  0  0  0  0  0  0  0  0  0
   -1.1870   19.6540   -6.4570 O   0  0  0  0  0  0  0  0  0  0  0  0
   -0.7100   17.4550   -6.2450 O   0  0  0  0  0  0  0  0  0  0  0  0
   -2.8330   17.4120   -6.9350 O   0  0  0  0  0  0  0  0  0  0  0  0
   -0.4710   19.3670   -7.7310 P   0  0  0  0  0  0  0  0  0  0  0  0
   -1.5330   20.3070   -8.5890 O   0  0  0  0  0  0  0  0  0  0  0  0
    0.8930   20.1420   -7.2900 O   0  0  0  0  0  0  0  0  0  0  0  0
    0.2390   18.8580   -8.9440 O   0  0  0  0  0  0  0  0  0  0  0  0
  2  1  1  6
  2  3  1  0
  2  4  1  0
  3  5  1  0
  3  6  1  6
  4  7  1  0
  5  8  1  6
  6  9  1  0
  8  9  1  0
  5 10  1  0
  7 10  1  0
  9 11  1  1
 11 12  1  0
 12 13  1  0
 13 14  1  0
 14 15  1  0
 14 16  1  0
 14 17  1  0
 15 18  1  0
 18 19  1  0
 18 20  1  0
 18 21  1  0
M  CHG  2  17  -1  20  -1
M  END
