5cms_D_3_D_γ-5CMS_0_B_β
     RDKit          3D

 21 22  0  0  0  0  0  0  0  0999 V2000
   -3.8060   16.0200    1.3100 N   0  0  0  0  0  0  0  0  0  0  0  0
   -2.8470   14.9700    1.0790 C   0  0  1  0  0  0  0  0  0  0  0  0
   -2.6760   14.6210   -0.3710 C   0  0  2  0  0  0  0  0  0  0  0  0
   -1.5480   15.4420    1.4760 N   0  0  0  0  0  0  0  0  0  0  0  0
   -1.2680   15.0800   -0.7780 C   0  0  2  0  0  0  0  0  0  0  0  0
   -3.4620   15.2650   -1.3340 N   0  0  0  0  0  0  0  0  0  0  0  0
   -0.4990   14.4990    1.2890 C   0  0  0  0  0  0  0  0  0  0  0  0
   -1.3370   14.8810   -2.1630 N   0  0  0  0  0  0  0  0  0  0  0  0
   -2.7350   14.8510   -2.5260 C   0  0  2  0  0  0  0  0  0  0  0  0
   -0.3370   14.2260   -0.1240 N   0  0  0  0  0  0  0  0  0  0  0  0
   -2.8900   15.7200   -3.7380 C   0  0  0  0  0  0  0  0  0  0  0  0
   -1.6740   16.6230   -3.9080 C   0  0  0  0  0  0  0  0  0  0  0  0
   -1.9730   17.8980   -4.2990 O   0  0  0  0  0  0  0  0  0  0  0  0
   -1.9460   18.2210   -5.8690 P   0  0  0  0  0  0  0  0  0  0  0  0
   -1.2560   19.5620   -6.5090 O   0  0  0  0  0  0  0  0  0  0  0  0
   -0.6990   17.3900   -6.1430 O   0  0  0  0  0  0  0  0  0  0  0  0
   -2.8090   17.2170   -6.8680 O   0  0  0  0  0  0  0  0  0  0  0  0
   -0.5170   19.2600   -7.7600 P   0  0  0  0  0  0  0  0  0  0  0  0
   -1.4650   20.3170   -8.6180 O   0  0  0  0  0  0  0  0  0  0  0  0
    0.8890   19.8740   -7.2050 O   0  0  0  0  0  0  0  0  0  0  0  0
    0.2130   18.7570   -8.9670 O   0  0  0  0  0  0  0  0  0  0  0  0
  2  1  1  6
  2  3  1  0
  2  4  1  0
  3  5  1  0
  3  6  1  6
  4  7  1  0
  5  8  1  6
  6  9  1  0
  8  9  1  0
  5 10  1  0
  7 10  1  0
  9 11  1  6
 11 12  1  0
 12 13  1  0
 13 14  1  0
 14 15  1  0
 14 16  1  0
 14 17  1  0
 15 18  1  0
 18 19  1  0
 18 20  1  0
 18 21  1  0
M  CHG  2  17  -1  20  -1
M  END
