5CMS_0_I_γ-mArh-5cms_R_17_R_α
     RDKit          3D

 21 22  0  0  0  0  0  0  0  0999 V2000
   -1.3450   12.3830   -4.6030 O   0  0  0  0  0  0  0  0  0  0  0  0
   -1.2340   13.7730   -4.4180 C   0  0  1  0  0  0  0  0  0  0  0  0
   -0.8810   14.2200   -3.0080 C   0  0  0  0  0  0  0  0  0  0  0  0
   -0.0530   14.3180   -5.1700 C   0  0  2  0  0  0  0  0  0  0  0  0
    1.1180   13.5480   -4.8950 O   0  0  0  0  0  0  0  0  0  0  0  0
   -0.1820   15.4700   -3.1620 O   0  0  0  0  0  0  0  0  0  0  0  0
   -0.1100   15.7130   -4.5820 C   0  0  1  0  0  0  0  0  0  0  0  0
    1.0530   16.6220   -4.8510 C   0  0  0  0  0  0  0  0  0  0  0  0
    0.7480   18.1050   -4.9150 C   0  0  0  0  0  0  0  0  0  0  0  0
    0.7350   18.6260   -6.3470 C   0  0  0  0  0  0  0  0  0  0  0  0
   -0.6650   19.0200   -6.8210 C   0  0  0  0  0  0  0  0  0  0  0  0
   -0.6770   20.0380   -7.9560 C   0  0  0  0  0  0  0  0  0  0  0  0
   -1.5400   21.2700   -7.6640 C   0  0  0  0  0  0  0  0  0  0  0  0
   -1.6900   22.1250   -8.8940 C   0  0  1  0  0  0  0  0  0  0  0  0
   -2.5390   21.4340   -9.8270 O   0  0  0  0  0  0  0  0  0  0  0  0
   -2.2380   23.5530   -8.7430 C   0  0  2  0  0  0  0  0  0  0  0  0
   -2.6110   23.9550   -7.4800 O   0  0  0  0  0  0  0  0  0  0  0  0
   -3.7470   22.1680   -9.8860 C   0  0  2  0  0  0  0  0  0  0  0  0
   -3.4470   23.6190   -9.6710 C   0  0  1  0  0  0  0  0  0  0  0  0
   -4.5760   21.7670   -8.8230 O   0  0  0  0  0  0  0  0  0  0  0  0
   -4.5750   24.2460   -9.1220 O   0  0  0  0  0  0  0  0  0  0  0  0
  2  1  1  1
  2  3  1  0
  2  4  1  0
  4  5  1  1
  3  6  1  0
  4  7  1  0
  6  7  1  0
  7  8  1  1
  8  9  1  0
  9 10  1  0
 10 11  1  0
 11 12  1  0
 12 13  1  0
 14 13  1  1
 14 15  1  0
 14 16  1  0
 16 17  1  1
 15 18  1  0
 16 19  1  0
 18 19  1  0
 18 20  1  1
 19 21  1  1
M  END
