5cms_K_10_K_γ-5cb5_N_0_N_α
     RDKit          3D

 21 22  0  0  0  0  0  0  0  0999 V2000
   -0.6430   12.2130   -4.0780 O   0  0  0  0  0  0  0  0  0  0  0  0
   -0.8550   13.6040   -4.1880 C   0  0  1  0  0  0  0  0  0  0  0  0
   -0.5220   14.3870   -2.9130 C   0  0  0  0  0  0  0  0  0  0  0  0
    0.0850   14.2660   -5.1710 C   0  0  2  0  0  0  0  0  0  0  0  0
    1.4120   13.7900   -4.9280 O   0  0  0  0  0  0  0  0  0  0  0  0
   -0.0060   15.6670   -3.3430 O   0  0  0  0  0  0  0  0  0  0  0  0
   -0.2670   15.6920   -4.7560 C   0  0  1  0  0  0  0  0  0  0  0  0
    0.3590   16.9120   -5.4310 C   0  0  0  0  0  0  0  0  0  0  0  0
   -0.6260   17.6940   -6.3290 C   0  0  0  0  0  0  0  0  0  0  0  0
   -0.9340   19.1270   -5.9660 C   0  0  0  0  0  0  0  0  0  0  0  0
   -1.9870   19.7720   -6.8810 C   0  0  0  0  0  0  0  0  0  0  0  0
   -1.4240   20.7230   -7.9590 C   0  0  0  0  0  0  0  0  0  0  0  0
   -2.1420   22.0880   -8.0120 C   0  0  0  0  0  0  0  0  0  0  0  0
   -3.3870   22.1380   -8.9240 C   0  0  1  0  0  0  0  0  0  0  0  0
   -4.3410   21.2520   -8.3820 O   0  0  0  0  0  0  0  0  0  0  0  0
   -4.0780   23.4990   -9.0170 C   0  0  1  0  0  0  0  0  0  0  0  0
   -4.2960   23.9770  -10.3380 O   0  0  0  0  0  0  0  0  0  0  0  0
   -5.5080   21.9230   -7.9020 C   0  0  2  0  0  0  0  0  0  0  0  0
   -5.4140   23.3680   -8.3010 C   0  0  1  0  0  0  0  0  0  0  0  0
   -5.6410   21.7560   -6.4860 O   0  0  0  0  0  0  0  0  0  0  0  0
   -5.5110   24.2690   -7.2270 O   0  0  0  0  0  0  0  0  0  0  0  0
  2  1  1  1
  2  3  1  0
  2  4  1  0
  4  5  1  1
  3  6  1  0
  4  7  1  0
  6  7  1  0
  7  8  1  6
  8  9  1  0
  9 10  1  0
 10 11  1  0
 11 12  1  0
 12 13  1  0
 14 13  1  1
 14 15  1  0
 14 16  1  0
 16 17  1  6
 15 18  1  0
 16 19  1  0
 18 19  1  0
 18 20  1  1
 19 21  1  1
M  END
