5cms_I_8_I_β-2fav_B_0_B_γ
     RDKit          3D

 18 18  0  0  0  0  0  0  0  0999 V2000
   -0.5650   20.9300   -8.6100 O   0  0  0  0  0  0  0  0  0  0  0  0
   -0.2600   19.6560   -7.7480 P   0  0  0  0  0  0  0  0  0  0  0  0
   -1.5160   19.4680   -6.8330 O   0  0  0  0  0  0  0  0  0  0  0  0
    1.0530   19.7670   -7.0750 O   0  0  0  0  0  0  0  0  0  0  0  0
   -0.2430   18.4710   -8.8000 O   0  0  0  0  0  0  0  0  0  0  0  0
   -1.8510   18.0970   -6.1820 P   0  0  2  0  0  0  0  0  0  0  0  0
   -0.4470   17.3740   -6.2110 O   0  0  0  0  0  0  0  0  0  0  0  0
   -2.9440   17.3250   -6.7840 O   0  0  0  0  0  0  0  0  0  0  0  0
   -1.9620   18.4470   -4.6350 O   0  0  0  0  0  0  0  0  0  0  0  0
    0.5290   17.8620   -5.3280 C   0  0  0  0  0  0  0  0  0  0  0  0
    1.2190   16.6770   -4.7230 C   0  0  0  0  0  0  0  0  0  0  0  0
    0.3090   15.5590   -4.3350 C   0  0  2  0  0  0  0  0  0  0  0  0
    0.3600   15.2670   -2.9290 O   0  0  0  0  0  0  0  0  0  0  0  0
    0.6340   14.2340   -5.0130 C   0  0  1  0  0  0  0  0  0  0  0  0
    1.9460   13.7460   -4.7230 O   0  0  0  0  0  0  0  0  0  0  0  0
   -0.1740   13.9230   -2.8410 C   0  0  0  0  0  0  0  0  0  0  0  0
   -0.4140   13.4400   -4.2780 C   0  0  2  0  0  0  0  0  0  0  0  0
   -0.1770   12.0440   -4.3970 O   0  0  0  0  0  0  0  0  0  0  0  0
  1  2  1  0
  2  3  1  0
  2  4  2  0
  2  5  1  0
  3  6  1  0
  6  7  1  0
  6  8  2  0
  6  9  1  1
  7 10  1  0
 10 11  1  0
 12 11  1  1
 12 13  1  0
 12 14  1  0
 14 15  1  1
 13 16  1  0
 14 17  1  0
 16 17  1  0
 17 18  1  1
M  END
