5cms_N_13_N_α-5CMS_0_F_α
     RDKit          3D

 11 11  0  0  0  0  0  0  0  0999 V2000
   -2.7150   21.2090   -7.4380 C   0  0  0  0  0  0  0  0  0  0  0  0
   -3.5150   22.3090   -8.1170 C   0  0  2  0  0  0  0  0  0  0  0  0
   -4.8020   21.8690   -8.5720 O   0  0  0  0  0  0  0  0  0  0  0  0
   -2.8240   22.7780   -9.3640 C   0  0  0  0  0  0  0  0  0  0  0  0
   -2.1730   21.6350   -9.8470 O   0  0  0  0  0  0  0  0  0  0  0  0
   -1.8580   23.7450   -9.0280 O   0  0  0  0  0  0  0  0  0  0  0  0
   -5.2000   22.9500   -9.4110 C   0  0  2  0  0  0  0  0  0  0  0  0
   -3.9860   23.2380  -10.3160 C   0  0  0  0  0  0  0  0  0  0  0  0
   -5.4930   24.0760   -8.5910 O   0  0  0  0  0  0  0  0  0  0  0  0
   -4.0750   22.4100  -11.4800 O   0  0  0  0  0  0  0  0  0  0  0  0
   -3.8500   24.5470  -10.8470 O   0  0  0  0  0  0  0  0  0  0  0  0
  2  1  1  6
  2  3  1  0
  2  4  1  0
  4  5  1  0
  4  6  1  0
  3  7  1  0
  4  8  1  0
  7  8  1  0
  7  9  1  1
  8 10  1  0
  8 11  1  0
M  END
