5cms_B_1_B_α-5cms_D_3_D_α
     RDKit          3D

 17 17  0  0  0  0  0  0  0  0999 V2000
   -1.5740   21.1460   -8.9860 C   0  0  0  0  0  0  0  0  0  0  0  0
   -0.9830   19.8180   -7.9580 P   0  0  0  0  0  0  0  0  0  0  0  0
   -1.1450   19.5600   -6.4480 O   0  0  0  0  0  0  0  0  0  0  0  0
   -2.8090   21.9760   -9.1720 C   0  0  2  0  0  0  0  0  0  0  0  0
   -0.0620   18.6590   -8.8460 O   0  0  0  0  0  0  0  0  0  0  0  0
    0.4280   20.4430   -7.7470 O   0  0  0  0  0  0  0  0  0  0  0  0
   -3.6560   22.4250   -8.2630 O   0  0  0  0  0  0  0  0  0  0  0  0
   -3.5940   22.1720  -10.4130 C   0  0  1  0  0  0  0  0  0  0  0  0
   -4.9130   21.9750  -10.4480 O   0  0  0  0  0  0  0  0  0  0  0  0
   -1.5660   18.2110   -5.7520 P   0  0  0  0  0  0  0  0  0  0  0  0
   -3.6820   23.7040   -8.7130 C   0  0  2  0  0  0  0  0  0  0  0  0
   -3.7080   23.6930  -10.2590 C   0  0  2  0  0  0  0  0  0  0  0  0
   -2.4550   24.2630   -8.3890 O   0  0  0  0  0  0  0  0  0  0  0  0
   -4.8140   24.1140  -10.9380 O   0  0  0  0  0  0  0  0  0  0  0  0
   -0.3250   17.4700   -6.2860 O   0  0  0  0  0  0  0  0  0  0  0  0
   -2.7110   17.3470   -6.6120 O   0  0  0  0  0  0  0  0  0  0  0  0
   -2.4490   19.1210   -4.9370 O   0  0  0  0  0  0  0  0  0  0  0  0
  1  2  1  0
  2  3  1  0
  4  1  1  1
  2  5  1  0
  2  6  1  0
  4  7  1  0
  4  8  1  0
  8  9  1  1
  3 10  1  0
  7 11  1  0
  8 12  1  0
 11 12  1  0
 11 13  1  6
 12 14  1  1
 10 15  1  0
 10 16  1  0
 10 17  1  0
M  CHG  2   5  -1  16  -1
M  END
