5CMS_0_D_α-5LW0_0_A_γ
     RDKit          3D

 16 16  0  0  0  0  0  0  0  0999 V2000
   -1.1530   16.4090   -5.0460 O   0  0  0  0  0  0  0  0  0  0  0  0
   -1.3810   17.7690   -6.0250 P   0  0  0  0  0  0  0  0  0  0  0  0
   -2.7790   17.7430   -6.8790 O   0  0  0  0  0  0  0  0  0  0  0  0
    0.0760   15.9130   -4.5830 C   0  0  1  0  0  0  0  0  0  0  0  0
   -1.9930   18.6750   -4.9720 O   0  0  0  0  0  0  0  0  0  0  0  0
   -0.2520   18.9120   -6.4780 O   0  0  0  0  0  0  0  0  0  0  0  0
    0.0380   15.9000   -3.2210 O   0  0  0  0  0  0  0  0  0  0  0  0
    0.2770   14.4420   -4.9720 C   0  0  1  0  0  0  0  0  0  0  0  0
   -0.3280   19.6880   -7.8230 P   0  0  0  0  0  0  0  0  0  0  0  0
    1.6240   14.1010   -5.0830 O   0  0  0  0  0  0  0  0  0  0  0  0
   -0.6180   14.7620   -2.8240 C   0  0  0  0  0  0  0  0  0  0  0  0
   -0.1180   13.6620   -3.7230 C   0  0  1  0  0  0  0  0  0  0  0  0
   -1.8500   20.2870   -7.5900 O   0  0  0  0  0  0  0  0  0  0  0  0
   -0.0950   18.4010   -8.7280 O   0  0  0  0  0  0  0  0  0  0  0  0
    0.9920   20.6520   -7.4220 O   0  0  0  0  0  0  0  0  0  0  0  0
   -1.0390   12.6880   -4.0280 O   0  0  0  0  0  0  0  0  0  0  0  0
  1  2  1  0
  2  3  1  0
  4  1  1  6
  2  5  1  0
  2  6  1  0
  4  7  1  0
  4  8  1  0
  6  9  1  0
  8 10  1  1
  7 11  1  0
  8 12  1  0
 11 12  1  0
  9 13  1  0
  9 14  1  0
  9 15  1  0
 12 16  1  6
M  CHG  2   3  -1  14  -1
M  END
