5CMS_0_L_δ-5CB3_0_A_γ
     RDKit          3D

 17 19  0  0  0  0  0  0  0  0999 V2000
   -3.6170   15.4290    1.4840 N   0  0  0  0  0  0  0  0  0  0  0  0
   -2.5370   14.7710    0.7710 C   0  0  1  0  0  0  0  0  0  0  0  0
   -2.3420   15.2420   -0.6800 C   0  0  1  0  0  0  0  0  0  0  0  0
   -1.3760   15.0870    1.5640 N   0  0  0  0  0  0  0  0  0  0  0  0
   -1.1030   14.5230   -1.1960 C   0  0  1  0  0  0  0  0  0  0  0  0
   -3.3730   14.9470   -1.6820 N   0  0  0  0  0  0  0  0  0  0  0  0
   -0.1050   14.6370    1.0030 C   0  0  0  0  0  0  0  0  0  0  0  0
   -1.1700   14.7810   -2.7340 C   0  0  1  0  0  0  0  0  0  0  0  0
   -2.6410   15.1960   -2.9420 C   0  0  0  0  0  0  0  0  0  0  0  0
    0.0340   14.9560   -0.4060 N   0  0  0  0  0  0  0  0  0  0  0  0
   -0.2890   15.8950   -3.1070 O   0  0  0  0  0  0  0  0  0  0  0  0
   -0.7420   13.6580   -3.7080 C   0  0  1  0  0  0  0  0  0  0  0  0
   -1.7360   12.7830   -4.2000 O   0  0  0  0  0  0  0  0  0  0  0  0
   -0.2360   15.8260   -4.5410 C   0  0  2  0  0  0  0  0  0  0  0  0
   -0.0020   14.3530   -4.8540 C   0  0  1  0  0  0  0  0  0  0  0  0
    0.7910   16.7810   -5.1290 C   0  0  0  0  0  0  0  0  0  0  0  0
    1.3570   13.9410   -4.8840 O   0  0  0  0  0  0  0  0  0  0  0  0
  2  1  1  1
  2  3  1  0
  2  4  1  0
  3  5  1  0
  3  6  1  6
  4  7  1  0
  5  8  1  0
  6  9  1  0
  8  9  1  6
  5 10  1  1
  7 10  1  0
  8 11  1  0
  8 12  1  0
 12 13  1  6
 11 14  1  0
 12 15  1  0
 14 15  1  0
 14 16  1  1
 15 17  1  1
M  END
