5CMS_0_P_β-5CB5_0_P_γ
     RDKit          3D

 16 16  0  0  0  0  0  0  0  0999 V2000
   -1.1690   20.9900   -8.2220 O   0  0  0  0  0  0  0  0  0  0  0  0
   -0.5190   19.5360   -7.7900 P   0  0  0  0  0  0  0  0  0  0  0  0
   -0.6190   19.0770   -6.2120 O   0  0  0  0  0  0  0  0  0  0  0  0
    0.7950   20.2230   -7.4490 O   0  0  0  0  0  0  0  0  0  0  0  0
    0.0730   18.5640   -8.9000 O   0  0  0  0  0  0  0  0  0  0  0  0
   -1.7260   17.9740   -5.8480 P   0  0  0  0  0  0  0  0  0  0  0  0
   -0.6760   16.8070   -5.8980 O   0  0  0  0  0  0  0  0  0  0  0  0
   -2.6490   17.1650   -6.9840 O   0  0  0  0  0  0  0  0  0  0  0  0
   -2.1730   17.6690   -4.3800 O   0  0  0  0  0  0  0  0  0  0  0  0
   -0.2770   15.9420   -4.8560 C   0  0  1  0  0  0  0  0  0  0  0  0
   -1.2140   15.8850   -3.8390 O   0  0  0  0  0  0  0  0  0  0  0  0
   -0.0110   14.5130   -5.2120 C   0  0  1  0  0  0  0  0  0  0  0  0
    1.3590   14.1850   -5.2770 O   0  0  0  0  0  0  0  0  0  0  0  0
   -0.7790   14.8650   -2.9880 C   0  0  0  0  0  0  0  0  0  0  0  0
   -0.5130   13.7390   -3.9860 C   0  0  1  0  0  0  0  0  0  0  0  0
   -1.6350   13.0590   -4.3500 O   0  0  0  0  0  0  0  0  0  0  0  0
  1  2  1  0
  2  3  1  0
  2  4  1  0
  2  5  1  0
  3  6  1  0
  6  7  1  0
  6  8  1  0
  6  9  1  0
 10  7  1  6
 10 11  1  0
 10 12  1  0
 12 13  1  1
 11 14  1  0
 12 15  1  0
 14 15  1  0
 15 16  1  6
M  CHG  2   4  -1   8  -1
M  END
