5CMS_0_A_Î±
     RDKit          3D

  9  9  0  0  0  0  0  0  0  0999 V2000
   -2.0420   21.3760   -8.8570 C   0  0  0  0  0  0  0  0  0  0  0  0
   -1.9950   21.7630  -10.3430 C   0  0  1  0  0  0  0  0  0  0  0  0
   -3.2950   22.0390  -10.9130 O   0  0  0  0  0  0  0  0  0  0  0  0
   -1.1690   23.0330  -10.4860 C   0  0  2  0  0  0  0  0  0  0  0  0
   -3.5990   23.4120  -10.6730 C   0  0  2  0  0  0  0  0  0  0  0  0
   -2.2550   24.0880  -10.3050 C   0  0  2  0  0  0  0  0  0  0  0  0
   -0.4880   23.0750  -11.7460 O   0  0  0  0  0  0  0  0  0  0  0  0
   -4.5540   23.4900   -9.6060 O   0  0  0  0  0  0  0  0  0  0  0  0
   -1.9830   25.2620  -11.0800 O   0  0  0  0  0  0  0  0  0  0  0  0
  2  1  1  1
  3  2  1  0
  4  2  1  0
  5  3  1  0
  6  4  1  0
  4  7  1  6
  5  8  1  1
  5  6  1  0
  6  9  1  6
M  END
