5CMS_0_H_δ-5CB5_0_P_δ
     RDKit          3D

 10 11  0  0  0  0  0  0  0  0999 V2000
   -3.9050   15.2200    1.8810 N   0  0  0  0  0  0  0  0  0  0  0  0
   -2.6990   15.3150    1.0850 C   0  0  2  0  0  0  0  0  0  0  0  0
   -2.9170   14.6590   -0.2740 C   0  0  2  0  0  0  0  0  0  0  0  0
   -1.6150   14.7270    1.8350 N   0  0  0  0  0  0  0  0  0  0  0  0
   -1.5280   14.3690   -0.8790 C   0  0  1  0  0  0  0  0  0  0  0  0
   -3.6460   15.3990   -1.3030 N   0  0  0  0  0  0  0  0  0  0  0  0
   -0.3570   14.5180    1.1370 C   0  0  0  0  0  0  0  0  0  0  0  0
   -1.6180   14.7700   -2.2610 N   0  0  0  0  0  0  0  0  0  0  0  0
   -3.0370   14.9270   -2.5330 C   0  0  0  0  0  0  0  0  0  0  0  0
   -0.4340   15.0030   -0.2080 N   0  0  0  0  0  0  0  0  0  0  0  0
  2  1  1  1
  2  3  1  0
  2  4  1  0
  3  5  1  0
  3  6  1  6
  4  7  1  0
  5  8  1  6
  6  9  1  0
  8  9  1  0
  5 10  1  0
  7 10  1  0
M  END
