5CMS_0_D_γ-5cb5_I_0_I_α
     RDKit          3D

 24 26  0  0  0  0  0  0  0  0999 V2000
   -4.0490   15.6550    1.6340 N   0  0  0  0  0  0  0  0  0  0  0  0
   -3.0030   14.9730    0.8910 C   0  0  1  0  0  0  0  0  0  0  0  0
   -2.6450   15.5660   -0.4870 C   0  0  1  0  0  0  0  0  0  0  0  0
   -1.8590   15.0480    1.7790 N   0  0  0  0  0  0  0  0  0  0  0  0
   -1.3980   14.8150   -0.8850 C   0  0  1  0  0  0  0  0  0  0  0  0
   -3.4870   15.4090   -1.7000 N   0  0  0  0  0  0  0  0  0  0  0  0
   -0.6170   14.4930    1.2600 C   0  0  0  0  0  0  0  0  0  0  0  0
   -1.1850   15.2810   -2.2160 N   0  0  0  0  0  0  0  0  0  0  0  0
   -2.5080   15.0910   -2.7850 C   0  0  2  0  0  0  0  0  0  0  0  0
   -0.3050   15.1030   -0.0120 N   0  0  0  0  0  0  0  0  0  0  0  0
   -2.7380   15.8860   -4.0990 C   0  0  0  0  0  0  0  0  0  0  0  0
   -1.7010   16.9700   -4.5260 C   0  0  0  0  0  0  0  0  0  0  0  0
   -2.0130   17.7030   -5.8560 C   0  0  0  0  0  0  0  0  0  0  0  0
   -2.1250   19.2460   -5.7320 C   0  0  0  0  0  0  0  0  0  0  0  0
   -3.1120   19.8420   -6.7400 C   0  0  0  0  0  0  0  0  0  0  0  0
   -4.0750   20.7620   -6.1810 O   0  0  0  0  0  0  0  0  0  0  0  0
   -4.7830   21.4600   -7.2180 C   0  0  2  0  0  0  0  0  0  0  0  0
   -4.2980   21.0190   -8.4750 O   0  0  0  0  0  0  0  0  0  0  0  0
   -4.5080   22.9830   -7.1400 C   0  0  2  0  0  0  0  0  0  0  0  0
   -5.7180   23.7640   -7.0600 O   0  0  0  0  0  0  0  0  0  0  0  0
   -3.3160   21.9510   -8.9100 C   0  0  1  0  0  0  0  0  0  0  0  0
   -3.8450   23.3000   -8.4880 C   0  0  1  0  0  0  0  0  0  0  0  0
   -1.9450   21.6540   -8.3040 C   0  0  0  0  0  0  0  0  0  0  0  0
   -4.7590   23.8500   -9.4470 O   0  0  0  0  0  0  0  0  0  0  0  0
  2  1  1  1
  2  3  1  0
  2  4  1  0
  3  5  1  0
  3  6  1  6
  4  7  1  0
  5  8  1  6
  6  9  1  0
  8  9  1  0
  5 10  1  0
  7 10  1  0
  9 11  1  6
 11 12  1  0
 12 13  1  0
 13 14  1  0
 14 15  1  0
 15 16  1  0
 17 16  1  1
 17 18  1  0
 17 19  1  0
 19 20  1  6
 18 21  1  0
 19 22  1  0
 21 22  1  0
 21 23  1  1
 22 24  1  6
M  END
