5cms_R_17_R_β-x0849_0_A_α
     RDKit          3D

 22 23  0  0  0  0  0  0  0  0999 V2000
   -1.4100   20.6340   -8.5030 O   0  0  0  0  0  0  0  0  0  0  0  0
   -0.3670   19.7880   -7.6550 P   0  0  0  0  0  0  0  0  0  0  0  0
   -1.1250   19.4220   -6.2750 O   0  0  0  0  0  0  0  0  0  0  0  0
    0.9340   20.4780   -7.5130 O   0  0  0  0  0  0  0  0  0  0  0  0
   -0.3210   18.5000   -8.6020 O   0  0  0  0  0  0  0  0  0  0  0  0
   -1.6510   17.9330   -6.0910 P   0  0  0  0  0  0  0  0  0  0  0  0
   -0.2830   17.1280   -6.1630 O   0  0  0  0  0  0  0  0  0  0  0  0
   -2.6290   17.5400   -7.0970 O   0  0  0  0  0  0  0  0  0  0  0  0
   -2.1120   17.4760   -4.6320 O   0  0  0  0  0  0  0  0  0  0  0  0
   -2.5710   16.1000   -4.6270 C   0  0  0  0  0  0  0  0  0  0  0  0
   -2.3680   15.2410   -3.3630 C   0  0  0  0  0  0  0  0  0  0  0  0
   -3.4520   15.4470   -2.4520 O   0  0  0  0  0  0  0  0  0  0  0  0
   -3.4700   15.2900   -1.0710 C   0  0  0  0  0  0  0  0  0  0  0  0
   -2.2880   14.9160   -0.3460 C   0  0  0  0  0  0  0  0  0  0  0  0
   -4.6390   15.5000   -0.3580 C   0  0  0  0  0  0  0  0  0  0  0  0
   -2.4010   14.7940    1.0510 C   0  0  0  0  0  0  0  0  0  0  0  0
   -4.6120   15.3410    1.0020 C   0  0  0  0  0  0  0  0  0  0  0  0
   -1.0070   14.6640   -0.8970 C   0  0  0  0  0  0  0  0  0  0  0  0
   -3.5290   15.0010    1.6820 N   0  0  0  0  0  0  0  0  0  0  0  0
   -1.3970   14.4680    1.8270 N   0  0  0  0  0  0  0  0  0  0  0  0
    0.0550   14.3220   -0.0640 C   0  0  0  0  0  0  0  0  0  0  0  0
   -0.2100   14.2400    1.2870 C   0  0  0  0  0  0  0  0  0  0  0  0
  1  2  1  0
  2  3  1  0
  2  4  2  0
  2  5  1  0
  3  6  1  0
  6  7  1  0
  6  8  2  0
  6  9  1  0
  9 10  1  0
 10 11  1  0
 11 12  1  0
 12 13  1  0
 13 14  2  0
 13 15  1  0
 14 16  1  0
 15 17  2  0
 14 18  1  0
 16 19  2  0
 17 19  1  0
 16 20  1  0
 18 21  2  0
 20 22  2  0
 21 22  1  0
M  END
