5cms_N_13_N_β-5L9K_0_A_β
     RDKit          3D

  9  8  0  0  0  0  0  0  0  0999 V2000
   -1.2810   20.5900   -8.8830 O   0  0  0  0  0  0  0  0  0  0  0  0
   -0.3510   19.8000   -7.8700 P   0  0  0  0  0  0  0  0  0  0  0  0
   -1.3220   19.4910   -6.6880 O   0  0  0  0  0  0  0  0  0  0  0  0
    0.9120   20.5020   -7.5690 O   0  0  0  0  0  0  0  0  0  0  0  0
   -0.1430   18.4550   -8.7110 O   0  0  0  0  0  0  0  0  0  0  0  0
   -1.6720   18.0760   -6.1050 P   0  0  0  0  0  0  0  0  0  0  0  0
   -0.3140   17.2600   -6.2000 O   0  0  0  0  0  0  0  0  0  0  0  0
   -2.8080   17.4270   -6.7850 O   0  0  0  0  0  0  0  0  0  0  0  0
   -1.8180   18.2900   -4.5470 O   0  0  0  0  0  0  0  0  0  0  0  0
  1  2  1  0
  2  3  1  0
  2  4  2  0
  2  5  1  0
  3  6  1  0
  6  7  1  0
  6  8  2  0
  6  9  1  0
M  END
