5CMS_0_J_Î´
     RDKit          3D

 10 11  0  0  0  0  0  0  0  0999 V2000
   -1.9320   14.7590   -2.0270 N   0  0  0  0  0  0  0  0  0  0  0  0
   -1.5840   14.8400   -0.7430 C   0  0  0  0  0  0  0  0  0  0  0  0
   -3.2680   14.9290   -2.1560 C   0  0  0  0  0  0  0  0  0  0  0  0
   -0.4000   14.7540   -0.0580 N   0  0  0  0  0  0  0  0  0  0  0  0
   -2.8410   15.1060   -0.0200 C   0  0  0  0  0  0  0  0  0  0  0  0
   -3.8340   15.1410   -0.9340 N   0  0  0  0  0  0  0  0  0  0  0  0
   -0.3950   14.9130    1.2940 C   0  0  0  0  0  0  0  0  0  0  0  0
   -2.7490   15.2570    1.4500 C   0  0  0  0  0  0  0  0  0  0  0  0
   -1.5130   15.1490    2.0290 N   0  0  0  0  0  0  0  0  0  0  0  0
   -3.8940   15.5060    2.1470 N   0  0  0  0  0  0  0  0  0  0  0  0
  1  2  1  0
  1  3  1  0
  4  2  1  0
  2  5  1  0
  6  3  1  0
  7  4  1  0
  8  5  1  0
  5  6  1  0
  9  7  1  0
  9  8  1  0
  8 10  1  0
M  END
