5CMS_0_L_β-6MEA_0_A_β
     RDKit          3D

 10  9  0  0  0  0  0  0  0  0999 V2000
   -1.6100   20.5700   -8.5830 O   0  0  0  0  0  0  0  0  0  0  0  0
   -0.6830   19.3410   -7.8590 P   0  0  0  0  0  0  0  0  0  0  0  0
   -1.0090   19.0830   -6.2860 O   0  0  0  0  0  0  0  0  0  0  0  0
    0.3070   20.3970   -7.6110 O   0  0  0  0  0  0  0  0  0  0  0  0
    0.1730   18.4150   -8.7980 O   0  0  0  0  0  0  0  0  0  0  0  0
   -1.5080   17.6680   -5.8700 P   0  0  0  0  0  0  0  0  0  0  0  0
   -0.3080   21.9420   -7.6430 P   0  0  0  0  0  0  0  0  0  0  0  0
   -0.3230   17.2980   -4.9460 O   0  0  0  0  0  0  0  0  0  0  0  0
   -2.7600   17.6500   -6.7380 O   0  0  0  0  0  0  0  0  0  0  0  0
   -2.5120   17.4160   -4.5650 O   0  0  0  0  0  0  0  0  0  0  0  0
  1  2  1  0
  2  3  1  0
  2  4  1  0
  2  5  1  0
  3  6  1  0
  4  7  1  0
  6  8  1  0
  6  9  1  0
  6 10  1  0
M  CHG  1   9  -1
M  END
