5cms_M_12_M_β-5CB5_0_R_δ
     RDKit          3D

 21 22  0  0  0  0  0  0  0  0999 V2000
   -1.6900   20.3580   -8.1510 O   0  0  0  0  0  0  0  0  0  0  0  0
   -0.2460   19.7760   -7.8020 P   0  0  0  0  0  0  0  0  0  0  0  0
   -0.4170   18.9110   -6.4870 O   0  0  0  0  0  0  0  0  0  0  0  0
    0.7960   20.8350   -7.7840 O   0  0  0  0  0  0  0  0  0  0  0  0
   -0.0290   18.6630   -8.9150 O   0  0  0  0  0  0  0  0  0  0  0  0
   -1.8230   18.3800   -6.0070 P   0  0  2  0  0  0  0  0  0  0  0  0
   -1.5680   17.6490   -4.6260 O   0  0  0  0  0  0  0  0  0  0  0  0
   -2.6380   17.6200   -6.9820 O   0  0  0  0  0  0  0  0  0  0  0  0
   -2.5200   19.6430   -5.3510 O   0  0  0  0  0  0  0  0  0  0  0  0
   -1.8840   16.2800   -4.4880 C   0  0  0  0  0  0  0  0  0  0  0  0
   -0.9200   15.6400   -3.4740 C   0  0  0  0  0  0  0  0  0  0  0  0
   -1.5800   14.7950   -2.4550 N   0  0  0  0  0  0  0  0  0  0  0  0
   -1.4130   15.2390   -1.0710 C   0  0  1  0  0  0  0  0  0  0  0  0
   -3.0520   14.6750   -2.6050 C   0  0  0  0  0  0  0  0  0  0  0  0
   -2.8450   15.4580   -0.5670 C   0  0  1  0  0  0  0  0  0  0  0  0
   -3.5810   14.4140   -1.2650 N   0  0  0  0  0  0  0  0  0  0  0  0
   -0.6190   14.3600   -0.2520 N   0  0  0  0  0  0  0  0  0  0  0  0
   -0.5680   14.9680    1.0540 C   0  0  0  0  0  0  0  0  0  0  0  0
   -2.9200   15.5870    0.9560 C   0  0  1  0  0  0  0  0  0  0  0  0
   -4.2220   15.2730    1.5160 N   0  0  0  0  0  0  0  0  0  0  0  0
   -1.8840   14.8500    1.6540 N   0  0  0  0  0  0  0  0  0  0  0  0
  1  2  1  0
  2  3  1  0
  2  4  2  0
  2  5  1  0
  3  6  1  0
  6  7  1  0
  6  8  2  0
  6  9  1  1
  7 10  1  0
 10 11  1  0
 11 12  1  0
 12 13  1  0
 12 14  1  0
 13 15  1  0
 14 16  1  0
 15 16  1  1
 13 17  1  1
 17 18  1  0
 15 19  1  0
 19 20  1  1
 18 21  1  0
 19 21  1  0
M  END
