5cms_K_10_K_γ-5cb5_R_0_R_β
     RDKit          3D

 16 16  0  0  0  0  0  0  0  0999 V2000
   -1.5740   12.6730   -4.2170 O   0  0  0  0  0  0  0  0  0  0  0  0
   -0.3700   13.3780   -3.9820 C   0  0  2  0  0  0  0  0  0  0  0  0
   -0.4690   14.3950   -2.8340 C   0  0  0  0  0  0  0  0  0  0  0  0
    0.0620   14.2230   -5.1750 C   0  0  2  0  0  0  0  0  0  0  0  0
    1.4880   14.0780   -5.2210 O   0  0  0  0  0  0  0  0  0  0  0  0
   -0.0330   15.6610   -3.3530 O   0  0  0  0  0  0  0  0  0  0  0  0
   -0.4340   15.6040   -4.7270 C   0  0  1  0  0  0  0  0  0  0  0  0
    0.0390   16.8780   -5.4290 C   0  0  0  0  0  0  0  0  0  0  0  0
   -1.3030   18.0000   -5.9260 P   0  0  1  0  0  0  0  0  0  0  0  0
   -0.7260   19.3650   -6.4600 O   0  0  0  0  0  0  0  0  0  0  0  0
   -2.3850   17.4030   -6.7770 O   0  0  0  0  0  0  0  0  0  0  0  0
   -1.8810   18.5160   -4.5430 O   0  0  0  0  0  0  0  0  0  0  0  0
   -0.1330   19.9160   -7.7850 P   0  0  0  0  0  0  0  0  0  0  0  0
   -1.4080   20.5940   -8.4480 O   0  0  0  0  0  0  0  0  0  0  0  0
    1.0490   20.8160   -7.6660 O   0  0  0  0  0  0  0  0  0  0  0  0
    0.0350   18.6730   -8.7810 O   0  0  0  0  0  0  0  0  0  0  0  0
  2  1  1  6
  2  3  1  0
  2  4  1  0
  4  5  1  1
  3  6  1  0
  4  7  1  0
  6  7  1  0
  7  8  1  6
  8  9  1  0
  9 10  1  0
  9 11  2  0
  9 12  1  1
 10 13  1  0
 13 14  1  0
 13 15  2  0
 13 16  1  0
M  END
