
     RDKit          3D

 36 39  0  0  0  0  0  0  0  0999 V2000
   -2.1280   17.8900   -6.2290 P   0  0  0  0  0  0  0  0  0  0  0  0
   -0.6560   19.2040   -8.3730 P   0  0  0  0  0  0  0  0  0  0  0  0
    0.1270   16.5480   -5.5860 C   0  0  0  0  0  0  0  0  0  0  0  0
   -1.1390   17.1010   -5.2180 O   0  0  0  0  0  0  0  0  0  0  0  0
    0.4900   15.3720   -4.6830 C   0  0  1  0  0  0  0  0  0  0  0  0
   -0.0590   15.5240   -3.3720 O   0  0  0  0  0  0  0  0  0  0  0  0
   -0.0700   14.0520   -5.1880 C   0  0  1  0  0  0  0  0  0  0  0  0
    0.8850   13.0270   -4.9440 O   0  0  0  0  0  0  0  0  0  0  0  0
   -1.2990   13.7930   -4.3480 C   0  0  1  0  0  0  0  0  0  0  0  0
   -1.6390   12.3990   -4.3650 O   0  0  0  0  0  0  0  0  0  0  0  0
   -0.8380   14.3660   -3.0050 C   0  0  2  0  0  0  0  0  0  0  0  0
   -2.5870   22.5850  -10.9280 C   0  0  1  0  0  0  0  0  0  0  0  0
   -1.7560   15.4730    2.0440 N   0  0  0  0  0  0  0  0  0  0  0  0
   -3.2760   17.0190   -6.7020 O   0  0  0  0  0  0  0  0  0  0  0  0
    0.8030   19.4890   -8.1610 O   0  0  0  0  0  0  0  0  0  0  0  0
   -3.9500   22.6360  -11.3520 O   0  0  0  0  0  0  0  0  0  0  0  0
   -0.5880   15.1340    1.4440 C   0  0  0  0  0  0  0  0  0  0  0  0
   -1.9460   23.9030  -10.4950 C   0  0  2  0  0  0  0  0  0  0  0  0
   -2.5150   19.2230   -5.5380 O   0  0  0  0  0  0  0  0  0  0  0  0
   -1.2180   18.9500   -9.7400 O   0  0  0  0  0  0  0  0  0  0  0  0
   -1.6580   24.7780  -11.5820 O   0  0  0  0  0  0  0  0  0  0  0  0
   -0.7000   23.4610   -9.7220 C   0  0  2  0  0  0  0  0  0  0  0  0
   -0.5190   14.8740    0.1210 N   0  0  0  0  0  0  0  0  0  0  0  0
   -1.1420   17.9350   -7.5140 O   0  0  0  0  0  0  0  0  0  0  0  0
    0.5480   23.4250  -10.4430 O   0  0  0  0  0  0  0  0  0  0  0  0
   -1.6380   14.9420   -0.6860 C   0  0  0  0  0  0  0  0  0  0  0  0
   -1.0700   22.0400   -9.3490 C   0  0  2  0  0  0  0  0  0  0  0  0
   -2.4390   21.8170   -9.7360 O   0  0  0  0  0  0  0  0  0  0  0  0
   -2.9480   15.3070   -0.0830 C   0  0  0  0  0  0  0  0  0  0  0  0
   -0.8570   21.7280   -7.8880 C   0  0  0  0  0  0  0  0  0  0  0  0
   -1.4280   20.4400   -7.7310 O   0  0  0  0  0  0  0  0  0  0  0  0
   -2.9400   15.5790    1.3790 C   0  0  0  0  0  0  0  0  0  0  0  0
   -4.0810   15.9300    1.9960 N   0  0  0  0  0  0  0  0  0  0  0  0
   -3.8740   15.3090   -1.0760 N   0  0  0  0  0  0  0  0  0  0  0  0
   -3.2210   14.9690   -2.2240 C   0  0  0  0  0  0  0  0  0  0  0  0
   -1.8940   14.7520   -2.0020 N   0  0  0  0  0  0  0  0  0  0  0  0
  1  4  1  0
  1 14  1  0
  1 19  1  0
  1 24  1  0
  4  3  1  0
 24  2  1  0
  2 15  1  0
  2 20  1  0
  2 31  1  0
 31 30  1  0
  5  3  1  6
  5  6  1  0
  5  7  1  0
  6 11  1  0
  7  8  1  1
  7  9  1  0
 11  9  1  0
 11 36  1  1
  9 10  1  1
 36 26  1  0
 36 35  1  0
 12 16  1  1
 12 18  1  0
 12 28  1  0
 18 21  1  6
 18 22  1  0
 28 27  1  0
 13 17  1  0
 13 32  1  0
 17 23  1  0
 32 29  1  0
 32 33  1  0
 23 26  1  0
 22 25  1  6
 22 27  1  0
 27 30  1  1
 26 29  1  0
 29 34  1  0
 34 35  1  0
M  CHG  2  14  -1  15  -1
M  END
