5cms_C_2_C_γ-5CMS_0_G_γ
     RDKit          3D

 17 19  0  0  0  0  0  0  0  0999 V2000
   -1.4310   12.3580   -3.4180 O   0  0  0  0  0  0  0  0  0  0  0  0
   -0.7030   13.5770   -3.3440 C   0  0  2  0  0  0  0  0  0  0  0  0
   -1.3770   14.7890   -2.6490 C   0  0  2  0  0  0  0  0  0  0  0  0
   -0.3990   14.0350   -4.7710 C   0  0  2  0  0  0  0  0  0  0  0  0
    0.8640   13.5380   -5.1950 O   0  0  0  0  0  0  0  0  0  0  0  0
   -0.8260   15.9320   -3.3580 O   0  0  0  0  0  0  0  0  0  0  0  0
   -0.5440   15.5580   -4.7270 C   0  0  1  0  0  0  0  0  0  0  0  0
   -1.1700   15.0900   -1.1200 C   0  0  1  0  0  0  0  0  0  0  0  0
   -2.9370   14.7450   -2.7370 C   0  0  0  0  0  0  0  0  0  0  0  0
    0.6440   16.3740   -5.2170 C   0  0  0  0  0  0  0  0  0  0  0  0
   -2.6050   15.4450   -0.6390 C   0  0  1  0  0  0  0  0  0  0  0  0
   -3.4740   14.5380   -1.3720 N   0  0  0  0  0  0  0  0  0  0  0  0
   -0.4640   14.1400   -0.2520 N   0  0  0  0  0  0  0  0  0  0  0  0
   -0.4770   14.5720    1.1310 C   0  0  0  0  0  0  0  0  0  0  0  0
   -2.6850   15.5110    0.9040 C   0  0  1  0  0  0  0  0  0  0  0  0
   -4.0310   15.3790    1.4380 N   0  0  0  0  0  0  0  0  0  0  0  0
   -1.8380   14.5900    1.6100 N   0  0  0  0  0  0  0  0  0  0  0  0
  2  1  1  6
  2  3  1  0
  2  4  1  0
  4  5  1  1
  3  6  1  0
  4  7  1  0
  6  7  1  0
  3  8  1  0
  3  9  1  1
  7 10  1  1
  8 11  1  0
  9 12  1  0
 11 12  1  1
  8 13  1  1
 13 14  1  0
 11 15  1  0
 15 16  1  6
 14 17  1  0
 15 17  1  0
M  END
