5CMS_0_J_Î³
     RDKit          3D

  8  8  0  0  0  0  0  0  0  0999 V2000
   -0.9240   14.4630   -3.0670 C   0  0  0  0  0  0  0  0  0  0  0  0
   -0.1900   15.6230   -3.4690 O   0  0  0  0  0  0  0  0  0  0  0  0
   -1.4340   13.8220   -4.3670 C   0  0  1  0  0  0  0  0  0  0  0  0
    0.4490   15.2960   -4.7080 C   0  0  1  0  0  0  0  0  0  0  0  0
   -0.1680   13.9670   -5.1640 C   0  0  1  0  0  0  0  0  0  0  0  0
   -1.7650   12.4220   -4.3000 O   0  0  0  0  0  0  0  0  0  0  0  0
    0.2280   16.4470   -5.6650 C   0  0  0  0  0  0  0  0  0  0  0  0
    0.6210   12.8310   -4.7790 O   0  0  0  0  0  0  0  0  0  0  0  0
  1  2  1  1
  1  3  1  0
  4  2  1  0
  5  3  1  0
  3  6  1  1
  4  7  1  6
  4  5  1  0
  5  8  1  1
M  END
