5CMS_0_J_β-mArh-x0724_0_A_α
     RDKit          3D

 26 27  0  0  0  0  0  0  0  0999 V2000
   -0.1910   21.3260   -7.5200 O   0  0  0  0  0  0  0  0  0  0  0  0
   -0.1470   19.6710   -7.8310 P   0  0  0  0  0  0  0  0  0  0  0  0
   -0.8300   19.3620   -6.5020 O   0  0  0  0  0  0  0  0  0  0  0  0
    1.0710   18.7160   -7.3460 O   0  0  0  0  0  0  0  0  0  0  0  0
   -1.2190   19.0740   -8.7920 O   0  0  0  0  0  0  0  0  0  0  0  0
   -1.6150   18.1950   -5.8830 P   0  0  0  0  0  0  0  0  0  0  0  0
   -0.3150   17.3160   -5.4250 O   0  0  0  0  0  0  0  0  0  0  0  0
   -2.3860   17.9410   -7.3120 O   0  0  0  0  0  0  0  0  0  0  0  0
   -2.3360   19.1950   -4.8530 O   0  0  0  0  0  0  0  0  0  0  0  0
   -0.2760   16.8710   -4.1040 C   0  0  0  0  0  0  0  0  0  0  0  0
   -1.4870   16.0910   -3.6750 C   0  0  0  0  0  0  0  0  0  0  0  0
   -1.2660   15.4910   -2.2910 C   0  0  0  0  0  0  0  0  0  0  0  0
   -2.5460   15.2710   -1.5290 C   0  0  0  0  0  0  0  0  0  0  0  0
   -2.5810   15.3430   -0.1490 C   0  0  0  0  0  0  0  0  0  0  0  0
   -3.7420   14.9920   -2.1610 C   0  0  0  0  0  0  0  0  0  0  0  0
   -3.7550   15.1550    0.5540 C   0  0  0  0  0  0  0  0  0  0  0  0
   -4.9160   14.8050   -1.4550 C   0  0  0  0  0  0  0  0  0  0  0  0
   -4.9550   14.8860   -0.0780 C   0  0  0  0  0  0  0  0  0  0  0  0
   -6.1710   14.7210    0.6520 N   0  0  0  0  0  0  0  0  0  0  0  0
   -7.3390   14.3440    0.1820 N   0  0  0  0  0  0  0  0  0  0  0  0
   -6.3560   14.9470    1.9570 C   0  0  0  0  0  0  0  0  0  0  0  0
   -7.6710   14.7250    2.3170 C   0  0  0  0  0  0  0  0  0  0  0  0
   -8.2800   14.3310    1.1470 C   0  0  0  0  0  0  0  0  0  0  0  0
   -8.2450   14.9050    3.6870 C   0  0  0  0  0  0  0  0  0  0  0  0
   -8.4120   13.6380    4.3720 N   0  0  0  0  0  0  0  0  0  0  0  0
   -8.5530   13.8210    5.7810 C   0  0  0  0  0  0  0  0  0  0  0  0
  1  2  1  0
  2  3  1  0
  2  4  1  0
  2  5  1  0
  3  6  1  0
  6  7  1  0
  6  8  1  0
  6  9  1  0
  7 10  1  0
 10 11  1  0
 11 12  1  0
 12 13  1  0
 13 14  2  0
 13 15  1  0
 14 16  1  0
 15 17  2  0
 16 18  2  0
 17 18  1  0
 18 19  1  0
 19 20  1  0
 19 21  1  0
 21 22  2  0
 20 23  2  0
 22 23  1  0
 22 24  1  0
 24 25  1  0
 25 26  1  0
M  CHG  2   4  -1   8  -1
M  END
