5CMS_0_M_γ-5cb5_Q_0_Q_α
     RDKit          3D

 21 22  0  0  0  0  0  0  0  0999 V2000
   -0.9200   12.2240   -4.4590 O   0  0  0  0  0  0  0  0  0  0  0  0
   -1.0720   13.6270   -4.3530 C   0  0  1  0  0  0  0  0  0  0  0  0
   -0.8750   14.1640   -2.9380 C   0  0  0  0  0  0  0  0  0  0  0  0
    0.0090   14.3870   -5.0890 C   0  0  2  0  0  0  0  0  0  0  0  0
    1.2780   13.8010   -4.7990 O   0  0  0  0  0  0  0  0  0  0  0  0
   -0.2880   15.4720   -3.0800 O   0  0  0  0  0  0  0  0  0  0  0  0
   -0.3160   15.7540   -4.4880 C   0  0  1  0  0  0  0  0  0  0  0  0
    0.5540   16.9740   -4.7660 C   0  0  0  0  0  0  0  0  0  0  0  0
    0.4210   17.5710   -6.1620 C   0  0  0  0  0  0  0  0  0  0  0  0
    0.1790   19.0580   -6.3120 C   0  0  0  0  0  0  0  0  0  0  0  0
   -0.6190   19.5000   -7.5630 C   0  0  0  0  0  0  0  0  0  0  0  0
   -1.8100   20.4530   -7.2820 C   0  0  0  0  0  0  0  0  0  0  0  0
   -1.8350   21.7420   -8.1450 C   0  0  0  0  0  0  0  0  0  0  0  0
   -3.2140   22.0910   -8.7600 C   0  0  1  0  0  0  0  0  0  0  0  0
   -4.1920   21.2160   -8.2170 O   0  0  0  0  0  0  0  0  0  0  0  0
   -3.7710   23.4940   -8.4780 C   0  0  1  0  0  0  0  0  0  0  0  0
   -4.6170   24.0110   -9.5010 O   0  0  0  0  0  0  0  0  0  0  0  0
   -5.1300   21.9410   -7.4140 C   0  0  2  0  0  0  0  0  0  0  0  0
   -4.5060   23.2850   -7.1610 C   0  0  2  0  0  0  0  0  0  0  0  0
   -5.3650   21.3210   -6.1500 O   0  0  0  0  0  0  0  0  0  0  0  0
   -5.5080   24.2570   -6.8760 O   0  0  0  0  0  0  0  0  0  0  0  0
  2  1  1  1
  2  3  1  0
  2  4  1  0
  4  5  1  1
  3  6  1  0
  4  7  1  0
  6  7  1  0
  7  8  1  1
  8  9  1  0
  9 10  1  0
 10 11  1  0
 11 12  1  0
 12 13  1  0
 14 13  1  1
 14 15  1  0
 14 16  1  0
 16 17  1  6
 15 18  1  0
 16 19  1  0
 18 19  1  0
 18 20  1  1
 19 21  1  6
M  END
