5CMS_0_F_β-5fud_A_0_A_α
     RDKit          3D

 16 16  0  0  0  0  0  0  0  0999 V2000
   -1.7960   20.8090   -8.7130 O   0  0  0  0  0  0  0  0  0  0  0  0
   -1.0680   19.7900   -7.8020 P   0  0  0  0  0  0  0  0  0  0  0  0
   -0.5940   19.0280   -6.5470 O   0  0  0  0  0  0  0  0  0  0  0  0
   -2.2490   21.9320   -7.9300 C   0  0  0  0  0  0  0  0  0  0  0  0
   -0.1420   21.1120   -7.3360 O   0  0  0  0  0  0  0  0  0  0  0  0
   -0.3140   18.7940   -8.8230 O   0  0  0  0  0  0  0  0  0  0  0  0
   -3.6810   22.1120   -7.9820 N   0  0  0  0  0  0  0  0  0  0  0  0
   -1.4970   17.9890   -5.8560 P   0  0  0  0  0  0  0  0  0  0  0  0
   -4.1210   22.5080   -9.3020 C   0  0  0  0  0  0  0  0  0  0  0  0
   -4.0680   23.1780   -7.1120 C   0  0  0  0  0  0  0  0  0  0  0  0
   -0.1900   16.9390   -5.8040 O   0  0  0  0  0  0  0  0  0  0  0  0
   -2.5700   17.9540   -7.0890 O   0  0  0  0  0  0  0  0  0  0  0  0
   -1.8090   18.9240   -4.6000 O   0  0  0  0  0  0  0  0  0  0  0  0
   -5.6260   22.7190   -9.3610 C   0  0  0  0  0  0  0  0  0  0  0  0
   -5.5680   23.3720   -7.1510 C   0  0  0  0  0  0  0  0  0  0  0  0
   -6.0310   23.6480   -8.4350 O   0  0  0  0  0  0  0  0  0  0  0  0
  1  2  1  0
  2  3  1  0
  1  4  1  0
  2  5  1  0
  2  6  1  0
  4  7  1  0
  3  8  1  0
  7  9  1  0
  7 10  1  0
  8 11  1  0
  8 12  1  0
  8 13  1  0
  9 14  1  0
 10 15  1  0
 14 16  1  0
 15 16  1  0
M  CHG  2   5  -1  12  -1
M  END
