5CMS_0_N_α-5cms_C_2_C_α
     RDKit          3D

 11 11  0  0  0  0  0  0  0  0999 V2000
   -2.0450   21.5260   -9.1540 C   0  0  0  0  0  0  0  0  0  0  0  0
   -3.1170   22.6060   -9.1820 C   0  0  2  0  0  0  0  0  0  0  0  0
   -4.2920   22.0380   -8.6020 O   0  0  0  0  0  0  0  0  0  0  0  0
   -3.6710   23.1870  -10.5140 C   0  0  0  0  0  0  0  0  0  0  0  0
   -3.6990   22.3560  -11.6520 O   0  0  0  0  0  0  0  0  0  0  0  0
   -3.2250   24.4890  -10.8550 O   0  0  0  0  0  0  0  0  0  0  0  0
   -5.2260   23.1000   -8.7750 C   0  0  1  0  0  0  0  0  0  0  0  0
   -5.0490   23.6350  -10.2020 C   0  0  0  0  0  0  0  0  0  0  0  0
   -6.5220   22.6040   -8.5950 O   0  0  0  0  0  0  0  0  0  0  0  0
   -5.9430   23.1340  -11.1860 O   0  0  0  0  0  0  0  0  0  0  0  0
   -5.0500   25.0380  -10.2940 O   0  0  0  0  0  0  0  0  0  0  0  0
  2  1  1  6
  2  3  1  0
  2  4  1  0
  4  5  1  0
  4  6  1  0
  3  7  1  0
  4  8  1  0
  7  8  1  0
  7  9  1  6
  8 10  1  0
  8 11  1  0
M  END
