5CMS_0_J_α-mArh-1hjz_A_0_A_α
     RDKit          3D

 20 22  0  0  0  0  0  0  0  0999 V2000
    0.3730   21.3810   -8.3610 C   0  0  0  0  0  0  0  0  0  0  0  0
   -0.7640   20.0530   -8.1210 S   0  0  0  0  0  0  0  0  0  0  0  0
    0.6510   20.1120   -7.8910 O   0  0  0  0  0  0  0  0  0  0  0  0
    0.0780   22.7210   -8.8830 C   0  0  0  0  0  0  0  0  0  0  0  0
   -2.0330   21.0850   -8.6420 N   0  0  0  0  0  0  0  0  0  0  0  0
   -0.9340   18.6700   -7.6880 O   0  0  0  0  0  0  0  0  0  0  0  0
   -0.6230   22.4420  -10.1030 N   0  0  0  0  0  0  0  0  0  0  0  0
   -2.3090   21.9470   -7.4800 C   0  0  0  0  0  0  0  0  0  0  0  0
   -1.9210   21.7620   -9.9850 C   0  0  2  0  0  0  0  0  0  0  0  0
   -0.7860   23.4590  -11.0980 C   0  0  2  0  0  0  0  0  0  0  0  0
    0.2660   24.3700  -11.1920 O   0  0  0  0  0  0  0  0  0  0  0  0
   -2.8500   23.0320  -10.2010 C   0  0  1  0  0  0  0  0  0  0  0  0
   -3.6840   22.3360   -7.4850 N   0  0  0  0  0  0  0  0  0  0  0  0
   -1.9120   24.1700  -10.4980 C   0  0  0  0  0  0  0  0  0  0  0  0
   -3.8790   23.0170  -11.1780 O   0  0  0  0  0  0  0  0  0  0  0  0
   -4.1610   22.4660   -8.8760 C   0  0  0  0  0  0  0  0  0  0  0  0
   -3.8530   23.6210   -6.8190 C   0  0  0  0  0  0  0  0  0  0  0  0
   -5.5080   23.1660   -9.0820 C   0  0  0  0  0  0  0  0  0  0  0  0
   -5.2750   24.0860   -6.9750 C   0  0  0  0  0  0  0  0  0  0  0  0
   -5.5610   24.3760   -8.3370 O   0  0  0  0  0  0  0  0  0  0  0  0
  1  2  2  0
  2  3  2  0
  1  4  1  0
  2  5  1  0
  2  6  1  0
  4  7  1  0
  5  8  1  0
  9  5  1  1
  7  9  1  0
  7 10  1  0
 10 11  1  1
  9 12  1  0
  8 13  1  0
 10 14  1  0
 12 14  1  0
 12 15  1  6
 13 16  1  0
 13 17  1  0
 16 18  1  0
 17 19  1  0
 18 20  1  0
 19 20  1  0
M  CHG  1   6  -1
M  END
