5CMS_0_I_α-5CMS_0_Q_γ
     RDKit          3D

 23 24  0  0  0  0  0  0  0  0999 V2000
   -2.5670   21.4200   -7.4480 C   0  0  0  0  0  0  0  0  0  0  0  0
   -2.9700   21.7700   -8.8660 C   0  0  1  0  0  0  0  0  0  0  0  0
   -4.3940   21.6530   -8.9620 O   0  0  0  0  0  0  0  0  0  0  0  0
   -2.6840   23.1950   -9.2280 C   0  0  1  0  0  0  0  0  0  0  0  0
   -1.2970   23.3020   -9.4470 O   0  0  0  0  0  0  0  0  0  0  0  0
   -4.8500   22.7650   -9.7500 C   0  0  2  0  0  0  0  0  0  0  0  0
   -3.6220   23.3000  -10.4360 C   0  0  2  0  0  0  0  0  0  0  0  0
   -5.4540   23.7510   -8.9450 O   0  0  0  0  0  0  0  0  0  0  0  0
   -3.4740   22.3480  -11.4950 O   0  0  0  0  0  0  0  0  0  0  0  0
   -0.5570   22.7850   -8.3350 C   0  0  0  0  0  0  0  0  0  0  0  0
   -0.3210   21.2920   -8.5780 C   0  0  0  0  0  0  0  0  0  0  0  0
   -0.6260   20.3040   -7.4540 C   0  0  0  0  0  0  0  0  0  0  0  0
    0.6130   19.4900   -7.1650 C   0  0  0  0  0  0  0  0  0  0  0  0
    0.6360   18.7530   -5.8320 C   0  0  0  0  0  0  0  0  0  0  0  0
    0.3770   17.3040   -5.9790 C   0  0  0  0  0  0  0  0  0  0  0  0
   -0.1930   16.5730   -4.7950 C   0  0  0  0  0  0  0  0  0  0  0  0
    0.5110   15.3030   -4.3470 C   0  0  1  0  0  0  0  0  0  0  0  0
    0.2050   15.0700   -2.9680 O   0  0  0  0  0  0  0  0  0  0  0  0
    0.1260   14.0030   -5.0400 C   0  0  1  0  0  0  0  0  0  0  0  0
    1.0530   12.9480   -4.8220 O   0  0  0  0  0  0  0  0  0  0  0  0
   -0.9810   14.2610   -2.9470 C   0  0  0  0  0  0  0  0  0  0  0  0
   -1.2090   13.7320   -4.3610 C   0  0  2  0  0  0  0  0  0  0  0  0
   -1.5510   12.3520   -4.4070 O   0  0  0  0  0  0  0  0  0  0  0  0
  2  1  1  1
  2  3  1  0
  2  4  1  0
  4  5  1  6
  3  6  1  0
  4  7  1  0
  6  7  1  0
  6  8  1  1
  7  9  1  6
  5 10  1  0
 10 11  1  0
 11 12  1  0
 12 13  1  0
 13 14  1  0
 14 15  1  0
 15 16  1  0
 17 16  1  6
 17 18  1  0
 17 19  1  0
 19 20  1  1
 18 21  1  0
 19 22  1  0
 21 22  1  0
 22 23  1  1
M  END
