5CMS_0_N_γ-5L9K_0_B_β
     RDKit          3D

 18 18  0  0  0  0  0  0  0  0999 V2000
    0.8570   12.4840   -4.1790 O   0  0  0  0  0  0  0  0  0  0  0  0
   -0.0260   13.5690   -4.1620 C   0  0  1  0  0  0  0  0  0  0  0  0
    0.5340   14.5120   -3.0780 C   0  0  0  0  0  0  0  0  0  0  0  0
    0.1420   14.3900   -5.4340 C   0  0  2  0  0  0  0  0  0  0  0  0
    0.9110   13.6460   -6.2820 O   0  0  0  0  0  0  0  0  0  0  0  0
    0.3700   15.7720   -3.6470 O   0  0  0  0  0  0  0  0  0  0  0  0
    0.8690   15.5800   -4.9500 C   0  0  2  0  0  0  0  0  0  0  0  0
    0.6240   16.8740   -5.6070 C   0  0  0  0  0  0  0  0  0  0  0  0
   -0.0770   17.8770   -4.6810 C   0  0  0  0  0  0  0  0  0  0  0  0
   -1.4390   17.7400   -4.9970 O   0  0  0  0  0  0  0  0  0  0  0  0
   -2.0220   18.6270   -6.0680 P   0  0  0  0  0  0  0  0  0  0  0  0
   -0.5840   19.0120   -6.7350 O   0  0  0  0  0  0  0  0  0  0  0  0
   -2.6200   19.6160   -4.9630 O   0  0  0  0  0  0  0  0  0  0  0  0
   -2.8930   17.3760   -6.7090 O   0  0  0  0  0  0  0  0  0  0  0  0
   -0.5490   19.8570   -7.9740 P   0  0  0  0  0  0  0  0  0  0  0  0
   -2.1420   20.3750   -7.7310 O   0  0  0  0  0  0  0  0  0  0  0  0
   -0.2570   18.5160   -8.8360 O   0  0  0  0  0  0  0  0  0  0  0  0
    0.6240   20.8800   -7.6100 O   0  0  0  0  0  0  0  0  0  0  0  0
  2  1  1  6
  2  3  1  0
  2  4  1  0
  4  5  1  6
  3  6  1  0
  4  7  1  0
  6  7  1  0
  7  8  1  6
  8  9  1  0
  9 10  1  0
 10 11  1  0
 11 12  1  0
 11 13  1  0
 11 14  1  0
 12 15  1  0
 15 16  1  0
 15 17  1  0
 15 18  1  0
M  CHG  2  13  -1  17  -1
M  END
