5CMS_0_A_δ-5CMS_0_F_α
     RDKit          3D

 25 27  0  0  0  0  0  0  0  0999 V2000
   -4.3950   15.4700    1.5070 N   0  0  0  0  0  0  0  0  0  0  0  0
   -3.0910   15.5060    0.8640 C   0  0  2  0  0  0  0  0  0  0  0  0
   -3.0470   14.7500   -0.4710 C   0  0  2  0  0  0  0  0  0  0  0  0
   -2.1750   14.8540    1.7860 N   0  0  0  0  0  0  0  0  0  0  0  0
   -1.5960   14.7940   -0.8460 C   0  0  2  0  0  0  0  0  0  0  0  0
   -3.6470   15.3770   -1.6850 N   0  0  0  0  0  0  0  0  0  0  0  0
   -0.7780   14.7670    1.2900 C   0  0  0  0  0  0  0  0  0  0  0  0
   -1.6280   14.3860   -2.2180 N   0  0  0  0  0  0  0  0  0  0  0  0
   -2.4830   15.5030   -2.5820 C   0  0  1  0  0  0  0  0  0  0  0  0
   -0.7020   14.1250    0.0060 N   0  0  0  0  0  0  0  0  0  0  0  0
   -2.7610   15.6320   -4.0840 C   0  0  0  0  0  0  0  0  0  0  0  0
   -1.6830   16.5010   -4.7760 C   0  0  0  0  0  0  0  0  0  0  0  0
   -2.1130   17.4830   -5.8740 C   0  0  0  0  0  0  0  0  0  0  0  0
   -1.7450   18.9350   -5.5980 C   0  0  0  0  0  0  0  0  0  0  0  0
   -1.3840   19.6840   -6.8810 C   0  0  0  0  0  0  0  0  0  0  0  0
   -2.3310   20.8250   -7.2390 C   0  0  0  0  0  0  0  0  0  0  0  0
   -2.1830   21.4400   -8.6260 C   0  0  0  0  0  0  0  0  0  0  0  0
   -3.4520   22.1500   -9.1200 C   0  0  2  0  0  0  0  0  0  0  0  0
   -3.7650   21.9450  -10.4890 O   0  0  0  0  0  0  0  0  0  0  0  0
   -3.4250   23.6650   -8.9670 C   0  0  1  0  0  0  0  0  0  0  0  0
   -2.1530   24.1670   -8.6140 O   0  0  0  0  0  0  0  0  0  0  0  0
   -4.6890   22.9490  -10.8670 C   0  0  2  0  0  0  0  0  0  0  0  0
   -4.2450   24.2210  -10.2080 C   0  0  2  0  0  0  0  0  0  0  0  0
   -5.9510   22.6640  -10.3460 O   0  0  0  0  0  0  0  0  0  0  0  0
   -3.6230   25.1120  -11.2020 O   0  0  0  0  0  0  0  0  0  0  0  0
  2  1  1  1
  2  3  1  0
  2  4  1  0
  3  5  1  0
  3  6  1  6
  4  7  1  0
  5  8  1  6
  6  9  1  0
  8  9  1  0
  5 10  1  0
  7 10  1  0
  9 11  1  6
 11 12  1  0
 12 13  1  0
 13 14  1  0
 14 15  1  0
 15 16  1  0
 16 17  1  0
 18 17  1  6
 18 19  1  0
 18 20  1  0
 20 21  1  6
 19 22  1  0
 20 23  1  0
 22 23  1  0
 22 24  1  1
 23 25  1  6
M  END
