5CMS_0_M_δ-5cms_P_15_P_γ
     RDKit          3D

 17 19  0  0  0  0  0  0  0  0999 V2000
   -3.8000   15.5320    1.5690 N   0  0  0  0  0  0  0  0  0  0  0  0
   -2.7280   14.8590    0.8580 C   0  0  1  0  0  0  0  0  0  0  0  0
   -2.6190   15.2300   -0.6370 C   0  0  1  0  0  0  0  0  0  0  0  0
   -1.5180   15.2550    1.5410 N   0  0  0  0  0  0  0  0  0  0  0  0
   -1.4100   14.4590   -1.1620 C   0  0  1  0  0  0  0  0  0  0  0  0
   -3.6990   14.8750   -1.5690 N   0  0  0  0  0  0  0  0  0  0  0  0
   -0.2960   14.6780    0.9790 C   0  0  0  0  0  0  0  0  0  0  0  0
   -1.5190   14.6290   -2.7110 C   0  0  1  0  0  0  0  0  0  0  0  0
   -3.0170   14.9970   -2.8850 C   0  0  0  0  0  0  0  0  0  0  0  0
   -0.2250   14.9090   -0.4520 N   0  0  0  0  0  0  0  0  0  0  0  0
   -0.6380   15.7340   -3.1380 O   0  0  0  0  0  0  0  0  0  0  0  0
   -1.0420   13.4700   -3.6360 C   0  0  1  0  0  0  0  0  0  0  0  0
   -1.9780   12.5010   -4.0670 O   0  0  0  0  0  0  0  0  0  0  0  0
   -0.4830   15.6100   -4.5620 C   0  0  2  0  0  0  0  0  0  0  0  0
   -0.3470   14.1140   -4.8440 C   0  0  1  0  0  0  0  0  0  0  0  0
    0.6580   16.4680   -5.0860 C   0  0  0  0  0  0  0  0  0  0  0  0
    0.9850   13.6230   -4.9590 O   0  0  0  0  0  0  0  0  0  0  0  0
  2  1  1  1
  2  3  1  0
  2  4  1  0
  3  5  1  0
  3  6  1  6
  4  7  1  0
  5  8  1  0
  6  9  1  0
  8  9  1  1
  5 10  1  1
  7 10  1  0
  8 11  1  0
  8 12  1  0
 12 13  1  6
 11 14  1  0
 12 15  1  0
 14 15  1  0
 14 16  1  1
 15 17  1  1
M  END
