5CMS_0_B_Î²
     RDKit          3D

  9  8  0  0  0  0  0  0  0  0999 V2000
   -1.7080   20.2010   -9.1060 O   0  0  0  0  0  0  0  0  0  0  0  0
   -0.5480   19.3860   -8.2750 P   0  0  0  0  0  0  0  0  0  0  0  0
   -1.3560   19.2250   -6.8430 O   0  0  0  0  0  0  0  0  0  0  0  0
    0.6650   20.3340   -8.1640 O   0  0  0  0  0  0  0  0  0  0  0  0
   -0.3070   17.9690   -8.8450 O   0  0  0  0  0  0  0  0  0  0  0  0
   -2.1650   17.8180   -6.4610 P   0  0  0  0  0  0  0  0  0  0  0  0
   -0.8650   16.8090   -6.2050 O   0  0  0  0  0  0  0  0  0  0  0  0
   -2.9220   17.2270   -7.6620 O   0  0  0  0  0  0  0  0  0  0  0  0
   -3.0430   18.2100   -5.2670 O   0  0  0  0  0  0  0  0  0  0  0  0
  2  1  1  0
  3  2  1  0
  2  4  1  0
  2  5  1  0
  6  3  1  0
  6  7  1  0
  6  8  1  0
  6  9  1  0
M  CHG  2   4  -1   8  -1
M  END
