5CMS_0_A_β-6WOJ_0_C_β
     RDKit          3D

 10  9  0  0  0  0  0  0  0  0999 V2000
   -1.6830   20.6190   -8.2600 O   0  0  0  0  0  0  0  0  0  0  0  0
   -0.6650   19.4030   -7.8220 P   0  0  0  0  0  0  0  0  0  0  0  0
   -0.7180   18.7840   -6.2160 N   0  0  0  0  0  0  0  0  0  0  0  0
    0.4130   20.4090   -7.4520 O   0  0  0  0  0  0  0  0  0  0  0  0
    0.2070   18.6200   -8.9000 O   0  0  0  0  0  0  0  0  0  0  0  0
   -1.9750   18.0310   -5.7550 P   0  0  0  0  0  0  0  0  0  0  0  0
    0.7770   18.1410   -5.7160 P   0  0  0  0  0  0  0  0  0  0  0  0
   -1.1130   16.7590   -5.1420 O   0  0  0  0  0  0  0  0  0  0  0  0
   -2.6320   17.9790   -7.2140 O   0  0  0  0  0  0  0  0  0  0  0  0
   -2.3230   19.2870   -4.7690 O   0  0  0  0  0  0  0  0  0  0  0  0
  1  2  1  0
  2  3  1  0
  2  4  1  0
  2  5  1  0
  3  6  1  0
  3  7  1  0
  6  8  1  0
  6  9  1  0
  6 10  1  0
M  CHG  2   4  -1   9  -1
M  END
