5CMS_0_P_δ-x0950_1_A_α
     RDKit          3D

 18 19  0  0  0  0  0  0  0  0999 V2000
   -3.8730   15.4680    2.0190 N   0  0  0  0  0  0  0  0  0  0  0  0
   -2.8550   14.6750    1.3640 C   0  0  1  0  0  0  0  0  0  0  0  0
   -3.0990   14.3410   -0.1220 C   0  0  2  0  0  0  0  0  0  0  0  0
   -1.6110   15.3300    1.5710 N   0  0  0  0  0  0  0  0  0  0  0  0
   -1.8070   14.1360   -0.9190 C   0  0  1  0  0  0  0  0  0  0  0  0
   -3.8200   15.3930   -0.8730 N   0  0  0  0  0  0  0  0  0  0  0  0
   -0.4850   14.6100    1.0580 C   0  0  0  0  0  0  0  0  0  0  0  0
   -2.0310   14.8170   -2.1980 N   0  0  0  0  0  0  0  0  0  0  0  0
   -3.4440   15.1050   -2.2410 C   0  0  0  0  0  0  0  0  0  0  0  0
   -0.5250   14.5430   -0.3930 N   0  0  0  0  0  0  0  0  0  0  0  0
    0.4290   13.5190   -0.7640 C   0  0  0  0  0  0  0  0  0  0  0  0
    1.5750   13.9490   -1.6810 C   0  0  0  0  0  0  0  0  0  0  0  0
    2.0830   12.8030   -2.3830 O   0  0  0  0  0  0  0  0  0  0  0  0
    1.2020   12.1420   -3.1750 C   0  0  0  0  0  0  0  0  0  0  0  0
    1.3690   12.5570   -4.6410 C   0  0  2  0  0  0  0  0  0  0  0  0
    0.3860   11.3020   -2.7900 O   0  0  0  0  0  0  0  0  0  0  0  0
    1.0010   14.0110   -4.8820 C   0  0  0  0  0  0  0  0  0  0  0  0
    0.5700   11.7430   -5.4980 O   0  0  0  0  0  0  0  0  0  0  0  0
  2  1  1  6
  2  3  1  0
  2  4  1  0
  3  5  1  0
  3  6  1  6
  4  7  1  0
  5  8  1  6
  6  9  1  0
  8  9  1  0
  5 10  1  0
  7 10  1  0
 10 11  1  0
 11 12  1  0
 12 13  1  0
 13 14  1  0
 14 15  1  0
 14 16  2  0
 15 17  1  1
 15 18  1  0
M  END
