5CMS_0_L_Î²
     RDKit          3D

  9  8  0  0  0  0  0  0  0  0999 V2000
   -1.1280   20.0200   -9.0520 O   0  0  0  0  0  0  0  0  0  0  0  0
   -0.3400   19.0120   -8.1270 P   0  0  0  0  0  0  0  0  0  0  0  0
   -1.2670   19.0550   -6.8040 O   0  0  0  0  0  0  0  0  0  0  0  0
    0.9320   19.6860   -7.7070 O   0  0  0  0  0  0  0  0  0  0  0  0
   -0.3600   17.7040   -8.8730 O   0  0  0  0  0  0  0  0  0  0  0  0
   -2.2440   17.9050   -6.2280 P   0  0  0  0  0  0  0  0  0  0  0  0
   -1.2460   16.7060   -5.9270 O   0  0  0  0  0  0  0  0  0  0  0  0
   -3.2510   17.4830   -7.2910 O   0  0  0  0  0  0  0  0  0  0  0  0
   -2.7350   18.3620   -4.8880 O   0  0  0  0  0  0  0  0  0  0  0  0
  2  1  1  0
  3  2  1  0
  2  4  1  0
  2  5  1  0
  6  3  1  0
  6  7  1  0
  6  8  1  0
  6  9  1  0
M  CHG  2   4  -1   8  -1
M  END
