5CMS_0_D_Î±
     RDKit          3D

  9  8  0  0  0  0  0  0  0  0999 V2000
   -1.1110   16.7010   -6.0330 O   0  0  0  0  0  0  0  0  0  0  0  0
   -2.1930   17.7920   -6.4200 P   0  0  0  0  0  0  0  0  0  0  0  0
   -2.8750   17.1470   -7.6070 O   0  0  0  0  0  0  0  0  0  0  0  0
   -2.9400   18.4590   -5.2730 O   0  0  0  0  0  0  0  0  0  0  0  0
   -1.2150   19.0100   -6.8160 O   0  0  0  0  0  0  0  0  0  0  0  0
   -0.6420   19.3870   -8.2560 P   0  0  0  0  0  0  0  0  0  0  0  0
   -1.8320   20.2670   -8.9140 O   0  0  0  0  0  0  0  0  0  0  0  0
   -0.4020   18.1300   -9.0020 O   0  0  0  0  0  0  0  0  0  0  0  0
    0.5470   20.2140   -7.8680 O   0  0  0  0  0  0  0  0  0  0  0  0
  2  1  1  0
  2  3  1  0
  2  4  1  0
  2  5  1  0
  5  6  1  0
  6  7  1  0
  6  8  1  0
  6  9  1  0
M  CHG  2   3  -1   8  -1
M  END
