5cms_C_2_C_γ-5CB5_0_O_γ
     RDKit          3D

  8  8  0  0  0  0  0  0  0  0999 V2000
   -0.6400   12.0810   -4.0080 O   0  0  0  0  0  0  0  0  0  0  0  0
   -1.0790   13.4310   -4.1390 C   0  0  1  0  0  0  0  0  0  0  0  0
   -0.7640   14.2510   -2.8930 C   0  0  0  0  0  0  0  0  0  0  0  0
   -0.2380   14.0980   -5.1980 C   0  0  2  0  0  0  0  0  0  0  0  0
    1.0370   13.4780   -5.2540 O   0  0  0  0  0  0  0  0  0  0  0  0
   -0.1630   15.4900   -3.3170 O   0  0  0  0  0  0  0  0  0  0  0  0
   -0.3020   15.5570   -4.7420 C   0  0  1  0  0  0  0  0  0  0  0  0
    0.7050   16.5490   -5.3090 C   0  0  0  0  0  0  0  0  0  0  0  0
  2  1  1  1
  2  3  1  0
  2  4  1  0
  4  5  1  1
  3  6  1  0
  4  7  1  0
  6  7  1  0
  7  8  1  6
M  END
