5cms_P_15_P_β-5CB5_0_O_γ
     RDKit          3D

 16 16  0  0  0  0  0  0  0  0999 V2000
   -1.1300   20.6320   -8.5820 O   0  0  0  0  0  0  0  0  0  0  0  0
   -0.2190   19.6720   -7.7180 P   0  0  0  0  0  0  0  0  0  0  0  0
   -1.1850   19.3490   -6.5230 O   0  0  0  0  0  0  0  0  0  0  0  0
    1.0990   20.2340   -7.3730 O   0  0  0  0  0  0  0  0  0  0  0  0
   -0.1430   18.4000   -8.6710 O   0  0  0  0  0  0  0  0  0  0  0  0
   -1.5980   17.9110   -6.0390 P   0  0  2  0  0  0  0  0  0  0  0  0
   -0.3130   16.9750   -5.7980 O   0  0  0  0  0  0  0  0  0  0  0  0
   -2.7510   17.3180   -6.7540 O   0  0  0  0  0  0  0  0  0  0  0  0
   -1.9220   18.2640   -4.5310 O   0  0  0  0  0  0  0  0  0  0  0  0
   -0.5360   15.9230   -4.8640 C   0  0  2  0  0  0  0  0  0  0  0  0
    0.0770   16.0690   -3.5750 O   0  0  0  0  0  0  0  0  0  0  0  0
   -0.1510   14.4870   -5.2390 C   0  0  1  0  0  0  0  0  0  0  0  0
    1.2520   14.1620   -5.2230 O   0  0  0  0  0  0  0  0  0  0  0  0
   -0.1880   14.8010   -2.9290 C   0  0  0  0  0  0  0  0  0  0  0  0
   -0.7730   13.8800   -4.0130 C   0  0  2  0  0  0  0  0  0  0  0  0
   -0.4360   12.5130   -3.8790 O   0  0  0  0  0  0  0  0  0  0  0  0
  1  2  1  0
  2  3  1  0
  2  4  2  0
  2  5  1  0
  3  6  1  0
  6  7  1  0
  6  8  2  0
  6  9  1  1
 10  7  1  6
 10 11  1  0
 10 12  1  0
 12 13  1  1
 11 14  1  0
 12 15  1  0
 14 15  1  0
 15 16  1  1
M  END
