5CMS_0_E_Î³
     RDKit          3D

  8  8  0  0  0  0  0  0  0  0999 V2000
   -0.7560   14.2340   -3.0070 C   0  0  0  0  0  0  0  0  0  0  0  0
   -0.0420   15.4590   -3.3320 O   0  0  0  0  0  0  0  0  0  0  0  0
   -1.1650   13.5490   -4.3000 C   0  0  1  0  0  0  0  0  0  0  0  0
    0.5540   15.3200   -4.6340 C   0  0  1  0  0  0  0  0  0  0  0  0
   -0.0070   14.0030   -5.2090 C   0  0  1  0  0  0  0  0  0  0  0  0
   -1.2000   12.1180   -4.1220 O   0  0  0  0  0  0  0  0  0  0  0  0
    0.1500   16.5890   -5.3710 C   0  0  0  0  0  0  0  0  0  0  0  0
    1.0070   12.9950   -5.1340 O   0  0  0  0  0  0  0  0  0  0  0  0
  1  2  1  1
  1  3  1  0
  4  2  1  0
  5  3  1  0
  3  6  1  1
  4  7  1  6
  4  5  1  0
  5  8  1  1
M  END
