5CMS_0_Q_γ-5CMS_0_M_γ
     RDKit          3D

  8  8  0  0  0  0  0  0  0  0999 V2000
   -0.9390   12.1030   -4.3230 O   0  0  0  0  0  0  0  0  0  0  0  0
   -1.1230   13.5130   -4.3870 C   0  0  1  0  0  0  0  0  0  0  0  0
   -0.8830   14.2140   -3.0470 C   0  0  0  0  0  0  0  0  0  0  0  0
   -0.0220   14.1070   -5.2170 C   0  0  2  0  0  0  0  0  0  0  0  0
    1.2150   13.4560   -4.9540 O   0  0  0  0  0  0  0  0  0  0  0  0
   -0.1960   15.4570   -3.3420 O   0  0  0  0  0  0  0  0  0  0  0  0
   -0.1730   15.5600   -4.7730 C   0  0  1  0  0  0  0  0  0  0  0  0
    0.8470   16.5780   -5.2400 C   0  0  0  0  0  0  0  0  0  0  0  0
  2  1  1  1
  2  3  1  0
  2  4  1  0
  4  5  1  1
  3  6  1  0
  4  7  1  0
  6  7  1  0
  7  8  1  1
M  END
