5CMS_0_C_δ-5L9K_0_A_γ
     RDKit          3D

 17 19  0  0  0  0  0  0  0  0999 V2000
   -3.6740   15.6130    1.8700 N   0  0  0  0  0  0  0  0  0  0  0  0
   -2.7630   14.8590    1.0330 C   0  0  1  0  0  0  0  0  0  0  0  0
   -2.6780   15.3580   -0.4060 C   0  0  1  0  0  0  0  0  0  0  0  0
   -1.4550   14.8790    1.6660 N   0  0  0  0  0  0  0  0  0  0  0  0
   -1.6190   14.4850   -1.0680 C   0  0  1  0  0  0  0  0  0  0  0  0
   -3.8750   15.2060   -1.2430 N   0  0  0  0  0  0  0  0  0  0  0  0
   -0.3770   15.4080    0.8180 C   0  0  0  0  0  0  0  0  0  0  0  0
   -1.8530   14.7670   -2.5810 C   0  0  1  0  0  0  0  0  0  0  0  0
   -3.3320   15.1970   -2.6150 C   0  0  0  0  0  0  0  0  0  0  0  0
   -0.3190   14.7540   -0.4690 N   0  0  0  0  0  0  0  0  0  0  0  0
   -1.0000   15.8830   -3.0260 O   0  0  0  0  0  0  0  0  0  0  0  0
   -1.5730   13.6460   -3.6110 C   0  0  1  0  0  0  0  0  0  0  0  0
   -2.6750   12.9180   -4.1130 O   0  0  0  0  0  0  0  0  0  0  0  0
   -0.9360   15.7810   -4.4580 C   0  0  2  0  0  0  0  0  0  0  0  0
   -0.7810   14.2940   -4.7470 C   0  0  1  0  0  0  0  0  0  0  0  0
    0.1590   16.6660   -5.0420 C   0  0  0  0  0  0  0  0  0  0  0  0
    0.5560   13.8050   -4.7510 O   0  0  0  0  0  0  0  0  0  0  0  0
  2  1  1  1
  2  3  1  0
  2  4  1  0
  3  5  1  0
  3  6  1  6
  4  7  1  0
  5  8  1  0
  6  9  1  0
  8  9  1  1
  5 10  1  1
  7 10  1  0
  8 11  1  0
  8 12  1  0
 12 13  1  6
 11 14  1  0
 12 15  1  0
 14 15  1  0
 14 16  1  1
 15 17  1  1
M  END
