5CMS_0_E_δ-5L9K_0_A_β
     RDKit          3D

 21 22  0  0  0  0  0  0  0  0999 V2000
   -3.8720   15.4540    1.5880 N   0  0  0  0  0  0  0  0  0  0  0  0
   -2.7520   14.7620    0.9460 C   0  0  1  0  0  0  0  0  0  0  0  0
   -2.6270   15.2970   -0.4310 C   0  0  1  0  0  0  0  0  0  0  0  0
   -1.5580   15.1560    1.6240 N   0  0  0  0  0  0  0  0  0  0  0  0
   -1.2820   15.0100   -1.0090 C   0  0  2  0  0  0  0  0  0  0  0  0
   -3.5510   14.7600   -1.3700 N   0  0  0  0  0  0  0  0  0  0  0  0
   -0.3360   14.6010    1.1290 C   0  0  0  0  0  0  0  0  0  0  0  0
   -1.4510   14.5070   -2.3020 N   0  0  0  0  0  0  0  0  0  0  0  0
   -2.8590   14.5430   -2.6460 C   0  0  2  0  0  0  0  0  0  0  0  0
   -0.6250   13.9980   -0.1670 N   0  0  0  0  0  0  0  0  0  0  0  0
   -3.2040   15.6110   -3.6400 C   0  0  0  0  0  0  0  0  0  0  0  0
   -2.0420   16.3200   -4.2820 C   0  0  0  0  0  0  0  0  0  0  0  0
   -2.2070   17.6870   -4.3460 O   0  0  0  0  0  0  0  0  0  0  0  0
   -1.9440   18.2180   -5.9060 P   0  0  0  0  0  0  0  0  0  0  0  0
   -1.3700   19.6110   -6.2820 O   0  0  0  0  0  0  0  0  0  0  0  0
   -0.8010   17.3310   -6.1040 O   0  0  0  0  0  0  0  0  0  0  0  0
   -2.9410   17.3270   -6.9660 O   0  0  0  0  0  0  0  0  0  0  0  0
   -0.9760   20.2340   -7.6970 P   0  0  0  0  0  0  0  0  0  0  0  0
   -2.0220   20.8320   -8.7770 O   0  0  0  0  0  0  0  0  0  0  0  0
   -0.7300   18.9010   -8.4190 O   0  0  0  0  0  0  0  0  0  0  0  0
    0.6470   20.5480   -7.9260 O   0  0  0  0  0  0  0  0  0  0  0  0
  2  1  1  1
  2  3  1  0
  2  4  1  0
  3  5  1  0
  3  6  1  6
  4  7  1  0
  5  8  1  6
  6  9  1  0
  8  9  1  0
  5 10  1  0
  7 10  1  0
  9 11  1  6
 11 12  1  0
 12 13  1  0
 13 14  1  0
 14 15  1  0
 14 16  1  0
 14 17  1  0
 15 18  1  0
 18 19  1  0
 18 20  1  0
 18 21  1  0
M  CHG  1  20  -1
M  END
