5CMS_0_R_γ-5CB5_0_O_α
     RDKit          3D

 21 22  0  0  0  0  0  0  0  0999 V2000
    0.1440   12.2430   -3.9720 O   0  0  0  0  0  0  0  0  0  0  0  0
   -0.3300   13.5730   -4.1000 C   0  0  1  0  0  0  0  0  0  0  0  0
    0.0160   14.4450   -2.8980 C   0  0  0  0  0  0  0  0  0  0  0  0
    0.3480   14.3210   -5.2330 C   0  0  2  0  0  0  0  0  0  0  0  0
    1.7190   13.9430   -5.2790 O   0  0  0  0  0  0  0  0  0  0  0  0
    0.2550   15.7750   -3.3910 O   0  0  0  0  0  0  0  0  0  0  0  0
    0.0010   15.7550   -4.8060 C   0  0  1  0  0  0  0  0  0  0  0  0
    0.7070   16.9630   -5.4230 C   0  0  0  0  0  0  0  0  0  0  0  0
   -0.2230   18.0610   -5.9550 C   0  0  0  0  0  0  0  0  0  0  0  0
    0.3850   18.9370   -7.0620 C   0  0  0  0  0  0  0  0  0  0  0  0
   -0.6630   19.5690   -7.9820 C   0  0  0  0  0  0  0  0  0  0  0  0
   -0.9570   21.0680   -7.8110 C   0  0  0  0  0  0  0  0  0  0  0  0
   -2.4200   21.3620   -7.4540 C   0  0  0  0  0  0  0  0  0  0  0  0
   -3.2590   21.9890   -8.5810 C   0  0  1  0  0  0  0  0  0  0  0  0
   -4.5410   21.3620   -8.5920 O   0  0  0  0  0  0  0  0  0  0  0  0
   -3.6400   23.4470   -8.3770 C   0  0  1  0  0  0  0  0  0  0  0  0
   -4.2940   24.0790   -9.4640 O   0  0  0  0  0  0  0  0  0  0  0  0
   -5.3640   22.0590   -7.6480 C   0  0  2  0  0  0  0  0  0  0  0  0
   -4.5970   23.2920   -7.2170 C   0  0  2  0  0  0  0  0  0  0  0  0
   -5.6290   21.2960   -6.4800 O   0  0  0  0  0  0  0  0  0  0  0  0
   -5.4750   24.3890   -7.0680 O   0  0  0  0  0  0  0  0  0  0  0  0
  2  1  1  1
  2  3  1  0
  2  4  1  0
  4  5  1  1
  3  6  1  0
  4  7  1  0
  6  7  1  0
  7  8  1  6
  8  9  1  0
  9 10  1  0
 10 11  1  0
 11 12  1  0
 12 13  1  0
 14 13  1  1
 14 15  1  0
 14 16  1  0
 16 17  1  6
 15 18  1  0
 16 19  1  0
 18 19  1  0
 18 20  1  1
 19 21  1  6
M  END
