5CMS_0_D_γ-5CB3_0_A_α
     RDKit          3D

 24 26  0  0  0  0  0  0  0  0999 V2000
   -4.0520   15.6520    1.6220 N   0  0  0  0  0  0  0  0  0  0  0  0
   -3.0020   14.9760    0.8800 C   0  0  1  0  0  0  0  0  0  0  0  0
   -2.6430   15.5770   -0.4960 C   0  0  1  0  0  0  0  0  0  0  0  0
   -1.8620   15.0500    1.7720 N   0  0  0  0  0  0  0  0  0  0  0  0
   -1.3880   14.8380   -0.8960 C   0  0  1  0  0  0  0  0  0  0  0  0
   -3.4810   15.4190   -1.7160 N   0  0  0  0  0  0  0  0  0  0  0  0
   -0.6180   14.5010    1.2540 C   0  0  0  0  0  0  0  0  0  0  0  0
   -1.1760   15.3220   -2.2220 N   0  0  0  0  0  0  0  0  0  0  0  0
   -2.4920   15.1160   -2.7980 C   0  0  2  0  0  0  0  0  0  0  0  0
   -0.3010   15.1210   -0.0130 N   0  0  0  0  0  0  0  0  0  0  0  0
   -2.7330   15.9020   -4.1230 C   0  0  0  0  0  0  0  0  0  0  0  0
   -1.7210   17.0040   -4.5650 C   0  0  0  0  0  0  0  0  0  0  0  0
   -2.0700   17.7480   -5.8860 C   0  0  0  0  0  0  0  0  0  0  0  0
   -2.1800   19.2930   -5.7490 C   0  0  0  0  0  0  0  0  0  0  0  0
   -3.2290   19.9200   -6.6850 C   0  0  0  0  0  0  0  0  0  0  0  0
   -4.1110   20.8810   -6.0530 O   0  0  0  0  0  0  0  0  0  0  0  0
   -4.8340   21.6180   -7.0480 C   0  0  2  0  0  0  0  0  0  0  0  0
   -4.4770   21.0960   -8.3250 O   0  0  0  0  0  0  0  0  0  0  0  0
   -4.4190   23.1110   -7.0220 C   0  0  2  0  0  0  0  0  0  0  0  0
   -5.5390   24.0030   -6.8340 O   0  0  0  0  0  0  0  0  0  0  0  0
   -3.4530   21.9440   -8.8460 C   0  0  1  0  0  0  0  0  0  0  0  0
   -3.8440   23.3430   -8.4290 C   0  0  1  0  0  0  0  0  0  0  0  0
   -2.0700   21.5550   -8.3220 C   0  0  0  0  0  0  0  0  0  0  0  0
   -4.7780   23.9270   -9.3440 O   0  0  0  0  0  0  0  0  0  0  0  0
  2  1  1  1
  2  3  1  0
  2  4  1  0
  3  5  1  0
  3  6  1  6
  4  7  1  0
  5  8  1  6
  6  9  1  0
  8  9  1  0
  5 10  1  0
  7 10  1  0
  9 11  1  6
 11 12  1  0
 12 13  1  0
 13 14  1  0
 14 15  1  0
 15 16  1  0
 17 16  1  1
 17 18  1  0
 17 19  1  0
 19 20  1  6
 18 21  1  0
 19 22  1  0
 21 22  1  0
 21 23  1  1
 22 24  1  6
M  END
