5CMS_0_B_Î´
     RDKit          3D

 10 11  0  0  0  0  0  0  0  0999 V2000
   -1.5370   14.6740   -1.7860 N   0  0  0  0  0  0  0  0  0  0  0  0
   -1.3760   14.8940   -0.4580 C   0  0  0  0  0  0  0  0  0  0  0  0
   -2.8000   14.9450   -2.1480 C   0  0  0  0  0  0  0  0  0  0  0  0
   -0.3350   14.7760    0.4320 N   0  0  0  0  0  0  0  0  0  0  0  0
   -2.7080   15.3640    0.0340 C   0  0  0  0  0  0  0  0  0  0  0  0
   -3.5310   15.3580   -1.0530 N   0  0  0  0  0  0  0  0  0  0  0  0
   -0.5530   15.1040    1.7290 C   0  0  0  0  0  0  0  0  0  0  0  0
   -2.8610   15.7050    1.4670 C   0  0  0  0  0  0  0  0  0  0  0  0
   -1.7500   15.5400    2.2320 N   0  0  0  0  0  0  0  0  0  0  0  0
   -4.0340   16.1400    1.9750 N   0  0  0  0  0  0  0  0  0  0  0  0
  1  2  1  0
  1  3  1  0
  4  2  1  0
  2  5  1  0
  6  3  1  0
  7  4  1  0
  8  5  1  0
  5  6  1  0
  9  7  1  0
  9  8  1  0
  8 10  1  0
M  END
