5CMS_0_R_β-5cms_D_3_D_β
     RDKit          3D

 16 16  0  0  0  0  0  0  0  0999 V2000
   -1.4480   20.7570   -8.2700 O   0  0  0  0  0  0  0  0  0  0  0  0
   -0.5430   19.4610   -7.7860 P   0  0  0  0  0  0  0  0  0  0  0  0
   -0.5530   19.0370   -6.1850 O   0  0  0  0  0  0  0  0  0  0  0  0
    0.6410   20.3810   -7.5280 O   0  0  0  0  0  0  0  0  0  0  0  0
    0.1620   18.5540   -8.8780 O   0  0  0  0  0  0  0  0  0  0  0  0
   -1.6750   17.9460   -5.8190 P   0  0  0  0  0  0  0  0  0  0  0  0
   -0.6530   16.7570   -5.9210 O   0  0  0  0  0  0  0  0  0  0  0  0
   -2.6190   17.2030   -6.9820 O   0  0  0  0  0  0  0  0  0  0  0  0
   -2.1490   17.6020   -4.3690 O   0  0  0  0  0  0  0  0  0  0  0  0
    0.0320   15.9530   -4.9720 C   0  0  1  0  0  0  0  0  0  0  0  0
   -0.3690   16.0870   -3.6400 O   0  0  0  0  0  0  0  0  0  0  0  0
    0.0460   14.4900   -5.2800 C   0  0  1  0  0  0  0  0  0  0  0  0
    1.3390   13.9690   -5.4890 O   0  0  0  0  0  0  0  0  0  0  0  0
   -1.1860   14.9830   -3.3450 C   0  0  0  0  0  0  0  0  0  0  0  0
   -0.3870   13.8480   -3.9690 C   0  0  1  0  0  0  0  0  0  0  0  0
   -1.1400   12.7490   -4.2900 O   0  0  0  0  0  0  0  0  0  0  0  0
  1  2  1  0
  2  3  1  0
  2  4  1  0
  2  5  1  0
  3  6  1  0
  6  7  1  0
  6  8  1  0
  6  9  1  0
 10  7  1  6
 10 11  1  0
 10 12  1  0
 12 13  1  1
 11 14  1  0
 12 15  1  0
 14 15  1  0
 15 16  1  6
M  CHG  2   4  -1   8  -1
M  END
