5CMS_0_H_δ-4gvw_0_A_α
     RDKit          3D

 26 28  0  0  0  0  0  0  0  0999 V2000
   -3.8060   15.5340    1.6800 N   0  0  0  0  0  0  0  0  0  0  0  0
   -2.7300   14.7160    1.1510 C   0  0  1  0  0  0  0  0  0  0  0  0
   -2.6950   14.5850   -0.3720 C   0  0  2  0  0  0  0  0  0  0  0  0
   -1.5150   15.3140    1.5980 N   0  0  0  0  0  0  0  0  0  0  0  0
   -1.4290   15.2700   -0.8590 C   0  0  2  0  0  0  0  0  0  0  0  0
   -3.7330   15.2080   -1.2150 N   0  0  0  0  0  0  0  0  0  0  0  0
   -0.3180   14.6330    1.1630 C   0  0  0  0  0  0  0  0  0  0  0  0
   -1.6190   15.0030   -2.2760 N   0  0  0  0  0  0  0  0  0  0  0  0
   -3.0520   15.2050   -2.5230 C   0  0  0  0  0  0  0  0  0  0  0  0
   -0.2030   14.7600   -0.2720 N   0  0  0  0  0  0  0  0  0  0  0  0
   -0.7070   15.5790   -3.2840 C   0  0  0  0  0  0  0  0  0  0  0  0
   -1.1530   16.9170   -3.9010 C   0  0  0  0  0  0  0  0  0  0  0  0
   -1.2190   16.9640   -5.4300 C   0  0  0  0  0  0  0  0  0  0  0  0
   -1.5990   18.3370   -5.9970 C   0  0  0  0  0  0  0  0  0  0  0  0
   -0.3950   19.1510   -6.2390 N   0  0  0  0  0  0  0  0  0  0  0  0
   -0.1220   19.8080   -7.7800 S   0  0  1  0  0  0  0  0  0  0  0  0
    0.8560   20.8720   -7.6150 O   0  0  0  0  0  0  0  0  0  0  0  0
    0.1120   18.7230   -8.7360 O   0  0  0  0  0  0  0  0  0  0  0  0
   -1.6850   20.5730   -8.1580 C   0  0  0  0  0  0  0  0  0  0  0  0
   -2.0270   21.8780   -7.4950 C   0  0  0  0  0  0  0  0  0  0  0  0
   -3.4630   22.1900   -7.4950 N   0  0  0  0  0  0  0  0  0  0  0  0
   -3.8120   23.2110   -6.5050 C   0  0  0  0  0  0  0  0  0  0  0  0
   -3.9780   22.5880   -8.8170 C   0  0  0  0  0  0  0  0  0  0  0  0
   -5.2830   23.5510   -6.5280 C   0  0  0  0  0  0  0  0  0  0  0  0
   -5.4900   22.8400   -8.8100 C   0  0  0  0  0  0  0  0  0  0  0  0
   -5.8740   23.7880   -7.8140 O   0  0  0  0  0  0  0  0  0  0  0  0
  2  1  1  6
  2  3  1  0
  2  4  1  0
  3  5  1  0
  3  6  1  6
  4  7  1  0
  5  8  1  0
  6  9  1  0
  8  9  1  0
  5 10  1  1
  7 10  1  0
  8 11  1  0
 11 12  1  0
 12 13  1  0
 13 14  1  0
 14 15  1  0
 15 16  2  0
 16 17  2  0
 16 18  1  6
 16 19  1  0
 19 20  1  0
 20 21  1  0
 21 22  1  0
 21 23  1  0
 22 24  1  0
 23 25  1  0
 24 26  1  0
 25 26  1  0
M  CHG  1  18  -1
M  END
