5CMS_0_H_α-x0918_1_B_α
     RDKit          3D

 15 16  0  0  0  0  0  0  0  0999 V2000
   -1.9070   21.3480   -8.8040 C   0  0  0  0  0  0  0  0  0  0  0  0
   -1.7180   21.9350  -10.1960 C   0  0  1  0  0  0  0  0  0  0  0  0
   -3.0110   22.2610  -10.7120 O   0  0  0  0  0  0  0  0  0  0  0  0
   -0.8380   23.1910  -10.1780 C   0  0  1  0  0  0  0  0  0  0  0  0
    0.3280   23.1480  -10.9970 O   0  0  0  0  0  0  0  0  0  0  0  0
   -3.1560   23.6670  -10.6840 C   0  0  2  0  0  0  0  0  0  0  0  0
   -1.7430   24.2870  -10.6590 C   0  0  2  0  0  0  0  0  0  0  0  0
   -3.9740   23.9780   -9.5600 O   0  0  0  0  0  0  0  0  0  0  0  0
   -1.4150   24.9080  -11.9030 O   0  0  0  0  0  0  0  0  0  0  0  0
   -2.3750   25.4620  -12.7340 C   0  0  0  0  0  0  0  0  0  0  0  0
   -3.7240   25.3310  -12.3700 C   0  0  0  0  0  0  0  0  0  0  0  0
   -2.0840   26.1210  -13.9160 C   0  0  0  0  0  0  0  0  0  0  0  0
   -4.7000   25.8560  -13.2060 C   0  0  0  0  0  0  0  0  0  0  0  0
   -3.1240   26.6110  -14.6860 C   0  0  0  0  0  0  0  0  0  0  0  0
   -4.4260   26.4940  -14.3610 N   0  0  0  0  0  0  0  0  0  0  0  0
  2  1  1  1
  2  3  1  0
  2  4  1  0
  4  5  1  6
  3  6  1  0
  4  7  1  0
  6  7  1  0
  6  8  1  1
  7  9  1  6
  9 10  1  0
 10 11  2  0
 10 12  1  0
 11 13  1  0
 12 14  2  0
 13 15  2  0
 14 15  1  0
M  END
