5CMS_0_B_Î³
     RDKit          3D

  8  8  0  0  0  0  0  0  0  0999 V2000
   -0.4630   14.2210   -2.6750 C   0  0  0  0  0  0  0  0  0  0  0  0
    0.3150   15.3610   -3.0840 O   0  0  0  0  0  0  0  0  0  0  0  0
   -0.9820   13.5360   -3.9270 C   0  0  1  0  0  0  0  0  0  0  0  0
    0.3710   15.5080   -4.5050 C   0  0  1  0  0  0  0  0  0  0  0  0
   -0.3660   14.3030   -5.0640 C   0  0  1  0  0  0  0  0  0  0  0  0
   -0.4680   12.1830   -4.0090 O   0  0  0  0  0  0  0  0  0  0  0  0
   -0.2920   16.8150   -4.8960 C   0  0  0  0  0  0  0  0  0  0  0  0
    0.6130   13.4530   -5.6830 O   0  0  0  0  0  0  0  0  0  0  0  0
  1  2  1  1
  1  3  1  0
  4  2  1  0
  5  3  1  0
  3  6  1  1
  4  7  1  1
  4  5  1  0
  5  8  1  1
M  END
