5cms_O_14_O_α-2fav_B_0_B_α
     RDKit          3D

 16 17  0  0  0  0  0  0  0  0999 V2000
   -1.4130   21.9970   -8.6290 C   0  0  0  0  0  0  0  0  0  0  0  0
   -1.7780   22.6330   -9.9310 C   0  0  2  0  0  0  0  0  0  0  0  0
   -1.7630   21.7690  -11.0390 O   0  0  0  0  0  0  0  0  0  0  0  0
   -2.5630   22.2510   -7.6370 C   0  0  2  0  0  0  0  0  0  0  0  0
   -1.2990   23.9500  -10.4740 C   0  0  1  0  0  0  0  0  0  0  0  0
   -3.1670   21.1170   -6.9790 O   0  0  0  0  0  0  0  0  0  0  0  0
   -3.8610   22.9400   -8.0310 C   0  0  2  0  0  0  0  0  0  0  0  0
    0.0000   23.9280  -11.0750 O   0  0  0  0  0  0  0  0  0  0  0  0
   -3.8340   24.0800   -8.8540 O   0  0  0  0  0  0  0  0  0  0  0  0
   -2.8060   22.4800  -11.6460 C   0  0  2  0  0  0  0  0  0  0  0  0
   -2.3850   23.9900  -11.5570 C   0  0  1  0  0  0  0  0  0  0  0  0
   -4.2490   21.7390   -6.1850 C   0  0  0  0  0  0  0  0  0  0  0  0
   -4.2670   23.2120   -6.6060 C   0  0  2  0  0  0  0  0  0  0  0  0
   -3.9320   22.2500  -10.8130 O   0  0  0  0  0  0  0  0  0  0  0  0
   -3.4990   24.8090  -11.2260 O   0  0  0  0  0  0  0  0  0  0  0  0
   -5.5440   23.8620   -6.5450 O   0  0  0  0  0  0  0  0  0  0  0  0
  2  1  1  1
  2  3  1  0
  4  1  1  6
  2  5  1  0
  4  6  1  0
  4  7  1  0
  5  8  1  6
  7  9  1  6
  3 10  1  0
  5 11  1  0
 10 11  1  0
  6 12  1  0
  7 13  1  0
 12 13  1  0
 10 14  1  1
 11 15  1  1
 13 16  1  6
M  END
