5CMS_0_J_γ-5cb5_G_0_G_α
     RDKit          3D

 21 22  0  0  0  0  0  0  0  0999 V2000
   -1.2150   12.1640   -4.5900 O   0  0  0  0  0  0  0  0  0  0  0  0
   -1.2630   13.5680   -4.4520 C   0  0  1  0  0  0  0  0  0  0  0  0
   -1.1020   14.0780   -3.0220 C   0  0  0  0  0  0  0  0  0  0  0  0
   -0.0650   14.2080   -5.0980 C   0  0  2  0  0  0  0  0  0  0  0  0
    1.1060   13.5020   -4.6910 O   0  0  0  0  0  0  0  0  0  0  0  0
   -0.4380   15.3520   -3.1200 O   0  0  0  0  0  0  0  0  0  0  0  0
   -0.3020   15.6040   -4.5250 C   0  0  1  0  0  0  0  0  0  0  0  0
    0.7250   16.6960   -4.7370 C   0  0  0  0  0  0  0  0  0  0  0  0
    0.5880   17.4130   -6.0630 C   0  0  0  0  0  0  0  0  0  0  0  0
    0.3590   18.9010   -6.0960 C   0  0  0  0  0  0  0  0  0  0  0  0
   -0.3250   19.4230   -7.3860 C   0  0  0  0  0  0  0  0  0  0  0  0
   -1.6150   20.2560   -7.1710 C   0  0  0  0  0  0  0  0  0  0  0  0
   -1.7230   21.5190   -8.0630 C   0  0  0  0  0  0  0  0  0  0  0  0
   -3.1600   21.8430   -8.5510 C   0  0  1  0  0  0  0  0  0  0  0  0
   -4.0450   21.1210   -7.6950 O   0  0  0  0  0  0  0  0  0  0  0  0
   -3.5920   23.3200   -8.4490 C   0  0  1  0  0  0  0  0  0  0  0  0
   -4.0130   23.9690   -9.6320 O   0  0  0  0  0  0  0  0  0  0  0  0
   -5.2140   21.8960   -7.4620 C   0  0  2  0  0  0  0  0  0  0  0  0
   -4.7930   23.3420   -7.5370 C   0  0  2  0  0  0  0  0  0  0  0  0
   -5.7400   21.6330   -6.1680 O   0  0  0  0  0  0  0  0  0  0  0  0
   -5.7900   24.1510   -8.1440 O   0  0  0  0  0  0  0  0  0  0  0  0
  2  1  1  1
  2  3  1  0
  2  4  1  0
  4  5  1  1
  3  6  1  0
  4  7  1  0
  6  7  1  0
  7  8  1  1
  8  9  1  0
  9 10  1  0
 10 11  1  0
 11 12  1  0
 12 13  1  0
 14 13  1  1
 14 15  1  0
 14 16  1  0
 16 17  1  6
 15 18  1  0
 16 19  1  0
 18 19  1  0
 18 20  1  1
 19 21  1  6
M  END
