5CMS_0_N_β-mArh-5cb5_M_1_M_β
     RDKit          3D

  9  8  0  0  0  0  0  0  0  0999 V2000
   -1.6890   20.8990   -8.5810 O   0  0  0  0  0  0  0  0  0  0  0  0
   -0.4300   20.0110   -8.1220 P   0  0  0  0  0  0  0  0  0  0  0  0
   -0.8170   19.6570   -6.7110 O   0  0  0  0  0  0  0  0  0  0  0  0
    0.9430   20.7120   -7.5680 O   0  0  0  0  0  0  0  0  0  0  0  0
   -0.3700   18.4100   -8.5880 O   0  0  0  0  0  0  0  0  0  0  0  0
   -1.7260   18.4440   -6.1060 P   0  0  0  0  0  0  0  0  0  0  0  0
   -0.6080   17.4420   -6.2930 O   0  0  0  0  0  0  0  0  0  0  0  0
   -2.7390   17.5450   -6.9800 O   0  0  0  0  0  0  0  0  0  0  0  0
   -1.7770   18.2450   -4.4830 O   0  0  0  0  0  0  0  0  0  0  0  0
  1  2  1  0
  2  3  1  0
  2  4  1  0
  2  5  1  0
  3  6  1  0
  6  7  1  0
  6  8  1  0
  6  9  1  0
M  CHG  2   4  -1   8  -1
M  END
