5CMS_0_J_α-5cms_Q_16_Q_α
     RDKit          3D

 10 10  0  0  0  0  0  0  0  0999 V2000
   -0.0660   22.7340   -8.7570 C   0  0  0  0  0  0  0  0  0  0  0  0
   -0.5370   22.9770  -10.1850 C   0  0  2  0  0  0  0  0  0  0  0  0
   -1.2930   21.8600  -10.6560 O   0  0  0  0  0  0  0  0  0  0  0  0
    0.6060   23.2270  -10.9860 O   0  0  0  0  0  0  0  0  0  0  0  0
   -1.4920   24.1510  -10.3380 C   0  0  1  0  0  0  0  0  0  0  0  0
   -1.5000   24.7610  -11.6300 O   0  0  0  0  0  0  0  0  0  0  0  0
   -2.6430   22.0760  -10.2710 C   0  0  2  0  0  0  0  0  0  0  0  0
   -2.8490   23.5550   -9.9840 C   0  0  2  0  0  0  0  0  0  0  0  0
   -2.9300   21.3700   -9.0830 O   0  0  0  0  0  0  0  0  0  0  0  0
   -3.8890   24.1030  -10.8170 O   0  0  0  0  0  0  0  0  0  0  0  0
  2  1  1  1
  2  3  1  0
  2  4  1  0
  2  5  1  0
  5  6  1  6
  3  7  1  0
  5  8  1  0
  7  8  1  0
  7  9  1  1
  8 10  1  6
M  END
