5CMS_0_J_γ-5l9k_B_0_B_β
     RDKit          3D

 18 18  0  0  0  0  0  0  0  0999 V2000
   -1.8770   12.2850   -4.0540 O   0  0  0  0  0  0  0  0  0  0  0  0
   -1.5020   13.6490   -4.3000 C   0  0  1  0  0  0  0  0  0  0  0  0
   -1.3230   14.4030   -2.9960 C   0  0  0  0  0  0  0  0  0  0  0  0
   -0.0970   13.6880   -4.8900 C   0  0  2  0  0  0  0  0  0  0  0  0
    0.6180   12.4890   -4.6370 O   0  0  0  0  0  0  0  0  0  0  0  0
   -0.4020   15.4630   -3.2880 O   0  0  0  0  0  0  0  0  0  0  0  0
    0.5330   14.9140   -4.2270 C   0  0  2  0  0  0  0  0  0  0  0  0
    1.0300   15.9540   -5.1870 C   0  0  0  0  0  0  0  0  0  0  0  0
    0.3970   17.3280   -5.1620 C   0  0  0  0  0  0  0  0  0  0  0  0
   -0.5510   17.3360   -6.2080 O   0  0  0  0  0  0  0  0  0  0  0  0
   -1.8810   18.1250   -5.9620 P   0  0  2  0  0  0  0  0  0  0  0  0
   -1.6110   19.5670   -6.5390 O   0  0  0  0  0  0  0  0  0  0  0  0
   -2.3510   17.9890   -4.5870 O   0  0  0  0  0  0  0  0  0  0  0  0
   -2.9270   17.4790   -6.9730 O   0  0  0  0  0  0  0  0  0  0  0  0
   -0.8040   19.7920   -7.8780 P   0  0  0  0  0  0  0  0  0  0  0  0
   -1.8180   20.7450   -8.6580 O   0  0  0  0  0  0  0  0  0  0  0  0
   -0.3760   18.6040   -8.6770 O   0  0  0  0  0  0  0  0  0  0  0  0
    0.3610   20.8290   -7.5830 O   0  0  0  0  0  0  0  0  0  0  0  0
  2  1  1  1
  2  3  1  0
  2  4  1  0
  4  5  1  1
  3  6  1  0
  4  7  1  0
  6  7  1  0
  7  8  1  6
  8  9  1  0
  9 10  1  0
 10 11  1  0
 11 12  1  0
 11 13  2  0
 11 14  1  6
 12 15  1  0
 15 16  1  0
 15 17  2  0
 15 18  1  0
M  END
