5CMS_0_J_α-mArh-5cms_E_5_E_β
     RDKit          3D

 17 17  0  0  0  0  0  0  0  0999 V2000
   -1.2860   22.9150   -7.3990 C   0  0  0  0  0  0  0  0  0  0  0  0
   -1.3590   23.2080   -8.7930 C   0  0  1  0  0  0  0  0  0  0  0  0
   -0.9950   21.9830   -9.3570 O   0  0  0  0  0  0  0  0  0  0  0  0
   -2.7260   23.5950   -9.3290 C   0  0  2  0  0  0  0  0  0  0  0  0
   -3.5820   24.1930   -8.4180 O   0  0  0  0  0  0  0  0  0  0  0  0
   -2.2060   21.2760   -9.4150 C   0  0  2  0  0  0  0  0  0  0  0  0
   -3.3140   22.2950   -9.7800 C   0  0  1  0  0  0  0  0  0  0  0  0
   -2.2340   20.5960   -8.1650 O   0  0  0  0  0  0  0  0  0  0  0  0
   -4.5800   22.1430   -9.1680 O   0  0  0  0  0  0  0  0  0  0  0  0
   -0.8590   19.7840   -7.7610 P   0  0  2  0  0  0  0  0  0  0  0  0
   -1.0320   18.3320   -7.1280 O   0  0  0  0  0  0  0  0  0  0  0  0
    0.3220   20.5980   -7.3890 O   0  0  0  0  0  0  0  0  0  0  0  0
   -0.3480   19.0820   -9.0750 O   0  0  0  0  0  0  0  0  0  0  0  0
   -1.9380   17.8060   -5.9670 P   0  0  0  0  0  0  0  0  0  0  0  0
   -0.9440   17.0100   -5.0130 O   0  0  0  0  0  0  0  0  0  0  0  0
   -3.1400   17.0410   -6.3650 O   0  0  0  0  0  0  0  0  0  0  0  0
   -2.2130   19.0780   -5.0440 O   0  0  0  0  0  0  0  0  0  0  0  0
  2  1  1  1
  2  3  1  0
  2  4  1  0
  4  5  1  1
  3  6  1  0
  4  7  1  0
  6  7  1  0
  6  8  1  1
  7  9  1  1
  8 10  1  0
 10 11  1  0
 10 12  2  0
 10 13  1  6
 11 14  1  0
 14 15  1  0
 14 16  2  0
 14 17  1  0
M  END
