5CMS_0_I_α-5L9K_0_B_β
     RDKit          3D

 17 17  0  0  0  0  0  0  0  0999 V2000
   -1.6870   21.4340   -7.6220 C   0  0  0  0  0  0  0  0  0  0  0  0
   -0.8860   19.8990   -7.4990 P   0  0  0  0  0  0  0  0  0  0  0  0
   -1.3380   18.6800   -8.4480 O   0  0  0  0  0  0  0  0  0  0  0  0
   -2.6280   21.7690   -8.7670 C   0  0  1  0  0  0  0  0  0  0  0  0
   -1.8140   19.2700   -6.4750 O   0  0  0  0  0  0  0  0  0  0  0  0
    0.0640   20.0510   -8.6840 O   0  0  0  0  0  0  0  0  0  0  0  0
   -3.9990   21.5720   -8.5790 O   0  0  0  0  0  0  0  0  0  0  0  0
   -2.6610   23.1970   -8.9970 C   0  0  1  0  0  0  0  0  0  0  0  0
   -1.3510   23.5800   -9.1870 O   0  0  0  0  0  0  0  0  0  0  0  0
   -1.8100   17.9460   -5.7430 P   0  0  0  0  0  0  0  0  0  0  0  0
   -4.6800   22.5380   -9.3330 C   0  0  2  0  0  0  0  0  0  0  0  0
   -3.6690   23.1720  -10.1510 C   0  0  2  0  0  0  0  0  0  0  0  0
   -5.3560   23.4780   -8.5670 O   0  0  0  0  0  0  0  0  0  0  0  0
   -3.5280   22.3360  -11.2390 O   0  0  0  0  0  0  0  0  0  0  0  0
   -0.3030   17.4970   -6.1700 O   0  0  0  0  0  0  0  0  0  0  0  0
   -2.0700   18.8090   -4.4170 O   0  0  0  0  0  0  0  0  0  0  0  0
   -3.0270   17.3860   -6.6930 O   0  0  0  0  0  0  0  0  0  0  0  0
  1  2  1  0
  2  3  1  0
  4  1  1  1
  2  5  1  0
  2  6  1  0
  4  7  1  0
  4  8  1  0
  8  9  1  6
  5 10  1  0
  7 11  1  0
  8 12  1  0
 11 12  1  0
 11 13  1  1
 12 14  1  6
 10 15  1  0
 10 16  1  0
 10 17  1  0
M  CHG  2   6  -1  16  -1
M  END
