5CMS_0_R_γ-6woj_A_0_A_β
     RDKit          3D

 16 16  0  0  0  0  0  0  0  0999 V2000
   -0.4030   12.2620   -3.8870 O   0  0  0  0  0  0  0  0  0  0  0  0
    0.3750   13.4400   -3.9160 C   0  0  2  0  0  0  0  0  0  0  0  0
    0.0440   14.4160   -2.7920 C   0  0  0  0  0  0  0  0  0  0  0  0
    0.1620   14.2460   -5.1890 C   0  0  2  0  0  0  0  0  0  0  0  0
    1.4380   14.2320   -5.8110 O   0  0  0  0  0  0  0  0  0  0  0  0
    0.2320   15.7270   -3.3330 O   0  0  0  0  0  0  0  0  0  0  0  0
   -0.2790   15.6320   -4.6680 C   0  0  1  0  0  0  0  0  0  0  0  0
    0.1780   16.8820   -5.3850 C   0  0  0  0  0  0  0  0  0  0  0  0
   -1.1150   18.1030   -5.6960 P   0  0  2  0  0  0  0  0  0  0  0  0
   -0.3760   19.3360   -6.3130 O   0  0  0  0  0  0  0  0  0  0  0  0
   -1.7820   18.5230   -4.4450 O   0  0  0  0  0  0  0  0  0  0  0  0
   -2.2060   17.5800   -6.7550 O   0  0  0  0  0  0  0  0  0  0  0  0
   -0.0500   19.9370   -7.7020 P   0  0  0  0  0  0  0  0  0  0  0  0
   -1.4480   20.5560   -8.1470 O   0  0  0  0  0  0  0  0  0  0  0  0
    1.0920   20.8950   -7.6970 O   0  0  0  0  0  0  0  0  0  0  0  0
    0.0700   18.7110   -8.7330 O   0  0  0  0  0  0  0  0  0  0  0  0
  2  1  1  6
  2  3  1  0
  2  4  1  0
  4  5  1  1
  3  6  1  0
  4  7  1  0
  6  7  1  0
  7  8  1  6
  8  9  1  0
  9 10  1  0
  9 11  2  0
  9 12  1  6
 10 13  1  0
 13 14  1  0
 13 15  2  0
 13 16  1  0
M  END
