5CMS_0_K_β-6fx_7_0A_β
     RDKit          3D

  9  8  0  0  0  0  0  0  0  0999 V2000
   -1.7310   20.4940   -8.1160 O   0  0  0  0  0  0  0  0  0  0  0  0
   -0.2430   19.8790   -8.0580 P   0  0  0  0  0  0  0  0  0  0  0  0
   -0.3230   19.0130   -6.8290 O   0  0  0  0  0  0  0  0  0  0  0  0
    1.0260   20.7740   -7.4910 O   0  0  0  0  0  0  0  0  0  0  0  0
    0.0810   18.4980   -8.9380 O   0  0  0  0  0  0  0  0  0  0  0  0
   -1.7050   18.4610   -6.1680 P   0  0  0  0  0  0  0  0  0  0  0  0
   -0.9870   17.4270   -5.3140 O   0  0  0  0  0  0  0  0  0  0  0  0
   -2.6070   17.2860   -6.8440 O   0  0  0  0  0  0  0  0  0  0  0  0
   -2.3320   19.3410   -4.9210 O   0  0  0  0  0  0  0  0  0  0  0  0
  1  2  1  0
  2  3  1  0
  2  4  1  0
  2  5  1  0
  3  6  1  0
  6  7  1  0
  6  8  1  0
  6  9  1  0
M  CHG  2   4  -1   8  -1
M  END
