5CMS_0_A_α-mArh-5cms_J_9_J_α
     RDKit          3D

 10 10  0  0  0  0  0  0  0  0999 V2000
   -2.1490   21.3940   -8.5450 C   0  0  0  0  0  0  0  0  0  0  0  0
   -2.0990   21.6950  -10.0330 C   0  0  1  0  0  0  0  0  0  0  0  0
   -3.4040   22.0630  -10.5120 O   0  0  0  0  0  0  0  0  0  0  0  0
   -1.1610   22.8200  -10.4380 C   0  0  2  0  0  0  0  0  0  0  0  0
   -0.9050   22.8450  -11.8330 O   0  0  0  0  0  0  0  0  0  0  0  0
    0.1640   22.8220   -9.6660 C   0  0  0  0  0  0  0  0  0  0  0  0
   -3.4690   23.4820  -10.5000 C   0  0  2  0  0  0  0  0  0  0  0  0
   -2.0460   23.9970  -10.1860 C   0  0  2  0  0  0  0  0  0  0  0  0
   -4.4000   23.8360   -9.4800 O   0  0  0  0  0  0  0  0  0  0  0  0
   -1.7100   25.0580  -11.0980 O   0  0  0  0  0  0  0  0  0  0  0  0
  2  1  1  1
  2  3  1  0
  2  4  1  0
  4  5  1  0
  4  6  1  1
  3  7  1  0
  4  8  1  0
  7  8  1  0
  7  9  1  1
  8 10  1  6
M  END
