
     RDKit          3D

 27 29  0  0  0  0  0  0  0  0999 V2000
   -2.0780   17.8400   -6.4680 P   0  0  0  0  0  0  0  0  0  0  0  0
   -0.5040   19.4370   -8.3930 P   0  0  0  0  0  0  0  0  0  0  0  0
    0.0940   16.9700   -5.2520 C   0  0  0  0  0  0  0  0  0  0  0  0
   -0.9840   16.7280   -6.1460 O   0  0  0  0  0  0  0  0  0  0  0  0
    0.4780   15.6910   -4.5010 C   0  0  1  0  0  0  0  0  0  0  0  0
    0.0360   15.7020   -3.1290 O   0  0  0  0  0  0  0  0  0  0  0  0
   -0.1390   14.4400   -5.1260 C   0  0  1  0  0  0  0  0  0  0  0  0
    0.8480   13.4170   -5.1740 O   0  0  0  0  0  0  0  0  0  0  0  0
   -1.3290   14.1420   -4.2090 C   0  0  1  0  0  0  0  0  0  0  0  0
   -1.8320   12.8080   -4.1600 O   0  0  0  0  0  0  0  0  0  0  0  0
   -0.7480   14.5280   -2.8620 C   0  0  2  0  0  0  0  0  0  0  0  0
   -1.4600   15.4010    2.2120 N   0  0  0  0  0  0  0  0  0  0  0  0
   -2.6790   18.2300   -5.1390 O   0  0  0  0  0  0  0  0  0  0  0  0
   -1.5600   20.5060   -9.0610 O   0  0  0  0  0  0  0  0  0  0  0  0
   -0.3040   15.1830    1.5140 C   0  0  0  0  0  0  0  0  0  0  0  0
   -2.9920   17.4120   -7.6130 O   0  0  0  0  0  0  0  0  0  0  0  0
   -0.3380   18.1140   -9.0770 O   0  0  0  0  0  0  0  0  0  0  0  0
   -0.2970   14.9790    0.1610 N   0  0  0  0  0  0  0  0  0  0  0  0
   -1.0860   19.0510   -6.9260 O   0  0  0  0  0  0  0  0  0  0  0  0
   -1.4630   14.9660   -0.5640 C   0  0  0  0  0  0  0  0  0  0  0  0
   -2.7550   15.1910    0.1210 C   0  0  0  0  0  0  0  0  0  0  0  0
    0.7640   20.2140   -8.1860 O   0  0  0  0  0  0  0  0  0  0  0  0
   -2.6690   15.4170    1.5750 C   0  0  0  0  0  0  0  0  0  0  0  0
   -3.8170   15.6230    2.2150 N   0  0  0  0  0  0  0  0  0  0  0  0
   -3.7540   15.1280   -0.7950 N   0  0  0  0  0  0  0  0  0  0  0  0
   -3.1400   14.8800   -1.9980 C   0  0  0  0  0  0  0  0  0  0  0  0
   -1.7820   14.7820   -1.8400 N   0  0  0  0  0  0  0  0  0  0  0  0
  1  4  1  0
  1 13  1  0
  1 16  1  0
  1 19  1  0
  4  3  1  0
 19  2  1  0
  2 14  1  0
  2 17  1  0
  2 22  1  0
  5  3  1  6
  5  6  1  0
  5  7  1  0
  6 11  1  0
  7  8  1  1
  7  9  1  0
 11  9  1  0
 11 27  1  1
  9 10  1  1
 27 20  1  0
 27 26  1  0
 12 15  1  0
 12 23  1  0
 15 18  1  0
 23 21  1  0
 23 24  1  0
 18 20  1  0
 20 21  1  0
 21 25  1  0
 25 26  1  0
M  CHG  2  13  -1  17  -1
M  END
