5CMS_0_I_β-mArh-x0933_0_A_α
     RDKit          3D

 19 19  0  0  0  0  0  0  0  0999 V2000
   -0.0190   21.1520   -7.5480 O   0  0  0  0  0  0  0  0  0  0  0  0
   -0.6470   19.7250   -7.6420 P   0  0  0  0  0  0  0  0  0  0  0  0
   -1.4960   19.4150   -6.3190 O   0  0  0  0  0  0  0  0  0  0  0  0
    0.9010   19.1370   -7.5590 O   0  0  0  0  0  0  0  0  0  0  0  0
   -0.7050   18.4330   -8.4940 O   0  0  0  0  0  0  0  0  0  0  0  0
   -1.6940   17.7660   -6.1260 P   0  0  0  0  0  0  0  0  0  0  0  0
   -0.3020   16.9100   -5.7760 O   0  0  0  0  0  0  0  0  0  0  0  0
   -2.9380   17.0410   -6.7400 O   0  0  0  0  0  0  0  0  0  0  0  0
   -2.1150   17.6690   -4.6950 O   0  0  0  0  0  0  0  0  0  0  0  0
   -1.8160   16.5730   -3.8530 C   0  0  0  0  0  0  0  0  0  0  0  0
   -3.0470   15.6300   -3.5830 C   0  0  0  0  0  0  0  0  0  0  0  0
   -3.6750   15.7720   -2.1750 C   0  0  0  0  0  0  0  0  0  0  0  0
   -3.8090   14.5560   -1.3320 C   0  0  2  0  0  0  0  0  0  0  0  0
   -5.0790   14.6670   -0.5980 N   0  0  0  0  0  0  0  0  0  0  0  0
   -2.6660   14.3300   -0.4240 C   0  0  0  0  0  0  0  0  0  0  0  0
   -4.8910   14.4950    0.8180 C   0  0  2  0  0  0  0  0  0  0  0  0
   -2.6630   15.3430    0.6960 C   0  0  0  0  0  0  0  0  0  0  0  0
   -6.1700   14.5500    1.4860 N   0  0  0  0  0  0  0  0  0  0  0  0
   -3.9240   15.4010    1.3640 N   0  0  0  0  0  0  0  0  0  0  0  0
  1  2  1  0
  2  3  1  0
  2  4  1  0
  2  5  1  0
  3  6  1  0
  6  7  1  0
  6  8  1  0
  6  9  1  0
  9 10  1  0
 10 11  1  0
 11 12  1  0
 13 12  1  1
 13 14  1  0
 13 15  1  0
 14 16  1  0
 15 17  1  0
 16 18  1  1
 16 19  1  0
 17 19  1  0
M  CHG  2   4  -1   8  -1
M  END
