5cms_C_2_C_γ-5MQX_0_A_α
     RDKit          3D

 21 22  0  0  0  0  0  0  0  0999 V2000
   -0.8440   12.2460   -3.9930 O   0  0  0  0  0  0  0  0  0  0  0  0
   -1.1910   13.6230   -4.0160 C   0  0  1  0  0  0  0  0  0  0  0  0
   -0.6970   14.3930   -2.7990 C   0  0  0  0  0  0  0  0  0  0  0  0
   -0.4980   14.3640   -5.1430 C   0  0  2  0  0  0  0  0  0  0  0  0
    0.8350   13.8620   -5.2540 O   0  0  0  0  0  0  0  0  0  0  0  0
   -0.2660   15.6880   -3.2650 O   0  0  0  0  0  0  0  0  0  0  0  0
   -0.6920   15.8120   -4.6370 C   0  0  1  0  0  0  0  0  0  0  0  0
    0.0550   17.0150   -5.2600 C   0  0  0  0  0  0  0  0  0  0  0  0
   -0.7330   18.1950   -5.9360 C   0  0  0  0  0  0  0  0  0  0  0  0
   -2.0010   18.8210   -5.2600 C   0  0  0  0  0  0  0  0  0  0  0  0
   -2.8980   19.5490   -6.3190 C   0  0  0  0  0  0  0  0  0  0  0  0
   -4.0880   20.5930   -6.1570 C   0  0  0  0  0  0  0  0  0  0  0  0
   -5.3890   20.6110   -7.1560 C   0  0  0  0  0  0  0  0  0  0  0  0
   -6.2100   19.3390   -7.7620 C   0  0  2  0  0  0  0  0  0  0  0  0
   -5.7960   17.9920   -7.4180 O   0  0  0  0  0  0  0  0  0  0  0  0
   -7.3730   19.2700   -8.8060 C   0  0  2  0  0  0  0  0  0  0  0  0
   -8.3510   20.2590   -8.6880 O   0  0  0  0  0  0  0  0  0  0  0  0
   -6.8090   17.0710   -7.8990 C   0  0  2  0  0  0  0  0  0  0  0  0
   -7.9170   17.8380   -8.6770 C   0  0  1  0  0  0  0  0  0  0  0  0
   -7.3250   16.2840   -6.8420 O   0  0  0  0  0  0  0  0  0  0  0  0
   -9.2680   17.7240   -8.3110 O   0  0  0  0  0  0  0  0  0  0  0  0
  2  1  1  1
  2  3  1  0
  2  4  1  0
  4  5  1  1
  3  6  1  0
  4  7  1  0
  6  7  1  0
  7  8  1  6
  8  9  1  0
  9 10  1  0
 10 11  1  0
 11 12  1  0
 12 13  1  0
 14 13  1  6
 14 15  1  0
 14 16  1  0
 16 17  1  1
 15 18  1  0
 16 19  1  0
 18 19  1  0
 18 20  1  1
 19 21  1  1
M  END
