
     RDKit          3D

 36 39  0  0  0  0  0  0  0  0999 V2000
   -2.1690   17.7910   -6.3960 P   0  0  0  0  0  0  0  0  0  0  0  0
   -0.4970   19.3090   -8.2330 P   0  0  0  0  0  0  0  0  0  0  0  0
   -0.0530   16.5320   -5.5060 C   0  0  0  0  0  0  0  0  0  0  0  0
   -1.4120   16.5090   -5.8950 O   0  0  0  0  0  0  0  0  0  0  0  0
    0.2780   15.3000   -4.7100 C   0  0  1  0  0  0  0  0  0  0  0  0
   -0.2170   15.5170   -3.4190 O   0  0  0  0  0  0  0  0  0  0  0  0
   -0.4190   14.0710   -5.2010 C   0  0  1  0  0  0  0  0  0  0  0  0
    0.4960   12.9960   -5.2020 O   0  0  0  0  0  0  0  0  0  0  0  0
   -1.3240   13.6260   -4.1260 C   0  0  1  0  0  0  0  0  0  0  0  0
   -0.9610   12.2630   -4.1410 O   0  0  0  0  0  0  0  0  0  0  0  0
   -0.7720   14.3260   -2.9110 C   0  0  2  0  0  0  0  0  0  0  0  0
   -3.2060   24.1150  -10.3320 C   0  0  1  0  0  0  0  0  0  0  0  0
   -1.3720   15.5810    2.0750 N   0  0  0  0  0  0  0  0  0  0  0  0
   -3.0290   17.3140   -7.4640 O   0  0  0  0  0  0  0  0  0  0  0  0
    0.6350   20.1790   -7.9590 O   0  0  0  0  0  0  0  0  0  0  0  0
   -3.2500   25.3280   -9.5780 O   0  0  0  0  0  0  0  0  0  0  0  0
   -0.2690   15.2630    1.4260 C   0  0  0  0  0  0  0  0  0  0  0  0
   -1.8410   23.8760  -10.9160 C   0  0  2  0  0  0  0  0  0  0  0  0
   -2.8110   18.4620   -5.2600 O   0  0  0  0  0  0  0  0  0  0  0  0
   -0.3490   18.2210   -9.1750 O   0  0  0  0  0  0  0  0  0  0  0  0
   -1.5450   24.7350  -12.0170 O   0  0  0  0  0  0  0  0  0  0  0  0
   -2.0240   22.4340  -11.2880 C   0  0  2  0  0  0  0  0  0  0  0  0
   -0.2760   14.9560    0.1460 N   0  0  0  0  0  0  0  0  0  0  0  0
   -0.9450   18.6950   -6.8550 O   0  0  0  0  0  0  0  0  0  0  0  0
   -3.0150   22.2850  -12.3100 O   0  0  0  0  0  0  0  0  0  0  0  0
   -1.4080   14.9470   -0.5840 C   0  0  0  0  0  0  0  0  0  0  0  0
   -2.6090   21.8900  -10.0090 C   0  0  2  0  0  0  0  0  0  0  0  0
   -3.4010   22.9590   -9.5200 O   0  0  0  0  0  0  0  0  0  0  0  0
   -2.6380   15.2890    0.0800 C   0  0  0  0  0  0  0  0  0  0  0  0
   -1.5250   21.5390   -9.0000 C   0  0  0  0  0  0  0  0  0  0  0  0
   -1.7000   20.1920   -8.6320 O   0  0  0  0  0  0  0  0  0  0  0  0
   -2.5600   15.6060    1.4900 C   0  0  0  0  0  0  0  0  0  0  0  0
   -3.6550   15.9240    2.1850 N   0  0  0  0  0  0  0  0  0  0  0  0
   -3.5960   15.2160   -0.8120 N   0  0  0  0  0  0  0  0  0  0  0  0
   -3.0270   14.8660   -1.9730 C   0  0  0  0  0  0  0  0  0  0  0  0
   -1.7270   14.6980   -1.8450 N   0  0  0  0  0  0  0  0  0  0  0  0
  1  4  1  0
  1 14  1  0
  1 19  1  0
  1 24  1  0
  4  3  1  0
 24  2  1  0
  2 15  1  0
  2 20  1  0
  2 31  1  0
 31 30  1  0
  5  3  1  6
  5  6  1  0
  5  7  1  0
  6 11  1  0
  7  8  1  1
  7  9  1  0
 11  9  1  0
 11 36  1  1
  9 10  1  1
 36 26  1  0
 36 35  1  0
 12 16  1  1
 12 18  1  0
 12 28  1  0
 18 21  1  6
 18 22  1  0
 28 27  1  0
 13 17  1  0
 13 32  1  0
 17 23  1  0
 32 29  1  0
 32 33  1  0
 23 26  1  0
 22 25  1  6
 22 27  1  0
 27 30  1  1
 26 29  1  0
 29 34  1  0
 34 35  1  0
M  CHG  2  14  -1  15  -1
M  END
