5cms_O_14_O_γ-3q6z_0_A_β
     RDKit          3D

 16 16  0  0  0  0  0  0  0  0999 V2000
   -1.4010   12.5400   -4.1430 O   0  0  0  0  0  0  0  0  0  0  0  0
   -0.2240   13.3050   -3.9750 C   0  0  2  0  0  0  0  0  0  0  0  0
   -0.2930   14.2910   -2.7960 C   0  0  0  0  0  0  0  0  0  0  0  0
    0.0780   14.1920   -5.1780 C   0  0  2  0  0  0  0  0  0  0  0  0
    1.4960   14.0910   -5.3620 O   0  0  0  0  0  0  0  0  0  0  0  0
    0.0550   15.5880   -3.3040 O   0  0  0  0  0  0  0  0  0  0  0  0
   -0.4020   15.5570   -4.6620 C   0  0  1  0  0  0  0  0  0  0  0  0
    0.0720   16.8270   -5.3450 C   0  0  0  0  0  0  0  0  0  0  0  0
   -1.2340   18.0270   -5.7180 P   0  0  2  0  0  0  0  0  0  0  0  0
   -0.5410   19.2750   -6.3760 O   0  0  0  0  0  0  0  0  0  0  0  0
   -1.9580   18.4300   -4.5020 O   0  0  0  0  0  0  0  0  0  0  0  0
   -2.2900   17.4260   -6.7790 O   0  0  0  0  0  0  0  0  0  0  0  0
   -0.2780   19.7010   -7.8380 P   0  0  0  0  0  0  0  0  0  0  0  0
   -1.6020   20.4990   -8.2030 O   0  0  0  0  0  0  0  0  0  0  0  0
    0.0960   18.6530   -8.8080 O   0  0  0  0  0  0  0  0  0  0  0  0
    0.7720   20.8940   -7.7140 O   0  0  0  0  0  0  0  0  0  0  0  0
  2  1  1  6
  2  3  1  0
  2  4  1  0
  4  5  1  1
  3  6  1  0
  4  7  1  0
  6  7  1  0
  7  8  1  6
  8  9  1  0
  9 10  1  0
  9 11  2  0
  9 12  1  6
 10 13  1  0
 13 14  1  0
 13 15  2  0
 13 16  1  0
M  END
