5cms_M_12_M_α-5CMS_0_F_α
     RDKit          3D

 10 10  0  0  0  0  0  0  0  0999 V2000
   -2.5480   21.3620   -8.0830 C   0  0  0  0  0  0  0  0  0  0  0  0
   -2.4610   22.0980   -9.3910 C   0  0  1  0  0  0  0  0  0  0  0  0
   -3.3040   21.5210  -10.4020 O   0  0  0  0  0  0  0  0  0  0  0  0
   -2.8420   23.5410   -9.2450 C   0  0  1  0  0  0  0  0  0  0  0  0
   -1.6790   24.3360   -9.1610 O   0  0  0  0  0  0  0  0  0  0  0  0
   -4.0600   22.5190  -11.1100 C   0  0  2  0  0  0  0  0  0  0  0  0
   -3.8430   23.8590  -10.4010 C   0  0  0  0  0  0  0  0  0  0  0  0
   -5.4490   22.2470  -11.0610 O   0  0  0  0  0  0  0  0  0  0  0  0
   -3.4870   24.8890  -11.3290 O   0  0  0  0  0  0  0  0  0  0  0  0
   -5.0370   24.2980   -9.8150 O   0  0  0  0  0  0  0  0  0  0  0  0
  2  1  1  1
  2  3  1  0
  2  4  1  0
  4  5  1  6
  3  6  1  0
  4  7  1  0
  6  7  1  0
  6  8  1  1
  7  9  1  0
  7 10  1  0
M  END
