5CMS_0_C_δ-5CB3_0_A_α
     RDKit          3D

 24 26  0  0  0  0  0  0  0  0999 V2000
   -3.8040   15.6690    1.6140 N   0  0  0  0  0  0  0  0  0  0  0  0
   -2.7560   14.8770    1.0030 C   0  0  1  0  0  0  0  0  0  0  0  0
   -2.7860   14.6950   -0.5380 C   0  0  2  0  0  0  0  0  0  0  0  0
   -1.5210   15.4950    1.4170 N   0  0  0  0  0  0  0  0  0  0  0  0
   -1.3630   14.8080   -0.9970 C   0  0  2  0  0  0  0  0  0  0  0  0
   -3.3360   15.6120   -1.5700 N   0  0  0  0  0  0  0  0  0  0  0  0
   -0.3470   14.6840    1.1450 C   0  0  0  0  0  0  0  0  0  0  0  0
   -1.5710   14.2410   -2.3040 N   0  0  0  0  0  0  0  0  0  0  0  0
   -2.6140   15.1390   -2.8180 C   0  0  2  0  0  0  0  0  0  0  0  0
   -0.4160   14.0950   -0.1830 N   0  0  0  0  0  0  0  0  0  0  0  0
   -1.9180   16.2780   -3.6280 C   0  0  0  0  0  0  0  0  0  0  0  0
   -2.3230   16.7730   -5.0490 C   0  0  0  0  0  0  0  0  0  0  0  0
   -1.7960   18.2250   -5.3610 C   0  0  0  0  0  0  0  0  0  0  0  0
   -2.5830   19.0820   -6.4080 C   0  0  0  0  0  0  0  0  0  0  0  0
   -3.0770   20.4810   -5.8970 C   0  0  0  0  0  0  0  0  0  0  0  0
   -4.5090   20.6980   -6.0660 O   0  0  0  0  0  0  0  0  0  0  0  0
   -4.9170   21.5530   -7.1540 C   0  0  2  0  0  0  0  0  0  0  0  0
   -4.4110   21.0220   -8.3720 O   0  0  0  0  0  0  0  0  0  0  0  0
   -4.3710   22.9890   -6.9910 C   0  0  2  0  0  0  0  0  0  0  0  0
   -5.4120   23.9660   -6.7220 O   0  0  0  0  0  0  0  0  0  0  0  0
   -3.3990   21.9020   -8.8620 C   0  0  1  0  0  0  0  0  0  0  0  0
   -3.7830   23.2880   -8.3780 C   0  0  1  0  0  0  0  0  0  0  0  0
   -2.0220   21.4620   -8.3860 C   0  0  0  0  0  0  0  0  0  0  0  0
   -4.7100   23.9160   -9.2650 O   0  0  0  0  0  0  0  0  0  0  0  0
  2  1  1  6
  2  3  1  0
  2  4  1  0
  3  5  1  0
  3  6  1  6
  4  7  1  0
  5  8  1  6
  6  9  1  0
  8  9  1  0
  5 10  1  0
  7 10  1  0
  9 11  1  1
 11 12  1  0
 12 13  1  0
 13 14  1  0
 14 15  1  0
 15 16  1  0
 17 16  1  1
 17 18  1  0
 17 19  1  0
 19 20  1  6
 18 21  1  0
 19 22  1  0
 21 22  1  0
 21 23  1  1
 22 24  1  6
M  END
