
     RDKit          3D

 36 39  0  0  0  0  0  0  0  0999 V2000
   -2.1830   17.8230   -6.5290 P   0  0  0  0  0  0  0  0  0  0  0  0
   -0.4690   19.2620   -8.1810 P   0  0  0  0  0  0  0  0  0  0  0  0
    0.0330   17.0410   -5.3040 C   0  0  0  0  0  0  0  0  0  0  0  0
   -0.9370   16.8530   -6.3340 O   0  0  0  0  0  0  0  0  0  0  0  0
    0.5140   15.7120   -4.7060 C   0  0  1  0  0  0  0  0  0  0  0  0
    0.2240   15.6060   -3.2780 O   0  0  0  0  0  0  0  0  0  0  0  0
   -0.1110   14.4860   -5.3570 C   0  0  1  0  0  0  0  0  0  0  0  0
    0.8850   13.4740   -5.3560 O   0  0  0  0  0  0  0  0  0  0  0  0
   -1.2670   14.2000   -4.4070 C   0  0  1  0  0  0  0  0  0  0  0  0
   -1.8450   12.8910   -4.4600 O   0  0  0  0  0  0  0  0  0  0  0  0
   -0.6350   14.4890   -3.0440 C   0  0  2  0  0  0  0  0  0  0  0  0
   -3.9930   22.3100  -10.2740 C   0  0  1  0  0  0  0  0  0  0  0  0
   -1.4500   15.3930    2.0740 N   0  0  0  0  0  0  0  0  0  0  0  0
   -3.0800   17.3310   -7.6620 O   0  0  0  0  0  0  0  0  0  0  0  0
    0.8340   19.0200   -7.4760 O   0  0  0  0  0  0  0  0  0  0  0  0
   -5.1770   22.9680   -9.8250 O   0  0  0  0  0  0  0  0  0  0  0  0
   -0.2900   15.2040    1.3900 C   0  0  0  0  0  0  0  0  0  0  0  0
   -3.0500   23.2710  -11.0140 C   0  0  2  0  0  0  0  0  0  0  0  0
   -2.7770   18.0820   -5.1680 O   0  0  0  0  0  0  0  0  0  0  0  0
   -0.9890   18.4010   -9.2940 O   0  0  0  0  0  0  0  0  0  0  0  0
   -2.9230   22.8430  -12.3700 O   0  0  0  0  0  0  0  0  0  0  0  0
   -1.7220   23.1710  -10.2730 C   0  0  2  0  0  0  0  0  0  0  0  0
   -0.2170   14.9870    0.0410 N   0  0  0  0  0  0  0  0  0  0  0  0
   -1.5320   19.2310   -7.0020 O   0  0  0  0  0  0  0  0  0  0  0  0
   -0.5520   23.1060  -11.1060 O   0  0  0  0  0  0  0  0  0  0  0  0
   -1.3650   14.9360   -0.6980 C   0  0  0  0  0  0  0  0  0  0  0  0
   -1.8950   21.8690   -9.4980 C   0  0  2  0  0  0  0  0  0  0  0  0
   -3.2700   21.7560   -9.1580 O   0  0  0  0  0  0  0  0  0  0  0  0
   -2.6730   15.1120   -0.0100 C   0  0  0  0  0  0  0  0  0  0  0  0
   -1.0310   21.7870   -8.2680 C   0  0  0  0  0  0  0  0  0  0  0  0
   -0.1550   20.7550   -8.6310 O   0  0  0  0  0  0  0  0  0  0  0  0
   -2.6690   15.3590    1.4400 C   0  0  0  0  0  0  0  0  0  0  0  0
   -3.8500   15.5350    2.0780 N   0  0  0  0  0  0  0  0  0  0  0  0
   -3.6230   15.0100   -0.9360 N   0  0  0  0  0  0  0  0  0  0  0  0
   -3.0040   14.7980   -2.1350 C   0  0  0  0  0  0  0  0  0  0  0  0
   -1.6490   14.7540   -1.9920 N   0  0  0  0  0  0  0  0  0  0  0  0
  1  4  1  0
  1 14  1  0
  1 19  1  0
  1 24  1  0
  4  3  1  0
 24  2  1  0
  2 15  1  0
  2 20  1  0
  2 31  1  0
 31 30  1  0
  5  3  1  6
  5  6  1  0
  5  7  1  0
  6 11  1  0
  7  8  1  1
  7  9  1  0
 11  9  1  0
 11 36  1  1
  9 10  1  1
 36 26  1  0
 36 35  1  0
 12 16  1  1
 12 18  1  0
 12 28  1  0
 18 21  1  6
 18 22  1  0
 28 27  1  0
 13 17  1  0
 13 32  1  0
 17 23  1  0
 32 29  1  0
 32 33  1  0
 23 26  1  0
 22 25  1  6
 22 27  1  0
 27 30  1  1
 26 29  1  0
 29 34  1  0
 34 35  1  0
M  CHG  2  14  -1  15  -1
M  END
