5CMS_0_O_α-5CMS_0_K_δ
     RDKit          3D

 26 28  0  0  0  0  0  0  0  0999 V2000
    0.9460   22.8260   -9.6700 C   0  0  0  0  0  0  0  0  0  0  0  0
   -0.5650   22.8750   -9.6720 C   0  0  2  0  0  0  0  0  0  0  0  0
   -1.1280   21.7530  -10.3490 O   0  0  0  0  0  0  0  0  0  0  0  0
   -1.1830   24.1210  -10.2800 C   0  0  1  0  0  0  0  0  0  0  0  0
   -0.3510   24.7760  -11.2410 O   0  0  0  0  0  0  0  0  0  0  0  0
   -2.4700   22.0980  -10.6320 C   0  0  2  0  0  0  0  0  0  0  0  0
   -2.4480   23.6000  -10.9800 C   0  0  1  0  0  0  0  0  0  0  0  0
   -3.3040   21.7860   -9.4800 O   0  0  0  0  0  0  0  0  0  0  0  0
   -3.6420   24.2760  -10.6010 O   0  0  0  0  0  0  0  0  0  0  0  0
   -2.7020   21.9050   -8.1560 C   0  0  0  0  0  0  0  0  0  0  0  0
   -1.8210   20.6840   -7.7630 C   0  0  0  0  0  0  0  0  0  0  0  0
   -2.4990   19.7300   -6.7470 C   0  0  0  0  0  0  0  0  0  0  0  0
   -1.6130   19.0660   -5.6750 C   0  0  0  0  0  0  0  0  0  0  0  0
   -1.3800   17.5450   -5.8130 C   0  0  0  0  0  0  0  0  0  0  0  0
   -2.2650   16.4800   -5.0960 C   0  0  0  0  0  0  0  0  0  0  0  0
   -1.9890   16.1650   -3.6020 C   0  0  0  0  0  0  0  0  0  0  0  0
   -2.6780   14.9520   -2.9250 C   0  0  1  0  0  0  0  0  0  0  0  0
   -1.6490   14.2230   -2.2350 N   0  0  0  0  0  0  0  0  0  0  0  0
   -3.6240   15.2450   -1.8270 N   0  0  0  0  0  0  0  0  0  0  0  0
   -1.3840   15.0350   -1.0630 C   0  0  1  0  0  0  0  0  0  0  0  0
   -2.7730   15.4930   -0.6220 C   0  0  2  0  0  0  0  0  0  0  0  0
   -0.6770   14.2120   -0.1220 N   0  0  0  0  0  0  0  0  0  0  0  0
   -3.1590   14.7810    0.7000 C   0  0  2  0  0  0  0  0  0  0  0  0
   -4.2000   15.4640    1.4590 N   0  0  0  0  0  0  0  0  0  0  0  0
   -0.7400   14.8300    1.1770 C   0  0  0  0  0  0  0  0  0  0  0  0
   -2.1020   14.6940    1.6890 N   0  0  0  0  0  0  0  0  0  0  0  0
  2  1  1  6
  2  3  1  0
  2  4  1  0
  4  5  1  6
  3  6  1  0
  4  7  1  0
  6  7  1  0
  6  8  1  1
  7  9  1  1
  8 10  1  0
 10 11  1  0
 11 12  1  0
 12 13  1  0
 13 14  1  0
 14 15  1  0
 15 16  1  0
 17 16  1  1
 17 18  1  0
 17 19  1  0
 20 18  1  6
 21 19  1  6
 20 21  1  0
 20 22  1  0
 21 23  1  0
 23 24  1  1
 22 25  1  0
 23 26  1  0
 25 26  1  0
M  END
