5CMS_0_O_δ-5DUS_0_A_γ
     RDKit          3D

 17 19  0  0  0  0  0  0  0  0999 V2000
   -3.7140   15.3610    1.6780 N   0  0  0  0  0  0  0  0  0  0  0  0
   -2.6410   14.7690    0.8990 C   0  0  1  0  0  0  0  0  0  0  0  0
   -2.5110   15.4320   -0.4780 C   0  0  1  0  0  0  0  0  0  0  0  0
   -1.4560   14.9870    1.6780 N   0  0  0  0  0  0  0  0  0  0  0  0
   -1.1100   15.1390   -1.0620 C   0  0  2  0  0  0  0  0  0  0  0  0
   -3.4870   15.0130   -1.4890 N   0  0  0  0  0  0  0  0  0  0  0  0
   -0.2590   14.3930    1.1030 C   0  0  0  0  0  0  0  0  0  0  0  0
   -1.3710   15.0220   -2.6180 C   0  0  1  0  0  0  0  0  0  0  0  0
   -2.8220   15.4810   -2.7100 C   0  0  0  0  0  0  0  0  0  0  0  0
   -0.4400   14.0820   -0.3090 N   0  0  0  0  0  0  0  0  0  0  0  0
   -0.4560   16.0350   -3.1510 O   0  0  0  0  0  0  0  0  0  0  0  0
   -1.2110   13.8280   -3.6070 C   0  0  2  0  0  0  0  0  0  0  0  0
   -0.8220   12.5570   -3.1590 O   0  0  0  0  0  0  0  0  0  0  0  0
   -0.3200   15.8280   -4.5560 C   0  0  2  0  0  0  0  0  0  0  0  0
   -0.3230   14.3220   -4.7620 C   0  0  1  0  0  0  0  0  0  0  0  0
    0.9080   16.5570   -5.0670 C   0  0  0  0  0  0  0  0  0  0  0  0
    0.9560   13.6920   -4.7620 O   0  0  0  0  0  0  0  0  0  0  0  0
  2  1  1  1
  2  3  1  0
  2  4  1  0
  3  5  1  0
  3  6  1  6
  4  7  1  0
  5  8  1  0
  6  9  1  0
  8  9  1  1
  5 10  1  1
  7 10  1  0
  8 11  1  0
  8 12  1  0
 12 13  1  1
 11 14  1  0
 12 15  1  0
 14 15  1  0
 14 16  1  1
 15 17  1  1
M  END
