5CMS_0_F_Î±
     RDKit          3D

  9  9  0  0  0  0  0  0  0  0999 V2000
   -2.0810   21.6640   -9.0780 C   0  0  0  0  0  0  0  0  0  0  0  0
   -1.6370   22.2100  -10.4250 C   0  0  1  0  0  0  0  0  0  0  0  0
   -2.7920   22.3690  -11.2730 O   0  0  0  0  0  0  0  0  0  0  0  0
   -0.9120   23.5540  -10.2870 C   0  0  2  0  0  0  0  0  0  0  0  0
   -3.1460   23.7570  -11.2850 C   0  0  2  0  0  0  0  0  0  0  0  0
   -1.8610   24.5550  -10.9350 C   0  0  2  0  0  0  0  0  0  0  0  0
    0.3970   23.5510  -10.8660 O   0  0  0  0  0  0  0  0  0  0  0  0
   -4.2130   23.9800  -10.3300 O   0  0  0  0  0  0  0  0  0  0  0  0
   -1.2740   25.2580  -12.0460 O   0  0  0  0  0  0  0  0  0  0  0  0
  2  1  1  1
  3  2  1  0
  4  2  1  0
  5  3  1  0
  6  4  1  0
  4  7  1  6
  5  8  1  1
  5  6  1  0
  6  9  1  6
M  END
