5CMS_0_I_α-6woj_B_0_B_γ
     RDKit          3D

 23 24  0  0  0  0  0  0  0  0999 V2000
   -2.6710   21.4410   -7.0240 C   0  0  0  0  0  0  0  0  0  0  0  0
   -3.0520   21.6770   -8.4640 C   0  0  1  0  0  0  0  0  0  0  0  0
   -4.4710   21.5870   -8.6080 O   0  0  0  0  0  0  0  0  0  0  0  0
   -2.6670   23.0250   -8.9340 C   0  0  1  0  0  0  0  0  0  0  0  0
   -1.2920   22.8580   -9.1950 O   0  0  0  0  0  0  0  0  0  0  0  0
   -4.8940   22.6910   -9.4110 C   0  0  2  0  0  0  0  0  0  0  0  0
   -3.6590   23.1450  -10.1170 C   0  0  2  0  0  0  0  0  0  0  0  0
   -5.4340   23.7330   -8.6370 O   0  0  0  0  0  0  0  0  0  0  0  0
   -3.5910   22.1630  -11.1640 O   0  0  0  0  0  0  0  0  0  0  0  0
   -0.4740   22.7620   -8.0310 C   0  0  0  0  0  0  0  0  0  0  0  0
    0.1900   21.3900   -7.9800 C   0  0  0  0  0  0  0  0  0  0  0  0
   -0.7440   20.2260   -7.6820 C   0  0  0  0  0  0  0  0  0  0  0  0
   -0.0110   18.9120   -7.5710 C   0  0  0  0  0  0  0  0  0  0  0  0
   -0.2830   18.2110   -6.2440 C   0  0  0  0  0  0  0  0  0  0  0  0
    1.0010   17.6870   -5.6140 C   0  0  0  0  0  0  0  0  0  0  0  0
    0.8940   16.9450   -4.2900 C   0  0  0  0  0  0  0  0  0  0  0  0
    0.0460   15.6950   -4.2230 C   0  0  2  0  0  0  0  0  0  0  0  0
   -0.0990   15.2520   -2.8670 O   0  0  0  0  0  0  0  0  0  0  0  0
    0.4330   14.4250   -4.9760 C   0  0  1  0  0  0  0  0  0  0  0  0
    1.6910   13.8500   -4.6360 O   0  0  0  0  0  0  0  0  0  0  0  0
   -0.6450   13.9310   -2.9540 C   0  0  0  0  0  0  0  0  0  0  0  0
   -0.7150   13.5920   -4.4420 C   0  0  2  0  0  0  0  0  0  0  0  0
   -0.5770   12.2090   -4.7280 O   0  0  0  0  0  0  0  0  0  0  0  0
  2  1  1  1
  2  3  1  0
  2  4  1  0
  4  5  1  6
  3  6  1  0
  4  7  1  0
  6  7  1  0
  6  8  1  1
  7  9  1  6
  5 10  1  0
 10 11  1  0
 11 12  1  0
 12 13  1  0
 13 14  1  0
 14 15  1  0
 15 16  1  0
 17 16  1  1
 17 18  1  0
 17 19  1  0
 19 20  1  1
 18 21  1  0
 19 22  1  0
 21 22  1  0
 22 23  1  1
M  END
