5CMS_0_E_Î´
     RDKit          3D

 10 11  0  0  0  0  0  0  0  0999 V2000
   -1.7860   14.5770   -2.0270 N   0  0  0  0  0  0  0  0  0  0  0  0
   -1.4440   14.8010   -0.7040 C   0  0  0  0  0  0  0  0  0  0  0  0
   -3.1010   14.7310   -2.2510 C   0  0  0  0  0  0  0  0  0  0  0  0
   -0.2700   14.8080    0.0820 N   0  0  0  0  0  0  0  0  0  0  0  0
   -2.7200   15.1290   -0.0480 C   0  0  0  0  0  0  0  0  0  0  0  0
   -3.6790   15.0820   -1.0380 N   0  0  0  0  0  0  0  0  0  0  0  0
   -0.2610   15.0890    1.4060 C   0  0  0  0  0  0  0  0  0  0  0  0
   -2.6320   15.4330    1.3930 C   0  0  0  0  0  0  0  0  0  0  0  0
   -1.4210   15.3840    2.0370 N   0  0  0  0  0  0  0  0  0  0  0  0
   -3.7450   15.7480    2.0370 N   0  0  0  0  0  0  0  0  0  0  0  0
  1  2  1  0
  1  3  1  0
  4  2  1  0
  2  5  1  0
  6  3  1  0
  7  4  1  0
  8  5  1  0
  5  6  1  0
  9  7  1  0
  9  8  1  0
  8 10  1  0
M  END
