5CMS_0_F_δ-5cms_B_1_B_α
     RDKit          3D

 25 27  0  0  0  0  0  0  0  0999 V2000
   -3.7170   14.2310    1.1620 N   0  0  0  0  0  0  0  0  0  0  0  0
   -2.6410   15.1800    1.0530 C   0  0  2  0  0  0  0  0  0  0  0  0
   -2.3770   15.6260   -0.4060 C   0  0  1  0  0  0  0  0  0  0  0  0
   -1.5290   14.5100    1.6850 N   0  0  0  0  0  0  0  0  0  0  0  0
   -1.0010   15.2420   -0.9830 C   0  0  2  0  0  0  0  0  0  0  0  0
   -3.3010   15.0690   -1.4160 N   0  0  0  0  0  0  0  0  0  0  0  0
   -0.2670   14.9450    1.1380 C   0  0  0  0  0  0  0  0  0  0  0  0
   -1.2960   14.6180   -2.2710 N   0  0  0  0  0  0  0  0  0  0  0  0
   -2.4930   15.3820   -2.5840 C   0  0  1  0  0  0  0  0  0  0  0  0
   -0.1370   14.4570   -0.1880 N   0  0  0  0  0  0  0  0  0  0  0  0
   -3.1550   15.1080   -3.9500 C   0  0  0  0  0  0  0  0  0  0  0  0
   -2.6570   15.9840   -5.1420 C   0  0  0  0  0  0  0  0  0  0  0  0
   -1.3500   16.8020   -4.9880 C   0  0  0  0  0  0  0  0  0  0  0  0
   -1.4040   18.3100   -5.3450 C   0  0  0  0  0  0  0  0  0  0  0  0
   -1.9170   18.7130   -6.7410 C   0  0  0  0  0  0  0  0  0  0  0  0
   -2.3140   20.2030   -6.9040 C   0  0  0  0  0  0  0  0  0  0  0  0
   -1.9160   20.9740   -8.1910 C   0  0  0  0  0  0  0  0  0  0  0  0
   -2.8200   22.1580   -8.5920 C   0  0  2  0  0  0  0  0  0  0  0  0
   -3.8240   22.5550   -7.6880 O   0  0  0  0  0  0  0  0  0  0  0  0
   -3.7970   22.1630   -9.7530 C   0  0  1  0  0  0  0  0  0  0  0  0
   -5.0710   21.7020   -9.5080 O   0  0  0  0  0  0  0  0  0  0  0  0
   -4.1970   23.7900   -8.2910 C   0  0  2  0  0  0  0  0  0  0  0  0
   -3.9290   23.6560   -9.7760 C   0  0  2  0  0  0  0  0  0  0  0  0
   -3.2310   24.6740   -7.7860 O   0  0  0  0  0  0  0  0  0  0  0  0
   -4.8610   24.1310  -10.7660 O   0  0  0  0  0  0  0  0  0  0  0  0
  2  1  1  6
  2  3  1  0
  2  4  1  0
  3  5  1  0
  3  6  1  6
  4  7  1  0
  5  8  1  6
  6  9  1  0
  8  9  1  0
  5 10  1  0
  7 10  1  0
  9 11  1  6
 11 12  1  0
 12 13  1  0
 13 14  1  0
 14 15  1  0
 15 16  1  0
 16 17  1  0
 18 17  1  1
 18 19  1  0
 18 20  1  0
 20 21  1  1
 19 22  1  0
 20 23  1  0
 22 23  1  0
 22 24  1  1
 23 25  1  6
M  END
