5CMS_0_H_γ-mArh-6woj_A_0_A_β
     RDKit          3D

 16 16  0  0  0  0  0  0  0  0999 V2000
   -1.8630   12.8380   -4.0110 O   0  0  0  0  0  0  0  0  0  0  0  0
   -0.5680   13.3800   -3.8570 C   0  0  2  0  0  0  0  0  0  0  0  0
   -0.4420   14.3250   -2.6570 C   0  0  0  0  0  0  0  0  0  0  0  0
   -0.1620   14.2490   -5.0370 C   0  0  2  0  0  0  0  0  0  0  0  0
    1.2590   14.0950   -5.1720 O   0  0  0  0  0  0  0  0  0  0  0  0
   -0.0360   15.6050   -3.1660 O   0  0  0  0  0  0  0  0  0  0  0  0
   -0.5600   15.6180   -4.5020 C   0  0  1  0  0  0  0  0  0  0  0  0
    0.0040   16.8190   -5.2160 C   0  0  0  0  0  0  0  0  0  0  0  0
   -1.1570   18.1260   -5.6290 P   0  0  2  0  0  0  0  0  0  0  0  0
   -0.2160   19.1880   -6.2850 O   0  0  0  0  0  0  0  0  0  0  0  0
   -1.8030   18.7200   -4.4350 O   0  0  0  0  0  0  0  0  0  0  0  0
   -2.2450   17.6380   -6.7160 O   0  0  0  0  0  0  0  0  0  0  0  0
   -0.0010   19.8540   -7.6580 P   0  0  0  0  0  0  0  0  0  0  0  0
   -1.4510   20.3990   -8.0340 O   0  0  0  0  0  0  0  0  0  0  0  0
    1.0840   20.8720   -7.6870 O   0  0  0  0  0  0  0  0  0  0  0  0
    0.1470   18.6380   -8.6900 O   0  0  0  0  0  0  0  0  0  0  0  0
  2  1  1  6
  2  3  1  0
  2  4  1  0
  4  5  1  1
  3  6  1  0
  4  7  1  0
  6  7  1  0
  7  8  1  6
  8  9  1  0
  9 10  1  0
  9 11  2  0
  9 12  1  6
 10 13  1  0
 13 14  1  0
 13 15  2  0
 13 16  1  0
M  END
