5CMS_0_R_δ-5cms_D_3_D_β
     RDKit          3D

 17 19  0  0  0  0  0  0  0  0999 V2000
   -3.6570   15.4390    1.4330 N   0  0  0  0  0  0  0  0  0  0  0  0
   -2.5310   14.8230    0.7450 C   0  0  1  0  0  0  0  0  0  0  0  0
   -2.3590   15.2320   -0.7340 C   0  0  1  0  0  0  0  0  0  0  0  0
   -1.3760   15.2590    1.4930 N   0  0  0  0  0  0  0  0  0  0  0  0
   -1.0990   14.5270   -1.2180 C   0  0  1  0  0  0  0  0  0  0  0  0
   -3.3750   14.8620   -1.7230 N   0  0  0  0  0  0  0  0  0  0  0  0
   -0.1130   14.7430    0.9770 C   0  0  0  0  0  0  0  0  0  0  0  0
   -1.1530   14.7530   -2.7620 C   0  0  1  0  0  0  0  0  0  0  0  0
   -2.6430   15.0870   -2.9940 C   0  0  0  0  0  0  0  0  0  0  0  0
    0.0310   15.0040   -0.4420 N   0  0  0  0  0  0  0  0  0  0  0  0
   -0.3020   15.8910   -3.1280 O   0  0  0  0  0  0  0  0  0  0  0  0
   -0.6220   13.6540   -3.7170 C   0  0  1  0  0  0  0  0  0  0  0  0
   -1.4870   12.6050   -4.0990 O   0  0  0  0  0  0  0  0  0  0  0  0
   -0.2580   15.8650   -4.5640 C   0  0  2  0  0  0  0  0  0  0  0  0
   -0.0920   14.3950   -4.9470 C   0  0  1  0  0  0  0  0  0  0  0  0
    0.8080   16.7950   -5.1120 C   0  0  0  0  0  0  0  0  0  0  0  0
    1.2410   13.9860   -5.2330 O   0  0  0  0  0  0  0  0  0  0  0  0
  2  1  1  1
  2  3  1  0
  2  4  1  0
  3  5  1  0
  3  6  1  6
  4  7  1  0
  5  8  1  0
  6  9  1  0
  8  9  1  6
  5 10  1  1
  7 10  1  0
  8 11  1  0
  8 12  1  0
 12 13  1  6
 11 14  1  0
 12 15  1  0
 14 15  1  0
 14 16  1  1
 15 17  1  1
M  END
