5cms_G_3_G_γ-x1012_0_A_α
     RDKit          3D

 21 23  0  0  0  0  0  0  0  0999 V2000
   -4.1340   15.2080    1.4290 N   0  0  0  0  0  0  0  0  0  0  0  0
   -2.8400   15.6030    0.8990 C   0  0  2  0  0  0  0  0  0  0  0  0
   -2.7510   15.4700   -0.6480 C   0  0  1  0  0  0  0  0  0  0  0  0
   -1.8690   14.8060    1.5970 N   0  0  0  0  0  0  0  0  0  0  0  0
   -1.3100   15.2410   -1.2040 C   0  0  2  0  0  0  0  0  0  0  0  0
   -3.6290   14.4220   -1.2150 N   0  0  0  0  0  0  0  0  0  0  0  0
   -0.5450   15.0510    1.0590 C   0  0  0  0  0  0  0  0  0  0  0  0
   -1.5620   14.4360   -2.5380 C   0  0  1  0  0  0  0  0  0  0  0  0
   -2.7610   13.5850   -2.0700 C   0  0  0  0  0  0  0  0  0  0  0  0
   -0.4850   14.4820   -0.2540 N   0  0  0  0  0  0  0  0  0  0  0  0
   -2.0360   15.3170   -3.7360 C   0  0  0  0  0  0  0  0  0  0  0  0
   -0.3750   13.5910   -3.1200 C   0  0  2  0  0  0  0  0  0  0  0  0
    0.1870   12.4960   -2.2360 C   0  0  0  0  0  0  0  0  0  0  0  0
    0.7680   14.5240   -3.5850 C   0  0  0  0  0  0  0  0  0  0  0  0
   -0.9820   16.1430   -4.3410 N   0  0  0  0  0  0  0  0  0  0  0  0
   -1.1930   17.4630   -4.6170 C   0  0  0  0  0  0  0  0  0  0  0  0
    0.2700   11.2610   -2.7600 O   0  0  0  0  0  0  0  0  0  0  0  0
    0.5550   12.6790   -1.0940 O   0  0  0  0  0  0  0  0  0  0  0  0
    0.3240   15.5470   -4.6330 C   0  0  0  0  0  0  0  0  0  0  0  0
   -0.1110   18.2640   -4.6590 N   0  0  0  0  0  0  0  0  0  0  0  0
   -2.2880   17.9460   -4.8220 O   0  0  0  0  0  0  0  0  0  0  0  0
  2  1  1  1
  2  3  1  0
  2  4  1  0
  3  5  1  0
  3  6  1  1
  4  7  1  0
  5  8  1  0
  6  9  1  0
  8  9  1  1
  5 10  1  1
  7 10  1  0
  8 11  1  0
  8 12  1  0
 12 13  1  1
 12 14  1  0
 11 15  1  0
 15 16  1  0
 13 17  1  0
 13 18  2  0
 14 19  1  0
 15 19  1  0
 16 20  1  0
 16 21  2  0
M  END
