5CMS_0_P_β-x0662_0_A_β
     RDKit          3D

 22 22  0  0  0  0  0  0  0  0999 V2000
   -0.8050   21.0230   -7.4090 O   0  0  0  0  0  0  0  0  0  0  0  0
   -0.5520   19.6060   -7.9730 P   0  0  0  0  0  0  0  0  0  0  0  0
   -1.7450   18.7610   -7.4340 O   0  0  0  0  0  0  0  0  0  0  0  0
    0.8990   19.6580   -7.0900 O   0  0  0  0  0  0  0  0  0  0  0  0
    0.1930   18.5910   -8.8320 O   0  0  0  0  0  0  0  0  0  0  0  0
   -2.0100   17.9290   -6.0990 P   0  0  0  0  0  0  0  0  0  0  0  0
   -0.7550   17.0180   -6.0660 O   0  0  0  0  0  0  0  0  0  0  0  0
   -2.9630   16.5530   -6.2170 O   0  0  0  0  0  0  0  0  0  0  0  0
   -1.6880   18.5260   -4.6040 O   0  0  0  0  0  0  0  0  0  0  0  0
   -0.3850   16.3180   -4.8970 C   0  0  0  0  0  0  0  0  0  0  0  0
   -0.6260   14.8060   -5.0110 C   0  0  0  0  0  0  0  0  0  0  0  0
    0.6660   13.9620   -5.1420 C   0  0  0  0  0  0  0  0  0  0  0  0
    0.5950   12.9800   -6.1870 O   0  0  0  0  0  0  0  0  0  0  0  0
    0.0380   11.7130   -5.9950 C   0  0  0  0  0  0  0  0  0  0  0  0
   -0.3910   11.4050   -4.8600 O   0  0  0  0  0  0  0  0  0  0  0  0
   -0.0520   10.7760   -7.1230 C   0  0  0  0  0  0  0  0  0  0  0  0
    0.7830   10.8780   -8.1970 C   0  0  0  0  0  0  0  0  0  0  0  0
   -0.9790    9.7600   -7.1550 C   0  0  0  0  0  0  0  0  0  0  0  0
    0.7480   10.0450   -9.3000 C   0  0  0  0  0  0  0  0  0  0  0  0
   -1.0600    8.8870   -8.2310 C   0  0  0  0  0  0  0  0  0  0  0  0
    1.6410   10.2290  -10.3760 N   0  0  0  0  0  0  0  0  0  0  0  0
   -0.2020    9.0350   -9.2940 C   0  0  0  0  0  0  0  0  0  0  0  0
  1  2  1  0
  2  3  1  0
  2  4  1  0
  2  5  1  0
  3  6  1  0
  6  7  1  0
  6  8  1  0
  6  9  1  0
  7 10  1  0
 10 11  1  0
 11 12  1  0
 12 13  1  0
 13 14  1  0
 14 15  2  0
 14 16  1  0
 16 17  2  0
 16 18  1  0
 17 19  1  0
 18 20  2  0
 19 21  1  0
 19 22  2  0
 20 22  1  0
M  CHG  2   4  -1   8  -1
M  END
