5cms_I_8_I_β-x0253_0_A_α
     RDKit          3D

 26 26  0  0  0  0  0  0  0  0999 V2000
    0.0010   21.0680   -8.1310 O   0  0  0  0  0  0  0  0  0  0  0  0
   -0.2140   19.5680   -7.6820 P   0  0  0  0  0  0  0  0  0  0  0  0
   -1.3230   19.4650   -6.5980 O   0  0  0  0  0  0  0  0  0  0  0  0
    0.9810   18.7350   -7.4440 O   0  0  0  0  0  0  0  0  0  0  0  0
   -0.9750   18.9430   -8.9070 O   0  0  0  0  0  0  0  0  0  0  0  0
   -1.7180   18.0550   -6.0440 P   0  0  2  0  0  0  0  0  0  0  0  0
   -0.3710   17.1980   -5.9410 O   0  0  0  0  0  0  0  0  0  0  0  0
   -2.8230   17.3470   -6.7210 O   0  0  0  0  0  0  0  0  0  0  0  0
   -1.9980   18.3340   -4.5170 O   0  0  0  0  0  0  0  0  0  0  0  0
   -0.1630   16.2410   -4.8980 C   0  0  0  0  0  0  0  0  0  0  0  0
    0.7920   15.1900   -5.4510 C   0  0  0  0  0  0  0  0  0  0  0  0
    1.3750   14.1760   -4.4680 C   0  0  0  0  0  0  0  0  0  0  0  0
    0.4430   12.9700   -4.2800 C   0  0  1  0  0  0  0  0  0  0  0  0
    0.2240   12.0310   -5.4120 N   0  0  0  0  0  0  0  0  0  0  0  0
    0.7330   12.1960   -2.9940 C   0  0  0  0  0  0  0  0  0  0  0  0
    1.4040   12.6040   -2.0620 O   0  0  0  0  0  0  0  0  0  0  0  0
    0.1680   10.9770   -2.9370 O   0  0  0  0  0  0  0  0  0  0  0  0
    1.0770   11.7650   -6.4720 C   0  0  0  0  0  0  0  0  0  0  0  0
    2.2090   12.2130   -6.5390 O   0  0  0  0  0  0  0  0  0  0  0  0
    0.5190   10.8350   -7.5250 C   0  0  0  0  0  0  0  0  0  0  0  0
   -0.4550    9.9170   -7.1100 C   0  0  0  0  0  0  0  0  0  0  0  0
    0.9010   10.8250   -8.8810 C   0  0  0  0  0  0  0  0  0  0  0  0
   -1.0380    9.0150   -8.0130 C   0  0  0  0  0  0  0  0  0  0  0  0
    0.3280    9.9320   -9.7820 C   0  0  0  0  0  0  0  0  0  0  0  0
   -2.0810    8.0470   -7.5370 C   0  0  0  0  0  0  0  0  0  0  0  0
   -0.6380    9.0290   -9.3540 C   0  0  0  0  0  0  0  0  0  0  0  0
  1  2  1  0
  2  3  1  0
  2  4  2  0
  2  5  1  0
  3  6  1  0
  6  7  1  0
  6  8  2  0
  6  9  1  1
  7 10  1  0
 10 11  1  0
 11 12  1  0
 13 12  1  6
 13 14  1  0
 13 15  1  0
 15 16  2  0
 15 17  1  0
 14 18  1  0
 18 19  2  0
 18 20  1  0
 20 21  2  0
 20 22  1  0
 21 23  1  0
 22 24  2  0
 23 25  1  0
 23 26  2  0
 24 26  1  0
M  END
