5CMS_0_P_γ-5CMS_0_B_δ
     RDKit          3D

 17 19  0  0  0  0  0  0  0  0999 V2000
   -1.6530   12.1850   -3.6750 O   0  0  0  0  0  0  0  0  0  0  0  0
   -0.7760   13.2590   -3.3680 C   0  0  2  0  0  0  0  0  0  0  0  0
   -1.3970   14.4490   -2.5960 C   0  0  2  0  0  0  0  0  0  0  0  0
   -0.2340   13.8270   -4.6950 C   0  0  2  0  0  0  0  0  0  0  0  0
    1.1220   13.4610   -4.8930 O   0  0  0  0  0  0  0  0  0  0  0  0
   -0.7830   15.6080   -3.2380 O   0  0  0  0  0  0  0  0  0  0  0  0
   -0.5210   15.3260   -4.6230 C   0  0  1  0  0  0  0  0  0  0  0  0
   -1.2670   14.6830   -1.0340 C   0  0  1  0  0  0  0  0  0  0  0  0
   -2.9590   14.4400   -2.7050 C   0  0  0  0  0  0  0  0  0  0  0  0
    0.5660   16.2790   -5.1210 C   0  0  0  0  0  0  0  0  0  0  0  0
   -2.7360   15.0690   -0.6380 C   0  0  1  0  0  0  0  0  0  0  0  0
   -3.5070   14.0910   -1.3570 N   0  0  0  0  0  0  0  0  0  0  0  0
   -0.6840   13.7370   -0.0820 N   0  0  0  0  0  0  0  0  0  0  0  0
   -0.6690   14.3160    1.2630 C   0  0  0  0  0  0  0  0  0  0  0  0
   -2.8460   15.3700    0.9020 C   0  0  1  0  0  0  0  0  0  0  0  0
   -4.1990   15.3610    1.4300 N   0  0  0  0  0  0  0  0  0  0  0  0
   -2.0240   14.5340    1.7450 N   0  0  0  0  0  0  0  0  0  0  0  0
  2  1  1  6
  2  3  1  0
  2  4  1  0
  4  5  1  1
  3  6  1  0
  4  7  1  0
  6  7  1  0
  3  8  1  0
  3  9  1  1
  7 10  1  1
  8 11  1  0
  9 12  1  0
 11 12  1  1
  8 13  1  1
 13 14  1  0
 11 15  1  0
 15 16  1  1
 14 17  1  0
 15 17  1  0
M  END
