5cms_P_15_P_α-4iqy_B_0_B_β
     RDKit          3D

 17 17  0  0  0  0  0  0  0  0999 V2000
   -1.8930   21.3140   -8.4960 C   0  0  0  0  0  0  0  0  0  0  0  0
   -0.7190   20.1130   -7.8330 P   0  0  2  0  0  0  0  0  0  0  0  0
   -1.3720   19.6270   -6.4550 O   0  0  0  0  0  0  0  0  0  0  0  0
   -1.6600   21.8690   -9.9010 C   0  0  1  0  0  0  0  0  0  0  0  0
    0.6880   20.5920   -7.6920 O   0  0  0  0  0  0  0  0  0  0  0  0
   -0.7530   18.7680   -8.7090 O   0  0  0  0  0  0  0  0  0  0  0  0
   -2.9220   22.2000  -10.5330 O   0  0  0  0  0  0  0  0  0  0  0  0
   -0.8000   23.1470   -9.9070 C   0  0  1  0  0  0  0  0  0  0  0  0
    0.4700   23.0180  -10.5250 O   0  0  0  0  0  0  0  0  0  0  0  0
   -1.6690   18.1340   -5.9820 P   0  0  0  0  0  0  0  0  0  0  0  0
   -3.0500   23.6190  -10.4620 C   0  0  1  0  0  0  0  0  0  0  0  0
   -1.6300   24.1790  -10.6320 C   0  0  2  0  0  0  0  0  0  0  0  0
   -3.9720   24.1150  -11.4110 O   0  0  0  0  0  0  0  0  0  0  0  0
   -1.2980   24.3720  -11.9970 O   0  0  0  0  0  0  0  0  0  0  0  0
   -0.3420   17.3130   -6.2710 O   0  0  0  0  0  0  0  0  0  0  0  0
   -2.1500   17.9090   -4.6170 O   0  0  0  0  0  0  0  0  0  0  0  0
   -2.6920   17.5480   -7.0390 O   0  0  0  0  0  0  0  0  0  0  0  0
  1  2  1  0
  2  3  1  0
  4  1  1  1
  2  5  2  0
  2  6  1  6
  4  7  1  0
  4  8  1  0
  8  9  1  6
  3 10  1  0
  7 11  1  0
  8 12  1  0
 11 12  1  0
 11 13  1  6
 12 14  1  6
 10 15  1  0
 10 16  2  0
 10 17  1  0
M  END
