5CMS_0_C_δ-x0926_0_A_α
     RDKit          3D

 11 12  0  0  0  0  0  0  0  0999 V2000
   -3.9410   15.6720    2.0440 N   0  0  0  0  0  0  0  0  0  0  0  0
   -3.1980   14.7100    1.2600 C   0  0  1  0  0  0  0  0  0  0  0  0
   -3.2130   15.1100   -0.1580 C   0  0  1  0  0  0  0  0  0  0  0  0
   -1.8500   14.7300    1.8070 N   0  0  0  0  0  0  0  0  0  0  0  0
   -2.0570   14.4220   -0.8360 C   0  0  1  0  0  0  0  0  0  0  0  0
   -4.2990   14.7010   -1.0820 C   0  0  0  0  0  0  0  0  0  0  0  0
   -0.7300   15.2310    1.0060 C   0  0  0  0  0  0  0  0  0  0  0  0
   -5.4830   14.4630   -0.7930 O   0  0  0  0  0  0  0  0  0  0  0  0
   -2.2200   14.7230   -2.2380 N   0  0  0  0  0  0  0  0  0  0  0  0
   -3.6810   14.6540   -2.4750 C   0  0  0  0  0  0  0  0  0  0  0  0
   -0.7510   14.7490   -0.3490 N   0  0  0  0  0  0  0  0  0  0  0  0
  2  1  1  1
  2  3  1  0
  2  4  1  0
  3  5  1  0
  3  6  1  6
  4  7  1  0
  6  8  2  0
  5  9  1  6
  6 10  1  0
  9 10  1  0
  5 11  1  0
  7 11  1  0
M  END
