5CMS_0_Q_Î³
     RDKit          3D

  8  8  0  0  0  0  0  0  0  0999 V2000
   -0.8380   14.3660   -3.0050 C   0  0  0  0  0  0  0  0  0  0  0  0
   -0.0590   15.5240   -3.3720 O   0  0  0  0  0  0  0  0  0  0  0  0
   -1.2990   13.7930   -4.3480 C   0  0  1  0  0  0  0  0  0  0  0  0
    0.4900   15.3720   -4.6830 C   0  0  1  0  0  0  0  0  0  0  0  0
   -0.0700   14.0520   -5.1880 C   0  0  1  0  0  0  0  0  0  0  0  0
   -1.6390   12.3990   -4.3650 O   0  0  0  0  0  0  0  0  0  0  0  0
    0.1270   16.5480   -5.5860 C   0  0  0  0  0  0  0  0  0  0  0  0
    0.8850   13.0270   -4.9440 O   0  0  0  0  0  0  0  0  0  0  0  0
  1  2  1  1
  1  3  1  0
  4  2  1  0
  5  3  1  0
  3  6  1  1
  4  7  1  6
  4  5  1  0
  5  8  1  1
M  END
