5CMS_0_M_δ-6FX7_0_A_γ
     RDKit          3D

 17 19  0  0  0  0  0  0  0  0999 V2000
   -3.8080   15.5390    1.6130 N   0  0  0  0  0  0  0  0  0  0  0  0
   -2.7400   14.8830    0.8730 C   0  0  1  0  0  0  0  0  0  0  0  0
   -2.6580   15.3070   -0.6050 C   0  0  1  0  0  0  0  0  0  0  0  0
   -1.5190   15.2610    1.5490 N   0  0  0  0  0  0  0  0  0  0  0  0
   -1.4480   14.5960   -1.2010 C   0  0  1  0  0  0  0  0  0  0  0  0
   -3.7590   14.9650   -1.5160 N   0  0  0  0  0  0  0  0  0  0  0  0
   -0.3100   14.7120    0.9360 C   0  0  0  0  0  0  0  0  0  0  0  0
   -1.6080   14.8800   -2.7320 C   0  0  1  0  0  0  0  0  0  0  0  0
   -3.1270   15.1660   -2.8430 C   0  0  0  0  0  0  0  0  0  0  0  0
   -0.2560   15.0260   -0.4800 N   0  0  0  0  0  0  0  0  0  0  0  0
   -0.8040   16.0610   -3.1090 O   0  0  0  0  0  0  0  0  0  0  0  0
   -1.1350   13.8110   -3.7480 C   0  0  1  0  0  0  0  0  0  0  0  0
   -2.0790   12.8660   -4.2050 O   0  0  0  0  0  0  0  0  0  0  0  0
   -0.6490   16.0320   -4.5450 C   0  0  2  0  0  0  0  0  0  0  0  0
   -0.5280   14.5600   -4.9380 C   0  0  1  0  0  0  0  0  0  0  0  0
    0.5130   16.9050   -5.0150 C   0  0  0  0  0  0  0  0  0  0  0  0
    0.7890   14.0990   -5.2010 O   0  0  0  0  0  0  0  0  0  0  0  0
  2  1  1  1
  2  3  1  0
  2  4  1  0
  3  5  1  0
  3  6  1  6
  4  7  1  0
  5  8  1  0
  6  9  1  0
  8  9  1  1
  5 10  1  1
  7 10  1  0
  8 11  1  0
  8 12  1  0
 12 13  1  6
 11 14  1  0
 12 15  1  0
 14 15  1  0
 14 16  1  1
 15 17  1  1
M  END
