5CMS_0_I_γ-5CMS_0_K_β
     RDKit          3D

 16 16  0  0  0  0  0  0  0  0999 V2000
   -1.9510   13.0350   -4.1470 O   0  0  0  0  0  0  0  0  0  0  0  0
   -0.6650   13.5430   -4.0170 C   0  0  2  0  0  0  0  0  0  0  0  0
   -0.5100   14.4780   -2.8230 C   0  0  0  0  0  0  0  0  0  0  0  0
   -0.2780   14.3910   -5.1880 C   0  0  2  0  0  0  0  0  0  0  0  0
    1.0670   14.1260   -5.4310 O   0  0  0  0  0  0  0  0  0  0  0  0
    0.0700   15.6370   -3.3640 O   0  0  0  0  0  0  0  0  0  0  0  0
   -0.5400   15.7290   -4.5980 C   0  0  1  0  0  0  0  0  0  0  0  0
   -0.1320   16.9900   -5.3690 C   0  0  0  0  0  0  0  0  0  0  0  0
   -1.4710   18.0430   -5.8200 P   0  0  0  0  0  0  0  0  0  0  0  0
   -0.6660   19.2620   -6.2410 O   0  0  0  0  0  0  0  0  0  0  0  0
   -2.1030   18.0980   -7.3860 O   0  0  0  0  0  0  0  0  0  0  0  0
   -2.2090   19.0040   -4.7820 O   0  0  0  0  0  0  0  0  0  0  0  0
   -0.0600   19.6380   -7.6610 P   0  0  0  0  0  0  0  0  0  0  0  0
   -1.3740   20.2210   -8.2050 O   0  0  0  0  0  0  0  0  0  0  0  0
    0.6430   21.1400   -7.8670 O   0  0  0  0  0  0  0  0  0  0  0  0
    0.0740   18.5080   -8.8420 O   0  0  0  0  0  0  0  0  0  0  0  0
  2  1  1  6
  2  3  1  0
  2  4  1  0
  4  5  1  1
  3  6  1  0
  4  7  1  0
  6  7  1  0
  7  8  1  6
  8  9  1  0
  9 10  1  0
  9 11  1  0
  9 12  1  0
 10 13  1  0
 13 14  1  0
 13 15  1  0
 13 16  1  0
M  CHG  2  11  -1  15  -1
M  END
