5CMS_0_P_β-x0967_0_A_α
     RDKit          3D

 22 23  0  0  0  0  0  0  0  0999 V2000
   -1.0110   20.5030   -8.4030 O   0  0  0  0  0  0  0  0  0  0  0  0
   -0.2090   19.5940   -7.4740 P   0  0  0  0  0  0  0  0  0  0  0  0
   -1.3140   19.4580   -6.3180 O   0  0  0  0  0  0  0  0  0  0  0  0
    1.0370   20.6750   -7.4500 O   0  0  0  0  0  0  0  0  0  0  0  0
   -0.1330   18.4580   -8.7350 O   0  0  0  0  0  0  0  0  0  0  0  0
   -1.9140   18.0190   -5.8240 P   0  0  0  0  0  0  0  0  0  0  0  0
   -0.9310   16.6850   -5.8520 O   0  0  0  0  0  0  0  0  0  0  0  0
   -2.4650   17.7400   -7.1910 O   0  0  0  0  0  0  0  0  0  0  0  0
   -1.4350   18.0960   -4.3880 O   0  0  0  0  0  0  0  0  0  0  0  0
   -1.0620   16.8710   -3.8220 C   0  0  0  0  0  0  0  0  0  0  0  0
   -2.2960   15.9860   -3.7710 C   0  0  0  0  0  0  0  0  0  0  0  0
   -2.3030   14.9170   -2.7280 C   0  0  0  0  0  0  0  0  0  0  0  0
   -3.3280   14.9270   -1.6370 C   0  0  0  0  0  0  0  0  0  0  0  0
   -4.6550   14.6870   -1.7950 N   0  0  0  0  0  0  0  0  0  0  0  0
   -2.9200   15.1840   -0.3240 C   0  0  0  0  0  0  0  0  0  0  0  0
   -5.5200   14.6850   -0.7490 C   0  0  0  0  0  0  0  0  0  0  0  0
   -3.7790   15.1870    0.7470 C   0  0  0  0  0  0  0  0  0  0  0  0
   -6.8520   14.4360   -0.9210 N   0  0  0  0  0  0  0  0  0  0  0  0
   -5.1230   14.9260    0.5480 C   0  0  0  0  0  0  0  0  0  0  0  0
   -6.0140   14.9130    1.6210 C   0  0  0  0  0  0  0  0  0  0  0  0
   -7.7250   14.4170    0.1060 C   0  0  0  0  0  0  0  0  0  0  0  0
   -7.3480   14.6490    1.4100 C   0  0  0  0  0  0  0  0  0  0  0  0
  1  2  1  0
  2  3  1  0
  2  4  1  0
  2  5  1  0
  3  6  1  0
  6  7  1  0
  6  8  1  0
  6  9  1  0
  9 10  1  0
 10 11  1  0
 11 12  1  0
 12 13  1  0
 13 14  2  0
 13 15  1  0
 14 16  1  0
 15 17  2  0
 16 18  2  0
 16 19  1  0
 17 19  1  0
 19 20  2  0
 18 21  1  0
 20 22  1  0
 21 22  2  0
M  CHG  2   4  -1   8  -1
M  END
