5CMS_0_R_γ-5CMS_0_R_δ
     RDKit          3D

 17 19  0  0  0  0  0  0  0  0999 V2000
   -0.2950   12.2210   -3.6030 O   0  0  0  0  0  0  0  0  0  0  0  0
    0.1390   13.5640   -3.5190 C   0  0  2  0  0  0  0  0  0  0  0  0
   -0.7860   14.5760   -2.8020 C   0  0  2  0  0  0  0  0  0  0  0  0
    0.3080   14.1250   -4.9390 C   0  0  2  0  0  0  0  0  0  0  0  0
    1.6220   13.8960   -5.4190 O   0  0  0  0  0  0  0  0  0  0  0  0
   -0.3680   15.8280   -3.4110 O   0  0  0  0  0  0  0  0  0  0  0  0
   -0.1330   15.5910   -4.8150 C   0  0  1  0  0  0  0  0  0  0  0  0
   -0.7880   14.7640   -1.2380 C   0  0  1  0  0  0  0  0  0  0  0  0
   -2.3050   14.2860   -3.0350 C   0  0  0  0  0  0  0  0  0  0  0  0
    0.8020   16.6730   -5.3420 C   0  0  0  0  0  0  0  0  0  0  0  0
   -2.3090   14.9060   -0.9060 C   0  0  1  0  0  0  0  0  0  0  0  0
   -2.9010   13.8730   -1.7280 N   0  0  0  0  0  0  0  0  0  0  0  0
   -0.1250   13.8500   -0.3230 N   0  0  0  0  0  0  0  0  0  0  0  0
   -0.2380   14.3170    1.0580 C   0  0  0  0  0  0  0  0  0  0  0  0
   -2.5560   15.0340    0.6480 C   0  0  1  0  0  0  0  0  0  0  0  0
   -3.8750   14.5980    1.0480 N   0  0  0  0  0  0  0  0  0  0  0  0
   -1.6100   14.3690    1.5100 N   0  0  0  0  0  0  0  0  0  0  0  0
  2  1  1  6
  2  3  1  0
  2  4  1  0
  4  5  1  1
  3  6  1  0
  4  7  1  0
  6  7  1  0
  3  8  1  0
  3  9  1  6
  7 10  1  1
  8 11  1  0
  9 12  1  0
 11 12  1  1
  8 13  1  1
 13 14  1  0
 11 15  1  0
 15 16  1  6
 14 17  1  0
 15 17  1  0
M  END
