5CMS_0_N_δ-5CMS_0_F_δ
     RDKit          3D

 10 11  0  0  0  0  0  0  0  0999 V2000
   -3.8030   15.0040    1.1530 N   0  0  0  0  0  0  0  0  0  0  0  0
   -2.5480   15.3450    0.5280 C   0  0  2  0  0  0  0  0  0  0  0  0
   -2.3920   14.7630   -0.8790 C   0  0  2  0  0  0  0  0  0  0  0  0
   -1.4990   14.8700    1.4060 N   0  0  0  0  0  0  0  0  0  0  0  0
   -1.0140   15.2210   -1.3130 C   0  0  2  0  0  0  0  0  0  0  0  0
   -3.2200   15.2260   -1.9950 N   0  0  0  0  0  0  0  0  0  0  0  0
   -0.1830   15.1830    0.8780 C   0  0  0  0  0  0  0  0  0  0  0  0
   -0.9910   14.7420   -2.6690 N   0  0  0  0  0  0  0  0  0  0  0  0
   -2.3310   15.0860   -3.1540 C   0  0  0  0  0  0  0  0  0  0  0  0
    0.0080   14.6720   -0.4700 N   0  0  0  0  0  0  0  0  0  0  0  0
  2  1  1  1
  2  3  1  0
  2  4  1  0
  3  5  1  0
  3  6  1  6
  4  7  1  0
  5  8  1  6
  6  9  1  0
  8  9  1  0
  5 10  1  0
  7 10  1  0
M  END
