5cms_B_1_B_β-6WOJ_0_A_β
     RDKit          3D

 10  9  0  0  0  0  0  0  0  0999 V2000
   -1.4570   20.6180   -8.9180 O   0  0  0  0  0  0  0  0  0  0  0  0
   -0.4770   19.8810   -7.9090 P   0  0  0  0  0  0  0  0  0  0  0  0
   -1.4100   19.6150   -6.6880 O   0  0  0  0  0  0  0  0  0  0  0  0
    0.7530   20.6840   -7.7120 O   0  0  0  0  0  0  0  0  0  0  0  0
   -0.3030   18.5090   -8.6930 O   0  0  0  0  0  0  0  0  0  0  0  0
   -1.7480   18.1690   -6.1800 P   0  0  0  0  0  0  0  0  0  0  0  0
   -0.3850   17.3880   -6.0510 O   0  0  0  0  0  0  0  0  0  0  0  0
   -2.8400   17.4220   -6.8170 O   0  0  0  0  0  0  0  0  0  0  0  0
   -2.0170   18.4340   -4.6360 O   0  0  0  0  0  0  0  0  0  0  0  0
    0.5540   17.3020   -4.7660 P   0  0  0  0  0  0  0  0  0  0  0  0
  1  2  1  0
  2  3  1  0
  2  4  2  0
  2  5  1  0
  3  6  1  0
  6  7  1  0
  6  8  2  0
  6  9  1  0
  7 10  1  0
M  END
