5CMS_0_G_β-3ew5_B_0_B_α
     RDKit          3D

 19 19  0  0  0  0  0  0  0  0999 V2000
   -2.0660   13.3340   -4.4970 O   0  0  0  0  0  0  0  0  0  0  0  0
   -0.7610   13.6510   -4.0400 C   0  0  2  0  0  0  0  0  0  0  0  0
   -0.7620   14.4400   -2.7310 C   0  0  0  0  0  0  0  0  0  0  0  0
   -0.0260   14.5730   -5.0010 C   0  0  2  0  0  0  0  0  0  0  0  0
    1.3640   14.2010   -4.9200 O   0  0  0  0  0  0  0  0  0  0  0  0
   -0.1280   15.7010   -2.9920 O   0  0  0  0  0  0  0  0  0  0  0  0
   -0.3290   15.9480   -4.3870 C   0  0  1  0  0  0  0  0  0  0  0  0
    0.3900   17.2430   -4.8240 C   0  0  0  0  0  0  0  0  0  0  0  0
    0.0410   17.7830   -6.2070 C   0  0  0  0  0  0  0  0  0  0  0  0
   -0.3690   19.1360   -6.2750 O   0  0  0  0  0  0  0  0  0  0  0  0
   -0.1700   19.8090   -7.7210 P   0  0  2  0  0  0  0  0  0  0  0  0
   -1.4370   20.7850   -7.9350 O   0  0  0  0  0  0  0  0  0  0  0  0
    0.1150   18.8220   -8.7970 O   0  0  0  0  0  0  0  0  0  0  0  0
    1.0350   20.8460   -7.5030 O   0  0  0  0  0  0  0  0  0  0  0  0
   -2.4880   20.8020   -6.9780 C   0  0  0  0  0  0  0  0  0  0  0  0
   -3.4980   21.9340   -7.2360 C   0  0  2  0  0  0  0  0  0  0  0  0
   -4.5860   22.0420   -6.1510 C   0  0  0  0  0  0  0  0  0  0  0  0
   -4.1320   21.8010   -8.5220 O   0  0  0  0  0  0  0  0  0  0  0  0
   -5.8490   21.4700   -6.5070 O   0  0  0  0  0  0  0  0  0  0  0  0
  2  1  1  6
  2  3  1  0
  2  4  1  0
  4  5  1  1
  3  6  1  0
  4  7  1  0
  6  7  1  0
  7  8  1  6
  8  9  1  0
  9 10  1  0
 10 11  1  0
 11 12  1  0
 11 13  2  0
 11 14  1  1
 12 15  1  0
 15 16  1  0
 16 17  1  0
 16 18  1  6
 17 19  1  0
M  END
