5CMS_0_P_δ-3EW5_0_C_α
     RDKit          3D

 24 25  0  0  0  0  0  0  0  0999 V2000
   -3.7590   15.7570    1.3020 N   0  0  0  0  0  0  0  0  0  0  0  0
   -2.7030   14.8250    1.0070 C   0  0  1  0  0  0  0  0  0  0  0  0
   -2.6190   14.4000   -0.4240 C   0  0  2  0  0  0  0  0  0  0  0  0
   -1.4270   15.2290    1.4850 N   0  0  0  0  0  0  0  0  0  0  0  0
   -1.1510   14.3950   -0.8900 C   0  0  2  0  0  0  0  0  0  0  0  0
   -3.0710   15.2270   -1.4870 N   0  0  0  0  0  0  0  0  0  0  0  0
   -0.3360   14.4180    1.2400 C   0  0  0  0  0  0  0  0  0  0  0  0
   -1.4500   13.7790   -2.1170 N   0  0  0  0  0  0  0  0  0  0  0  0
   -2.5810   14.5100   -2.6530 C   0  0  2  0  0  0  0  0  0  0  0  0
   -0.3960   13.6700    0.0410 N   0  0  0  0  0  0  0  0  0  0  0  0
   -1.9300   15.2140   -3.8480 C   0  0  0  0  0  0  0  0  0  0  0  0
   -2.7360   16.1570   -4.6410 C   0  0  0  0  0  0  0  0  0  0  0  0
   -1.9600   16.9430   -5.6990 C   0  0  0  0  0  0  0  0  0  0  0  0
   -1.9000   18.4600   -5.5720 C   0  0  0  0  0  0  0  0  0  0  0  0
   -0.7500   18.9080   -6.1980 O   0  0  0  0  0  0  0  0  0  0  0  0
   -0.7740   19.6140   -7.6510 P   0  0  0  0  0  0  0  0  0  0  0  0
   -1.8480   20.7730   -8.1460 O   0  0  0  0  0  0  0  0  0  0  0  0
    0.3830   20.5720   -7.4770 O   0  0  0  0  0  0  0  0  0  0  0  0
    0.1550   18.8470   -8.8390 O   0  0  0  0  0  0  0  0  0  0  0  0
   -2.3700   21.6670   -7.2600 C   0  0  0  0  0  0  0  0  0  0  0  0
   -3.8290   21.9020   -7.6100 C   0  0  2  0  0  0  0  0  0  0  0  0
   -4.0780   23.1880   -8.3560 C   0  0  0  0  0  0  0  0  0  0  0  0
   -4.6460   21.8770   -6.4950 O   0  0  0  0  0  0  0  0  0  0  0  0
   -4.6680   22.9390   -9.5880 O   0  0  0  0  0  0  0  0  0  0  0  0
  2  1  1  6
  2  3  1  0
  2  4  1  0
  3  5  1  0
  3  6  1  6
  4  7  1  0
  5  8  1  6
  6  9  1  0
  8  9  1  0
  5 10  1  0
  7 10  1  0
  9 11  1  6
 11 12  1  0
 12 13  1  0
 13 14  1  0
 14 15  1  0
 15 16  1  0
 16 17  1  0
 16 18  1  0
 16 19  1  0
 17 20  1  0
 20 21  1  0
 21 22  1  0
 21 23  1  1
 22 24  1  0
M  CHG  1  19  -1
M  END
