5cms_K_10_K_β-5cms_N_13_N_γ
     RDKit          3D

 16 16  0  0  0  0  0  0  0  0999 V2000
   -1.5750   20.3800   -8.4010 O   0  0  0  0  0  0  0  0  0  0  0  0
   -0.2190   19.8280   -7.7920 P   0  0  0  0  0  0  0  0  0  0  0  0
   -0.6160   19.2970   -6.3660 O   0  0  0  0  0  0  0  0  0  0  0  0
    0.8680   20.8270   -7.8010 O   0  0  0  0  0  0  0  0  0  0  0  0
    0.0560   18.5530   -8.7210 O   0  0  0  0  0  0  0  0  0  0  0  0
   -1.4270   17.9830   -6.0980 P   0  0  2  0  0  0  0  0  0  0  0  0
   -0.3070   16.8580   -5.8790 O   0  0  0  0  0  0  0  0  0  0  0  0
   -2.5390   17.6770   -7.0220 O   0  0  0  0  0  0  0  0  0  0  0  0
   -1.9440   18.2870   -4.6320 O   0  0  0  0  0  0  0  0  0  0  0  0
   -0.4540   15.8610   -4.8890 C   0  0  2  0  0  0  0  0  0  0  0  0
    0.4860   16.0640   -3.8410 O   0  0  0  0  0  0  0  0  0  0  0  0
   -0.2650   14.3920   -5.3370 C   0  0  1  0  0  0  0  0  0  0  0  0
    0.8850   14.1140   -6.1390 O   0  0  0  0  0  0  0  0  0  0  0  0
    0.6220   14.8120   -3.1600 C   0  0  0  0  0  0  0  0  0  0  0  0
   -0.0010   13.7090   -4.0150 C   0  0  2  0  0  0  0  0  0  0  0  0
    0.8740   12.6000   -4.1710 O   0  0  0  0  0  0  0  0  0  0  0  0
  1  2  1  0
  2  3  1  0
  2  4  2  0
  2  5  1  0
  3  6  1  0
  6  7  1  0
  6  8  2  0
  6  9  1  1
 10  7  1  6
 10 11  1  0
 10 12  1  0
 12 13  1  6
 11 14  1  0
 12 15  1  0
 14 15  1  0
 15 16  1  6
M  END
