5CMS_0_M_γ-mArh-5cms_E_5_E_γ
     RDKit          3D

  8  8  0  0  0  0  0  0  0  0999 V2000
   -0.8510   12.1800   -4.2800 O   0  0  0  0  0  0  0  0  0  0  0  0
   -1.0530   13.5870   -4.3560 C   0  0  1  0  0  0  0  0  0  0  0  0
   -0.8140   14.2910   -3.0200 C   0  0  0  0  0  0  0  0  0  0  0  0
    0.0340   14.2050   -5.1970 C   0  0  2  0  0  0  0  0  0  0  0  0
    1.2880   13.5850   -4.9390 O   0  0  0  0  0  0  0  0  0  0  0  0
   -0.1450   15.5410   -3.3180 O   0  0  0  0  0  0  0  0  0  0  0  0
   -0.1560   15.6510   -4.7490 C   0  0  1  0  0  0  0  0  0  0  0  0
    0.8230   16.7060   -5.2320 C   0  0  0  0  0  0  0  0  0  0  0  0
  2  1  1  1
  2  3  1  0
  2  4  1  0
  4  5  1  1
  3  6  1  0
  4  7  1  0
  6  7  1  0
  7  8  1  1
M  END
