5CMS_0_I_α-x0380_0_B_α
     RDKit          3D

 26 27  0  0  0  0  0  0  0  0999 V2000
   -1.7880   21.2650   -7.9620 C   0  0  0  0  0  0  0  0  0  0  0  0
   -2.7340   21.7600   -9.0450 C   0  0  1  0  0  0  0  0  0  0  0  0
   -4.1280   21.4690   -8.7940 O   0  0  0  0  0  0  0  0  0  0  0  0
   -2.8990   23.2340   -9.0810 C   0  0  1  0  0  0  0  0  0  0  0  0
   -1.6780   23.9050   -9.1170 O   0  0  0  0  0  0  0  0  0  0  0  0
   -4.8880   22.5330   -9.4660 C   0  0  2  0  0  0  0  0  0  0  0  0
   -3.8600   23.2840  -10.2560 C   0  0  2  0  0  0  0  0  0  0  0  0
   -5.4660   23.5090   -8.6050 O   0  0  0  0  0  0  0  0  0  0  0  0
   -3.6620   22.4230  -11.3850 O   0  0  0  0  0  0  0  0  0  0  0  0
   -6.8270   23.7950   -8.9520 C   0  0  0  0  0  0  0  0  0  0  0  0
   -6.8730   24.5070  -10.3000 C   0  0  0  0  0  0  0  0  0  0  0  0
   -7.5270   25.8930  -10.2700 C   0  0  0  0  0  0  0  0  0  0  0  0
   -6.7600   26.8780  -11.1540 C   0  0  0  0  0  0  0  0  0  0  0  0
   -7.0960   28.3690  -10.9860 C   0  0  0  0  0  0  0  0  0  0  0  0
   -6.9190   29.0470  -12.3050 C   0  0  0  0  0  0  0  0  0  0  0  0
   -5.6490   29.3220  -12.8330 C   0  0  0  0  0  0  0  0  0  0  0  0
   -8.0660   29.3940  -13.0230 C   0  0  0  0  0  0  0  0  0  0  0  0
   -4.4190   28.9620  -12.0690 C   0  0  0  0  0  0  0  0  0  0  0  0
   -7.9570   30.0030  -14.2650 C   0  0  0  0  0  0  0  0  0  0  0  0
   -5.5340   29.9310  -14.0920 C   0  0  0  0  0  0  0  0  0  0  0  0
   -4.2370   30.1710  -14.5840 N   0  0  0  0  0  0  0  0  0  0  0  0
   -6.6940   30.2660  -14.7950 C   0  0  0  0  0  0  0  0  0  0  0  0
   -3.8180   31.1890  -15.4000 C   0  0  0  0  0  0  0  0  0  0  0  0
   -4.4870   32.1540  -15.7430 O   0  0  0  0  0  0  0  0  0  0  0  0
   -2.3850   31.0530  -15.9230 C   0  0  0  0  0  0  0  0  0  0  0  0
   -2.2440   31.4320  -17.3390 N   0  0  0  0  0  0  0  0  0  0  0  0
  2  1  1  1
  2  3  1  0
  2  4  1  0
  4  5  1  6
  3  6  1  0
  4  7  1  0
  6  7  1  0
  6  8  1  1
  7  9  1  6
  8 10  1  0
 10 11  1  0
 11 12  1  0
 12 13  1  0
 13 14  1  0
 14 15  1  0
 15 16  2  0
 15 17  1  0
 16 18  1  0
 17 19  2  0
 16 20  1  0
 20 21  1  0
 19 22  1  0
 20 22  2  0
 21 23  1  0
 23 24  2  0
 23 25  1  0
 25 26  1  0
M  END
