5CMS_0_Q_δ-5cms_F_6_F_γ
     RDKit          3D

 17 19  0  0  0  0  0  0  0  0999 V2000
   -3.9990   15.6300    1.5670 N   0  0  0  0  0  0  0  0  0  0  0  0
   -2.9300   14.9350    0.8680 C   0  0  1  0  0  0  0  0  0  0  0  0
   -2.7120   15.3370   -0.6110 C   0  0  1  0  0  0  0  0  0  0  0  0
   -1.7360   15.2380    1.6230 N   0  0  0  0  0  0  0  0  0  0  0  0
   -1.4990   14.5330   -1.0800 C   0  0  1  0  0  0  0  0  0  0  0  0
   -3.7440   15.0370   -1.6170 N   0  0  0  0  0  0  0  0  0  0  0  0
   -0.5510   14.5520    1.1270 C   0  0  0  0  0  0  0  0  0  0  0  0
   -1.4890   14.7550   -2.6300 C   0  0  1  0  0  0  0  0  0  0  0  0
   -2.9760   15.1160   -2.8950 C   0  0  0  0  0  0  0  0  0  0  0  0
   -0.3490   14.8910   -0.2680 N   0  0  0  0  0  0  0  0  0  0  0  0
   -0.5860   15.8700   -2.9830 O   0  0  0  0  0  0  0  0  0  0  0  0
   -0.9180   13.6370   -3.5550 C   0  0  1  0  0  0  0  0  0  0  0  0
   -1.7660   12.5900   -3.9770 O   0  0  0  0  0  0  0  0  0  0  0  0
   -0.4470   15.8180   -4.4190 C   0  0  2  0  0  0  0  0  0  0  0  0
   -0.3000   14.3400   -4.7690 C   0  0  1  0  0  0  0  0  0  0  0  0
    0.6730   16.7090   -4.9230 C   0  0  0  0  0  0  0  0  0  0  0  0
    1.0370   13.8870   -4.9790 O   0  0  0  0  0  0  0  0  0  0  0  0
  2  1  1  1
  2  3  1  0
  2  4  1  0
  3  5  1  0
  3  6  1  6
  4  7  1  0
  5  8  1  0
  6  9  1  0
  8  9  1  6
  5 10  1  1
  7 10  1  0
  8 11  1  0
  8 12  1  0
 12 13  1  6
 11 14  1  0
 12 15  1  0
 14 15  1  0
 14 16  1  1
 15 17  1  1
M  END
