5CMS_0_P_β-5CB5_0_G_α
     RDKit          3D

 17 17  0  0  0  0  0  0  0  0999 V2000
   -1.7200   21.2310   -8.9330 O   0  0  0  0  0  0  0  0  0  0  0  0
   -0.8760   20.1920   -7.8790 P   0  0  0  0  0  0  0  0  0  0  0  0
   -1.7320   19.4880   -6.6850 O   0  0  0  0  0  0  0  0  0  0  0  0
   -3.0860   21.5830   -8.6700 C   0  0  1  0  0  0  0  0  0  0  0  0
   -0.6200   21.4010   -7.0260 O   0  0  0  0  0  0  0  0  0  0  0  0
   -0.9780   18.9370   -8.7330 O   0  0  0  0  0  0  0  0  0  0  0  0
   -3.5960   21.1390   -7.4790 O   0  0  0  0  0  0  0  0  0  0  0  0
   -3.2900   23.1280   -8.6140 C   0  0  1  0  0  0  0  0  0  0  0  0
   -1.4410   18.1130   -6.0740 P   0  0  0  0  0  0  0  0  0  0  0  0
   -3.8730   23.4750   -9.8250 O   0  0  0  0  0  0  0  0  0  0  0  0
   -4.5180   21.9970   -6.9160 C   0  0  1  0  0  0  0  0  0  0  0  0
   -4.3660   23.3580   -7.5480 C   0  0  2  0  0  0  0  0  0  0  0  0
   -1.0240   16.7220   -5.5750 O   0  0  0  0  0  0  0  0  0  0  0  0
   -2.7570   17.4970   -6.8180 O   0  0  0  0  0  0  0  0  0  0  0  0
   -1.6330   18.7010   -4.5560 O   0  0  0  0  0  0  0  0  0  0  0  0
   -5.8370   21.5530   -6.8540 O   0  0  0  0  0  0  0  0  0  0  0  0
   -5.4780   23.8150   -8.2890 O   0  0  0  0  0  0  0  0  0  0  0  0
  1  2  1  0
  2  3  1  0
  4  1  1  1
  2  5  1  0
  2  6  1  0
  4  7  1  0
  4  8  1  0
  3  9  1  0
  8 10  1  6
  7 11  1  0
  8 12  1  0
 11 12  1  0
  9 13  1  0
  9 14  1  0
  9 15  1  0
 11 16  1  6
 12 17  1  6
M  CHG  2   5  -1  14  -1
M  END
