5CMS_0_D_α-6FX7_0_A_α
     RDKit          3D

 19 19  0  0  0  0  0  0  0  0999 V2000
   -0.6970   16.7920   -5.5610 O   0  0  0  0  0  0  0  0  0  0  0  0
   -1.7710   17.8850   -6.1380 P   0  0  0  0  0  0  0  0  0  0  0  0
   -2.9610   16.9120   -5.9700 O   0  0  0  0  0  0  0  0  0  0  0  0
   -2.3830   18.9730   -5.0550 O   0  0  0  0  0  0  0  0  0  0  0  0
   -0.7520   18.9710   -6.3930 O   0  0  0  0  0  0  0  0  0  0  0  0
   -0.5850   19.5510   -7.8800 P   0  0  0  0  0  0  0  0  0  0  0  0
   -1.3660   20.8670   -8.4110 O   0  0  0  0  0  0  0  0  0  0  0  0
    0.1790   18.5620   -8.9640 O   0  0  0  0  0  0  0  0  0  0  0  0
    0.7040   20.2710   -7.5680 O   0  0  0  0  0  0  0  0  0  0  0  0
   -1.1970   21.9410   -7.6000 C   0  0  0  0  0  0  0  0  0  0  0  0
   -2.3010   22.9710   -7.7530 C   0  0  0  0  0  0  0  0  0  0  0  0
   -3.2890   22.5210   -8.7810 C   0  0  2  0  0  0  0  0  0  0  0  0
   -3.6050   23.4890   -9.7100 O   0  0  0  0  0  0  0  0  0  0  0  0
   -4.6570   22.2570   -8.2030 C   0  0  1  0  0  0  0  0  0  0  0  0
   -4.9380   23.1760   -7.2080 O   0  0  0  0  0  0  0  0  0  0  0  0
   -4.5540   22.8230  -10.4420 C   0  0  1  0  0  0  0  0  0  0  0  0
   -5.5570   22.5110   -9.4060 C   0  0  2  0  0  0  0  0  0  0  0  0
   -4.9900   23.6090  -11.5060 O   0  0  0  0  0  0  0  0  0  0  0  0
   -6.3890   23.6080   -9.1740 O   0  0  0  0  0  0  0  0  0  0  0  0
  1  2  1  0
  2  3  1  0
  2  4  1  0
  2  5  1  0
  5  6  1  0
  6  7  1  0
  6  8  1  0
  6  9  1  0
  7 10  1  0
 10 11  1  0
 12 11  1  1
 12 13  1  0
 12 14  1  0
 14 15  1  1
 13 16  1  0
 14 17  1  0
 16 17  1  0
 16 18  1  6
 17 19  1  1
M  CHG  2   3  -1   8  -1
M  END
