5CMS_0_L_α-5CB5_0_M_γ
     RDKit          3D

 22 23  0  0  0  0  0  0  0  0999 V2000
   -0.9280   21.0820   -7.9530 C   0  0  0  0  0  0  0  0  0  0  0  0
   -1.6640   22.0020   -8.8920 C   0  0  1  0  0  0  0  0  0  0  0  0
   -2.9090   21.4240   -9.3300 O   0  0  0  0  0  0  0  0  0  0  0  0
   -2.0220   23.3990   -8.3680 C   0  0  1  0  0  0  0  0  0  0  0  0
   -1.2200   24.3970   -8.9000 O   0  0  0  0  0  0  0  0  0  0  0  0
   -3.6750   22.1760   -8.4400 C   0  0  1  0  0  0  0  0  0  0  0  0
   -3.4300   23.5740   -8.8770 C   0  0  2  0  0  0  0  0  0  0  0  0
   -5.0000   21.8750   -8.1710 O   0  0  0  0  0  0  0  0  0  0  0  0
   -3.5780   23.8670  -10.2800 O   0  0  0  0  0  0  0  0  0  0  0  0
   -5.1500   21.7890   -6.7360 C   0  0  0  0  0  0  0  0  0  0  0  0
   -3.9330   21.3050   -5.8680 C   0  0  0  0  0  0  0  0  0  0  0  0
   -2.7370   20.5410   -6.5470 C   0  0  0  0  0  0  0  0  0  0  0  0
   -2.3530   19.2100   -5.8410 C   0  0  0  0  0  0  0  0  0  0  0  0
   -0.8800   18.7810   -5.6250 C   0  0  0  0  0  0  0  0  0  0  0  0
   -0.6150   17.2640   -5.7760 C   0  0  0  0  0  0  0  0  0  0  0  0
   -0.0370   16.5020   -4.5460 C   0  0  1  0  0  0  0  0  0  0  0  0
   -1.0350   16.5120   -3.4850 O   0  0  0  0  0  0  0  0  0  0  0  0
    0.3340   14.9930   -4.7010 C   0  0  2  0  0  0  0  0  0  0  0  0
    0.6800   14.5000   -5.9710 O   0  0  0  0  0  0  0  0  0  0  0  0
   -1.1990   15.1690   -2.9950 C   0  0  0  0  0  0  0  0  0  0  0  0
   -0.8870   14.2700   -4.1690 C   0  0  2  0  0  0  0  0  0  0  0  0
   -0.5820   12.9180   -3.8350 O   0  0  0  0  0  0  0  0  0  0  0  0
  2  1  1  1
  2  3  1  0
  2  4  1  0
  4  5  1  6
  3  6  1  0
  4  7  1  0
  6  7  1  0
  6  8  1  6
  7  9  1  6
  8 10  1  0
 10 11  1  0
 11 12  1  0
 12 13  1  0
 13 14  1  0
 14 15  1  0
 16 15  1  6
 16 17  1  0
 16 18  1  0
 18 19  1  6
 17 20  1  0
 18 21  1  0
 20 21  1  0
 21 22  1  1
M  END
