5cms_G_3_G_γ-6WOJ_0_B_γ
     RDKit          3D

 17 19  0  0  0  0  0  0  0  0999 V2000
   -3.8310   15.5270    1.6010 N   0  0  0  0  0  0  0  0  0  0  0  0
   -2.7390   14.8480    0.9190 C   0  0  1  0  0  0  0  0  0  0  0  0
   -2.5370   15.2400   -0.5590 C   0  0  1  0  0  0  0  0  0  0  0  0
   -1.5590   15.2070    1.6580 N   0  0  0  0  0  0  0  0  0  0  0  0
   -1.3010   14.4710   -1.0430 C   0  0  1  0  0  0  0  0  0  0  0  0
   -3.5610   14.9030   -1.5550 N   0  0  0  0  0  0  0  0  0  0  0  0
   -0.3530   14.5560    1.1670 C   0  0  0  0  0  0  0  0  0  0  0  0
   -1.3040   14.7030   -2.5920 C   0  0  1  0  0  0  0  0  0  0  0  0
   -2.8020   15.0520   -2.8310 C   0  0  0  0  0  0  0  0  0  0  0  0
   -0.1600   14.8720   -0.2330 N   0  0  0  0  0  0  0  0  0  0  0  0
   -0.4270   15.8460   -2.8970 O   0  0  0  0  0  0  0  0  0  0  0  0
   -0.7190   13.6130   -3.5620 C   0  0  1  0  0  0  0  0  0  0  0  0
   -1.5920   12.6810   -4.1750 O   0  0  0  0  0  0  0  0  0  0  0  0
   -0.1630   15.8000   -4.3130 C   0  0  2  0  0  0  0  0  0  0  0  0
    0.0870   14.3360   -4.6520 C   0  0  1  0  0  0  0  0  0  0  0  0
    0.9570   16.7360   -4.6970 C   0  0  0  0  0  0  0  0  0  0  0  0
    1.4510   13.9150   -4.6550 O   0  0  0  0  0  0  0  0  0  0  0  0
  2  1  1  1
  2  3  1  0
  2  4  1  0
  3  5  1  0
  3  6  1  6
  4  7  1  0
  5  8  1  0
  6  9  1  0
  8  9  1  6
  5 10  1  1
  7 10  1  0
  8 11  1  0
  8 12  1  0
 12 13  1  6
 11 14  1  0
 12 15  1  0
 14 15  1  0
 14 16  1  1
 15 17  1  1
M  END
