5CMS_0_G_α-6MEA_0_A_γ
     RDKit          3D

 16 16  0  0  0  0  0  0  0  0999 V2000
   -1.1960   16.3960   -5.4220 O   0  0  0  0  0  0  0  0  0  0  0  0
   -1.2530   18.0270   -5.7920 P   0  0  0  0  0  0  0  0  0  0  0  0
   -2.2350   19.0220   -4.9250 O   0  0  0  0  0  0  0  0  0  0  0  0
   -0.0530   15.8680   -4.8190 C   0  0  1  0  0  0  0  0  0  0  0  0
   -2.3310   17.9020   -6.8710 O   0  0  0  0  0  0  0  0  0  0  0  0
   -0.1040   18.7490   -6.7550 O   0  0  0  0  0  0  0  0  0  0  0  0
   -0.1260   15.9260   -3.4570 O   0  0  0  0  0  0  0  0  0  0  0  0
    0.0530   14.3940   -5.1570 C   0  0  1  0  0  0  0  0  0  0  0  0
   -0.3170   19.6740   -7.9560 P   0  0  0  0  0  0  0  0  0  0  0  0
    1.3560   13.9180   -5.0370 O   0  0  0  0  0  0  0  0  0  0  0  0
   -0.7750   14.8130   -2.9790 C   0  0  0  0  0  0  0  0  0  0  0  0
   -0.7060   13.7260   -4.0220 C   0  0  1  0  0  0  0  0  0  0  0  0
   -1.8400   20.1780   -7.5910 O   0  0  0  0  0  0  0  0  0  0  0  0
   -0.0470   18.4550   -8.9310 O   0  0  0  0  0  0  0  0  0  0  0  0
    0.9770   20.6560   -7.5030 O   0  0  0  0  0  0  0  0  0  0  0  0
   -1.9450   13.3010   -4.4600 O   0  0  0  0  0  0  0  0  0  0  0  0
  1  2  1  0
  2  3  1  0
  4  1  1  6
  2  5  1  0
  2  6  1  0
  4  7  1  0
  4  8  1  0
  6  9  1  0
  8 10  1  1
  7 11  1  0
  8 12  1  0
 11 12  1  0
  9 13  1  0
  9 14  1  0
  9 15  1  0
 12 16  1  6
M  CHG  2   3  -1  14  -1
M  END
