5CMS_0_H_δ-6MEA_0_A_γ
     RDKit          3D

 17 19  0  0  0  0  0  0  0  0999 V2000
   -3.8040   15.4940    1.6840 N   0  0  0  0  0  0  0  0  0  0  0  0
   -2.7270   14.8190    0.9850 C   0  0  1  0  0  0  0  0  0  0  0  0
   -2.5500   15.2560   -0.4720 C   0  0  1  0  0  0  0  0  0  0  0  0
   -1.5240   15.1700    1.6840 N   0  0  0  0  0  0  0  0  0  0  0  0
   -1.3930   14.4440   -1.0640 C   0  0  1  0  0  0  0  0  0  0  0  0
   -3.6400   15.0800   -1.4240 N   0  0  0  0  0  0  0  0  0  0  0  0
   -0.3300   14.5310    1.1460 C   0  0  0  0  0  0  0  0  0  0  0  0
   -1.4940   14.8260   -2.5880 C   0  0  1  0  0  0  0  0  0  0  0  0
   -2.9100   15.4280   -2.6590 C   0  0  0  0  0  0  0  0  0  0  0  0
   -0.1960   14.7710   -0.2870 N   0  0  0  0  0  0  0  0  0  0  0  0
   -0.4630   15.8370   -2.8790 O   0  0  0  0  0  0  0  0  0  0  0  0
   -1.3480   13.8120   -3.7710 C   0  0  2  0  0  0  0  0  0  0  0  0
   -1.0770   12.4570   -3.5060 O   0  0  0  0  0  0  0  0  0  0  0  0
   -0.3080   15.8640   -4.3060 C   0  0  2  0  0  0  0  0  0  0  0  0
   -0.3170   14.4090   -4.7370 C   0  0  1  0  0  0  0  0  0  0  0  0
    0.9260   16.6290   -4.7240 C   0  0  0  0  0  0  0  0  0  0  0  0
    0.9380   13.7290   -4.6750 O   0  0  0  0  0  0  0  0  0  0  0  0
  2  1  1  1
  2  3  1  0
  2  4  1  0
  3  5  1  0
  3  6  1  6
  4  7  1  0
  5  8  1  0
  6  9  1  0
  8  9  1  1
  5 10  1  1
  7 10  1  0
  8 11  1  0
  8 12  1  0
 12 13  1  1
 11 14  1  0
 12 15  1  0
 14 15  1  0
 14 16  1  1
 15 17  1  1
M  END
