5CMS_0_M_Î²
     RDKit          3D

  9  8  0  0  0  0  0  0  0  0999 V2000
   -1.8460   20.3900   -8.6010 O   0  0  0  0  0  0  0  0  0  0  0  0
   -0.4990   19.5090   -8.3470 P   0  0  0  0  0  0  0  0  0  0  0  0
   -0.6570   18.6750   -6.9990 O   0  0  0  0  0  0  0  0  0  0  0  0
    0.6930   20.4050   -8.1200 O   0  0  0  0  0  0  0  0  0  0  0  0
   -0.4700   18.4200   -9.3800 O   0  0  0  0  0  0  0  0  0  0  0  0
   -2.0250   17.9480   -6.5220 P   0  0  0  0  0  0  0  0  0  0  0  0
   -1.3400   16.6620   -5.8210 O   0  0  0  0  0  0  0  0  0  0  0  0
   -2.8720   17.6070   -7.7220 O   0  0  0  0  0  0  0  0  0  0  0  0
   -2.6960   18.8170   -5.4500 O   0  0  0  0  0  0  0  0  0  0  0  0
  2  1  1  0
  3  2  1  0
  2  4  1  0
  2  5  1  0
  6  3  1  0
  6  7  1  0
  6  8  1  0
  6  9  1  0
M  CHG  2   4  -1   8  -1
M  END
