5CMS_0_N_δ-6FX7_0_A_β
     RDKit          3D

 21 22  0  0  0  0  0  0  0  0999 V2000
   -3.5850   15.5640    1.0890 N   0  0  0  0  0  0  0  0  0  0  0  0
   -2.2980   15.3610    0.4950 C   0  0  2  0  0  0  0  0  0  0  0  0
   -2.3550   14.4690   -0.7300 C   0  0  2  0  0  0  0  0  0  0  0  0
   -1.3460   14.7990    1.4340 N   0  0  0  0  0  0  0  0  0  0  0  0
   -0.9310   14.2920   -1.2760 C   0  0  1  0  0  0  0  0  0  0  0  0
   -3.0770   15.1130   -1.8050 N   0  0  0  0  0  0  0  0  0  0  0  0
   -0.0380   14.7740    0.8100 C   0  0  0  0  0  0  0  0  0  0  0  0
   -0.9730   14.6180   -2.6760 N   0  0  0  0  0  0  0  0  0  0  0  0
   -2.3170   14.9670   -3.0050 C   0  0  2  0  0  0  0  0  0  0  0  0
   -0.0900   15.2020   -0.5460 N   0  0  0  0  0  0  0  0  0  0  0  0
   -2.2590   16.2080   -3.8460 C   0  0  0  0  0  0  0  0  0  0  0  0
   -1.3310   15.9400   -5.0070 C   0  0  0  0  0  0  0  0  0  0  0  0
   -0.6450   17.0860   -5.3570 O   0  0  0  0  0  0  0  0  0  0  0  0
   -1.5000   18.2340   -6.1430 P   0  0  0  0  0  0  0  0  0  0  0  0
   -0.9780   19.6730   -6.4960 O   0  0  0  0  0  0  0  0  0  0  0  0
   -2.9450   17.6810   -6.7680 O   0  0  0  0  0  0  0  0  0  0  0  0
   -2.2590   18.7060   -4.9800 O   0  0  0  0  0  0  0  0  0  0  0  0
   -0.1600   19.9170   -7.8110 P   0  0  0  0  0  0  0  0  0  0  0  0
   -1.2480   20.6520   -8.5870 O   0  0  0  0  0  0  0  0  0  0  0  0
    0.0550   18.7340   -8.8950 O   0  0  0  0  0  0  0  0  0  0  0  0
    0.7900   21.3290   -7.9070 O   0  0  0  0  0  0  0  0  0  0  0  0
  2  1  1  1
  2  3  1  0
  2  4  1  0
  3  5  1  0
  3  6  1  6
  4  7  1  0
  5  8  1  6
  6  9  1  0
  8  9  1  0
  5 10  1  0
  7 10  1  0
  9 11  1  1
 11 12  1  0
 12 13  1  0
 13 14  1  0
 14 15  1  0
 14 16  1  0
 14 17  1  0
 15 18  1  0
 18 19  1  0
 18 20  1  0
 18 21  1  0
M  CHG  2  16  -1  20  -1
M  END
