5CMS_0_F_γ-mArh-x0969_0_A_α
     RDKit          3D

 20 22  0  0  0  0  0  0  0  0999 V2000
   -0.7720   12.2270   -4.0630 O   0  0  0  0  0  0  0  0  0  0  0  0
   -0.8510   13.6550   -4.0410 C   0  0  1  0  0  0  0  0  0  0  0  0
   -0.1350   14.2700   -2.8300 C   0  0  2  0  0  0  0  0  0  0  0  0
   -0.0310   14.2680   -5.1450 C   0  0  2  0  0  0  0  0  0  0  0  0
    1.2410   13.6410   -5.2300 O   0  0  0  0  0  0  0  0  0  0  0  0
   -1.0510   14.5910   -1.6650 C   0  0  0  0  0  0  0  0  0  0  0  0
    0.3980   15.5470   -3.2840 O   0  0  0  0  0  0  0  0  0  0  0  0
   -0.0480   15.7060   -4.6390 C   0  0  1  0  0  0  0  0  0  0  0  0
    0.7630   16.7740   -5.3570 C   0  0  0  0  0  0  0  0  0  0  0  0
   -2.2010   15.5230   -2.0310 C   0  0  0  0  0  0  0  0  0  0  0  0
   -3.3810   15.3440   -1.1390 C   0  0  0  0  0  0  0  0  0  0  0  0
   -4.6150   15.1140   -1.6300 C   0  0  0  0  0  0  0  0  0  0  0  0
   -3.1380   15.4200    0.2980 C   0  0  0  0  0  0  0  0  0  0  0  0
   -5.6990   14.9220   -0.7400 C   0  0  0  0  0  0  0  0  0  0  0  0
   -4.1600   15.2420    1.1390 C   0  0  0  0  0  0  0  0  0  0  0  0
   -6.9740   14.6740   -0.9300 N   0  0  0  0  0  0  0  0  0  0  0  0
   -5.4270   14.9880    0.6180 N   0  0  0  0  0  0  0  0  0  0  0  0
   -6.6500   14.7540    1.2250 C   0  0  0  0  0  0  0  0  0  0  0  0
   -7.5680   14.5670    0.3070 N   0  0  0  0  0  0  0  0  0  0  0  0
   -6.8200   14.7380    2.5620 N   0  0  0  0  0  0  0  0  0  0  0  0
  2  1  1  1
  2  3  1  0
  2  4  1  0
  4  5  1  1
  3  6  1  1
  3  7  1  0
  4  8  1  0
  7  8  1  0
  8  9  1  6
  6 10  1  0
 10 11  1  0
 11 12  2  0
 11 13  1  0
 12 14  1  0
 13 15  2  0
 14 16  2  0
 14 17  1  0
 15 17  1  0
 17 18  1  0
 16 19  1  0
 18 19  2  0
 18 20  1  0
M  END
