5cms_G_3_G_β-5cms_E_5_E_γ
     RDKit          3D

  8  8  0  0  0  0  0  0  0  0999 V2000
   -0.9230   12.4430   -4.0580 O   0  0  0  0  0  0  0  0  0  0  0  0
   -1.1130   13.8500   -4.0780 C   0  0  1  0  0  0  0  0  0  0  0  0
   -0.6610   14.5240   -2.7860 C   0  0  0  0  0  0  0  0  0  0  0  0
   -0.1460   14.4390   -5.0640 C   0  0  2  0  0  0  0  0  0  0  0  0
    1.0910   13.7450   -5.0300 O   0  0  0  0  0  0  0  0  0  0  0  0
    0.0400   15.7340   -3.1630 O   0  0  0  0  0  0  0  0  0  0  0  0
   -0.1610   15.8820   -4.5750 C   0  0  1  0  0  0  0  0  0  0  0  0
    0.8240   16.8640   -5.1800 C   0  0  0  0  0  0  0  0  0  0  0  0
  2  1  1  1
  2  3  1  0
  2  4  1  0
  4  5  1  1
  3  6  1  0
  4  7  1  0
  6  7  1  0
  7  8  1  6
M  END
