5CMS_0_P_β-6MEA_0_A_δ
     RDKit          3D

 21 22  0  0  0  0  0  0  0  0999 V2000
   -1.1610   21.2840   -7.4740 O   0  0  0  0  0  0  0  0  0  0  0  0
   -0.6730   19.8880   -7.8020 P   0  0  0  0  0  0  0  0  0  0  0  0
   -1.4030   19.3140   -6.3780 O   0  0  0  0  0  0  0  0  0  0  0  0
    0.8530   20.3520   -7.6650 O   0  0  0  0  0  0  0  0  0  0  0  0
   -0.3590   18.4950   -8.3560 O   0  0  0  0  0  0  0  0  0  0  0  0
   -1.6310   17.8150   -6.0740 P   0  0  0  0  0  0  0  0  0  0  0  0
    0.0100   17.5580   -6.5110 O   0  0  0  0  0  0  0  0  0  0  0  0
   -2.7790   17.7790   -7.1480 O   0  0  0  0  0  0  0  0  0  0  0  0
   -1.9190   17.7470   -4.5230 O   0  0  0  0  0  0  0  0  0  0  0  0
   -2.4000   16.4770   -4.2110 C   0  0  0  0  0  0  0  0  0  0  0  0
   -2.1380   16.0510   -2.7830 C   0  0  0  0  0  0  0  0  0  0  0  0
   -2.6420   14.6930   -2.4790 C   0  0  1  0  0  0  0  0  0  0  0  0
   -1.4900   13.9120   -2.0890 N   0  0  0  0  0  0  0  0  0  0  0  0
   -3.4200   14.8450   -1.2320 N   0  0  0  0  0  0  0  0  0  0  0  0
   -1.1970   14.4880   -0.8450 C   0  0  1  0  0  0  0  0  0  0  0  0
   -2.5720   14.3820   -0.1820 C   0  0  1  0  0  0  0  0  0  0  0  0
   -0.2920   13.7370   -0.0530 N   0  0  0  0  0  0  0  0  0  0  0  0
   -2.4760   15.2800    0.9640 C   0  0  1  0  0  0  0  0  0  0  0  0
   -3.7050   15.2830    1.7480 N   0  0  0  0  0  0  0  0  0  0  0  0
   -0.2210   14.3600    1.2570 C   0  0  0  0  0  0  0  0  0  0  0  0
   -1.4820   14.7390    1.8100 N   0  0  0  0  0  0  0  0  0  0  0  0
  1  2  1  0
  2  3  1  0
  2  4  1  0
  2  5  1  0
  3  6  1  0
  6  7  1  0
  6  8  1  0
  6  9  1  0
  9 10  1  0
 10 11  1  0
 12 11  1  1
 12 13  1  0
 12 14  1  0
 15 13  1  6
 16 14  1  6
 15 16  1  0
 15 17  1  0
 16 18  1  0
 18 19  1  1
 17 20  1  0
 18 21  1  0
 20 21  1  0
M  CHG  2   4  -1   8  -1
M  END
