5cms_I_8_I_β-6woj_D_0_D_α
     RDKit          3D

 17 17  0  0  0  0  0  0  0  0999 V2000
   -1.4560   21.4570   -8.2130 O   0  0  0  0  0  0  0  0  0  0  0  0
   -0.7580   20.0800   -7.6940 P   0  0  2  0  0  0  0  0  0  0  0  0
   -1.5820   19.6180   -6.4200 O   0  0  0  0  0  0  0  0  0  0  0  0
   -2.8820   21.7800   -8.1870 C   0  0  1  0  0  0  0  0  0  0  0  0
    0.7090   20.1280   -7.4120 O   0  0  0  0  0  0  0  0  0  0  0  0
   -1.0310   18.9020   -8.7330 O   0  0  0  0  0  0  0  0  0  0  0  0
   -3.6250   21.0400   -7.2010 O   0  0  0  0  0  0  0  0  0  0  0  0
   -3.2490   23.2830   -7.9000 C   0  0  1  0  0  0  0  0  0  0  0  0
   -1.7770   18.0760   -6.1380 P   0  0  0  0  0  0  0  0  0  0  0  0
   -4.0110   23.9040   -8.9630 O   0  0  0  0  0  0  0  0  0  0  0  0
   -4.7490   21.8610   -6.8780 C   0  0  2  0  0  0  0  0  0  0  0  0
   -4.1120   23.2070   -6.6290 C   0  0  2  0  0  0  0  0  0  0  0  0
   -0.3200   17.4500   -6.2080 O   0  0  0  0  0  0  0  0  0  0  0  0
   -2.7950   17.3720   -6.9270 O   0  0  0  0  0  0  0  0  0  0  0  0
   -2.0400   17.9790   -4.5780 O   0  0  0  0  0  0  0  0  0  0  0  0
   -5.3990   21.4260   -5.6910 O   0  0  0  0  0  0  0  0  0  0  0  0
   -5.1310   24.2220   -6.5320 O   0  0  0  0  0  0  0  0  0  0  0  0
  1  2  1  0
  2  3  1  0
  4  1  1  1
  2  5  2  0
  2  6  1  6
  4  7  1  0
  4  8  1  0
  3  9  1  0
  8 10  1  6
  7 11  1  0
  8 12  1  0
 11 12  1  0
  9 13  1  0
  9 14  2  0
  9 15  1  0
 11 16  1  1
 12 17  1  6
M  END
