
     RDKit          3D

 36 39  0  0  0  0  0  0  0  0999 V2000
   -2.1310   17.8300   -6.4740 P   0  0  0  0  0  0  0  0  0  0  0  0
   -0.4920   19.5250   -8.2120 P   0  0  0  0  0  0  0  0  0  0  0  0
    0.0710   16.7070   -5.6410 C   0  0  0  0  0  0  0  0  0  0  0  0
   -1.3290   16.8940   -5.4610 O   0  0  0  0  0  0  0  0  0  0  0  0
    0.6500   15.5600   -4.7930 C   0  0  1  0  0  0  0  0  0  0  0  0
    0.2780   15.6540   -3.4130 O   0  0  0  0  0  0  0  0  0  0  0  0
    0.1960   14.1780   -5.2740 C   0  0  1  0  0  0  0  0  0  0  0  0
    1.3220   13.2760   -5.2160 O   0  0  0  0  0  0  0  0  0  0  0  0
   -0.8950   13.8010   -4.3050 C   0  0  1  0  0  0  0  0  0  0  0  0
   -1.0080   12.3950   -4.2320 O   0  0  0  0  0  0  0  0  0  0  0  0
   -0.3920   14.4560   -3.0090 C   0  0  2  0  0  0  0  0  0  0  0  0
   -2.8700   22.6020  -11.0860 C   0  0  1  0  0  0  0  0  0  0  0  0
   -1.2370   15.2440    2.0670 N   0  0  0  0  0  0  0  0  0  0  0  0
   -2.4520   17.0940   -7.7260 O   0  0  0  0  0  0  0  0  0  0  0  0
    0.9140   19.8180   -7.7150 O   0  0  0  0  0  0  0  0  0  0  0  0
   -3.4550   21.8190  -10.0660 O   0  0  0  0  0  0  0  0  0  0  0  0
   -0.0700   15.0210    1.3970 C   0  0  0  0  0  0  0  0  0  0  0  0
   -2.5910   23.9870  -10.5370 C   0  0  2  0  0  0  0  0  0  0  0  0
   -3.2750   18.3360   -5.6760 O   0  0  0  0  0  0  0  0  0  0  0  0
   -0.6530   18.3690   -9.1710 O   0  0  0  0  0  0  0  0  0  0  0  0
   -3.2250   24.9610  -11.3810 O   0  0  0  0  0  0  0  0  0  0  0  0
   -1.0600   24.1230  -10.4820 C   0  0  2  0  0  0  0  0  0  0  0  0
   -0.0170   14.8390    0.0510 N   0  0  0  0  0  0  0  0  0  0  0  0
   -1.2650   19.1510   -6.8320 O   0  0  0  0  0  0  0  0  0  0  0  0
   -0.5140   24.9510  -11.5120 O   0  0  0  0  0  0  0  0  0  0  0  0
   -1.1690   14.8870   -0.6860 C   0  0  0  0  0  0  0  0  0  0  0  0
   -0.5580   22.6970  -10.6380 C   0  0  2  0  0  0  0  0  0  0  0  0
   -1.5940   22.0530  -11.4130 O   0  0  0  0  0  0  0  0  0  0  0  0
   -2.4700   15.1280   -0.0190 C   0  0  0  0  0  0  0  0  0  0  0  0
   -0.2480   22.0260   -9.2700 C   0  0  0  0  0  0  0  0  0  0  0  0
   -1.1150   20.9350   -8.8380 O   0  0  0  0  0  0  0  0  0  0  0  0
   -2.4500   15.3140    1.4350 C   0  0  0  0  0  0  0  0  0  0  0  0
   -3.6120   15.5530    2.0850 N   0  0  0  0  0  0  0  0  0  0  0  0
   -3.4160   15.1250   -0.9500 N   0  0  0  0  0  0  0  0  0  0  0  0
   -2.7910   14.8970   -2.1360 C   0  0  0  0  0  0  0  0  0  0  0  0
   -1.4450   14.7520   -1.9840 N   0  0  0  0  0  0  0  0  0  0  0  0
  1  4  1  0
  1 14  1  0
  1 19  1  0
  1 24  1  0
  4  3  1  0
 24  2  1  0
  2 15  1  0
  2 20  1  0
  2 31  1  0
 31 30  1  0
  5  3  1  6
  5  6  1  0
  5  7  1  0
  6 11  1  0
  7  8  1  1
  7  9  1  0
 11  9  1  0
 11 36  1  1
  9 10  1  1
 36 26  1  0
 36 35  1  0
 12 16  1  1
 12 18  1  0
 12 28  1  0
 18 21  1  6
 18 22  1  0
 28 27  1  0
 13 17  1  0
 13 32  1  0
 17 23  1  0
 32 29  1  0
 32 33  1  0
 23 26  1  0
 22 25  1  6
 22 27  1  0
 27 30  1  1
 26 29  1  0
 29 34  1  0
 34 35  1  0
M  CHG  2  14  -1  15  -1
M  END
