5cms_H_7_H_γ-5CMS_0_G_γ
     RDKit          3D

 17 19  0  0  0  0  0  0  0  0999 V2000
   -1.5250   12.6720   -3.6190 O   0  0  0  0  0  0  0  0  0  0  0  0
   -0.6490   13.7670   -3.3800 C   0  0  2  0  0  0  0  0  0  0  0  0
   -1.2520   14.9720   -2.6140 C   0  0  2  0  0  0  0  0  0  0  0  0
   -0.1580   14.3180   -4.7270 C   0  0  2  0  0  0  0  0  0  0  0  0
    1.1930   13.9510   -4.9700 O   0  0  0  0  0  0  0  0  0  0  0  0
   -0.6240   16.1210   -3.2400 O   0  0  0  0  0  0  0  0  0  0  0  0
   -0.4480   15.8220   -4.6380 C   0  0  1  0  0  0  0  0  0  0  0  0
   -1.0780   15.1570   -1.0670 C   0  0  1  0  0  0  0  0  0  0  0  0
   -2.8130   14.9850   -2.7310 C   0  0  0  0  0  0  0  0  0  0  0  0
    0.5900   16.7740   -5.2120 C   0  0  0  0  0  0  0  0  0  0  0  0
   -2.5160   15.5010   -0.5950 C   0  0  1  0  0  0  0  0  0  0  0  0
   -3.3840   14.6560   -1.3970 N   0  0  0  0  0  0  0  0  0  0  0  0
   -0.4030   14.1300   -0.2600 N   0  0  0  0  0  0  0  0  0  0  0  0
   -0.4420   14.4370    1.1560 C   0  0  0  0  0  0  0  0  0  0  0  0
   -2.5890   15.4910    0.9460 C   0  0  1  0  0  0  0  0  0  0  0  0
   -3.9350   15.4600    1.4980 N   0  0  0  0  0  0  0  0  0  0  0  0
   -1.8140   14.4750    1.5950 N   0  0  0  0  0  0  0  0  0  0  0  0
  2  1  1  6
  2  3  1  0
  2  4  1  0
  4  5  1  1
  3  6  1  0
  4  7  1  0
  6  7  1  0
  3  8  1  0
  3  9  1  1
  7 10  1  1
  8 11  1  0
  9 12  1  0
 11 12  1  6
  8 13  1  1
 13 14  1  0
 11 15  1  0
 15 16  1  6
 14 17  1  0
 15 17  1  0
M  END
