5cms_G_3_G_γ-5CB5_0_F_β
     RDKit          3D

 21 22  0  0  0  0  0  0  0  0999 V2000
   -3.9780   15.4030    1.8330 N   0  0  0  0  0  0  0  0  0  0  0  0
   -2.7930   15.4430    1.0550 C   0  0  2  0  0  0  0  0  0  0  0  0
   -2.8280   14.8230   -0.2690 C   0  0  2  0  0  0  0  0  0  0  0  0
   -1.6950   14.7720    1.7360 N   0  0  0  0  0  0  0  0  0  0  0  0
   -1.4930   15.2740   -0.9010 C   0  0  2  0  0  0  0  0  0  0  0  0
   -3.7790   15.3210   -1.1900 N   0  0  0  0  0  0  0  0  0  0  0  0
   -0.4430   14.8830    1.0840 C   0  0  0  0  0  0  0  0  0  0  0  0
   -1.7380   15.1930   -2.2490 N   0  0  0  0  0  0  0  0  0  0  0  0
   -3.1350   15.0200   -2.4950 C   0  0  0  0  0  0  0  0  0  0  0  0
   -0.5060   14.4320   -0.3070 N   0  0  0  0  0  0  0  0  0  0  0  0
   -0.9030   15.8310   -3.1960 C   0  0  0  0  0  0  0  0  0  0  0  0
   -1.7120   16.1730   -4.4700 C   0  0  0  0  0  0  0  0  0  0  0  0
   -0.9500   16.8820   -5.3610 O   0  0  0  0  0  0  0  0  0  0  0  0
   -1.6820   18.3050   -5.8680 P   0  0  0  0  0  0  0  0  0  0  0  0
   -1.5770   18.8690   -7.2960 O   0  0  0  0  0  0  0  0  0  0  0  0
   -2.8380   17.4540   -6.4010 O   0  0  0  0  0  0  0  0  0  0  0  0
   -2.4660   19.2040   -4.8110 O   0  0  0  0  0  0  0  0  0  0  0  0
   -0.3460   19.5000   -7.9520 P   0  0  0  0  0  0  0  0  0  0  0  0
   -1.1120   20.0630   -9.0880 O   0  0  0  0  0  0  0  0  0  0  0  0
    0.3980   18.5110   -9.0220 O   0  0  0  0  0  0  0  0  0  0  0  0
    0.4340   20.9310   -7.5760 O   0  0  0  0  0  0  0  0  0  0  0  0
  2  1  1  1
  2  3  1  0
  2  4  1  0
  3  5  1  0
  3  6  1  6
  4  7  1  0
  5  8  1  0
  6  9  1  0
  8  9  1  0
  5 10  1  6
  7 10  1  0
  8 11  1  0
 11 12  1  0
 12 13  1  0
 13 14  1  0
 14 15  1  0
 14 16  1  0
 14 17  1  0
 15 18  1  0
 18 19  1  0
 18 20  1  0
 18 21  1  0
M  CHG  2  16  -1  20  -1
M  END
