5cms_O_14_O_β-3VFQ_0_A_δ
     RDKit          3D

 23 24  0  0  0  0  0  0  0  0999 V2000
   -1.3610   20.8480   -8.6040 O   0  0  0  0  0  0  0  0  0  0  0  0
   -0.4250   19.9060   -7.7300 P   0  0  0  0  0  0  0  0  0  0  0  0
   -1.2640   19.5040   -6.4350 O   0  0  0  0  0  0  0  0  0  0  0  0
    0.9400   20.4320   -7.5240 O   0  0  0  0  0  0  0  0  0  0  0  0
   -0.3770   18.6020   -8.6620 O   0  0  0  0  0  0  0  0  0  0  0  0
   -1.7150   18.0300   -6.0910 P   0  0  2  0  0  0  0  0  0  0  0  0
   -0.3380   17.2320   -6.0210 O   0  0  0  0  0  0  0  0  0  0  0  0
   -2.6250   17.3780   -7.0360 O   0  0  0  0  0  0  0  0  0  0  0  0
   -2.1680   17.7940   -4.5920 O   0  0  0  0  0  0  0  0  0  0  0  0
   -2.4700   16.4280   -4.2930 C   0  0  0  0  0  0  0  0  0  0  0  0
   -1.6980   15.8990   -3.0930 C   0  0  0  0  0  0  0  0  0  0  0  0
   -2.6180   15.5030   -1.9260 C   0  0  0  0  0  0  0  0  0  0  0  0
   -3.9990   14.9470   -2.3470 C   0  0  0  0  0  0  0  0  0  0  0  0
   -4.7690   14.3630   -1.2370 N   0  0  0  0  0  0  0  0  0  0  0  0
   -4.2660   14.7550    0.0580 C   0  0  1  0  0  0  0  0  0  0  0  0
   -6.1280   14.9100   -1.1180 C   0  0  0  0  0  0  0  0  0  0  0  0
   -5.3780   14.4500    1.0120 C   0  0  2  0  0  0  0  0  0  0  0  0
   -6.6250   14.6260    0.2380 N   0  0  0  0  0  0  0  0  0  0  0  0
   -3.0280   14.1690    0.4860 N   0  0  0  0  0  0  0  0  0  0  0  0
   -2.9610   14.1410    1.9270 C   0  0  0  0  0  0  0  0  0  0  0  0
   -4.9820   15.4340    2.0780 C   0  0  1  0  0  0  0  0  0  0  0  0
   -5.8910   15.4430    3.2060 N   0  0  0  0  0  0  0  0  0  0  0  0
   -3.6450   15.2510    2.5330 N   0  0  0  0  0  0  0  0  0  0  0  0
  1  2  1  0
  2  3  1  0
  2  4  2  0
  2  5  1  0
  3  6  1  0
  6  7  1  1
  6  8  2  0
  6  9  1  0
  9 10  1  0
 10 11  1  0
 11 12  1  0
 12 13  1  0
 13 14  1  0
 14 15  1  0
 14 16  1  0
 15 17  1  0
 16 18  1  0
 17 18  1  6
 15 19  1  1
 19 20  1  0
 17 21  1  0
 21 22  1  1
 20 23  1  0
 21 23  1  0
M  END
