5CMS_0_P_Î±
     RDKit          3D

  9  9  0  0  0  0  0  0  0  0999 V2000
   -2.0640   21.1240   -9.1110 C   0  0  0  0  0  0  0  0  0  0  0  0
   -1.8980   21.8940  -10.4030 C   0  0  1  0  0  0  0  0  0  0  0  0
   -3.1490   22.2080  -11.0260 O   0  0  0  0  0  0  0  0  0  0  0  0
   -1.0840   23.1880  -10.1790 C   0  0  2  0  0  0  0  0  0  0  0  0
   -3.1100   23.5550  -11.5090 C   0  0  2  0  0  0  0  0  0  0  0  0
   -1.7820   24.2220  -11.0730 C   0  0  2  0  0  0  0  0  0  0  0  0
    0.3380   23.0710  -10.4270 O   0  0  0  0  0  0  0  0  0  0  0  0
   -4.2220   24.2510  -10.9260 O   0  0  0  0  0  0  0  0  0  0  0  0
   -0.9630   24.6940  -12.1670 O   0  0  0  0  0  0  0  0  0  0  0  0
  2  1  1  1
  3  2  1  0
  4  2  1  0
  5  3  1  0
  6  4  1  0
  4  7  1  6
  5  8  1  1
  5  6  1  0
  6  9  1  6
M  END
