5CMS_0_C_δ-5L9K_0_A_β
     RDKit          3D

 21 22  0  0  0  0  0  0  0  0999 V2000
   -3.8420   15.4880    1.6340 N   0  0  0  0  0  0  0  0  0  0  0  0
   -2.7180   14.8090    0.9800 C   0  0  1  0  0  0  0  0  0  0  0  0
   -2.5870   15.3720   -0.3770 C   0  0  1  0  0  0  0  0  0  0  0  0
   -1.5210   15.1880    1.6530 N   0  0  0  0  0  0  0  0  0  0  0  0
   -1.2410   15.0890   -0.9550 C   0  0  2  0  0  0  0  0  0  0  0  0
   -3.5150   14.8630   -1.3240 N   0  0  0  0  0  0  0  0  0  0  0  0
   -0.3070   14.6210    1.1650 C   0  0  0  0  0  0  0  0  0  0  0  0
   -1.4100   14.6070   -2.2500 N   0  0  0  0  0  0  0  0  0  0  0  0
   -2.8160   14.6030   -2.5860 C   0  0  2  0  0  0  0  0  0  0  0  0
   -0.5980   14.0490   -0.1390 N   0  0  0  0  0  0  0  0  0  0  0  0
   -3.1790   15.6200   -3.6250 C   0  0  0  0  0  0  0  0  0  0  0  0
   -2.0250   16.3500   -4.2660 C   0  0  0  0  0  0  0  0  0  0  0  0
   -2.2210   17.7120   -4.3500 O   0  0  0  0  0  0  0  0  0  0  0  0
   -1.9460   18.2330   -5.9110 P   0  0  0  0  0  0  0  0  0  0  0  0
   -1.3620   19.6190   -6.2870 O   0  0  0  0  0  0  0  0  0  0  0  0
   -0.8070   17.3390   -6.1030 O   0  0  0  0  0  0  0  0  0  0  0  0
   -2.9400   17.3400   -6.9720 O   0  0  0  0  0  0  0  0  0  0  0  0
   -0.9730   20.2390   -7.7010 P   0  0  0  0  0  0  0  0  0  0  0  0
   -2.0270   20.8340   -8.7760 O   0  0  0  0  0  0  0  0  0  0  0  0
   -0.7270   18.9080   -8.4210 O   0  0  0  0  0  0  0  0  0  0  0  0
    0.6490   20.5540   -7.9350 O   0  0  0  0  0  0  0  0  0  0  0  0
  2  1  1  1
  2  3  1  0
  2  4  1  0
  3  5  1  0
  3  6  1  6
  4  7  1  0
  5  8  1  6
  6  9  1  0
  8  9  1  0
  5 10  1  0
  7 10  1  0
  9 11  1  6
 11 12  1  0
 12 13  1  0
 13 14  1  0
 14 15  1  0
 14 16  1  0
 14 17  1  0
 15 18  1  0
 18 19  1  0
 18 20  1  0
 18 21  1  0
M  CHG  1  20  -1
M  END
