5cms_H_7_H_β-3ew5_A_0_A_α
     RDKit          3D

 15 14  0  0  0  0  0  0  0  0999 V2000
   -1.3330   21.1800   -7.8510 O   0  0  0  0  0  0  0  0  0  0  0  0
   -0.4460   19.7740   -7.6980 P   0  0  0  0  0  0  0  0  0  0  0  0
   -1.7160   18.8450   -7.5000 O   0  0  0  0  0  0  0  0  0  0  0  0
   -2.6890   21.1180   -7.8830 C   0  0  0  0  0  0  0  0  0  0  0  0
    0.0580   19.2920   -6.3740 O   0  0  0  0  0  0  0  0  0  0  0  0
    0.0370   18.8000   -9.0000 O   0  0  0  0  0  0  0  0  0  0  0  0
    0.7360   20.5150   -7.8010 O   0  0  0  0  0  0  0  0  0  0  0  0
   -3.4810   22.2140   -7.2260 C   0  0  2  0  0  0  0  0  0  0  0  0
   -1.8930   17.9260   -6.1270 P   0  0  0  0  0  0  0  0  0  0  0  0
   -4.8370   22.3650   -7.8630 C   0  0  0  0  0  0  0  0  0  0  0  0
   -2.8400   23.4470   -7.1110 O   0  0  0  0  0  0  0  0  0  0  0  0
   -0.5660   16.9710   -5.7830 O   0  0  0  0  0  0  0  0  0  0  0  0
   -3.0540   17.0040   -6.3660 O   0  0  0  0  0  0  0  0  0  0  0  0
   -2.1040   18.9600   -4.8240 O   0  0  0  0  0  0  0  0  0  0  0  0
   -5.8490   22.0360   -6.9540 O   0  0  0  0  0  0  0  0  0  0  0  0
  1  2  1  0
  2  3  1  0
  1  4  1  0
  2  5  2  0
  2  6  1  0
  2  7  2  0
  4  8  1  0
  3  9  1  0
  8 10  1  0
  8 11  1  6
  9 12  1  0
  9 13  2  0
  9 14  1  0
 10 15  1  0
M  END
