5cms_O_14_O_α-3Q6Z_0_A_δ
     RDKit          3D

 26 28  0  0  0  0  0  0  0  0999 V2000
    0.7430   22.8020   -9.7290 C   0  0  0  0  0  0  0  0  0  0  0  0
   -0.7400   23.0250   -9.9570 C   0  0  2  0  0  0  0  0  0  0  0  0
   -1.3550   22.1090  -10.8600 O   0  0  0  0  0  0  0  0  0  0  0  0
   -1.1330   24.3930  -10.4800 C   0  0  1  0  0  0  0  0  0  0  0  0
   -0.2700   24.9170  -11.4810 O   0  0  0  0  0  0  0  0  0  0  0  0
   -2.6780   22.6370  -10.9110 C   0  0  2  0  0  0  0  0  0  0  0  0
   -2.5460   24.1400  -11.0590 C   0  0  2  0  0  0  0  0  0  0  0  0
   -3.2630   22.5860   -9.5970 O   0  0  0  0  0  0  0  0  0  0  0  0
   -2.7020   24.6910  -12.3700 O   0  0  0  0  0  0  0  0  0  0  0  0
   -2.9070   21.4360   -8.8710 C   0  0  0  0  0  0  0  0  0  0  0  0
   -2.1520   21.6430   -7.5610 C   0  0  0  0  0  0  0  0  0  0  0  0
   -1.4700   20.3160   -7.1820 C   0  0  0  0  0  0  0  0  0  0  0  0
   -2.2060   19.4380   -6.1450 C   0  0  0  0  0  0  0  0  0  0  0  0
   -2.1850   17.9120   -6.4010 C   0  0  0  0  0  0  0  0  0  0  0  0
   -2.0000   16.9450   -5.2080 C   0  0  0  0  0  0  0  0  0  0  0  0
   -2.9220   15.6940   -5.0310 C   0  0  0  0  0  0  0  0  0  0  0  0
   -3.3660   15.4130   -3.5690 C   0  0  2  0  0  0  0  0  0  0  0  0
   -2.3720   14.7390   -2.7370 N   0  0  0  0  0  0  0  0  0  0  0  0
   -4.5880   14.6420   -3.3010 N   0  0  0  0  0  0  0  0  0  0  0  0
   -3.1520   14.2890   -1.5820 C   0  0  2  0  0  0  0  0  0  0  0  0
   -4.5080   14.8860   -1.8450 C   0  0  2  0  0  0  0  0  0  0  0  0
   -2.6210   14.6850   -0.3010 N   0  0  0  0  0  0  0  0  0  0  0  0
   -5.4200   14.2790   -0.7790 C   0  0  2  0  0  0  0  0  0  0  0  0
   -6.7550   14.8510   -0.7300 N   0  0  0  0  0  0  0  0  0  0  0  0
   -3.4980   14.1980    0.7760 C   0  0  0  0  0  0  0  0  0  0  0  0
   -4.9000   14.5910    0.5450 N   0  0  0  0  0  0  0  0  0  0  0  0
  2  1  1  6
  2  3  1  0
  2  4  1  0
  4  5  1  6
  3  6  1  0
  4  7  1  0
  6  7  1  0
  6  8  1  1
  7  9  1  6
  8 10  1  0
 10 11  1  0
 11 12  1  0
 12 13  1  0
 13 14  1  0
 14 15  1  0
 15 16  1  0
 17 16  1  6
 17 18  1  0
 17 19  1  0
 20 18  1  6
 21 19  1  6
 20 21  1  0
 20 22  1  0
 21 23  1  0
 23 24  1  1
 22 25  1  0
 23 26  1  0
 25 26  1  0
M  END
