5cms_C_2_C_γ-6ywk_E_2_E_α
     RDKit          3D

 24 25  0  0  0  0  0  0  0  0999 V2000
   -1.0670   12.4860   -4.3220 O   0  0  0  0  0  0  0  0  0  0  0  0
   -0.2190   13.3920   -3.6290 C   0  0  2  0  0  0  0  0  0  0  0  0
   -1.0050   14.5460   -3.0420 C   0  0  0  0  0  0  0  0  0  0  0  0
    0.7310   14.0900   -4.5930 C   0  0  1  0  0  0  0  0  0  0  0  0
    0.4550   13.7710   -5.9390 O   0  0  0  0  0  0  0  0  0  0  0  0
   -0.1170   15.6760   -3.0410 O   0  0  0  0  0  0  0  0  0  0  0  0
    0.6860   15.5990   -4.2280 C   0  0  2  0  0  0  0  0  0  0  0  0
    0.0860   16.4810   -5.3110 C   0  0  0  0  0  0  0  0  0  0  0  0
    0.7510   17.8330   -5.6430 C   0  0  0  0  0  0  0  0  0  0  0  0
   -0.2130   18.6060   -6.4870 N   0  0  0  0  0  0  0  0  0  0  0  0
    0.0930   19.7730   -7.4490 S   0  0  1  0  0  0  0  0  0  0  0  0
    1.2160   20.6930   -7.4920 O   0  0  0  0  0  0  0  0  0  0  0  0
    0.2320   18.7430   -8.6810 O   0  0  0  0  0  0  0  0  0  0  0  0
   -1.4330   20.5150   -8.0030 C   0  0  0  0  0  0  0  0  0  0  0  0
   -1.6660   21.8990   -7.4380 C   0  0  0  0  0  0  0  0  0  0  0  0
   -2.6910   22.7290   -8.1310 N   0  0  0  0  0  0  0  0  0  0  0  0
   -3.2500   23.7490   -7.2360 C   0  0  0  0  0  0  0  0  0  0  0  0
   -3.8110   22.0080   -8.7440 C   0  0  0  0  0  0  0  0  0  0  0  0
   -4.3690   23.2870   -6.2720 C   0  0  0  0  0  0  0  0  0  0  0  0
   -4.9400   21.5650   -7.7750 C   0  0  0  0  0  0  0  0  0  0  0  0
   -5.4940   22.7060   -7.0140 N   0  0  0  0  0  0  0  0  0  0  0  0
   -5.9580   23.7330   -7.9580 C   0  0  0  0  0  0  0  0  0  0  0  0
   -6.3650   23.2180   -9.3420 C   0  0  0  0  0  0  0  0  0  0  0  0
   -7.6740   22.6520   -9.3090 O   0  0  0  0  0  0  0  0  0  0  0  0
  2  1  1  6
  2  3  1  0
  2  4  1  0
  4  5  1  6
  3  6  1  0
  4  7  1  0
  6  7  1  0
  7  8  1  6
  8  9  1  0
  9 10  1  0
 10 11  2  0
 11 12  2  0
 11 13  1  6
 11 14  1  0
 14 15  1  0
 15 16  1  0
 16 17  1  0
 16 18  1  0
 17 19  1  0
 18 20  1  0
 19 21  1  0
 20 21  1  0
 21 22  1  0
 22 23  1  0
 23 24  1  0
M  END
