5CMS_0_Q_α-mArh-5cms_F_6_F_β
     RDKit          3D

 17 17  0  0  0  0  0  0  0  0999 V2000
   -1.2950   21.4390   -8.1140 C   0  0  0  0  0  0  0  0  0  0  0  0
   -0.7370   19.8260   -7.9050 P   0  0  0  0  0  0  0  0  0  0  0  0
   -0.5880   18.5660   -7.0390 O   0  0  0  0  0  0  0  0  0  0  0  0
   -1.0670   22.0590   -9.4320 C   0  0  1  0  0  0  0  0  0  0  0  0
   -1.2620   19.5670   -6.4790 O   0  0  0  0  0  0  0  0  0  0  0  0
    0.0440   18.8640   -8.9000 O   0  0  0  0  0  0  0  0  0  0  0  0
   -2.2180   21.5640  -10.1120 O   0  0  0  0  0  0  0  0  0  0  0  0
   -0.9780   23.5560   -9.6700 C   0  0  1  0  0  0  0  0  0  0  0  0
    0.2920   23.8970  -10.2200 O   0  0  0  0  0  0  0  0  0  0  0  0
   -1.7360   18.1310   -6.0280 P   0  0  0  0  0  0  0  0  0  0  0  0
   -2.4460   22.4400  -11.1840 C   0  0  2  0  0  0  0  0  0  0  0  0
   -2.1120   23.8260  -10.6710 C   0  0  2  0  0  0  0  0  0  0  0  0
   -3.8380   22.3760  -11.5120 O   0  0  0  0  0  0  0  0  0  0  0  0
   -1.6920   24.6840  -11.7500 O   0  0  0  0  0  0  0  0  0  0  0  0
   -0.4270   17.2200   -6.0210 O   0  0  0  0  0  0  0  0  0  0  0  0
   -2.8290   17.5230   -6.8160 O   0  0  0  0  0  0  0  0  0  0  0  0
   -1.9900   18.2370   -4.5010 O   0  0  0  0  0  0  0  0  0  0  0  0
  1  2  2  3
  2  3  1  0
  4  1  1  1
  2  5  1  0
  2  6  1  0
  4  7  1  0
  4  8  1  0
  8  9  1  6
  5 10  1  0
  7 11  1  0
  8 12  1  0
 11 12  1  0
 11 13  1  1
 12 14  1  6
 10 15  1  0
 10 16  2  0
 10 17  1  0
M  END
