5cms_C_2_C_α-6mea_B_0_B_γ
     RDKit          3D

 24 25  0  0  0  0  0  0  0  0999 V2000
   -2.8660   21.2350   -7.3580 C   0  0  0  0  0  0  0  0  0  0  0  0
   -3.1780   22.5020   -8.1140 C   0  0  2  0  0  0  0  0  0  0  0  0
   -4.5270   22.5910   -8.5280 O   0  0  0  0  0  0  0  0  0  0  0  0
   -2.4390   22.7060   -9.4050 C   0  0  1  0  0  0  0  0  0  0  0  0
   -2.2790   21.4400   -9.9070 O   0  0  0  0  0  0  0  0  0  0  0  0
   -4.3210   23.8420   -9.0890 C   0  0  1  0  0  0  0  0  0  0  0  0
   -3.3860   23.5820  -10.1890 C   0  0  2  0  0  0  0  0  0  0  0  0
   -5.4250   24.5260   -9.5540 O   0  0  0  0  0  0  0  0  0  0  0  0
   -3.9860   22.9930  -11.3290 O   0  0  0  0  0  0  0  0  0  0  0  0
   -1.7100   20.7890   -8.7980 C   0  0  0  0  0  0  0  0  0  0  0  0
   -0.7170   21.6610   -8.0620 C   0  0  0  0  0  0  0  0  0  0  0  0
    0.5060   20.8250   -7.9990 C   0  0  0  0  0  0  0  0  0  0  0  0
    0.1600   19.3290   -8.0370 C   0  0  0  0  0  0  0  0  0  0  0  0
    0.4290   18.6260   -6.7340 C   0  0  0  0  0  0  0  0  0  0  0  0
   -0.8830   18.2520   -6.0610 C   0  0  0  0  0  0  0  0  0  0  0  0
   -0.6050   17.5460   -4.7590 C   0  0  0  0  0  0  0  0  0  0  0  0
    0.7630   16.8820   -4.8050 C   0  0  0  0  0  0  0  0  0  0  0  0
    0.8450   15.5040   -4.1460 C   0  0  1  0  0  0  0  0  0  0  0  0
    0.1490   15.5670   -2.8870 O   0  0  0  0  0  0  0  0  0  0  0  0
    0.2510   14.3390   -4.9510 C   0  0  1  0  0  0  0  0  0  0  0  0
    1.2600   13.4510   -5.4230 O   0  0  0  0  0  0  0  0  0  0  0  0
   -1.0150   14.7490   -2.9880 C   0  0  0  0  0  0  0  0  0  0  0  0
   -0.6790   13.6460   -3.9640 C   0  0  1  0  0  0  0  0  0  0  0  0
   -1.8120   13.0810   -4.5920 O   0  0  0  0  0  0  0  0  0  0  0  0
  2  1  1  6
  2  3  1  0
  2  4  1  0
  4  5  1  6
  3  6  1  0
  4  7  1  0
  6  7  1  0
  6  8  1  6
  7  9  1  6
  5 10  1  0
 10 11  1  0
 11 12  1  0
 12 13  1  0
 13 14  1  0
 14 15  1  0
 15 16  1  0
 16 17  1  0
 18 17  1  6
 18 19  1  0
 18 20  1  0
 20 21  1  1
 19 22  1  0
 20 23  1  0
 22 23  1  0
 23 24  1  6
M  END
