5CMS_0_L_Î±
     RDKit          3D

  9  9  0  0  0  0  0  0  0  0999 V2000
   -1.1080   21.4150   -8.8590 C   0  0  0  0  0  0  0  0  0  0  0  0
   -1.7440   21.8440  -10.1720 C   0  0  1  0  0  0  0  0  0  0  0  0
   -3.1580   21.5450  -10.1790 O   0  0  0  0  0  0  0  0  0  0  0  0
   -1.4990   23.3150  -10.4580 C   0  0  2  0  0  0  0  0  0  0  0  0
   -3.9060   22.7510  -10.0890 C   0  0  2  0  0  0  0  0  0  0  0  0
   -2.9220   23.8790  -10.4310 C   0  0  2  0  0  0  0  0  0  0  0  0
   -0.7440   23.5230  -11.6820 O   0  0  0  0  0  0  0  0  0  0  0  0
   -4.4070   22.8900   -8.7550 O   0  0  0  0  0  0  0  0  0  0  0  0
   -3.2620   24.5060  -11.6700 O   0  0  0  0  0  0  0  0  0  0  0  0
  2  1  1  1
  3  2  1  0
  4  2  1  0
  5  3  1  0
  6  4  1  0
  4  7  1  6
  5  8  1  1
  5  6  1  0
  6  9  1  6
M  END
