5DUS_0_A_β-x0950_1_A_α
     RDKit          3D

 17 16  0  0  0  0  0  0  0  0999 V2000
   -1.6630   20.2440   -6.9580 O   0  0  0  0  0  0  0  0  0  0  0  0
   -0.5190   19.6730   -7.8030 P   0  0  0  0  0  0  0  0  0  0  0  0
   -0.3070   18.4930   -6.6100 O   0  0  0  0  0  0  0  0  0  0  0  0
    0.5060   20.8930   -7.7690 O   0  0  0  0  0  0  0  0  0  0  0  0
    0.2570   18.7330   -8.7090 O   0  0  0  0  0  0  0  0  0  0  0  0
   -1.6860   18.1430   -5.8270 P   0  0  0  0  0  0  0  0  0  0  0  0
   -1.1750   16.9130   -5.0710 O   0  0  0  0  0  0  0  0  0  0  0  0
   -2.8270   17.2320   -6.6080 O   0  0  0  0  0  0  0  0  0  0  0  0
   -2.0930   19.0160   -4.5330 O   0  0  0  0  0  0  0  0  0  0  0  0
    0.1040   16.4060   -4.9990 C   0  0  0  0  0  0  0  0  0  0  0  0
   -0.0580   14.9220   -4.6530 C   0  0  0  0  0  0  0  0  0  0  0  0
    1.2450   14.1570   -4.8200 C   0  0  0  0  0  0  0  0  0  0  0  0
    1.2080   12.6410   -4.6210 C   0  0  2  0  0  0  0  0  0  0  0  0
    0.2800   12.0400   -5.4390 O   0  0  0  0  0  0  0  0  0  0  0  0
    0.9550   12.3050   -3.1810 C   0  0  0  0  0  0  0  0  0  0  0  0
    0.3430   11.2410   -2.9250 O   0  0  0  0  0  0  0  0  0  0  0  0
    1.3650   13.1160   -2.1390 O   0  0  0  0  0  0  0  0  0  0  0  0
  1  2  1  0
  2  3  1  0
  2  4  1  0
  2  5  1  0
  3  6  1  0
  6  7  1  0
  6  8  1  0
  6  9  1  0
  7 10  1  0
 10 11  1  0
 11 12  1  0
 12 13  1  0
 13 14  1  6
 13 15  1  0
 15 16  2  0
 15 17  1  0
M  CHG  2   4  -1   8  -1
M  END
