5DUS_0_A_β-5cb5_I_0_I_γ
     RDKit          3D

 16 16  0  0  0  0  0  0  0  0999 V2000
   -1.5280   20.6460   -7.9260 O   0  0  0  0  0  0  0  0  0  0  0  0
   -0.4480   19.3960   -7.7260 P   0  0  0  0  0  0  0  0  0  0  0  0
   -0.1840   18.6830   -6.2690 O   0  0  0  0  0  0  0  0  0  0  0  0
    0.6630   20.4160   -7.4770 O   0  0  0  0  0  0  0  0  0  0  0  0
    0.1880   18.6700   -8.9600 O   0  0  0  0  0  0  0  0  0  0  0  0
   -1.5460   18.0850   -5.7020 P   0  0  0  0  0  0  0  0  0  0  0  0
   -1.0500   16.6190   -5.3380 O   0  0  0  0  0  0  0  0  0  0  0  0
   -2.6860   17.3000   -6.6730 O   0  0  0  0  0  0  0  0  0  0  0  0
   -1.9620   18.5450   -4.2550 O   0  0  0  0  0  0  0  0  0  0  0  0
    0.1010   16.1670   -4.6550 C   0  0  1  0  0  0  0  0  0  0  0  0
   -0.0680   16.1600   -3.2800 O   0  0  0  0  0  0  0  0  0  0  0  0
    0.6110   14.7740   -4.8820 C   0  0  2  0  0  0  0  0  0  0  0  0
    0.2240   14.1430   -6.0620 O   0  0  0  0  0  0  0  0  0  0  0  0
   -0.8620   15.0290   -3.0280 C   0  0  0  0  0  0  0  0  0  0  0  0
   -0.0970   13.9500   -3.7810 C   0  0  1  0  0  0  0  0  0  0  0  0
   -0.9250   13.0180   -4.3620 O   0  0  0  0  0  0  0  0  0  0  0  0
  1  2  1  0
  2  3  1  0
  2  4  1  0
  2  5  1  0
  3  6  1  0
  6  7  1  0
  6  8  1  0
  6  9  1  0
 10  7  1  6
 10 11  1  0
 10 12  1  0
 12 13  1  6
 11 14  1  0
 12 15  1  0
 14 15  1  0
 15 16  1  6
M  CHG  2   4  -1   8  -1
M  END
