5DUS_0_A_α-mArh-1vhu_0_A_α
     RDKit          3D

 14 14  0  0  0  0  0  0  0  0999 V2000
   -2.0940   21.6890   -7.5330 C   0  0  0  0  0  0  0  0  0  0  0  0
   -1.0410   21.0210   -8.3850 C   0  0  0  0  0  0  0  0  0  0  0  0
    0.0580   19.8540   -7.6300 S   0  0  0  0  0  0  0  0  0  0  0  0
   -3.4320   21.9990   -8.2260 C   0  0  1  0  0  0  0  0  0  0  0  0
   -4.4010   21.1420   -7.5700 O   0  0  0  0  0  0  0  0  0  0  0  0
   -3.9340   23.4580   -8.0520 C   0  0  1  0  0  0  0  0  0  0  0  0
   -4.3700   24.0410   -9.2820 O   0  0  0  0  0  0  0  0  0  0  0  0
    0.1700   18.7970   -8.6480 O   0  0  0  0  0  0  0  0  0  0  0  0
   -0.6530   19.4730   -6.4150 O   0  0  0  0  0  0  0  0  0  0  0  0
    1.2610   20.7020   -7.4300 O   0  0  0  0  0  0  0  0  0  0  0  0
   -4.9090   21.9530   -6.5330 C   0  0  1  0  0  0  0  0  0  0  0  0
   -5.1590   23.3010   -7.1700 C   0  0  1  0  0  0  0  0  0  0  0  0
   -6.1140   21.4310   -6.0340 O   0  0  0  0  0  0  0  0  0  0  0  0
   -5.3650   24.2990   -6.1710 O   0  0  0  0  0  0  0  0  0  0  0  0
  1  2  1  0
  2  3  1  0
  4  1  1  1
  4  5  1  0
  4  6  1  0
  6  7  1  6
  3  8  2  0
  3  9  2  0
  3 10  1  0
  5 11  1  0
  6 12  1  0
 11 12  1  0
 11 13  1  6
 12 14  1  1
M  CHG  1  10  -1
M  END
