5DUS_0_A_δ-mArh-x0592_0_A_α
     RDKit          3D

 20 22  0  0  0  0  0  0  0  0999 V2000
   -3.3450   15.5220    1.2530 N   0  0  0  0  0  0  0  0  0  0  0  0
   -3.8240   15.7200    0.0060 C   0  0  0  0  0  0  0  0  0  0  0  0
   -3.1420   16.1380   -0.9160 O   0  0  0  0  0  0  0  0  0  0  0  0
   -2.3850   14.5220    1.1980 C   0  0  1  0  0  0  0  0  0  0  0  0
   -2.2790   14.0350   -0.2540 C   0  0  2  0  0  0  0  0  0  0  0  0
   -1.2080   15.2340    1.5590 N   0  0  0  0  0  0  0  0  0  0  0  0
   -5.1830   15.3330   -0.1280 C   0  0  0  0  0  0  0  0  0  0  0  0
   -1.1100   14.7980   -0.8240 C   0  0  2  0  0  0  0  0  0  0  0  0
   -3.3250   14.2980   -1.2630 N   0  0  0  0  0  0  0  0  0  0  0  0
    0.0040   14.5610    1.2070 C   0  0  0  0  0  0  0  0  0  0  0  0
   -6.0050   15.3930   -1.2720 C   0  0  0  0  0  0  0  0  0  0  0  0
   -5.9800   14.8150    0.8510 C   0  0  0  0  0  0  0  0  0  0  0  0
   -1.1990   14.4880   -2.2260 N   0  0  0  0  0  0  0  0  0  0  0  0
   -2.6180   14.6780   -2.4850 C   0  0  0  0  0  0  0  0  0  0  0  0
    0.0980   14.3360   -0.2230 N   0  0  0  0  0  0  0  0  0  0  0  0
   -7.2420   14.9500   -1.0240 N   0  0  0  0  0  0  0  0  0  0  0  0
   -7.1890   14.6110    0.2840 N   0  0  0  0  0  0  0  0  0  0  0  0
   -8.3450   14.0910    0.9710 C   0  0  0  0  0  0  0  0  0  0  0  0
   -8.0470   13.8900    2.4620 C   0  0  0  0  0  0  0  0  0  0  0  0
   -7.3050   14.9760    3.0250 O   0  0  0  0  0  0  0  0  0  0  0  0
  1  2  1  0
  2  3  2  0
  4  1  1  6
  4  5  1  0
  4  6  1  0
  2  7  1  0
  5  8  1  0
  5  9  1  6
  6 10  1  0
  7 11  1  0
  7 12  2  0
  8 13  1  6
  9 14  1  0
 13 14  1  0
  8 15  1  0
 10 15  1  0
 11 16  2  0
 12 17  1  0
 16 17  1  0
 17 18  1  0
 18 19  1  0
 19 20  1  0
M  END
