5DUS_0_A_γ-5CB3_0_A_β
     RDKit          3D

 16 16  0  0  0  0  0  0  0  0999 V2000
   -1.9930   13.1740   -4.0040 O   0  0  0  0  0  0  0  0  0  0  0  0
   -0.6670   13.5810   -3.8940 C   0  0  2  0  0  0  0  0  0  0  0  0
   -0.4180   14.5210   -2.7140 C   0  0  0  0  0  0  0  0  0  0  0  0
   -0.2380   14.3920   -5.0840 C   0  0  2  0  0  0  0  0  0  0  0  0
    1.0890   14.0440   -5.3320 O   0  0  0  0  0  0  0  0  0  0  0  0
    0.2220   15.6390   -3.2860 O   0  0  0  0  0  0  0  0  0  0  0  0
   -0.4210   15.7450   -4.5040 C   0  0  1  0  0  0  0  0  0  0  0  0
   -0.0790   17.0060   -5.3240 C   0  0  0  0  0  0  0  0  0  0  0  0
   -1.5250   17.9620   -5.6650 P   0  0  0  0  0  0  0  0  0  0  0  0
   -1.0250   19.2560   -6.3330 O   0  0  0  0  0  0  0  0  0  0  0  0
   -2.5140   17.7290   -7.0260 O   0  0  0  0  0  0  0  0  0  0  0  0
   -2.0940   18.9410   -4.5540 O   0  0  0  0  0  0  0  0  0  0  0  0
   -0.1610   19.5480   -7.6390 P   0  0  0  0  0  0  0  0  0  0  0  0
   -1.3280   20.2500   -8.3460 O   0  0  0  0  0  0  0  0  0  0  0  0
    0.6990   20.9810   -7.7760 O   0  0  0  0  0  0  0  0  0  0  0  0
    0.0160   18.4220   -8.8130 O   0  0  0  0  0  0  0  0  0  0  0  0
  2  1  1  6
  2  3  1  0
  2  4  1  0
  4  5  1  1
  3  6  1  0
  4  7  1  0
  6  7  1  0
  7  8  1  6
  8  9  1  0
  9 10  1  0
  9 11  1  0
  9 12  1  0
 10 13  1  0
 13 14  1  0
 13 15  1  0
 13 16  1  0
M  CHG  2  11  -1  15  -1
M  END
