5dus_0_A_α-6WOJ_0_B_γ
     RDKit          3D

 22 23  0  0  0  0  0  0  0  0999 V2000
   -2.1720   21.6860   -8.4380 C   0  0  0  0  0  0  0  0  0  0  0  0
   -3.4100   22.1590   -7.7170 C   0  0  2  0  0  0  0  0  0  0  0  0
   -4.5460   21.4410   -8.1710 O   0  0  0  0  0  0  0  0  0  0  0  0
   -3.8830   23.5930   -7.8760 C   0  0  1  0  0  0  0  0  0  0  0  0
   -4.0760   24.0040   -9.2280 O   0  0  0  0  0  0  0  0  0  0  0  0
   -5.5040   21.9440   -7.2600 C   0  0  2  0  0  0  0  0  0  0  0  0
   -5.2980   23.4730   -7.3360 C   0  0  1  0  0  0  0  0  0  0  0  0
   -5.1420   21.4990   -5.9690 O   0  0  0  0  0  0  0  0  0  0  0  0
   -5.4850   24.1840   -6.1250 O   0  0  0  0  0  0  0  0  0  0  0  0
   -3.7170   21.7210   -5.8670 C   0  0  0  0  0  0  0  0  0  0  0  0
   -2.9250   20.6570   -5.1280 C   0  0  0  0  0  0  0  0  0  0  0  0
   -2.0480   19.6590   -5.9440 C   0  0  0  0  0  0  0  0  0  0  0  0
   -1.5410   18.4690   -5.0760 C   0  0  0  0  0  0  0  0  0  0  0  0
   -0.6480   17.4120   -5.7530 C   0  0  0  0  0  0  0  0  0  0  0  0
    0.7270   17.1640   -5.0890 C   0  0  0  0  0  0  0  0  0  0  0  0
    0.9500   15.8050   -4.3480 C   0  0  1  0  0  0  0  0  0  0  0  0
    0.1410   15.7780   -3.1420 O   0  0  0  0  0  0  0  0  0  0  0  0
    0.6420   14.4800   -5.0820 C   0  0  1  0  0  0  0  0  0  0  0  0
    1.5960   13.4420   -4.9140 O   0  0  0  0  0  0  0  0  0  0  0  0
   -0.5310   14.5140   -3.0690 C   0  0  0  0  0  0  0  0  0  0  0  0
   -0.6960   14.0550   -4.4980 C   0  0  2  0  0  0  0  0  0  0  0  0
   -0.9010   12.6540   -4.6350 O   0  0  0  0  0  0  0  0  0  0  0  0
  2  1  1  6
  2  3  1  0
  2  4  1  0
  4  5  1  6
  3  6  1  0
  4  7  1  0
  6  7  1  0
  6  8  1  1
  7  9  1  1
  8 10  1  0
 10 11  1  0
 11 12  1  0
 12 13  1  0
 13 14  1  0
 14 15  1  0
 16 15  1  6
 16 17  1  0
 16 18  1  0
 18 19  1  1
 17 20  1  0
 18 21  1  0
 20 21  1  0
 21 22  1  1
M  END
