5dus_0_A_γ-5CB5_0_E_β
     RDKit          3D

 16 16  0  0  0  0  0  0  0  0999 V2000
   -1.9450   13.2640   -3.9750 O   0  0  0  0  0  0  0  0  0  0  0  0
   -0.6320   13.7180   -3.8920 C   0  0  2  0  0  0  0  0  0  0  0  0
   -0.3960   14.6760   -2.7280 C   0  0  0  0  0  0  0  0  0  0  0  0
   -0.2430   14.5330   -5.0950 C   0  0  2  0  0  0  0  0  0  0  0  0
    1.0840   14.1990   -5.3670 O   0  0  0  0  0  0  0  0  0  0  0  0
    0.2170   15.8000   -3.3180 O   0  0  0  0  0  0  0  0  0  0  0  0
   -0.4400   15.8920   -4.5320 C   0  0  1  0  0  0  0  0  0  0  0  0
   -0.1210   17.1660   -5.3700 C   0  0  0  0  0  0  0  0  0  0  0  0
   -1.5810   18.1090   -5.7290 P   0  0  0  0  0  0  0  0  0  0  0  0
   -1.1450   19.3610   -6.5280 O   0  0  0  0  0  0  0  0  0  0  0  0
   -2.5790   17.7550   -7.0470 O   0  0  0  0  0  0  0  0  0  0  0  0
   -2.1680   19.1410   -4.6680 O   0  0  0  0  0  0  0  0  0  0  0  0
   -0.0990   19.5670   -7.7110 P   0  0  0  0  0  0  0  0  0  0  0  0
   -1.1140   20.1590   -8.6910 O   0  0  0  0  0  0  0  0  0  0  0  0
    0.7820   20.9940   -7.8380 O   0  0  0  0  0  0  0  0  0  0  0  0
    0.1690   18.3780   -8.7950 O   0  0  0  0  0  0  0  0  0  0  0  0
  2  1  1  6
  2  3  1  0
  2  4  1  0
  4  5  1  1
  3  6  1  0
  4  7  1  0
  6  7  1  0
  7  8  1  6
  8  9  1  0
  9 10  1  0
  9 11  1  0
  9 12  1  0
 10 13  1  0
 13 14  1  0
 13 15  1  0
 13 16  1  0
M  CHG  2  11  -1  15  -1
M  END
