5DUS_0_A_Î´
     RDKit          3D

 10 11  0  0  0  0  0  0  0  0999 V2000
   -1.6410   14.7440   -1.8430 N   0  0  0  0  0  0  0  0  0  0  0  0
   -1.2280   14.7520   -0.5260 C   0  0  0  0  0  0  0  0  0  0  0  0
   -2.9150   15.2130   -1.8720 C   0  0  0  0  0  0  0  0  0  0  0  0
   -0.0490   14.3920    0.0770 N   0  0  0  0  0  0  0  0  0  0  0  0
   -2.2510   15.2210    0.2220 C   0  0  0  0  0  0  0  0  0  0  0  0
   -3.3010   15.5030   -0.6000 N   0  0  0  0  0  0  0  0  0  0  0  0
    0.0650   14.5140    1.4490 C   0  0  0  0  0  0  0  0  0  0  0  0
   -2.1350   15.3360    1.5980 C   0  0  0  0  0  0  0  0  0  0  0  0
   -0.9750   14.9850    2.2000 N   0  0  0  0  0  0  0  0  0  0  0  0
   -3.1270   15.8140    2.5000 N   0  0  0  0  0  0  0  0  0  0  0  0
  1  2  1  0
  1  3  1  0
  4  2  1  0
  2  5  1  0
  6  3  1  0
  7  4  1  0
  8  5  1  0
  5  6  1  0
  9  7  1  0
  9  8  1  0
  8 10  1  0
M  END
