5DUS_0_A_β-5LW0_0_A_γ
     RDKit          3D

 16 16  0  0  0  0  0  0  0  0999 V2000
   -1.6030   20.6970   -7.9930 O   0  0  0  0  0  0  0  0  0  0  0  0
   -0.5570   19.4520   -7.6480 P   0  0  0  0  0  0  0  0  0  0  0  0
   -0.4070   18.8680   -6.0980 O   0  0  0  0  0  0  0  0  0  0  0  0
    0.5530   20.4760   -7.4360 O   0  0  0  0  0  0  0  0  0  0  0  0
    0.1450   18.6620   -8.8300 O   0  0  0  0  0  0  0  0  0  0  0  0
   -1.6350   17.8960   -5.7160 P   0  0  0  0  0  0  0  0  0  0  0  0
   -0.8400   16.5120   -5.6520 O   0  0  0  0  0  0  0  0  0  0  0  0
   -2.6260   17.1880   -6.8750 O   0  0  0  0  0  0  0  0  0  0  0  0
   -2.2420   17.7600   -4.2970 O   0  0  0  0  0  0  0  0  0  0  0  0
    0.0010   15.8490   -4.6950 C   0  0  1  0  0  0  0  0  0  0  0  0
   -0.4560   15.9000   -3.3800 O   0  0  0  0  0  0  0  0  0  0  0  0
    0.2830   14.3880   -4.9510 C   0  0  1  0  0  0  0  0  0  0  0  0
    1.6570   14.0570   -4.9470 O   0  0  0  0  0  0  0  0  0  0  0  0
   -1.1880   14.7220   -3.1530 C   0  0  0  0  0  0  0  0  0  0  0  0
   -0.2100   13.6820   -3.6800 C   0  0  1  0  0  0  0  0  0  0  0  0
   -0.7910   12.4890   -4.0230 O   0  0  0  0  0  0  0  0  0  0  0  0
  1  2  1  0
  2  3  1  0
  2  4  1  0
  2  5  1  0
  3  6  1  0
  6  7  1  0
  6  8  1  0
  6  9  1  0
 10  7  1  6
 10 11  1  0
 10 12  1  0
 12 13  1  1
 11 14  1  0
 12 15  1  0
 14 15  1  0
 15 16  1  6
M  CHG  2   4  -1   8  -1
M  END
