5dus_0_A_γ-5CMS_0_L_δ
     RDKit          3D

 17 19  0  0  0  0  0  0  0  0999 V2000
   -1.6470   12.7950   -3.8010 O   0  0  0  0  0  0  0  0  0  0  0  0
   -0.6080   13.7260   -3.5150 C   0  0  2  0  0  0  0  0  0  0  0  0
   -1.0210   14.9540   -2.6870 C   0  0  2  0  0  0  0  0  0  0  0  0
   -0.0690   14.2920   -4.8360 C   0  0  2  0  0  0  0  0  0  0  0  0
    1.2350   13.8040   -5.1020 O   0  0  0  0  0  0  0  0  0  0  0  0
   -0.2800   16.0500   -3.2590 O   0  0  0  0  0  0  0  0  0  0  0  0
   -0.2100   15.8120   -4.6690 C   0  0  1  0  0  0  0  0  0  0  0  0
   -0.8030   15.0710   -1.1430 C   0  0  1  0  0  0  0  0  0  0  0  0
   -2.5510   15.1620   -2.8150 C   0  0  0  0  0  0  0  0  0  0  0  0
    0.8830   16.6910   -5.2370 C   0  0  0  0  0  0  0  0  0  0  0  0
   -2.2120   15.4830   -0.6630 C   0  0  1  0  0  0  0  0  0  0  0  0
   -3.1340   14.7560   -1.5220 N   0  0  0  0  0  0  0  0  0  0  0  0
   -0.1750   13.9980   -0.3630 N   0  0  0  0  0  0  0  0  0  0  0  0
   -0.2200   14.2550    1.0700 C   0  0  0  0  0  0  0  0  0  0  0  0
   -2.3260   15.4000    0.8760 C   0  0  1  0  0  0  0  0  0  0  0  0
   -3.7010   15.3090    1.3370 N   0  0  0  0  0  0  0  0  0  0  0  0
   -1.5840   14.3530    1.5180 N   0  0  0  0  0  0  0  0  0  0  0  0
  2  1  1  6
  2  3  1  0
  2  4  1  0
  4  5  1  1
  3  6  1  0
  4  7  1  0
  6  7  1  0
  3  8  1  0
  3  9  1  1
  7 10  1  1
  8 11  1  0
  9 12  1  0
 11 12  1  6
  8 13  1  1
 13 14  1  0
 11 15  1  0
 15 16  1  6
 14 17  1  0
 15 17  1  0
M  END
