5DUS_0_A_γ-5CB5_0_J_α
     RDKit          3D

 21 22  0  0  0  0  0  0  0  0999 V2000
   -1.2340   12.4960   -4.3650 O   0  0  0  0  0  0  0  0  0  0  0  0
   -1.1810   13.8920   -4.2270 C   0  0  1  0  0  0  0  0  0  0  0  0
   -0.7180   14.4010   -2.8690 C   0  0  0  0  0  0  0  0  0  0  0  0
   -0.0910   14.4370   -5.1040 C   0  0  2  0  0  0  0  0  0  0  0  0
    1.1020   13.6800   -4.9150 O   0  0  0  0  0  0  0  0  0  0  0  0
   -0.0090   15.6330   -3.1410 O   0  0  0  0  0  0  0  0  0  0  0  0
   -0.1150   15.8570   -4.5700 C   0  0  1  0  0  0  0  0  0  0  0  0
    0.9710   16.8070   -5.0360 C   0  0  0  0  0  0  0  0  0  0  0  0
    0.5980   18.2680   -5.3490 C   0  0  0  0  0  0  0  0  0  0  0  0
   -0.4830   18.5070   -6.4260 C   0  0  0  0  0  0  0  0  0  0  0  0
   -0.1910   19.6190   -7.4670 C   0  0  0  0  0  0  0  0  0  0  0  0
   -1.4680   20.2250   -8.0690 C   0  0  0  0  0  0  0  0  0  0  0  0
   -1.7580   21.7460   -7.9810 C   0  0  0  0  0  0  0  0  0  0  0  0
   -3.1960   22.0500   -8.4950 C   0  0  1  0  0  0  0  0  0  0  0  0
   -4.0360   21.2350   -7.6940 O   0  0  0  0  0  0  0  0  0  0  0  0
   -3.7800   23.4750   -8.3550 C   0  0  1  0  0  0  0  0  0  0  0  0
   -4.0500   24.1120   -9.5800 O   0  0  0  0  0  0  0  0  0  0  0  0
   -5.2870   21.8740   -7.4340 C   0  0  2  0  0  0  0  0  0  0  0  0
   -5.1410   23.3520   -7.6720 C   0  0  1  0  0  0  0  0  0  0  0  0
   -5.6640   21.6270   -6.0870 O   0  0  0  0  0  0  0  0  0  0  0  0
   -5.3220   24.1450   -6.4970 O   0  0  0  0  0  0  0  0  0  0  0  0
  2  1  1  1
  2  3  1  0
  2  4  1  0
  4  5  1  1
  3  6  1  0
  4  7  1  0
  6  7  1  0
  7  8  1  6
  8  9  1  0
  9 10  1  0
 10 11  1  0
 11 12  1  0
 12 13  1  0
 14 13  1  1
 14 15  1  0
 14 16  1  0
 16 17  1  6
 15 18  1  0
 16 19  1  0
 18 19  1  0
 18 20  1  1
 19 21  1  1
M  END
