5DUS_0_A_γ-mArh-5cb5_J_2_J_β
     RDKit          3D

 16 16  0  0  0  0  0  0  0  0999 V2000
   -2.1820   13.1220   -4.0510 O   0  0  0  0  0  0  0  0  0  0  0  0
   -0.8250   13.4710   -3.8810 C   0  0  2  0  0  0  0  0  0  0  0  0
   -0.5600   14.3340   -2.6390 C   0  0  0  0  0  0  0  0  0  0  0  0
   -0.3180   14.3440   -5.0150 C   0  0  2  0  0  0  0  0  0  0  0  0
    1.0860   14.0710   -5.1310 O   0  0  0  0  0  0  0  0  0  0  0  0
   -0.0750   15.6090   -3.1030 O   0  0  0  0  0  0  0  0  0  0  0  0
   -0.6360   15.7120   -4.4220 C   0  0  1  0  0  0  0  0  0  0  0  0
   -0.0850   16.9420   -5.1290 C   0  0  0  0  0  0  0  0  0  0  0  0
   -1.2990   18.0870   -5.8530 P   0  0  1  0  0  0  0  0  0  0  0  0
   -0.3920   19.1970   -6.4680 O   0  0  0  0  0  0  0  0  0  0  0  0
   -2.3290   17.4830   -6.7690 O   0  0  0  0  0  0  0  0  0  0  0  0
   -1.9770   18.9730   -4.7090 O   0  0  0  0  0  0  0  0  0  0  0  0
   -0.1460   19.8190   -7.8530 P   0  0  0  0  0  0  0  0  0  0  0  0
   -1.5760   20.3080   -8.3360 O   0  0  0  0  0  0  0  0  0  0  0  0
    0.8900   20.8680   -7.8960 O   0  0  0  0  0  0  0  0  0  0  0  0
    0.0930   18.5690   -8.8260 O   0  0  0  0  0  0  0  0  0  0  0  0
  2  1  1  6
  2  3  1  0
  2  4  1  0
  4  5  1  1
  3  6  1  0
  4  7  1  0
  6  7  1  0
  7  8  1  6
  8  9  1  0
  9 10  1  0
  9 11  2  0
  9 12  1  1
 10 13  1  0
 13 14  1  0
 13 15  2  0
 13 16  1  0
M  END
