5FUD_0_A_α-mArh-5cb5_A_0_A_γ
     RDKit          3D

 23 24  0  0  0  0  0  0  0  0999 V2000
   -1.1650   20.3590   -6.2000 O   0  0  0  0  0  0  0  0  0  0  0  0
   -0.7950   20.2970   -7.7550 S   0  0  0  0  0  0  0  0  0  0  0  0
    0.5570   21.0850   -8.0420 O   0  0  0  0  0  0  0  0  0  0  0  0
   -0.7760   18.7650   -8.1190 O   0  0  0  0  0  0  0  0  0  0  0  0
   -2.1620   21.0700   -8.4990 C   0  0  0  0  0  0  0  0  0  0  0  0
   -2.4110   22.4310   -7.9990 C   0  0  0  0  0  0  0  0  0  0  0  0
   -0.6990   18.2170   -6.8150 C   0  0  0  0  0  0  0  0  0  0  0  0
    0.6960   18.4870   -6.2880 C   0  0  0  0  0  0  0  0  0  0  0  0
   -3.8450   22.6010   -7.9910 N   0  0  0  0  0  0  0  0  0  0  0  0
    0.8510   18.1520   -4.8270 C   0  0  0  0  0  0  0  0  0  0  0  0
   -4.3580   22.8280   -9.3670 C   0  0  0  0  0  0  0  0  0  0  0  0
   -4.1590   23.7110   -7.1140 C   0  0  0  0  0  0  0  0  0  0  0  0
    1.0770   16.6740   -4.6150 C   0  0  0  0  0  0  0  0  0  0  0  0
   -5.8570   23.1330   -9.3700 C   0  0  0  0  0  0  0  0  0  0  0  0
   -5.6350   23.9180   -7.1570 C   0  0  0  0  0  0  0  0  0  0  0  0
   -6.1340   24.1980   -8.4650 O   0  0  0  0  0  0  0  0  0  0  0  0
   -0.1230   15.7940   -4.4090 C   0  0  2  0  0  0  0  0  0  0  0  0
   -0.3840   15.5660   -3.0170 O   0  0  0  0  0  0  0  0  0  0  0  0
   -0.0330   14.4180   -5.0330 C   0  0  1  0  0  0  0  0  0  0  0  0
    1.1470   13.6860   -4.6900 O   0  0  0  0  0  0  0  0  0  0  0  0
   -1.0620   14.3070   -2.9230 C   0  0  0  0  0  0  0  0  0  0  0  0
   -1.2150   13.7810   -4.3470 C   0  0  2  0  0  0  0  0  0  0  0  0
   -1.1380   12.3770   -4.4520 O   0  0  0  0  0  0  0  0  0  0  0  0
  2  1  1  0
  2  3  1  0
  2  4  1  0
  2  5  1  0
  5  6  1  0
  4  7  1  0
  7  8  1  0
  6  9  1  0
  8 10  1  0
  9 11  1  0
  9 12  1  0
 10 13  1  0
 11 14  1  0
 12 15  1  0
 14 16  1  0
 15 16  1  0
 17 13  1  1
 17 18  1  0
 17 19  1  0
 19 20  1  1
 18 21  1  0
 19 22  1  0
 21 22  1  0
 22 23  1  1
M  END
