5fud_A_0_A_α-5cms_E_5_E_γ
     RDKit          3D

 23 24  0  0  0  0  0  0  0  0999 V2000
   -1.1620   20.1080   -6.1830 O   0  0  0  0  0  0  0  0  0  0  0  0
   -0.6760   20.3060   -7.5200 S   0  0  0  0  0  0  0  0  0  0  0  0
    0.5070   21.0670   -7.8360 O   0  0  0  0  0  0  0  0  0  0  0  0
   -0.4570   18.8100   -8.0550 O   0  0  0  0  0  0  0  0  0  0  0  0
   -2.0530   20.9190   -8.3830 C   0  0  0  0  0  0  0  0  0  0  0  0
   -2.3780   22.3180   -8.0040 C   0  0  0  0  0  0  0  0  0  0  0  0
    0.0850   18.0390   -6.9590 C   0  0  0  0  0  0  0  0  0  0  0  0
    0.3580   18.7900   -5.7190 C   0  0  0  0  0  0  0  0  0  0  0  0
   -3.8120   22.4870   -8.0180 N   0  0  0  0  0  0  0  0  0  0  0  0
    0.6930   17.8750   -4.5410 C   0  0  0  0  0  0  0  0  0  0  0  0
   -4.3450   22.7400   -9.3740 C   0  0  0  0  0  0  0  0  0  0  0  0
   -4.1160   23.5850   -7.1150 C   0  0  0  0  0  0  0  0  0  0  0  0
    1.0100   16.4500   -4.9830 C   0  0  0  0  0  0  0  0  0  0  0  0
   -5.8300   23.1100   -9.3860 C   0  0  0  0  0  0  0  0  0  0  0  0
   -5.5980   23.8350   -7.1570 C   0  0  0  0  0  0  0  0  0  0  0  0
   -6.0810   24.1630   -8.4610 O   0  0  0  0  0  0  0  0  0  0  0  0
   -0.0910   15.4350   -4.7110 C   0  0  2  0  0  0  0  0  0  0  0  0
   -0.2040   15.3230   -3.2770 O   0  0  0  0  0  0  0  0  0  0  0  0
    0.0470   13.9820   -5.1780 C   0  0  1  0  0  0  0  0  0  0  0  0
    1.2990   13.3320   -5.0270 O   0  0  0  0  0  0  0  0  0  0  0  0
   -0.8530   14.0640   -2.9940 C   0  0  0  0  0  0  0  0  0  0  0  0
   -1.0120   13.3250   -4.3230 C   0  0  2  0  0  0  0  0  0  0  0  0
   -0.7120   11.9310   -4.2020 O   0  0  0  0  0  0  0  0  0  0  0  0
  1  2  2  0
  2  3  2  0
  2  4  1  0
  2  5  1  0
  5  6  1  0
  4  7  1  0
  7  8  1  0
  6  9  1  0
  8 10  1  0
  9 11  1  0
  9 12  1  0
 10 13  1  0
 11 14  1  0
 12 15  1  0
 14 16  1  0
 15 16  1  0
 17 13  1  1
 17 18  1  0
 17 19  1  0
 19 20  1  1
 18 21  1  0
 19 22  1  0
 21 22  1  0
 22 23  1  1
M  END
