5FUD_0_A_α-5CB5_0_O_δ
     RDKit          3D

 27 29  0  0  0  0  0  0  0  0999 V2000
   -1.2550   20.2870   -6.0960 O   0  0  0  0  0  0  0  0  0  0  0  0
   -0.7380   20.3080   -7.6050 S   0  0  0  0  0  0  0  0  0  0  0  0
    0.4490   21.3590   -7.7910 O   0  0  0  0  0  0  0  0  0  0  0  0
   -0.2530   18.8440   -7.9590 O   0  0  0  0  0  0  0  0  0  0  0  0
   -2.1380   20.9500   -8.4050 C   0  0  0  0  0  0  0  0  0  0  0  0
   -2.4360   22.3350   -7.9780 C   0  0  0  0  0  0  0  0  0  0  0  0
    0.6660   18.5220   -6.8920 C   0  0  0  0  0  0  0  0  0  0  0  0
   -0.0150   18.2000   -5.5780 C   0  0  0  0  0  0  0  0  0  0  0  0
   -3.8600   22.5280   -7.9670 N   0  0  0  0  0  0  0  0  0  0  0  0
   -1.0000   17.0510   -5.7050 C   0  0  0  0  0  0  0  0  0  0  0  0
   -4.4220   22.7380   -9.3080 C   0  0  0  0  0  0  0  0  0  0  0  0
   -4.1150   23.7030   -7.1810 C   0  0  0  0  0  0  0  0  0  0  0  0
   -1.9840   17.1220   -4.5780 C   0  0  0  0  0  0  0  0  0  0  0  0
   -5.9440   22.8780   -9.2110 C   0  0  0  0  0  0  0  0  0  0  0  0
   -5.6020   23.8410   -7.0740 C   0  0  0  0  0  0  0  0  0  0  0  0
   -2.6860   15.8370   -4.1040 C   0  0  0  0  0  0  0  0  0  0  0  0
   -6.2840   23.9590   -8.3380 O   0  0  0  0  0  0  0  0  0  0  0  0
   -2.5110   15.5560   -2.6110 C   0  0  2  0  0  0  0  0  0  0  0  0
   -1.4440   14.6500   -2.2870 N   0  0  0  0  0  0  0  0  0  0  0  0
   -3.6450   15.2290   -1.7240 N   0  0  0  0  0  0  0  0  0  0  0  0
   -1.4370   15.0310   -0.9190 C   0  0  1  0  0  0  0  0  0  0  0  0
   -2.8890   14.7810   -0.5170 C   0  0  1  0  0  0  0  0  0  0  0  0
   -0.5190   14.2900   -0.1260 N   0  0  0  0  0  0  0  0  0  0  0  0
   -2.9430   15.4460    0.8590 C   0  0  1  0  0  0  0  0  0  0  0  0
   -4.2420   15.3790    1.5110 N   0  0  0  0  0  0  0  0  0  0  0  0
   -0.6010   14.8490    1.2000 C   0  0  0  0  0  0  0  0  0  0  0  0
   -1.9710   14.7950    1.7160 N   0  0  0  0  0  0  0  0  0  0  0  0
  2  1  1  0
  2  3  1  0
  2  4  1  0
  2  5  1  0
  5  6  1  0
  4  7  1  0
  7  8  1  0
  6  9  1  0
  8 10  1  0
  9 11  1  0
  9 12  1  0
 10 13  1  0
 11 14  1  0
 12 15  1  0
 13 16  1  0
 14 17  1  0
 15 17  1  0
 18 16  1  6
 18 19  1  0
 18 20  1  0
 21 19  1  6
 22 20  1  6
 21 22  1  0
 21 23  1  0
 22 24  1  0
 24 25  1  1
 23 26  1  0
 24 27  1  0
 26 27  1  0
M  END
