5fud_B_0_B_α-2bfq_0_A_α
     RDKit          3D

 15 15  0  0  0  0  0  0  0  0999 V2000
   -1.3220   19.6190   -6.5050 O   0  0  0  0  0  0  0  0  0  0  0  0
   -0.9560   19.9980   -7.8650 S   0  0  0  0  0  0  0  0  0  0  0  0
    0.2050   20.8720   -7.9670 O   0  0  0  0  0  0  0  0  0  0  0  0
   -0.9030   18.8250   -8.7550 O   0  0  0  0  0  0  0  0  0  0  0  0
   -2.3340   21.0540   -8.3610 C   0  0  0  0  0  0  0  0  0  0  0  0
   -2.2730   22.4790   -7.8400 C   0  0  0  0  0  0  0  0  0  0  0  0
   -3.5480   23.2910   -7.9530 N   0  0  0  0  0  0  0  0  0  0  0  0
   -4.3550   23.1500   -9.2240 C   0  0  2  0  0  0  0  0  0  0  0  0
   -4.4180   23.1540   -6.7750 C   0  0  1  0  0  0  0  0  0  0  0  0
   -4.2370   24.3220   -9.9630 O   0  0  0  0  0  0  0  0  0  0  0  0
   -4.9610   24.3490   -6.2290 O   0  0  0  0  0  0  0  0  0  0  0  0
   -5.8760   22.8380   -9.2230 C   0  0  0  0  0  0  0  0  0  0  0  0
   -5.5910   22.2510   -7.0920 C   0  0  1  0  0  0  0  0  0  0  0  0
   -6.2080   21.7180   -5.9570 O   0  0  0  0  0  0  0  0  0  0  0  0
   -6.4420   22.9820   -7.9430 O   0  0  0  0  0  0  0  0  0  0  0  0
  1  2  2  0
  2  3  2  0
  2  4  1  0
  2  5  1  0
  5  6  1  0
  6  7  1  0
  7  8  1  0
  7  9  1  0
  8 10  1  1
  9 11  1  6
  8 12  1  0
  9 13  1  0
 13 14  1  1
 12 15  1  0
 13 15  1  0
M  CHG  1   4  -1
M  END
