5FUD_0_A_α-5CMS_0_E_α
     RDKit          3D

 20 21  0  0  0  0  0  0  0  0999 V2000
   -2.6020   18.4790   -7.2130 O   0  0  0  0  0  0  0  0  0  0  0  0
   -1.7330   19.8240   -7.3470 S   0  0  0  0  0  0  0  0  0  0  0  0
   -0.6520   19.7220   -6.1980 O   0  0  0  0  0  0  0  0  0  0  0  0
   -0.9950   19.9200   -8.7740 O   0  0  0  0  0  0  0  0  0  0  0  0
   -2.7220   21.3340   -7.0400 C   0  0  2  0  0  0  0  0  0  0  0  0
   -3.6250   21.2730   -5.8190 C   0  0  0  0  0  0  0  0  0  0  0  0
   -3.5560   22.0250   -8.1440 C   0  0  2  0  0  0  0  0  0  0  0  0
   -4.5320   22.4340   -5.9020 N   0  0  0  0  0  0  0  0  0  0  0  0
   -4.9020   21.5950   -8.4250 O   0  0  0  0  0  0  0  0  0  0  0  0
   -2.9500   22.1940   -9.4520 C   0  0  1  0  0  0  0  0  0  0  0  0
   -2.2280   21.0430   -9.8380 O   0  0  0  0  0  0  0  0  0  0  0  0
   -5.5990   22.2510   -6.9070 C   0  0  0  0  0  0  0  0  0  0  0  0
   -3.7560   23.6720   -6.1180 C   0  0  0  0  0  0  0  0  0  0  0  0
   -5.3350   22.3210   -9.5810 C   0  0  2  0  0  0  0  0  0  0  0  0
   -4.0950   22.6090  -10.3940 C   0  0  1  0  0  0  0  0  0  0  0  0
   -5.9040   23.5710   -9.2110 O   0  0  0  0  0  0  0  0  0  0  0  0
   -4.0330   23.9970  -10.7530 O   0  0  0  0  0  0  0  0  0  0  0  0
   -5.9640   23.4270   -7.8760 C   0  0  0  0  0  0  0  0  0  0  0  0
   -4.5610   24.7640   -6.7070 C   0  0  0  0  0  0  0  0  0  0  0  0
   -4.9660   24.4250   -8.0090 O   0  0  0  0  0  0  0  0  0  0  0  0
  2  1  1  0
  2  3  1  0
  2  4  1  0
  2  5  1  0
  5  6  1  1
  5  7  1  0
  6  8  1  0
  7  9  1  6
  7 10  1  0
 10 11  1  6
  8 12  1  0
  8 13  1  0
  9 14  1  0
 10 15  1  0
 14 15  1  0
 14 16  1  1
 15 17  1  1
 12 18  1  0
 13 19  1  0
 18 20  1  0
 19 20  1  0
M  END
