5FUD_0_A_α-x0918_0_B_α
     RDKit          3D

 22 23  0  0  0  0  0  0  0  0999 V2000
   -0.8840   19.1980   -6.3200 O   0  0  0  0  0  0  0  0  0  0  0  0
   -0.5690   19.8810   -7.7250 S   0  0  0  0  0  0  0  0  0  0  0  0
    0.5960   20.9650   -7.6660 O   0  0  0  0  0  0  0  0  0  0  0  0
   -0.2120   18.7530   -8.8110 O   0  0  0  0  0  0  0  0  0  0  0  0
   -2.0690   20.7130   -8.1790 C   0  0  0  0  0  0  0  0  0  0  0  0
   -2.3830   22.0780   -7.6330 C   0  0  0  0  0  0  0  0  0  0  0  0
   -3.8520   22.3050   -7.7160 N   0  0  0  0  0  0  0  0  0  0  0  0
   -4.4140   22.1060   -9.0630 C   0  0  0  0  0  0  0  0  0  0  0  0
   -4.2140   23.6600   -7.3160 C   0  0  0  0  0  0  0  0  0  0  0  0
   -5.9400   22.3250   -9.1900 C   0  0  0  0  0  0  0  0  0  0  0  0
   -5.7290   23.8450   -7.4980 C   0  0  0  0  0  0  0  0  0  0  0  0
   -6.2200   23.7020   -8.8950 N   0  0  0  0  0  0  0  0  0  0  0  0
   -5.5110   24.4700   -9.9270 C   0  0  0  0  0  0  0  0  0  0  0  0
   -6.2420   25.6170  -10.6860 C   0  0  0  0  0  0  0  0  0  0  0  0
   -5.2990   26.2370  -11.7570 C   0  0  0  0  0  0  0  0  0  0  0  0
   -5.5150   27.6010  -12.4090 C   0  0  0  0  0  0  0  0  0  0  0  0
   -6.7370   28.1890  -12.3580 N   0  0  0  0  0  0  0  0  0  0  0  0
   -4.4330   28.1970  -13.0740 C   0  0  0  0  0  0  0  0  0  0  0  0
   -4.5960   29.4130  -13.7250 C   0  0  0  0  0  0  0  0  0  0  0  0
   -6.8710   29.3730  -13.0000 C   0  0  0  0  0  0  0  0  0  0  0  0
   -3.5250   30.0130  -14.4020 N   0  0  0  0  0  0  0  0  0  0  0  0
   -5.8470   30.0060  -13.6890 C   0  0  0  0  0  0  0  0  0  0  0  0
  2  1  1  0
  2  3  1  0
  2  4  1  0
  2  5  1  0
  5  6  1  0
  6  7  1  0
  7  8  1  0
  7  9  1  0
  8 10  1  0
  9 11  1  0
 10 12  1  0
 11 12  1  0
 12 13  1  0
 13 14  1  0
 14 15  1  0
 15 16  1  0
 16 17  2  0
 16 18  1  0
 18 19  2  0
 17 20  1  0
 19 21  1  0
 19 22  1  0
 20 22  2  0
M  END
