5fud_A_0_A_α-5cms_I_8_I_γ
     RDKit          3D

 23 24  0  0  0  0  0  0  0  0999 V2000
   -1.3020   20.2030   -6.2600 O   0  0  0  0  0  0  0  0  0  0  0  0
   -0.8470   20.5060   -7.5900 S   0  0  0  0  0  0  0  0  0  0  0  0
    0.3550   21.2420   -7.8790 O   0  0  0  0  0  0  0  0  0  0  0  0
   -0.7150   19.0930   -8.2680 O   0  0  0  0  0  0  0  0  0  0  0  0
   -2.2140   21.1140   -8.4450 C   0  0  0  0  0  0  0  0  0  0  0  0
   -2.4980   22.4920   -8.0370 C   0  0  0  0  0  0  0  0  0  0  0  0
   -0.1980   18.2320   -7.3050 C   0  0  0  0  0  0  0  0  0  0  0  0
   -0.2420   18.5990   -5.8650 C   0  0  0  0  0  0  0  0  0  0  0  0
   -3.9130   22.6230   -8.0470 N   0  0  0  0  0  0  0  0  0  0  0  0
    1.0770   18.0590   -5.3230 C   0  0  0  0  0  0  0  0  0  0  0  0
   -4.4710   22.7860   -9.3990 C   0  0  0  0  0  0  0  0  0  0  0  0
   -4.2040   23.7590   -7.2310 C   0  0  0  0  0  0  0  0  0  0  0  0
    0.9200   16.9860   -4.2520 C   0  0  0  0  0  0  0  0  0  0  0  0
   -5.9940   22.9600   -9.3730 C   0  0  0  0  0  0  0  0  0  0  0  0
   -5.6920   23.8420   -7.1540 C   0  0  0  0  0  0  0  0  0  0  0  0
   -6.3910   23.9370   -8.4120 O   0  0  0  0  0  0  0  0  0  0  0  0
   -0.1600   15.9210   -4.3710 C   0  0  2  0  0  0  0  0  0  0  0  0
   -0.3610   15.5070   -3.0040 O   0  0  0  0  0  0  0  0  0  0  0  0
    0.0140   14.5560   -5.0560 C   0  0  1  0  0  0  0  0  0  0  0  0
    1.1580   13.7630   -4.7840 O   0  0  0  0  0  0  0  0  0  0  0  0
   -1.0940   14.2650   -3.0400 C   0  0  0  0  0  0  0  0  0  0  0  0
   -1.2530   13.9190   -4.5130 C   0  0  2  0  0  0  0  0  0  0  0  0
   -1.2760   12.5080   -4.7350 O   0  0  0  0  0  0  0  0  0  0  0  0
  1  2  2  0
  2  3  2  0
  2  4  1  0
  2  5  1  0
  5  6  1  0
  4  7  1  0
  7  8  1  0
  6  9  1  0
  8 10  1  0
  9 11  1  0
  9 12  1  0
 10 13  1  0
 11 14  1  0
 12 15  1  0
 14 16  1  0
 15 16  1  0
 17 13  1  1
 17 18  1  0
 17 19  1  0
 19 20  1  1
 18 21  1  0
 19 22  1  0
 21 22  1  0
 22 23  1  1
M  END
