5FUD_0_A_α-6mea_A_0_A_γ
     RDKit          3D

 23 24  0  0  0  0  0  0  0  0999 V2000
   -2.2710   19.7330   -6.1890 O   0  0  0  0  0  0  0  0  0  0  0  0
   -1.4920   20.1110   -7.5240 S   0  0  0  0  0  0  0  0  0  0  0  0
   -0.2320   21.0330   -7.2070 O   0  0  0  0  0  0  0  0  0  0  0  0
   -0.9920   18.8470   -8.2780 O   0  0  0  0  0  0  0  0  0  0  0  0
   -2.4300   21.1470   -8.5540 C   0  0  0  0  0  0  0  0  0  0  0  0
   -2.4550   22.5050   -8.0260 C   0  0  0  0  0  0  0  0  0  0  0  0
    0.3540   18.9770   -8.0360 C   0  0  0  0  0  0  0  0  0  0  0  0
    0.6850   18.7910   -6.5350 C   0  0  0  0  0  0  0  0  0  0  0  0
   -3.8550   22.7640   -7.9480 N   0  0  0  0  0  0  0  0  0  0  0  0
    0.7210   17.3680   -5.9850 C   0  0  0  0  0  0  0  0  0  0  0  0
   -4.4680   22.9410   -9.2850 C   0  0  0  0  0  0  0  0  0  0  0  0
   -4.0860   23.8980   -7.1140 C   0  0  0  0  0  0  0  0  0  0  0  0
    0.6340   17.1370   -4.4880 C   0  0  0  0  0  0  0  0  0  0  0  0
   -5.9860   23.0860   -9.1540 C   0  0  0  0  0  0  0  0  0  0  0  0
   -5.5570   23.9640   -6.9340 C   0  0  0  0  0  0  0  0  0  0  0  0
   -6.3340   24.0440   -8.1470 O   0  0  0  0  0  0  0  0  0  0  0  0
   -0.1430   15.8830   -4.0780 C   0  0  2  0  0  0  0  0  0  0  0  0
    0.0450   15.4680   -2.7230 O   0  0  0  0  0  0  0  0  0  0  0  0
   -0.0220   14.5830   -4.8720 C   0  0  1  0  0  0  0  0  0  0  0  0
    1.2200   13.8720   -4.7860 O   0  0  0  0  0  0  0  0  0  0  0  0
   -0.6380   14.2030   -2.6340 C   0  0  0  0  0  0  0  0  0  0  0  0
   -1.0480   13.8240   -4.0600 C   0  0  2  0  0  0  0  0  0  0  0  0
   -0.9970   12.4340   -4.3200 O   0  0  0  0  0  0  0  0  0  0  0  0
  2  1  1  0
  2  3  1  0
  2  4  1  0
  2  5  1  0
  5  6  1  0
  4  7  1  0
  7  8  1  0
  6  9  1  0
  8 10  1  0
  9 11  1  0
  9 12  1  0
 10 13  1  0
 11 14  1  0
 12 15  1  0
 14 16  1  0
 15 16  1  0
 17 13  1  6
 17 18  1  0
 17 19  1  0
 19 20  1  1
 18 21  1  0
 19 22  1  0
 21 22  1  0
 22 23  1  1
M  END
