5fud_A_0_A_α-EU0860_0_A_β
     RDKit          3D

 27 28  0  0  0  0  0  0  0  0999 V2000
   -3.2730   20.0830   -6.3000 O   0  0  0  0  0  0  0  0  0  0  0  0
   -1.8660   19.8470   -6.5030 S   0  0  0  0  0  0  0  0  0  0  0  0
   -1.0230   19.2160   -5.5150 O   0  0  0  0  0  0  0  0  0  0  0  0
   -1.6430   19.0690   -7.8910 O   0  0  0  0  0  0  0  0  0  0  0  0
   -1.1280   21.2710   -7.2630 C   0  0  0  0  0  0  0  0  0  0  0  0
   -2.0940   21.9660   -8.1850 C   0  0  0  0  0  0  0  0  0  0  0  0
   -0.5870   19.6210   -8.6610 C   0  0  0  0  0  0  0  0  0  0  0  0
    0.3140   18.4180   -8.8970 C   0  0  0  0  0  0  0  0  0  0  0  0
   -3.3220   22.4010   -7.5540 N   0  0  0  0  0  0  0  0  0  0  0  0
    0.6920   17.3290  -10.3680 C   0  0  0  0  0  0  0  0  0  0  0  0
   -4.4860   22.2110   -8.3970 C   0  0  0  0  0  0  0  0  0  0  0  0
   -3.2920   23.8300   -7.3170 C   0  0  0  0  0  0  0  0  0  0  0  0
    1.4130   15.4290  -11.0770 C   0  0  0  0  0  0  0  0  0  0  0  0
   -5.7310   22.4330   -7.5390 C   0  0  0  0  0  0  0  0  0  0  0  0
   -4.4440   24.2810   -6.4340 C   0  0  0  0  0  0  0  0  0  0  0  0
    0.8110   13.8310  -11.3870 C   0  0  0  0  0  0  0  0  0  0  0  0
   -5.7070   23.6130   -6.6810 O   0  0  0  0  0  0  0  0  0  0  0  0
    1.5260   12.7280  -12.1760 C   0  0  0  0  0  0  0  0  0  0  0  0
    1.5220   11.3820  -11.4610 C   0  0  0  0  0  0  0  0  0  0  0  0
    2.2200   10.3510  -12.2300 N   0  0  0  0  0  0  0  0  0  0  0  0
    3.0300   10.6380  -13.3330 C   0  0  0  0  0  0  0  0  0  0  0  0
    2.8420   11.7080  -14.2200 C   0  0  0  0  0  0  0  0  0  0  0  0
    4.1190    9.7890  -13.5750 C   0  0  0  0  0  0  0  0  0  0  0  0
    3.7050   11.9200  -15.3010 C   0  0  0  0  0  0  0  0  0  0  0  0
    4.9830    9.9950  -14.6520 C   0  0  0  0  0  0  0  0  0  0  0  0
    4.7700   11.0610  -15.5090 C   0  0  0  0  0  0  0  0  0  0  0  0
    5.6360   11.2300  -16.5500 O   0  0  0  0  0  0  0  0  0  0  0  0
  1  2  2  0
  2  3  2  0
  2  4  1  0
  2  5  1  0
  5  6  1  0
  4  7  1  0
  7  8  1  0
  6  9  1  0
  8 10  1  0
  9 11  1  0
  9 12  1  0
 10 13  1  0
 11 14  1  0
 12 15  1  0
 13 16  1  0
 14 17  1  0
 15 17  1  0
 16 18  1  0
 18 19  1  0
 19 20  1  0
 20 21  1  0
 21 22  2  0
 21 23  1  0
 22 24  1  0
 23 25  2  0
 24 26  2  0
 25 26  1  0
 26 27  1  0
M  END
