5FUD_1_B_α-5cb5_C_0_C_γ
     RDKit          3D

 22 23  0  0  0  0  0  0  0  0999 V2000
   -1.2160   20.2900   -6.1530 O   0  0  0  0  0  0  0  0  0  0  0  0
   -0.7730   20.3940   -7.6900 S   0  0  0  0  0  0  0  0  0  0  0  0
    0.4170   21.4390   -7.8830 O   0  0  0  0  0  0  0  0  0  0  0  0
   -0.3780   18.9450   -8.1570 O   0  0  0  0  0  0  0  0  0  0  0  0
   -2.2130   21.0040   -8.4080 C   0  0  0  0  0  0  0  0  0  0  0  0
   -2.4660   22.3960   -7.9930 C   0  0  0  0  0  0  0  0  0  0  0  0
    0.4670   18.5780   -7.0860 C   0  0  0  0  0  0  0  0  0  0  0  0
   -0.3090   17.9310   -5.9740 C   0  0  0  0  0  0  0  0  0  0  0  0
   -3.8840   22.6190   -7.9570 N   0  0  0  0  0  0  0  0  0  0  0  0
    0.5280   16.9050   -5.2310 C   0  0  0  0  0  0  0  0  0  0  0  0
   -4.4240   22.9110   -9.3040 C   0  0  0  0  0  0  0  0  0  0  0  0
   -4.0820   23.7460   -7.0790 C   0  0  0  0  0  0  0  0  0  0  0  0
   -5.9150   23.2240   -9.2140 C   0  0  0  0  0  0  0  0  0  0  0  0
   -5.5600   23.9360   -7.0120 C   0  0  0  0  0  0  0  0  0  0  0  0
   -0.2600   15.7490   -4.6420 C   0  0  2  0  0  0  0  0  0  0  0  0
   -6.0970   24.2920   -8.2860 O   0  0  0  0  0  0  0  0  0  0  0  0
   -0.3010   15.7710   -3.2110 O   0  0  0  0  0  0  0  0  0  0  0  0
    0.0920   14.3120   -5.0500 C   0  0  1  0  0  0  0  0  0  0  0  0
    1.4510   14.1060   -5.3830 O   0  0  0  0  0  0  0  0  0  0  0  0
   -0.8900   14.5230   -2.8660 C   0  0  0  0  0  0  0  0  0  0  0  0
   -0.1810   13.5290   -3.7780 C   0  0  1  0  0  0  0  0  0  0  0  0
   -0.9710   12.4060   -4.1090 O   0  0  0  0  0  0  0  0  0  0  0  0
  2  1  1  0
  2  3  1  0
  2  4  1  0
  2  5  1  0
  5  6  1  0
  4  7  1  0
  7  8  1  0
  6  9  1  0
  8 10  1  0
  9 11  1  0
  9 12  1  0
 11 13  1  0
 12 14  1  0
 15 10  1  1
 13 16  1  0
 14 16  1  0
 15 17  1  0
 15 18  1  0
 18 19  1  1
 17 20  1  0
 18 21  1  0
 20 21  1  0
 21 22  1  6
M  END
