5FUD_1_B_α-1HJZ_0_B_α
     RDKit          3D

 13 13  0  0  0  0  0  0  0  0999 V2000
   -1.9570   18.6610   -7.1620 O   0  0  0  0  0  0  0  0  0  0  0  0
   -0.8590   19.5620   -7.9060 S   0  0  0  0  0  0  0  0  0  0  0  0
    0.2740   20.0910   -6.9310 O   0  0  0  0  0  0  0  0  0  0  0  0
   -0.1600   18.6640   -9.0150 O   0  0  0  0  0  0  0  0  0  0  0  0
   -1.6370   21.0500   -8.5270 C   0  0  0  0  0  0  0  0  0  0  0  0
   -2.4240   21.7740   -7.4510 C   0  0  0  0  0  0  0  0  0  0  0  0
    1.1950   21.0320   -7.5660 O   0  0  0  0  0  0  0  0  0  0  0  0
   -3.8170   22.1670   -7.7550 N   0  0  0  0  0  0  0  0  0  0  0  0
   -4.0750   22.5310   -9.1620 C   0  0  0  0  0  0  0  0  0  0  0  0
   -4.1250   23.3680   -6.9650 C   0  0  0  0  0  0  0  0  0  0  0  0
   -5.5290   22.9650   -9.4120 C   0  0  0  0  0  0  0  0  0  0  0  0
   -5.5650   23.7720   -7.1950 C   0  0  0  0  0  0  0  0  0  0  0  0
   -5.8840   24.0580   -8.5600 O   0  0  0  0  0  0  0  0  0  0  0  0
  2  1  1  0
  2  3  1  0
  2  4  1  0
  2  5  1  0
  5  6  1  0
  3  7  1  0
  6  8  1  0
  8  9  1  0
  8 10  1  0
  9 11  1  0
 10 12  1  0
 11 13  1  0
 12 13  1  0
M  END
