5FUD_1_B_α-5CB5_0_R_δ
     RDKit          3D

 27 29  0  0  0  0  0  0  0  0999 V2000
   -1.1990   20.3410   -6.0990 O   0  0  0  0  0  0  0  0  0  0  0  0
   -0.7690   20.2270   -7.6330 S   0  0  0  0  0  0  0  0  0  0  0  0
    0.5640   21.0450   -7.9670 O   0  0  0  0  0  0  0  0  0  0  0  0
   -0.6860   18.6790   -7.9740 O   0  0  0  0  0  0  0  0  0  0  0  0
   -2.1430   20.9760   -8.4110 C   0  0  0  0  0  0  0  0  0  0  0  0
   -2.3900   22.3790   -7.9910 C   0  0  0  0  0  0  0  0  0  0  0  0
   -0.6270   18.0240   -6.6940 C   0  0  0  0  0  0  0  0  0  0  0  0
   -2.0170   17.8360   -6.0770 C   0  0  0  0  0  0  0  0  0  0  0  0
   -3.8180   22.6160   -7.9480 N   0  0  0  0  0  0  0  0  0  0  0  0
   -2.2250   16.5170   -5.3050 C   0  0  0  0  0  0  0  0  0  0  0  0
   -4.4050   22.8580   -9.2820 C   0  0  0  0  0  0  0  0  0  0  0  0
   -4.0340   23.7910   -7.1340 C   0  0  0  0  0  0  0  0  0  0  0  0
   -1.0130   16.0480   -4.4870 C   0  0  0  0  0  0  0  0  0  0  0  0
   -5.9210   23.0310   -9.1440 C   0  0  0  0  0  0  0  0  0  0  0  0
   -5.5170   23.9370   -6.9780 C   0  0  0  0  0  0  0  0  0  0  0  0
   -1.3140   16.0540   -2.9750 C   0  0  0  0  0  0  0  0  0  0  0  0
   -6.2170   24.0890   -8.2260 O   0  0  0  0  0  0  0  0  0  0  0  0
   -1.7790   14.7380   -2.5160 N   0  0  0  0  0  0  0  0  0  0  0  0
   -1.5420   14.4400   -1.0890 C   0  0  2  0  0  0  0  0  0  0  0  0
   -3.2430   14.6560   -2.6250 C   0  0  0  0  0  0  0  0  0  0  0  0
   -2.8990   14.5460   -0.3740 C   0  0  2  0  0  0  0  0  0  0  0  0
   -3.8040   15.1110   -1.3750 N   0  0  0  0  0  0  0  0  0  0  0  0
   -0.5060   15.2230   -0.4390 N   0  0  0  0  0  0  0  0  0  0  0  0
   -0.3710   14.7460    0.9110 C   0  0  0  0  0  0  0  0  0  0  0  0
   -2.7040   15.4450    0.8410 C   0  0  1  0  0  0  0  0  0  0  0  0
   -3.8810   15.5340    1.7030 N   0  0  0  0  0  0  0  0  0  0  0  0
   -1.5830   15.0460    1.6600 N   0  0  0  0  0  0  0  0  0  0  0  0
  2  1  1  0
  2  3  1  0
  2  4  1  0
  2  5  1  0
  5  6  1  0
  4  7  1  0
  7  8  1  0
  6  9  1  0
  8 10  1  0
  9 11  1  0
  9 12  1  0
 10 13  1  0
 11 14  1  0
 12 15  1  0
 13 16  1  0
 14 17  1  0
 15 17  1  0
 16 18  1  0
 18 19  1  0
 18 20  1  0
 19 21  1  0
 20 22  1  0
 21 22  1  6
 19 23  1  1
 23 24  1  0
 21 25  1  0
 25 26  1  1
 24 27  1  0
 25 27  1  0
M  END
