5FUD_0_A_α-5cms_M_12_M_α
     RDKit          3D

 20 21  0  0  0  0  0  0  0  0999 V2000
   -0.6550   19.1210   -6.1490 O   0  0  0  0  0  0  0  0  0  0  0  0
   -0.4270   19.8220   -7.5550 S   0  0  0  0  0  0  0  0  0  0  0  0
    0.6400   20.9980   -7.6000 O   0  0  0  0  0  0  0  0  0  0  0  0
   -0.0320   18.7280   -8.6700 O   0  0  0  0  0  0  0  0  0  0  0  0
   -1.9920   20.4070   -8.0820 C   0  0  0  0  0  0  0  0  0  0  0  0
   -2.5800   21.7950   -7.9480 C   0  0  2  0  0  0  0  0  0  0  0  0
   -4.0320   21.9050   -7.5880 N   0  0  0  0  0  0  0  0  0  0  0  0
   -2.4570   22.3260   -9.3680 C   0  0  1  0  0  0  0  0  0  0  0  0
   -4.7680   22.3310   -8.8010 C   0  0  0  0  0  0  0  0  0  0  0  0
   -4.4160   22.7760   -6.4670 C   0  0  0  0  0  0  0  0  0  0  0  0
   -3.2210   21.6480  -10.4040 O   0  0  0  0  0  0  0  0  0  0  0  0
   -2.8590   23.7440   -9.3420 C   0  0  1  0  0  0  0  0  0  0  0  0
   -1.6350   24.4450   -9.1750 O   0  0  0  0  0  0  0  0  0  0  0  0
   -6.2350   22.6870   -8.6240 C   0  0  0  0  0  0  0  0  0  0  0  0
   -5.1850   24.0140   -6.9640 C   0  0  0  0  0  0  0  0  0  0  0  0
   -3.9720   22.5990  -11.1870 C   0  0  2  0  0  0  0  0  0  0  0  0
   -3.6820   23.9970  -10.6310 C   0  0  1  0  0  0  0  0  0  0  0  0
   -5.3600   22.3490  -11.1280 O   0  0  0  0  0  0  0  0  0  0  0  0
   -4.8790   24.6970  -10.4880 O   0  0  0  0  0  0  0  0  0  0  0  0
   -6.4020   23.7200   -7.6540 O   0  0  0  0  0  0  0  0  0  0  0  0
  2  1  1  0
  2  3  1  0
  2  4  1  0
  2  5  1  0
  6  5  1  6
  6  7  1  0
  6  8  1  0
  7  9  1  0
  7 10  1  0
  8 11  1  6
  8 12  1  0
 12 13  1  6
  9 14  1  0
 10 15  1  0
 11 16  1  0
 12 17  1  0
 16 17  1  0
 16 18  1  1
 17 19  1  1
 14 20  1  0
 15 20  1  0
M  END
