5FUD_1_B_α-5cms_L_11_L_γ
     RDKit          3D

 22 23  0  0  0  0  0  0  0  0999 V2000
   -1.2420   20.2850   -6.1550 O   0  0  0  0  0  0  0  0  0  0  0  0
   -0.8130   20.3960   -7.6960 S   0  0  0  0  0  0  0  0  0  0  0  0
    0.3910   21.4270   -7.8860 O   0  0  0  0  0  0  0  0  0  0  0  0
   -0.4340   18.9480   -8.1740 O   0  0  0  0  0  0  0  0  0  0  0  0
   -2.2450   21.0300   -8.4140 C   0  0  0  0  0  0  0  0  0  0  0  0
   -2.4740   22.4260   -7.9980 C   0  0  0  0  0  0  0  0  0  0  0  0
    0.4330   18.5830   -7.1210 C   0  0  0  0  0  0  0  0  0  0  0  0
   -0.2980   17.8600   -6.0260 C   0  0  0  0  0  0  0  0  0  0  0  0
   -3.8880   22.6630   -7.9430 N   0  0  0  0  0  0  0  0  0  0  0  0
    0.6010   16.8410   -5.3330 C   0  0  0  0  0  0  0  0  0  0  0  0
   -4.4750   22.8810   -9.2780 C   0  0  0  0  0  0  0  0  0  0  0  0
   -4.0710   23.8480   -7.1530 C   0  0  0  0  0  0  0  0  0  0  0  0
   -5.9900   23.0630   -9.1410 C   0  0  0  0  0  0  0  0  0  0  0  0
   -5.5480   23.9470   -6.9670 C   0  0  0  0  0  0  0  0  0  0  0  0
   -0.1140   15.6500   -4.7110 C   0  0  2  0  0  0  0  0  0  0  0  0
   -6.2780   24.1040   -8.2000 O   0  0  0  0  0  0  0  0  0  0  0  0
    0.0580   15.6310   -3.2860 O   0  0  0  0  0  0  0  0  0  0  0  0
    0.1350   14.2170   -5.2420 C   0  0  1  0  0  0  0  0  0  0  0  0
    1.2240   14.0740   -6.1200 O   0  0  0  0  0  0  0  0  0  0  0  0
   -0.1520   14.2790   -2.8880 C   0  0  0  0  0  0  0  0  0  0  0  0
    0.5040   13.4570   -3.9840 C   0  0  1  0  0  0  0  0  0  0  0  0
   -0.0030   12.1310   -4.0450 O   0  0  0  0  0  0  0  0  0  0  0  0
  2  1  1  0
  2  3  1  0
  2  4  1  0
  2  5  1  0
  5  6  1  0
  4  7  1  0
  7  8  1  0
  6  9  1  0
  8 10  1  0
  9 11  1  0
  9 12  1  0
 11 13  1  0
 12 14  1  0
 15 10  1  6
 13 16  1  0
 14 16  1  0
 15 17  1  0
 15 18  1  0
 18 19  1  6
 17 20  1  0
 18 21  1  0
 20 21  1  0
 21 22  1  6
M  END
