5L9K_0_A_δ-mArh-EU0123_0_A_α
     RDKit          3D

 18 20  0  0  0  0  0  0  0  0999 V2000
   -4.3750   15.4070    1.5360 N   0  0  0  0  0  0  0  0  0  0  0  0
   -3.0650   14.9530    1.0940 C   0  0  1  0  0  0  0  0  0  0  0  0
   -3.0570   15.2690   -0.4100 C   0  0  1  0  0  0  0  0  0  0  0  0
   -5.3730   15.2740    0.5490 C   0  0  0  0  0  0  0  0  0  0  0  0
   -1.8080   15.4220    1.6510 N   0  0  0  0  0  0  0  0  0  0  0  0
   -5.2260   15.7550   -0.7620 C   0  0  0  0  0  0  0  0  0  0  0  0
   -6.5990   14.6380    0.8330 C   0  0  0  0  0  0  0  0  0  0  0  0
   -6.9600   14.0760    2.1590 C   0  0  0  0  0  0  0  0  0  0  0  0
   -1.8130   14.6680   -0.9880 C   0  0  1  0  0  0  0  0  0  0  0  0
   -4.0500   14.6920   -1.3160 N   0  0  0  0  0  0  0  0  0  0  0  0
   -0.6470   14.8090    1.0350 C   0  0  0  0  0  0  0  0  0  0  0  0
   -6.2490   15.5820   -1.6820 C   0  0  0  0  0  0  0  0  0  0  0  0
   -7.5510   14.5240   -0.1680 C   0  0  0  0  0  0  0  0  0  0  0  0
   -6.7480   15.0330    3.1840 O   0  0  0  0  0  0  0  0  0  0  0  0
   -1.9730   15.0690   -2.3580 N   0  0  0  0  0  0  0  0  0  0  0  0
   -3.4140   14.9730   -2.6020 C   0  0  0  0  0  0  0  0  0  0  0  0
   -0.6310   15.1660   -0.3640 N   0  0  0  0  0  0  0  0  0  0  0  0
   -7.4100   14.9770   -1.4180 N   0  0  0  0  0  0  0  0  0  0  0  0
  2  1  1  1
  2  3  1  0
  1  4  1  0
  2  5  1  0
  4  6  2  0
  4  7  1  0
  7  8  1  0
  3  9  1  0
  3 10  1  6
  5 11  1  0
  6 12  1  0
  7 13  2  0
  8 14  1  0
  9 15  1  6
 10 16  1  0
 15 16  1  0
  9 17  1  0
 11 17  1  0
 12 18  2  0
 13 18  1  0
M  END
