5L9K_0_B_α-5CMS_0_E_β
     RDKit          3D

 17 17  0  0  0  0  0  0  0  0999 V2000
   -2.4550   21.1060   -7.4540 C   0  0  0  0  0  0  0  0  0  0  0  0
   -0.9400   20.3230   -7.9540 P   0  0  0  0  0  0  0  0  0  0  0  0
   -0.6860   19.4870   -6.6700 O   0  0  0  0  0  0  0  0  0  0  0  0
   -3.3610   21.8090   -8.4930 C   0  0  1  0  0  0  0  0  0  0  0  0
    0.5030   21.0220   -7.7480 O   0  0  0  0  0  0  0  0  0  0  0  0
   -0.9010   18.7980   -8.7060 O   0  0  0  0  0  0  0  0  0  0  0  0
   -4.6450   21.3010   -8.4900 O   0  0  0  0  0  0  0  0  0  0  0  0
   -3.6880   23.2860   -8.2160 C   0  0  1  0  0  0  0  0  0  0  0  0
   -4.5010   23.8020   -9.2330 O   0  0  0  0  0  0  0  0  0  0  0  0
   -1.5400   18.1400   -6.1910 P   0  0  0  0  0  0  0  0  0  0  0  0
   -5.4160   21.9900   -7.5790 C   0  0  1  0  0  0  0  0  0  0  0  0
   -4.5890   23.0810   -7.0110 C   0  0  2  0  0  0  0  0  0  0  0  0
   -6.5220   22.5440   -8.1900 O   0  0  0  0  0  0  0  0  0  0  0  0
   -5.3670   24.2450   -6.7880 O   0  0  0  0  0  0  0  0  0  0  0  0
   -0.9230   17.0940   -5.0250 O   0  0  0  0  0  0  0  0  0  0  0  0
   -2.1560   18.9590   -5.1010 O   0  0  0  0  0  0  0  0  0  0  0  0
   -2.9070   17.7470   -6.8600 O   0  0  0  0  0  0  0  0  0  0  0  0
  1  2  1  0
  2  3  1  0
  4  1  1  1
  2  5  1  0
  2  6  1  0
  4  7  1  0
  4  8  1  0
  8  9  1  6
  3 10  1  0
  7 11  1  0
  8 12  1  0
 11 12  1  0
 11 13  1  6
 12 14  1  6
 10 15  1  0
 10 16  1  0
 10 17  1  0
M  CHG  2   5  -1  16  -1
M  END
