5l9k_A_0_A_γ-5CMS_0_G_β
     RDKit          3D

  8  8  0  0  0  0  0  0  0  0999 V2000
   -2.3690   12.8380   -4.7410 O   0  0  0  0  0  0  0  0  0  0  0  0
   -1.9570   14.1770   -4.5520 C   0  0  1  0  0  0  0  0  0  0  0  0
   -1.6980   14.6150   -3.1100 C   0  0  0  0  0  0  0  0  0  0  0  0
   -0.5570   14.3500   -5.0560 C   0  0  2  0  0  0  0  0  0  0  0  0
    0.3380   13.4490   -4.4170 O   0  0  0  0  0  0  0  0  0  0  0  0
   -0.6980   15.6610   -3.2280 O   0  0  0  0  0  0  0  0  0  0  0  0
   -0.4830   15.8030   -4.6390 C   0  0  1  0  0  0  0  0  0  0  0  0
    0.7550   16.6030   -4.9760 C   0  0  0  0  0  0  0  0  0  0  0  0
  2  1  1  1
  2  3  1  0
  2  4  1  0
  4  5  1  1
  3  6  1  0
  4  7  1  0
  6  7  1  0
  7  8  1  1
M  END
