5L9K_0_A_β-6MEA_0_A_γ
     RDKit          3D

 18 18  0  0  0  0  0  0  0  0999 V2000
   -1.8840   20.9130   -8.6420 O   0  0  0  0  0  0  0  0  0  0  0  0
   -0.9180   19.7760   -7.9040 P   0  0  0  0  0  0  0  0  0  0  0  0
   -1.1110   19.5000   -6.3390 O   0  0  0  0  0  0  0  0  0  0  0  0
   -0.0140   18.7520   -8.8200 O   0  0  0  0  0  0  0  0  0  0  0  0
    0.2350   20.7320   -7.7190 O   0  0  0  0  0  0  0  0  0  0  0  0
   -2.0700   18.2360   -6.0210 P   0  0  0  0  0  0  0  0  0  0  0  0
   -0.9120   17.2500   -6.0340 O   0  0  0  0  0  0  0  0  0  0  0  0
   -2.2420   17.7860   -4.4250 O   0  0  0  0  0  0  0  0  0  0  0  0
   -2.9370   17.4430   -7.0460 O   0  0  0  0  0  0  0  0  0  0  0  0
    0.3420   17.7130   -5.6650 C   0  0  0  0  0  0  0  0  0  0  0  0
    0.9300   16.6790   -4.8090 C   0  0  0  0  0  0  0  0  0  0  0  0
   -0.0500   15.7120   -4.2790 C   0  0  2  0  0  0  0  0  0  0  0  0
    0.2370   15.3470   -2.9630 O   0  0  0  0  0  0  0  0  0  0  0  0
   -0.1160   14.3940   -4.9450 C   0  0  1  0  0  0  0  0  0  0  0  0
    1.1090   13.7310   -4.8870 O   0  0  0  0  0  0  0  0  0  0  0  0
   -0.5410   14.2410   -2.6980 C   0  0  0  0  0  0  0  0  0  0  0  0
   -1.0750   13.7410   -4.0160 C   0  0  2  0  0  0  0  0  0  0  0  0
   -0.9160   12.3670   -4.2080 O   0  0  0  0  0  0  0  0  0  0  0  0
  1  2  1  0
  2  3  1  0
  2  4  1  0
  2  5  1  0
  3  6  1  0
  6  7  1  0
  6  8  1  0
  6  9  1  0
  7 10  1  0
 10 11  1  0
 12 11  1  6
 12 13  1  0
 12 14  1  0
 14 15  1  1
 13 16  1  0
 14 17  1  0
 16 17  1  0
 17 18  1  1
M  CHG  2   4  -1   8  -1
M  END
