5l9k_B_0_B_γ-2FAV_0_B_γ
     RDKit          3D

  9  9  0  0  0  0  0  0  0  0999 V2000
   -2.1230   12.8850   -4.7800 O   0  0  0  0  0  0  0  0  0  0  0  0
   -1.5450   14.1900   -4.6570 C   0  0  1  0  0  0  0  0  0  0  0  0
   -1.7620   14.7590   -3.2520 C   0  0  0  0  0  0  0  0  0  0  0  0
   -0.0100   14.1340   -4.6490 C   0  0  0  0  0  0  0  0  0  0  0  0
    0.3640   13.1280   -3.7420 O   0  0  0  0  0  0  0  0  0  0  0  0
    0.6680   13.8320   -5.8490 O   0  0  0  0  0  0  0  0  0  0  0  0
   -0.6230   15.6160   -3.0050 O   0  0  0  0  0  0  0  0  0  0  0  0
    0.2410   15.5550   -4.1510 C   0  0  2  0  0  0  0  0  0  0  0  0
   -0.0900   16.7010   -5.1040 C   0  0  0  0  0  0  0  0  0  0  0  0
  2  1  1  1
  2  3  1  0
  2  4  1  0
  4  5  1  0
  4  6  1  0
  3  7  1  0
  4  8  1  0
  7  8  1  0
  8  9  1  6
M  END
