5L9K_0_A_δ-5cb5_G_0_G_α
     RDKit          3D

 24 26  0  0  0  0  0  0  0  0999 V2000
   -4.4870   15.5110    1.6510 N   0  0  0  0  0  0  0  0  0  0  0  0
   -3.4550   14.7770    0.9430 C   0  0  1  0  0  0  0  0  0  0  0  0
   -3.2590   15.1410   -0.5600 C   0  0  1  0  0  0  0  0  0  0  0  0
   -2.2630   15.1300    1.7130 N   0  0  0  0  0  0  0  0  0  0  0  0
   -1.9160   14.5120   -0.9120 C   0  0  1  0  0  0  0  0  0  0  0  0
   -4.0440   14.6970   -1.7330 N   0  0  0  0  0  0  0  0  0  0  0  0
   -1.0340   14.5290    1.2340 C   0  0  0  0  0  0  0  0  0  0  0  0
   -1.7290   14.8470   -2.2860 N   0  0  0  0  0  0  0  0  0  0  0  0
   -3.0370   14.6760   -2.8730 C   0  0  2  0  0  0  0  0  0  0  0  0
   -0.8090   14.9620   -0.1190 N   0  0  0  0  0  0  0  0  0  0  0  0
   -3.2860   15.7240   -3.9990 C   0  0  0  0  0  0  0  0  0  0  0  0
   -2.0920   16.3910   -4.8160 C   0  0  0  0  0  0  0  0  0  0  0  0
   -2.4460   17.4320   -5.9450 C   0  0  0  0  0  0  0  0  0  0  0  0
   -2.2410   18.9910   -5.7340 C   0  0  0  0  0  0  0  0  0  0  0  0
   -3.1330   19.8380   -6.7020 C   0  0  0  0  0  0  0  0  0  0  0  0
   -3.9490   20.9210   -6.1520 O   0  0  0  0  0  0  0  0  0  0  0  0
   -4.7610   21.5540   -7.1830 C   0  0  2  0  0  0  0  0  0  0  0  0
   -4.3390   21.0730   -8.4470 O   0  0  0  0  0  0  0  0  0  0  0  0
   -4.5880   23.0990   -7.2380 C   0  0  2  0  0  0  0  0  0  0  0  0
   -5.8600   23.7850   -7.3600 O   0  0  0  0  0  0  0  0  0  0  0  0
   -3.3190   21.9560   -8.9090 C   0  0  1  0  0  0  0  0  0  0  0  0
   -3.7780   23.3510   -8.5280 C   0  0  1  0  0  0  0  0  0  0  0  0
   -1.9610   21.6200   -8.3080 C   0  0  0  0  0  0  0  0  0  0  0  0
   -4.5370   23.9640   -9.5720 O   0  0  0  0  0  0  0  0  0  0  0  0
  2  1  1  1
  2  3  1  0
  2  4  1  0
  3  5  1  0
  3  6  1  6
  4  7  1  0
  5  8  1  6
  6  9  1  0
  8  9  1  0
  5 10  1  0
  7 10  1  0
  9 11  1  6
 11 12  1  0
 12 13  1  0
 13 14  1  0
 14 15  1  0
 15 16  1  0
 17 16  1  1
 17 18  1  0
 17 19  1  0
 19 20  1  6
 18 21  1  0
 19 22  1  0
 21 22  1  0
 21 23  1  1
 22 24  1  6
M  END
