5L9K_0_B_Î³
     RDKit          3D

  8  8  0  0  0  0  0  0  0  0999 V2000
   -1.5310   14.7160   -2.7990 C   0  0  0  0  0  0  0  0  0  0  0  0
   -0.8970   15.9310   -3.2140 O   0  0  0  0  0  0  0  0  0  0  0  0
   -2.0500   14.1260   -4.0910 C   0  0  1  0  0  0  0  0  0  0  0  0
   -0.2600   15.6680   -4.4710 C   0  0  1  0  0  0  0  0  0  0  0  0
   -0.8110   14.3110   -4.9410 C   0  0  1  0  0  0  0  0  0  0  0  0
   -2.4370   12.7630   -3.9730 O   0  0  0  0  0  0  0  0  0  0  0  0
   -0.5140   16.8180   -5.4440 C   0  0  0  0  0  0  0  0  0  0  0  0
    0.1680   13.3090   -4.6610 O   0  0  0  0  0  0  0  0  0  0  0  0
  1  2  1  1
  1  3  1  0
  4  2  1  0
  5  3  1  0
  3  6  1  1
  4  7  1  6
  4  5  1  0
  5  8  1  1
M  END
