5L9K_0_B_γ-6woj_D_0_D_γ
     RDKit          3D

  9  9  0  0  0  0  0  0  0  0999 V2000
   -2.2500   12.9310   -4.7440 O   0  0  0  0  0  0  0  0  0  0  0  0
   -1.6350   14.2080   -4.6040 C   0  0  1  0  0  0  0  0  0  0  0  0
   -1.7410   14.7490   -3.1830 C   0  0  0  0  0  0  0  0  0  0  0  0
   -0.1110   14.1030   -4.7030 C   0  0  0  0  0  0  0  0  0  0  0  0
    0.3160   13.0700   -3.8470 O   0  0  0  0  0  0  0  0  0  0  0  0
    0.4330   13.8060   -5.9610 O   0  0  0  0  0  0  0  0  0  0  0  0
   -0.5810   15.5980   -3.0110 O   0  0  0  0  0  0  0  0  0  0  0  0
    0.2180   15.5100   -4.2070 C   0  0  2  0  0  0  0  0  0  0  0  0
   -0.1230   16.6720   -5.1370 C   0  0  0  0  0  0  0  0  0  0  0  0
  2  1  1  1
  2  3  1  0
  2  4  1  0
  4  5  1  0
  4  6  1  0
  3  7  1  0
  4  8  1  0
  7  8  1  0
  8  9  1  6
M  END
