5L9K_0_A_δ-mArh-3ew5_B_0_B_α
     RDKit          3D

 24 25  0  0  0  0  0  0  0  0999 V2000
   -4.1010   15.7250    2.0930 N   0  0  0  0  0  0  0  0  0  0  0  0
   -3.1700   15.0430    1.2050 C   0  0  1  0  0  0  0  0  0  0  0  0
   -3.3790   15.4660   -0.2520 C   0  0  1  0  0  0  0  0  0  0  0  0
   -1.8550   15.3760    1.6390 N   0  0  0  0  0  0  0  0  0  0  0  0
   -2.0210   15.4990   -0.9760 C   0  0  2  0  0  0  0  0  0  0  0  0
   -4.2340   14.5840   -1.0550 N   0  0  0  0  0  0  0  0  0  0  0  0
   -0.7570   14.7630    0.9400 C   0  0  0  0  0  0  0  0  0  0  0  0
   -2.3750   15.1750   -2.3620 N   0  0  0  0  0  0  0  0  0  0  0  0
   -3.8210   14.9530   -2.4030 C   0  0  0  0  0  0  0  0  0  0  0  0
   -1.0870   14.5130   -0.4510 N   0  0  0  0  0  0  0  0  0  0  0  0
   -1.8730   15.9610   -3.5190 C   0  0  0  0  0  0  0  0  0  0  0  0
   -0.4370   16.5470   -3.6450 C   0  0  0  0  0  0  0  0  0  0  0  0
   -0.3360   17.9850   -4.2210 C   0  0  0  0  0  0  0  0  0  0  0  0
    0.1520   18.0960   -5.6790 C   0  0  0  0  0  0  0  0  0  0  0  0
   -0.6890   19.0420   -6.3560 O   0  0  0  0  0  0  0  0  0  0  0  0
   -0.2520   19.7340   -7.7480 P   0  0  2  0  0  0  0  0  0  0  0  0
   -1.4990   20.7390   -8.0130 O   0  0  0  0  0  0  0  0  0  0  0  0
    0.0750   18.7650   -8.8260 O   0  0  0  0  0  0  0  0  0  0  0  0
    0.9640   20.7250   -7.4220 O   0  0  0  0  0  0  0  0  0  0  0  0
   -2.4840   20.8600   -6.9870 C   0  0  0  0  0  0  0  0  0  0  0  0
   -3.6600   21.8100   -7.3130 C   0  0  2  0  0  0  0  0  0  0  0  0
   -5.0330   21.1440   -7.1190 C   0  0  0  0  0  0  0  0  0  0  0  0
   -3.6080   22.2040   -8.6880 O   0  0  0  0  0  0  0  0  0  0  0  0
   -5.6940   21.5670   -5.9120 O   0  0  0  0  0  0  0  0  0  0  0  0
  2  1  1  1
  2  3  1  0
  2  4  1  0
  3  5  1  0
  3  6  1  6
  4  7  1  0
  5  8  1  0
  6  9  1  0
  8  9  1  0
  5 10  1  1
  7 10  1  0
  8 11  1  0
 11 12  1  0
 12 13  1  0
 13 14  1  0
 14 15  1  0
 15 16  1  0
 16 17  1  0
 16 18  2  0
 16 19  1  1
 17 20  1  0
 20 21  1  0
 21 22  1  0
 21 23  1  6
 22 24  1  0
M  END
