5l9k_B_0_B_β-6woj_D_0_D_γ
     RDKit          3D

 18 18  0  0  0  0  0  0  0  0999 V2000
   -1.7320   20.7550   -8.8390 O   0  0  0  0  0  0  0  0  0  0  0  0
   -0.7930   19.8480   -7.9380 P   0  0  0  0  0  0  0  0  0  0  0  0
   -1.6290   19.5950   -6.6290 O   0  0  0  0  0  0  0  0  0  0  0  0
   -0.3580   18.6330   -8.6930 O   0  0  0  0  0  0  0  0  0  0  0  0
    0.4000   20.8380   -7.6290 O   0  0  0  0  0  0  0  0  0  0  0  0
   -1.8650   18.1980   -5.9600 P   0  0  1  0  0  0  0  0  0  0  0  0
   -0.5710   17.3710   -6.2920 O   0  0  0  0  0  0  0  0  0  0  0  0
   -2.2150   18.1820   -4.5430 O   0  0  0  0  0  0  0  0  0  0  0  0
   -2.9300   17.4900   -6.8910 O   0  0  0  0  0  0  0  0  0  0  0  0
    0.6070   17.7890   -5.6400 C   0  0  0  0  0  0  0  0  0  0  0  0
    1.1620   16.6490   -4.8180 C   0  0  0  0  0  0  0  0  0  0  0  0
    0.1530   15.6220   -4.3870 C   0  0  2  0  0  0  0  0  0  0  0  0
    0.2330   15.3270   -2.9770 O   0  0  0  0  0  0  0  0  0  0  0  0
    0.2770   14.2550   -5.0550 C   0  0  1  0  0  0  0  0  0  0  0  0
    1.5320   13.6030   -4.8350 O   0  0  0  0  0  0  0  0  0  0  0  0
   -0.4400   14.0550   -2.8420 C   0  0  0  0  0  0  0  0  0  0  0  0
   -0.8150   13.5900   -4.2550 C   0  0  2  0  0  0  0  0  0  0  0  0
   -0.7470   12.1750   -4.3720 O   0  0  0  0  0  0  0  0  0  0  0  0
  1  2  1  0
  2  3  1  0
  2  4  2  0
  2  5  1  0
  3  6  1  0
  6  7  1  0
  6  8  2  0
  6  9  1  6
  7 10  1  0
 10 11  1  0
 12 11  1  6
 12 13  1  0
 12 14  1  0
 14 15  1  1
 13 16  1  0
 14 17  1  0
 16 17  1  0
 17 18  1  1
M  END
