5L9K_0_B_γ-5CB3_0_A_α
     RDKit          3D

 21 22  0  0  0  0  0  0  0  0999 V2000
   -2.0940   12.7080   -4.7680 O   0  0  0  0  0  0  0  0  0  0  0  0
   -1.8500   14.0650   -4.4990 C   0  0  1  0  0  0  0  0  0  0  0  0
   -1.6120   14.4600   -3.0430 C   0  0  0  0  0  0  0  0  0  0  0  0
   -0.5220   14.5040   -5.0440 C   0  0  2  0  0  0  0  0  0  0  0  0
    0.5130   13.7160   -4.4580 O   0  0  0  0  0  0  0  0  0  0  0  0
   -0.7570   15.6240   -3.1290 O   0  0  0  0  0  0  0  0  0  0  0  0
   -0.6920   15.9190   -4.5350 C   0  0  1  0  0  0  0  0  0  0  0  0
    0.3240   17.0200   -4.8550 C   0  0  0  0  0  0  0  0  0  0  0  0
    0.1440   17.7010   -6.2180 C   0  0  0  0  0  0  0  0  0  0  0  0
   -0.2820   19.1530   -6.2730 C   0  0  0  0  0  0  0  0  0  0  0  0
   -1.4020   19.4730   -7.2770 C   0  0  0  0  0  0  0  0  0  0  0  0
   -1.1220   20.6310   -8.2560 C   0  0  0  0  0  0  0  0  0  0  0  0
   -1.8630   21.9480   -7.9260 C   0  0  0  0  0  0  0  0  0  0  0  0
   -3.2900   22.0700   -8.5040 C   0  0  1  0  0  0  0  0  0  0  0  0
   -4.0980   21.2450   -7.6740 O   0  0  0  0  0  0  0  0  0  0  0  0
   -3.9250   23.4750   -8.4420 C   0  0  1  0  0  0  0  0  0  0  0  0
   -4.3340   24.0120   -9.6900 O   0  0  0  0  0  0  0  0  0  0  0  0
   -5.3380   21.8800   -7.3740 C   0  0  2  0  0  0  0  0  0  0  0  0
   -5.1650   23.3610   -7.5660 C   0  0  1  0  0  0  0  0  0  0  0  0
   -5.6950   21.6140   -6.0240 O   0  0  0  0  0  0  0  0  0  0  0  0
   -5.1200   24.0610   -6.3370 O   0  0  0  0  0  0  0  0  0  0  0  0
  2  1  1  1
  2  3  1  0
  2  4  1  0
  4  5  1  1
  3  6  1  0
  4  7  1  0
  6  7  1  0
  7  8  1  1
  8  9  1  0
  9 10  1  0
 10 11  1  0
 11 12  1  0
 12 13  1  0
 14 13  1  1
 14 15  1  0
 14 16  1  0
 16 17  1  6
 15 18  1  0
 16 19  1  0
 18 19  1  0
 18 20  1  1
 19 21  1  1
M  END
