5L9K_0_B_γ-3ew5_C_0_C_α
     RDKit          3D

 19 19  0  0  0  0  0  0  0  0999 V2000
   -2.8100   13.2060   -4.2660 O   0  0  0  0  0  0  0  0  0  0  0  0
   -1.5190   13.6270   -3.8590 C   0  0  2  0  0  0  0  0  0  0  0  0
   -1.5440   14.6930   -2.7770 C   0  0  0  0  0  0  0  0  0  0  0  0
   -0.7300   14.2840   -4.9890 C   0  0  2  0  0  0  0  0  0  0  0  0
    0.5520   13.6740   -5.0810 O   0  0  0  0  0  0  0  0  0  0  0  0
   -0.6200   15.7020   -3.1940 O   0  0  0  0  0  0  0  0  0  0  0  0
   -0.7510   15.7700   -4.6070 C   0  0  1  0  0  0  0  0  0  0  0  0
    0.2540   16.7710   -5.2230 C   0  0  0  0  0  0  0  0  0  0  0  0
   -0.1430   18.2520   -5.4140 C   0  0  0  0  0  0  0  0  0  0  0  0
   -0.8820   18.5220   -6.6130 O   0  0  0  0  0  0  0  0  0  0  0  0
   -0.3650   19.6230   -7.6790 P   0  0  1  0  0  0  0  0  0  0  0  0
   -1.6370   20.4620   -8.2190 O   0  0  0  0  0  0  0  0  0  0  0  0
    0.8220   20.4440   -7.3530 O   0  0  0  0  0  0  0  0  0  0  0  0
    0.0480   18.6530   -8.8740 O   0  0  0  0  0  0  0  0  0  0  0  0
   -2.1370   21.5460   -7.4260 C   0  0  0  0  0  0  0  0  0  0  0  0
   -3.6110   21.8600   -7.7310 C   0  0  2  0  0  0  0  0  0  0  0  0
   -3.8170   23.1840   -8.4690 C   0  0  0  0  0  0  0  0  0  0  0  0
   -4.3540   21.9120   -6.5010 O   0  0  0  0  0  0  0  0  0  0  0  0
   -4.5590   22.9430   -9.6720 O   0  0  0  0  0  0  0  0  0  0  0  0
  2  1  1  6
  2  3  1  0
  2  4  1  0
  4  5  1  1
  3  6  1  0
  4  7  1  0
  6  7  1  0
  7  8  1  6
  8  9  1  0
  9 10  1  0
 10 11  1  0
 11 12  1  0
 11 13  2  0
 11 14  1  6
 12 15  1  0
 15 16  1  0
 16 17  1  0
 16 18  1  1
 17 19  1  0
M  END
