5L9K_0_A_β-5DUS_0_A_γ
     RDKit          3D

 18 18  0  0  0  0  0  0  0  0999 V2000
   -1.7410   20.8620   -8.6010 O   0  0  0  0  0  0  0  0  0  0  0  0
   -0.6880   19.7350   -7.9590 P   0  0  0  0  0  0  0  0  0  0  0  0
   -0.6670   19.4410   -6.3940 O   0  0  0  0  0  0  0  0  0  0  0  0
    0.0760   18.6800   -8.9400 O   0  0  0  0  0  0  0  0  0  0  0  0
    0.4610   20.7060   -7.9160 O   0  0  0  0  0  0  0  0  0  0  0  0
   -2.0930   18.8450   -5.9950 P   0  0  0  0  0  0  0  0  0  0  0  0
   -1.7490   17.4280   -6.4160 O   0  0  0  0  0  0  0  0  0  0  0  0
   -2.2230   18.1050   -4.4940 O   0  0  0  0  0  0  0  0  0  0  0  0
   -3.3510   18.9910   -6.9290 O   0  0  0  0  0  0  0  0  0  0  0  0
   -1.4300   16.6050   -5.3360 C   0  0  0  0  0  0  0  0  0  0  0  0
    0.0130   16.7290   -5.0130 C   0  0  0  0  0  0  0  0  0  0  0  0
    0.6220   15.4800   -4.4610 C   0  0  1  0  0  0  0  0  0  0  0  0
    0.3820   15.4270   -3.0740 O   0  0  0  0  0  0  0  0  0  0  0  0
   -0.0030   14.2360   -4.9870 C   0  0  1  0  0  0  0  0  0  0  0  0
    0.8560   13.1610   -4.7830 O   0  0  0  0  0  0  0  0  0  0  0  0
   -0.6060   14.5050   -2.7980 C   0  0  0  0  0  0  0  0  0  0  0  0
   -1.2100   14.1040   -4.1030 C   0  0  2  0  0  0  0  0  0  0  0  0
   -1.6290   12.7640   -4.1360 O   0  0  0  0  0  0  0  0  0  0  0  0
  1  2  1  0
  2  3  1  0
  2  4  1  0
  2  5  1  0
  3  6  1  0
  6  7  1  0
  6  8  1  0
  6  9  1  0
  7 10  1  0
 10 11  1  0
 12 11  1  6
 12 13  1  0
 12 14  1  0
 14 15  1  1
 13 16  1  0
 14 17  1  0
 16 17  1  0
 17 18  1  1
M  CHG  2   4  -1   8  -1
M  END
