5l9k_B_0_B_γ-5CB5_0_O_α
     RDKit          3D

 21 22  0  0  0  0  0  0  0  0999 V2000
   -2.1600   12.7910   -4.7510 O   0  0  0  0  0  0  0  0  0  0  0  0
   -1.8710   14.1390   -4.4680 C   0  0  1  0  0  0  0  0  0  0  0  0
   -1.6530   14.4960   -3.0020 C   0  0  0  0  0  0  0  0  0  0  0  0
   -0.5160   14.5420   -4.9870 C   0  0  2  0  0  0  0  0  0  0  0  0
    0.4790   13.6920   -4.4230 O   0  0  0  0  0  0  0  0  0  0  0  0
   -0.7440   15.6190   -3.0380 O   0  0  0  0  0  0  0  0  0  0  0  0
   -0.6330   15.9480   -4.4320 C   0  0  1  0  0  0  0  0  0  0  0  0
    0.4460   17.0070   -4.6880 C   0  0  0  0  0  0  0  0  0  0  0  0
    0.4500   17.5880   -6.0970 C   0  0  0  0  0  0  0  0  0  0  0  0
    0.0170   19.0290   -6.3490 C   0  0  0  0  0  0  0  0  0  0  0  0
   -0.9290   19.1850   -7.5590 C   0  0  0  0  0  0  0  0  0  0  0  0
   -0.9410   20.5480   -8.2850 C   0  0  0  0  0  0  0  0  0  0  0  0
   -1.8950   21.6320   -7.7250 C   0  0  0  0  0  0  0  0  0  0  0  0
   -3.1430   21.9510   -8.5970 C   0  0  1  0  0  0  0  0  0  0  0  0
   -4.2280   21.1160   -8.1930 O   0  0  0  0  0  0  0  0  0  0  0  0
   -3.7070   23.3710   -8.4100 C   0  0  1  0  0  0  0  0  0  0  0  0
   -4.4710   23.8990   -9.4970 O   0  0  0  0  0  0  0  0  0  0  0  0
   -4.7000   21.7060   -6.9920 C   0  0  1  0  0  0  0  0  0  0  0  0
   -4.5330   23.2310   -7.1290 C   0  0  2  0  0  0  0  0  0  0  0  0
   -6.0500   21.3440   -6.7730 O   0  0  0  0  0  0  0  0  0  0  0  0
   -5.7750   23.9380   -7.1880 O   0  0  0  0  0  0  0  0  0  0  0  0
  2  1  1  1
  2  3  1  0
  2  4  1  0
  4  5  1  1
  3  6  1  0
  4  7  1  0
  6  7  1  0
  7  8  1  1
  8  9  1  0
  9 10  1  0
 10 11  1  0
 11 12  1  0
 12 13  1  0
 14 13  1  1
 14 15  1  0
 14 16  1  0
 16 17  1  6
 15 18  1  0
 16 19  1  0
 18 19  1  0
 18 20  1  6
 19 21  1  6
M  END
