5L9K_0_A_α-mArh-5dus_0_A_β
     RDKit          3D

 17 17  0  0  0  0  0  0  0  0999 V2000
   -2.1040   21.3290   -8.5920 C   0  0  0  0  0  0  0  0  0  0  0  0
   -0.9460   20.2700   -7.6970 P   0  0  2  0  0  0  0  0  0  0  0  0
   -1.5730   19.7440   -6.3420 O   0  0  0  0  0  0  0  0  0  0  0  0
   -3.5620   21.7070   -8.2590 C   0  0  1  0  0  0  0  0  0  0  0  0
    0.4290   20.8400   -7.5440 O   0  0  0  0  0  0  0  0  0  0  0  0
   -0.8130   18.9030   -8.5520 O   0  0  0  0  0  0  0  0  0  0  0  0
   -4.0360   21.0980   -7.0600 O   0  0  0  0  0  0  0  0  0  0  0  0
   -3.8720   23.2230   -8.1380 C   0  0  1  0  0  0  0  0  0  0  0  0
   -4.7050   23.7130   -9.2040 O   0  0  0  0  0  0  0  0  0  0  0  0
   -1.7270   18.2120   -5.9840 P   0  0  0  0  0  0  0  0  0  0  0  0
   -5.1140   21.9130   -6.6220 C   0  0  1  0  0  0  0  0  0  0  0  0
   -4.5890   23.3330   -6.7870 C   0  0  2  0  0  0  0  0  0  0  0  0
   -6.2930   21.6980   -7.3820 O   0  0  0  0  0  0  0  0  0  0  0  0
   -5.7190   24.2140   -6.8130 O   0  0  0  0  0  0  0  0  0  0  0  0
   -0.2780   17.5650   -6.0150 O   0  0  0  0  0  0  0  0  0  0  0  0
   -2.7450   17.4230   -6.7140 O   0  0  0  0  0  0  0  0  0  0  0  0
   -1.9210   18.2590   -4.4260 O   0  0  0  0  0  0  0  0  0  0  0  0
  1  2  1  0
  2  3  1  0
  4  1  1  1
  2  5  2  0
  2  6  1  6
  4  7  1  0
  4  8  1  0
  8  9  1  6
  3 10  1  0
  7 11  1  0
  8 12  1  0
 11 12  1  0
 11 13  1  6
 12 14  1  6
 10 15  1  0
 10 16  2  0
 10 17  1  0
M  END
