5L9K_0_B_δ-x0900_0_A_α
     RDKit          3D

 11 12  0  0  0  0  0  0  0  0999 V2000
   -4.3740   15.7410    2.1500 N   0  0  0  0  0  0  0  0  0  0  0  0
   -3.5520   14.8950    1.3150 C   0  0  1  0  0  0  0  0  0  0  0  0
   -3.6250   15.3250   -0.0920 C   0  0  1  0  0  0  0  0  0  0  0  0
   -2.2150   15.0860    1.8440 N   0  0  0  0  0  0  0  0  0  0  0  0
   -2.5560   14.5610   -0.8060 C   0  0  1  0  0  0  0  0  0  0  0  0
   -4.7710   14.9640   -0.9740 C   0  0  0  0  0  0  0  0  0  0  0  0
   -1.0610   14.6030    1.0930 C   0  0  0  0  0  0  0  0  0  0  0  0
   -5.9440   14.7290   -0.6520 O   0  0  0  0  0  0  0  0  0  0  0  0
   -2.7500   14.8960   -2.1990 N   0  0  0  0  0  0  0  0  0  0  0  0
   -4.2170   14.9330   -2.3870 C   0  0  0  0  0  0  0  0  0  0  0  0
   -1.2200   14.7970   -0.3350 N   0  0  0  0  0  0  0  0  0  0  0  0
  2  1  1  1
  2  3  1  0
  2  4  1  0
  3  5  1  0
  3  6  1  6
  4  7  1  0
  6  8  2  0
  5  9  1  6
  6 10  1  0
  9 10  1  0
  5 11  1  0
  7 11  1  0
M  END
