5L9K_0_A_α-mArh-5dus_0_A_α
     RDKit          3D

 10 10  0  0  0  0  0  0  0  0999 V2000
   -2.4440   22.1590   -8.1320 C   0  0  0  0  0  0  0  0  0  0  0  0
   -3.8530   21.8350   -8.6490 C   0  0  1  0  0  0  0  0  0  0  0  0
   -4.6970   21.0130   -7.7190 N   0  0  0  0  0  0  0  0  0  0  0  0
   -4.7840   23.0500   -8.8120 C   0  0  2  0  0  0  0  0  0  0  0  0
   -4.2870   24.1950   -9.4330 O   0  0  0  0  0  0  0  0  0  0  0  0
   -3.9930   20.6900   -6.4930 O   0  0  0  0  0  0  0  0  0  0  0  0
   -5.7700   21.8650   -7.2760 C   0  0  2  0  0  0  0  0  0  0  0  0
   -5.1330   23.2310   -7.3560 C   0  0  2  0  0  0  0  0  0  0  0  0
   -6.1540   21.5810   -5.9620 O   0  0  0  0  0  0  0  0  0  0  0  0
   -6.0220   24.2900   -7.0430 O   0  0  0  0  0  0  0  0  0  0  0  0
  2  1  1  1
  2  3  1  0
  2  4  1  0
  4  5  1  1
  3  6  1  0
  3  7  1  0
  4  8  1  0
  7  8  1  0
  7  9  1  1
  8 10  1  6
M  END
