5l9k_A_0_A_γ-6WOJ_0_C_β
     RDKit          3D

 16 16  0  0  0  0  0  0  0  0999 V2000
   -2.7250   13.0540   -4.0910 O   0  0  0  0  0  0  0  0  0  0  0  0
   -1.4500   13.5320   -3.8040 C   0  0  2  0  0  0  0  0  0  0  0  0
   -1.4440   14.5900   -2.7090 C   0  0  0  0  0  0  0  0  0  0  0  0
   -0.8200   14.2420   -4.9800 C   0  0  2  0  0  0  0  0  0  0  0  0
    0.5190   13.8520   -4.9870 O   0  0  0  0  0  0  0  0  0  0  0  0
   -0.6180   15.5930   -3.2280 O   0  0  0  0  0  0  0  0  0  0  0  0
   -1.0230   15.6430   -4.5450 C   0  0  1  0  0  0  0  0  0  0  0  0
   -0.3590   16.7940   -5.3110 C   0  0  0  0  0  0  0  0  0  0  0  0
   -1.4880   18.0560   -5.7320 P   0  0  0  0  0  0  0  0  0  0  0  0
   -0.5180   19.2010   -6.0500 O   0  0  0  0  0  0  0  0  0  0  0  0
   -1.9450   19.1070   -4.5020 O   0  0  0  0  0  0  0  0  0  0  0  0
   -2.2740   18.1980   -7.1200 O   0  0  0  0  0  0  0  0  0  0  0  0
    0.1230   19.5980   -7.4590 P   0  0  0  0  0  0  0  0  0  0  0  0
   -1.0770   20.4330   -7.9300 O   0  0  0  0  0  0  0  0  0  0  0  0
    1.1040   20.9610   -7.6050 O   0  0  0  0  0  0  0  0  0  0  0  0
    0.0470   18.5360   -8.7100 O   0  0  0  0  0  0  0  0  0  0  0  0
  2  1  1  6
  2  3  1  0
  2  4  1  0
  4  5  1  1
  3  6  1  0
  4  7  1  0
  6  7  1  0
  7  8  1  6
  8  9  1  0
  9 10  1  0
  9 11  1  0
  9 12  1  0
 10 13  1  0
 13 14  1  0
 13 15  1  0
 13 16  1  0
M  CHG  2  11  -1  15  -1
M  END
