5l9k_A_0_A_β-5cms_M_12_M_γ
     RDKit          3D

 16 16  0  0  0  0  0  0  0  0999 V2000
   -1.8930   20.5300   -8.2640 O   0  0  0  0  0  0  0  0  0  0  0  0
   -0.6620   19.6420   -7.7830 P   0  0  0  0  0  0  0  0  0  0  0  0
   -0.9990   19.2770   -6.2840 O   0  0  0  0  0  0  0  0  0  0  0  0
   -0.2930   18.5490   -8.7130 O   0  0  0  0  0  0  0  0  0  0  0  0
    0.4670   20.7520   -7.6710 O   0  0  0  0  0  0  0  0  0  0  0  0
   -1.6370   17.9110   -5.7960 P   0  0  1  0  0  0  0  0  0  0  0  0
   -0.5050   16.7700   -5.7720 O   0  0  0  0  0  0  0  0  0  0  0  0
   -2.3420   18.0360   -4.5340 O   0  0  0  0  0  0  0  0  0  0  0  0
   -2.6660   17.4840   -6.9390 O   0  0  0  0  0  0  0  0  0  0  0  0
   -0.7430   15.6730   -4.8940 C   0  0  2  0  0  0  0  0  0  0  0  0
   -0.1930   15.7790   -3.5720 O   0  0  0  0  0  0  0  0  0  0  0  0
   -0.3000   14.2610   -5.2960 C   0  0  1  0  0  0  0  0  0  0  0  0
    1.1040   13.9520   -5.1680 O   0  0  0  0  0  0  0  0  0  0  0  0
   -0.4710   14.4840   -2.9910 C   0  0  0  0  0  0  0  0  0  0  0  0
   -0.9950   13.6070   -4.1400 C   0  0  2  0  0  0  0  0  0  0  0  0
   -0.6630   12.2380   -4.0450 O   0  0  0  0  0  0  0  0  0  0  0  0
  1  2  1  0
  2  3  1  0
  2  4  2  0
  2  5  1  0
  3  6  1  0
  6  7  1  0
  6  8  2  0
  6  9  1  6
 10  7  1  6
 10 11  1  0
 10 12  1  0
 12 13  1  1
 11 14  1  0
 12 15  1  0
 14 15  1  0
 15 16  1  1
M  END
