5l9k_A_0_A_α-x0910_2_B_α
     RDKit          3D

 20 21  0  0  0  0  0  0  0  0999 V2000
   -2.8450   21.6490   -8.7170 C   0  0  0  0  0  0  0  0  0  0  0  0
   -4.2230   22.0820   -8.2670 C   0  0  2  0  0  0  0  0  0  0  0  0
   -5.1660   21.0010   -8.1930 O   0  0  0  0  0  0  0  0  0  0  0  0
   -5.0010   22.9860   -9.1900 C   0  0  2  0  0  0  0  0  0  0  0  0
   -4.3920   24.2000   -9.5510 O   0  0  0  0  0  0  0  0  0  0  0  0
   -6.4000   21.6710   -7.8490 C   0  0  1  0  0  0  0  0  0  0  0  0
   -6.2070   23.1470   -8.2830 C   0  0  1  0  0  0  0  0  0  0  0  0
   -7.6680   20.9840   -8.2640 O   0  0  0  0  0  0  0  0  0  0  0  0
   -5.8700   23.9790   -7.1250 O   0  0  0  0  0  0  0  0  0  0  0  0
   -8.6900   21.2820   -9.3170 C   0  0  0  0  0  0  0  0  0  0  0  0
   -9.9440   22.2820   -9.1350 C   0  0  0  0  0  0  0  0  0  0  0  0
  -11.4020   22.0320   -8.4630 C   0  0  0  0  0  0  0  0  0  0  0  0
  -11.8820   21.3240   -7.1000 C   0  0  0  0  0  0  0  0  0  0  0  0
  -12.4730   22.1570   -5.8590 C   0  0  0  0  0  0  0  0  0  0  0  0
  -12.2720   21.6340   -4.4520 N   0  0  0  0  0  0  0  0  0  0  0  0
  -12.4310   22.3050   -3.2260 C   0  0  0  0  0  0  0  0  0  0  0  0
  -11.6490   23.3380   -2.7840 N   0  0  0  0  0  0  0  0  0  0  0  0
  -13.3290   22.0890   -2.2650 N   0  0  0  0  0  0  0  0  0  0  0  0
  -12.0100   23.8040   -1.5650 N   0  0  0  0  0  0  0  0  0  0  0  0
  -13.0380   23.0110   -1.2900 C   0  0  0  0  0  0  0  0  0  0  0  0
  2  1  1  6
  2  3  1  0
  2  4  1  0
  4  5  1  1
  3  6  1  0
  4  7  1  0
  6  7  1  0
  6  8  1  6
  7  9  1  1
  8 10  1  0
 10 11  1  0
 11 12  1  0
 12 13  1  0
 13 14  1  0
 14 15  1  0
 15 16  1  0
 16 17  1  0
 16 18  2  0
 17 19  1  0
 18 20  1  0
 19 20  2  0
M  END
