5L9K_0_A_Î±
     RDKit          3D

  9  9  0  0  0  0  0  0  0  0999 V2000
   -2.5630   21.5600   -8.5050 C   0  0  0  0  0  0  0  0  0  0  0  0
   -3.9910   21.8550   -8.8900 C   0  0  1  0  0  0  0  0  0  0  0  0
   -4.8710   21.0540   -8.1080 O   0  0  0  0  0  0  0  0  0  0  0  0
   -4.3940   23.2960   -8.6270 C   0  0  2  0  0  0  0  0  0  0  0  0
   -5.5980   21.8810   -7.1780 C   0  0  1  0  0  0  0  0  0  0  0  0
   -4.9100   23.2320   -7.2140 C   0  0  2  0  0  0  0  0  0  0  0  0
   -5.4220   23.7010   -9.5670 O   0  0  0  0  0  0  0  0  0  0  0  0
   -6.9490   22.0320   -7.5880 O   0  0  0  0  0  0  0  0  0  0  0  0
   -5.7920   24.3140   -6.8570 O   0  0  0  0  0  0  0  0  0  0  0  0
  2  1  1  1
  3  2  1  0
  4  2  1  0
  5  3  1  0
  6  4  1  0
  4  7  1  6
  5  8  1  6
  5  6  1  0
  6  9  1  6
M  END
