5l9k_A_0_A_α-6mea_A_0_A_α
     RDKit          3D

 10 10  0  0  0  0  0  0  0  0999 V2000
   -2.2710   22.6540   -8.0650 C   0  0  0  0  0  0  0  0  0  0  0  0
   -3.6360   22.1050   -8.4650 C   0  0  1  0  0  0  0  0  0  0  0  0
   -4.3460   21.4270   -7.3520 N   0  0  0  0  0  0  0  0  0  0  0  0
   -4.7310   23.1320   -8.8390 C   0  0  2  0  0  0  0  0  0  0  0  0
   -4.3860   24.2360   -9.6370 O   0  0  0  0  0  0  0  0  0  0  0  0
   -3.7150   21.5070   -6.0470 O   0  0  0  0  0  0  0  0  0  0  0  0
   -5.6300   22.0430   -7.2040 C   0  0  2  0  0  0  0  0  0  0  0  0
   -5.2120   23.4670   -7.4390 C   0  0  2  0  0  0  0  0  0  0  0  0
   -6.1590   21.7970   -5.9300 O   0  0  0  0  0  0  0  0  0  0  0  0
   -6.2900   24.3740   -7.3240 O   0  0  0  0  0  0  0  0  0  0  0  0
  2  1  1  1
  2  3  1  0
  2  4  1  0
  4  5  1  1
  3  6  1  0
  3  7  1  0
  4  8  1  0
  7  8  1  0
  7  9  1  1
  8 10  1  6
M  END
