5L9K_0_B_α-mArh-5cb5_H_0_H_β
     RDKit          3D

 17 17  0  0  0  0  0  0  0  0999 V2000
   -1.9340   21.8150   -7.8500 C   0  0  0  0  0  0  0  0  0  0  0  0
   -0.7580   20.4310   -7.7720 P   0  0  2  0  0  0  0  0  0  0  0  0
   -1.0890   19.7840   -6.3670 O   0  0  0  0  0  0  0  0  0  0  0  0
   -3.3060   21.8710   -8.5580 C   0  0  1  0  0  0  0  0  0  0  0  0
    0.6880   20.8040   -7.8440 O   0  0  0  0  0  0  0  0  0  0  0  0
   -1.0800   19.1850   -8.7420 O   0  0  0  0  0  0  0  0  0  0  0  0
   -4.2830   20.9890   -7.9410 O   0  0  0  0  0  0  0  0  0  0  0  0
   -3.9030   23.2920   -8.4010 C   0  0  1  0  0  0  0  0  0  0  0  0
   -4.7810   23.7180   -9.4460 O   0  0  0  0  0  0  0  0  0  0  0  0
   -1.5370   18.2900   -6.1360 P   0  0  0  0  0  0  0  0  0  0  0  0
   -5.2520   21.7830   -7.2390 C   0  0  1  0  0  0  0  0  0  0  0  0
   -4.6250   23.1670   -7.0640 C   0  0  2  0  0  0  0  0  0  0  0  0
   -6.4730   21.8280   -7.9530 O   0  0  0  0  0  0  0  0  0  0  0  0
   -5.6630   24.1470   -6.8840 O   0  0  0  0  0  0  0  0  0  0  0  0
   -0.1970   17.4410   -6.2160 O   0  0  0  0  0  0  0  0  0  0  0  0
   -2.6300   17.7530   -6.9550 O   0  0  0  0  0  0  0  0  0  0  0  0
   -1.8180   18.2110   -4.5840 O   0  0  0  0  0  0  0  0  0  0  0  0
  1  2  1  0
  2  3  1  0
  4  1  1  1
  2  5  2  0
  2  6  1  6
  4  7  1  0
  4  8  1  0
  8  9  1  6
  3 10  1  0
  7 11  1  0
  8 12  1  0
 11 12  1  0
 11 13  1  6
 12 14  1  6
 10 15  1  0
 10 16  2  0
 10 17  1  0
M  END
