5l9k_B_0_B_γ-5CMS_0_R_δ
     RDKit          3D

 17 19  0  0  0  0  0  0  0  0999 V2000
   -2.6830   12.8360   -4.0700 O   0  0  0  0  0  0  0  0  0  0  0  0
   -1.4860   13.4870   -3.6690 C   0  0  2  0  0  0  0  0  0  0  0  0
   -1.6860   14.6640   -2.7040 C   0  0  2  0  0  0  0  0  0  0  0  0
   -0.7560   14.0850   -4.8770 C   0  0  2  0  0  0  0  0  0  0  0  0
    0.5510   13.5410   -4.9590 O   0  0  0  0  0  0  0  0  0  0  0  0
   -0.7890   15.6760   -3.2150 O   0  0  0  0  0  0  0  0  0  0  0  0
   -0.8490   15.5880   -4.6300 C   0  0  1  0  0  0  0  0  0  0  0  0
   -1.4150   14.3640   -1.2020 C   0  0  2  0  0  0  0  0  0  0  0  0
   -3.1440   15.2000   -2.7200 C   0  0  0  0  0  0  0  0  0  0  0  0
    0.2270   16.4810   -5.2380 C   0  0  0  0  0  0  0  0  0  0  0  0
   -2.7550   14.5830   -0.4860 C   0  0  2  0  0  0  0  0  0  0  0  0
   -3.5840   15.4620   -1.3280 N   0  0  0  0  0  0  0  0  0  0  0  0
   -0.2920   15.0120   -0.5130 N   0  0  0  0  0  0  0  0  0  0  0  0
   -0.1370   14.6160    0.8760 C   0  0  0  0  0  0  0  0  0  0  0  0
   -2.4910   15.1750    0.9270 C   0  0  1  0  0  0  0  0  0  0  0  0
   -3.6280   15.0330    1.7980 N   0  0  0  0  0  0  0  0  0  0  0  0
   -1.4140   14.4720    1.5650 N   0  0  0  0  0  0  0  0  0  0  0  0
  2  1  1  6
  2  3  1  0
  2  4  1  0
  4  5  1  1
  3  6  1  0
  4  7  1  0
  6  7  1  0
  3  8  1  0
  3  9  1  1
  7 10  1  6
  8 11  1  0
  9 12  1  0
 11 12  1  6
  8 13  1  1
 13 14  1  0
 11 15  1  0
 15 16  1  1
 14 17  1  0
 15 17  1  0
M  END
