5L9K_0_A_α-5CB3_0_A_α
     RDKit          3D

 10 10  0  0  0  0  0  0  0  0999 V2000
   -2.2360   22.5190   -8.0740 C   0  0  0  0  0  0  0  0  0  0  0  0
   -3.6510   22.0320   -8.3480 C   0  0  1  0  0  0  0  0  0  0  0  0
   -4.2930   21.3810   -7.1800 N   0  0  0  0  0  0  0  0  0  0  0  0
   -4.7210   23.1050   -8.6380 C   0  0  2  0  0  0  0  0  0  0  0  0
   -4.3600   24.1860   -9.4560 O   0  0  0  0  0  0  0  0  0  0  0  0
   -3.4630   21.2170   -6.0120 O   0  0  0  0  0  0  0  0  0  0  0  0
   -5.4700   22.1010   -6.7940 C   0  0  1  0  0  0  0  0  0  0  0  0
   -5.0850   23.4970   -7.2160 C   0  0  2  0  0  0  0  0  0  0  0  0
   -6.5760   21.6060   -7.5260 O   0  0  0  0  0  0  0  0  0  0  0  0
   -6.1780   24.3860   -7.0970 O   0  0  0  0  0  0  0  0  0  0  0  0
  2  1  1  1
  2  3  1  0
  2  4  1  0
  4  5  1  6
  3  6  1  0
  3  7  1  0
  4  8  1  0
  7  8  1  0
  7  9  1  6
  8 10  1  6
M  END
