5l9k_A_0_A_α-1HJZ_0_B_α
     RDKit          3D

 14 14  0  0  0  0  0  0  0  0999 V2000
   -2.3280   21.8020   -7.6080 C   0  0  2  0  0  0  0  0  0  0  0  0
   -1.8700   23.2360   -7.6660 C   0  0  0  0  0  0  0  0  0  0  0  0
   -0.8650   20.6810   -7.7320 S   0  0  0  0  0  0  0  0  0  0  0  0
   -3.5960   21.6740   -8.4970 C   0  0  1  0  0  0  0  0  0  0  0  0
    0.4800   21.5540   -7.7640 O   0  0  0  0  0  0  0  0  0  0  0  0
   -0.8780   19.7080   -8.9910 O   0  0  0  0  0  0  0  0  0  0  0  0
   -0.8260   19.8150   -6.3900 O   0  0  0  0  0  0  0  0  0  0  0  0
   -4.5230   20.7480   -7.8660 O   0  0  0  0  0  0  0  0  0  0  0  0
   -4.5560   22.8700   -8.6830 C   0  0  2  0  0  0  0  0  0  0  0  0
   -4.1860   24.0420   -9.3510 O   0  0  0  0  0  0  0  0  0  0  0  0
   -5.5250   21.5530   -7.1800 C   0  0  1  0  0  0  0  0  0  0  0  0
   -4.9820   22.9940   -7.2460 C   0  0  2  0  0  0  0  0  0  0  0  0
   -6.7660   21.3860   -7.8580 O   0  0  0  0  0  0  0  0  0  0  0  0
   -5.9690   24.0040   -6.9850 O   0  0  0  0  0  0  0  0  0  0  0  0
  1  2  1  6
  1  3  1  0
  1  4  1  0
  3  5  1  0
  3  6  1  0
  3  7  1  0
  4  8  1  1
  4  9  1  0
  9 10  1  1
  8 11  1  0
  9 12  1  0
 11 12  1  0
 11 13  1  6
 12 14  1  6
M  END
