5L9K_0_A_α-mArh-x0766_0_A_α
     RDKit          3D

 29 31  0  0  0  0  0  0  0  0999 V2000
   -2.3960   21.7410   -8.9070 C   0  0  0  0  0  0  0  0  0  0  0  0
   -3.0550   22.4860   -7.8030 C   0  0  2  0  0  0  0  0  0  0  0  0
   -3.8830   21.5470   -7.1990 O   0  0  0  0  0  0  0  0  0  0  0  0
   -3.9100   23.7250   -8.0490 C   0  0  1  0  0  0  0  0  0  0  0  0
   -4.6820   23.8230   -9.2600 O   0  0  0  0  0  0  0  0  0  0  0  0
   -4.8030   22.2360   -6.3850 C   0  0  1  0  0  0  0  0  0  0  0  0
   -4.8730   23.6920   -6.8640 C   0  0  2  0  0  0  0  0  0  0  0  0
   -5.9010   21.4420   -6.6510 O   0  0  0  0  0  0  0  0  0  0  0  0
   -6.1920   24.0750   -7.2080 O   0  0  0  0  0  0  0  0  0  0  0  0
   -5.0910   20.3930   -7.1970 C   0  0  0  0  0  0  0  0  0  0  0  0
   -3.6910   20.4050   -6.4820 C   0  0  0  0  0  0  0  0  0  0  0  0
   -2.7510   19.1860   -6.6830 C   0  0  0  0  0  0  0  0  0  0  0  0
   -1.7340   18.9060   -5.5620 C   0  0  0  0  0  0  0  0  0  0  0  0
   -1.3770   17.4230   -5.3310 C   0  0  0  0  0  0  0  0  0  0  0  0
   -2.5950   16.5100   -5.0640 C   0  0  0  0  0  0  0  0  0  0  0  0
   -2.3110   15.0680   -4.6030 C   0  0  0  0  0  0  0  0  0  0  0  0
   -2.2510   14.8970   -3.0890 C   0  0  0  0  0  0  0  0  0  0  0  0
   -1.1190   14.7420   -2.2840 C   0  0  0  0  0  0  0  0  0  0  0  0
   -3.6980   14.8850   -2.1440 S   0  0  0  0  0  0  0  0  0  0  0  0
    0.3180   14.7270   -2.7760 C   0  0  1  0  0  0  0  0  0  0  0  0
   -1.4880   14.6120   -0.9020 C   0  0  0  0  0  0  0  0  0  0  0  0
   -2.8400   14.6730   -0.6870 C   0  0  0  0  0  0  0  0  0  0  0  0
    0.9490   13.3890   -3.2240 C   0  0  1  0  0  0  0  0  0  0  0  0
    0.5570   15.6740   -3.9460 C   0  0  0  0  0  0  0  0  0  0  0  0
    0.4410   12.2220   -2.4300 C   0  0  0  0  0  0  0  0  0  0  0  0
    0.9750   13.4460   -4.7390 C   0  0  0  0  0  0  0  0  0  0  0  0
    1.4150   14.8880   -4.9050 C   0  0  0  0  0  0  0  0  0  0  0  0
    0.4570   12.3000   -1.2170 O   0  0  0  0  0  0  0  0  0  0  0  0
   -0.0180   11.1360   -3.0780 O   0  0  0  0  0  0  0  0  0  0  0  0
  2  1  1  6
  2  3  1  0
  2  4  1  0
  4  5  1  6
  3  6  1  0
  4  7  1  0
  6  7  1  0
  6  8  1  6
  7  9  1  6
  8 10  1  0
 10 11  1  0
 11 12  1  0
 12 13  1  0
 13 14  1  0
 14 15  1  0
 15 16  1  0
 16 17  1  0
 17 18  2  0
 17 19  1  0
 20 18  1  6
 18 21  1  0
 19 22  1  0
 21 22  2  0
 20 23  1  0
 20 24  1  0
 23 25  1  6
 23 26  1  0
 24 27  1  0
 26 27  1  0
 25 28  2  0
 25 29  1  0
M  END
