5L9K_0_A_α-mArh-3gqe_A_0_A_α
     RDKit          3D

 19 19  0  0  0  0  0  0  0  0999 V2000
   -3.6970   20.9150   -7.3490 C   0  0  1  0  0  0  0  0  0  0  0  0
   -2.6460   21.1800   -6.2930 C   0  0  0  0  0  0  0  0  0  0  0  0
   -1.7080   20.0400   -6.1180 N   0  0  0  0  0  0  0  0  0  0  0  0
   -5.0000   20.8850   -6.7700 O   0  0  0  0  0  0  0  0  0  0  0  0
   -3.8090   21.9020   -8.5130 C   0  0  1  0  0  0  0  0  0  0  0  0
   -5.1480   21.6140   -8.9440 O   0  0  0  0  0  0  0  0  0  0  0  0
   -3.9850   23.3650   -8.1380 C   0  0  1  0  0  0  0  0  0  0  0  0
   -4.6090   24.0750   -9.2290 O   0  0  0  0  0  0  0  0  0  0  0  0
   -2.3480   18.7220   -6.3660 C   0  0  0  0  0  0  0  0  0  0  0  0
   -0.5990   20.2070   -7.0440 C   0  0  0  0  0  0  0  0  0  0  0  0
   -5.9550   22.2300   -7.9330 C   0  0  2  0  0  0  0  0  0  0  0  0
   -5.0260   23.1180   -7.0810 C   0  0  2  0  0  0  0  0  0  0  0  0
   -6.6170   21.2210   -7.1870 O   0  0  0  0  0  0  0  0  0  0  0  0
   -5.6390   24.2900   -6.5540 O   0  0  0  0  0  0  0  0  0  0  0  0
   -2.2300   17.7780   -5.1950 C   0  0  0  0  0  0  0  0  0  0  0  0
   -0.9380   19.5430   -8.3370 C   0  0  0  0  0  0  0  0  0  0  0  0
    0.0330   18.7000   -8.9090 O   0  0  0  0  0  0  0  0  0  0  0  0
   -2.8810   16.7650   -4.9780 O   0  0  0  0  0  0  0  0  0  0  0  0
   -1.2930   18.1960   -4.3420 O   0  0  0  0  0  0  0  0  0  0  0  0
  1  2  1  0
  2  3  1  0
  1  4  1  1
  1  5  1  0
  5  6  1  6
  5  7  1  0
  7  8  1  6
  3  9  1  0
  3 10  1  0
  6 11  1  0
  7 12  1  0
 11 12  1  0
 11 13  1  1
 12 14  1  6
  9 15  1  0
 10 16  1  0
 16 17  1  0
 15 18  2  0
 15 19  1  0
M  END
