5l9k_B_0_B_α-2BFQ_1_A_δ
     RDKit          3D

 26 28  0  0  0  0  0  0  0  0999 V2000
   -2.5890   21.6110   -9.0030 C   0  0  0  0  0  0  0  0  0  0  0  0
   -3.7420   22.2170   -8.2950 C   0  0  2  0  0  0  0  0  0  0  0  0
   -4.8380   21.3460   -8.1740 O   0  0  0  0  0  0  0  0  0  0  0  0
   -4.4180   23.5640   -8.6260 C   0  0  1  0  0  0  0  0  0  0  0  0
   -4.8810   23.6650   -9.9730 O   0  0  0  0  0  0  0  0  0  0  0  0
   -5.0910   22.1620   -7.0910 C   0  0  1  0  0  0  0  0  0  0  0  0
   -5.6130   23.4520   -7.6410 C   0  0  1  0  0  0  0  0  0  0  0  0
   -5.5590   21.5390   -5.9470 O   0  0  0  0  0  0  0  0  0  0  0  0
   -5.6280   24.4160   -6.5860 O   0  0  0  0  0  0  0  0  0  0  0  0
   -4.2250   21.0900   -5.5410 C   0  0  0  0  0  0  0  0  0  0  0  0
   -3.6790   20.2460   -6.7380 C   0  0  0  0  0  0  0  0  0  0  0  0
   -2.6770   19.0750   -6.5960 C   0  0  0  0  0  0  0  0  0  0  0  0
   -1.7170   19.0340   -5.4260 C   0  0  0  0  0  0  0  0  0  0  0  0
   -1.2000   17.6360   -5.0080 C   0  0  0  0  0  0  0  0  0  0  0  0
   -2.1800   16.4970   -4.6360 C   0  0  0  0  0  0  0  0  0  0  0  0
   -2.1180   16.0580   -3.1580 C   0  0  0  0  0  0  0  0  0  0  0  0
   -2.9410   14.8910   -2.6080 C   0  0  1  0  0  0  0  0  0  0  0  0
   -1.9690   14.0870   -1.9420 N   0  0  0  0  0  0  0  0  0  0  0  0
   -3.8300   15.2430   -1.4880 N   0  0  0  0  0  0  0  0  0  0  0  0
   -1.5530   14.9900   -0.8890 C   0  0  1  0  0  0  0  0  0  0  0  0
   -2.8890   15.5180   -0.3640 C   0  0  2  0  0  0  0  0  0  0  0  0
   -0.7500   14.2300    0.0140 N   0  0  0  0  0  0  0  0  0  0  0  0
   -3.2220   14.8710    0.9970 C   0  0  2  0  0  0  0  0  0  0  0  0
   -4.0840   15.6840    1.8380 N   0  0  0  0  0  0  0  0  0  0  0  0
   -0.7750   14.8830    1.2820 C   0  0  0  0  0  0  0  0  0  0  0  0
   -2.0900   14.6490    1.8640 N   0  0  0  0  0  0  0  0  0  0  0  0
  2  1  1  6
  2  3  1  0
  2  4  1  0
  4  5  1  6
  3  6  1  0
  4  7  1  0
  6  7  1  0
  6  8  1  1
  7  9  1  1
  8 10  1  0
 10 11  1  0
 11 12  1  0
 12 13  1  0
 13 14  1  0
 14 15  1  0
 15 16  1  0
 17 16  1  1
 17 18  1  0
 17 19  1  0
 20 18  1  6
 21 19  1  6
 20 21  1  0
 20 22  1  0
 21 23  1  0
 23 24  1  1
 22 25  1  0
 23 26  1  0
 25 26  1  0
M  END
