5l9k_B_0_B_γ-5fud_B_0_B_α
     RDKit          3D

 21 22  0  0  0  0  0  0  0  0999 V2000
   -2.4220   13.0930   -4.6350 O   0  0  0  0  0  0  0  0  0  0  0  0
   -1.8540   14.3860   -4.4610 C   0  0  1  0  0  0  0  0  0  0  0  0
   -1.5440   14.7280   -3.0160 C   0  0  0  0  0  0  0  0  0  0  0  0
   -0.4420   14.3760   -4.9910 C   0  0  2  0  0  0  0  0  0  0  0  0
    0.3280   13.3230   -4.4150 O   0  0  0  0  0  0  0  0  0  0  0  0
   -0.4470   15.6760   -3.1050 O   0  0  0  0  0  0  0  0  0  0  0  0
   -0.0350   15.7550   -4.4940 C   0  0  2  0  0  0  0  0  0  0  0  0
   -0.7710   16.9410   -5.1570 C   0  0  0  0  0  0  0  0  0  0  0  0
    0.0650   18.0350   -5.8260 C   0  0  0  0  0  0  0  0  0  0  0  0
   -0.8590   19.0370   -6.4230 N   0  0  0  0  0  0  0  0  0  0  0  0
   -0.3980   19.7500   -7.9010 S   0  0  1  0  0  0  0  0  0  0  0  0
    0.6550   20.7160   -7.6850 O   0  0  0  0  0  0  0  0  0  0  0  0
   -0.2170   18.6390   -8.8360 O   0  0  0  0  0  0  0  0  0  0  0  0
   -1.9100   20.6380   -8.2660 C   0  0  0  0  0  0  0  0  0  0  0  0
   -2.0900   22.0590   -7.7980 C   0  0  0  0  0  0  0  0  0  0  0  0
   -3.5320   22.4180   -7.8110 N   0  0  0  0  0  0  0  0  0  0  0  0
   -4.1070   22.6170   -9.1520 C   0  0  0  0  0  0  0  0  0  0  0  0
   -3.8840   23.5650   -6.9820 C   0  0  0  0  0  0  0  0  0  0  0  0
   -5.6390   22.7560   -9.0740 C   0  0  0  0  0  0  0  0  0  0  0  0
   -5.3880   23.7810   -6.9140 C   0  0  0  0  0  0  0  0  0  0  0  0
   -6.0730   23.7860   -8.1750 O   0  0  0  0  0  0  0  0  0  0  0  0
  2  1  1  1
  2  3  1  0
  2  4  1  0
  4  5  1  1
  3  6  1  0
  4  7  1  0
  6  7  1  0
  7  8  1  6
  8  9  1  0
  9 10  1  0
 10 11  2  0
 11 12  2  0
 11 13  1  6
 11 14  1  0
 14 15  1  0
 15 16  1  0
 16 17  1  0
 16 18  1  0
 17 19  1  0
 18 20  1  0
 19 21  1  0
 20 21  1  0
M  CHG  1  13  -1
M  END
