5l9k_B_0_B_α-5CB5_0_M_α
     RDKit          3D

 12 13  0  0  0  0  0  0  0  0999 V2000
   -2.2660   21.3380   -8.5940 C   0  0  0  0  0  0  0  0  0  0  0  0
   -3.2240   22.0370   -7.6640 C   0  0  2  0  0  0  0  0  0  0  0  0
   -4.4990   21.3250   -7.3370 N   0  0  0  0  0  0  0  0  0  0  0  0
   -3.7450   23.3750   -8.1610 C   0  0  1  0  0  0  0  0  0  0  0  0
   -4.5160   23.2520   -9.3670 O   0  0  0  0  0  0  0  0  0  0  0  0
   -5.0980   20.8390   -8.5280 O   0  0  0  0  0  0  0  0  0  0  0  0
   -5.4270   22.3730   -6.9340 C   0  0  1  0  0  0  0  0  0  0  0  0
   -4.6170   23.6360   -6.9480 C   0  0  2  0  0  0  0  0  0  0  0  0
   -6.4280   22.5990   -7.9430 O   0  0  0  0  0  0  0  0  0  0  0  0
   -5.5950   24.6170   -7.1530 O   0  0  0  0  0  0  0  0  0  0  0  0
   -6.5060   24.0340   -8.0780 C   0  0  1  0  0  0  0  0  0  0  0  0
   -6.2920   24.4870   -9.5060 C   0  0  0  0  0  0  0  0  0  0  0  0
  2  1  1  6
  2  3  1  0
  2  4  1  0
  4  5  1  6
  3  6  1  0
  3  7  1  0
  4  8  1  0
  7  8  1  0
  7  9  1  6
  8 10  1  6
  9 11  1  0
 10 11  1  0
 11 12  1  6
M  END
