5L9K_0_A_δ-5cb5_F_1_F_γ
     RDKit          3D

 19 21  0  0  0  0  0  0  0  0999 V2000
   -4.5400   15.6990    2.2520 N   0  0  0  0  0  0  0  0  0  0  0  0
   -3.4290   15.6870    1.3270 C   0  0  2  0  0  0  0  0  0  0  0  0
   -3.7060   14.9780    0.0260 C   0  0  2  0  0  0  0  0  0  0  0  0
   -2.3530   14.9310    1.9080 N   0  0  0  0  0  0  0  0  0  0  0  0
   -2.4720   15.2220   -0.8060 C   0  0  2  0  0  0  0  0  0  0  0  0
   -4.7470   15.5430   -0.8350 N   0  0  0  0  0  0  0  0  0  0  0  0
   -1.1140   15.0120    1.1290 C   0  0  0  0  0  0  0  0  0  0  0  0
   -2.9260   14.6920   -2.0700 N   0  0  0  0  0  0  0  0  0  0  0  0
   -4.3340   15.0880   -2.1600 C   0  0  0  0  0  0  0  0  0  0  0  0
   -1.2860   14.6140   -0.2520 N   0  0  0  0  0  0  0  0  0  0  0  0
   -2.1680   15.2010   -3.1920 C   0  0  0  0  0  0  0  0  0  0  0  0
   -0.6980   14.8060   -3.0960 C   0  0  2  0  0  0  0  0  0  0  0  0
    0.1240   15.9160   -3.4840 O   0  0  0  0  0  0  0  0  0  0  0  0
   -0.3520   13.6740   -4.0670 C   0  0  1  0  0  0  0  0  0  0  0  0
   -1.5100   12.9680   -4.5430 O   0  0  0  0  0  0  0  0  0  0  0  0
   -0.0030   15.8760   -4.8990 C   0  0  2  0  0  0  0  0  0  0  0  0
    0.2950   14.4080   -5.2330 C   0  0  1  0  0  0  0  0  0  0  0  0
    0.8810   16.9360   -5.5260 C   0  0  0  0  0  0  0  0  0  0  0  0
    1.6670   14.0800   -5.2710 O   0  0  0  0  0  0  0  0  0  0  0  0
  2  1  1  1
  2  3  1  0
  2  4  1  0
  3  5  1  0
  3  6  1  6
  4  7  1  0
  5  8  1  0
  6  9  1  0
  8  9  1  0
  5 10  1  1
  7 10  1  0
  8 11  1  0
 12 11  1  6
 12 13  1  0
 12 14  1  0
 14 15  1  6
 13 16  1  0
 14 17  1  0
 16 17  1  0
 16 18  1  6
 17 19  1  1
M  END
