5lw0_A_0_A_γ-x0104_0_A_β
     RDKit          3D

 18 19  0  0  0  0  0  0  0  0999 V2000
   -0.8900   11.9510   -3.7540 O   0  0  0  0  0  0  0  0  0  0  0  0
   -0.3450   13.2320   -3.4620 C   0  0  2  0  0  0  0  0  0  0  0  0
   -1.3720   14.3450   -3.3720 C   0  0  1  0  0  0  0  0  0  0  0  0
    0.5090   13.7400   -4.6310 C   0  0  2  0  0  0  0  0  0  0  0  0
    1.8930   13.5770   -4.2920 O   0  0  0  0  0  0  0  0  0  0  0  0
   -2.2680   14.3860   -2.1480 C   0  0  0  0  0  0  0  0  0  0  0  0
   -0.5710   15.5090   -3.4850 O   0  0  0  0  0  0  0  0  0  0  0  0
    0.1000   15.2250   -4.7180 C   0  0  1  0  0  0  0  0  0  0  0  0
    1.2340   16.1960   -4.8590 C   0  0  0  0  0  0  0  0  0  0  0  0
   -3.4570   15.3010   -2.4430 C   0  0  0  0  0  0  0  0  0  0  0  0
   -4.7010   14.6170   -2.3520 O   0  0  0  0  0  0  0  0  0  0  0  0
   -5.2220   14.6690   -1.0830 C   0  0  0  0  0  0  0  0  0  0  0  0
   -4.3840   14.7930   -0.0390 N   0  0  0  0  0  0  0  0  0  0  0  0
   -6.5980   14.5850   -0.9720 C   0  0  0  0  0  0  0  0  0  0  0  0
   -4.9590   14.8370    1.1750 C   0  0  0  0  0  0  0  0  0  0  0  0
   -7.1580   14.6270    0.2990 C   0  0  0  0  0  0  0  0  0  0  0  0
   -6.3320   14.7570    1.4110 C   0  0  0  0  0  0  0  0  0  0  0  0
   -6.8610   14.8090    2.6960 N   0  0  0  0  0  0  0  0  0  0  0  0
  2  1  1  6
  2  3  1  0
  2  4  1  0
  4  5  1  1
  3  6  1  1
  3  7  1  0
  4  8  1  0
  7  8  1  0
  8  9  1  1
  6 10  1  0
 10 11  1  0
 11 12  1  0
 12 13  2  0
 12 14  1  0
 13 15  1  0
 14 16  2  0
 15 17  2  0
 16 17  1  0
 17 18  1  0
M  END
