5lw0_A_0_A_β-5CMS_0_I_δ
     RDKit          3D

 21 22  0  0  0  0  0  0  0  0999 V2000
   -1.6120   20.3890   -8.6210 O   0  0  0  0  0  0  0  0  0  0  0  0
   -0.5540   19.4900   -7.8640 P   0  0  0  0  0  0  0  0  0  0  0  0
   -1.1710   19.1640   -6.4330 O   0  0  0  0  0  0  0  0  0  0  0  0
   -0.1730   18.3610   -8.7410 O   0  0  0  0  0  0  0  0  0  0  0  0
    0.6140   20.5370   -7.6730 O   0  0  0  0  0  0  0  0  0  0  0  0
   -1.6980   17.7380   -5.9880 P   0  0  2  0  0  0  0  0  0  0  0  0
   -0.3510   16.8820   -5.9730 O   0  0  0  0  0  0  0  0  0  0  0  0
   -2.7560   17.1610   -6.8540 O   0  0  0  0  0  0  0  0  0  0  0  0
   -2.0060   17.7350   -4.4370 O   0  0  0  0  0  0  0  0  0  0  0  0
   -1.7160   16.5080   -3.7870 C   0  0  0  0  0  0  0  0  0  0  0  0
   -2.9340   15.5870   -3.7480 C   0  0  0  0  0  0  0  0  0  0  0  0
   -2.9980   14.5860   -2.5970 C   0  0  1  0  0  0  0  0  0  0  0  0
   -1.6540   14.1650   -2.1690 N   0  0  0  0  0  0  0  0  0  0  0  0
   -3.7290   15.0650   -1.4100 N   0  0  0  0  0  0  0  0  0  0  0  0
   -1.5060   14.8520   -0.9180 C   0  0  1  0  0  0  0  0  0  0  0  0
   -2.8680   14.6370   -0.3120 C   0  0  1  0  0  0  0  0  0  0  0  0
   -0.4470   14.2740   -0.1480 N   0  0  0  0  0  0  0  0  0  0  0  0
   -2.8220   15.4700    0.9450 C   0  0  1  0  0  0  0  0  0  0  0  0
   -4.0570   15.4930    1.7170 N   0  0  0  0  0  0  0  0  0  0  0  0
   -0.4460   14.9310    1.1400 C   0  0  0  0  0  0  0  0  0  0  0  0
   -1.7720   14.9560    1.7640 N   0  0  0  0  0  0  0  0  0  0  0  0
  1  2  1  0
  2  3  1  0
  2  4  2  0
  2  5  1  0
  3  6  1  0
  6  7  1  1
  6  8  2  0
  6  9  1  0
  9 10  1  0
 10 11  1  0
 12 11  1  6
 12 13  1  0
 12 14  1  0
 15 13  1  6
 16 14  1  6
 15 16  1  0
 15 17  1  0
 16 18  1  0
 18 19  1  1
 17 20  1  0
 18 21  1  0
 20 21  1  0
M  END
