5LW0_0_A_δ-5cms_C_2_C_β
     RDKit          3D

 21 22  0  0  0  0  0  0  0  0999 V2000
   -4.4580   15.2720    1.6180 N   0  0  0  0  0  0  0  0  0  0  0  0
   -3.2280   15.1000    0.8680 C   0  0  2  0  0  0  0  0  0  0  0  0
   -3.2800   14.0130   -0.2190 C   0  0  2  0  0  0  0  0  0  0  0  0
   -2.2140   14.7840    1.8380 N   0  0  0  0  0  0  0  0  0  0  0  0
   -1.8610   13.7350   -0.6910 C   0  0  1  0  0  0  0  0  0  0  0  0
   -3.9960   14.2870   -1.4950 N   0  0  0  0  0  0  0  0  0  0  0  0
   -0.8800   14.8550    1.2740 C   0  0  0  0  0  0  0  0  0  0  0  0
   -1.6870   14.7040   -1.7650 N   0  0  0  0  0  0  0  0  0  0  0  0
   -3.0210   15.0400   -2.2740 C   0  0  1  0  0  0  0  0  0  0  0  0
   -0.7350   13.8830    0.2230 N   0  0  0  0  0  0  0  0  0  0  0  0
   -2.9800   14.9800   -3.8260 C   0  0  0  0  0  0  0  0  0  0  0  0
   -2.0600   16.1200   -4.2850 C   0  0  0  0  0  0  0  0  0  0  0  0
   -1.7950   16.3630   -5.6320 O   0  0  0  0  0  0  0  0  0  0  0  0
   -1.8260   17.9170   -6.0630 P   0  0  1  0  0  0  0  0  0  0  0  0
   -0.3620   18.3960   -6.4530 O   0  0  0  0  0  0  0  0  0  0  0  0
   -2.7740   18.1890   -7.1310 O   0  0  0  0  0  0  0  0  0  0  0  0
   -2.0550   18.7550   -4.7220 O   0  0  0  0  0  0  0  0  0  0  0  0
   -0.1970   19.4470   -7.6510 P   0  0  0  0  0  0  0  0  0  0  0  0
   -1.6440   20.0240   -7.9770 O   0  0  0  0  0  0  0  0  0  0  0  0
    0.8390   20.5000   -7.5320 O   0  0  0  0  0  0  0  0  0  0  0  0
    0.0560   18.4580   -8.8590 O   0  0  0  0  0  0  0  0  0  0  0  0
  2  1  1  1
  2  3  1  0
  2  4  1  0
  3  5  1  0
  3  6  1  6
  4  7  1  0
  5  8  1  6
  6  9  1  0
  8  9  1  0
  5 10  1  0
  7 10  1  0
  9 11  1  6
 11 12  1  0
 12 13  1  0
 13 14  1  0
 14 15  1  0
 14 16  2  0
 14 17  1  1
 15 18  1  0
 18 19  1  0
 18 20  2  0
 18 21  1  0
M  END
