5LW0_0_A_Î²
     RDKit          3D

  9  8  0  0  0  0  0  0  0  0999 V2000
   -2.1600   19.1600   -9.3070 O   0  0  0  0  0  0  0  0  0  0  0  0
   -0.8530   18.4850   -8.6390 P   0  0  0  0  0  0  0  0  0  0  0  0
   -1.3310   18.2440   -7.1100 O   0  0  0  0  0  0  0  0  0  0  0  0
   -0.5830   17.2040   -9.3890 O   0  0  0  0  0  0  0  0  0  0  0  0
    0.2110   19.5390   -8.5540 O   0  0  0  0  0  0  0  0  0  0  0  0
   -2.2510   17.1030   -6.4010 P   0  0  0  0  0  0  0  0  0  0  0  0
   -1.1400   15.9880   -5.9430 O   0  0  0  0  0  0  0  0  0  0  0  0
   -3.1130   16.3900   -7.4640 O   0  0  0  0  0  0  0  0  0  0  0  0
   -2.9010   17.7070   -5.2150 O   0  0  0  0  0  0  0  0  0  0  0  0
  2  1  1  0
  3  2  1  0
  2  4  1  0
  2  5  1  0
  6  3  1  0
  6  7  1  0
  6  8  1  0
  6  9  1  0
M  CHG  2   4  -1   8  -1
M  END
