5LW0_1_B_γ-2BFQ_1_A_β
     RDKit          3D

 16 16  0  0  0  0  0  0  0  0999 V2000
   -1.4350   12.5150   -3.8950 O   0  0  0  0  0  0  0  0  0  0  0  0
   -0.3910   13.4040   -3.6390 C   0  0  2  0  0  0  0  0  0  0  0  0
   -0.7560   14.4690   -2.6130 C   0  0  0  0  0  0  0  0  0  0  0  0
    0.0230   14.2090   -4.8550 C   0  0  2  0  0  0  0  0  0  0  0  0
    1.4190   14.1620   -4.8290 O   0  0  0  0  0  0  0  0  0  0  0  0
   -0.2370   15.6510   -3.1650 O   0  0  0  0  0  0  0  0  0  0  0  0
   -0.5520   15.5510   -4.5080 C   0  0  1  0  0  0  0  0  0  0  0  0
   -0.1510   16.8310   -5.3020 C   0  0  0  0  0  0  0  0  0  0  0  0
   -1.4550   17.9850   -5.7120 P   0  0  0  0  0  0  0  0  0  0  0  0
   -0.6590   19.2580   -6.0940 O   0  0  0  0  0  0  0  0  0  0  0  0
   -2.0090   19.0380   -4.5170 O   0  0  0  0  0  0  0  0  0  0  0  0
   -2.3220   18.0150   -7.0700 O   0  0  0  0  0  0  0  0  0  0  0  0
   -0.0650   19.7030   -7.5220 P   0  0  0  0  0  0  0  0  0  0  0  0
   -1.3890   20.2470   -8.0830 O   0  0  0  0  0  0  0  0  0  0  0  0
    0.0320   18.6160   -8.7780 O   0  0  0  0  0  0  0  0  0  0  0  0
    0.6730   21.1830   -7.6860 O   0  0  0  0  0  0  0  0  0  0  0  0
  2  1  1  6
  2  3  1  0
  2  4  1  0
  4  5  1  1
  3  6  1  0
  4  7  1  0
  6  7  1  0
  7  8  1  6
  8  9  1  0
  9 10  1  0
  9 11  1  0
  9 12  1  0
 10 13  1  0
 13 14  1  0
 13 15  1  0
 13 16  1  0
M  CHG  2  11  -1  15  -1
M  END
