5LW0_0_A_δ-x0969_0_A_α
     RDKit          3D

 15 17  0  0  0  0  0  0  0  0999 V2000
   -4.3590   15.7330    1.9430 N   0  0  0  0  0  0  0  0  0  0  0  0
   -3.1520   15.6860    1.1530 C   0  0  2  0  0  0  0  0  0  0  0  0
   -3.3910   15.3240   -0.3080 C   0  0  1  0  0  0  0  0  0  0  0  0
   -2.2690   14.8130    1.8690 N   0  0  0  0  0  0  0  0  0  0  0  0
   -2.1410   14.6250   -0.9200 C   0  0  2  0  0  0  0  0  0  0  0  0
   -4.5640   14.4120   -0.5510 C   0  0  2  0  0  0  0  0  0  0  0  0
   -0.9840   14.6290    1.2380 C   0  0  0  0  0  0  0  0  0  0  0  0
   -2.6130   13.6370   -1.8420 N   0  0  0  0  0  0  0  0  0  0  0  0
   -4.0180   13.3310   -1.5050 C   0  0  0  0  0  0  0  0  0  0  0  0
   -1.1490   14.0370   -0.0490 N   0  0  0  0  0  0  0  0  0  0  0  0
   -5.7640   15.1100   -1.1010 N   0  0  0  0  0  0  0  0  0  0  0  0
   -5.0080   13.9730    0.7750 N   0  0  0  0  0  0  0  0  0  0  0  0
   -6.2170   14.4320    0.8530 C   0  0  0  0  0  0  0  0  0  0  0  0
   -6.7110   15.0520   -0.2580 N   0  0  0  0  0  0  0  0  0  0  0  0
   -6.9210   14.2910    2.0100 N   0  0  0  0  0  0  0  0  0  0  0  0
  2  1  1  1
  3  2  1  1
  2  4  1  0
  3  5  1  0
  3  6  1  0
  4  7  1  0
  5  8  1  6
  6  9  1  6
  8  9  1  0
  5 10  1  0
  7 10  1  0
  6 11  1  0
  6 12  1  0
 12 13  2  0
 11 14  2  0
 13 14  1  0
 13 15  1  0
M  END
