5LW0_1_B_γ-5CB3_0_A_γ
     RDKit          3D

  8  8  0  0  0  0  0  0  0  0999 V2000
   -0.5080   11.9770   -3.7290 O   0  0  0  0  0  0  0  0  0  0  0  0
   -0.8610   13.3390   -3.9570 C   0  0  1  0  0  0  0  0  0  0  0  0
   -0.7720   14.1810   -2.6850 C   0  0  0  0  0  0  0  0  0  0  0  0
    0.1980   13.9880   -4.8120 C   0  0  2  0  0  0  0  0  0  0  0  0
    1.4840   13.5020   -4.4340 O   0  0  0  0  0  0  0  0  0  0  0  0
   -0.2170   15.4630   -3.0680 O   0  0  0  0  0  0  0  0  0  0  0  0
   -0.1270   15.4440   -4.5000 C   0  0  1  0  0  0  0  0  0  0  0  0
    0.8080   16.5200   -5.0160 C   0  0  0  0  0  0  0  0  0  0  0  0
  2  1  1  1
  2  3  1  0
  2  4  1  0
  4  5  1  1
  3  6  1  0
  4  7  1  0
  6  7  1  0
  7  8  1  1
M  END
