5LW0_1_B_δ-5cms_A_0_A_α
     RDKit          3D

 26 28  0  0  0  0  0  0  0  0999 V2000
   -4.1220   15.5370    1.8460 N   0  0  0  0  0  0  0  0  0  0  0  0
   -3.1240   14.7800    1.0950 C   0  0  1  0  0  0  0  0  0  0  0  0
   -2.9770   15.2160   -0.3730 C   0  0  1  0  0  0  0  0  0  0  0  0
   -1.9220   15.0700    1.8190 N   0  0  0  0  0  0  0  0  0  0  0  0
   -1.5290   14.9090   -0.7750 C   0  0  2  0  0  0  0  0  0  0  0  0
   -3.8110   14.5520   -1.4040 N   0  0  0  0  0  0  0  0  0  0  0  0
   -0.7350   14.3370    1.4260 C   0  0  0  0  0  0  0  0  0  0  0  0
   -1.6250   14.3250   -2.0940 N   0  0  0  0  0  0  0  0  0  0  0  0
   -2.9480   14.5790   -2.5880 C   0  0  2  0  0  0  0  0  0  0  0  0
   -0.8450   13.9540    0.0520 N   0  0  0  0  0  0  0  0  0  0  0  0
   -3.0100   15.9360   -3.3010 C   0  0  0  0  0  0  0  0  0  0  0  0
   -2.6230   16.0790   -4.8020 C   0  0  0  0  0  0  0  0  0  0  0  0
   -1.4730   17.0840   -5.0860 C   0  0  0  0  0  0  0  0  0  0  0  0
   -1.7050   18.6110   -5.3070 C   0  0  0  0  0  0  0  0  0  0  0  0
   -2.6860   19.1880   -6.3810 C   0  0  0  0  0  0  0  0  0  0  0  0
   -3.2380   20.6000   -6.0350 C   0  0  0  0  0  0  0  0  0  0  0  0
   -3.6070   21.5490   -7.2060 C   0  0  0  0  0  0  0  0  0  0  0  0
   -2.5990   21.7330   -8.3470 C   0  0  0  0  0  0  0  0  0  0  0  0
   -2.9270   22.7000   -9.4690 C   0  0  2  0  0  0  0  0  0  0  0  0
   -3.9240   22.2190  -10.3520 O   0  0  0  0  0  0  0  0  0  0  0  0
   -1.9040   23.3090  -10.4300 C   0  0  1  0  0  0  0  0  0  0  0  0
   -1.2980   22.3800  -11.3320 O   0  0  0  0  0  0  0  0  0  0  0  0
   -4.2540   23.4810  -10.8930 C   0  0  2  0  0  0  0  0  0  0  0  0
   -2.8680   23.9870  -11.3640 C   0  0  1  0  0  0  0  0  0  0  0  0
   -4.8980   24.1870   -9.8440 O   0  0  0  0  0  0  0  0  0  0  0  0
   -2.6070   25.3660  -11.5460 O   0  0  0  0  0  0  0  0  0  0  0  0
  2  1  1  1
  2  3  1  0
  2  4  1  0
  3  5  1  0
  3  6  1  6
  4  7  1  0
  5  8  1  6
  6  9  1  0
  8  9  1  0
  5 10  1  0
  7 10  1  0
  9 11  1  1
 11 12  1  0
 12 13  1  0
 13 14  1  0
 14 15  1  0
 15 16  1  0
 16 17  1  0
 17 18  1  0
 19 18  1  6
 19 20  1  0
 19 21  1  0
 21 22  1  6
 20 23  1  0
 21 24  1  0
 23 24  1  0
 23 25  1  1
 24 26  1  1
M  END
