
     RDKit          3D

 36 39  0  0  0  0  0  0  0  0999 V2000
   -2.2510   17.1030   -6.4010 P   0  0  0  0  0  0  0  0  0  0  0  0
   -0.8530   18.4850   -8.6390 P   0  0  0  0  0  0  0  0  0  0  0  0
    0.1350   16.3490   -5.3750 C   0  0  0  0  0  0  0  0  0  0  0  0
   -1.1400   15.9880   -5.9430 O   0  0  0  0  0  0  0  0  0  0  0  0
    0.5610   15.3810   -4.3010 C   0  0  1  0  0  0  0  0  0  0  0  0
   -0.2280   15.5950   -3.1530 O   0  0  0  0  0  0  0  0  0  0  0  0
    0.3850   13.9010   -4.6890 C   0  0  1  0  0  0  0  0  0  0  0  0
    1.5950   13.1630   -4.3670 O   0  0  0  0  0  0  0  0  0  0  0  0
   -0.7890   13.4510   -3.8550 C   0  0  1  0  0  0  0  0  0  0  0  0
   -0.8560   12.0190   -3.5720 O   0  0  0  0  0  0  0  0  0  0  0  0
   -0.5910   14.2960   -2.6020 C   0  0  2  0  0  0  0  0  0  0  0  0
   -5.3010   20.5350   -7.3350 C   0  0  2  0  0  0  0  0  0  0  0  0
   -1.8470   15.0680    2.3350 N   0  0  0  0  0  0  0  0  0  0  0  0
   -3.1130   16.3900   -7.4640 O   0  0  0  0  0  0  0  0  0  0  0  0
   -0.5830   17.2040   -9.3890 O   0  0  0  0  0  0  0  0  0  0  0  0
   -6.6090   20.1770   -6.9410 O   0  0  0  0  0  0  0  0  0  0  0  0
   -0.6700   14.7760    1.7430 C   0  0  0  0  0  0  0  0  0  0  0  0
   -5.2910   22.0290   -7.7770 C   0  0  2  0  0  0  0  0  0  0  0  0
   -2.9010   17.7070   -5.2150 O   0  0  0  0  0  0  0  0  0  0  0  0
    0.2110   19.5390   -8.5540 O   0  0  0  0  0  0  0  0  0  0  0  0
   -6.6670   22.5840   -7.8280 O   0  0  0  0  0  0  0  0  0  0  0  0
   -4.6220   22.0350   -9.1240 C   0  0  2  0  0  0  0  0  0  0  0  0
   -0.5270   14.5570    0.4500 N   0  0  0  0  0  0  0  0  0  0  0  0
   -1.3310   18.2440   -7.1100 O   0  0  0  0  0  0  0  0  0  0  0  0
   -5.6830   22.2740  -10.0930 O   0  0  0  0  0  0  0  0  0  0  0  0
   -1.6090   14.6180   -0.3880 C   0  0  1  0  0  0  0  0  0  0  0  0
   -4.0240   20.6180   -9.2900 C   0  0  2  0  0  0  0  0  0  0  0  0
   -4.7540   19.7180   -8.4230 O   0  0  0  0  0  0  0  0  0  0  0  0
   -2.9000   14.9530    0.1290 C   0  0  0  0  0  0  0  0  0  0  0  0
   -2.5620   20.4810   -8.8800 C   0  0  0  0  0  0  0  0  0  0  0  0
   -2.1600   19.1600   -9.3070 O   0  0  0  0  0  0  0  0  0  0  0  0
   -2.9890   15.1920    1.5790 C   0  0  0  0  0  0  0  0  0  0  0  0
   -4.1140   15.5200    2.1690 N   0  0  0  0  0  0  0  0  0  0  0  0
   -3.7980   14.9490   -0.9660 N   0  0  0  0  0  0  0  0  0  0  0  0
   -3.0560   14.6860   -2.0650 C   0  0  0  0  0  0  0  0  0  0  0  0
   -1.7290   14.4930   -1.7300 N   0  0  0  0  0  0  0  0  0  0  0  0
  1  4  1  0
  1 14  1  0
  1 19  1  0
  1 24  1  0
  4  3  1  0
 24  2  1  0
  2 15  1  0
  2 20  1  0
  2 31  1  0
 31 30  1  0
  5  3  1  6
  5  6  1  0
  5  7  1  0
  6 11  1  0
  7  8  1  1
  7  9  1  0
 11  9  1  0
 11 36  1  6
  9 10  1  1
 36 26  1  0
 36 35  1  0
 12 16  1  6
 12 18  1  0
 12 28  1  0
 18 21  1  6
 18 22  1  0
 28 27  1  0
 13 17  1  0
 13 32  1  0
 17 23  1  0
 32 29  1  0
 32 33  1  0
 26 23  1  6
 22 25  1  6
 22 27  1  0
 27 30  1  1
 26 29  1  0
 29 34  1  0
 34 35  1  0
M  CHG  2  14  -1  15  -1
M  END
