5lw0_B_1_B_α-5CB5_0_Q_δ
     RDKit          3D

 24 26  0  0  0  0  0  0  0  0999 V2000
   -2.0170   21.1430   -8.9720 C   0  0  0  0  0  0  0  0  0  0  0  0
   -3.1940   21.8000   -8.3670 C   0  0  2  0  0  0  0  0  0  0  0  0
   -3.6710   20.7650   -7.6270 O   0  0  0  0  0  0  0  0  0  0  0  0
   -4.4730   22.2910   -9.0960 C   0  0  1  0  0  0  0  0  0  0  0  0
   -4.5900   22.0310  -10.4770 O   0  0  0  0  0  0  0  0  0  0  0  0
   -4.6920   21.4080   -6.9980 C   0  0  1  0  0  0  0  0  0  0  0  0
   -5.5610   21.6160   -8.2290 C   0  0  1  0  0  0  0  0  0  0  0  0
   -4.7770   20.4420   -6.0410 O   0  0  0  0  0  0  0  0  0  0  0  0
   -6.5810   22.5950   -8.0700 O   0  0  0  0  0  0  0  0  0  0  0  0
   -3.3870   20.5180   -5.4900 C   0  0  0  0  0  0  0  0  0  0  0  0
   -2.2510   19.3840   -5.5480 C   0  0  0  0  0  0  0  0  0  0  0  0
   -2.4020   17.9880   -6.2390 C   0  0  0  0  0  0  0  0  0  0  0  0
   -1.9450   16.7070   -5.4260 C   0  0  0  0  0  0  0  0  0  0  0  0
   -2.4150   16.5580   -3.9580 C   0  0  0  0  0  0  0  0  0  0  0  0
   -2.3380   15.3330   -2.9910 C   0  0  1  0  0  0  0  0  0  0  0  0
   -1.0030   15.0930   -2.4970 N   0  0  0  0  0  0  0  0  0  0  0  0
   -3.1950   15.4860   -1.7730 N   0  0  0  0  0  0  0  0  0  0  0  0
   -1.1210   14.5420   -1.1660 C   0  0  2  0  0  0  0  0  0  0  0  0
   -2.5540   14.6760   -0.6920 C   0  0  1  0  0  0  0  0  0  0  0  0
   -0.1530   15.1260   -0.2930 N   0  0  0  0  0  0  0  0  0  0  0  0
   -2.5080   15.3240    0.7220 C   0  0  1  0  0  0  0  0  0  0  0  0
   -3.7960   15.3540    1.4050 N   0  0  0  0  0  0  0  0  0  0  0  0
   -0.2280   14.5830    1.0390 C   0  0  0  0  0  0  0  0  0  0  0  0
   -1.5710   14.6560    1.5960 N   0  0  0  0  0  0  0  0  0  0  0  0
  2  1  1  6
  2  3  1  0
  2  4  1  0
  4  5  1  6
  3  6  1  0
  4  7  1  0
  6  7  1  0
  6  8  1  1
  7  9  1  1
  8 10  1  0
 10 11  1  0
 11 12  1  0
 12 13  1  0
 13 14  1  0
 15 14  1  1
 15 16  1  0
 15 17  1  0
 18 16  1  6
 19 17  1  6
 18 19  1  0
 18 20  1  0
 19 21  1  0
 21 22  1  1
 20 23  1  0
 21 24  1  0
 23 24  1  0
M  END
