5LW0_1_B_δ-x0371_0_A_β
     RDKit          3D

 15 17  0  0  0  0  0  0  0  0999 V2000
   -4.0730   15.6070    1.9320 N   0  0  0  0  0  0  0  0  0  0  0  0
   -2.9840   14.7440    1.5480 C   0  0  1  0  0  0  0  0  0  0  0  0
   -3.2670   13.9550    0.3040 C   0  0  2  0  0  0  0  0  0  0  0  0
   -1.7960   15.5090    1.4550 N   0  0  0  0  0  0  0  0  0  0  0  0
   -2.0570   13.8060   -0.6480 C   0  0  1  0  0  0  0  0  0  0  0  0
   -4.4950   14.2010   -0.5720 C   0  0  1  0  0  0  0  0  0  0  0  0
   -0.6880   14.6710    1.1010 C   0  0  0  0  0  0  0  0  0  0  0  0
   -2.5130   14.3760   -1.8950 N   0  0  0  0  0  0  0  0  0  0  0  0
   -3.9190   13.9290   -1.9700 C   0  0  0  0  0  0  0  0  0  0  0  0
   -0.8170   14.4620   -0.3060 N   0  0  0  0  0  0  0  0  0  0  0  0
   -5.6250   13.3240   -0.0760 N   0  0  0  0  0  0  0  0  0  0  0  0
   -5.2140   15.5010   -0.6140 C   0  0  0  0  0  0  0  0  0  0  0  0
   -6.6370   14.1190    0.0860 C   0  0  0  0  0  0  0  0  0  0  0  0
   -6.4490   15.4060   -0.2610 N   0  0  0  0  0  0  0  0  0  0  0  0
   -7.9810   13.7290    0.6280 C   0  0  0  0  0  0  0  0  0  0  0  0
  2  1  1  6
  3  2  1  1
  2  4  1  0
  3  5  1  0
  3  6  1  0
  4  7  1  0
  5  8  1  6
  6  9  1  6
  8  9  1  0
  5 10  1  0
  7 10  1  0
  6 11  1  0
  6 12  1  0
 11 13  2  0
 12 14  2  0
 13 14  1  0
 13 15  1  0
M  END
