5LW0_0_A_β-6fx_7_0A_γ
     RDKit          3D

 16 16  0  0  0  0  0  0  0  0999 V2000
   -1.4040   19.8580   -8.7310 O   0  0  0  0  0  0  0  0  0  0  0  0
   -0.3450   19.2560   -7.6580 P   0  0  0  0  0  0  0  0  0  0  0  0
   -0.5990   17.8060   -6.8880 O   0  0  0  0  0  0  0  0  0  0  0  0
    0.1940   18.4520   -8.8160 O   0  0  0  0  0  0  0  0  0  0  0  0
    0.9520   20.1310   -7.4050 O   0  0  0  0  0  0  0  0  0  0  0  0
   -1.9230   17.6560   -5.9910 P   0  0  0  0  0  0  0  0  0  0  0  0
   -1.5110   16.3310   -5.2910 O   0  0  0  0  0  0  0  0  0  0  0  0
   -3.2220   16.6830   -6.4800 O   0  0  0  0  0  0  0  0  0  0  0  0
   -2.0100   18.5070   -4.6320 O   0  0  0  0  0  0  0  0  0  0  0  0
   -0.2690   15.8420   -4.9360 C   0  0  1  0  0  0  0  0  0  0  0  0
   -0.1090   15.8940   -3.5600 O   0  0  0  0  0  0  0  0  0  0  0  0
   -0.0920   14.4110   -5.2590 C   0  0  1  0  0  0  0  0  0  0  0  0
    1.2410   13.9720   -5.1720 O   0  0  0  0  0  0  0  0  0  0  0  0
   -1.0240   14.9310   -3.1020 C   0  0  0  0  0  0  0  0  0  0  0  0
   -0.8220   13.7580   -4.0810 C   0  0  1  0  0  0  0  0  0  0  0  0
   -2.0030   13.2460   -4.5510 O   0  0  0  0  0  0  0  0  0  0  0  0
  1  2  1  0
  2  3  1  0
  2  4  1  0
  2  5  1  0
  3  6  1  0
  6  7  1  0
  6  8  1  0
  6  9  1  0
 10  7  1  1
 10 11  1  0
 10 12  1  0
 12 13  1  1
 11 14  1  0
 12 15  1  0
 14 15  1  0
 15 16  1  6
M  CHG  2   4  -1   8  -1
M  END
