5lw0_A_0_A_β-3VFQ_0_A_β
     RDKit          3D

 13 12  0  0  0  0  0  0  0  0999 V2000
   -1.7220   20.5460   -8.5950 O   0  0  0  0  0  0  0  0  0  0  0  0
   -0.7290   19.5320   -7.6680 P   0  0  0  0  0  0  0  0  0  0  0  0
   -1.4250   19.2100   -6.1420 O   0  0  0  0  0  0  0  0  0  0  0  0
   -0.4750   18.2980   -8.4900 O   0  0  0  0  0  0  0  0  0  0  0  0
    0.7290   20.3120   -7.6080 O   0  0  0  0  0  0  0  0  0  0  0  0
   -1.7000   17.5360   -5.8920 P   0  0  0  0  0  0  0  0  0  0  0  0
   -0.2890   16.6600   -5.8380 O   0  0  0  0  0  0  0  0  0  0  0  0
   -2.5580   17.1800   -7.0680 O   0  0  0  0  0  0  0  0  0  0  0  0
   -2.7470   17.1000   -4.7370 O   0  0  0  0  0  0  0  0  0  0  0  0
   -3.4320   15.6240   -5.0340 P   0  0  0  0  0  0  0  0  0  0  0  0
   -2.8140   14.9820   -3.8050 O   0  0  0  0  0  0  0  0  0  0  0  0
   -4.8590   15.1270   -4.2810 O   0  0  0  0  0  0  0  0  0  0  0  0
   -4.3180   16.0560   -6.2180 O   0  0  0  0  0  0  0  0  0  0  0  0
  1  2  1  0
  2  3  1  0
  2  4  2  0
  2  5  1  0
  3  6  1  0
  6  7  1  0
  6  8  2  0
  6  9  1  0
  9 10  1  0
 10 11  1  0
 10 12  1  0
 10 13  1  0
M  CHG  1  12  -1
M  END
