5lw0_A_0_A_α-5fud_B_0_B_α
     RDKit          3D

 20 21  0  0  0  0  0  0  0  0999 V2000
   -2.6140   21.3130   -8.3530 C   0  0  1  0  0  0  0  0  0  0  0  0
   -1.9310   22.6170   -7.9860 C   0  0  0  0  0  0  0  0  0  0  0  0
   -2.8540   23.7750   -8.1390 N   0  0  0  0  0  0  0  0  0  0  0  0
   -1.7460   19.9460   -7.4780 S   0  0  0  0  0  0  0  0  0  0  0  0
   -4.1280   21.4980   -8.0240 C   0  0  2  0  0  0  0  0  0  0  0  0
   -2.7570   19.4260   -6.5600 O   0  0  0  0  0  0  0  0  0  0  0  0
   -0.6620   20.6350   -6.8130 O   0  0  0  0  0  0  0  0  0  0  0  0
   -1.2530   18.9120   -8.4230 O   0  0  0  0  0  0  0  0  0  0  0  0
   -4.6890   20.3770   -7.3250 O   0  0  0  0  0  0  0  0  0  0  0  0
   -5.2110   21.9030   -9.0970 C   0  0  2  0  0  0  0  0  0  0  0  0
   -5.7410   23.2090   -8.8550 O   0  0  0  0  0  0  0  0  0  0  0  0
   -6.0360   20.7620   -7.3420 C   0  0  1  0  0  0  0  0  0  0  0  0
   -6.4320   21.0880   -8.7310 C   0  0  1  0  0  0  0  0  0  0  0  0
   -3.6940   23.6030   -9.3610 C   0  0  0  0  0  0  0  0  0  0  0  0
   -3.5900   24.0100   -6.8670 C   0  0  0  0  0  0  0  0  0  0  0  0
   -6.8270   19.6860   -7.0590 O   0  0  0  0  0  0  0  0  0  0  0  0
   -7.7050   21.6740   -8.8340 O   0  0  0  0  0  0  0  0  0  0  0  0
   -5.1990   23.8930   -9.2890 C   0  0  0  0  0  0  0  0  0  0  0  0
   -5.1050   23.9970   -6.9360 C   0  0  0  0  0  0  0  0  0  0  0  0
   -5.6020   24.6030   -8.1190 O   0  0  0  0  0  0  0  0  0  0  0  0
  1  2  1  1
  2  3  1  0
  1  4  1  0
  1  5  1  0
  4  6  2  0
  4  7  2  0
  4  8  1  0
  5  9  1  6
  5 10  1  0
 10 11  1  1
  9 12  1  0
 10 13  1  0
 12 13  1  0
  3 14  1  0
  3 15  1  0
 12 16  1  6
 13 17  1  1
 14 18  1  0
 15 19  1  0
 18 20  1  0
 19 20  1  0
M  CHG  1   8  -1
M  END
