5lw0_B_1_B_β-3vfq_B_0_A_α
     RDKit          3D

 20 20  0  0  0  0  0  0  0  0999 V2000
   -1.5510   19.7700   -8.2090 O   0  0  0  0  0  0  0  0  0  0  0  0
   -0.1320   19.2160   -7.7870 P   0  0  0  0  0  0  0  0  0  0  0  0
   -0.4250   18.0820   -6.6920 O   0  0  0  0  0  0  0  0  0  0  0  0
    0.8440   20.2840   -7.5140 O   0  0  0  0  0  0  0  0  0  0  0  0
    0.1670   18.3170   -9.0380 O   0  0  0  0  0  0  0  0  0  0  0  0
   -1.7760   17.8180   -5.9660 P   0  0  0  0  0  0  0  0  0  0  0  0
   -2.0980   16.2770   -5.7590 O   0  0  0  0  0  0  0  0  0  0  0  0
   -2.9820   18.5910   -6.7500 N   0  0  0  0  0  0  0  0  0  0  0  0
   -1.7700   18.4250   -4.5280 O   0  0  0  0  0  0  0  0  0  0  0  0
   -2.6670   20.0180   -6.8190 C   0  0  0  0  0  0  0  0  0  0  0  0
   -3.6780   20.9480   -6.1740 C   0  0  0  0  0  0  0  0  0  0  0  0
   -5.1030   20.8790   -6.6920 C   0  0  0  0  0  0  0  0  0  0  0  0
   -5.5220   21.7660   -7.8180 C   0  0  1  0  0  0  0  0  0  0  0  0
   -4.3760   22.0030   -8.6580 O   0  0  0  0  0  0  0  0  0  0  0  0
   -6.5520   21.2530   -8.8080 C   0  0  1  0  0  0  0  0  0  0  0  0
   -7.8930   21.1760   -8.4200 O   0  0  0  0  0  0  0  0  0  0  0  0
   -4.9050   22.5380   -9.8810 C   0  0  1  0  0  0  0  0  0  0  0  0
   -6.4280   22.3490   -9.8260 C   0  0  1  0  0  0  0  0  0  0  0  0
   -4.5490   23.9070   -9.9990 O   0  0  0  0  0  0  0  0  0  0  0  0
   -6.9950   21.9730  -11.0720 O   0  0  0  0  0  0  0  0  0  0  0  0
  1  2  1  0
  2  3  1  0
  2  4  2  0
  2  5  1  0
  3  6  1  0
  6  7  1  0
  6  8  2  3
  6  9  1  0
  8 10  1  0
 10 11  1  0
 11 12  1  0
 13 12  1  1
 13 14  1  0
 13 15  1  0
 15 16  1  1
 14 17  1  0
 15 18  1  0
 17 18  1  0
 17 19  1  1
 18 20  1  6
M  END
