5LW0_0_A_Î±
     RDKit          3D

  9  9  0  0  0  0  0  0  0  0999 V2000
   -2.5620   20.4810   -8.8800 C   0  0  0  0  0  0  0  0  0  0  0  0
   -4.0240   20.6180   -9.2900 C   0  0  1  0  0  0  0  0  0  0  0  0
   -4.7540   19.7180   -8.4230 O   0  0  0  0  0  0  0  0  0  0  0  0
   -4.6220   22.0350   -9.1240 C   0  0  2  0  0  0  0  0  0  0  0  0
   -5.3010   20.5350   -7.3350 C   0  0  1  0  0  0  0  0  0  0  0  0
   -5.2910   22.0290   -7.7770 C   0  0  2  0  0  0  0  0  0  0  0  0
   -5.6830   22.2740  -10.0930 O   0  0  0  0  0  0  0  0  0  0  0  0
   -6.6090   20.1770   -6.9410 O   0  0  0  0  0  0  0  0  0  0  0  0
   -6.6670   22.5840   -7.8280 O   0  0  0  0  0  0  0  0  0  0  0  0
  2  1  1  1
  3  2  1  0
  4  2  1  0
  5  3  1  0
  6  4  1  0
  4  7  1  6
  5  8  1  6
  5  6  1  0
  6  9  1  6
M  END
