5LW0_1_B_Î³
     RDKit          3D

  8  8  0  0  0  0  0  0  0  0999 V2000
   -0.7830   14.2350   -2.5470 C   0  0  0  0  0  0  0  0  0  0  0  0
   -0.2660   15.5520   -3.0130 O   0  0  0  0  0  0  0  0  0  0  0  0
   -1.0330   13.4330   -3.8150 C   0  0  1  0  0  0  0  0  0  0  0  0
    0.4790   15.3540   -4.2160 C   0  0  1  0  0  0  0  0  0  0  0  0
    0.2090   13.8650   -4.6080 C   0  0  1  0  0  0  0  0  0  0  0  0
   -1.1240   12.0010   -3.5900 O   0  0  0  0  0  0  0  0  0  0  0  0
   -0.0030   16.3930   -5.2530 C   0  0  0  0  0  0  0  0  0  0  0  0
    1.3480   13.0600   -4.1900 O   0  0  0  0  0  0  0  0  0  0  0  0
  1  2  1  1
  1  3  1  0
  4  2  1  0
  5  3  1  0
  3  6  1  1
  4  7  1  6
  4  5  1  0
  5  8  1  1
M  END
