5lw0_B_1_B_γ-6woj_D_0_D_γ
     RDKit          3D

  8  8  0  0  0  0  0  0  0  0999 V2000
   -0.4550   11.9830   -3.6610 O   0  0  0  0  0  0  0  0  0  0  0  0
   -0.7950   13.3440   -3.9100 C   0  0  1  0  0  0  0  0  0  0  0  0
   -0.6940   14.2080   -2.6520 C   0  0  0  0  0  0  0  0  0  0  0  0
    0.2600   13.9800   -4.7850 C   0  0  2  0  0  0  0  0  0  0  0  0
    1.5470   13.4960   -4.4190 O   0  0  0  0  0  0  0  0  0  0  0  0
   -0.1500   15.4860   -3.0600 O   0  0  0  0  0  0  0  0  0  0  0  0
   -0.0720   15.4400   -4.4910 C   0  0  1  0  0  0  0  0  0  0  0  0
    0.8460   16.5230   -5.0260 C   0  0  0  0  0  0  0  0  0  0  0  0
  2  1  1  1
  2  3  1  0
  2  4  1  0
  4  5  1  1
  3  6  1  0
  4  7  1  0
  6  7  1  0
  7  8  1  1
M  END
