5MQX_0_A_Î²
     RDKit          3D

  9  8  0  0  0  0  0  0  0  0999 V2000
   -4.0320   18.9740   -5.9130 O   0  0  0  0  0  0  0  0  0  0  0  0
   -3.7480   19.0220   -4.3310 P   0  0  0  0  0  0  0  0  0  0  0  0
   -3.0850   17.6040   -4.1380 O   0  0  0  0  0  0  0  0  0  0  0  0
   -4.9420   19.2390   -3.4750 O   0  0  0  0  0  0  0  0  0  0  0  0
   -2.8280   20.1070   -3.9430 O   0  0  0  0  0  0  0  0  0  0  0  0
   -3.8260   16.2110   -4.1700 P   0  0  0  0  0  0  0  0  0  0  0  0
   -2.5290   15.3290   -4.4950 O   0  0  0  0  0  0  0  0  0  0  0  0
   -4.4170   15.8420   -2.8640 O   0  0  0  0  0  0  0  0  0  0  0  0
   -4.8590   16.0570   -5.2110 O   0  0  0  0  0  0  0  0  0  0  0  0
  2  1  1  0
  3  2  1  0
  2  4  1  0
  2  5  1  0
  6  3  1  0
  6  7  1  0
  6  8  1  0
  6  9  1  0
M  CHG  2   4  -1   8  -1
M  END
