5mqx_0_A_α-5MQX_0_A_δ
     RDKit          3D

 24 26  0  0  0  0  0  0  0  0999 V2000
   -5.9880   20.1390   -7.8060 C   0  0  0  0  0  0  0  0  0  0  0  0
   -6.7930   18.8830   -8.0680 C   0  0  2  0  0  0  0  0  0  0  0  0
   -6.1930   17.6100   -7.8940 O   0  0  0  0  0  0  0  0  0  0  0  0
   -8.0150   18.8250   -8.9510 C   0  0  1  0  0  0  0  0  0  0  0  0
   -7.8950   19.3880  -10.2360 O   0  0  0  0  0  0  0  0  0  0  0  0
   -7.3200   16.7440   -7.8380 C   0  0  1  0  0  0  0  0  0  0  0  0
   -8.3440   17.3210   -8.8650 C   0  0  1  0  0  0  0  0  0  0  0  0
   -6.9390   15.4100   -8.0560 O   0  0  0  0  0  0  0  0  0  0  0  0
   -9.6940   17.2220   -8.4020 O   0  0  0  0  0  0  0  0  0  0  0  0
   -5.5240   15.1380   -8.0720 C   0  0  0  0  0  0  0  0  0  0  0  0
   -4.7200   15.5830   -6.8320 C   0  0  0  0  0  0  0  0  0  0  0  0
   -4.9190   14.6850   -5.5840 C   0  0  0  0  0  0  0  0  0  0  0  0
   -3.8430   14.8940   -4.4900 C   0  0  0  0  0  0  0  0  0  0  0  0
   -4.1740   14.2810   -3.1000 C   0  0  0  0  0  0  0  0  0  0  0  0
   -3.3950   14.7120   -1.8210 C   0  0  2  0  0  0  0  0  0  0  0  0
   -2.0190   14.2390   -1.7710 N   0  0  0  0  0  0  0  0  0  0  0  0
   -4.0670   14.3610   -0.5620 N   0  0  0  0  0  0  0  0  0  0  0  0
   -1.7900   13.5590   -0.5250 C   0  0  2  0  0  0  0  0  0  0  0  0
   -3.0710   13.7000    0.3070 C   0  0  1  0  0  0  0  0  0  0  0  0
   -0.5040   13.9390    0.0160 N   0  0  0  0  0  0  0  0  0  0  0  0
   -2.8190   14.4370    1.6250 C   0  0  2  0  0  0  0  0  0  0  0  0
   -3.8760   15.3760    1.9580 N   0  0  0  0  0  0  0  0  0  0  0  0
   -0.4870   14.2760    1.4100 C   0  0  0  0  0  0  0  0  0  0  0  0
   -1.5860   15.1480    1.6320 N   0  0  0  0  0  0  0  0  0  0  0  0
  2  1  1  6
  2  3  1  0
  2  4  1  0
  4  5  1  6
  3  6  1  0
  4  7  1  0
  6  7  1  0
  6  8  1  6
  7  9  1  1
  8 10  1  0
 10 11  1  0
 11 12  1  0
 12 13  1  0
 13 14  1  0
 15 14  1  6
 15 16  1  0
 15 17  1  0
 18 16  1  6
 19 17  1  6
 18 19  1  0
 18 20  1  0
 19 21  1  0
 21 22  1  6
 20 23  1  0
 21 24  1  0
 23 24  1  0
M  END
