5mqx_0_A_α-5CMS_0_M_δ
     RDKit          3D

 23 25  0  0  0  0  0  0  0  0999 V2000
   -5.4760   15.8330   -6.7530 C   0  0  0  0  0  0  0  0  0  0  0  0
   -6.9140   15.8920   -7.2110 C   0  0  2  0  0  0  0  0  0  0  0  0
   -7.1640   14.7830   -8.0040 O   0  0  0  0  0  0  0  0  0  0  0  0
   -7.7290   16.9490   -7.9840 C   0  0  1  0  0  0  0  0  0  0  0  0
   -7.6490   17.1660   -9.3930 O   0  0  0  0  0  0  0  0  0  0  0  0
   -8.4870   14.7340   -7.5420 C   0  0  2  0  0  0  0  0  0  0  0  0
   -9.0250   16.1720   -7.7880 C   0  0  2  0  0  0  0  0  0  0  0  0
   -8.4110   14.5020   -6.1120 O   0  0  0  0  0  0  0  0  0  0  0  0
   -9.8680   16.3970   -8.9140 O   0  0  0  0  0  0  0  0  0  0  0  0
   -7.2710   13.7110   -5.6690 C   0  0  0  0  0  0  0  0  0  0  0  0
   -6.7880   14.1870   -4.2730 C   0  0  0  0  0  0  0  0  0  0  0  0
   -5.4890   13.5830   -3.6820 C   0  0  0  0  0  0  0  0  0  0  0  0
   -4.1740   14.3470   -3.9980 C   0  0  0  0  0  0  0  0  0  0  0  0
   -3.4450   15.0350   -2.8090 C   0  0  2  0  0  0  0  0  0  0  0  0
   -2.1900   14.3460   -2.4690 N   0  0  0  0  0  0  0  0  0  0  0  0
   -4.2080   15.1170   -1.5470 N   0  0  0  0  0  0  0  0  0  0  0  0
   -1.9090   14.9240   -1.1800 C   0  0  1  0  0  0  0  0  0  0  0  0
   -3.2290   14.6960   -0.5060 C   0  0  1  0  0  0  0  0  0  0  0  0
   -0.8240   14.3130   -0.4610 N   0  0  0  0  0  0  0  0  0  0  0  0
   -3.0970   15.5010    0.7870 C   0  0  1  0  0  0  0  0  0  0  0  0
   -4.2960   15.5130    1.6320 N   0  0  0  0  0  0  0  0  0  0  0  0
   -0.6960   14.9200    0.8680 C   0  0  0  0  0  0  0  0  0  0  0  0
   -1.9920   14.9990    1.5710 N   0  0  0  0  0  0  0  0  0  0  0  0
  2  1  1  6
  2  3  1  0
  2  4  1  0
  4  5  1  6
  3  6  1  0
  4  7  1  0
  6  7  1  0
  6  8  1  1
  7  9  1  6
  8 10  1  0
 10 11  1  0
 11 12  1  0
 12 13  1  0
 14 13  1  6
 14 15  1  0
 14 16  1  0
 17 15  1  6
 18 16  1  6
 17 18  1  0
 17 19  1  0
 18 20  1  0
 20 21  1  1
 19 22  1  0
 20 23  1  0
 22 23  1  0
M  END
