5MQX_0_A_Î´
     RDKit          3D

 10 11  0  0  0  0  0  0  0  0999 V2000
   -1.9540   13.4940   -0.8310 N   0  0  0  0  0  0  0  0  0  0  0  0
   -1.6460   13.9160    0.3940 C   0  0  0  0  0  0  0  0  0  0  0  0
   -3.3320   13.5900   -0.9400 C   0  0  0  0  0  0  0  0  0  0  0  0
   -0.4580   14.0330    1.0150 N   0  0  0  0  0  0  0  0  0  0  0  0
   -2.8300   14.2410    0.9860 C   0  0  0  0  0  0  0  0  0  0  0  0
   -3.9150   14.0030    0.2190 N   0  0  0  0  0  0  0  0  0  0  0  0
   -0.4990   14.5570    2.2560 C   0  0  0  0  0  0  0  0  0  0  0  0
   -2.7550   14.7880    2.2650 C   0  0  1  0  0  0  0  0  0  0  0  0
   -1.6070   14.9330    2.9240 N   0  0  0  0  0  0  0  0  0  0  0  0
   -3.8230   15.2990    2.9010 N   0  0  0  0  0  0  0  0  0  0  0  0
  1  2  1  0
  1  3  1  0
  4  2  1  0
  2  5  1  0
  6  3  1  0
  7  4  1  0
  8  5  1  0
  5  6  1  0
  9  7  1  0
  9  8  1  0
  8 10  1  6
M  END
