5MQX_0_A_γ-5L9K_0_B_β
     RDKit          3D

 19 19  0  0  0  0  0  0  0  0999 V2000
    0.1450   10.9020   -1.6960 O   0  0  0  0  0  0  0  0  0  0  0  0
   -0.8970   11.4870   -2.4100 C   0  0  1  0  0  0  0  0  0  0  0  0
   -1.1480   12.8680   -1.7570 C   0  0  0  0  0  0  0  0  0  0  0  0
   -0.4220   11.8850   -3.8090 C   0  0  1  0  0  0  0  0  0  0  0  0
   -1.0920   11.1450   -4.7180 O   0  0  0  0  0  0  0  0  0  0  0  0
   -0.4630   13.7290   -2.5910 O   0  0  0  0  0  0  0  0  0  0  0  0
   -0.7480   13.4220   -3.8910 C   0  0  2  0  0  0  0  0  0  0  0  0
   -2.2140   13.6170   -4.2700 C   0  0  0  0  0  0  0  0  0  0  0  0
   -2.5360   15.0930   -4.0820 C   0  0  0  0  0  0  0  0  0  0  0  0
   -2.3500   15.6260   -5.4790 C   0  0  0  0  0  0  0  0  0  0  0  0
   -1.3720   16.5550   -5.7020 O   0  0  0  0  0  0  0  0  0  0  0  0
   -1.9360   18.0010   -5.5570 P   0  0  0  0  0  0  0  0  0  0  0  0
   -0.6390   18.6920   -6.2490 O   0  0  0  0  0  0  0  0  0  0  0  0
   -2.5300   19.3180   -5.2910 O   0  0  0  0  0  0  0  0  0  0  0  0
   -3.0820   17.6200   -6.6680 O   0  0  0  0  0  0  0  0  0  0  0  0
   -0.7520   19.3080   -7.6860 P   0  0  0  0  0  0  0  0  0  0  0  0
   -1.8730   20.5260   -8.0810 O   0  0  0  0  0  0  0  0  0  0  0  0
    0.2590   20.3940   -7.5000 O   0  0  0  0  0  0  0  0  0  0  0  0
    0.1640   18.7320   -8.8580 O   0  0  0  0  0  0  0  0  0  0  0  0
  2  1  1  1
  2  3  1  0
  2  4  1  0
  4  5  1  6
  3  6  1  0
  4  7  1  0
  6  7  1  0
  7  8  1  1
  8  9  1  0
  9 10  1  0
 10 11  1  0
 11 12  1  0
 12 13  1  0
 12 14  1  0
 12 15  1  0
 13 16  1  0
 16 17  1  0
 16 18  1  0
 16 19  1  0
M  CHG  2  14  -1  18  -1
M  END
