5MQX_0_A_δ-5dus_0_A_β
     RDKit          3D

 22 23  0  0  0  0  0  0  0  0999 V2000
   -3.9490   15.6320    2.3720 N   0  0  0  0  0  0  0  0  0  0  0  0
   -3.2340   15.2830    1.1660 C   0  0  2  0  0  0  0  0  0  0  0  0
   -3.1360   14.0980    0.2300 C   0  0  2  0  0  0  0  0  0  0  0  0
   -2.2710   14.6300    2.0330 N   0  0  0  0  0  0  0  0  0  0  0  0
   -1.8050   14.2510   -0.4570 C   0  0  2  0  0  0  0  0  0  0  0  0
   -4.1230   13.9800   -0.8420 N   0  0  0  0  0  0  0  0  0  0  0  0
   -0.8640   14.5430    1.5870 C   0  0  0  0  0  0  0  0  0  0  0  0
   -1.9920   13.6010   -1.7410 N   0  0  0  0  0  0  0  0  0  0  0  0
   -3.3860   13.1680   -1.7940 C   0  0  0  0  0  0  0  0  0  0  0  0
   -0.7610   13.7820    0.3820 N   0  0  0  0  0  0  0  0  0  0  0  0
   -1.5530   14.3040   -2.9570 C   0  0  0  0  0  0  0  0  0  0  0  0
   -1.4720   15.8500   -2.8850 C   0  0  0  0  0  0  0  0  0  0  0  0
   -0.5800   16.5840   -3.8910 C   0  0  0  0  0  0  0  0  0  0  0  0
   -1.1750   16.6090   -5.1780 O   0  0  0  0  0  0  0  0  0  0  0  0
   -1.5940   18.0010   -5.8660 P   0  0  1  0  0  0  0  0  0  0  0  0
   -0.2730   18.7690   -6.2810 O   0  0  0  0  0  0  0  0  0  0  0  0
   -2.6360   17.8720   -6.9180 O   0  0  0  0  0  0  0  0  0  0  0  0
   -2.0970   18.8910   -4.6740 O   0  0  0  0  0  0  0  0  0  0  0  0
   -0.1270   19.6730   -7.5740 P   0  0  0  0  0  0  0  0  0  0  0  0
   -1.5820   20.2260   -7.9280 O   0  0  0  0  0  0  0  0  0  0  0  0
    0.9590   20.7030   -7.5530 O   0  0  0  0  0  0  0  0  0  0  0  0
    0.0610   18.5570   -8.7010 O   0  0  0  0  0  0  0  0  0  0  0  0
  2  1  1  1
  2  3  1  0
  2  4  1  0
  3  5  1  0
  3  6  1  6
  4  7  1  0
  5  8  1  0
  6  9  1  0
  8  9  1  0
  5 10  1  1
  7 10  1  0
  8 11  1  0
 11 12  1  0
 12 13  1  0
 13 14  1  0
 14 15  1  0
 15 16  1  0
 15 17  2  0
 15 18  1  1
 16 19  1  0
 19 20  1  0
 19 21  2  0
 19 22  1  0
M  END
