5MQX_0_A_γ-5LW0_0_A_β
     RDKit          3D

 18 18  0  0  0  0  0  0  0  0999 V2000
   -0.0070   10.6170   -2.2360 O   0  0  0  0  0  0  0  0  0  0  0  0
   -1.0610   11.5230   -2.4450 C   0  0  1  0  0  0  0  0  0  0  0  0
   -0.5700   12.8250   -1.7790 C   0  0  0  0  0  0  0  0  0  0  0  0
   -1.1580   11.9360   -3.9290 C   0  0  2  0  0  0  0  0  0  0  0  0
   -0.1740   11.2870   -4.6240 O   0  0  0  0  0  0  0  0  0  0  0  0
   -1.1170   13.8280   -2.5890 O   0  0  0  0  0  0  0  0  0  0  0  0
   -0.8630   13.3890   -3.9110 C   0  0  2  0  0  0  0  0  0  0  0  0
   -1.6970   14.2830   -4.7500 C   0  0  0  0  0  0  0  0  0  0  0  0
   -1.4330   15.7880   -4.3920 C   0  0  0  0  0  0  0  0  0  0  0  0
   -1.0270   16.4820   -5.5550 O   0  0  0  0  0  0  0  0  0  0  0  0
   -1.7080   17.7780   -6.0170 P   0  0  0  0  0  0  0  0  0  0  0  0
   -0.3770   18.3640   -6.8350 O   0  0  0  0  0  0  0  0  0  0  0  0
   -2.8590   16.9540   -6.7580 O   0  0  0  0  0  0  0  0  0  0  0  0
   -1.9120   18.3320   -4.4990 O   0  0  0  0  0  0  0  0  0  0  0  0
   -0.4890   19.4070   -7.9370 P   0  0  0  0  0  0  0  0  0  0  0  0
   -2.1080   19.6590   -7.5550 O   0  0  0  0  0  0  0  0  0  0  0  0
   -0.0500   18.2960   -9.0030 O   0  0  0  0  0  0  0  0  0  0  0  0
    0.5780   20.5070   -7.4980 O   0  0  0  0  0  0  0  0  0  0  0  0
  2  1  1  6
  2  3  1  0
  2  4  1  0
  4  5  1  6
  3  6  1  0
  4  7  1  0
  6  7  1  0
  7  8  1  6
  8  9  1  0
  9 10  1  0
 10 11  1  0
 11 12  1  0
 11 13  1  0
 11 14  1  0
 12 15  1  0
 15 16  1  0
 15 17  1  0
 15 18  1  0
M  CHG  2  13  -1  17  -1
M  END
