5mqx_0_A_α-5CB5_0_D_δ
     RDKit          3D

 23 25  0  0  0  0  0  0  0  0999 V2000
   -5.8110   16.2340   -6.7650 C   0  0  0  0  0  0  0  0  0  0  0  0
   -7.1020   16.4440   -7.4830 C   0  0  2  0  0  0  0  0  0  0  0  0
   -7.1870   15.4180   -8.3870 O   0  0  0  0  0  0  0  0  0  0  0  0
   -7.8120   17.5890   -8.2480 C   0  0  1  0  0  0  0  0  0  0  0  0
   -7.5670   17.9820   -9.6040 O   0  0  0  0  0  0  0  0  0  0  0  0
   -8.4500   15.3140   -7.8420 C   0  0  2  0  0  0  0  0  0  0  0  0
   -9.0550   16.7020   -8.2780 C   0  0  2  0  0  0  0  0  0  0  0  0
   -8.1880   15.2210   -6.3910 O   0  0  0  0  0  0  0  0  0  0  0  0
   -9.5960   16.8000   -9.5800 O   0  0  0  0  0  0  0  0  0  0  0  0
   -7.2220   14.1790   -6.0010 C   0  0  0  0  0  0  0  0  0  0  0  0
   -6.7560   14.2890   -4.5030 C   0  0  0  0  0  0  0  0  0  0  0  0
   -5.4320   13.6040   -4.0150 C   0  0  0  0  0  0  0  0  0  0  0  0
   -4.0840   14.4040   -4.0940 C   0  0  0  0  0  0  0  0  0  0  0  0
   -3.4880   15.0550   -2.7830 C   0  0  2  0  0  0  0  0  0  0  0  0
   -2.0100   14.9030   -2.6660 N   0  0  0  0  0  0  0  0  0  0  0  0
   -4.0110   14.5890   -1.4920 N   0  0  0  0  0  0  0  0  0  0  0  0
   -1.7540   14.6500   -1.2480 C   0  0  2  0  0  0  0  0  0  0  0  0
   -2.9890   15.2110   -0.6200 C   0  0  2  0  0  0  0  0  0  0  0  0
   -0.5570   15.2550   -0.7250 N   0  0  0  0  0  0  0  0  0  0  0  0
   -2.9060   14.8630    0.8810 C   0  0  2  0  0  0  0  0  0  0  0  0
   -3.8900   15.5680    1.6980 N   0  0  0  0  0  0  0  0  0  0  0  0
   -0.4230   14.9100    0.6880 C   0  0  0  0  0  0  0  0  0  0  0  0
   -1.6290   15.2630    1.4370 N   0  0  0  0  0  0  0  0  0  0  0  0
  2  1  1  6
  2  3  1  0
  2  4  1  0
  4  5  1  6
  3  6  1  0
  4  7  1  0
  6  7  1  0
  6  8  1  1
  7  9  1  6
  8 10  1  0
 10 11  1  0
 11 12  1  0
 12 13  1  0
 14 13  1  6
 14 15  1  0
 14 16  1  0
 17 15  1  6
 18 16  1  6
 17 18  1  0
 17 19  1  0
 18 20  1  0
 20 21  1  1
 19 22  1  0
 20 23  1  0
 22 23  1  0
M  END
