5MQX_0_A_δ-x0104_0_A_β
     RDKit          3D

 19 21  0  0  0  0  0  0  0  0999 V2000
   -3.3610   15.2510    2.1240 N   0  0  0  0  0  0  0  0  0  0  0  0
   -2.5450   14.4050    1.3130 C   0  0  1  0  0  0  0  0  0  0  0  0
   -2.8260   14.6660   -0.1500 C   0  0  1  0  0  0  0  0  0  0  0  0
   -1.1770   14.6870    1.6860 N   0  0  0  0  0  0  0  0  0  0  0  0
   -1.5320   14.4130   -0.9460 C   0  0  2  0  0  0  0  0  0  0  0  0
   -3.7400   13.8400   -0.8790 N   0  0  0  0  0  0  0  0  0  0  0  0
   -0.1820   14.0040    0.8980 C   0  0  0  0  0  0  0  0  0  0  0  0
   -1.9960   14.0370   -2.2830 N   0  0  0  0  0  0  0  0  0  0  0  0
   -3.4020   14.4570   -2.1440 C   0  0  1  0  0  0  0  0  0  0  0  0
   -0.7290   13.4200   -0.3170 N   0  0  0  0  0  0  0  0  0  0  0  0
   -4.3850   14.2050   -3.3020 C   0  0  0  0  0  0  0  0  0  0  0  0
   -5.6690   14.7830   -2.9820 O   0  0  0  0  0  0  0  0  0  0  0  0
   -6.0190   14.7450   -1.6390 C   0  0  0  0  0  0  0  0  0  0  0  0
   -5.1390   15.1460   -0.7080 N   0  0  0  0  0  0  0  0  0  0  0  0
   -7.2850   14.2780   -1.3150 C   0  0  0  0  0  0  0  0  0  0  0  0
   -5.5260   15.0700    0.5850 C   0  0  0  0  0  0  0  0  0  0  0  0
   -7.6540   14.2150    0.0360 C   0  0  0  0  0  0  0  0  0  0  0  0
   -6.7600   14.6160    1.0270 C   0  0  0  0  0  0  0  0  0  0  0  0
   -7.0740   14.5710    2.3900 N   0  0  0  0  0  0  0  0  0  0  0  0
  2  1  1  1
  2  3  1  0
  2  4  1  0
  3  5  1  0
  3  6  1  6
  4  7  1  0
  5  8  1  6
  6  9  1  0
  8  9  1  0
  5 10  1  0
  7 10  1  0
  9 11  1  6
 11 12  1  0
 12 13  1  0
 13 14  2  0
 13 15  1  0
 14 16  1  0
 15 17  2  0
 16 18  2  0
 17 18  1  0
 18 19  1  0
M  END
