
     RDKit          3D

 36 39  0  0  0  0  0  0  0  0999 V2000
   -3.8260   16.2110   -4.1700 P   0  0  0  0  0  0  0  0  0  0  0  0
   -3.7480   19.0220   -4.3310 P   0  0  0  0  0  0  0  0  0  0  0  0
   -2.5960   13.8870   -4.4910 C   0  0  0  0  0  0  0  0  0  0  0  0
   -2.5290   15.3290   -4.4950 O   0  0  0  0  0  0  0  0  0  0  0  0
   -1.1990   13.3300   -4.1380 C   0  0  1  0  0  0  0  0  0  0  0  0
   -0.7800   13.8980   -2.8760 O   0  0  0  0  0  0  0  0  0  0  0  0
   -1.2210   11.8000   -3.9150 C   0  0  1  0  0  0  0  0  0  0  0  0
   -0.0130   11.1810   -4.4120 O   0  0  0  0  0  0  0  0  0  0  0  0
   -1.3100   11.6080   -2.3840 C   0  0  1  0  0  0  0  0  0  0  0  0
   -0.3700   10.5940   -1.9770 O   0  0  0  0  0  0  0  0  0  0  0  0
   -0.9760   12.9930   -1.7770 C   0  0  2  0  0  0  0  0  0  0  0  0
   -7.2260   17.0610   -7.2560 C   0  0  1  0  0  0  0  0  0  0  0  0
   -1.6070   14.9330    2.9240 N   0  0  0  0  0  0  0  0  0  0  0  0
   -4.4170   15.8420   -2.8640 O   0  0  0  0  0  0  0  0  0  0  0  0
   -4.9420   19.2390   -3.4750 O   0  0  0  0  0  0  0  0  0  0  0  0
   -7.2650   16.8730   -5.8550 O   0  0  0  0  0  0  0  0  0  0  0  0
   -0.4990   14.5570    2.2560 C   0  0  0  0  0  0  0  0  0  0  0  0
   -8.1150   18.2360   -7.7360 C   0  0  2  0  0  0  0  0  0  0  0  0
   -4.8590   16.0570   -5.2110 O   0  0  0  0  0  0  0  0  0  0  0  0
   -2.8280   20.1070   -3.9430 O   0  0  0  0  0  0  0  0  0  0  0  0
   -8.9480   17.9060   -8.8490 O   0  0  0  0  0  0  0  0  0  0  0  0
   -7.1240   19.3330   -8.2020 C   0  0  2  0  0  0  0  0  0  0  0  0
   -0.4580   14.0330    1.0150 N   0  0  0  0  0  0  0  0  0  0  0  0
   -3.0850   17.6040   -4.1380 O   0  0  0  0  0  0  0  0  0  0  0  0
   -7.1680   19.5170   -9.6450 O   0  0  0  0  0  0  0  0  0  0  0  0
   -1.6460   13.9160    0.3940 C   0  0  0  0  0  0  0  0  0  0  0  0
   -5.7210   18.8450   -7.7430 C   0  0  2  0  0  0  0  0  0  0  0  0
   -5.8730   17.4210   -7.5780 O   0  0  0  0  0  0  0  0  0  0  0  0
   -2.8300   14.2410    0.9860 C   0  0  0  0  0  0  0  0  0  0  0  0
   -5.3100   19.4480   -6.3860 C   0  0  0  0  0  0  0  0  0  0  0  0
   -4.0320   18.9740   -5.9130 O   0  0  0  0  0  0  0  0  0  0  0  0
   -2.7550   14.7880    2.2650 C   0  0  2  0  0  0  0  0  0  0  0  0
   -3.8230   15.2990    2.9010 N   0  0  0  0  0  0  0  0  0  0  0  0
   -3.9150   14.0030    0.2190 N   0  0  0  0  0  0  0  0  0  0  0  0
   -3.3320   13.5900   -0.9400 C   0  0  0  0  0  0  0  0  0  0  0  0
   -1.9540   13.4940   -0.8310 N   0  0  0  0  0  0  0  0  0  0  0  0
  1  4  1  0
  1 14  1  0
  1 19  1  0
  1 24  1  0
  4  3  1  0
 24  2  1  0
  2 15  1  0
  2 20  1  0
  2 31  1  0
 31 30  1  0
  5  3  1  1
  5  6  1  0
  5  7  1  0
  6 11  1  0
  7  8  1  1
  7  9  1  0
 11  9  1  0
 11 36  1  1
  9 10  1  1
 36 26  1  0
 36 35  1  0
 12 16  1  1
 12 18  1  0
 12 28  1  0
 18 21  1  6
 18 22  1  0
 28 27  1  0
 13 17  1  0
 13 32  1  0
 17 23  1  0
 32 29  1  0
 32 33  1  6
 23 26  1  0
 22 25  1  6
 22 27  1  0
 27 30  1  1
 26 29  1  0
 29 34  1  0
 34 35  1  0
M  CHG  2  14  -1  15  -1
M  END
