5MQX_0_A_β-mArh-EU0815_0_A_β
     RDKit          3D

 16 16  0  0  0  0  0  0  0  0999 V2000
   -2.3220   19.2980   -6.7750 O   0  0  0  0  0  0  0  0  0  0  0  0
   -2.0440   18.3240   -5.5960 P   0  0  0  0  0  0  0  0  0  0  0  0
   -2.2850   17.3500   -4.3990 O   0  0  0  0  0  0  0  0  0  0  0  0
   -2.7010   19.5380   -4.6810 O   0  0  0  0  0  0  0  0  0  0  0  0
   -0.4500   18.3930   -5.5580 O   0  0  0  0  0  0  0  0  0  0  0  0
   -3.1440   15.9300   -4.1850 P   0  0  0  0  0  0  0  0  0  0  0  0
   -2.0140   15.0240   -4.6410 O   0  0  0  0  0  0  0  0  0  0  0  0
   -3.3680   15.0610   -2.7270 O   0  0  0  0  0  0  0  0  0  0  0  0
   -4.1380   15.4380   -5.4690 O   0  0  0  0  0  0  0  0  0  0  0  0
   -4.0990   15.0480   -1.5260 C   0  0  0  0  0  0  0  0  0  0  0  0
   -3.4420   14.9020   -0.3090 C   0  0  0  0  0  0  0  0  0  0  0  0
   -5.4910   15.1550   -1.4480 C   0  0  0  0  0  0  0  0  0  0  0  0
   -6.2910   15.3000   -2.5340 F   0  0  0  0  0  0  0  0  0  0  0  0
   -4.0820   14.8580    0.9120 C   0  0  0  0  0  0  0  0  0  0  0  0
   -6.1650   15.1140   -0.2450 C   0  0  0  0  0  0  0  0  0  0  0  0
   -5.4470   14.9650    0.9200 C   0  0  0  0  0  0  0  0  0  0  0  0
  1  2  1  0
  2  3  1  0
  2  4  1  0
  2  5  1  0
  3  6  1  0
  6  7  1  0
  6  8  1  0
  6  9  1  0
  8 10  1  0
 10 11  2  0
 10 12  1  0
 12 13  1  0
 11 14  1  0
 12 15  2  0
 14 16  2  0
 15 16  1  0
M  CHG  1   4  -1
M  END
