5MQX_0_A_γ-x0933_0_A_α
     RDKit          3D

 16 17  0  0  0  0  0  0  0  0999 V2000
   -0.1160   11.1160   -1.7030 O   0  0  0  0  0  0  0  0  0  0  0  0
   -1.3470   11.4320   -2.3640 C   0  0  1  0  0  0  0  0  0  0  0  0
   -2.0970   12.7400   -2.0060 C   0  0  1  0  0  0  0  0  0  0  0  0
   -1.1430   11.6520   -3.8790 C   0  0  2  0  0  0  0  0  0  0  0  0
    0.2170   11.5170   -4.2660 O   0  0  0  0  0  0  0  0  0  0  0  0
   -2.2730   13.2600   -0.5740 C   0  0  0  0  0  0  0  0  0  0  0  0
   -1.4430   13.7120   -2.8250 O   0  0  0  0  0  0  0  0  0  0  0  0
   -1.6980   13.0720   -4.0690 C   0  0  1  0  0  0  0  0  0  0  0  0
   -1.1650   13.8820   -5.2220 C   0  0  0  0  0  0  0  0  0  0  0  0
   -2.7170   14.7140   -0.4140 C   0  0  1  0  0  0  0  0  0  0  0  0
   -4.1240   14.9800   -1.0230 C   0  0  0  0  0  0  0  0  0  0  0  0
   -2.6850   15.1310    1.0640 C   0  0  0  0  0  0  0  0  0  0  0  0
   -5.2610   14.5070   -0.2220 N   0  0  0  0  0  0  0  0  0  0  0  0
   -4.0190   15.3260    1.6240 N   0  0  0  0  0  0  0  0  0  0  0  0
   -4.9830   14.3870    1.1690 C   0  0  1  0  0  0  0  0  0  0  0  0
   -6.1720   14.6040    1.9260 N   0  0  0  0  0  0  0  0  0  0  0  0
  2  1  1  1
  2  3  1  0
  2  4  1  0
  4  5  1  1
  3  6  1  1
  3  7  1  0
  4  8  1  0
  7  8  1  0
  8  9  1  6
 10  6  1  1
 10 11  1  0
 10 12  1  0
 11 13  1  0
 12 14  1  0
 13 15  1  0
 14 15  1  0
 15 16  1  1
M  END
