5mqx_0_A_β-5cb5_I_0_I_α
     RDKit          3D

 20 20  0  0  0  0  0  0  0  0999 V2000
   -2.6740   18.3510   -6.8270 O   0  0  0  0  0  0  0  0  0  0  0  0
   -1.9990   18.6590   -5.4240 P   0  0  0  0  0  0  0  0  0  0  0  0
   -2.2180   17.3800   -4.4880 O   0  0  0  0  0  0  0  0  0  0  0  0
   -2.7390   20.0510   -4.9080 N   0  0  0  0  0  0  0  0  0  0  0  0
   -0.4940   18.9370   -5.6630 O   0  0  0  0  0  0  0  0  0  0  0  0
   -2.9760   15.9470   -4.5710 P   0  0  0  0  0  0  0  0  0  0  0  0
   -3.2630   20.8720   -5.9780 C   0  0  0  0  0  0  0  0  0  0  0  0
   -1.7780   14.9790   -4.9690 O   0  0  0  0  0  0  0  0  0  0  0  0
   -3.7120   15.5360   -3.3290 O   0  0  0  0  0  0  0  0  0  0  0  0
   -3.8480   16.0340   -5.9110 O   0  0  0  0  0  0  0  0  0  0  0  0
   -4.5910   21.4920   -5.5950 C   0  0  0  0  0  0  0  0  0  0  0  0
   -5.5970   21.0380   -6.4850 O   0  0  0  0  0  0  0  0  0  0  0  0
   -5.3330   21.6830   -7.7090 C   0  0  2  0  0  0  0  0  0  0  0  0
   -4.3740   20.9930   -8.5040 O   0  0  0  0  0  0  0  0  0  0  0  0
   -4.7000   23.0370   -7.3680 C   0  0  2  0  0  0  0  0  0  0  0  0
   -5.7030   24.0290   -7.1080 O   0  0  0  0  0  0  0  0  0  0  0  0
   -3.3960   21.9290   -8.9900 C   0  0  1  0  0  0  0  0  0  0  0  0
   -3.9320   23.3300   -8.6440 C   0  0  1  0  0  0  0  0  0  0  0  0
   -2.0220   21.6020   -8.4150 C   0  0  0  0  0  0  0  0  0  0  0  0
   -4.8020   23.8690   -9.6490 O   0  0  0  0  0  0  0  0  0  0  0  0
  1  2  1  0
  2  3  1  0
  2  4  2  3
  2  5  1  0
  3  6  1  0
  4  7  1  0
  6  8  1  0
  6  9  2  0
  6 10  1  0
  7 11  1  0
 11 12  1  0
 13 12  1  1
 13 14  1  0
 13 15  1  0
 15 16  1  6
 14 17  1  0
 15 18  1  0
 17 18  1  0
 17 19  1  1
 18 20  1  6
M  END
