5MQX_0_A_γ-x0967_0_A_α
     RDKit          3D

 20 22  0  0  0  0  0  0  0  0999 V2000
    0.1440   10.3870   -2.2220 O   0  0  0  0  0  0  0  0  0  0  0  0
   -0.9250   11.3240   -2.3270 C   0  0  1  0  0  0  0  0  0  0  0  0
   -0.5010   12.6940   -1.7650 C   0  0  0  0  0  0  0  0  0  0  0  0
   -1.2550   11.6580   -3.7720 C   0  0  2  0  0  0  0  0  0  0  0  0
   -0.0400   11.6900   -4.5350 O   0  0  0  0  0  0  0  0  0  0  0  0
   -0.7790   13.6680   -2.7850 O   0  0  0  0  0  0  0  0  0  0  0  0
   -1.8320   13.0500   -3.5270 C   0  0  1  0  0  0  0  0  0  0  0  0
   -2.3050   13.9090   -4.6980 C   0  0  0  0  0  0  0  0  0  0  0  0
   -3.3040   14.9500   -4.1650 C   0  0  0  0  0  0  0  0  0  0  0  0
   -2.7530   15.5770   -2.8790 C   0  0  0  0  0  0  0  0  0  0  0  0
   -3.5920   15.3520   -1.6320 C   0  0  0  0  0  0  0  0  0  0  0  0
   -4.9240   15.0920   -1.7670 N   0  0  0  0  0  0  0  0  0  0  0  0
   -2.9760   15.4190   -0.3900 C   0  0  0  0  0  0  0  0  0  0  0  0
   -5.6750   14.8990   -0.6730 C   0  0  0  0  0  0  0  0  0  0  0  0
   -3.7400   15.2190    0.7480 C   0  0  0  0  0  0  0  0  0  0  0  0
   -6.9800   14.6490   -0.8230 N   0  0  0  0  0  0  0  0  0  0  0  0
   -5.1040   14.9570    0.6150 C   0  0  0  0  0  0  0  0  0  0  0  0
   -5.9200   14.7520    1.7340 C   0  0  0  0  0  0  0  0  0  0  0  0
   -7.7500   14.4550    0.2750 C   0  0  0  0  0  0  0  0  0  0  0  0
   -7.2680   14.4960    1.5670 C   0  0  0  0  0  0  0  0  0  0  0  0
  2  1  1  6
  2  3  1  0
  2  4  1  0
  4  5  1  6
  3  6  1  0
  4  7  1  0
  6  7  1  0
  7  8  1  6
  8  9  1  0
  9 10  1  0
 10 11  1  0
 11 12  2  0
 11 13  1  0
 12 14  1  0
 13 15  2  0
 14 16  2  0
 14 17  1  0
 15 17  1  0
 17 18  2  0
 16 19  1  0
 18 20  1  0
 19 20  2  0
M  END
