5MQX_0_A_δ-6MEA_0_A_γ
     RDKit          3D

 20 22  0  0  0  0  0  0  0  0999 V2000
   -4.0630   15.6010    2.2480 N   0  0  0  0  0  0  0  0  0  0  0  0
   -3.0590   15.2570    1.2690 C   0  0  2  0  0  0  0  0  0  0  0  0
   -3.3450   14.0170    0.5020 C   0  0  2  0  0  0  0  0  0  0  0  0
   -1.8280   14.9890    1.9410 N   0  0  0  0  0  0  0  0  0  0  0  0
   -2.2050   14.0920   -0.4920 C   0  0  2  0  0  0  0  0  0  0  0  0
   -4.5460   13.8170   -0.2770 N   0  0  0  0  0  0  0  0  0  0  0  0
   -0.6450   14.5030    1.2330 C   0  0  0  0  0  0  0  0  0  0  0  0
   -2.7290   13.3590   -1.6520 N   0  0  0  0  0  0  0  0  0  0  0  0
   -3.9880   12.8010   -1.1480 C   0  0  0  0  0  0  0  0  0  0  0  0
   -0.9840   13.6450    0.1110 N   0  0  0  0  0  0  0  0  0  0  0  0
   -3.1170   14.2880   -2.7370 C   0  0  0  0  0  0  0  0  0  0  0  0
   -2.7880   13.7840   -4.1590 C   0  0  0  0  0  0  0  0  0  0  0  0
   -1.6010   13.0070   -4.2900 O   0  0  0  0  0  0  0  0  0  0  0  0
   -0.4130   13.6640   -3.8400 C   0  0  2  0  0  0  0  0  0  0  0  0
   -0.6260   14.8520   -2.9270 C   0  0  0  0  0  0  0  0  0  0  0  0
    0.3260   14.2940   -5.0160 C   0  0  2  0  0  0  0  0  0  0  0  0
    1.3300   13.3680   -5.4380 O   0  0  0  0  0  0  0  0  0  0  0  0
    0.5250   15.6790   -3.0540 O   0  0  0  0  0  0  0  0  0  0  0  0
    0.9330   15.5900   -4.4320 C   0  0  2  0  0  0  0  0  0  0  0  0
    0.5500   16.8800   -5.1330 C   0  0  0  0  0  0  0  0  0  0  0  0
  2  1  1  1
  2  3  1  0
  2  4  1  0
  3  5  1  0
  3  6  1  6
  4  7  1  0
  5  8  1  0
  6  9  1  0
  8  9  1  0
  5 10  1  1
  7 10  1  0
  8 11  1  0
 11 12  1  0
 12 13  1  0
 14 13  1  6
 14 15  1  0
 14 16  1  0
 16 17  1  1
 15 18  1  0
 16 19  1  0
 18 19  1  0
 19 20  1  6
M  END
