5MQX_0_A_δ-mac-120_0_A_α
     RDKit          3D

 11 12  0  0  0  0  0  0  0  0999 V2000
   -4.3620   15.4980    2.1010 N   0  0  0  0  0  0  0  0  0  0  0  0
   -3.2090   15.4350    1.2460 C   0  0  2  0  0  0  0  0  0  0  0  0
   -3.4000   14.8230   -0.1290 C   0  0  1  0  0  0  0  0  0  0  0  0
   -2.1780   14.7970    1.9800 N   0  0  0  0  0  0  0  0  0  0  0  0
   -2.3260   13.7610   -0.1950 C   0  0  1  0  0  0  0  0  0  0  0  0
   -4.5350   14.0620   -0.6550 N   0  0  0  0  0  0  0  0  0  0  0  0
   -0.8610   14.7530    1.3670 C   0  0  0  0  0  0  0  0  0  0  0  0
   -5.7350   14.7840   -1.1060 C   0  0  0  0  0  0  0  0  0  0  0  0
   -2.4830   13.2750   -1.5410 N   0  0  0  0  0  0  0  0  0  0  0  0
   -3.9460   13.1740   -1.6570 C   0  0  0  0  0  0  0  0  0  0  0  0
   -0.9530   14.1000    0.1010 N   0  0  0  0  0  0  0  0  0  0  0  0
  2  1  1  1
  2  3  1  0
  2  4  1  0
  3  5  1  0
  3  6  1  1
  4  7  1  0
  6  8  1  0
  5  9  1  6
  6 10  1  0
  9 10  1  0
  5 11  1  0
  7 11  1  0
M  END
