5MQX_0_A_Î³
     RDKit          3D

  8  8  0  0  0  0  0  0  0  0999 V2000
   -0.9760   12.9930   -1.7770 C   0  0  0  0  0  0  0  0  0  0  0  0
   -0.7800   13.8980   -2.8760 O   0  0  0  0  0  0  0  0  0  0  0  0
   -1.3100   11.6080   -2.3840 C   0  0  1  0  0  0  0  0  0  0  0  0
   -1.1990   13.3300   -4.1380 C   0  0  1  0  0  0  0  0  0  0  0  0
   -1.2210   11.8000   -3.9150 C   0  0  1  0  0  0  0  0  0  0  0  0
   -0.3700   10.5940   -1.9770 O   0  0  0  0  0  0  0  0  0  0  0  0
   -2.5960   13.8870   -4.4910 C   0  0  0  0  0  0  0  0  0  0  0  0
   -0.0130   11.1810   -4.4120 O   0  0  0  0  0  0  0  0  0  0  0  0
  1  2  1  1
  1  3  1  0
  4  2  1  0
  5  3  1  0
  3  6  1  1
  4  7  1  1
  4  5  1  0
  5  8  1  1
M  END
