6FX7_0_A_δ-mArh-5cms_H_7_H_γ
     RDKit          3D

 17 19  0  0  0  0  0  0  0  0999 V2000
   -3.9180   15.5740    1.6540 N   0  0  0  0  0  0  0  0  0  0  0  0
   -2.8650   14.8920    0.9200 C   0  0  1  0  0  0  0  0  0  0  0  0
   -2.6990   15.3390   -0.5450 C   0  0  1  0  0  0  0  0  0  0  0  0
   -1.6520   15.1890    1.6470 N   0  0  0  0  0  0  0  0  0  0  0  0
   -1.4820   14.5850   -1.0780 C   0  0  1  0  0  0  0  0  0  0  0  0
   -3.7570   15.0480   -1.5220 N   0  0  0  0  0  0  0  0  0  0  0  0
   -0.4570   14.5720    1.0840 C   0  0  0  0  0  0  0  0  0  0  0  0
   -1.5370   14.8390   -2.6120 C   0  0  1  0  0  0  0  0  0  0  0  0
   -3.0330   15.1950   -2.8160 C   0  0  0  0  0  0  0  0  0  0  0  0
   -0.3110   14.9620   -0.3020 N   0  0  0  0  0  0  0  0  0  0  0  0
   -0.6520   15.9630   -2.9700 O   0  0  0  0  0  0  0  0  0  0  0  0
   -1.0050   13.7310   -3.5670 C   0  0  1  0  0  0  0  0  0  0  0  0
   -1.9090   12.7470   -4.0200 O   0  0  0  0  0  0  0  0  0  0  0  0
   -0.5300   15.9150   -4.4040 C   0  0  2  0  0  0  0  0  0  0  0  0
   -0.3420   14.4440   -4.7520 C   0  0  1  0  0  0  0  0  0  0  0  0
    0.5740   16.8330   -4.8910 C   0  0  0  0  0  0  0  0  0  0  0  0
    1.0100   14.0180   -4.9080 O   0  0  0  0  0  0  0  0  0  0  0  0
  2  1  1  1
  2  3  1  0
  2  4  1  0
  3  5  1  0
  3  6  1  6
  4  7  1  0
  5  8  1  0
  6  9  1  0
  8  9  1  6
  5 10  1  1
  7 10  1  0
  8 11  1  0
  8 12  1  0
 12 13  1  6
 11 14  1  0
 12 15  1  0
 14 15  1  0
 14 16  1  1
 15 17  1  1
M  END
