6FX7_0_A_δ-5CB5_0_P_α
     RDKit          3D

 24 26  0  0  0  0  0  0  0  0999 V2000
   -4.2240   15.3760    1.5310 N   0  0  0  0  0  0  0  0  0  0  0  0
   -3.1690   14.6330    0.8710 C   0  0  1  0  0  0  0  0  0  0  0  0
   -2.9760   14.9760   -0.6360 C   0  0  1  0  0  0  0  0  0  0  0  0
   -1.9970   15.0030    1.6660 N   0  0  0  0  0  0  0  0  0  0  0  0
   -1.5980   14.4280   -0.9910 C   0  0  1  0  0  0  0  0  0  0  0  0
   -3.7420   14.4770   -1.7900 N   0  0  0  0  0  0  0  0  0  0  0  0
   -0.7330   14.4760    1.1740 C   0  0  0  0  0  0  0  0  0  0  0  0
   -1.4420   14.7830   -2.3710 N   0  0  0  0  0  0  0  0  0  0  0  0
   -2.7700   14.6070   -2.9440 C   0  0  2  0  0  0  0  0  0  0  0  0
   -0.5200   14.9230   -0.1820 N   0  0  0  0  0  0  0  0  0  0  0  0
   -3.1240   15.7150   -3.9850 C   0  0  0  0  0  0  0  0  0  0  0  0
   -1.9750   16.4080   -4.8260 C   0  0  0  0  0  0  0  0  0  0  0  0
   -2.3850   17.4270   -5.9390 C   0  0  0  0  0  0  0  0  0  0  0  0
   -2.1550   18.9650   -5.7110 C   0  0  0  0  0  0  0  0  0  0  0  0
   -3.0270   19.8410   -6.6580 C   0  0  0  0  0  0  0  0  0  0  0  0
   -3.8030   20.8900   -6.0210 O   0  0  0  0  0  0  0  0  0  0  0  0
   -4.6550   21.6260   -6.9430 C   0  0  2  0  0  0  0  0  0  0  0  0
   -4.4810   21.1680   -8.2880 O   0  0  0  0  0  0  0  0  0  0  0  0
   -4.2910   23.1340   -6.9290 C   0  0  2  0  0  0  0  0  0  0  0  0
   -5.4520   23.9960   -6.7890 O   0  0  0  0  0  0  0  0  0  0  0  0
   -3.4810   21.9980   -8.8890 C   0  0  1  0  0  0  0  0  0  0  0  0
   -3.7030   23.3930   -8.3250 C   0  0  1  0  0  0  0  0  0  0  0  0
   -2.0910   21.4780   -8.5740 C   0  0  0  0  0  0  0  0  0  0  0  0
   -4.5770   24.1570   -9.1430 O   0  0  0  0  0  0  0  0  0  0  0  0
  2  1  1  1
  2  3  1  0
  2  4  1  0
  3  5  1  0
  3  6  1  6
  4  7  1  0
  5  8  1  6
  6  9  1  0
  8  9  1  0
  5 10  1  0
  7 10  1  0
  9 11  1  1
 11 12  1  0
 12 13  1  0
 13 14  1  0
 14 15  1  0
 15 16  1  0
 17 16  1  1
 17 18  1  0
 17 19  1  0
 19 20  1  6
 18 21  1  0
 19 22  1  0
 21 22  1  0
 21 23  1  1
 22 24  1  6
M  END
