6FX7_0_A_δ-5CB5_0_B_γ
     RDKit          3D

 17 19  0  0  0  0  0  0  0  0999 V2000
   -3.8910   15.5400    1.6560 N   0  0  0  0  0  0  0  0  0  0  0  0
   -2.8330   14.8800    0.9040 C   0  0  1  0  0  0  0  0  0  0  0  0
   -2.7210   15.3350   -0.5640 C   0  0  1  0  0  0  0  0  0  0  0  0
   -1.6110   15.2110    1.5920 N   0  0  0  0  0  0  0  0  0  0  0  0
   -1.5350   14.5860   -1.1790 C   0  0  1  0  0  0  0  0  0  0  0  0
   -3.8280   15.0780   -1.4860 N   0  0  0  0  0  0  0  0  0  0  0  0
   -0.4180   14.6270    0.9810 C   0  0  0  0  0  0  0  0  0  0  0  0
   -1.6740   14.9140   -2.7110 C   0  0  1  0  0  0  0  0  0  0  0  0
   -3.1680   15.3080   -2.7960 C   0  0  0  0  0  0  0  0  0  0  0  0
   -0.3390   14.9650   -0.4330 N   0  0  0  0  0  0  0  0  0  0  0  0
   -0.7930   16.0530   -3.0600 O   0  0  0  0  0  0  0  0  0  0  0  0
   -1.3420   13.8640   -3.8230 C   0  0  2  0  0  0  0  0  0  0  0  0
   -0.7340   12.6420   -3.4770 O   0  0  0  0  0  0  0  0  0  0  0  0
   -0.6400   16.0410   -4.4970 C   0  0  2  0  0  0  0  0  0  0  0  0
   -0.4900   14.5770   -4.8760 C   0  0  1  0  0  0  0  0  0  0  0  0
    0.5060   16.9240   -4.9660 C   0  0  0  0  0  0  0  0  0  0  0  0
    0.8480   14.0830   -4.9000 O   0  0  0  0  0  0  0  0  0  0  0  0
  2  1  1  1
  2  3  1  0
  2  4  1  0
  3  5  1  0
  3  6  1  6
  4  7  1  0
  5  8  1  0
  6  9  1  0
  8  9  1  1
  5 10  1  1
  7 10  1  0
  8 11  1  0
  8 12  1  0
 12 13  1  1
 11 14  1  0
 12 15  1  0
 14 15  1  0
 14 16  1  1
 15 17  1  1
M  END
