6FX7_0_A_Î±
     RDKit          3D

  9  9  0  0  0  0  0  0  0  0999 V2000
   -1.7600   22.1880   -8.1610 C   0  0  0  0  0  0  0  0  0  0  0  0
   -3.0790   22.7920   -8.5640 C   0  0  1  0  0  0  0  0  0  0  0  0
   -3.0050   23.2110   -9.9470 O   0  0  0  0  0  0  0  0  0  0  0  0
   -4.2980   21.8720   -8.4540 C   0  0  2  0  0  0  0  0  0  0  0  0
   -4.0060   22.5240  -10.6930 C   0  0  1  0  0  0  0  0  0  0  0  0
   -5.1150   22.2580   -9.6880 C   0  0  2  0  0  0  0  0  0  0  0  0
   -5.0060   22.0650   -7.2370 O   0  0  0  0  0  0  0  0  0  0  0  0
   -4.4800   23.3110  -11.7450 O   0  0  0  0  0  0  0  0  0  0  0  0
   -5.8780   23.4370   -9.4430 O   0  0  0  0  0  0  0  0  0  0  0  0
  2  1  1  6
  3  2  1  0
  4  2  1  0
  5  3  1  0
  6  4  1  0
  4  7  1  1
  5  8  1  6
  5  6  1  0
  6  9  1  1
M  END
