6fx_7_0A_β-1VHU_0_A_α
     RDKit          3D

 16 16  0  0  0  0  0  0  0  0999 V2000
   -1.5850   20.9460   -8.5520 O   0  0  0  0  0  0  0  0  0  0  0  0
   -0.4450   19.9870   -7.9610 P   0  0  0  0  0  0  0  0  0  0  0  0
   -0.9290   19.7550   -6.4790 O   0  0  0  0  0  0  0  0  0  0  0  0
   -1.9250   22.0410   -7.7180 C   0  0  0  0  0  0  0  0  0  0  0  0
   -0.1460   18.7470   -8.7460 O   0  0  0  0  0  0  0  0  0  0  0  0
    0.7680   21.0100   -7.8120 O   0  0  0  0  0  0  0  0  0  0  0  0
   -3.3570   22.3430   -7.7770 N   0  0  0  0  0  0  0  0  0  0  0  0
   -1.5730   18.4060   -5.9840 P   0  0  0  0  0  0  0  0  0  0  0  0
   -3.7320   22.7570   -9.1340 C   0  0  0  0  0  0  0  0  0  0  0  0
   -3.7100   23.4540   -6.8700 C   0  0  0  0  0  0  0  0  0  0  0  0
   -0.4550   17.3140   -6.2320 O   0  0  0  0  0  0  0  0  0  0  0  0
   -2.1120   18.3720   -4.6270 O   0  0  0  0  0  0  0  0  0  0  0  0
   -2.6400   17.9990   -7.0860 O   0  0  0  0  0  0  0  0  0  0  0  0
   -5.2200   23.0650   -9.2310 C   0  0  0  0  0  0  0  0  0  0  0  0
   -5.1810   23.8430   -7.0170 C   0  0  0  0  0  0  0  0  0  0  0  0
   -5.5310   24.1620   -8.3750 O   0  0  0  0  0  0  0  0  0  0  0  0
  1  2  1  0
  2  3  1  0
  1  4  1  0
  2  5  2  0
  2  6  1  0
  4  7  1  0
  3  8  1  0
  7  9  1  0
  7 10  1  0
  8 11  1  0
  8 12  2  0
  8 13  1  0
  9 14  1  0
 10 15  1  0
 14 16  1  0
 15 16  1  0
M  END
