6MEA_0_A_δ-x0849_0_A_α
     RDKit          3D

 11 12  0  0  0  0  0  0  0  0999 V2000
   -3.6650   15.4020    1.9850 N   0  0  0  0  0  0  0  0  0  0  0  0
   -2.6900   14.5880    1.3110 C   0  0  1  0  0  0  0  0  0  0  0  0
   -2.7180   14.8040   -0.1980 C   0  0  1  0  0  0  0  0  0  0  0  0
   -1.4220   15.0560    1.7500 N   0  0  0  0  0  0  0  0  0  0  0  0
   -1.2990   14.5670   -0.7460 C   0  0  2  0  0  0  0  0  0  0  0  0
   -3.5760   13.9000   -0.9400 N   0  0  0  0  0  0  0  0  0  0  0  0
   -0.2970   14.2580    1.3210 C   0  0  0  0  0  0  0  0  0  0  0  0
   -1.4980   13.9520   -2.0310 N   0  0  0  0  0  0  0  0  0  0  0  0
   -2.9230   13.8440   -2.2290 C   0  0  2  0  0  0  0  0  0  0  0  0
   -0.5500   13.6490    0.0430 N   0  0  0  0  0  0  0  0  0  0  0  0
   -3.5140   15.2740   -3.3770 Br  0  0  0  0  0  0  0  0  0  0  0  0
  2  1  1  1
  2  3  1  0
  2  4  1  0
  3  5  1  0
  3  6  1  6
  4  7  1  0
  5  8  1  6
  6  9  1  0
  8  9  1  0
  5 10  1  0
  7 10  1  0
  9 11  1  6
M  END
