6mea_B_0_B_α-5l9k_A_0_A_β
     RDKit          3D

 17 17  0  0  0  0  0  0  0  0999 V2000
   -1.7560   21.7020   -7.8820 C   0  0  0  0  0  0  0  0  0  0  0  0
   -1.0760   20.0520   -7.6670 P   0  0  1  0  0  0  0  0  0  0  0  0
   -1.5740   19.5530   -6.2450 O   0  0  0  0  0  0  0  0  0  0  0  0
   -3.1980   21.9810   -8.3200 C   0  0  1  0  0  0  0  0  0  0  0  0
   -1.0850   18.9700   -8.6930 O   0  0  0  0  0  0  0  0  0  0  0  0
    0.4500   20.4430   -7.4060 O   0  0  0  0  0  0  0  0  0  0  0  0
   -4.1190   21.1920   -7.5690 O   0  0  0  0  0  0  0  0  0  0  0  0
   -3.6530   23.4350   -8.0820 C   0  0  1  0  0  0  0  0  0  0  0  0
   -4.5680   23.9050   -9.0780 O   0  0  0  0  0  0  0  0  0  0  0  0
   -1.8800   18.0390   -5.8980 P   0  0  0  0  0  0  0  0  0  0  0  0
   -4.5630   21.9260   -6.4270 C   0  0  1  0  0  0  0  0  0  0  0  0
   -4.3070   23.4170   -6.6910 C   0  0  2  0  0  0  0  0  0  0  0  0
   -5.9290   21.6530   -6.1570 O   0  0  0  0  0  0  0  0  0  0  0  0
   -5.5640   24.1280   -6.6920 O   0  0  0  0  0  0  0  0  0  0  0  0
   -0.5500   17.2630   -6.2300 O   0  0  0  0  0  0  0  0  0  0  0  0
   -2.3730   17.6980   -4.5640 O   0  0  0  0  0  0  0  0  0  0  0  0
   -2.8750   17.5430   -7.0270 O   0  0  0  0  0  0  0  0  0  0  0  0
  1  2  1  0
  2  3  1  0
  4  1  1  1
  2  5  2  0
  2  6  1  1
  4  7  1  0
  4  8  1  0
  8  9  1  6
  3 10  1  0
  7 11  1  0
  8 12  1  0
 11 12  1  0
 11 13  1  6
 12 14  1  6
 10 15  1  0
 10 16  2  0
 10 17  1  0
M  END
