6mea_B_0_B_β-5CMS_0_L_β
     RDKit          3D

 10  9  0  0  0  0  0  0  0  0999 V2000
   -1.5200   20.5860   -8.3210 O   0  0  0  0  0  0  0  0  0  0  0  0
   -0.1550   20.1550   -7.6200 P   0  0  0  0  0  0  0  0  0  0  0  0
   -0.6100   19.5610   -6.2340 O   0  0  0  0  0  0  0  0  0  0  0  0
    0.8260   21.2690   -7.5750 O   0  0  0  0  0  0  0  0  0  0  0  0
    0.3470   18.9180   -8.4540 O   0  0  0  0  0  0  0  0  0  0  0  0
   -1.4900   18.2930   -5.9520 P   0  0  0  0  0  0  0  0  0  0  0  0
   -0.8190   18.3200   -8.9170 O   0  0  0  0  0  0  0  0  0  0  0  0
   -0.4680   17.0750   -5.7610 O   0  0  0  0  0  0  0  0  0  0  0  0
   -2.6320   17.9320   -6.8190 O   0  0  0  0  0  0  0  0  0  0  0  0
   -1.8240   18.5400   -4.4370 O   0  0  0  0  0  0  0  0  0  0  0  0
  1  2  1  0
  2  3  1  0
  2  4  2  0
  2  5  1  0
  3  6  1  0
  5  7  1  0
  6  8  1  0
  6  9  2  0
  6 10  1  0
M  END
