6mea_B_0_B_α-5CB5_0_G_γ
     RDKit          3D

 22 23  0  0  0  0  0  0  0  0999 V2000
   -2.2980   21.7660   -8.9840 C   0  0  0  0  0  0  0  0  0  0  0  0
   -3.1710   22.3660   -7.9590 C   0  0  2  0  0  0  0  0  0  0  0  0
   -4.1890   21.4360   -7.7730 O   0  0  0  0  0  0  0  0  0  0  0  0
   -3.9660   23.7000   -8.1200 C   0  0  1  0  0  0  0  0  0  0  0  0
   -4.4190   23.9940   -9.4420 O   0  0  0  0  0  0  0  0  0  0  0  0
   -4.5710   22.1630   -6.6900 C   0  0  1  0  0  0  0  0  0  0  0  0
   -5.2040   23.3890   -7.2550 C   0  0  1  0  0  0  0  0  0  0  0  0
   -5.0670   21.4340   -5.6460 O   0  0  0  0  0  0  0  0  0  0  0  0
   -5.5080   24.3660   -6.2630 O   0  0  0  0  0  0  0  0  0  0  0  0
   -3.7710   21.1210   -5.1260 C   0  0  0  0  0  0  0  0  0  0  0  0
   -2.7370   20.4570   -6.0700 C   0  0  0  0  0  0  0  0  0  0  0  0
   -1.9860   19.2680   -5.4420 C   0  0  0  0  0  0  0  0  0  0  0  0
   -0.6400   18.9740   -6.1010 C   0  0  0  0  0  0  0  0  0  0  0  0
    0.3430   18.2720   -5.1450 C   0  0  0  0  0  0  0  0  0  0  0  0
    0.5970   16.8570   -5.6060 C   0  0  0  0  0  0  0  0  0  0  0  0
    0.7350   15.7550   -4.5560 C   0  0  1  0  0  0  0  0  0  0  0  0
   -0.1520   16.0290   -3.4500 O   0  0  0  0  0  0  0  0  0  0  0  0
    0.3580   14.3550   -5.0730 C   0  0  1  0  0  0  0  0  0  0  0  0
    1.3280   13.3380   -4.9080 O   0  0  0  0  0  0  0  0  0  0  0  0
   -0.7750   14.8010   -3.0640 C   0  0  0  0  0  0  0  0  0  0  0  0
   -0.9170   13.9970   -4.3350 C   0  0  2  0  0  0  0  0  0  0  0  0
   -0.9600   12.5980   -4.1290 O   0  0  0  0  0  0  0  0  0  0  0  0
  2  1  1  6
  2  3  1  0
  2  4  1  0
  4  5  1  6
  3  6  1  0
  4  7  1  0
  6  7  1  0
  6  8  1  6
  7  9  1  1
  8 10  1  0
 10 11  1  0
 11 12  1  0
 12 13  1  0
 13 14  1  0
 14 15  1  0
 16 15  1  6
 16 17  1  0
 16 18  1  0
 18 19  1  1
 17 20  1  0
 18 21  1  0
 20 21  1  0
 21 22  1  1
M  END
