6mea_B_0_B_α-x0766_0_A_α
     RDKit          3D

 27 29  0  0  0  0  0  0  0  0999 V2000
   -1.9380   21.8480   -8.0620 C   0  0  0  0  0  0  0  0  0  0  0  0
   -3.3250   22.2460   -8.5450 C   0  0  1  0  0  0  0  0  0  0  0  0
   -4.3440   21.3600   -8.1020 O   0  0  0  0  0  0  0  0  0  0  0  0
   -3.7660   23.5990   -8.0430 C   0  0  1  0  0  0  0  0  0  0  0  0
   -4.7150   24.1590   -8.9430 O   0  0  0  0  0  0  0  0  0  0  0  0
   -4.7870   21.7950   -6.8140 C   0  0  2  0  0  0  0  0  0  0  0  0
   -4.3550   23.2730   -6.6630 C   0  0  2  0  0  0  0  0  0  0  0  0
   -4.1400   20.9530   -5.8460 O   0  0  0  0  0  0  0  0  0  0  0  0
   -5.4710   24.1650   -6.4290 O   0  0  0  0  0  0  0  0  0  0  0  0
   -2.8960   20.4390   -6.3790 C   0  0  0  0  0  0  0  0  0  0  0  0
   -2.0760   19.3660   -5.6200 C   0  0  0  0  0  0  0  0  0  0  0  0
   -2.2010   17.8770   -6.0550 C   0  0  0  0  0  0  0  0  0  0  0  0
   -1.7060   16.8600   -4.9920 C   0  0  0  0  0  0  0  0  0  0  0  0
   -2.6850   15.7070   -4.6010 C   0  0  0  0  0  0  0  0  0  0  0  0
   -2.5460   15.2390   -3.1370 C   0  0  0  0  0  0  0  0  0  0  0  0
   -1.4220   14.7510   -2.4510 C   0  0  0  0  0  0  0  0  0  0  0  0
   -3.9110   15.2970   -2.0830 S   0  0  0  0  0  0  0  0  0  0  0  0
   -0.0400   14.5590   -3.0240 C   0  0  1  0  0  0  0  0  0  0  0  0
   -1.7300   14.4510   -1.0790 C   0  0  0  0  0  0  0  0  0  0  0  0
   -3.0330   14.7030   -0.7520 C   0  0  0  0  0  0  0  0  0  0  0  0
    0.1410   13.2750   -3.8430 C   0  0  2  0  0  0  0  0  0  0  0  0
    0.4460   15.6840   -3.9070 C   0  0  0  0  0  0  0  0  0  0  0  0
    0.5370   12.2030   -2.8620 C   0  0  0  0  0  0  0  0  0  0  0  0
    1.2690   13.5820   -4.8430 C   0  0  0  0  0  0  0  0  0  0  0  0
    1.5500   15.0790   -4.7280 C   0  0  0  0  0  0  0  0  0  0  0  0
    1.4010   12.3020   -2.0180 O   0  0  0  0  0  0  0  0  0  0  0  0
   -0.1780   11.0670   -2.9770 O   0  0  0  0  0  0  0  0  0  0  0  0
  2  1  1  1
  2  3  1  0
  2  4  1  0
  4  5  1  6
  3  6  1  0
  4  7  1  0
  6  7  1  0
  6  8  1  1
  7  9  1  6
  8 10  1  0
 10 11  1  0
 11 12  1  0
 12 13  1  0
 13 14  1  0
 14 15  1  0
 15 16  2  0
 15 17  1  0
 18 16  1  6
 16 19  1  0
 17 20  1  0
 19 20  2  0
 18 21  1  0
 18 22  1  0
 21 23  1  1
 21 24  1  0
 22 25  1  0
 24 25  1  0
 23 26  2  0
 23 27  1  0
M  END
