6mea_A_0_A_γ-5cb5_H_0_H_β
     RDKit          3D

 16 16  0  0  0  0  0  0  0  0999 V2000
   -1.8030   13.0410   -4.0700 O   0  0  0  0  0  0  0  0  0  0  0  0
   -0.5130   13.5920   -3.8830 C   0  0  2  0  0  0  0  0  0  0  0  0
   -0.4180   14.5550   -2.6910 C   0  0  0  0  0  0  0  0  0  0  0  0
   -0.0640   14.4480   -5.0560 C   0  0  2  0  0  0  0  0  0  0  0  0
    1.3590   14.2750   -5.1240 O   0  0  0  0  0  0  0  0  0  0  0  0
    0.0060   15.8340   -3.2100 O   0  0  0  0  0  0  0  0  0  0  0  0
   -0.4980   15.8310   -4.5570 C   0  0  1  0  0  0  0  0  0  0  0  0
   -0.0400   17.0790   -5.3230 C   0  0  0  0  0  0  0  0  0  0  0  0
   -1.3910   18.1420   -5.9370 P   0  0  1  0  0  0  0  0  0  0  0  0
   -0.8350   19.4930   -6.5300 O   0  0  0  0  0  0  0  0  0  0  0  0
   -2.4200   17.4750   -6.7970 O   0  0  0  0  0  0  0  0  0  0  0  0
   -2.0320   18.7610   -4.6250 O   0  0  0  0  0  0  0  0  0  0  0  0
   -0.1460   19.9730   -7.8440 P   0  0  0  0  0  0  0  0  0  0  0  0
   -1.3390   20.6940   -8.6180 O   0  0  0  0  0  0  0  0  0  0  0  0
    1.0670   20.8300   -7.6920 O   0  0  0  0  0  0  0  0  0  0  0  0
    0.0040   18.6790   -8.7760 O   0  0  0  0  0  0  0  0  0  0  0  0
  2  1  1  6
  2  3  1  0
  2  4  1  0
  4  5  1  1
  3  6  1  0
  4  7  1  0
  6  7  1  0
  7  8  1  6
  8  9  1  0
  9 10  1  0
  9 11  2  0
  9 12  1  1
 10 13  1  0
 13 14  1  0
 13 15  2  0
 13 16  1  0
M  END
