6MEA_0_A_Î²
     RDKit          3D

  9  8  0  0  0  0  0  0  0  0999 V2000
   -1.7350   20.3640   -8.3190 O   0  0  0  0  0  0  0  0  0  0  0  0
   -0.4330   19.6880   -7.7750 P   0  0  0  0  0  0  0  0  0  0  0  0
   -0.9740   19.2000   -6.3430 O   0  0  0  0  0  0  0  0  0  0  0  0
    0.5860   20.6380   -7.4230 O   0  0  0  0  0  0  0  0  0  0  0  0
   -0.2310   18.4760   -8.4850 O   0  0  0  0  0  0  0  0  0  0  0  0
   -2.0400   18.1570   -5.7970 P   0  0  0  0  0  0  0  0  0  0  0  0
   -1.0210   16.8950   -5.5780 O   0  0  0  0  0  0  0  0  0  0  0  0
   -2.9070   17.6290   -6.8310 O   0  0  0  0  0  0  0  0  0  0  0  0
   -2.3980   18.4710   -4.4540 O   0  0  0  0  0  0  0  0  0  0  0  0
  2  1  1  0
  3  2  1  0
  2  4  1  0
  2  5  1  0
  6  3  1  0
  6  7  1  0
  6  8  1  0
  6  9  1  0
M  CHG  2   4  -1   8  -1
M  END
