6MEA_0_B_α-5CB5_0_F_δ
     RDKit          3D

 24 26  0  0  0  0  0  0  0  0999 V2000
   -2.2180   21.4430   -8.7360 C   0  0  0  0  0  0  0  0  0  0  0  0
   -3.1340   22.0130   -7.7110 C   0  0  2  0  0  0  0  0  0  0  0  0
   -4.0550   21.0530   -7.3010 O   0  0  0  0  0  0  0  0  0  0  0  0
   -4.1800   23.0330   -7.9890 C   0  0  2  0  0  0  0  0  0  0  0  0
   -3.8080   24.1590   -8.7380 O   0  0  0  0  0  0  0  0  0  0  0  0
   -4.5750   21.6510   -6.1320 C   0  0  2  0  0  0  0  0  0  0  0  0
   -4.3950   23.1860   -6.4800 C   0  0  2  0  0  0  0  0  0  0  0  0
   -3.6970   21.0220   -5.1570 O   0  0  0  0  0  0  0  0  0  0  0  0
   -5.5360   24.0520   -6.2880 O   0  0  0  0  0  0  0  0  0  0  0  0
   -2.6590   20.2440   -5.8860 C   0  0  0  0  0  0  0  0  0  0  0  0
   -1.7970   19.0880   -5.2610 C   0  0  0  0  0  0  0  0  0  0  0  0
   -2.0300   17.6320   -5.7670 C   0  0  0  0  0  0  0  0  0  0  0  0
   -1.5610   16.5240   -4.7680 C   0  0  0  0  0  0  0  0  0  0  0  0
   -2.5110   16.1560   -3.5960 C   0  0  0  0  0  0  0  0  0  0  0  0
   -2.4130   14.8840   -2.7140 C   0  0  1  0  0  0  0  0  0  0  0  0
   -1.0450   14.5490   -2.3960 N   0  0  0  0  0  0  0  0  0  0  0  0
   -3.1560   15.0180   -1.4370 N   0  0  0  0  0  0  0  0  0  0  0  0
   -0.9760   14.1200   -1.0190 C   0  0  2  0  0  0  0  0  0  0  0  0
   -2.3620   14.3210   -0.3890 C   0  0  1  0  0  0  0  0  0  0  0  0
    0.2000   14.7140   -0.4280 N   0  0  0  0  0  0  0  0  0  0  0  0
   -2.2440   15.1090    0.9320 C   0  0  1  0  0  0  0  0  0  0  0  0
   -3.3040   14.8760    1.8840 N   0  0  0  0  0  0  0  0  0  0  0  0
   -0.0160   15.4250    0.7950 C   0  0  0  0  0  0  0  0  0  0  0  0
   -1.0180   14.7600    1.5640 N   0  0  0  0  0  0  0  0  0  0  0  0
  2  1  1  6
  2  3  1  0
  2  4  1  0
  4  5  1  1
  3  6  1  0
  4  7  1  0
  6  7  1  0
  6  8  1  1
  7  9  1  6
  8 10  1  0
 10 11  1  0
 11 12  1  0
 12 13  1  0
 13 14  1  0
 15 14  1  1
 15 16  1  0
 15 17  1  0
 18 16  1  6
 19 17  1  6
 18 19  1  0
 18 20  1  0
 19 21  1  0
 21 22  1  1
 20 23  1  0
 21 24  1  0
 23 24  1  0
M  END
