6mea_B_0_B_β-5cms_C_2_C_γ
     RDKit          3D

 16 16  0  0  0  0  0  0  0  0999 V2000
   -1.5440   20.4140   -8.0700 O   0  0  0  0  0  0  0  0  0  0  0  0
   -0.1330   19.8190   -7.6270 P   0  0  0  0  0  0  0  0  0  0  0  0
   -0.3810   19.1710   -6.2150 O   0  0  0  0  0  0  0  0  0  0  0  0
    0.9800   20.8060   -7.6450 O   0  0  0  0  0  0  0  0  0  0  0  0
    0.0390   18.5970   -8.6490 O   0  0  0  0  0  0  0  0  0  0  0  0
   -1.3470   17.9740   -5.8920 P   0  0  2  0  0  0  0  0  0  0  0  0
   -0.3660   16.7300   -5.5850 O   0  0  0  0  0  0  0  0  0  0  0  0
   -2.5100   17.7590   -6.7990 O   0  0  0  0  0  0  0  0  0  0  0  0
   -1.7750   18.4440   -4.4380 O   0  0  0  0  0  0  0  0  0  0  0  0
   -0.8110   15.6680   -4.7490 C   0  0  2  0  0  0  0  0  0  0  0  0
   -0.2150   15.6700   -3.4450 O   0  0  0  0  0  0  0  0  0  0  0  0
   -0.5640   14.2250   -5.2330 C   0  0  1  0  0  0  0  0  0  0  0  0
    0.8080   13.8080   -5.3720 O   0  0  0  0  0  0  0  0  0  0  0  0
   -0.5430   14.3860   -2.8810 C   0  0  0  0  0  0  0  0  0  0  0  0
   -1.0830   13.5140   -4.0170 C   0  0  2  0  0  0  0  0  0  0  0  0
   -0.5960   12.1860   -3.9810 O   0  0  0  0  0  0  0  0  0  0  0  0
  1  2  1  0
  2  3  1  0
  2  4  2  0
  2  5  1  0
  3  6  1  0
  6  7  1  0
  6  8  2  0
  6  9  1  1
 10  7  1  6
 10 11  1  0
 10 12  1  0
 12 13  1  1
 11 14  1  0
 12 15  1  0
 14 15  1  0
 15 16  1  1
M  END
