6MEA_0_B_β-x0933_0_A_α
     RDKit          3D

 19 19  0  0  0  0  0  0  0  0999 V2000
   -1.6780   21.2060   -7.7380 O   0  0  0  0  0  0  0  0  0  0  0  0
   -0.8650   19.8780   -7.6030 P   0  0  0  0  0  0  0  0  0  0  0  0
   -1.1220   19.3630   -6.1030 O   0  0  0  0  0  0  0  0  0  0  0  0
    0.4550   20.8830   -7.8040 O   0  0  0  0  0  0  0  0  0  0  0  0
    0.0580   18.8250   -8.3410 O   0  0  0  0  0  0  0  0  0  0  0  0
   -1.5060   17.7510   -5.9920 P   0  0  0  0  0  0  0  0  0  0  0  0
   -0.2280   16.7330   -5.6520 O   0  0  0  0  0  0  0  0  0  0  0  0
   -2.8440   17.2070   -6.6170 O   0  0  0  0  0  0  0  0  0  0  0  0
   -1.9070   17.6870   -4.5460 O   0  0  0  0  0  0  0  0  0  0  0  0
   -1.6680   16.5670   -3.7160 C   0  0  0  0  0  0  0  0  0  0  0  0
   -2.9360   15.6640   -3.4970 C   0  0  0  0  0  0  0  0  0  0  0  0
   -3.5870   15.8020   -2.1030 C   0  0  0  0  0  0  0  0  0  0  0  0
   -3.7800   14.5810   -1.2900 C   0  0  2  0  0  0  0  0  0  0  0  0
   -5.0780   14.7250   -0.6180 N   0  0  0  0  0  0  0  0  0  0  0  0
   -2.6850   14.3270   -0.3330 C   0  0  0  0  0  0  0  0  0  0  0  0
   -4.9950   14.4040    0.7790 C   0  0  2  0  0  0  0  0  0  0  0  0
   -2.7740   15.2750    0.8420 C   0  0  0  0  0  0  0  0  0  0  0  0
   -6.3070   14.4550    1.3690 N   0  0  0  0  0  0  0  0  0  0  0  0
   -4.0460   15.2000    1.4910 N   0  0  0  0  0  0  0  0  0  0  0  0
  1  2  1  0
  2  3  1  0
  2  4  1  0
  2  5  1  0
  3  6  1  0
  6  7  1  0
  6  8  1  0
  6  9  1  0
  9 10  1  0
 10 11  1  0
 11 12  1  0
 13 12  1  1
 13 14  1  0
 13 15  1  0
 14 16  1  0
 15 17  1  0
 16 18  1  1
 16 19  1  0
 17 19  1  0
M  CHG  2   4  -1   8  -1
M  END
