6mea_A_0_A_γ-4IQY_0_A_δ
     RDKit          3D

 17 19  0  0  0  0  0  0  0  0999 V2000
   -1.5680   12.6670   -3.6170 O   0  0  0  0  0  0  0  0  0  0  0  0
   -0.6760   13.7390   -3.3310 C   0  0  2  0  0  0  0  0  0  0  0  0
   -1.2750   14.9380   -2.5620 C   0  0  2  0  0  0  0  0  0  0  0  0
   -0.1520   14.2920   -4.6620 C   0  0  2  0  0  0  0  0  0  0  0  0
    1.1700   13.8410   -4.9230 O   0  0  0  0  0  0  0  0  0  0  0  0
   -0.6490   16.1030   -3.1670 O   0  0  0  0  0  0  0  0  0  0  0  0
   -0.3370   15.8110   -4.5430 C   0  0  1  0  0  0  0  0  0  0  0  0
   -1.1050   15.1310   -1.0140 C   0  0  1  0  0  0  0  0  0  0  0  0
   -2.8360   14.9550   -2.6840 C   0  0  0  0  0  0  0  0  0  0  0  0
    0.8330   16.6750   -4.9830 C   0  0  0  0  0  0  0  0  0  0  0  0
   -2.5410   15.4760   -0.5600 C   0  0  1  0  0  0  0  0  0  0  0  0
   -3.3960   14.6140   -1.3540 N   0  0  0  0  0  0  0  0  0  0  0  0
   -0.4490   14.1150   -0.1820 N   0  0  0  0  0  0  0  0  0  0  0  0
   -0.4630   14.4980    1.2130 C   0  0  0  0  0  0  0  0  0  0  0  0
   -2.6650   15.5010    0.9770 C   0  0  1  0  0  0  0  0  0  0  0  0
   -4.0240   15.3520    1.4680 N   0  0  0  0  0  0  0  0  0  0  0  0
   -1.8190   14.5820    1.6980 N   0  0  0  0  0  0  0  0  0  0  0  0
  2  1  1  6
  2  3  1  0
  2  4  1  0
  4  5  1  1
  3  6  1  0
  4  7  1  0
  6  7  1  0
  3  8  1  0
  3  9  1  1
  7 10  1  1
  8 11  1  0
  9 12  1  0
 11 12  1  6
  8 13  1  1
 13 14  1  0
 11 15  1  0
 15 16  1  6
 14 17  1  0
 15 17  1  0
M  END
