
     RDKit          3D

 36 39  0  0  0  0  0  0  0  0999 V2000
   -2.0400   18.1570   -5.7970 P   0  0  0  0  0  0  0  0  0  0  0  0
   -0.4330   19.6880   -7.7750 P   0  0  0  0  0  0  0  0  0  0  0  0
    0.2710   16.9950   -4.9530 C   0  0  0  0  0  0  0  0  0  0  0  0
   -1.0210   16.8950   -5.5780 O   0  0  0  0  0  0  0  0  0  0  0  0
    0.6020   15.6600   -4.3350 C   0  0  1  0  0  0  0  0  0  0  0  0
    0.1040   15.6210   -2.9780 O   0  0  0  0  0  0  0  0  0  0  0  0
    0.0130   14.4280   -5.0360 C   0  0  1  0  0  0  0  0  0  0  0  0
    0.9700   13.3730   -5.0720 O   0  0  0  0  0  0  0  0  0  0  0  0
   -1.1980   14.0910   -4.1580 C   0  0  1  0  0  0  0  0  0  0  0  0
   -1.6100   12.7300   -4.2290 O   0  0  0  0  0  0  0  0  0  0  0  0
   -0.6130   14.4180   -2.7930 C   0  0  2  0  0  0  0  0  0  0  0  0
   -5.3350   21.9530   -6.9080 C   0  0  1  0  0  0  0  0  0  0  0  0
   -1.1430   14.7370    2.2830 N   0  0  0  0  0  0  0  0  0  0  0  0
   -2.9070   17.6290   -6.8310 O   0  0  0  0  0  0  0  0  0  0  0  0
    0.5860   20.6380   -7.4230 O   0  0  0  0  0  0  0  0  0  0  0  0
   -5.5990   21.4200   -5.6680 O   0  0  0  0  0  0  0  0  0  0  0  0
   -0.1020   14.4320    1.5030 C   0  0  0  0  0  0  0  0  0  0  0  0
   -4.6570   23.3060   -6.7330 C   0  0  2  0  0  0  0  0  0  0  0  0
   -2.3980   18.4710   -4.4540 O   0  0  0  0  0  0  0  0  0  0  0  0
   -0.2310   18.4760   -8.4850 O   0  0  0  0  0  0  0  0  0  0  0  0
   -5.6010   24.3420   -6.4890 O   0  0  0  0  0  0  0  0  0  0  0  0
   -3.9410   23.4510   -8.0750 C   0  0  2  0  0  0  0  0  0  0  0  0
   -0.0570   14.3270    0.1720 N   0  0  0  0  0  0  0  0  0  0  0  0
   -0.9740   19.2000   -6.3430 O   0  0  0  0  0  0  0  0  0  0  0  0
   -4.8130   23.9240   -9.0970 O   0  0  0  0  0  0  0  0  0  0  0  0
   -1.2510   14.5880   -0.3750 C   0  0  0  0  0  0  0  0  0  0  0  0
   -3.4870   22.0210   -8.3570 C   0  0  2  0  0  0  0  0  0  0  0  0
   -4.3850   21.1620   -7.6190 O   0  0  0  0  0  0  0  0  0  0  0  0
   -2.4160   14.9160    0.2980 C   0  0  0  0  0  0  0  0  0  0  0  0
   -2.0600   21.7250   -7.9650 C   0  0  0  0  0  0  0  0  0  0  0  0
   -1.7350   20.3640   -8.3190 O   0  0  0  0  0  0  0  0  0  0  0  0
   -2.3400   14.9860    1.7030 C   0  0  0  0  0  0  0  0  0  0  0  0
   -3.3800   15.2680    2.4890 N   0  0  0  0  0  0  0  0  0  0  0  0
   -3.4510   15.1450   -0.5980 N   0  0  0  0  0  0  0  0  0  0  0  0
   -2.8920   14.9610   -1.7710 C   0  0  0  0  0  0  0  0  0  0  0  0
   -1.5650   14.6230   -1.7100 N   0  0  0  0  0  0  0  0  0  0  0  0
  1  4  1  0
  1 14  1  0
  1 19  1  0
  1 24  1  0
  4  3  1  0
 24  2  1  0
  2 15  1  0
  2 20  1  0
  2 31  1  0
 31 30  1  0
  5  3  1  6
  5  6  1  0
  5  7  1  0
  6 11  1  0
  7  8  1  1
  7  9  1  0
 11  9  1  0
 11 36  1  1
  9 10  1  1
 36 26  1  0
 36 35  1  0
 12 16  1  1
 12 18  1  0
 12 28  1  0
 18 21  1  6
 18 22  1  0
 28 27  1  0
 13 17  1  0
 13 32  1  0
 17 23  1  0
 32 29  1  0
 32 33  1  0
 23 26  1  0
 22 25  1  6
 22 27  1  0
 27 30  1  1
 26 29  1  0
 29 34  1  0
 34 35  1  0
M  CHG  2  14  -1  15  -1
M  END
