6MEA_0_B_Î³
     RDKit          3D

  8  8  0  0  0  0  0  0  0  0999 V2000
   -0.5820   14.4290   -2.9310 C   0  0  0  0  0  0  0  0  0  0  0  0
    0.1490   15.6280   -3.0960 O   0  0  0  0  0  0  0  0  0  0  0  0
   -1.1910   14.1610   -4.3010 C   0  0  1  0  0  0  0  0  0  0  0  0
    0.6400   15.6850   -4.4550 C   0  0  1  0  0  0  0  0  0  0  0  0
    0.0270   14.4770   -5.1720 C   0  0  1  0  0  0  0  0  0  0  0  0
   -1.6480   12.8230   -4.4540 O   0  0  0  0  0  0  0  0  0  0  0  0
    0.3230   17.0350   -5.0550 C   0  0  0  0  0  0  0  0  0  0  0  0
    0.9560   13.3980   -5.1910 O   0  0  0  0  0  0  0  0  0  0  0  0
  1  2  1  1
  1  3  1  0
  4  2  1  0
  5  3  1  0
  3  6  1  1
  4  7  1  6
  4  5  1  0
  5  8  1  1
M  END
