6mea_A_0_A_γ-5CMS_0_R_δ
     RDKit          3D

 17 19  0  0  0  0  0  0  0  0999 V2000
   -1.4500   12.6930   -3.7600 O   0  0  0  0  0  0  0  0  0  0  0  0
   -0.5230   13.7390   -3.4870 C   0  0  2  0  0  0  0  0  0  0  0  0
   -1.0670   14.9520   -2.7080 C   0  0  2  0  0  0  0  0  0  0  0  0
   -0.0000   14.3100   -4.8080 C   0  0  2  0  0  0  0  0  0  0  0  0
    1.3350   13.8880   -5.0430 O   0  0  0  0  0  0  0  0  0  0  0  0
   -0.3960   16.0920   -3.2820 O   0  0  0  0  0  0  0  0  0  0  0  0
   -0.2280   15.8200   -4.6800 C   0  0  1  0  0  0  0  0  0  0  0  0
   -0.8860   15.1120   -1.1670 C   0  0  1  0  0  0  0  0  0  0  0  0
   -2.6090   15.0490   -2.8670 C   0  0  0  0  0  0  0  0  0  0  0  0
    0.8560   16.7440   -5.2080 C   0  0  0  0  0  0  0  0  0  0  0  0
   -2.3190   15.4770   -0.7110 C   0  0  1  0  0  0  0  0  0  0  0  0
   -3.1960   14.6850   -1.5620 N   0  0  0  0  0  0  0  0  0  0  0  0
   -0.2340   14.0710   -0.3670 N   0  0  0  0  0  0  0  0  0  0  0  0
   -0.2770   14.3690    1.0530 C   0  0  0  0  0  0  0  0  0  0  0  0
   -2.4450   15.4220    0.8330 C   0  0  1  0  0  0  0  0  0  0  0  0
   -3.8120   15.2540    1.2910 N   0  0  0  0  0  0  0  0  0  0  0  0
   -1.6400   14.4420    1.5100 N   0  0  0  0  0  0  0  0  0  0  0  0
  2  1  1  6
  2  3  1  0
  2  4  1  0
  4  5  1  1
  3  6  1  0
  4  7  1  0
  6  7  1  0
  3  8  1  0
  3  9  1  1
  7 10  1  1
  8 11  1  0
  9 12  1  0
 11 12  1  6
  8 13  1  1
 13 14  1  0
 11 15  1  0
 15 16  1  6
 14 17  1  0
 15 17  1  0
M  END
