6mea_A_0_A_α-6MEA_0_A_β
     RDKit          3D

 17 17  0  0  0  0  0  0  0  0999 V2000
   -2.3420   21.0650   -7.2310 C   0  0  0  0  0  0  0  0  0  0  0  0
   -0.8570   20.3490   -7.8730 P   0  0  0  0  0  0  0  0  0  0  0  0
   -0.4360   19.4730   -6.6730 O   0  0  0  0  0  0  0  0  0  0  0  0
   -3.3080   21.8120   -8.1760 C   0  0  1  0  0  0  0  0  0  0  0  0
    0.5580   21.1210   -7.7460 O   0  0  0  0  0  0  0  0  0  0  0  0
   -0.8420   18.8330   -8.6400 O   0  0  0  0  0  0  0  0  0  0  0  0
   -4.6120   21.3670   -8.0320 O   0  0  0  0  0  0  0  0  0  0  0  0
   -3.5400   23.3110   -7.9090 C   0  0  1  0  0  0  0  0  0  0  0  0
   -4.3600   23.8460   -8.9070 O   0  0  0  0  0  0  0  0  0  0  0  0
   -1.3900   18.5330   -5.6950 P   0  0  0  0  0  0  0  0  0  0  0  0
   -5.2010   22.0220   -6.9600 C   0  0  2  0  0  0  0  0  0  0  0  0
   -4.3900   23.2190   -6.6450 C   0  0  2  0  0  0  0  0  0  0  0  0
   -5.3130   21.3130   -5.7750 O   0  0  0  0  0  0  0  0  0  0  0  0
   -5.2500   24.3400   -6.5540 O   0  0  0  0  0  0  0  0  0  0  0  0
   -1.1400   16.8780   -5.5240 O   0  0  0  0  0  0  0  0  0  0  0  0
   -2.4150   18.2150   -6.7960 O   0  0  0  0  0  0  0  0  0  0  0  0
   -2.3570   19.2790   -4.6840 O   0  0  0  0  0  0  0  0  0  0  0  0
  1  2  1  0
  2  3  1  0
  4  1  1  1
  2  5  1  0
  2  6  1  0
  4  7  1  0
  4  8  1  0
  8  9  1  6
  3 10  1  0
  7 11  1  0
  8 12  1  0
 11 12  1  0
 11 13  1  1
 12 14  1  6
 10 15  1  0
 10 16  1  0
 10 17  1  0
M  CHG  2   5  -1  16  -1
M  END
