6MEA_0_A_δ-5cms_J_9_J_γ
     RDKit          3D

 17 19  0  0  0  0  0  0  0  0999 V2000
   -3.7280   15.2680    1.7040 N   0  0  0  0  0  0  0  0  0  0  0  0
   -2.6900   14.4690    1.0860 C   0  0  1  0  0  0  0  0  0  0  0  0
   -2.6090   14.6420   -0.4410 C   0  0  1  0  0  0  0  0  0  0  0  0
   -1.4880   14.9830    1.6950 N   0  0  0  0  0  0  0  0  0  0  0  0
   -1.3030   14.0540   -0.9910 C   0  0  1  0  0  0  0  0  0  0  0  0
   -3.6220   14.1570   -1.3590 N   0  0  0  0  0  0  0  0  0  0  0  0
   -0.2630   14.3930    1.1860 C   0  0  0  0  0  0  0  0  0  0  0  0
   -1.4700   14.3220   -2.5360 C   0  0  1  0  0  0  0  0  0  0  0  0
   -2.9880   14.6760   -2.6060 C   0  0  0  0  0  0  0  0  0  0  0  0
   -0.1650   14.5900   -0.2500 N   0  0  0  0  0  0  0  0  0  0  0  0
   -0.5910   15.4360   -2.9680 O   0  0  0  0  0  0  0  0  0  0  0  0
   -1.0850   13.2150   -3.5550 C   0  0  1  0  0  0  0  0  0  0  0  0
   -2.1000   12.3550   -4.0270 O   0  0  0  0  0  0  0  0  0  0  0  0
   -0.4910   15.3730   -4.4070 C   0  0  2  0  0  0  0  0  0  0  0  0
   -0.3770   13.8910   -4.7390 C   0  0  1  0  0  0  0  0  0  0  0  0
    0.6430   16.2340   -4.9530 C   0  0  0  0  0  0  0  0  0  0  0  0
    0.9500   13.3940   -4.8750 O   0  0  0  0  0  0  0  0  0  0  0  0
  2  1  1  1
  2  3  1  0
  2  4  1  0
  3  5  1  0
  3  6  1  6
  4  7  1  0
  5  8  1  0
  6  9  1  0
  8  9  1  1
  5 10  1  1
  7 10  1  0
  8 11  1  0
  8 12  1  0
 12 13  1  6
 11 14  1  0
 12 15  1  0
 14 15  1  0
 14 16  1  1
 15 17  1  1
M  END
