6MEA_0_B_γ-mArh-5fud_B_0_B_α
     RDKit          3D

 22 23  0  0  0  0  0  0  0  0999 V2000
   -1.9810   12.9570   -4.5220 O   0  0  0  0  0  0  0  0  0  0  0  0
   -0.7480   13.4340   -4.0130 C   0  0  2  0  0  0  0  0  0  0  0  0
   -0.8870   14.3730   -2.8140 C   0  0  0  0  0  0  0  0  0  0  0  0
   -0.0120   14.2490   -5.0640 C   0  0  2  0  0  0  0  0  0  0  0  0
    1.3480   13.8130   -5.1430 O   0  0  0  0  0  0  0  0  0  0  0  0
   -0.0720   15.5090   -3.0990 O   0  0  0  0  0  0  0  0  0  0  0  0
   -0.1480   15.6770   -4.5250 C   0  0  1  0  0  0  0  0  0  0  0  0
    0.9190   16.6820   -4.9230 C   0  0  0  0  0  0  0  0  0  0  0  0
    0.4860   18.1510   -4.8370 C   0  0  0  0  0  0  0  0  0  0  0  0
   -0.9220   18.4440   -5.3590 C   0  0  0  0  0  0  0  0  0  0  0  0
   -0.9190   18.2900   -6.8180 N   0  0  0  0  0  0  0  0  0  0  0  0
   -0.7430   19.6540   -7.8140 S   0  0  1  0  0  0  0  0  0  0  0  0
    0.4580   20.3880   -7.4910 O   0  0  0  0  0  0  0  0  0  0  0  0
   -0.9230   19.1120   -9.1090 O   0  0  0  0  0  0  0  0  0  0  0  0
   -2.1750   20.6100   -7.3340 C   0  0  0  0  0  0  0  0  0  0  0  0
   -2.5170   21.6870   -8.3440 C   0  0  0  0  0  0  0  0  0  0  0  0
   -3.8330   22.3030   -8.1860 N   0  0  0  0  0  0  0  0  0  0  0  0
   -4.4880   22.7300   -9.4190 C   0  0  0  0  0  0  0  0  0  0  0  0
   -3.9200   23.3660   -7.1890 C   0  0  0  0  0  0  0  0  0  0  0  0
   -5.9790   22.9460   -9.1390 C   0  0  0  0  0  0  0  0  0  0  0  0
   -5.3720   23.7040   -6.8980 C   0  0  0  0  0  0  0  0  0  0  0  0
   -6.2150   23.8640   -8.0570 O   0  0  0  0  0  0  0  0  0  0  0  0
  2  1  1  6
  2  3  1  0
  2  4  1  0
  4  5  1  1
  3  6  1  0
  4  7  1  0
  6  7  1  0
  7  8  1  6
  8  9  1  0
  9 10  1  0
 10 11  1  0
 11 12  2  0
 12 13  2  0
 12 14  1  6
 12 15  1  0
 15 16  1  0
 16 17  1  0
 17 18  1  0
 17 19  1  0
 18 20  1  0
 19 21  1  0
 20 22  1  0
 21 22  1  0
M  CHG  1  14  -1
M  END
