6MEA_0_B_Î´
     RDKit          3D

 10 11  0  0  0  0  0  0  0  0999 V2000
   -1.5170   14.6210   -1.8290 N   0  0  0  0  0  0  0  0  0  0  0  0
   -1.1910   14.5780   -0.4950 C   0  0  0  0  0  0  0  0  0  0  0  0
   -2.8490   14.9330   -1.8740 C   0  0  0  0  0  0  0  0  0  0  0  0
    0.0130   14.3300    0.0400 N   0  0  0  0  0  0  0  0  0  0  0  0
   -2.3590   14.8700    0.1890 C   0  0  0  0  0  0  0  0  0  0  0  0
   -3.4030   15.0920   -0.6970 N   0  0  0  0  0  0  0  0  0  0  0  0
   -0.0350   14.3880    1.3740 C   0  0  0  0  0  0  0  0  0  0  0  0
   -2.2820   14.9010    1.5960 C   0  0  0  0  0  0  0  0  0  0  0  0
   -1.0820   14.6500    2.1660 N   0  0  0  0  0  0  0  0  0  0  0  0
   -3.3220   15.1590    2.3890 N   0  0  0  0  0  0  0  0  0  0  0  0
  1  2  1  0
  1  3  1  0
  4  2  1  0
  2  5  1  0
  6  3  1  0
  7  4  1  0
  8  5  1  0
  5  6  1  0
  9  7  1  0
  9  8  1  0
  8 10  1  0
M  END
