6MEA_0_A_β-4IQY_0_B_δ
     RDKit          3D

 21 22  0  0  0  0  0  0  0  0999 V2000
   -1.9110   20.4900   -7.6550 O   0  0  0  0  0  0  0  0  0  0  0  0
   -0.6290   19.6610   -7.6210 P   0  0  0  0  0  0  0  0  0  0  0  0
   -1.0560   19.1390   -6.0690 O   0  0  0  0  0  0  0  0  0  0  0  0
    0.3200   20.9570   -7.7580 O   0  0  0  0  0  0  0  0  0  0  0  0
    0.5230   18.6520   -7.6250 O   0  0  0  0  0  0  0  0  0  0  0  0
   -1.5960   17.7170   -5.8050 P   0  0  0  0  0  0  0  0  0  0  0  0
   -0.0250   17.1740   -6.2150 O   0  0  0  0  0  0  0  0  0  0  0  0
   -2.7190   17.8950   -6.9240 O   0  0  0  0  0  0  0  0  0  0  0  0
   -1.8130   17.7380   -4.2410 O   0  0  0  0  0  0  0  0  0  0  0  0
   -1.5910   16.4980   -3.6300 C   0  0  0  0  0  0  0  0  0  0  0  0
   -2.8600   16.0080   -2.9380 C   0  0  0  0  0  0  0  0  0  0  0  0
   -2.9310   14.5960   -2.5000 C   0  0  1  0  0  0  0  0  0  0  0  0
   -1.6050   14.1810   -2.0970 N   0  0  0  0  0  0  0  0  0  0  0  0
   -3.7090   14.6790   -1.2420 N   0  0  0  0  0  0  0  0  0  0  0  0
   -1.4560   14.8400   -0.8690 C   0  0  1  0  0  0  0  0  0  0  0  0
   -2.7810   14.4880   -0.1800 C   0  0  1  0  0  0  0  0  0  0  0  0
   -0.4130   14.3060   -0.0620 N   0  0  0  0  0  0  0  0  0  0  0  0
   -2.8390   15.4430    0.9370 C   0  0  1  0  0  0  0  0  0  0  0  0
   -4.1200   15.4500    1.6510 N   0  0  0  0  0  0  0  0  0  0  0  0
   -0.4920   14.9760    1.2150 C   0  0  0  0  0  0  0  0  0  0  0  0
   -1.8120   14.9680    1.7970 N   0  0  0  0  0  0  0  0  0  0  0  0
  1  2  1  0
  2  3  1  0
  2  4  1  0
  2  5  1  0
  3  6  1  0
  6  7  1  0
  6  8  1  0
  6  9  1  0
  9 10  1  0
 10 11  1  0
 12 11  1  1
 12 13  1  0
 12 14  1  0
 15 13  1  6
 16 14  1  6
 15 16  1  0
 15 17  1  0
 16 18  1  0
 18 19  1  1
 17 20  1  0
 18 21  1  0
 20 21  1  0
M  CHG  2   4  -1   8  -1
M  END
