6mea_B_0_B_α-5cb5_D_0_D_α
     RDKit          3D

  9  9  0  0  0  0  0  0  0  0999 V2000
   -1.8900   22.1140   -7.9630 C   0  0  0  0  0  0  0  0  0  0  0  0
   -3.3830   22.1810   -8.2390 C   0  0  1  0  0  0  0  0  0  0  0  0
   -4.0690   21.3810   -7.2720 O   0  0  0  0  0  0  0  0  0  0  0  0
   -3.9600   23.5930   -8.1140 C   0  0  1  0  0  0  0  0  0  0  0  0
   -4.2800   24.1630   -9.3700 O   0  0  0  0  0  0  0  0  0  0  0  0
   -5.3670   21.9310   -7.1110 C   0  0  2  0  0  0  0  0  0  0  0  0
   -5.2730   23.4310   -7.3620 C   0  0  1  0  0  0  0  0  0  0  0  0
   -5.7980   21.6650   -5.7770 O   0  0  0  0  0  0  0  0  0  0  0  0
   -5.3980   24.2390   -6.2050 O   0  0  0  0  0  0  0  0  0  0  0  0
  2  1  1  1
  2  3  1  0
  2  4  1  0
  4  5  1  6
  3  6  1  0
  4  7  1  0
  6  7  1  0
  6  8  1  1
  7  9  1  1
M  END
