6MEA_0_A_Î´
     RDKit          3D

 10 11  0  0  0  0  0  0  0  0999 V2000
   -1.5650   14.6230   -1.7100 N   0  0  0  0  0  0  0  0  0  0  0  0
   -1.2510   14.5880   -0.3750 C   0  0  0  0  0  0  0  0  0  0  0  0
   -2.8920   14.9610   -1.7710 C   0  0  0  0  0  0  0  0  0  0  0  0
   -0.0570   14.3270    0.1720 N   0  0  0  0  0  0  0  0  0  0  0  0
   -2.4160   14.9160    0.2980 C   0  0  0  0  0  0  0  0  0  0  0  0
   -3.4510   15.1450   -0.5980 N   0  0  0  0  0  0  0  0  0  0  0  0
   -0.1020   14.4320    1.5030 C   0  0  0  0  0  0  0  0  0  0  0  0
   -2.3400   14.9860    1.7030 C   0  0  0  0  0  0  0  0  0  0  0  0
   -1.1430   14.7370    2.2830 N   0  0  0  0  0  0  0  0  0  0  0  0
   -3.3800   15.2680    2.4890 N   0  0  0  0  0  0  0  0  0  0  0  0
  1  2  1  0
  1  3  1  0
  4  2  1  0
  2  5  1  0
  6  3  1  0
  7  4  1  0
  8  5  1  0
  5  6  1  0
  9  7  1  0
  9  8  1  0
  8 10  1  0
M  END
