6mea_A_0_A_α-5CB5_0_N_δ
     RDKit          3D

 24 26  0  0  0  0  0  0  0  0999 V2000
   -2.2130   21.4220   -8.7600 C   0  0  0  0  0  0  0  0  0  0  0  0
   -3.2630   21.8660   -7.8090 C   0  0  2  0  0  0  0  0  0  0  0  0
   -4.2130   20.8580   -7.5360 O   0  0  0  0  0  0  0  0  0  0  0  0
   -4.2610   22.9300   -8.1510 C   0  0  2  0  0  0  0  0  0  0  0  0
   -3.8060   24.1020   -8.7790 O   0  0  0  0  0  0  0  0  0  0  0  0
   -4.9100   21.5000   -6.4750 C   0  0  2  0  0  0  0  0  0  0  0  0
   -4.6270   23.0310   -6.6860 C   0  0  2  0  0  0  0  0  0  0  0  0
   -4.2840   20.9560   -5.3220 O   0  0  0  0  0  0  0  0  0  0  0  0
   -5.7290   23.9470   -6.5380 O   0  0  0  0  0  0  0  0  0  0  0  0
   -2.9320   20.3960   -5.5310 C   0  0  0  0  0  0  0  0  0  0  0  0
   -2.6890   19.1880   -6.4800 C   0  0  0  0  0  0  0  0  0  0  0  0
   -2.1990   17.8140   -5.8620 C   0  0  0  0  0  0  0  0  0  0  0  0
   -1.3600   17.8910   -4.5590 C   0  0  0  0  0  0  0  0  0  0  0  0
   -1.1370   16.6190   -3.6210 C   0  0  0  0  0  0  0  0  0  0  0  0
   -2.1910   15.7190   -2.8270 C   0  0  1  0  0  0  0  0  0  0  0  0
   -1.5320   14.4630   -2.4870 N   0  0  0  0  0  0  0  0  0  0  0  0
   -2.7950   16.1720   -1.5330 N   0  0  0  0  0  0  0  0  0  0  0  0
   -1.5420   14.3050   -1.0450 C   0  0  2  0  0  0  0  0  0  0  0  0
   -2.7660   15.0240   -0.5700 C   0  0  1  0  0  0  0  0  0  0  0  0
   -0.3200   14.7170   -0.4120 N   0  0  0  0  0  0  0  0  0  0  0  0
   -2.5310   15.3850    0.9240 C   0  0  1  0  0  0  0  0  0  0  0  0
   -3.7710   15.5130    1.6870 N   0  0  0  0  0  0  0  0  0  0  0  0
   -0.3060   14.4960    1.0220 C   0  0  0  0  0  0  0  0  0  0  0  0
   -1.6560   14.4570    1.5860 N   0  0  0  0  0  0  0  0  0  0  0  0
  2  1  1  6
  2  3  1  0
  2  4  1  0
  4  5  1  1
  3  6  1  0
  4  7  1  0
  6  7  1  0
  6  8  1  1
  7  9  1  6
  8 10  1  0
 10 11  1  0
 11 12  1  0
 12 13  1  0
 13 14  1  0
 15 14  1  1
 15 16  1  0
 15 17  1  0
 18 16  1  6
 19 17  1  6
 18 19  1  0
 18 20  1  0
 19 21  1  0
 21 22  1  1
 20 23  1  0
 21 24  1  0
 23 24  1  0
M  END
