6MEA_0_A_Î±
     RDKit          3D

  9  9  0  0  0  0  0  0  0  0999 V2000
   -2.0600   21.7250   -7.9650 C   0  0  0  0  0  0  0  0  0  0  0  0
   -3.4870   22.0210   -8.3570 C   0  0  1  0  0  0  0  0  0  0  0  0
   -4.3850   21.1620   -7.6190 O   0  0  0  0  0  0  0  0  0  0  0  0
   -3.9410   23.4510   -8.0750 C   0  0  2  0  0  0  0  0  0  0  0  0
   -5.3350   21.9530   -6.9080 C   0  0  2  0  0  0  0  0  0  0  0  0
   -4.6570   23.3060   -6.7330 C   0  0  2  0  0  0  0  0  0  0  0  0
   -4.8130   23.9240   -9.0970 O   0  0  0  0  0  0  0  0  0  0  0  0
   -5.5990   21.4200   -5.6680 O   0  0  0  0  0  0  0  0  0  0  0  0
   -5.6010   24.3420   -6.4890 O   0  0  0  0  0  0  0  0  0  0  0  0
  2  1  1  1
  3  2  1  0
  4  2  1  0
  5  3  1  0
  6  4  1  0
  4  7  1  6
  5  8  1  1
  5  6  1  0
  6  9  1  6
M  END
