6MEA_0_B_β-x0950_1_A_α
     RDKit          3D

 17 16  0  0  0  0  0  0  0  0999 V2000
   -1.6890   20.2770   -6.9940 O   0  0  0  0  0  0  0  0  0  0  0  0
   -0.5360   19.7550   -7.8540 P   0  0  0  0  0  0  0  0  0  0  0  0
   -0.2510   18.5720   -6.6930 O   0  0  0  0  0  0  0  0  0  0  0  0
    0.4620   21.0000   -7.7960 O   0  0  0  0  0  0  0  0  0  0  0  0
    0.2650   18.8340   -8.7540 O   0  0  0  0  0  0  0  0  0  0  0  0
   -1.5440   18.0670   -5.8450 P   0  0  0  0  0  0  0  0  0  0  0  0
   -0.7920   16.8200   -5.3280 O   0  0  0  0  0  0  0  0  0  0  0  0
   -2.7170   17.1870   -6.6230 O   0  0  0  0  0  0  0  0  0  0  0  0
   -1.8490   18.7410   -4.4140 O   0  0  0  0  0  0  0  0  0  0  0  0
   -1.3440   15.6430   -4.8380 C   0  0  0  0  0  0  0  0  0  0  0  0
   -0.2660   14.8800   -4.0490 C   0  0  0  0  0  0  0  0  0  0  0  0
    0.8400   14.2650   -4.9090 C   0  0  0  0  0  0  0  0  0  0  0  0
    1.1680   12.7800   -4.6600 C   0  0  2  0  0  0  0  0  0  0  0  0
    0.4240   11.9710   -5.4830 O   0  0  0  0  0  0  0  0  0  0  0  0
    0.9340   12.4060   -3.2260 C   0  0  0  0  0  0  0  0  0  0  0  0
    0.3410   11.3240   -2.9880 O   0  0  0  0  0  0  0  0  0  0  0  0
    1.3440   13.1940   -2.1670 O   0  0  0  0  0  0  0  0  0  0  0  0
  1  2  1  0
  2  3  1  0
  2  4  1  0
  2  5  1  0
  3  6  1  0
  6  7  1  0
  6  8  1  0
  6  9  1  0
  7 10  1  0
 10 11  1  0
 11 12  1  0
 12 13  1  0
 13 14  1  6
 13 15  1  0
 15 16  2  0
 15 17  1  0
M  CHG  2   4  -1   8  -1
M  END
