
     RDKit          3D

 13 13  0  0  0  0  0  0  0  0999 V2000
    9.3980   33.9480    8.8570 N   0  0  0  0  0  0  0  0  0  0  0  0
    7.0010   34.3150    8.3520 C   0  0  0  0  0  0  0  0  0  0  0  0
    6.1220   35.5150    8.0040 C   0  0  0  0  0  0  0  0  0  0  0  0
    5.9480   36.4280    9.2010 C   0  0  0  0  0  0  0  0  0  0  0  0
    7.2770   37.0300    9.6190 C   0  0  0  0  0  0  0  0  0  0  0  0
    8.4540   36.2370    9.0530 C   0  0  0  0  0  0  0  0  0  0  0  0
    8.2070   34.7410    9.1810 C   0  0  2  0  0  0  0  0  0  0  0  0
    9.2860   32.5170    9.1310 C   0  0  0  0  0  0  0  0  0  0  0  0
   11.8660   29.6600    9.7010 O   0  0  0  0  0  0  0  0  0  0  0  0
   10.6280   31.8150    9.0020 C   0  0  0  0  0  0  0  0  0  0  0  0
    9.5200   29.4870    8.9400 O   0  0  0  0  0  0  0  0  0  0  0  0
   10.0310   30.4500   11.1240 O   0  0  0  0  0  0  0  0  0  0  0  0
   10.5300   30.1850    9.6830 S   0  0  1  0  0  0  0  0  0  0  0  0
  7  1  1  6
  1  8  1  0
  7  2  1  0
  7  6  1  0
  8 10  1  0
  2  3  1  0
  3  4  1  0
  4  5  1  0
  5  6  1  0
 10 13  1  0
 13  9  1  1
 13 11  1  0
 13 12  1  0
M  END
