6WOJ_0_B_β-5CMS_0_Q_γ
     RDKit          3D

 16 16  0  0  0  0  0  0  0  0999 V2000
   -1.4730   20.2140   -8.1630 O   0  0  0  0  0  0  0  0  0  0  0  0
   -0.0640   19.7170   -7.4520 P   0  0  0  0  0  0  0  0  0  0  0  0
   -0.0040   18.2960   -6.5860 O   0  0  0  0  0  0  0  0  0  0  0  0
    0.2960   18.9040   -8.6570 O   0  0  0  0  0  0  0  0  0  0  0  0
    1.1780   20.7050   -7.5350 O   0  0  0  0  0  0  0  0  0  0  0  0
   -1.4020   18.0100   -5.8830 P   0  0  0  0  0  0  0  0  0  0  0  0
   -1.1670   16.5290   -5.3690 O   0  0  0  0  0  0  0  0  0  0  0  0
   -1.6180   18.4900   -4.3070 O   0  0  0  0  0  0  0  0  0  0  0  0
   -2.6930   17.5720   -6.7500 O   0  0  0  0  0  0  0  0  0  0  0  0
   -0.0550   15.8280   -4.8590 C   0  0  1  0  0  0  0  0  0  0  0  0
   -0.0770   15.7860   -3.4690 O   0  0  0  0  0  0  0  0  0  0  0  0
    0.0210   14.3740   -5.2290 C   0  0  1  0  0  0  0  0  0  0  0  0
    1.3160   13.8230   -5.1260 O   0  0  0  0  0  0  0  0  0  0  0  0
   -1.0930   14.8630   -3.1710 C   0  0  0  0  0  0  0  0  0  0  0  0
   -0.7390   13.6830   -4.0910 C   0  0  1  0  0  0  0  0  0  0  0  0
   -1.8340   13.0600   -4.6320 O   0  0  0  0  0  0  0  0  0  0  0  0
  1  2  1  0
  2  3  1  0
  2  4  1  0
  2  5  1  0
  3  6  1  0
  6  7  1  0
  6  8  1  0
  6  9  1  0
 10  7  1  6
 10 11  1  0
 10 12  1  0
 12 13  1  1
 11 14  1  0
 12 15  1  0
 14 15  1  0
 15 16  1  6
M  CHG  2   4  -1   8  -1
M  END
