6woj_C_0_C_α-5cms_N_13_N_γ
     RDKit          3D

 22 23  0  0  0  0  0  0  0  0999 V2000
   -1.7420   22.0910   -8.1040 C   0  0  0  0  0  0  0  0  0  0  0  0
   -3.0870   22.3850   -7.4780 C   0  0  2  0  0  0  0  0  0  0  0  0
   -4.0870   21.4660   -7.9320 O   0  0  0  0  0  0  0  0  0  0  0  0
   -3.7360   23.7230   -7.7650 C   0  0  1  0  0  0  0  0  0  0  0  0
   -3.8920   23.9970   -9.1570 O   0  0  0  0  0  0  0  0  0  0  0  0
   -5.2570   21.9230   -7.2510 C   0  0  2  0  0  0  0  0  0  0  0  0
   -5.1460   23.4700   -7.2780 C   0  0  1  0  0  0  0  0  0  0  0  0
   -5.2600   21.4560   -5.9110 O   0  0  0  0  0  0  0  0  0  0  0  0
   -5.4320   24.1560   -6.0680 O   0  0  0  0  0  0  0  0  0  0  0  0
   -3.9200   21.1500   -5.5280 C   0  0  0  0  0  0  0  0  0  0  0  0
   -3.1780   20.2090   -6.5010 C   0  0  0  0  0  0  0  0  0  0  0  0
   -1.8710   19.6850   -5.9190 C   0  0  0  0  0  0  0  0  0  0  0  0
   -1.2910   18.5420   -6.7480 C   0  0  0  0  0  0  0  0  0  0  0  0
   -0.0440   17.9380   -6.1020 C   0  0  0  0  0  0  0  0  0  0  0  0
   -0.3540   16.6510   -5.3310 C   0  0  0  0  0  0  0  0  0  0  0  0
    0.8600   15.7490   -5.1090 C   0  0  1  0  0  0  0  0  0  0  0  0
    1.0810   15.8340   -3.6900 O   0  0  0  0  0  0  0  0  0  0  0  0
    0.8080   14.2170   -5.3610 C   0  0  2  0  0  0  0  0  0  0  0  0
    0.1000   13.6630   -6.4450 O   0  0  0  0  0  0  0  0  0  0  0  0
    0.3360   14.7790   -3.0840 C   0  0  0  0  0  0  0  0  0  0  0  0
    0.2080   13.6500   -4.0960 C   0  0  2  0  0  0  0  0  0  0  0  0
    0.9170   12.4710   -3.7530 O   0  0  0  0  0  0  0  0  0  0  0  0
  2  1  1  6
  2  3  1  0
  2  4  1  0
  4  5  1  6
  3  6  1  0
  4  7  1  0
  6  7  1  0
  6  8  1  1
  7  9  1  1
  8 10  1  0
 10 11  1  0
 11 12  1  0
 12 13  1  0
 13 14  1  0
 14 15  1  0
 16 15  1  1
 16 17  1  0
 16 18  1  0
 18 19  1  6
 17 20  1  0
 18 21  1  0
 20 21  1  0
 21 22  1  1
M  END
