6WOJ_0_D_α-5DUS_0_A_δ
     RDKit          3D

 24 26  0  0  0  0  0  0  0  0999 V2000
   -1.4880   22.0590   -7.9500 C   0  0  0  0  0  0  0  0  0  0  0  0
   -2.8870   22.2970   -7.4390 C   0  0  2  0  0  0  0  0  0  0  0  0
   -3.8450   21.3850   -7.9370 O   0  0  0  0  0  0  0  0  0  0  0  0
   -3.5640   23.6360   -7.6790 C   0  0  1  0  0  0  0  0  0  0  0  0
   -3.7320   24.0070   -9.0360 O   0  0  0  0  0  0  0  0  0  0  0  0
   -4.9500   21.7550   -7.1150 C   0  0  2  0  0  0  0  0  0  0  0  0
   -4.9570   23.3150   -7.1710 C   0  0  1  0  0  0  0  0  0  0  0  0
   -4.7360   21.1220   -5.8430 O   0  0  0  0  0  0  0  0  0  0  0  0
   -5.2780   24.0560   -5.9830 O   0  0  0  0  0  0  0  0  0  0  0  0
   -3.3330   20.7710   -5.5530 C   0  0  0  0  0  0  0  0  0  0  0  0
   -2.6210   19.4880   -6.1630 C   0  0  0  0  0  0  0  0  0  0  0  0
   -1.7040   18.6620   -5.1830 C   0  0  0  0  0  0  0  0  0  0  0  0
   -2.0530   17.1480   -4.9420 C   0  0  0  0  0  0  0  0  0  0  0  0
   -1.3900   16.4180   -3.7160 C   0  0  0  0  0  0  0  0  0  0  0  0
   -2.1890   15.5110   -2.6890 C   0  0  1  0  0  0  0  0  0  0  0  0
   -1.3930   14.3400   -2.3410 N   0  0  0  0  0  0  0  0  0  0  0  0
   -2.6210   16.0860   -1.3850 N   0  0  0  0  0  0  0  0  0  0  0  0
   -1.4630   14.1200   -0.9090 C   0  0  2  0  0  0  0  0  0  0  0  0
   -2.6140   14.9610   -0.4120 C   0  0  1  0  0  0  0  0  0  0  0  0
   -0.1900   14.3260   -0.2720 N   0  0  0  0  0  0  0  0  0  0  0  0
   -2.3140   15.3380    1.0570 C   0  0  1  0  0  0  0  0  0  0  0  0
   -3.5310   15.5600    1.8260 N   0  0  0  0  0  0  0  0  0  0  0  0
   -0.2050   14.2780    1.1790 C   0  0  0  0  0  0  0  0  0  0  0  0
   -1.5530   14.3190    1.7030 N   0  0  0  0  0  0  0  0  0  0  0  0
  2  1  1  6
  2  3  1  0
  2  4  1  0
  4  5  1  6
  3  6  1  0
  4  7  1  0
  6  7  1  0
  6  8  1  1
  7  9  1  1
  8 10  1  0
 10 11  1  0
 11 12  1  0
 12 13  1  0
 13 14  1  0
 15 14  1  1
 15 16  1  0
 15 17  1  0
 18 16  1  6
 19 17  1  6
 18 19  1  0
 18 20  1  0
 19 21  1  0
 21 22  1  1
 20 23  1  0
 21 24  1  0
 23 24  1  0
M  END
