6woj_D_0_D_α-5cms_F_6_F_γ
     RDKit          3D

 22 23  0  0  0  0  0  0  0  0999 V2000
   -1.6260   21.9760   -8.0800 C   0  0  0  0  0  0  0  0  0  0  0  0
   -2.9670   22.3910   -7.5090 C   0  0  2  0  0  0  0  0  0  0  0  0
   -4.0040   21.5200   -7.9400 O   0  0  0  0  0  0  0  0  0  0  0  0
   -3.5220   23.7590   -7.8490 C   0  0  1  0  0  0  0  0  0  0  0  0
   -3.7850   24.0000   -9.2230 O   0  0  0  0  0  0  0  0  0  0  0  0
   -5.1310   22.1280   -7.3100 C   0  0  2  0  0  0  0  0  0  0  0  0
   -4.9200   23.6380   -7.3120 C   0  0  1  0  0  0  0  0  0  0  0  0
   -5.1440   21.8610   -5.9470 O   0  0  0  0  0  0  0  0  0  0  0  0
   -5.1020   24.2170   -6.0300 O   0  0  0  0  0  0  0  0  0  0  0  0
   -4.2610   20.8350   -5.6040 C   0  0  0  0  0  0  0  0  0  0  0  0
   -2.7380   20.8270   -5.7360 C   0  0  0  0  0  0  0  0  0  0  0  0
   -2.1800   19.5030   -6.3370 C   0  0  0  0  0  0  0  0  0  0  0  0
   -1.6660   18.5030   -5.2740 C   0  0  0  0  0  0  0  0  0  0  0  0
   -0.7930   17.3660   -5.8130 C   0  0  0  0  0  0  0  0  0  0  0  0
    0.5490   17.1660   -5.1000 C   0  0  0  0  0  0  0  0  0  0  0  0
    0.7990   15.7910   -4.4130 C   0  0  1  0  0  0  0  0  0  0  0  0
    0.1470   15.8030   -3.1170 O   0  0  0  0  0  0  0  0  0  0  0  0
    0.3310   14.4890   -5.0990 C   0  0  1  0  0  0  0  0  0  0  0  0
    1.2640   13.4250   -5.1150 O   0  0  0  0  0  0  0  0  0  0  0  0
   -0.5600   14.5720   -2.9390 C   0  0  0  0  0  0  0  0  0  0  0  0
   -0.9090   14.0820   -4.3240 C   0  0  2  0  0  0  0  0  0  0  0  0
   -1.1020   12.6750   -4.4050 O   0  0  0  0  0  0  0  0  0  0  0  0
  2  1  1  6
  2  3  1  0
  2  4  1  0
  4  5  1  6
  3  6  1  0
  4  7  1  0
  6  7  1  0
  6  8  1  1
  7  9  1  1
  8 10  1  0
 10 11  1  0
 11 12  1  0
 12 13  1  0
 13 14  1  0
 14 15  1  0
 16 15  1  6
 16 17  1  0
 16 18  1  0
 18 19  1  1
 17 20  1  0
 18 21  1  0
 20 21  1  0
 21 22  1  1
M  END
