6WOJ_0_A_α-5CMS_0_Q_α
     RDKit          3D

 17 18  0  0  0  0  0  0  0  0999 V2000
   -1.6480   21.9560   -7.9970 C   0  0  0  0  0  0  0  0  0  0  0  0
   -3.1480   21.9920   -7.8410 C   0  0  1  0  0  0  0  0  0  0  0  0
   -3.6840   21.2050   -6.7800 O   0  0  0  0  0  0  0  0  0  0  0  0
   -1.6640   22.5720   -9.3480 C   0  0  2  0  0  0  0  0  0  0  0  0
   -3.6280   23.4470   -7.6610 C   0  0  1  0  0  0  0  0  0  0  0  0
   -1.8720   21.5930  -10.3350 O   0  0  0  0  0  0  0  0  0  0  0  0
   -0.7650   23.6230   -9.9360 C   0  0  1  0  0  0  0  0  0  0  0  0
   -4.5000   23.9130   -8.7160 O   0  0  0  0  0  0  0  0  0  0  0  0
    0.4550   23.1520  -10.4890 O   0  0  0  0  0  0  0  0  0  0  0  0
   -4.8970   21.8920   -6.5250 C   0  0  2  0  0  0  0  0  0  0  0  0
   -4.4380   23.3370   -6.3970 C   0  0  2  0  0  0  0  0  0  0  0  0
   -2.2290   22.4490  -11.3960 C   0  0  2  0  0  0  0  0  0  0  0  0
   -1.8520   23.8900  -10.9740 C   0  0  2  0  0  0  0  0  0  0  0  0
   -5.4760   21.4150   -5.3380 O   0  0  0  0  0  0  0  0  0  0  0  0
   -5.4930   24.2840   -6.3380 O   0  0  0  0  0  0  0  0  0  0  0  0
   -3.6210   22.3720  -11.6470 O   0  0  0  0  0  0  0  0  0  0  0  0
   -1.5070   24.7650  -12.0380 O   0  0  0  0  0  0  0  0  0  0  0  0
  2  1  1  1
  2  3  1  0
  4  1  1  1
  2  5  1  0
  4  6  1  0
  4  7  1  0
  5  8  1  6
  7  9  1  6
  3 10  1  0
  5 11  1  0
 10 11  1  0
  6 12  1  0
  7 13  1  0
 12 13  1  0
 10 14  1  1
 11 15  1  6
 12 16  1  1
 13 17  1  6
M  END
