6WOJ_0_C_β-5cb5_M_1_M_β
     RDKit          3D

 10  9  0  0  0  0  0  0  0  0999 V2000
   -1.6090   20.1560   -8.1030 O   0  0  0  0  0  0  0  0  0  0  0  0
   -0.1750   19.8830   -7.3620 P   0  0  0  0  0  0  0  0  0  0  0  0
    0.0910   18.8900   -6.1520 O   0  0  0  0  0  0  0  0  0  0  0  0
    0.2960   18.9810   -8.4930 O   0  0  0  0  0  0  0  0  0  0  0  0
    1.1120   20.8840   -7.7650 O   0  0  0  0  0  0  0  0  0  0  0  0
   -1.0080   17.7700   -5.6730 P   0  0  0  0  0  0  0  0  0  0  0  0
   -0.4470   16.4850   -4.7790 O   0  0  0  0  0  0  0  0  0  0  0  0
   -1.3340   18.6190   -4.4580 O   0  0  0  0  0  0  0  0  0  0  0  0
   -2.5030   17.8230   -6.2470 N   0  0  0  0  0  0  0  0  0  0  0  0
   -2.9240   18.1580   -7.2150 O   0  0  0  0  0  0  0  0  0  0  0  0
  1  2  1  0
  2  3  1  0
  2  4  1  0
  2  5  1  0
  3  6  1  0
  6  7  1  0
  6  8  1  0
  6  9  1  0
  9 10  2  0
M  CHG  2   4  -1   8  -1
M  END
