6WOJ_0_D_γ-x0926_0_A_α
     RDKit          3D

 17 18  0  0  0  0  0  0  0  0999 V2000
   -0.8840   12.6450   -4.4470 O   0  0  0  0  0  0  0  0  0  0  0  0
   -0.6330   14.0490   -4.6220 C   0  0  1  0  0  0  0  0  0  0  0  0
   -0.7200   14.8310   -3.3030 C   0  0  1  0  0  0  0  0  0  0  0  0
    0.8070   14.2670   -5.0810 C   0  0  2  0  0  0  0  0  0  0  0  0
    1.6100   13.1280   -4.8080 O   0  0  0  0  0  0  0  0  0  0  0  0
   -1.2340   14.0820   -2.0830 C   0  0  0  0  0  0  0  0  0  0  0  0
    0.5950   15.3630   -3.0210 O   0  0  0  0  0  0  0  0  0  0  0  0
    1.2360   15.5020   -4.2910 C   0  0  2  0  0  0  0  0  0  0  0  0
    0.8360   16.8160   -4.9380 C   0  0  0  0  0  0  0  0  0  0  0  0
   -2.7580   14.0290   -2.0040 C   0  0  0  0  0  0  0  0  0  0  0  0
   -3.3130   15.1630   -1.2550 N   0  0  0  0  0  0  0  0  0  0  0  0
   -2.8190   15.4710   -0.0120 C   0  0  0  0  0  0  0  0  0  0  0  0
   -4.6920   15.3420   -1.4490 N   0  0  0  0  0  0  0  0  0  0  0  0
   -3.5640   15.3550    1.0820 C   0  0  0  0  0  0  0  0  0  0  0  0
   -5.5660   15.1030   -0.4160 C   0  0  0  0  0  0  0  0  0  0  0  0
   -6.7810   15.0520   -0.6170 O   0  0  0  0  0  0  0  0  0  0  0  0
   -4.9720   14.8940    0.9720 C   0  0  0  0  0  0  0  0  0  0  0  0
  2  1  1  1
  2  3  1  0
  2  4  1  0
  4  5  1  1
  3  6  1  1
  3  7  1  0
  4  8  1  0
  7  8  1  0
  8  9  1  6
  6 10  1  0
 10 11  1  0
 11 12  1  0
 11 13  1  0
 12 14  2  0
 13 15  1  0
 15 16  2  0
 14 17  1  0
 15 17  1  0
M  END
