6WOJ_0_B_α-3q6z_0_A_α
     RDKit          3D

 10 10  0  0  0  0  0  0  0  0999 V2000
   -1.8500   21.7570   -7.7070 C   0  0  0  0  0  0  0  0  0  0  0  0
   -3.2560   22.1110   -8.2250 C   0  0  1  0  0  0  0  0  0  0  0  0
   -4.4120   21.3170   -7.7060 N   0  0  0  0  0  0  0  0  0  0  0  0
   -3.6790   23.5400   -7.8680 C   0  0  1  0  0  0  0  0  0  0  0  0
   -4.5510   24.1190   -8.8330 O   0  0  0  0  0  0  0  0  0  0  0  0
   -5.4440   21.2290   -8.7240 O   0  0  0  0  0  0  0  0  0  0  0  0
   -5.0710   22.0280   -6.6250 C   0  0  2  0  0  0  0  0  0  0  0  0
   -4.3540   23.3720   -6.5000 C   0  0  2  0  0  0  0  0  0  0  0  0
   -5.0830   21.2800   -5.4260 O   0  0  0  0  0  0  0  0  0  0  0  0
   -5.2880   24.4080   -6.2010 O   0  0  0  0  0  0  0  0  0  0  0  0
  2  1  1  1
  2  3  1  0
  2  4  1  0
  4  5  1  6
  3  6  1  0
  3  7  1  0
  4  8  1  0
  7  8  1  0
  7  9  1  1
  8 10  1  6
M  END
