6woj_D_0_D_γ-x0591_0_A_α
     RDKit          3D

 21 22  0  0  0  0  0  0  0  0999 V2000
   -1.3220   13.5320   -4.8580 N   0  0  0  0  0  0  0  0  0  0  0  0
   -2.3720   14.6520   -4.9560 S   0  0  1  0  0  0  0  0  0  0  0  0
   -1.3850   15.9760   -4.7770 N   0  0  0  0  0  0  0  0  0  0  0  0
   -0.2280   13.6180   -3.8180 C   0  0  2  0  0  0  0  0  0  0  0  0
   -3.1060   15.0080   -6.1470 O   0  0  0  0  0  0  0  0  0  0  0  0
   -0.3640   14.7100   -2.7660 C   0  0  0  0  0  0  0  0  0  0  0  0
    1.1130   13.9610   -4.4800 C   0  0  1  0  0  0  0  0  0  0  0  0
   -3.4830   14.6710   -3.5840 C   0  0  0  0  0  0  0  0  0  0  0  0
    1.1770   13.5460   -5.8270 O   0  0  0  0  0  0  0  0  0  0  0  0
    0.6730   15.6940   -2.9310 O   0  0  0  0  0  0  0  0  0  0  0  0
    1.3400   15.4540   -4.1800 C   0  0  2  0  0  0  0  0  0  0  0  0
   -3.0400   14.5710   -2.2610 C   0  0  0  0  0  0  0  0  0  0  0  0
   -4.8360   14.7940   -3.8550 C   0  0  0  0  0  0  0  0  0  0  0  0
    0.8830   16.4990   -5.1950 C   0  0  0  0  0  0  0  0  0  0  0  0
   -3.9660   14.5930   -1.2160 C   0  0  0  0  0  0  0  0  0  0  0  0
   -5.7590   14.8220   -2.8150 C   0  0  0  0  0  0  0  0  0  0  0  0
   -5.3310   14.7200   -1.4930 C   0  0  0  0  0  0  0  0  0  0  0  0
   -6.3120   14.7460   -0.3760 C   0  0  0  0  0  0  0  0  0  0  0  0
   -5.8320   14.5710    0.8990 N   0  0  0  0  0  0  0  0  0  0  0  0
   -7.5010   14.9110   -0.6200 O   0  0  0  0  0  0  0  0  0  0  0  0
   -6.7610   14.5160    2.0020 C   0  0  0  0  0  0  0  0  0  0  0  0
  1  2  2  0
  2  3  1  1
  4  1  1  6
  2  5  2  0
  4  6  1  0
  4  7  1  0
  2  8  1  0
  7  9  1  6
  6 10  1  0
  7 11  1  0
 10 11  1  0
  8 12  2  0
  8 13  1  0
 11 14  1  6
 12 15  1  0
 13 16  2  0
 15 17  2  0
 16 17  1  0
 17 18  1  0
 18 19  1  0
 18 20  2  0
 19 21  1  0
M  END
