6WOJ_0_A_β-5CB5_0_C_δ
     RDKit          3D

 21 22  0  0  0  0  0  0  0  0999 V2000
   -1.6520   20.4970   -8.3970 O   0  0  0  0  0  0  0  0  0  0  0  0
   -0.3930   20.0500   -7.4250 P   0  0  0  0  0  0  0  0  0  0  0  0
   -0.6700   19.2060   -6.0500 O   0  0  0  0  0  0  0  0  0  0  0  0
    1.0540   20.8450   -7.6750 O   0  0  0  0  0  0  0  0  0  0  0  0
    0.0280   18.8910   -8.3580 O   0  0  0  0  0  0  0  0  0  0  0  0
   -1.3150   17.8330   -5.9520 P   0  0  0  0  0  0  0  0  0  0  0  0
    0.1930   17.2010   -6.2950 O   0  0  0  0  0  0  0  0  0  0  0  0
   -1.8070   17.7540   -4.4460 O   0  0  0  0  0  0  0  0  0  0  0  0
   -2.3460   18.2250   -7.1580 O   0  0  0  0  0  0  0  0  0  0  0  0
   -2.2960   16.4980   -4.1920 C   0  0  0  0  0  0  0  0  0  0  0  0
   -2.1640   16.0270   -2.8110 C   0  0  0  0  0  0  0  0  0  0  0  0
   -2.9720   14.8600   -2.4180 C   0  0  1  0  0  0  0  0  0  0  0  0
   -2.0640   13.8650   -1.9620 N   0  0  0  0  0  0  0  0  0  0  0  0
   -3.7940   15.1150   -1.2650 N   0  0  0  0  0  0  0  0  0  0  0  0
   -1.7410   14.2930   -0.6380 C   0  0  2  0  0  0  0  0  0  0  0  0
   -2.7040   15.4890   -0.4220 C   0  0  2  0  0  0  0  0  0  0  0  0
   -0.4550   14.8450   -0.4350 N   0  0  0  0  0  0  0  0  0  0  0  0
   -2.9190   15.6500    0.9980 C   0  0  1  0  0  0  0  0  0  0  0  0
   -4.1030   15.0780    1.5680 N   0  0  0  0  0  0  0  0  0  0  0  0
   -0.5170   15.3780    0.9270 C   0  0  0  0  0  0  0  0  0  0  0  0
   -1.7300   15.1340    1.6230 N   0  0  0  0  0  0  0  0  0  0  0  0
  1  2  1  0
  2  3  1  0
  2  4  1  0
  2  5  1  0
  3  6  1  0
  6  7  1  0
  6  8  1  0
  6  9  1  0
  8 10  1  0
 10 11  1  0
 12 11  1  1
 12 13  1  0
 12 14  1  0
 15 13  1  6
 16 14  1  6
 15 16  1  0
 15 17  1  0
 16 18  1  0
 18 19  1  1
 17 20  1  0
 18 21  1  0
 20 21  1  0
M  CHG  1   4  -1
M  END
