6WOJ_0_B_β-5CMS_0_B_γ
     RDKit          3D

 16 16  0  0  0  0  0  0  0  0999 V2000
   -1.5270   20.3620   -8.2860 O   0  0  0  0  0  0  0  0  0  0  0  0
   -0.1180   19.9310   -7.5360 P   0  0  0  0  0  0  0  0  0  0  0  0
   -0.0090   18.5690   -6.6240 O   0  0  0  0  0  0  0  0  0  0  0  0
    0.2690   19.0230   -8.6700 O   0  0  0  0  0  0  0  0  0  0  0  0
    1.1430   20.8850   -7.6500 O   0  0  0  0  0  0  0  0  0  0  0  0
   -1.3100   18.0630   -5.8720 P   0  0  0  0  0  0  0  0  0  0  0  0
   -0.4200   16.8650   -5.3640 O   0  0  0  0  0  0  0  0  0  0  0  0
   -1.5430   18.5570   -4.3000 O   0  0  0  0  0  0  0  0  0  0  0  0
   -2.4860   17.2210   -6.6160 O   0  0  0  0  0  0  0  0  0  0  0  0
   -0.7590   15.7930   -4.5380 C   0  0  2  0  0  0  0  0  0  0  0  0
    0.0320   15.6950   -3.3920 O   0  0  0  0  0  0  0  0  0  0  0  0
   -0.7030   14.4400   -5.1190 C   0  0  1  0  0  0  0  0  0  0  0  0
    0.5930   14.0310   -5.5280 O   0  0  0  0  0  0  0  0  0  0  0  0
   -0.3610   14.5020   -2.7420 C   0  0  0  0  0  0  0  0  0  0  0  0
   -1.0020   13.6350   -3.8560 C   0  0  2  0  0  0  0  0  0  0  0  0
   -0.4030   12.4010   -3.9750 O   0  0  0  0  0  0  0  0  0  0  0  0
  1  2  1  0
  2  3  1  0
  2  4  1  0
  2  5  1  0
  3  6  1  0
  6  7  1  0
  6  8  1  0
  6  9  1  0
 10  7  1  6
 10 11  1  0
 10 12  1  0
 12 13  1  1
 11 14  1  0
 12 15  1  0
 14 15  1  0
 15 16  1  6
M  CHG  2   4  -1   8  -1
M  END
