6WOJ_0_A_α-5cms_F_6_F_β
     RDKit          3D

 17 17  0  0  0  0  0  0  0  0999 V2000
   -1.4800   21.8490   -7.9350 C   0  0  0  0  0  0  0  0  0  0  0  0
   -0.6240   20.2960   -7.6780 P   0  0  2  0  0  0  0  0  0  0  0  0
   -1.2680   19.6890   -6.3600 O   0  0  0  0  0  0  0  0  0  0  0  0
   -2.9810   21.9750   -8.2100 C   0  0  1  0  0  0  0  0  0  0  0  0
    0.8500   20.4820   -7.6000 O   0  0  0  0  0  0  0  0  0  0  0  0
   -0.9840   19.1590   -8.7530 O   0  0  0  0  0  0  0  0  0  0  0  0
   -3.7620   21.1380   -7.3360 O   0  0  0  0  0  0  0  0  0  0  0  0
   -3.4910   23.4150   -7.9910 C   0  0  1  0  0  0  0  0  0  0  0  0
   -4.4430   23.8260   -8.9770 O   0  0  0  0  0  0  0  0  0  0  0  0
   -1.6460   18.1680   -6.1660 P   0  0  0  0  0  0  0  0  0  0  0  0
   -4.3320   21.9240   -6.2770 C   0  0  1  0  0  0  0  0  0  0  0  0
   -4.1100   23.4140   -6.5860 C   0  0  2  0  0  0  0  0  0  0  0  0
   -5.7130   21.6300   -6.0760 O   0  0  0  0  0  0  0  0  0  0  0  0
   -5.3730   24.1170   -6.5740 O   0  0  0  0  0  0  0  0  0  0  0  0
   -0.2660   17.3940   -6.2860 O   0  0  0  0  0  0  0  0  0  0  0  0
   -2.7320   17.6020   -6.9820 O   0  0  0  0  0  0  0  0  0  0  0  0
   -1.9030   18.0060   -4.6160 O   0  0  0  0  0  0  0  0  0  0  0  0
  1  2  1  0
  2  3  1  0
  4  1  1  1
  2  5  2  0
  2  6  1  6
  4  7  1  0
  4  8  1  0
  8  9  1  6
  3 10  1  0
  7 11  1  0
  8 12  1  0
 11 12  1  0
 11 13  1  6
 12 14  1  6
 10 15  1  0
 10 16  2  0
 10 17  1  0
M  END
