6WOJ_0_B_α-5LW0_0_A_β
     RDKit          3D

 21 21  0  0  0  0  0  0  0  0999 V2000
   -1.8680   21.9480   -8.0520 C   0  0  0  0  0  0  0  0  0  0  0  0
   -3.2420   22.2900   -7.6490 C   0  0  2  0  0  0  0  0  0  0  0  0
   -4.3130   21.5330   -8.1010 O   0  0  0  0  0  0  0  0  0  0  0  0
   -3.7620   23.6550   -7.8930 C   0  0  1  0  0  0  0  0  0  0  0  0
   -4.0090   24.0090   -9.2080 O   0  0  0  0  0  0  0  0  0  0  0  0
   -5.3770   21.9590   -7.3550 C   0  0  2  0  0  0  0  0  0  0  0  0
   -5.1140   23.5820   -7.2590 C   0  0  1  0  0  0  0  0  0  0  0  0
   -5.1350   21.6360   -6.0880 O   0  0  0  0  0  0  0  0  0  0  0  0
   -5.2610   24.0020   -6.0150 O   0  0  0  0  0  0  0  0  0  0  0  0
   -3.7360   21.9090   -5.8220 C   0  0  0  0  0  0  0  0  0  0  0  0
   -3.3120   20.5390   -5.8550 C   0  0  0  0  0  0  0  0  0  0  0  0
   -2.1130   20.0240   -5.2660 C   0  0  0  0  0  0  0  0  0  0  0  0
   -2.2710   18.6680   -4.7890 O   0  0  0  0  0  0  0  0  0  0  0  0
   -1.9760   17.5130   -5.8890 P   0  0  0  0  0  0  0  0  0  0  0  0
   -1.8730   18.5030   -7.0800 O   0  0  0  0  0  0  0  0  0  0  0  0
   -0.2790   17.1660   -5.9380 O   0  0  0  0  0  0  0  0  0  0  0  0
   -2.9960   16.6700   -6.7600 O   0  0  0  0  0  0  0  0  0  0  0  0
   -0.4340   19.0870   -7.7420 P   0  0  0  0  0  0  0  0  0  0  0  0
   -1.2240   19.7320   -8.8500 O   0  0  0  0  0  0  0  0  0  0  0  0
    0.2220   18.2110   -9.0080 O   0  0  0  0  0  0  0  0  0  0  0  0
    0.3330   20.3300   -7.2850 O   0  0  0  0  0  0  0  0  0  0  0  0
  2  1  1  6
  2  3  1  0
  2  4  1  0
  4  5  1  6
  3  6  1  0
  4  7  1  0
  6  7  1  0
  6  8  1  1
  7  9  1  1
  8 10  1  0
 10 11  1  0
 11 12  1  0
 12 13  1  0
 13 14  1  0
 14 15  1  0
 14 16  1  0
 14 17  1  0
 15 18  1  0
 18 19  1  0
 18 20  1  0
 18 21  1  0
M  CHG  2  17  -1  20  -1
M  END
