6WOJ_0_D_β-5CB5_0_F_α
     RDKit          3D

 20 20  0  0  0  0  0  0  0  0999 V2000
   -1.6260   20.7540   -8.6760 O   0  0  0  0  0  0  0  0  0  0  0  0
   -0.2570   20.1420   -8.0500 P   0  0  0  0  0  0  0  0  0  0  0  0
   -0.6580   19.7390   -6.6230 O   0  0  0  0  0  0  0  0  0  0  0  0
   -2.6370   21.3630   -8.0170 C   0  0  1  0  0  0  0  0  0  0  0  0
    1.0180   21.0400   -7.5170 O   0  0  0  0  0  0  0  0  0  0  0  0
    0.0320   18.5300   -8.4600 O   0  0  0  0  0  0  0  0  0  0  0  0
   -3.1680   22.6210   -8.6620 C   0  0  1  0  0  0  0  0  0  0  0  0
   -3.8240   20.6340   -7.8010 O   0  0  0  0  0  0  0  0  0  0  0  0
   -1.1220   18.2610   -6.0750 P   0  0  0  0  0  0  0  0  0  0  0  0
   -3.9610   22.4540   -9.7930 O   0  0  0  0  0  0  0  0  0  0  0  0
   -4.0380   22.8840   -7.5140 C   0  0  2  0  0  0  0  0  0  0  0  0
   -4.8070   21.5940   -7.5040 C   0  0  2  0  0  0  0  0  0  0  0  0
   -0.0380   17.3150   -5.2000 O   0  0  0  0  0  0  0  0  0  0  0  0
   -2.5280   17.6050   -6.5050 O   0  0  0  0  0  0  0  0  0  0  0  0
   -1.7440   18.8110   -4.8290 O   0  0  0  0  0  0  0  0  0  0  0  0
   -4.8520   23.8880   -7.8410 O   0  0  0  0  0  0  0  0  0  0  0  0
   -5.2770   21.3430   -6.1880 O   0  0  0  0  0  0  0  0  0  0  0  0
   -5.3070   24.2830   -6.6740 C   0  0  1  0  0  0  0  0  0  0  0  0
   -4.5740   25.5350   -6.2060 C   0  0  0  0  0  0  0  0  0  0  0  0
   -6.6520   24.4640   -6.9180 O   0  0  0  0  0  0  0  0  0  0  0  0
  1  2  1  0
  2  3  1  0
  4  1  1  6
  2  5  1  0
  2  6  1  0
  4  7  1  0
  4  8  1  0
  3  9  1  0
  7 10  1  6
  7 11  1  0
  8 12  1  0
 11 12  1  0
  9 13  1  0
  9 14  1  0
  9 15  1  0
 11 16  1  6
 12 17  1  1
 16 18  1  0
 18 19  1  6
 18 20  1  0
M  CHG  2   5  -1  14  -1
M  END
