6WOJ_0_D_δ-5CMS_0_P_γ
     RDKit          3D

 17 19  0  0  0  0  0  0  0  0999 V2000
   -3.8290   15.2740    1.5010 N   0  0  0  0  0  0  0  0  0  0  0  0
   -2.7430   14.5650    0.8530 C   0  0  1  0  0  0  0  0  0  0  0  0
   -2.5070   14.9730   -0.6110 C   0  0  1  0  0  0  0  0  0  0  0  0
   -1.5810   14.9060    1.6330 N   0  0  0  0  0  0  0  0  0  0  0  0
   -1.3140   14.1620   -1.1050 C   0  0  1  0  0  0  0  0  0  0  0  0
   -3.5520   14.7220   -1.6080 N   0  0  0  0  0  0  0  0  0  0  0  0
   -0.3540   14.2790    1.1550 C   0  0  0  0  0  0  0  0  0  0  0  0
   -1.3410   14.4550   -2.6530 C   0  0  1  0  0  0  0  0  0  0  0  0
   -2.8000   14.9310   -2.8670 C   0  0  0  0  0  0  0  0  0  0  0  0
   -0.1540   14.4820   -0.2800 N   0  0  0  0  0  0  0  0  0  0  0  0
   -0.4070   15.5380   -3.0150 O   0  0  0  0  0  0  0  0  0  0  0  0
   -0.9240   13.3430   -3.6540 C   0  0  1  0  0  0  0  0  0  0  0  0
   -1.9060   12.4330   -4.1110 O   0  0  0  0  0  0  0  0  0  0  0  0
   -0.3640   15.5250   -4.4550 C   0  0  2  0  0  0  0  0  0  0  0  0
   -0.2520   14.0520   -4.8380 C   0  0  1  0  0  0  0  0  0  0  0  0
    0.7280   16.4250   -5.0130 C   0  0  0  0  0  0  0  0  0  0  0  0
    1.0720   13.5620   -5.0060 O   0  0  0  0  0  0  0  0  0  0  0  0
  2  1  1  1
  2  3  1  0
  2  4  1  0
  3  5  1  0
  3  6  1  6
  4  7  1  0
  5  8  1  0
  6  9  1  0
  8  9  1  6
  5 10  1  1
  7 10  1  0
  8 11  1  0
  8 12  1  0
 12 13  1  6
 11 14  1  0
 12 15  1  0
 14 15  1  0
 14 16  1  1
 15 17  1  1
M  END
