6WOJ_0_D_Î³
     RDKit          3D

  8  8  0  0  0  0  0  0  0  0999 V2000
   -0.3060   14.2760   -3.0310 C   0  0  0  0  0  0  0  0  0  0  0  0
    0.4650   15.4540   -3.0430 O   0  0  0  0  0  0  0  0  0  0  0  0
   -0.6800   14.0160   -4.4840 C   0  0  1  0  0  0  0  0  0  0  0  0
    1.0840   15.6140   -4.3470 C   0  0  1  0  0  0  0  0  0  0  0  0
    0.6380   14.3920   -5.1620 C   0  0  1  0  0  0  0  0  0  0  0  0
   -1.0290   12.6700   -4.7240 O   0  0  0  0  0  0  0  0  0  0  0  0
    0.7120   16.9690   -4.9020 C   0  0  0  0  0  0  0  0  0  0  0  0
    1.5370   13.3070   -4.9910 O   0  0  0  0  0  0  0  0  0  0  0  0
  1  2  1  1
  1  3  1  0
  4  2  1  0
  5  3  1  0
  3  6  1  1
  4  7  1  6
  4  5  1  0
  5  8  1  1
M  END
