6woj_C_0_C_β-5CMS_0_M_β
     RDKit          3D

 10  9  0  0  0  0  0  0  0  0999 V2000
   -1.4940   20.6430   -7.9540 O   0  0  0  0  0  0  0  0  0  0  0  0
   -0.0620   19.7660   -7.6330 P   0  0  0  0  0  0  0  0  0  0  0  0
   -0.0690   19.1500   -6.1470 O   0  0  0  0  0  0  0  0  0  0  0  0
    1.0770   20.8040   -7.6410 O   0  0  0  0  0  0  0  0  0  0  0  0
    0.1710   18.6820   -8.8580 O   0  0  0  0  0  0  0  0  0  0  0  0
   -1.1190   18.0590   -5.5570 P   0  0  0  0  0  0  0  0  0  0  0  0
   -0.2180   16.7090   -5.0130 O   0  0  0  0  0  0  0  0  0  0  0  0
   -1.7050   18.7270   -4.3370 O   0  0  0  0  0  0  0  0  0  0  0  0
   -2.3530   17.4630   -6.4650 O   0  0  0  0  0  0  0  0  0  0  0  0
   -2.4880   18.1690   -7.5130 O   0  0  0  0  0  0  0  0  0  0  0  0
  1  2  1  0
  2  3  1  0
  2  4  2  0
  2  5  1  0
  3  6  1  0
  6  7  1  0
  6  8  2  0
  6  9  1  0
  9 10  1  0
M  CHG  1  10  -1
M  END
