6WOJ_0_C_α-5CMS_0_G_γ
     RDKit          3D

 24 26  0  0  0  0  0  0  0  0999 V2000
   -1.3730   21.7690   -8.1330 C   0  0  0  0  0  0  0  0  0  0  0  0
   -2.6810   22.0880   -7.4810 C   0  0  2  0  0  0  0  0  0  0  0  0
   -3.7920   21.3510   -7.9250 O   0  0  0  0  0  0  0  0  0  0  0  0
   -3.2770   23.4680   -7.4930 C   0  0  1  0  0  0  0  0  0  0  0  0
   -3.9560   23.8540   -8.7020 O   0  0  0  0  0  0  0  0  0  0  0  0
   -4.5410   21.5750   -6.7450 C   0  0  2  0  0  0  0  0  0  0  0  0
   -4.2510   23.0820   -6.3850 C   0  0  2  0  0  0  0  0  0  0  0  0
   -3.9720   20.6260   -5.8130 O   0  0  0  0  0  0  0  0  0  0  0  0
   -5.4060   23.9590   -6.4510 O   0  0  0  0  0  0  0  0  0  0  0  0
   -2.9670   19.6700   -6.3750 C   0  0  0  0  0  0  0  0  0  0  0  0
   -1.8960   19.1460   -5.3790 C   0  0  0  0  0  0  0  0  0  0  0  0
   -1.6550   17.6270   -4.9960 C   0  0  0  0  0  0  0  0  0  0  0  0
   -2.6920   16.5090   -5.2950 C   0  0  0  0  0  0  0  0  0  0  0  0
   -3.1600   15.5150   -4.1560 C   0  0  0  0  0  0  0  0  0  0  0  0
   -2.7040   15.6060   -2.6590 C   0  0  2  0  0  0  0  0  0  0  0  0
   -1.4130   14.9870   -2.3730 N   0  0  0  0  0  0  0  0  0  0  0  0
   -3.6160   15.0850   -1.5960 N   0  0  0  0  0  0  0  0  0  0  0  0
   -1.4870   14.6430   -0.9690 C   0  0  2  0  0  0  0  0  0  0  0  0
   -2.7050   15.3650   -0.4710 C   0  0  2  0  0  0  0  0  0  0  0  0
   -0.3040   14.8820   -0.2090 N   0  0  0  0  0  0  0  0  0  0  0  0
   -2.9270   14.8570    0.9680 C   0  0  2  0  0  0  0  0  0  0  0  0
   -4.0200   15.5180    1.6640 N   0  0  0  0  0  0  0  0  0  0  0  0
   -0.5190   14.5300    1.1820 C   0  0  0  0  0  0  0  0  0  0  0  0
   -1.7220   15.1720    1.6970 N   0  0  0  0  0  0  0  0  0  0  0  0
  2  1  1  6
  2  3  1  0
  2  4  1  0
  4  5  1  6
  3  6  1  0
  4  7  1  0
  6  7  1  0
  6  8  1  1
  7  9  1  6
  8 10  1  0
 10 11  1  0
 11 12  1  0
 12 13  1  0
 13 14  1  0
 15 14  1  6
 15 16  1  0
 15 17  1  0
 18 16  1  6
 19 17  1  6
 18 19  1  0
 18 20  1  0
 19 21  1  0
 21 22  1  1
 20 23  1  0
 21 24  1  0
 23 24  1  0
M  END
