6WOJ_0_B_δ-5CMS_0_P_α
     RDKit          3D

 25 27  0  0  0  0  0  0  0  0999 V2000
   -4.0520   15.2420    1.4630 N   0  0  0  0  0  0  0  0  0  0  0  0
   -2.9490   14.5430    0.8260 C   0  0  1  0  0  0  0  0  0  0  0  0
   -2.5730   15.1420   -0.5190 C   0  0  1  0  0  0  0  0  0  0  0  0
   -1.8230   14.7390    1.7160 N   0  0  0  0  0  0  0  0  0  0  0  0
   -1.4110   14.3300   -0.9860 C   0  0  1  0  0  0  0  0  0  0  0  0
   -3.4490   14.9570   -1.6790 N   0  0  0  0  0  0  0  0  0  0  0  0
   -0.5260   14.2050    1.2350 C   0  0  0  0  0  0  0  0  0  0  0  0
   -1.2400   14.7060   -2.3880 N   0  0  0  0  0  0  0  0  0  0  0  0
   -2.5040   15.4040   -2.7050 C   0  0  1  0  0  0  0  0  0  0  0  0
   -0.2540   14.4530   -0.1740 N   0  0  0  0  0  0  0  0  0  0  0  0
   -3.0380   15.1860   -4.1240 C   0  0  0  0  0  0  0  0  0  0  0  0
   -2.2070   15.8080   -5.2760 C   0  0  0  0  0  0  0  0  0  0  0  0
   -1.5080   17.1720   -5.0880 C   0  0  0  0  0  0  0  0  0  0  0  0
   -2.0770   18.2770   -5.9960 C   0  0  0  0  0  0  0  0  0  0  0  0
   -1.0770   19.0500   -6.8700 C   0  0  0  0  0  0  0  0  0  0  0  0
   -1.4710   20.5180   -7.1060 C   0  0  0  0  0  0  0  0  0  0  0  0
   -1.6080   21.0450   -8.5390 C   0  0  0  0  0  0  0  0  0  0  0  0
   -2.9310   21.7730   -8.8180 C   0  0  2  0  0  0  0  0  0  0  0  0
   -3.4510   21.6040  -10.1410 O   0  0  0  0  0  0  0  0  0  0  0  0
   -2.9170   23.2910   -8.6140 C   0  0  2  0  0  0  0  0  0  0  0  0
   -2.9860   23.7460   -7.3040 O   0  0  0  0  0  0  0  0  0  0  0  0
   -4.5000   22.5450  -10.2730 C   0  0  1  0  0  0  0  0  0  0  0  0
   -4.0650   23.7910   -9.5610 C   0  0  2  0  0  0  0  0  0  0  0  0
   -4.7400   22.9040  -11.6190 O   0  0  0  0  0  0  0  0  0  0  0  0
   -3.7960   24.7060  -10.6570 O   0  0  0  0  0  0  0  0  0  0  0  0
  2  1  1  1
  2  3  1  0
  2  4  1  0
  3  5  1  0
  3  6  1  6
  4  7  1  0
  5  8  1  6
  6  9  1  0
  8  9  1  0
  5 10  1  0
  7 10  1  0
  9 11  1  6
 11 12  1  0
 12 13  1  0
 13 14  1  0
 14 15  1  0
 15 16  1  0
 16 17  1  0
 18 17  1  6
 18 19  1  0
 18 20  1  0
 20 21  1  1
 19 22  1  0
 20 23  1  0
 22 23  1  0
 22 24  1  6
 23 25  1  6
M  END
