6WOJ_0_D_δ-5mqx_0_A_β
     RDKit          3D

 19 20  0  0  0  0  0  0  0  0999 V2000
   -3.8320   15.2870    1.6420 N   0  0  0  0  0  0  0  0  0  0  0  0
   -2.7640   14.4260    1.1770 C   0  0  1  0  0  0  0  0  0  0  0  0
   -2.8740   14.0360   -0.3040 C   0  0  2  0  0  0  0  0  0  0  0  0
   -1.5740   15.1540    1.4950 N   0  0  0  0  0  0  0  0  0  0  0  0
   -1.4940   13.9090   -1.0070 C   0  0  1  0  0  0  0  0  0  0  0  0
   -3.7340   14.8370   -1.1950 N   0  0  0  0  0  0  0  0  0  0  0  0
   -0.4190   14.3650    1.1540 C   0  0  0  0  0  0  0  0  0  0  0  0
   -1.6430   14.7220   -2.1980 N   0  0  0  0  0  0  0  0  0  0  0  0
   -3.0640   14.6890   -2.4720 C   0  0  2  0  0  0  0  0  0  0  0  0
   -0.2910   14.3080   -0.2930 N   0  0  0  0  0  0  0  0  0  0  0  0
   -3.4980   15.7490   -3.3150 N   0  0  0  0  0  0  0  0  0  0  0  0
   -2.7750   16.1900   -4.7450 P   0  0  0  0  0  0  0  0  0  0  0  0
   -2.0150   17.6120   -4.6830 O   0  0  0  0  0  0  0  0  0  0  0  0
   -1.6840   15.0780   -5.0410 O   0  0  0  0  0  0  0  0  0  0  0  0
   -3.8130   16.1030   -5.9390 O   0  0  0  0  0  0  0  0  0  0  0  0
   -2.1650   19.0290   -5.4510 P   0  0  0  0  0  0  0  0  0  0  0  0
   -2.8080   18.5540   -6.8360 O   0  0  0  0  0  0  0  0  0  0  0  0
   -2.9400   20.0970   -4.6910 O   0  0  0  0  0  0  0  0  0  0  0  0
   -0.6800   19.3820   -5.7760 O   0  0  0  0  0  0  0  0  0  0  0  0
  2  1  1  6
  2  3  1  0
  2  4  1  0
  3  5  1  0
  3  6  1  6
  4  7  1  0
  5  8  1  6
  6  9  1  0
  8  9  1  0
  5 10  1  0
  7 10  1  0
  9 11  1  6
 11 12  2  3
 12 13  1  0
 12 14  1  0
 12 15  1  0
 13 16  1  0
 16 17  1  0
 16 18  2  0
 16 19  1  0
M  END
