6WOJ_0_C_α-mac-194_0_A_α
     RDKit          3D

 26 28  0  0  0  0  0  0  0  0999 V2000
   -2.4240   21.4370   -8.0000 C   0  0  0  0  0  0  0  0  0  0  0  0
   -3.5960   22.1360   -8.6720 C   0  0  1  0  0  0  0  0  0  0  0  0
   -4.8050   21.3700   -8.5330 O   0  0  0  0  0  0  0  0  0  0  0  0
   -3.9480   23.5170   -8.1470 C   0  0  1  0  0  0  0  0  0  0  0  0
   -4.6870   24.2420   -9.1280 O   0  0  0  0  0  0  0  0  0  0  0  0
   -5.7400   22.0930   -7.7180 C   0  0  2  0  0  0  0  0  0  0  0  0
   -4.8240   23.0970   -6.9790 C   0  0  2  0  0  0  0  0  0  0  0  0
   -6.4230   21.2280   -6.7700 O   0  0  0  0  0  0  0  0  0  0  0  0
   -5.5440   24.2040   -6.4120 O   0  0  0  0  0  0  0  0  0  0  0  0
   -5.9460   21.5910   -5.5020 C   0  0  0  0  0  0  0  0  0  0  0  0
   -6.6940   21.1440   -4.0780 C   0  0  0  0  0  0  0  0  0  0  0  0
   -8.2450   19.4190   -2.8720 C   0  0  0  0  0  0  0  0  0  0  0  0
   -8.6570   17.9100   -2.1930 C   0  0  0  0  0  0  0  0  0  0  0  0
   -7.8600   16.5480   -2.0570 C   0  0  0  0  0  0  0  0  0  0  0  0
   -7.8880   15.9340   -0.7760 N   0  0  0  0  0  0  0  0  0  0  0  0
   -6.8640   15.2510   -0.4130 C   0  0  0  0  0  0  0  0  0  0  0  0
   -6.6240   14.6190    0.7510 N   0  0  0  0  0  0  0  0  0  0  0  0
   -5.6600   15.0990   -1.2880 C   0  0  0  0  0  0  0  0  0  0  0  0
   -5.5260   15.0430    1.4120 C   0  0  0  0  0  0  0  0  0  0  0  0
   -4.4390   15.1370   -0.5860 C   0  0  0  0  0  0  0  0  0  0  0  0
   -5.6960   14.9280   -2.6750 C   0  0  0  0  0  0  0  0  0  0  0  0
   -5.7150   15.2080    2.7260 N   0  0  0  0  0  0  0  0  0  0  0  0
   -4.3980   15.3130    0.8220 N   0  0  0  0  0  0  0  0  0  0  0  0
   -3.2500   15.0010   -1.3010 C   0  0  0  0  0  0  0  0  0  0  0  0
   -4.4930   14.7950   -3.3730 C   0  0  0  0  0  0  0  0  0  0  0  0
   -3.2750   14.8310   -2.6880 C   0  0  0  0  0  0  0  0  0  0  0  0
  2  1  1  1
  2  3  1  0
  2  4  1  0
  4  5  1  6
  3  6  1  0
  4  7  1  0
  6  7  1  0
  6  8  1  1
  7  9  1  6
  8 10  1  0
 10 11  1  0
 11 12  1  0
 12 13  1  0
 13 14  1  0
 14 15  1  0
 15 16  2  3
 16 17  1  0
 16 18  1  0
 17 19  1  0
 18 20  2  0
 18 21  1  0
 19 22  1  0
 19 23  2  0
 20 23  1  0
 20 24  1  0
 21 25  2  0
 24 26  2  0
 25 26  1  0
M  END
