6WOJ_0_C_α-2BFQ_1_A_δ
     RDKit          3D

 24 26  0  0  0  0  0  0  0  0999 V2000
   -1.9020   21.4140   -8.4290 C   0  0  0  0  0  0  0  0  0  0  0  0
   -2.8890   21.9920   -7.4730 C   0  0  2  0  0  0  0  0  0  0  0  0
   -4.1270   21.3270   -7.4960 O   0  0  0  0  0  0  0  0  0  0  0  0
   -3.3510   23.4280   -7.5390 C   0  0  1  0  0  0  0  0  0  0  0  0
   -4.1120   23.7930   -8.7040 O   0  0  0  0  0  0  0  0  0  0  0  0
   -4.5750   21.7610   -6.2260 C   0  0  2  0  0  0  0  0  0  0  0  0
   -4.2180   23.2960   -6.2740 C   0  0  2  0  0  0  0  0  0  0  0  0
   -3.8030   20.9720   -5.2800 O   0  0  0  0  0  0  0  0  0  0  0  0
   -5.3930   24.1280   -6.4120 O   0  0  0  0  0  0  0  0  0  0  0  0
   -2.7110   20.3000   -5.9960 C   0  0  0  0  0  0  0  0  0  0  0  0
   -1.8580   19.1650   -5.3650 C   0  0  0  0  0  0  0  0  0  0  0  0
   -2.1090   17.7180   -5.8450 C   0  0  0  0  0  0  0  0  0  0  0  0
   -1.6940   16.6950   -4.7630 C   0  0  0  0  0  0  0  0  0  0  0  0
   -2.7740   15.8370   -4.0330 C   0  0  0  0  0  0  0  0  0  0  0  0
   -2.6020   15.6730   -2.5030 C   0  0  2  0  0  0  0  0  0  0  0  0
   -1.5630   14.7250   -2.1870 N   0  0  0  0  0  0  0  0  0  0  0  0
   -3.7200   15.3520   -1.5750 N   0  0  0  0  0  0  0  0  0  0  0  0
   -1.7940   14.4330   -0.8090 C   0  0  2  0  0  0  0  0  0  0  0  0
   -2.8650   15.3880   -0.3580 C   0  0  2  0  0  0  0  0  0  0  0  0
   -0.6070   14.4590   -0.0450 N   0  0  0  0  0  0  0  0  0  0  0  0
   -3.3090   14.8410    1.0030 C   0  0  2  0  0  0  0  0  0  0  0  0
   -4.2180   15.6720    1.7690 N   0  0  0  0  0  0  0  0  0  0  0  0
   -0.8530   15.0530    1.2300 C   0  0  0  0  0  0  0  0  0  0  0  0
   -2.1290   14.6390    1.8260 N   0  0  0  0  0  0  0  0  0  0  0  0
  2  1  1  6
  2  3  1  0
  2  4  1  0
  4  5  1  6
  3  6  1  0
  4  7  1  0
  6  7  1  0
  6  8  1  1
  7  9  1  6
  8 10  1  0
 10 11  1  0
 11 12  1  0
 12 13  1  0
 13 14  1  0
 15 14  1  6
 15 16  1  0
 15 17  1  0
 18 16  1  6
 19 17  1  6
 18 19  1  0
 18 20  1  0
 19 21  1  0
 21 22  1  1
 20 23  1  0
 21 24  1  0
 23 24  1  0
M  END
