6WOJ_0_A_Î´
     RDKit          3D

 10 11  0  0  0  0  0  0  0  0999 V2000
   -1.2900   14.5030   -2.3000 N   0  0  0  0  0  0  0  0  0  0  0  0
   -1.3110   14.4660   -0.9330 C   0  0  0  0  0  0  0  0  0  0  0  0
   -2.5680   14.8250   -2.7030 C   0  0  0  0  0  0  0  0  0  0  0  0
   -0.2790   14.1900   -0.1220 N   0  0  0  0  0  0  0  0  0  0  0  0
   -2.6030   14.7650   -0.5610 C   0  0  0  0  0  0  0  0  0  0  0  0
   -3.3860   14.9850   -1.6880 N   0  0  0  0  0  0  0  0  0  0  0  0
   -0.6650   14.2550    1.1490 C   0  0  0  0  0  0  0  0  0  0  0  0
   -2.8900   14.7940    0.8140 C   0  0  0  0  0  0  0  0  0  0  0  0
   -1.8670   14.5570    1.6610 N   0  0  0  0  0  0  0  0  0  0  0  0
   -4.0810   15.0860    1.3230 N   0  0  0  0  0  0  0  0  0  0  0  0
  1  2  1  0
  1  3  1  0
  4  2  1  0
  2  5  1  0
  6  3  1  0
  7  4  1  0
  8  5  1  0
  5  6  1  0
  9  7  1  0
  9  8  1  0
  8 10  1  0
M  END
