6WOJ_0_B_δ-5cms_I_8_I_γ
     RDKit          3D

 17 19  0  0  0  0  0  0  0  0999 V2000
   -3.8810   15.2980    1.4630 N   0  0  0  0  0  0  0  0  0  0  0  0
   -2.7900   14.6060    0.8010 C   0  0  1  0  0  0  0  0  0  0  0  0
   -2.5270   15.0630   -0.6440 C   0  0  1  0  0  0  0  0  0  0  0  0
   -1.6350   14.9050    1.6100 N   0  0  0  0  0  0  0  0  0  0  0  0
   -1.3360   14.2630   -1.1630 C   0  0  1  0  0  0  0  0  0  0  0  0
   -3.5560   14.8620   -1.6660 N   0  0  0  0  0  0  0  0  0  0  0  0
   -0.4170   14.2660    1.1260 C   0  0  0  0  0  0  0  0  0  0  0  0
   -1.3310   14.6530   -2.6890 C   0  0  1  0  0  0  0  0  0  0  0  0
   -2.7790   15.1700   -2.8870 C   0  0  0  0  0  0  0  0  0  0  0  0
   -0.1830   14.5200   -0.2970 N   0  0  0  0  0  0  0  0  0  0  0  0
   -0.3590   15.7320   -2.9670 O   0  0  0  0  0  0  0  0  0  0  0  0
   -0.9550   13.6140   -3.7750 C   0  0  1  0  0  0  0  0  0  0  0  0
   -1.9900   12.8170   -4.3130 O   0  0  0  0  0  0  0  0  0  0  0  0
   -0.3350   15.8350   -4.4050 C   0  0  2  0  0  0  0  0  0  0  0  0
   -0.2580   14.3930   -4.8980 C   0  0  1  0  0  0  0  0  0  0  0  0
    0.7750   16.7370   -4.9180 C   0  0  0  0  0  0  0  0  0  0  0  0
    1.0570   13.8960   -5.1230 O   0  0  0  0  0  0  0  0  0  0  0  0
  2  1  1  1
  2  3  1  0
  2  4  1  0
  3  5  1  0
  3  6  1  6
  4  7  1  0
  5  8  1  0
  6  9  1  0
  8  9  1  6
  5 10  1  1
  7 10  1  0
  8 11  1  0
  8 12  1  0
 12 13  1  6
 11 14  1  0
 12 15  1  0
 14 15  1  0
 14 16  1  1
 15 17  1  1
M  END
