6WOJ_0_B_α-mArh-5cms_M_12_M_γ
     RDKit          3D

 22 23  0  0  0  0  0  0  0  0999 V2000
   -3.0200   21.7540   -9.0890 C   0  0  0  0  0  0  0  0  0  0  0  0
   -2.7280   22.8010   -8.0740 C   0  0  2  0  0  0  0  0  0  0  0  0
   -2.6570   22.0850   -6.8650 O   0  0  0  0  0  0  0  0  0  0  0  0
   -3.8470   23.8090   -7.8930 C   0  0  1  0  0  0  0  0  0  0  0  0
   -4.4910   24.0750   -9.1410 O   0  0  0  0  0  0  0  0  0  0  0  0
   -3.8520   22.2760   -6.1250 C   0  0  1  0  0  0  0  0  0  0  0  0
   -4.8180   23.1080   -6.9640 C   0  0  1  0  0  0  0  0  0  0  0  0
   -4.2260   20.9740   -5.7570 O   0  0  0  0  0  0  0  0  0  0  0  0
   -5.5100   24.0790   -6.1540 O   0  0  0  0  0  0  0  0  0  0  0  0
   -2.9220   20.3510   -5.6510 C   0  0  0  0  0  0  0  0  0  0  0  0
   -2.4330   19.7270   -6.9470 C   0  0  0  0  0  0  0  0  0  0  0  0
   -0.9230   19.8360   -7.1170 C   0  0  0  0  0  0  0  0  0  0  0  0
   -0.2370   18.4800   -7.2330 C   0  0  0  0  0  0  0  0  0  0  0  0
    0.5430   17.9810   -5.9960 C   0  0  0  0  0  0  0  0  0  0  0  0
   -0.2390   16.9310   -5.1870 C   0  0  0  0  0  0  0  0  0  0  0  0
    0.5880   15.7640   -4.5910 C   0  0  1  0  0  0  0  0  0  0  0  0
    0.1740   15.6330   -3.2050 O   0  0  0  0  0  0  0  0  0  0  0  0
    0.3330   14.3570   -5.1540 C   0  0  1  0  0  0  0  0  0  0  0  0
    1.3030   13.3650   -4.8650 O   0  0  0  0  0  0  0  0  0  0  0  0
   -0.7560   14.5360   -3.1000 C   0  0  0  0  0  0  0  0  0  0  0  0
   -0.9930   14.0160   -4.5070 C   0  0  2  0  0  0  0  0  0  0  0  0
   -1.2490   12.6200   -4.5780 O   0  0  0  0  0  0  0  0  0  0  0  0
  2  1  1  6
  2  3  1  0
  2  4  1  0
  4  5  1  6
  3  6  1  0
  4  7  1  0
  6  7  1  0
  6  8  1  6
  7  9  1  1
  8 10  1  0
 10 11  1  0
 11 12  1  0
 12 13  1  0
 13 14  1  0
 14 15  1  0
 16 15  1  6
 16 17  1  0
 16 18  1  0
 18 19  1  1
 17 20  1  0
 18 21  1  0
 20 21  1  0
 21 22  1  1
M  END
