6WOJ_0_B_α-4IQY_0_A_δ
     RDKit          3D

 24 26  0  0  0  0  0  0  0  0999 V2000
   -1.3380   22.5950   -7.9640 C   0  0  0  0  0  0  0  0  0  0  0  0
   -2.7690   22.6560   -7.5370 C   0  0  2  0  0  0  0  0  0  0  0  0
   -3.4710   21.4990   -7.7190 O   0  0  0  0  0  0  0  0  0  0  0  0
   -3.8050   23.7530   -7.8080 C   0  0  1  0  0  0  0  0  0  0  0  0
   -4.1560   24.0340   -9.1460 O   0  0  0  0  0  0  0  0  0  0  0  0
   -4.1190   21.9190   -6.5600 C   0  0  1  0  0  0  0  0  0  0  0  0
   -4.9860   23.0780   -7.0670 C   0  0  1  0  0  0  0  0  0  0  0  0
   -4.4820   20.7800   -5.8860 O   0  0  0  0  0  0  0  0  0  0  0  0
   -5.4620   24.0040   -6.0610 O   0  0  0  0  0  0  0  0  0  0  0  0
   -3.1350   20.3350   -5.5340 C   0  0  0  0  0  0  0  0  0  0  0  0
   -2.3450   19.3190   -6.4080 C   0  0  0  0  0  0  0  0  0  0  0  0
   -2.3680   17.7790   -6.1120 C   0  0  0  0  0  0  0  0  0  0  0  0
   -1.8540   17.2680   -4.7350 C   0  0  0  0  0  0  0  0  0  0  0  0
   -2.6180   16.0530   -4.0740 C   0  0  0  0  0  0  0  0  0  0  0  0
   -2.3860   15.6740   -2.5690 C   0  0  2  0  0  0  0  0  0  0  0  0
   -1.5560   14.5250   -2.3490 N   0  0  0  0  0  0  0  0  0  0  0  0
   -3.5410   15.4500   -1.6540 N   0  0  0  0  0  0  0  0  0  0  0  0
   -1.4670   14.6170   -0.9270 C   0  0  2  0  0  0  0  0  0  0  0  0
   -2.9100   14.7860   -0.4610 C   0  0  1  0  0  0  0  0  0  0  0  0
   -0.5450   15.6150   -0.5920 N   0  0  0  0  0  0  0  0  0  0  0  0
   -2.8600   15.6200    0.8290 C   0  0  1  0  0  0  0  0  0  0  0  0
   -4.0110   15.5070    1.7170 N   0  0  0  0  0  0  0  0  0  0  0  0
   -0.4740   15.7860    0.8050 C   0  0  0  0  0  0  0  0  0  0  0  0
   -1.6480   15.2700    1.5220 N   0  0  0  0  0  0  0  0  0  0  0  0
  2  1  1  6
  2  3  1  0
  2  4  1  0
  4  5  1  6
  3  6  1  0
  4  7  1  0
  6  7  1  0
  6  8  1  6
  7  9  1  1
  8 10  1  0
 10 11  1  0
 11 12  1  0
 12 13  1  0
 13 14  1  0
 15 14  1  6
 15 16  1  0
 15 17  1  0
 18 16  1  6
 19 17  1  6
 18 19  1  0
 18 20  1  0
 19 21  1  0
 21 22  1  1
 20 23  1  0
 21 24  1  0
 23 24  1  0
M  END
