6WOJ_0_B_α-mArh-EU0241_0_A_α
     RDKit          3D

 24 26  0  0  0  0  0  0  0  0999 V2000
   -1.5470   21.6780   -8.2250 C   0  0  0  0  0  0  0  0  0  0  0  0
   -2.8170   21.9710   -7.4810 C   0  0  2  0  0  0  0  0  0  0  0  0
   -3.6820   20.8580   -7.4860 O   0  0  0  0  0  0  0  0  0  0  0  0
   -3.8100   22.9900   -7.9740 C   0  0  2  0  0  0  0  0  0  0  0  0
   -3.3850   24.3230   -8.0440 O   0  0  0  0  0  0  0  0  0  0  0  0
   -4.5390   21.2520   -6.4270 C   0  0  2  0  0  0  0  0  0  0  0  0
   -4.8430   22.7350   -6.8710 C   0  0  1  0  0  0  0  0  0  0  0  0
   -3.7850   20.7560   -5.2740 O   0  0  0  0  0  0  0  0  0  0  0  0
   -4.8760   23.7870   -5.8990 O   0  0  0  0  0  0  0  0  0  0  0  0
   -2.5230   19.9980   -5.6310 C   0  0  0  0  0  0  0  0  0  0  0  0
   -2.3520   18.4040   -5.8570 C   0  0  0  0  0  0  0  0  0  0  0  0
   -1.7300   17.5780   -4.6400 C   0  0  0  0  0  0  0  0  0  0  0  0
   -2.1770   16.1140   -4.1120 C   0  0  0  0  0  0  0  0  0  0  0  0
   -3.4160   15.6840   -3.1750 C   0  0  0  0  0  0  0  0  0  0  0  0
   -3.4060   15.5480   -1.6260 C   0  0  0  0  0  0  0  0  0  0  0  0
   -2.2750   15.0940   -0.9000 C   0  0  0  0  0  0  0  0  0  0  0  0
   -4.3930   15.7830   -0.7570 N   0  0  0  0  0  0  0  0  0  0  0  0
   -1.0760   14.7170   -1.2320 C   0  0  0  0  0  0  0  0  0  0  0  0
   -2.6850   15.0930    0.5200 C   0  0  0  0  0  0  0  0  0  0  0  0
   -3.9210   15.4970    0.6090 N   0  0  0  0  0  0  0  0  0  0  0  0
   -0.1390   14.3020   -0.2230 C   0  0  0  0  0  0  0  0  0  0  0  0
   -1.7870   14.6910    1.4940 N   0  0  0  0  0  0  0  0  0  0  0  0
    1.0730   13.9330   -0.7250 N   0  0  0  0  0  0  0  0  0  0  0  0
   -0.5190   14.3110    1.0830 C   0  0  0  0  0  0  0  0  0  0  0  0
  2  1  1  6
  2  3  1  0
  2  4  1  0
  4  5  1  1
  3  6  1  0
  4  7  1  0
  6  7  1  0
  6  8  1  1
  7  9  1  1
  8 10  1  0
 10 11  1  0
 11 12  1  0
 12 13  1  0
 13 14  1  0
 14 15  1  0
 15 16  1  0
 15 17  2  0
 16 18  2  0
 16 19  1  0
 17 20  1  0
 19 20  2  0
 18 21  1  0
 19 22  1  0
 21 23  1  0
 21 24  2  0
 22 24  1  0
M  END
