6WOJ_0_D_β-5CMS_0_O_γ
     RDKit          3D

 16 16  0  0  0  0  0  0  0  0999 V2000
   -1.4860   20.1980   -8.1580 O   0  0  0  0  0  0  0  0  0  0  0  0
   -0.0640   19.7250   -7.4610 P   0  0  0  0  0  0  0  0  0  0  0  0
    0.0160   18.3150   -6.5860 O   0  0  0  0  0  0  0  0  0  0  0  0
    0.2990   18.9080   -8.6670 O   0  0  0  0  0  0  0  0  0  0  0  0
    1.1720   20.7190   -7.5530 O   0  0  0  0  0  0  0  0  0  0  0  0
   -1.3750   18.0290   -5.8640 P   0  0  0  0  0  0  0  0  0  0  0  0
   -1.0800   16.5970   -5.2590 O   0  0  0  0  0  0  0  0  0  0  0  0
   -1.6040   18.5850   -4.3120 O   0  0  0  0  0  0  0  0  0  0  0  0
   -2.6560   17.4980   -6.7000 O   0  0  0  0  0  0  0  0  0  0  0  0
    0.1030   15.9250   -4.8940 C   0  0  1  0  0  0  0  0  0  0  0  0
    0.2430   15.9130   -3.5060 O   0  0  0  0  0  0  0  0  0  0  0  0
    0.1720   14.4730   -5.2750 C   0  0  1  0  0  0  0  0  0  0  0  0
    1.4780   13.9890   -5.4870 O   0  0  0  0  0  0  0  0  0  0  0  0
   -0.6510   14.9150   -3.0940 C   0  0  0  0  0  0  0  0  0  0  0  0
   -0.2260   13.7460   -3.9860 C   0  0  1  0  0  0  0  0  0  0  0  0
   -1.2320   12.8720   -4.2940 O   0  0  0  0  0  0  0  0  0  0  0  0
  1  2  1  0
  2  3  1  0
  2  4  1  0
  2  5  1  0
  3  6  1  0
  6  7  1  0
  6  8  1  0
  6  9  1  0
 10  7  1  1
 10 11  1  0
 10 12  1  0
 12 13  1  1
 11 14  1  0
 12 15  1  0
 14 15  1  0
 15 16  1  6
M  CHG  2   4  -1   8  -1
M  END
