6woj_A_0_A_α-6WOJ_0_A_δ
     RDKit          3D

 24 26  0  0  0  0  0  0  0  0999 V2000
   -1.4010   22.1800   -7.9030 C   0  0  0  0  0  0  0  0  0  0  0  0
   -2.8710   22.3120   -7.5820 C   0  0  2  0  0  0  0  0  0  0  0  0
   -3.7170   21.4110   -8.2690 O   0  0  0  0  0  0  0  0  0  0  0  0
   -3.6140   23.6060   -7.8190 C   0  0  1  0  0  0  0  0  0  0  0  0
   -3.8340   23.9820   -9.1720 O   0  0  0  0  0  0  0  0  0  0  0  0
   -4.8380   21.5730   -7.4210 C   0  0  2  0  0  0  0  0  0  0  0  0
   -4.9520   23.1360   -7.2810 C   0  0  1  0  0  0  0  0  0  0  0  0
   -4.4480   20.8580   -6.2580 O   0  0  0  0  0  0  0  0  0  0  0  0
   -5.1410   23.6820   -5.9760 O   0  0  0  0  0  0  0  0  0  0  0  0
   -3.3170   19.9750   -6.5690 C   0  0  0  0  0  0  0  0  0  0  0  0
   -2.3160   19.8360   -5.4260 C   0  0  0  0  0  0  0  0  0  0  0  0
   -1.6400   18.4590   -5.0690 C   0  0  0  0  0  0  0  0  0  0  0  0
   -2.2950   17.1490   -5.5600 C   0  0  0  0  0  0  0  0  0  0  0  0
   -2.6340   15.9400   -4.5930 C   0  0  0  0  0  0  0  0  0  0  0  0
   -2.3110   15.9020   -3.0600 C   0  0  2  0  0  0  0  0  0  0  0  0
   -1.0600   15.2530   -2.6620 N   0  0  0  0  0  0  0  0  0  0  0  0
   -3.3560   15.3670   -2.1310 N   0  0  0  0  0  0  0  0  0  0  0  0
   -1.4080   14.5920   -1.4270 C   0  0  2  0  0  0  0  0  0  0  0  0
   -2.5640   15.3600   -0.8760 C   0  0  2  0  0  0  0  0  0  0  0  0
   -0.3430   14.3130   -0.5060 N   0  0  0  0  0  0  0  0  0  0  0  0
   -3.0500   14.6100    0.4010 C   0  0  2  0  0  0  0  0  0  0  0  0
   -4.0840   15.3060    1.1540 N   0  0  0  0  0  0  0  0  0  0  0  0
   -0.6240   14.7620    0.8550 C   0  0  0  0  0  0  0  0  0  0  0  0
   -1.9610   14.4120    1.3420 N   0  0  0  0  0  0  0  0  0  0  0  0
  2  1  1  6
  2  3  1  0
  2  4  1  0
  4  5  1  6
  3  6  1  0
  4  7  1  0
  6  7  1  0
  6  8  1  1
  7  9  1  1
  8 10  1  0
 10 11  1  0
 11 12  1  0
 12 13  1  0
 13 14  1  0
 15 14  1  6
 15 16  1  0
 15 17  1  0
 18 16  1  6
 19 17  1  6
 18 19  1  0
 18 20  1  0
 19 21  1  0
 21 22  1  1
 20 23  1  0
 21 24  1  0
 23 24  1  0
M  END
