6WOJ_0_D_δ-5MQX_0_A_α
     RDKit          3D

 23 25  0  0  0  0  0  0  0  0999 V2000
   -3.9720   15.1710    1.6410 N   0  0  0  0  0  0  0  0  0  0  0  0
   -2.9630   14.3630    0.9900 C   0  0  1  0  0  0  0  0  0  0  0  0
   -2.8730   14.6610   -0.5060 C   0  0  1  0  0  0  0  0  0  0  0  0
   -1.7390   14.7690    1.6610 N   0  0  0  0  0  0  0  0  0  0  0  0
   -1.5870   14.0730   -0.9990 C   0  0  1  0  0  0  0  0  0  0  0  0
   -3.7730   14.1510   -1.5510 N   0  0  0  0  0  0  0  0  0  0  0  0
   -0.4810   14.2740    1.1270 C   0  0  0  0  0  0  0  0  0  0  0  0
   -1.5840   14.5380   -2.3720 N   0  0  0  0  0  0  0  0  0  0  0  0
   -3.0180   14.6850   -2.7100 C   0  0  1  0  0  0  0  0  0  0  0  0
   -0.3890   14.5010   -0.3110 N   0  0  0  0  0  0  0  0  0  0  0  0
   -3.4010   14.0880   -4.0900 C   0  0  0  0  0  0  0  0  0  0  0  0
   -4.8360   14.3430   -4.6190 C   0  0  0  0  0  0  0  0  0  0  0  0
   -4.9000   14.9190   -6.0590 C   0  0  0  0  0  0  0  0  0  0  0  0
   -6.2730   14.8190   -6.7510 C   0  0  0  0  0  0  0  0  0  0  0  0
   -6.9930   16.0590   -6.6920 O   0  0  0  0  0  0  0  0  0  0  0  0
   -6.7030   16.9390   -7.7800 C   0  0  2  0  0  0  0  0  0  0  0  0
   -5.9990   18.0840   -7.3010 O   0  0  0  0  0  0  0  0  0  0  0  0
   -8.0160   17.4290   -8.4350 C   0  0  2  0  0  0  0  0  0  0  0  0
   -8.3420   16.8260   -9.6710 O   0  0  0  0  0  0  0  0  0  0  0  0
   -6.5020   19.2500   -7.9650 C   0  0  1  0  0  0  0  0  0  0  0  0
   -7.8580   18.9330   -8.6370 C   0  0  1  0  0  0  0  0  0  0  0  0
   -5.9740   20.5710   -7.3960 C   0  0  0  0  0  0  0  0  0  0  0  0
   -7.8400   19.2130  -10.0260 O   0  0  0  0  0  0  0  0  0  0  0  0
  2  1  1  1
  2  3  1  0
  2  4  1  0
  3  5  1  0
  3  6  1  6
  4  7  1  0
  5  8  1  6
  6  9  1  0
  8  9  1  0
  5 10  1  0
  7 10  1  0
  9 11  1  6
 11 12  1  0
 12 13  1  0
 13 14  1  0
 14 15  1  0
 16 15  1  1
 16 17  1  0
 16 18  1  0
 18 19  1  6
 17 20  1  0
 18 21  1  0
 20 21  1  0
 20 22  1  1
 21 23  1  6
M  END
