
     RDKit          3D

 36 39  0  0  0  0  0  0  0  0999 V2000
   -1.4250   18.1420   -5.8160 P   0  0  0  0  0  0  0  0  0  0  0  0
    0.0260   19.7620   -7.7630 P   0  0  0  0  0  0  0  0  0  0  0  0
    0.8040   16.9900   -5.0290 C   0  0  0  0  0  0  0  0  0  0  0  0
   -0.4110   16.8920   -5.8140 O   0  0  0  0  0  0  0  0  0  0  0  0
    1.1240   15.6560   -4.3940 C   0  0  1  0  0  0  0  0  0  0  0  0
    0.4400   15.5400   -3.1210 O   0  0  0  0  0  0  0  0  0  0  0  0
    0.7020   14.4140   -5.1920 C   0  0  1  0  0  0  0  0  0  0  0  0
    1.6240   13.3670   -4.9710 O   0  0  0  0  0  0  0  0  0  0  0  0
   -0.6290   14.0410   -4.5410 C   0  0  1  0  0  0  0  0  0  0  0  0
   -0.9550   12.6870   -4.7550 O   0  0  0  0  0  0  0  0  0  0  0  0
   -0.2960   14.3360   -3.0870 C   0  0  2  0  0  0  0  0  0  0  0  0
   -4.8310   21.9730   -6.7930 C   0  0  1  0  0  0  0  0  0  0  0  0
   -1.6840   14.4610    1.8040 N   0  0  0  0  0  0  0  0  0  0  0  0
   -1.8010   18.4670   -4.4050 O   0  0  0  0  0  0  0  0  0  0  0  0
    1.1230   20.7550   -7.5840 O   0  0  0  0  0  0  0  0  0  0  0  0
   -5.1840   21.3420   -5.6100 O   0  0  0  0  0  0  0  0  0  0  0  0
   -0.5400   14.1560    1.1920 C   0  0  0  0  0  0  0  0  0  0  0  0
   -4.2260   23.3570   -6.5530 C   0  0  2  0  0  0  0  0  0  0  0  0
   -2.4840   17.8530   -6.8230 O   0  0  0  0  0  0  0  0  0  0  0  0
    0.2490   18.4850   -8.4970 O   0  0  0  0  0  0  0  0  0  0  0  0
   -5.1950   24.3620   -6.3740 O   0  0  0  0  0  0  0  0  0  0  0  0
   -3.4450   23.5800   -7.8370 C   0  0  2  0  0  0  0  0  0  0  0  0
   -0.2610   14.1320   -0.1060 N   0  0  0  0  0  0  0  0  0  0  0  0
   -0.5110   19.3560   -6.3160 O   0  0  0  0  0  0  0  0  0  0  0  0
   -4.3150   24.0370   -8.8640 O   0  0  0  0  0  0  0  0  0  0  0  0
   -1.3380   14.4640   -0.8280 C   0  0  0  0  0  0  0  0  0  0  0  0
   -2.9650   22.1620   -8.1720 C   0  0  2  0  0  0  0  0  0  0  0  0
   -3.8120   21.2570   -7.4320 O   0  0  0  0  0  0  0  0  0  0  0  0
   -2.5860   14.7910   -0.3560 C   0  0  0  0  0  0  0  0  0  0  0  0
   -1.5390   21.8240   -7.8260 C   0  0  0  0  0  0  0  0  0  0  0  0
   -1.2290   20.5260   -8.3910 O   0  0  0  0  0  0  0  0  0  0  0  0
   -2.7600   14.7720    1.0390 C   0  0  0  0  0  0  0  0  0  0  0  0
   -3.8970   15.0850    1.6440 N   0  0  0  0  0  0  0  0  0  0  0  0
   -3.4420   15.0790   -1.4130 N   0  0  0  0  0  0  0  0  0  0  0  0
   -2.7060   14.9310   -2.4890 C   0  0  0  0  0  0  0  0  0  0  0  0
   -1.4090   14.5430   -2.1910 N   0  0  0  0  0  0  0  0  0  0  0  0
  1  4  1  0
  1 14  1  0
  1 19  1  0
  1 24  1  0
  4  3  1  0
 24  2  1  0
  2 15  1  0
  2 20  1  0
  2 31  1  0
 31 30  1  0
  5  3  1  6
  5  6  1  0
  5  7  1  0
  6 11  1  0
  7  8  1  1
  7  9  1  0
 11  9  1  0
 11 36  1  1
  9 10  1  1
 36 26  1  0
 36 35  1  0
 12 16  1  1
 12 18  1  0
 12 28  1  0
 18 21  1  6
 18 22  1  0
 28 27  1  0
 13 17  1  0
 13 32  1  0
 17 23  1  0
 32 29  1  0
 32 33  1  0
 23 26  1  0
 22 25  1  6
 22 27  1  0
 27 30  1  1
 26 29  1  0
 29 34  1  0
 34 35  1  0
M  CHG  2  14  -1  15  -1
M  END
