6WOJ_0_D_α-5L9K_0_A_γ
     RDKit          3D

 21 22  0  0  0  0  0  0  0  0999 V2000
   -1.4550   22.0500   -7.9960 C   0  0  0  0  0  0  0  0  0  0  0  0
   -2.8660   22.2670   -7.5020 C   0  0  2  0  0  0  0  0  0  0  0  0
   -3.7760   21.2770   -7.9540 O   0  0  0  0  0  0  0  0  0  0  0  0
   -3.5990   23.5850   -7.7550 C   0  0  1  0  0  0  0  0  0  0  0  0
   -3.8370   23.9490   -9.1090 O   0  0  0  0  0  0  0  0  0  0  0  0
   -4.9260   21.6300   -7.2030 C   0  0  2  0  0  0  0  0  0  0  0  0
   -4.9560   23.1970   -7.2140 C   0  0  1  0  0  0  0  0  0  0  0  0
   -4.7800   21.0910   -5.8860 O   0  0  0  0  0  0  0  0  0  0  0  0
   -5.1770   23.8360   -5.9530 O   0  0  0  0  0  0  0  0  0  0  0  0
   -3.3770   20.8490   -5.5680 C   0  0  0  0  0  0  0  0  0  0  0  0
   -2.6640   19.6600   -6.2890 C   0  0  0  0  0  0  0  0  0  0  0  0
   -1.8470   18.6640   -5.4060 C   0  0  0  0  0  0  0  0  0  0  0  0
   -0.5940   18.0470   -6.0710 C   0  0  0  0  0  0  0  0  0  0  0  0
    0.0780   16.8740   -5.2870 C   0  0  0  0  0  0  0  0  0  0  0  0
   -0.8920   15.8800   -4.6120 C   0  0  2  0  0  0  0  0  0  0  0  0
   -0.5820   15.7120   -3.2090 O   0  0  0  0  0  0  0  0  0  0  0  0
   -0.9290   14.4010   -5.0150 C   0  0  1  0  0  0  0  0  0  0  0  0
    0.2670   13.6840   -4.7150 O   0  0  0  0  0  0  0  0  0  0  0  0
   -1.4590   14.6500   -2.7600 C   0  0  0  0  0  0  0  0  0  0  0  0
   -2.0220   14.0090   -4.0340 C   0  0  2  0  0  0  0  0  0  0  0  0
   -2.1130   12.5840   -3.9510 O   0  0  0  0  0  0  0  0  0  0  0  0
  2  1  1  6
  2  3  1  0
  2  4  1  0
  4  5  1  6
  3  6  1  0
  4  7  1  0
  6  7  1  0
  6  8  1  1
  7  9  1  1
  8 10  1  0
 10 11  1  0
 11 12  1  0
 12 13  1  0
 13 14  1  0
 15 14  1  6
 15 16  1  0
 15 17  1  0
 17 18  1  1
 16 19  1  0
 17 20  1  0
 19 20  1  0
 20 21  1  1
M  END
