6WOJ_0_C_Î±
     RDKit          3D

  9  9  0  0  0  0  0  0  0  0999 V2000
   -1.5390   21.8240   -7.8260 C   0  0  0  0  0  0  0  0  0  0  0  0
   -2.9650   22.1620   -8.1720 C   0  0  1  0  0  0  0  0  0  0  0  0
   -3.8120   21.2570   -7.4320 O   0  0  0  0  0  0  0  0  0  0  0  0
   -3.4450   23.5800   -7.8370 C   0  0  2  0  0  0  0  0  0  0  0  0
   -4.8310   21.9730   -6.7930 C   0  0  2  0  0  0  0  0  0  0  0  0
   -4.2260   23.3570   -6.5530 C   0  0  2  0  0  0  0  0  0  0  0  0
   -4.3150   24.0370   -8.8640 O   0  0  0  0  0  0  0  0  0  0  0  0
   -5.1840   21.3420   -5.6100 O   0  0  0  0  0  0  0  0  0  0  0  0
   -5.1950   24.3620   -6.3740 O   0  0  0  0  0  0  0  0  0  0  0  0
  2  1  1  1
  3  2  1  0
  4  2  1  0
  5  3  1  0
  6  4  1  0
  4  7  1  6
  5  8  1  1
  5  6  1  0
  6  9  1  6
M  END
