6WOJ_0_B_α-5cb5_O_0_O_β
     RDKit          3D

 17 17  0  0  0  0  0  0  0  0999 V2000
   -1.6640   21.5700   -7.2700 C   0  0  0  0  0  0  0  0  0  0  0  0
   -0.4930   20.2730   -7.7310 P   0  0  2  0  0  0  0  0  0  0  0  0
   -0.4150   19.2180   -6.5440 O   0  0  0  0  0  0  0  0  0  0  0  0
   -2.9200   21.9380   -8.0610 C   0  0  1  0  0  0  0  0  0  0  0  0
    0.8470   20.8160   -8.0200 O   0  0  0  0  0  0  0  0  0  0  0  0
   -1.0420   19.2700   -8.8480 O   0  0  0  0  0  0  0  0  0  0  0  0
   -4.0220   21.1970   -7.5440 O   0  0  0  0  0  0  0  0  0  0  0  0
   -3.3990   23.3990   -7.8640 C   0  0  1  0  0  0  0  0  0  0  0  0
   -4.2640   23.8590   -8.9090 O   0  0  0  0  0  0  0  0  0  0  0  0
   -1.6100   18.2810   -6.0720 P   0  0  0  0  0  0  0  0  0  0  0  0
   -4.4600   21.8550   -6.3510 C   0  0  1  0  0  0  0  0  0  0  0  0
   -4.1500   23.3540   -6.5230 C   0  0  2  0  0  0  0  0  0  0  0  0
   -5.8330   21.6060   -6.1200 O   0  0  0  0  0  0  0  0  0  0  0  0
   -5.3880   24.1010   -6.5730 O   0  0  0  0  0  0  0  0  0  0  0  0
   -0.9180   17.0650   -5.3200 O   0  0  0  0  0  0  0  0  0  0  0  0
   -2.6080   17.8410   -7.0680 O   0  0  0  0  0  0  0  0  0  0  0  0
   -2.2330   19.1220   -4.8710 O   0  0  0  0  0  0  0  0  0  0  0  0
  1  2  1  0
  2  3  1  0
  4  1  1  1
  2  5  2  0
  2  6  1  6
  4  7  1  0
  4  8  1  0
  8  9  1  6
  3 10  1  0
  7 11  1  0
  8 12  1  0
 11 12  1  0
 11 13  1  6
 12 14  1  6
 10 15  1  0
 10 16  2  0
 10 17  1  0
M  END
