6WOJ_0_D_β-5DUS_0_A_β
     RDKit          3D

  9  8  0  0  0  0  0  0  0  0999 V2000
   -1.6430   20.6070   -7.7870 O   0  0  0  0  0  0  0  0  0  0  0  0
   -0.1590   19.9920   -7.8840 P   0  0  0  0  0  0  0  0  0  0  0  0
   -0.1010   19.1610   -6.6370 O   0  0  0  0  0  0  0  0  0  0  0  0
    1.1650   20.8910   -7.4570 O   0  0  0  0  0  0  0  0  0  0  0  0
    0.0740   18.6010   -8.7910 O   0  0  0  0  0  0  0  0  0  0  0  0
   -1.3590   18.4420   -5.8880 P   0  0  0  0  0  0  0  0  0  0  0  0
   -0.5420   17.1980   -5.5670 O   0  0  0  0  0  0  0  0  0  0  0  0
   -1.6050   18.7230   -4.3220 O   0  0  0  0  0  0  0  0  0  0  0  0
   -2.5340   17.6470   -6.7530 O   0  0  0  0  0  0  0  0  0  0  0  0
  1  2  1  0
  2  3  1  0
  2  4  1  0
  2  5  1  0
  3  6  1  0
  6  7  1  0
  6  8  1  0
  6  9  1  0
M  CHG  2   4  -1   8  -1
M  END
