6WOJ_0_D_γ-5CB5_0_K_α
     RDKit          3D

 21 22  0  0  0  0  0  0  0  0999 V2000
   -0.5910   12.2380   -4.3760 O   0  0  0  0  0  0  0  0  0  0  0  0
   -0.6370   13.6500   -4.2760 C   0  0  1  0  0  0  0  0  0  0  0  0
   -0.2560   14.1970   -2.9010 C   0  0  0  0  0  0  0  0  0  0  0  0
    0.4050   14.3410   -5.1310 C   0  0  2  0  0  0  0  0  0  0  0  0
    1.6840   13.7550   -4.8930 O   0  0  0  0  0  0  0  0  0  0  0  0
    0.3300   15.5000   -3.1380 O   0  0  0  0  0  0  0  0  0  0  0  0
    0.1260   15.7160   -4.5460 C   0  0  1  0  0  0  0  0  0  0  0  0
    0.8480   16.9580   -5.0650 C   0  0  0  0  0  0  0  0  0  0  0  0
   -0.1110   18.0800   -5.4930 C   0  0  0  0  0  0  0  0  0  0  0  0
    0.2200   18.8180   -6.8060 C   0  0  0  0  0  0  0  0  0  0  0  0
   -1.0510   19.2480   -7.5700 C   0  0  0  0  0  0  0  0  0  0  0  0
   -1.7950   20.5020   -7.0820 C   0  0  0  0  0  0  0  0  0  0  0  0
   -1.7950   21.6710   -8.0920 C   0  0  0  0  0  0  0  0  0  0  0  0
   -3.1890   22.0410   -8.6580 C   0  0  1  0  0  0  0  0  0  0  0  0
   -4.1890   21.2620   -8.0370 O   0  0  0  0  0  0  0  0  0  0  0  0
   -3.6710   23.4740   -8.4060 C   0  0  1  0  0  0  0  0  0  0  0  0
   -4.4790   24.0020   -9.4530 O   0  0  0  0  0  0  0  0  0  0  0  0
   -4.5120   21.8930   -6.8070 C   0  0  1  0  0  0  0  0  0  0  0  0
   -4.4220   23.3940   -7.0660 C   0  0  2  0  0  0  0  0  0  0  0  0
   -5.8240   21.5390   -6.3740 O   0  0  0  0  0  0  0  0  0  0  0  0
   -5.7100   24.0170   -7.1170 O   0  0  0  0  0  0  0  0  0  0  0  0
  2  1  1  1
  2  3  1  0
  2  4  1  0
  4  5  1  1
  3  6  1  0
  4  7  1  0
  6  7  1  0
  7  8  1  6
  8  9  1  0
  9 10  1  0
 10 11  1  0
 11 12  1  0
 12 13  1  0
 14 13  1  1
 14 15  1  0
 14 16  1  0
 16 17  1  6
 15 18  1  0
 16 19  1  0
 18 19  1  0
 18 20  1  6
 19 21  1  6
M  END
