6woj_B_0_B_γ-5CMS_0_H_α
     RDKit          3D

 21 22  0  0  0  0  0  0  0  0999 V2000
   -0.4850   12.3150   -4.6190 O   0  0  0  0  0  0  0  0  0  0  0  0
   -0.6590   13.7090   -4.4600 C   0  0  1  0  0  0  0  0  0  0  0  0
   -0.5880   14.1590   -3.0060 C   0  0  0  0  0  0  0  0  0  0  0  0
    0.4610   14.5510   -5.0500 C   0  0  2  0  0  0  0  0  0  0  0  0
    1.7190   14.0070   -4.6330 O   0  0  0  0  0  0  0  0  0  0  0  0
   -0.1050   15.5140   -3.0380 O   0  0  0  0  0  0  0  0  0  0  0  0
   -0.0070   15.8690   -4.4300 C   0  0  1  0  0  0  0  0  0  0  0  0
    0.7870   17.1730   -4.5050 C   0  0  0  0  0  0  0  0  0  0  0  0
    0.9500   17.8900   -5.8560 C   0  0  0  0  0  0  0  0  0  0  0  0
   -0.3300   18.4910   -6.4830 C   0  0  0  0  0  0  0  0  0  0  0  0
   -0.0490   19.3070   -7.7710 C   0  0  0  0  0  0  0  0  0  0  0  0
   -1.1930   20.2050   -8.2860 C   0  0  0  0  0  0  0  0  0  0  0  0
   -0.9350   21.7000   -8.1100 C   0  0  0  0  0  0  0  0  0  0  0  0
   -1.6310   22.6970   -9.0720 C   0  0  2  0  0  0  0  0  0  0  0  0
   -2.5950   22.1560  -10.0060 O   0  0  0  0  0  0  0  0  0  0  0  0
   -0.6840   23.5550   -9.9390 C   0  0  1  0  0  0  0  0  0  0  0  0
    0.5750   22.9850  -10.2420 O   0  0  0  0  0  0  0  0  0  0  0  0
   -2.8890   23.3790  -10.6730 C   0  0  1  0  0  0  0  0  0  0  0  0
   -1.5150   23.7980  -11.1810 C   0  0  1  0  0  0  0  0  0  0  0  0
   -3.8410   23.2650  -11.7040 O   0  0  0  0  0  0  0  0  0  0  0  0
   -1.4070   25.1380  -11.6580 O   0  0  0  0  0  0  0  0  0  0  0  0
  2  1  1  1
  2  3  1  0
  2  4  1  0
  4  5  1  1
  3  6  1  0
  4  7  1  0
  6  7  1  0
  7  8  1  1
  8  9  1  0
  9 10  1  0
 10 11  1  0
 11 12  1  0
 12 13  1  0
 14 13  1  6
 14 15  1  0
 14 16  1  0
 16 17  1  6
 15 18  1  0
 16 19  1  0
 18 19  1  0
 18 20  1  6
 19 21  1  1
M  END
