6WOJ_0_A_β-mArh-5cms_Q_16_Q_γ
     RDKit          3D

 16 16  0  0  0  0  0  0  0  0999 V2000
   -1.5000   20.1650   -8.1060 O   0  0  0  0  0  0  0  0  0  0  0  0
   -0.0590   19.6880   -7.4490 P   0  0  0  0  0  0  0  0  0  0  0  0
    0.0250   18.2580   -6.5960 O   0  0  0  0  0  0  0  0  0  0  0  0
    0.2870   18.8890   -8.6720 O   0  0  0  0  0  0  0  0  0  0  0  0
    1.1620   20.6910   -7.5580 O   0  0  0  0  0  0  0  0  0  0  0  0
   -1.3770   18.0000   -5.8780 P   0  0  0  0  0  0  0  0  0  0  0  0
   -1.1500   16.5390   -5.3050 O   0  0  0  0  0  0  0  0  0  0  0  0
   -1.6000   18.5450   -4.3210 O   0  0  0  0  0  0  0  0  0  0  0  0
   -2.6680   17.5330   -6.7290 O   0  0  0  0  0  0  0  0  0  0  0  0
   -0.0240   15.8280   -4.8500 C   0  0  1  0  0  0  0  0  0  0  0  0
   -0.0100   15.7780   -3.4580 O   0  0  0  0  0  0  0  0  0  0  0  0
    0.0420   14.3770   -5.2350 C   0  0  1  0  0  0  0  0  0  0  0  0
    1.3380   13.8200   -5.1680 O   0  0  0  0  0  0  0  0  0  0  0  0
   -1.0180   14.8500   -3.1450 C   0  0  0  0  0  0  0  0  0  0  0  0
   -0.6880   13.6780   -4.0810 C   0  0  1  0  0  0  0  0  0  0  0  0
   -1.7900   13.0470   -4.5980 O   0  0  0  0  0  0  0  0  0  0  0  0
  1  2  1  0
  2  3  1  0
  2  4  1  0
  2  5  1  0
  3  6  1  0
  6  7  1  0
  6  8  1  0
  6  9  1  0
 10  7  1  1
 10 11  1  0
 10 12  1  0
 12 13  1  1
 11 14  1  0
 12 15  1  0
 14 15  1  0
 15 16  1  6
M  CHG  2   4  -1   8  -1
M  END
