6woj_D_0_D_γ-5CMS_0_L_γ
     RDKit          3D

  9  9  0  0  0  0  0  0  0  0999 V2000
   -1.0020   12.5800   -4.4210 O   0  0  0  0  0  0  0  0  0  0  0  0
   -0.6130   13.9570   -4.3250 C   0  0  1  0  0  0  0  0  0  0  0  0
   -0.4200   14.4150   -2.8890 C   0  0  0  0  0  0  0  0  0  0  0  0
    0.8020   14.1330   -4.8530 C   0  0  0  0  0  0  0  0  0  0  0  0
    1.5950   13.0440   -4.4340 O   0  0  0  0  0  0  0  0  0  0  0  0
    0.8160   14.1020   -6.2430 O   0  0  0  0  0  0  0  0  0  0  0  0
    0.4800   15.5450   -2.9530 O   0  0  0  0  0  0  0  0  0  0  0  0
    1.1700   15.4960   -4.2290 C   0  0  2  0  0  0  0  0  0  0  0  0
    0.7960   16.7400   -5.0240 C   0  0  0  0  0  0  0  0  0  0  0  0
  2  1  1  1
  2  3  1  0
  2  4  1  0
  4  5  1  0
  4  6  1  0
  3  7  1  0
  4  8  1  0
  7  8  1  0
  8  9  1  6
M  END
