6woj_A_0_A_γ-x0962_3_A_α
     RDKit          3D

 17 18  0  0  0  0  0  0  0  0999 V2000
   -0.4920   12.2950   -4.2760 O   0  0  0  0  0  0  0  0  0  0  0  0
   -0.5360   13.7220   -4.2990 C   0  0  1  0  0  0  0  0  0  0  0  0
   -0.2400   14.3420   -2.9240 C   0  0  0  0  0  0  0  0  0  0  0  0
    0.6110   14.3320   -5.0810 C   0  0  2  0  0  0  0  0  0  0  0  0
    1.8790   13.9430   -4.5370 O   0  0  0  0  0  0  0  0  0  0  0  0
    0.2960   15.6550   -3.2080 O   0  0  0  0  0  0  0  0  0  0  0  0
    0.2340   15.7430   -4.6440 C   0  0  1  0  0  0  0  0  0  0  0  0
    0.9820   16.9360   -5.1910 C   0  0  0  0  0  0  0  0  0  0  0  0
    2.0490   12.5400   -4.3580 C   0  0  0  0  0  0  0  0  0  0  0  0
    2.7430   12.0150   -5.5910 C   0  0  0  0  0  0  0  0  0  0  0  0
    1.7820   11.6500   -6.6600 C   0  0  0  0  0  0  0  0  0  0  0  0
    0.9710   11.1410   -7.3780 C   0  0  0  0  0  0  0  0  0  0  0  0
   -0.0130   10.2830   -7.9020 C   0  0  0  0  0  0  0  0  0  0  0  0
    0.1700    9.2660   -8.8050 N   0  0  0  0  0  0  0  0  0  0  0  0
   -1.3440   10.2530   -7.5900 C   0  0  0  0  0  0  0  0  0  0  0  0
   -1.0450    8.6700   -8.9870 C   0  0  0  0  0  0  0  0  0  0  0  0
   -1.9800    9.2470   -8.2640 N   0  0  0  0  0  0  0  0  0  0  0  0
  2  1  1  1
  2  3  1  0
  2  4  1  0
  4  5  1  1
  3  6  1  0
  4  7  1  0
  6  7  1  0
  7  8  1  6
  5  9  1  0
  9 10  1  0
 10 11  1  0
 11 12  3  0
 12 13  1  0
 13 14  1  0
 13 15  2  0
 14 16  1  0
 15 17  1  0
 16 17  2  0
M  END
