6woj_D_0_D_α-5CB5_0_R_δ
     RDKit          3D

 24 26  0  0  0  0  0  0  0  0999 V2000
   -1.7630   21.6200   -8.5430 C   0  0  0  0  0  0  0  0  0  0  0  0
   -2.8620   22.0850   -7.6430 C   0  0  2  0  0  0  0  0  0  0  0  0
   -4.0810   21.4140   -7.8560 O   0  0  0  0  0  0  0  0  0  0  0  0
   -3.3560   23.5060   -7.6390 C   0  0  1  0  0  0  0  0  0  0  0  0
   -4.0900   23.8960   -8.8120 O   0  0  0  0  0  0  0  0  0  0  0  0
   -4.6730   21.7610   -6.6140 C   0  0  2  0  0  0  0  0  0  0  0  0
   -4.2590   23.2610   -6.4190 C   0  0  2  0  0  0  0  0  0  0  0  0
   -4.0330   20.8790   -5.6780 O   0  0  0  0  0  0  0  0  0  0  0  0
   -5.3850   24.1670   -6.4350 O   0  0  0  0  0  0  0  0  0  0  0  0
   -2.8280   20.2980   -6.2760 C   0  0  0  0  0  0  0  0  0  0  0  0
   -1.9700   19.2610   -5.5220 C   0  0  0  0  0  0  0  0  0  0  0  0
   -2.1030   17.7680   -5.8920 C   0  0  0  0  0  0  0  0  0  0  0  0
   -1.6140   16.8870   -4.7160 C   0  0  0  0  0  0  0  0  0  0  0  0
   -2.6110   15.9070   -4.0300 C   0  0  0  0  0  0  0  0  0  0  0  0
   -2.3790   15.5250   -2.5350 C   0  0  2  0  0  0  0  0  0  0  0  0
   -1.5920   14.3340   -2.3760 N   0  0  0  0  0  0  0  0  0  0  0  0
   -3.5480   15.3090   -1.6600 N   0  0  0  0  0  0  0  0  0  0  0  0
   -1.5800   14.1470   -0.9510 C   0  0  2  0  0  0  0  0  0  0  0  0
   -2.9730   14.5840   -0.4790 C   0  0  1  0  0  0  0  0  0  0  0  0
   -0.3980   14.7840   -0.4260 N   0  0  0  0  0  0  0  0  0  0  0  0
   -2.8210   15.4380    0.7930 C   0  0  1  0  0  0  0  0  0  0  0  0
   -4.0060   15.5000    1.6370 N   0  0  0  0  0  0  0  0  0  0  0  0
   -0.4760   15.3020    0.9150 C   0  0  0  0  0  0  0  0  0  0  0  0
   -1.7170   14.9430    1.5620 N   0  0  0  0  0  0  0  0  0  0  0  0
  2  1  1  6
  2  3  1  0
  2  4  1  0
  4  5  1  6
  3  6  1  0
  4  7  1  0
  6  7  1  0
  6  8  1  1
  7  9  1  6
  8 10  1  0
 10 11  1  0
 11 12  1  0
 12 13  1  0
 13 14  1  0
 15 14  1  6
 15 16  1  0
 15 17  1  0
 18 16  1  6
 19 17  1  6
 18 19  1  0
 18 20  1  0
 19 21  1  0
 21 22  1  1
 20 23  1  0
 21 24  1  0
 23 24  1  0
M  END
