6woj_A_0_A_α-5cms_J_9_J_γ
     RDKit          3D

 22 23  0  0  0  0  0  0  0  0999 V2000
   -3.0030   21.7440   -9.1250 C   0  0  0  0  0  0  0  0  0  0  0  0
   -2.6990   22.8180   -8.1440 C   0  0  2  0  0  0  0  0  0  0  0  0
   -2.6140   22.1420   -6.9100 O   0  0  0  0  0  0  0  0  0  0  0  0
   -3.8190   23.8250   -7.9760 C   0  0  1  0  0  0  0  0  0  0  0  0
   -4.4760   24.0760   -9.2220 O   0  0  0  0  0  0  0  0  0  0  0  0
   -3.8370   22.2900   -6.2070 C   0  0  1  0  0  0  0  0  0  0  0  0
   -4.7910   23.1420   -7.0360 C   0  0  1  0  0  0  0  0  0  0  0  0
   -4.2280   20.9750   -5.9260 O   0  0  0  0  0  0  0  0  0  0  0  0
   -5.4660   24.1110   -6.2070 O   0  0  0  0  0  0  0  0  0  0  0  0
   -2.9410   20.3700   -5.6970 C   0  0  0  0  0  0  0  0  0  0  0  0
   -2.2800   19.6760   -6.8810 C   0  0  0  0  0  0  0  0  0  0  0  0
   -0.7810   19.6530   -6.6310 C   0  0  0  0  0  0  0  0  0  0  0  0
   -0.0700   18.4090   -7.1020 C   0  0  0  0  0  0  0  0  0  0  0  0
    0.6950   17.7070   -5.9630 C   0  0  0  0  0  0  0  0  0  0  0  0
   -0.1880   16.7470   -5.1680 C   0  0  0  0  0  0  0  0  0  0  0  0
    0.5320   15.5290   -4.5530 C   0  0  1  0  0  0  0  0  0  0  0  0
    0.0410   15.4330   -3.1920 O   0  0  0  0  0  0  0  0  0  0  0  0
    0.1990   14.1470   -5.1290 C   0  0  1  0  0  0  0  0  0  0  0  0
    1.0260   13.0660   -4.7220 O   0  0  0  0  0  0  0  0  0  0  0  0
   -1.0040   14.4400   -3.1620 C   0  0  0  0  0  0  0  0  0  0  0  0
   -1.2000   13.9630   -4.5920 C   0  0  2  0  0  0  0  0  0  0  0  0
   -1.5980   12.6090   -4.7200 O   0  0  0  0  0  0  0  0  0  0  0  0
  2  1  1  6
  2  3  1  0
  2  4  1  0
  4  5  1  6
  3  6  1  0
  4  7  1  0
  6  7  1  0
  6  8  1  6
  7  9  1  1
  8 10  1  0
 10 11  1  0
 11 12  1  0
 12 13  1  0
 13 14  1  0
 14 15  1  0
 16 15  1  6
 16 17  1  0
 16 18  1  0
 18 19  1  1
 17 20  1  0
 18 21  1  0
 20 21  1  0
 21 22  1  1
M  END
