6WOJ_0_A_γ-5L9K_0_B_γ
     RDKit          3D

  9  9  0  0  0  0  0  0  0  0999 V2000
   -0.9340   12.5620   -5.1220 O   0  0  0  0  0  0  0  0  0  0  0  0
    0.0370   13.1650   -4.2740 C   0  0  2  0  0  0  0  0  0  0  0  0
   -0.5910   14.0410   -3.2060 C   0  0  2  0  0  0  0  0  0  0  0  0
    0.9700   14.0760   -5.0530 C   0  0  2  0  0  0  0  0  0  0  0  0
    2.2230   13.4180   -5.1160 O   0  0  0  0  0  0  0  0  0  0  0  0
   -2.0000   13.9920   -3.3980 O   0  0  0  0  0  0  0  0  0  0  0  0
   -0.0990   15.3800   -3.3440 O   0  0  0  0  0  0  0  0  0  0  0  0
    1.0010   15.3940   -4.2690 C   0  0  2  0  0  0  0  0  0  0  0  0
    0.8660   16.6360   -5.1410 C   0  0  0  0  0  0  0  0  0  0  0  0
  2  1  1  6
  2  3  1  0
  2  4  1  0
  4  5  1  1
  3  6  1  6
  3  7  1  0
  4  8  1  0
  7  8  1  0
  8  9  1  6
M  END
