6woj_A_0_A_α-5cms_I_8_I_γ
     RDKit          3D

 22 23  0  0  0  0  0  0  0  0999 V2000
   -1.5150   22.2910   -8.1090 C   0  0  0  0  0  0  0  0  0  0  0  0
   -2.9000   22.3900   -7.5360 C   0  0  2  0  0  0  0  0  0  0  0  0
   -3.7670   21.3550   -7.9830 O   0  0  0  0  0  0  0  0  0  0  0  0
   -3.6970   23.6460   -7.8160 C   0  0  1  0  0  0  0  0  0  0  0  0
   -3.9740   23.9220   -9.1970 O   0  0  0  0  0  0  0  0  0  0  0  0
   -4.9250   21.6530   -7.2150 C   0  0  2  0  0  0  0  0  0  0  0  0
   -5.0110   23.2150   -7.2200 C   0  0  1  0  0  0  0  0  0  0  0  0
   -4.7440   21.1350   -5.8960 O   0  0  0  0  0  0  0  0  0  0  0  0
   -5.2340   23.8650   -5.9830 O   0  0  0  0  0  0  0  0  0  0  0  0
   -3.3280   20.9170   -5.6380 C   0  0  0  0  0  0  0  0  0  0  0  0
   -2.6990   19.6180   -6.2030 C   0  0  0  0  0  0  0  0  0  0  0  0
   -1.3570   19.7990   -6.9380 C   0  0  0  0  0  0  0  0  0  0  0  0
   -0.6230   18.4610   -7.1260 C   0  0  0  0  0  0  0  0  0  0  0  0
    0.4070   18.0610   -6.0520 C   0  0  0  0  0  0  0  0  0  0  0  0
   -0.1940   17.1360   -4.9820 C   0  0  0  0  0  0  0  0  0  0  0  0
    0.6430   15.9060   -4.5550 C   0  0  1  0  0  0  0  0  0  0  0  0
    0.3970   15.7040   -3.1360 O   0  0  0  0  0  0  0  0  0  0  0  0
    0.2450   14.5470   -5.1380 C   0  0  1  0  0  0  0  0  0  0  0  0
    1.1590   13.4800   -4.9680 O   0  0  0  0  0  0  0  0  0  0  0  0
   -0.5880   14.6590   -2.9910 C   0  0  0  0  0  0  0  0  0  0  0  0
   -1.0480   14.3020   -4.3910 C   0  0  2  0  0  0  0  0  0  0  0  0
   -1.4970   12.9650   -4.5540 O   0  0  0  0  0  0  0  0  0  0  0  0
  2  1  1  6
  2  3  1  0
  2  4  1  0
  4  5  1  6
  3  6  1  0
  4  7  1  0
  6  7  1  0
  6  8  1  1
  7  9  1  1
  8 10  1  0
 10 11  1  0
 11 12  1  0
 12 13  1  0
 13 14  1  0
 14 15  1  0
 16 15  1  6
 16 17  1  0
 16 18  1  0
 18 19  1  1
 17 20  1  0
 18 21  1  0
 20 21  1  0
 21 22  1  1
M  END
