6YWK_0_E_α-5CB5_0_J_α
     RDKit          3D

 17 17  0  0  0  0  0  0  0  0999 V2000
    1.2340   20.9410   -7.5840 O   0  0  0  0  0  0  0  0  0  0  0  0
    0.1190   19.7930   -7.4530 S   0  0  0  0  0  0  0  0  0  0  0  0
    0.4210   18.9160   -6.1570 O   0  0  0  0  0  0  0  0  0  0  0  0
    0.1190   18.8130   -8.7170 O   0  0  0  0  0  0  0  0  0  0  0  0
   -1.4790   20.5970   -7.2480 C   0  0  0  0  0  0  0  0  0  0  0  0
   -1.5980   21.7430   -8.2410 C   0  0  0  0  0  0  0  0  0  0  0  0
   -2.7880   22.6180   -8.3480 N   0  0  0  0  0  0  0  0  0  0  0  0
   -3.0460   23.5570   -7.2820 C   0  0  0  0  0  0  0  0  0  0  0  0
   -4.0150   22.0610   -8.8780 C   0  0  2  0  0  0  0  0  0  0  0  0
   -4.5430   23.0940   -9.7110 O   0  0  0  0  0  0  0  0  0  0  0  0
   -4.1650   23.1610   -6.2790 C   0  0  0  0  0  0  0  0  0  0  0  0
   -5.1310   21.6390   -7.8200 C   0  0  1  0  0  0  0  0  0  0  0  0
   -4.7000   20.5370   -7.0340 O   0  0  0  0  0  0  0  0  0  0  0  0
   -5.4310   22.7640   -6.9430 N   0  0  0  0  0  0  0  0  0  0  0  0
   -5.7850   23.9430   -7.7230 C   0  0  0  0  0  0  0  0  0  0  0  0
   -6.8830   23.8520   -8.8050 C   0  0  0  0  0  0  0  0  0  0  0  0
   -7.2490   22.5080   -9.1270 O   0  0  0  0  0  0  0  0  0  0  0  0
  2  1  1  0
  2  3  1  0
  2  4  1  0
  2  5  1  0
  5  6  1  0
  6  7  1  0
  7  8  1  0
  7  9  1  0
  9 10  1  6
  8 11  1  0
  9 12  1  0
 12 13  1  1
 11 14  1  0
 12 14  1  0
 14 15  1  0
 15 16  1  0
 16 17  1  0
M  END
