6YWK_0_E_α-5dus_0_A_β
     RDKit          3D

 20 20  0  0  0  0  0  0  0  0999 V2000
    1.3740   20.7370   -7.2970 O   0  0  0  0  0  0  0  0  0  0  0  0
    0.1150   19.7100   -7.2080 S   0  0  2  0  0  0  0  0  0  0  0  0
    0.1410   18.5430   -6.1160 O   0  0  0  0  0  0  0  0  0  0  0  0
   -0.2500   19.2500   -8.6310 O   0  0  0  0  0  0  0  0  0  0  0  0
   -1.3550   20.7520   -6.9050 C   0  0  0  0  0  0  0  0  0  0  0  0
   -1.4090   22.0790   -7.7060 C   0  0  0  0  0  0  0  0  0  0  0  0
   -1.2450   20.4730   -8.6270 P   0  0  0  0  0  0  0  0  0  0  0  0
   -1.3020   17.9960   -5.6410 P   0  0  0  0  0  0  0  0  0  0  0  0
   -1.0230   16.6710   -4.8130 O   0  0  0  0  0  0  0  0  0  0  0  0
   -2.3340   17.7220   -6.6920 O   0  0  0  0  0  0  0  0  0  0  0  0
   -1.9300   18.9870   -4.5650 O   0  0  0  0  0  0  0  0  0  0  0  0
   -2.7750   22.5540   -8.0820 N   0  0  0  0  0  0  0  0  0  0  0  0
   -3.1820   23.7080   -7.2920 C   0  0  0  0  0  0  0  0  0  0  0  0
   -3.7970   21.4880   -8.2090 C   0  0  0  0  0  0  0  0  0  0  0  0
   -4.2760   23.3910   -6.2550 C   0  0  0  0  0  0  0  0  0  0  0  0
   -5.1380   21.5490   -7.4210 C   0  0  0  0  0  0  0  0  0  0  0  0
   -5.5100   22.8290   -6.8260 N   0  0  0  0  0  0  0  0  0  0  0  0
   -5.9620   23.7510   -7.8630 C   0  0  0  0  0  0  0  0  0  0  0  0
   -6.2780   23.1560   -9.2380 C   0  0  0  0  0  0  0  0  0  0  0  0
   -7.6180   22.6860   -9.3150 O   0  0  0  0  0  0  0  0  0  0  0  0
  2  1  1  6
  2  3  1  0
  2  4  1  0
  2  5  1  0
  5  6  1  0
  4  7  1  0
  3  8  1  0
  8  9  1  0
  8 10  2  0
  8 11  1  0
  6 12  1  0
 12 13  1  0
 12 14  1  0
 13 15  1  0
 14 16  1  0
 15 17  1  0
 16 17  1  0
 17 18  1  0
 18 19  1  0
 19 20  1  0
M  END
