6YWK_0_E_α-6WOJ_0_A_δ
     RDKit          3D

 29 31  0  0  0  0  0  0  0  0999 V2000
    1.1690   20.9370   -7.5880 O   0  0  0  0  0  0  0  0  0  0  0  0
    0.0150   19.8190   -7.4260 S   0  0  0  0  0  0  0  0  0  0  0  0
    0.1040   19.1230   -5.9860 O   0  0  0  0  0  0  0  0  0  0  0  0
    0.0610   18.7790   -8.6590 O   0  0  0  0  0  0  0  0  0  0  0  0
   -1.5560   20.6940   -7.3470 C   0  0  0  0  0  0  0  0  0  0  0  0
   -1.4750   22.0550   -8.0180 C   0  0  0  0  0  0  0  0  0  0  0  0
    0.6840   17.8580   -5.7440 C   0  0  0  0  0  0  0  0  0  0  0  0
    0.6660   17.6120   -4.2380 C   0  0  0  0  0  0  0  0  0  0  0  0
   -2.7410   22.8030   -8.2790 N   0  0  0  0  0  0  0  0  0  0  0  0
    0.4130   16.1600   -3.7980 C   0  0  0  0  0  0  0  0  0  0  0  0
   -3.0540   23.7990   -7.2510 C   0  0  0  0  0  0  0  0  0  0  0  0
   -3.9190   22.0450   -8.7150 C   0  0  0  0  0  0  0  0  0  0  0  0
   -0.6120   16.0010   -2.6540 C   0  0  0  0  0  0  0  0  0  0  0  0
   -4.1220   23.4140   -6.2100 C   0  0  0  0  0  0  0  0  0  0  0  0
   -4.9480   21.7740   -7.5940 C   0  0  0  0  0  0  0  0  0  0  0  0
   -5.3480   22.9300   -6.8420 N   0  0  0  0  0  0  0  0  0  0  0  0
   -1.2180   14.6920   -2.4610 N   0  0  0  0  0  0  0  0  0  0  0  0
   -5.7050   23.9570   -7.7850 C   0  0  0  0  0  0  0  0  0  0  0  0
   -1.3040   14.1290   -1.1020 C   0  0  2  0  0  0  0  0  0  0  0  0
   -2.5710   14.6680   -2.9780 C   0  0  0  0  0  0  0  0  0  0  0  0
   -6.8400   23.7800   -8.8080 C   0  0  0  0  0  0  0  0  0  0  0  0
   -2.7620   14.3850   -0.7110 C   0  0  2  0  0  0  0  0  0  0  0  0
   -3.4200   15.0530   -1.8630 N   0  0  0  0  0  0  0  0  0  0  0  0
   -0.3380   14.6820   -0.1560 N   0  0  0  0  0  0  0  0  0  0  0  0
   -7.1290   22.4070   -9.0590 O   0  0  0  0  0  0  0  0  0  0  0  0
   -0.5870   14.2790    1.2190 C   0  0  0  0  0  0  0  0  0  0  0  0
   -2.8030   15.1320    0.6350 C   0  0  1  0  0  0  0  0  0  0  0  0
   -4.1320   15.1190    1.2510 N   0  0  0  0  0  0  0  0  0  0  0  0
   -1.9410   14.5800    1.6430 N   0  0  0  0  0  0  0  0  0  0  0  0
  2  1  1  0
  2  3  1  0
  2  4  1  0
  2  5  1  0
  5  6  1  0
  3  7  1  0
  7  8  1  0
  6  9  1  0
  8 10  1  0
  9 11  1  0
  9 12  1  0
 10 13  1  0
 11 14  1  0
 12 15  1  0
 14 16  1  0
 15 16  1  0
 13 17  1  0
 16 18  1  0
 17 19  1  0
 17 20  1  0
 18 21  1  0
 19 22  1  0
 20 23  1  0
 22 23  1  6
 19 24  1  1
 21 25  1  0
 24 26  1  0
 22 27  1  0
 27 28  1  1
 26 29  1  0
 27 29  1  0
M  END
