EU0087_0_A_α-5cb5_Q_0_Q_α
     RDKit          3D

 24 25  0  0  0  0  0  0  0  0999 V2000
   -4.0700   15.3160    0.1940 N   0  0  0  0  0  0  0  0  0  0  0  0
   -5.2050   14.5350   -0.0130 C   0  0  0  0  0  0  0  0  0  0  0  0
   -5.1470   13.1760    0.6760 C   0  0  0  0  0  0  0  0  0  0  0  0
   -2.7710   14.9350    0.4290 C   0  0  0  0  0  0  0  0  0  0  0  0
   -6.2560   14.8810   -0.7210 N   0  0  0  0  0  0  0  0  0  0  0  0
   -2.1410   14.7410    1.5870 N   0  0  0  0  0  0  0  0  0  0  0  0
   -1.7530   14.6580   -0.9520 S   0  0  0  0  0  0  0  0  0  0  0  0
   -6.3670   16.1700   -1.4170 C   0  0  0  0  0  0  0  0  0  0  0  0
   -0.4340   14.2800    0.0710 C   0  0  0  0  0  0  0  0  0  0  0  0
   -0.8240   14.3740    1.3800 C   0  0  0  0  0  0  0  0  0  0  0  0
   -7.8420   16.4780   -1.8380 C   0  0  0  0  0  0  0  0  0  0  0  0
   -8.5860   17.8860   -2.1620 C   0  0  0  0  0  0  0  0  0  0  0  0
   -8.2340   19.4110   -2.8660 C   0  0  0  0  0  0  0  0  0  0  0  0
   -6.6890   21.1460   -4.0740 C   0  0  0  0  0  0  0  0  0  0  0  0
   -6.0190   21.5800   -5.5390 C   0  0  0  0  0  0  0  0  0  0  0  0
   -4.7000   21.1180   -5.6430 O   0  0  0  0  0  0  0  0  0  0  0  0
   -4.2940   21.3300   -6.9800 C   0  0  2  0  0  0  0  0  0  0  0  0
   -2.9230   21.0840   -7.1800 O   0  0  0  0  0  0  0  0  0  0  0  0
   -4.5920   22.8080   -7.3040 C   0  0  1  0  0  0  0  0  0  0  0  0
   -4.9590   23.6250   -6.1810 O   0  0  0  0  0  0  0  0  0  0  0  0
   -2.4290   22.0800   -8.0780 C   0  0  1  0  0  0  0  0  0  0  0  0
   -3.3340   23.3250   -7.9730 C   0  0  1  0  0  0  0  0  0  0  0  0
   -0.9690   22.2660   -7.7260 C   0  0  0  0  0  0  0  0  0  0  0  0
   -3.7410   23.8950   -9.2200 O   0  0  0  0  0  0  0  0  0  0  0  0
  1  2  1  0
  2  3  1  0
  1  4  1  0
  2  5  2  3
  4  6  2  0
  4  7  1  0
  5  8  1  0
  7  9  1  0
  6 10  1  0
  9 10  2  0
  8 11  1  0
 11 12  1  0
 12 13  1  0
 13 14  1  0
 14 15  1  0
 15 16  1  0
 17 16  1  1
 17 18  1  0
 17 19  1  0
 19 20  1  1
 18 21  1  0
 19 22  1  0
 21 22  1  0
 21 23  1  1
 22 24  1  6
M  END
