EU0056_0_A_α-5CB5_0_Q_β
     RDKit          3D

 23 23  0  0  0  0  0  0  0  0999 V2000
   -8.0400   13.7020    4.1330 N   0  0  0  0  0  0  0  0  0  0  0  0
   -8.2470   14.8950    3.3400 C   0  0  0  0  0  0  0  0  0  0  0  0
   -7.4880   14.7570    2.0420 C   0  0  0  0  0  0  0  0  0  0  0  0
   -8.2000   14.6310    0.8610 C   0  0  0  0  0  0  0  0  0  0  0  0
   -6.1180   14.7630    2.0430 C   0  0  0  0  0  0  0  0  0  0  0  0
   -7.4880   14.5190   -0.2730 N   0  0  0  0  0  0  0  0  0  0  0  0
   -5.4140   14.6400    0.8350 C   0  0  0  0  0  0  0  0  0  0  0  0
   -4.0460   14.6480    0.8930 O   0  0  0  0  0  0  0  0  0  0  0  0
   -6.1520   14.5210   -0.3090 C   0  0  0  0  0  0  0  0  0  0  0  0
   -3.0460   15.3120    0.2290 C   0  0  0  0  0  0  0  0  0  0  0  0
   -2.5260   14.8220   -1.0920 C   0  0  0  0  0  0  0  0  0  0  0  0
   -1.9260   15.9760   -1.8660 C   0  0  0  0  0  0  0  0  0  0  0  0
   -1.5140   15.7650   -3.3050 C   0  0  0  0  0  0  0  0  0  0  0  0
   -2.4150   16.4560   -4.3120 C   0  0  0  0  0  0  0  0  0  0  0  0
   -2.0860   17.8000   -4.6580 O   0  0  0  0  0  0  0  0  0  0  0  0
   -1.4990   17.8910   -6.0730 P   0  0  0  0  0  0  0  0  0  0  0  0
   -1.1130   19.4450   -6.1920 O   0  0  0  0  0  0  0  0  0  0  0  0
   -0.3520   16.7830   -5.5810 O   0  0  0  0  0  0  0  0  0  0  0  0
   -2.8930   17.3330   -6.7440 O   0  0  0  0  0  0  0  0  0  0  0  0
   -0.8500   19.7540   -7.7950 P   0  0  0  0  0  0  0  0  0  0  0  0
   -1.7480   20.9840   -8.5010 O   0  0  0  0  0  0  0  0  0  0  0  0
    0.2440   20.7840   -7.5190 O   0  0  0  0  0  0  0  0  0  0  0  0
    0.0870   18.8290   -8.7240 O   0  0  0  0  0  0  0  0  0  0  0  0
  1  2  1  0
  2  3  1  0
  3  4  2  0
  3  5  1  0
  4  6  1  0
  5  7  2  0
  7  8  1  0
  6  9  2  0
  7  9  1  0
  8 10  1  0
 10 11  1  0
 11 12  1  0
 12 13  1  0
 13 14  1  0
 14 15  1  0
 15 16  1  0
 16 17  1  0
 16 18  1  0
 16 19  1  0
 17 20  1  0
 20 21  1  0
 20 22  1  0
 20 23  1  0
M  CHG  2  19  -1  22  -1
M  END
