EU0056_0_A_α-x1015_0_A_α
     RDKit          3D

 27 29  0  0  0  0  0  0  0  0999 V2000
   -7.9550   13.6610    4.1460 N   0  0  0  0  0  0  0  0  0  0  0  0
   -8.2480   14.7700    3.2500 C   0  0  0  0  0  0  0  0  0  0  0  0
   -7.4130   14.7030    2.0020 C   0  0  0  0  0  0  0  0  0  0  0  0
   -7.9700   14.3520    0.7860 C   0  0  0  0  0  0  0  0  0  0  0  0
   -6.0380   14.9990    2.0110 C   0  0  0  0  0  0  0  0  0  0  0  0
   -7.2670   14.2820   -0.3680 N   0  0  0  0  0  0  0  0  0  0  0  0
   -5.2640   14.9460    0.8480 C   0  0  0  0  0  0  0  0  0  0  0  0
   -3.9310   15.2770    1.0220 O   0  0  0  0  0  0  0  0  0  0  0  0
   -5.9380   14.5790   -0.3130 C   0  0  0  0  0  0  0  0  0  0  0  0
   -2.8500   14.5650    0.3940 C   0  0  0  0  0  0  0  0  0  0  0  0
   -1.6580   15.5170    0.1940 C   0  0  0  0  0  0  0  0  0  0  0  0
   -0.3670   14.8510   -0.2880 C   0  0  0  0  0  0  0  0  0  0  0  0
   -0.3650   14.8240   -1.7540 N   0  0  0  0  0  0  0  0  0  0  0  0
    0.0630   13.7970   -2.3800 C   0  0  0  0  0  0  0  0  0  0  0  0
    0.0590   13.6460   -3.8890 C   0  0  2  0  0  0  0  0  0  0  0  0
    0.5700   12.6690   -1.8440 N   0  0  0  0  0  0  0  0  0  0  0  0
   -1.1880   14.3300   -4.4470 C   0  0  0  0  0  0  0  0  0  0  0  0
    0.0070   12.1860   -3.9410 N   0  0  0  0  0  0  0  0  0  0  0  0
    0.2920   11.6380   -2.6820 C   0  0  0  0  0  0  0  0  0  0  0  0
    0.3140   10.4590   -2.3240 O   0  0  0  0  0  0  0  0  0  0  0  0
   -0.4250   11.4280   -5.0590 C   0  0  0  0  0  0  0  0  0  0  0  0
    0.1130   11.6370   -6.3410 C   0  0  0  0  0  0  0  0  0  0  0  0
   -1.4060   10.4370   -4.9170 C   0  0  0  0  0  0  0  0  0  0  0  0
   -0.3160   10.8770   -7.4360 C   0  0  0  0  0  0  0  0  0  0  0  0
   -1.8380    9.6770   -6.0050 C   0  0  0  0  0  0  0  0  0  0  0  0
   -1.2920    9.8990   -7.2610 C   0  0  0  0  0  0  0  0  0  0  0  0
   -1.8220    8.9580   -8.5980 Cl  0  0  0  0  0  0  0  0  0  0  0  0
  1  2  1  0
  2  3  1  0
  3  4  2  0
  3  5  1  0
  4  6  1  0
  5  7  2  0
  7  8  1  0
  6  9  2  0
  7  9  1  0
  8 10  1  0
 10 11  1  0
 11 12  1  0
 12 13  1  0
 13 14  2  3
 14 15  1  0
 14 16  1  0
 15 17  1  6
 15 18  1  0
 16 19  1  0
 18 19  1  0
 19 20  2  0
 18 21  1  0
 21 22  2  0
 21 23  1  0
 22 24  1  0
 23 25  2  0
 24 26  2  0
 25 26  1  0
 26 27  1  0
M  END
