EU0056_0_A_α-5CB5_0_M_γ
     RDKit          3D

 20 21  0  0  0  0  0  0  0  0999 V2000
   -8.1980   13.5960    4.1470 N   0  0  0  0  0  0  0  0  0  0  0  0
   -8.3460   14.7830    3.3180 C   0  0  0  0  0  0  0  0  0  0  0  0
   -7.5000   14.7200    2.0720 C   0  0  0  0  0  0  0  0  0  0  0  0
   -8.0690   14.4650    0.8300 C   0  0  0  0  0  0  0  0  0  0  0  0
   -6.1100   14.9270    2.1170 C   0  0  0  0  0  0  0  0  0  0  0  0
   -7.3610   14.4080   -0.3190 N   0  0  0  0  0  0  0  0  0  0  0  0
   -5.3350   14.8830    0.9560 C   0  0  0  0  0  0  0  0  0  0  0  0
   -3.9790   15.0800    0.8640 O   0  0  0  0  0  0  0  0  0  0  0  0
   -6.0200   14.6190   -0.2310 C   0  0  0  0  0  0  0  0  0  0  0  0
   -3.1420   14.1090    0.2240 C   0  0  0  0  0  0  0  0  0  0  0  0
   -2.8530   14.5270   -1.2240 C   0  0  0  0  0  0  0  0  0  0  0  0
   -1.3720   14.4250   -1.6400 C   0  0  0  0  0  0  0  0  0  0  0  0
   -1.1070   14.7430   -3.1220 C   0  0  1  0  0  0  0  0  0  0  0  0
   -0.3040   15.9240   -3.2990 O   0  0  0  0  0  0  0  0  0  0  0  0
   -0.3070   13.6730   -3.8420 C   0  0  1  0  0  0  0  0  0  0  0  0
   -1.0200   12.4690   -4.0670 O   0  0  0  0  0  0  0  0  0  0  0  0
    0.4090   15.7930   -4.5520 C   0  0  1  0  0  0  0  0  0  0  0  0
    0.0320   14.4140   -5.1200 C   0  0  1  0  0  0  0  0  0  0  0  0
    0.1130   17.0050   -5.4190 C   0  0  0  0  0  0  0  0  0  0  0  0
    1.1240   13.7130   -5.7260 O   0  0  0  0  0  0  0  0  0  0  0  0
  1  2  1  0
  2  3  1  0
  3  4  2  0
  3  5  1  0
  4  6  1  0
  5  7  2  0
  7  8  1  0
  6  9  2  0
  7  9  1  0
  8 10  1  0
 10 11  1  0
 11 12  1  0
 13 12  1  1
 13 14  1  0
 13 15  1  0
 15 16  1  6
 14 17  1  0
 15 18  1  0
 17 18  1  0
 17 19  1  6
 18 20  1  1
M  END
