EU0144_0_A_α-6MEA_0_B_δ
     RDKit          3D

 18 20  0  0  0  0  0  0  0  0999 V2000
   -8.6170   14.5280    1.0160 C   0  0  0  0  0  0  0  0  0  0  0  0
   -7.2410   14.6320    0.4960 C   0  0  0  0  0  0  0  0  0  0  0  0
   -6.8140   14.5590   -0.7360 N   0  0  0  0  0  0  0  0  0  0  0  0
   -6.2650   14.8340    1.4240 O   0  0  0  0  0  0  0  0  0  0  0  0
   -5.0920   14.9000    0.7250 C   0  0  0  0  0  0  0  0  0  0  0  0
   -5.4540   14.7300   -0.6140 C   0  0  0  0  0  0  0  0  0  0  0  0
   -3.9620   15.0960    1.4720 N   0  0  0  0  0  0  0  0  0  0  0  0
   -4.6460   14.7080   -1.7870 C   0  0  0  0  0  0  0  0  0  0  0  0
   -4.0180   14.6460   -2.7640 N   0  0  0  0  0  0  0  0  0  0  0  0
   -2.5740   14.9860    0.9890 C   0  0  2  0  0  0  0  0  0  0  0  0
   -2.5720   14.7570   -0.5260 C   0  0  2  0  0  0  0  0  0  0  0  0
   -1.5970   14.1250    1.6670 N   0  0  0  0  0  0  0  0  0  0  0  0
   -1.2650   14.0640   -0.8600 C   0  0  1  0  0  0  0  0  0  0  0  0
   -2.5920   15.9280   -1.4060 N   0  0  0  0  0  0  0  0  0  0  0  0
   -0.2200   14.2080    1.2120 C   0  0  0  0  0  0  0  0  0  0  0  0
   -1.1900   14.2440   -2.2880 N   0  0  0  0  0  0  0  0  0  0  0  0
   -1.6840   15.5940   -2.5010 C   0  0  0  0  0  0  0  0  0  0  0  0
   -0.1410   14.6140   -0.1760 N   0  0  0  0  0  0  0  0  0  0  0  0
  1  2  1  0
  2  3  2  0
  2  4  1  0
  4  5  1  0
  3  6  1  0
  5  6  2  0
  5  7  1  0
  6  8  1  0
  8  9  3  0
 10  7  1  1
 10 11  1  0
 10 12  1  0
 11 13  1  0
 11 14  1  6
 12 15  1  0
 13 16  1  6
 14 17  1  0
 16 17  1  0
 13 18  1  0
 15 18  1  0
M  END
