EU0144_0_A_α-x0592_0_A_α
     RDKit          3D

 11 11  0  0  0  0  0  0  0  0999 V2000
   -8.2380   14.4310    0.9380 C   0  0  0  0  0  0  0  0  0  0  0  0
   -8.1680   14.1420    2.4330 C   0  0  0  0  0  0  0  0  0  0  0  0
   -7.3150   15.0540    3.1260 O   0  0  0  0  0  0  0  0  0  0  0  0
   -6.8610   14.6180    0.4400 C   0  0  0  0  0  0  0  0  0  0  0  0
   -6.3570   14.5580   -0.7740 N   0  0  0  0  0  0  0  0  0  0  0  0
   -5.9640   14.8990    1.4180 O   0  0  0  0  0  0  0  0  0  0  0  0
   -4.7830   15.0280    0.7790 C   0  0  0  0  0  0  0  0  0  0  0  0
   -5.0180   14.8220   -0.5590 C   0  0  0  0  0  0  0  0  0  0  0  0
   -3.7570   15.3030    1.5860 N   0  0  0  0  0  0  0  0  0  0  0  0
   -4.0660   14.8580   -1.6170 C   0  0  0  0  0  0  0  0  0  0  0  0
   -3.2720   14.8530   -2.4610 N   0  0  0  0  0  0  0  0  0  0  0  0
  1  2  1  0
  2  3  1  0
  1  4  1  0
  4  5  2  0
  4  6  1  0
  6  7  1  0
  5  8  1  0
  7  8  2  0
  7  9  1  0
  8 10  1  0
 10 11  3  0
M  END
