EU0144_0_A_α-x0962_2_B_α
     RDKit          3D

 18 19  0  0  0  0  0  0  0  0999 V2000
   -8.2530   13.5410   -0.7190 C   0  0  0  0  0  0  0  0  0  0  0  0
   -6.8250   13.5010   -0.2070 C   0  0  1  0  0  0  0  0  0  0  0  0
   -5.8590   13.4960   -1.2670 N   0  0  0  0  0  0  0  0  0  0  0  0
   -6.4520   14.7400    0.5380 C   0  0  1  0  0  0  0  0  0  0  0  0
   -7.5080   14.7830    1.6280 C   0  0  0  0  0  0  0  0  0  0  0  0
   -4.9610   14.4440    0.7810 C   0  0  1  0  0  0  0  0  0  0  0  0
   -4.5780   13.8100   -0.5950 C   0  0  2  0  0  0  0  0  0  0  0  0
   -4.1180   15.5200    1.2930 N   0  0  0  0  0  0  0  0  0  0  0  0
   -3.7960   14.6650   -1.5080 C   0  0  0  0  0  0  0  0  0  0  0  0
   -8.8520   15.1860    0.9610 C   0  0  0  0  0  0  0  0  0  0  0  0
   -3.1960   15.2850   -2.2750 N   0  0  0  0  0  0  0  0  0  0  0  0
   -9.9280   15.5830    1.9430 C   0  0  2  0  0  0  0  0  0  0  0  0
  -10.5260   16.8720    1.6690 N   0  0  0  0  0  0  0  0  0  0  0  0
   -9.2530   15.4290    3.2390 C   0  0  0  0  0  0  0  0  0  0  0  0
   -8.9950   16.4330    4.1340 N   0  0  0  0  0  0  0  0  0  0  0  0
   -8.7320   14.3000    3.8230 C   0  0  0  0  0  0  0  0  0  0  0  0
   -8.3410   15.8650    5.1910 C   0  0  0  0  0  0  0  0  0  0  0  0
   -8.1720   14.5750    5.0260 N   0  0  0  0  0  0  0  0  0  0  0  0
  2  1  1  6
  2  3  1  0
  2  4  1  0
  4  5  1  1
  4  6  1  0
  3  7  1  0
  6  7  1  0
  6  8  1  6
  7  9  1  6
  5 10  1  0
  9 11  3  0
 10 12  1  0
 12 13  1  6
 12 14  1  0
 14 15  1  0
 14 16  2  0
 15 17  1  0
 16 18  1  0
 17 18  2  0
M  END
