EU0293_0_A_α-5cb5_B_0_B_β
     RDKit          3D

 24 25  0  0  0  0  0  0  0  0999 V2000
    1.0620   14.1240   -0.8750 N   0  0  0  0  0  0  0  0  0  0  0  0
   -0.1800   14.2620   -0.2690 C   0  0  0  0  0  0  0  0  0  0  0  0
   -1.3550   14.1310   -0.9870 C   0  0  0  0  0  0  0  0  0  0  0  0
   -0.3150   14.5320    1.0900 C   0  0  0  0  0  0  0  0  0  0  0  0
   -1.4740   14.6700    1.7460 N   0  0  0  0  0  0  0  0  0  0  0  0
   -2.5840   14.2690   -0.3460 C   0  0  0  0  0  0  0  0  0  0  0  0
   -2.5800   14.5350    1.0080 C   0  0  0  0  0  0  0  0  0  0  0  0
   -3.8640   14.1220   -1.1070 C   0  0  2  0  0  0  0  0  0  0  0  0
   -3.7440   14.6080   -2.5720 C   0  0  0  0  0  0  0  0  0  0  0  0
   -5.0430   14.7160   -0.4740 O   0  0  0  0  0  0  0  0  0  0  0  0
   -3.8730   14.6810    1.7060 C   0  0  0  0  0  0  0  0  0  0  0  0
   -2.9290   15.8810   -2.8290 C   0  0  0  0  0  0  0  0  0  0  0  0
   -4.8460   15.3820    0.7940 C   0  0  0  0  0  0  0  0  0  0  0  0
   -1.4750   15.8080   -3.3260 C   0  0  0  0  0  0  0  0  0  0  0  0
   -0.8500   17.0890   -3.9170 C   0  0  0  0  0  0  0  0  0  0  0  0
   -1.8240   17.9840   -4.4900 O   0  0  0  0  0  0  0  0  0  0  0  0
   -1.6650   18.1590   -6.0710 P   0  0  1  0  0  0  0  0  0  0  0  0
   -1.0790   19.5750   -6.4170 O   0  0  0  0  0  0  0  0  0  0  0  0
   -0.3670   17.2740   -6.2650 O   0  0  0  0  0  0  0  0  0  0  0  0
   -2.8070   17.7120   -6.8800 O   0  0  0  0  0  0  0  0  0  0  0  0
   -0.3490   19.9210   -7.7780 P   0  0  0  0  0  0  0  0  0  0  0  0
   -1.4560   20.5900   -8.6990 O   0  0  0  0  0  0  0  0  0  0  0  0
    0.8480   20.7930   -7.6810 O   0  0  0  0  0  0  0  0  0  0  0  0
   -0.0980   18.5610   -8.5950 O   0  0  0  0  0  0  0  0  0  0  0  0
  1  2  1  0
  2  3  2  0
  2  4  1  0
  4  5  2  0
  3  6  1  0
  5  7  1  0
  6  7  2  0
  6  8  1  0
  8  9  1  6
  8 10  1  0
  7 11  1  0
  9 12  1  0
 10 13  1  0
 11 13  1  0
 12 14  1  0
 14 15  1  0
 15 16  1  0
 16 17  1  0
 17 18  1  0
 17 19  1  6
 17 20  2  0
 18 21  1  0
 21 22  1  0
 21 23  2  0
 21 24  1  0
M  END
