EU0238_0_A_α-1SPV_0_A_α
     RDKit          3D

 28 29  0  0  0  0  0  0  0  0999 V2000
   -6.3430   14.3800    1.2510 C   0  0  0  0  0  0  0  0  0  0  0  0
   -7.4740   14.4510    0.3170 N   0  0  0  0  0  0  0  0  0  0  0  0
   -5.0070   14.4120    0.4810 C   0  0  0  0  0  0  0  0  0  0  0  0
   -4.9220   14.2600   -0.8390 N   0  0  0  0  0  0  0  0  0  0  0  0
   -3.8690   14.5870    1.2420 N   0  0  0  0  0  0  0  0  0  0  0  0
   -3.7180   14.2160   -1.7000 C   0  0  0  0  0  0  0  0  0  0  0  0
   -2.5580   14.7300    0.9950 C   0  0  0  0  0  0  0  0  0  0  0  0
   -3.5040   15.5040   -2.5360 C   0  0  0  0  0  0  0  0  0  0  0  0
   -1.9900   15.3670   -0.5070 S   0  0  0  0  0  0  0  0  0  0  0  0
   -1.5930   14.4220    1.8200 N   0  0  0  0  0  0  0  0  0  0  0  0
   -2.4750   15.3230   -3.6870 C   0  0  0  0  0  0  0  0  0  0  0  0
   -0.3690   14.6720    1.2680 C   0  0  0  0  0  0  0  0  0  0  0  0
   -0.3740   15.1880    0.0040 C   0  0  0  0  0  0  0  0  0  0  0  0
   -1.4860   16.5070   -3.8820 C   0  0  0  0  0  0  0  0  0  0  0  0
   -0.9020   16.6330   -5.3080 C   0  0  0  0  0  0  0  0  0  0  0  0
    0.1150   17.7690   -5.5730 C   0  0  0  0  0  0  0  0  0  0  0  0
   -0.5490   18.8700   -6.2160 O   0  0  0  0  0  0  0  0  0  0  0  0
   -0.0980   19.5860   -7.6030 S   0  0  0  0  0  0  0  0  0  0  0  0
    1.0710   20.6850   -7.4930 O   0  0  0  0  0  0  0  0  0  0  0  0
    0.2260   18.5240   -8.7470 O   0  0  0  0  0  0  0  0  0  0  0  0
   -1.5900   20.3430   -8.1750 C   0  0  0  0  0  0  0  0  0  0  0  0
   -1.9210   21.7440   -7.7390 C   0  0  0  0  0  0  0  0  0  0  0  0
   -3.3790   21.9530   -7.7410 N   0  0  0  0  0  0  0  0  0  0  0  0
   -3.8600   22.4550   -9.0360 C   0  0  0  0  0  0  0  0  0  0  0  0
   -3.8050   22.8290   -6.6530 C   0  0  0  0  0  0  0  0  0  0  0  0
   -5.3770   22.6410   -9.0350 C   0  0  0  0  0  0  0  0  0  0  0  0
   -5.2840   23.2000   -6.6930 C   0  0  0  0  0  0  0  0  0  0  0  0
   -5.8160   23.5130   -7.9880 O   0  0  0  0  0  0  0  0  0  0  0  0
  1  2  1  0
  1  3  1  0
  3  4  2  3
  3  5  1  0
  4  6  1  0
  5  7  1  0
  6  8  1  0
  7  9  1  0
  7 10  2  0
  8 11  1  0
 10 12  1  0
  9 13  1  0
 12 13  2  0
 11 14  1  0
 14 15  1  0
 15 16  1  0
 16 17  1  0
 18 17  1  0
 18 19  1  0
 18 20  1  0
 18 21  1  0
 21 22  1  0
 22 23  1  0
 23 24  1  0
 23 25  1  0
 24 26  1  0
 25 27  1  0
 26 28  1  0
 27 28  1  0
M  END
