EU0238_0_A_α-5cb5_N_0_N_β
     RDKit          3D

 24 24  0  0  0  0  0  0  0  0999 V2000
   -6.4660   14.6220    1.0120 C   0  0  0  0  0  0  0  0  0  0  0  0
   -7.3960   13.4960    1.0260 N   0  0  0  0  0  0  0  0  0  0  0  0
   -5.0910   14.1900    0.5020 C   0  0  0  0  0  0  0  0  0  0  0  0
   -4.9480   13.6080   -0.6590 N   0  0  0  0  0  0  0  0  0  0  0  0
   -3.9660   14.4050    1.2780 N   0  0  0  0  0  0  0  0  0  0  0  0
   -3.7050   13.1250   -1.2570 C   0  0  0  0  0  0  0  0  0  0  0  0
   -2.6840   14.6760    0.9760 C   0  0  0  0  0  0  0  0  0  0  0  0
   -3.6150   13.5900   -2.7160 C   0  0  0  0  0  0  0  0  0  0  0  0
   -2.3040   15.3650   -0.5660 S   0  0  0  0  0  0  0  0  0  0  0  0
   -1.6360   14.4710    1.7440 N   0  0  0  0  0  0  0  0  0  0  0  0
   -2.3150   14.2860   -3.1450 C   0  0  0  0  0  0  0  0  0  0  0  0
   -0.4800   14.8520    1.0990 C   0  0  0  0  0  0  0  0  0  0  0  0
   -0.6450   15.3600   -0.1650 C   0  0  0  0  0  0  0  0  0  0  0  0
   -2.4950   15.7860   -3.4020 C   0  0  0  0  0  0  0  0  0  0  0  0
   -1.9650   16.2210   -4.7660 C   0  0  0  0  0  0  0  0  0  0  0  0
   -1.5920   17.5880   -4.7030 O   0  0  0  0  0  0  0  0  0  0  0  0
   -1.8750   18.5010   -5.9870 P   0  0  1  0  0  0  0  0  0  0  0  0
   -0.4850   19.0850   -6.4440 O   0  0  0  0  0  0  0  0  0  0  0  0
   -2.7490   17.8690   -6.9950 O   0  0  0  0  0  0  0  0  0  0  0  0
   -2.5700   19.7030   -5.2000 O   0  0  0  0  0  0  0  0  0  0  0  0
   -0.2550   19.8620   -7.7950 P   0  0  0  0  0  0  0  0  0  0  0  0
   -1.6760   20.3990   -8.2700 O   0  0  0  0  0  0  0  0  0  0  0  0
    0.8300   20.8660   -7.8240 O   0  0  0  0  0  0  0  0  0  0  0  0
   -0.0360   18.6840   -8.8530 O   0  0  0  0  0  0  0  0  0  0  0  0
  1  2  1  0
  1  3  1  0
  3  4  2  3
  3  5  1  0
  4  6  1  0
  5  7  1  0
  6  8  1  0
  7  9  1  0
  7 10  2  0
  8 11  1  0
 10 12  1  0
  9 13  1  0
 12 13  2  0
 11 14  1  0
 14 15  1  0
 15 16  1  0
 16 17  1  0
 17 18  1  0
 17 19  2  0
 17 20  1  1
 18 21  1  0
 21 22  1  0
 21 23  2  0
 21 24  1  0
M  END
