EU0238_0_A_α-5CMS_0_F_β
     RDKit          3D

 23 23  0  0  0  0  0  0  0  0999 V2000
   -6.3240   14.0780    1.1170 C   0  0  0  0  0  0  0  0  0  0  0  0
   -7.5180   14.3450    0.3430 N   0  0  0  0  0  0  0  0  0  0  0  0
   -5.0830   14.5660    0.4720 C   0  0  0  0  0  0  0  0  0  0  0  0
   -5.0000   14.6630   -0.8160 N   0  0  0  0  0  0  0  0  0  0  0  0
   -4.0100   14.9280    1.3100 N   0  0  0  0  0  0  0  0  0  0  0  0
   -3.8540   15.1350   -1.5430 C   0  0  0  0  0  0  0  0  0  0  0  0
   -2.6290   14.7560    0.9630 C   0  0  0  0  0  0  0  0  0  0  0  0
   -3.9570   14.9860   -3.0460 C   0  0  0  0  0  0  0  0  0  0  0  0
   -1.8250   14.7460   -0.5370 S   0  0  0  0  0  0  0  0  0  0  0  0
   -1.6380   14.5630    1.7970 N   0  0  0  0  0  0  0  0  0  0  0  0
   -2.6470   15.3260   -3.7650 C   0  0  0  0  0  0  0  0  0  0  0  0
   -0.4360   14.4360    1.3630 C   0  0  0  0  0  0  0  0  0  0  0  0
   -0.2340   14.5050    0.0110 C   0  0  0  0  0  0  0  0  0  0  0  0
   -2.8480   16.2740   -4.9480 C   0  0  0  0  0  0  0  0  0  0  0  0
   -2.2580   17.5750   -4.8550 O   0  0  0  0  0  0  0  0  0  0  0  0
   -1.7970   18.0670   -6.2550 P   0  0  0  0  0  0  0  0  0  0  0  0
   -1.3590   19.6090   -6.2720 O   0  0  0  0  0  0  0  0  0  0  0  0
   -0.5280   16.9720   -5.9870 O   0  0  0  0  0  0  0  0  0  0  0  0
   -1.3800   18.0860   -7.6950 O   0  0  0  0  0  0  0  0  0  0  0  0
   -0.6630   20.1450   -7.7600 P   0  0  0  0  0  0  0  0  0  0  0  0
   -1.6600   20.6530   -8.8950 O   0  0  0  0  0  0  0  0  0  0  0  0
   -0.4530   21.5440   -7.1600 O   0  0  0  0  0  0  0  0  0  0  0  0
   -0.4000   18.7170   -8.3040 O   0  0  0  0  0  0  0  0  0  0  0  0
  1  2  1  0
  1  3  1  0
  3  4  2  3
  3  5  1  0
  4  6  1  0
  5  7  1  0
  6  8  1  0
  7  9  1  0
  7 10  2  0
  8 11  1  0
 10 12  1  0
  9 13  1  0
 12 13  2  0
 11 14  1  0
 14 15  1  0
 15 16  1  0
 16 17  1  0
 16 18  1  0
 16 19  1  0
 17 20  1  0
 20 21  1  0
 20 22  1  0
 20 23  1  0
M  CHG  2  19  -1  22  -1
M  END
