EU0238_0_A_α-6WOJ_0_D_δ
     RDKit          3D

 13 14  0  0  0  0  0  0  0  0999 V2000
   -6.4110   14.3050    1.5720 C   0  0  0  0  0  0  0  0  0  0  0  0
   -7.6280   14.3920    0.7460 N   0  0  0  0  0  0  0  0  0  0  0  0
   -5.1620   14.5900    0.7340 C   0  0  0  0  0  0  0  0  0  0  0  0
   -5.2160   14.7920   -0.4780 O   0  0  0  0  0  0  0  0  0  0  0  0
   -4.0020   14.5920    1.4780 N   0  0  0  0  0  0  0  0  0  0  0  0
   -2.7740   14.5520    0.9340 C   0  0  0  0  0  0  0  0  0  0  0  0
   -2.6220   14.2040   -0.5120 C   0  0  2  0  0  0  0  0  0  0  0  0
   -1.6770   14.7880    1.6190 N   0  0  0  0  0  0  0  0  0  0  0  0
   -0.6730   14.7300    0.6620 C   0  0  0  0  0  0  0  0  0  0  0  0
   -1.1690   14.4470   -0.5500 C   0  0  0  0  0  0  0  0  0  0  0  0
   -3.0590   15.0730   -1.6020 N   0  0  0  0  0  0  0  0  0  0  0  0
   -0.7530   14.3040   -1.8550 N   0  0  0  0  0  0  0  0  0  0  0  0
   -2.0100   14.6710   -2.5760 C   0  0  0  0  0  0  0  0  0  0  0  0
  1  2  1  0
  1  3  1  0
  3  4  2  0
  3  5  1  0
  5  6  1  0
  6  7  1  0
  6  8  2  0
  8  9  1  0
  7 10  1  0
  9 10  2  0
  7 11  1  6
 10 12  1  0
 11 13  1  0
 12 13  1  0
M  END
