EU0293_0_A_α-5cms_H_7_H_α
     RDKit          3D

 27 29  0  0  0  0  0  0  0  0999 V2000
    1.1530   14.3780   -0.8750 N   0  0  0  0  0  0  0  0  0  0  0  0
   -0.1440   14.5060   -0.3560 C   0  0  0  0  0  0  0  0  0  0  0  0
   -1.2710   14.6750   -1.1720 C   0  0  0  0  0  0  0  0  0  0  0  0
   -0.3470   14.4630    1.0280 C   0  0  0  0  0  0  0  0  0  0  0  0
   -1.1320   14.7360   -2.6800 C   0  0  0  0  0  0  0  0  0  0  0  0
   -1.5330   14.5650    1.6400 N   0  0  0  0  0  0  0  0  0  0  0  0
   -2.5340   14.7840   -0.5580 C   0  0  0  0  0  0  0  0  0  0  0  0
   -0.4190   16.0140   -3.1320 C   0  0  0  0  0  0  0  0  0  0  0  0
   -2.5940   14.7210    0.8310 C   0  0  0  0  0  0  0  0  0  0  0  0
   -3.8200   14.9600   -1.3370 C   0  0  0  0  0  0  0  0  0  0  0  0
   -1.1920   16.6790   -4.2690 C   0  0  0  0  0  0  0  0  0  0  0  0
   -4.9940   14.6880   -0.5780 O   0  0  0  0  0  0  0  0  0  0  0  0
   -3.8980   14.8160    1.5060 C   0  0  0  0  0  0  0  0  0  0  0  0
   -0.5900   18.0010   -4.7450 C   0  0  0  0  0  0  0  0  0  0  0  0
   -4.9490   15.4200    0.6330 C   0  0  0  0  0  0  0  0  0  0  0  0
   -1.5860   18.9100   -5.4700 C   0  0  0  0  0  0  0  0  0  0  0  0
   -1.0210   19.9300   -6.4470 C   0  0  0  0  0  0  0  0  0  0  0  0
   -1.7030   19.8900   -7.7720 C   0  0  0  0  0  0  0  0  0  0  0  0
   -1.3740   21.0500   -8.7140 C   0  0  0  0  0  0  0  0  0  0  0  0
   -2.5680   21.9120   -9.1120 C   0  0  2  0  0  0  0  0  0  0  0  0
   -3.0390   21.6010  -10.4320 O   0  0  0  0  0  0  0  0  0  0  0  0
   -2.2890   23.4030   -9.1070 C   0  0  1  0  0  0  0  0  0  0  0  0
   -0.9060   23.7060   -9.2340 O   0  0  0  0  0  0  0  0  0  0  0  0
   -3.8130   22.7000  -10.8790 C   0  0  2  0  0  0  0  0  0  0  0  0
   -3.3080   23.9200  -10.1660 C   0  0  2  0  0  0  0  0  0  0  0  0
   -5.1500   22.5920  -10.4820 O   0  0  0  0  0  0  0  0  0  0  0  0
   -2.8520   24.9160  -11.0980 O   0  0  0  0  0  0  0  0  0  0  0  0
  1  2  1  0
  2  3  2  0
  2  4  1  0
  3  5  1  0
  4  6  2  0
  3  7  1  0
  5  8  1  0
  6  9  1  0
  7  9  2  0
  7 10  1  0
  8 11  1  0
 10 12  1  0
  9 13  1  0
 11 14  1  0
 12 15  1  0
 13 15  1  0
 14 16  1  0
 16 17  1  0
 17 18  1  0
 18 19  1  0
 20 19  1  6
 20 21  1  0
 20 22  1  0
 22 23  1  6
 21 24  1  0
 22 25  1  0
 24 25  1  0
 24 26  1  1
 25 27  1  6
M  END
