EU0342_0_A_α-5CMS_0_G_α
     RDKit          3D

 24 24  0  0  0  0  0  0  0  0999 V2000
    0.3590   15.2270    0.5360 C   0  0  0  0  0  0  0  0  0  0  0  0
   -0.9020   15.1080   -0.1740 N   0  0  0  0  0  0  0  0  0  0  0  0
   -2.0260   15.0680    0.6170 C   0  0  0  0  0  0  0  0  0  0  0  0
   -0.7490   14.9040   -1.5850 C   0  0  0  0  0  0  0  0  0  0  0  0
   -1.8740   14.6220    1.8130 O   0  0  0  0  0  0  0  0  0  0  0  0
   -0.1880   16.0580   -2.3200 C   0  0  0  0  0  0  0  0  0  0  0  0
   -3.3840   15.4710    0.2550 C   0  0  2  0  0  0  0  0  0  0  0  0
   -0.9060   16.4260   -3.5700 C   0  0  0  0  0  0  0  0  0  0  0  0
   -4.3220   14.5170    0.9210 C   0  0  0  0  0  0  0  0  0  0  0  0
   -3.6250   15.4780   -1.1770 C   0  0  0  0  0  0  0  0  0  0  0  0
   -0.4370   17.8040   -4.0240 C   0  0  0  0  0  0  0  0  0  0  0  0
   -5.6820   14.9150    0.6280 N   0  0  0  0  0  0  0  0  0  0  0  0
   -4.8380   15.3260   -1.6380 C   0  0  0  0  0  0  0  0  0  0  0  0
   -1.5370   18.4400   -4.5390 O   0  0  0  0  0  0  0  0  0  0  0  0
   -5.9840   15.1500   -0.7600 C   0  0  0  0  0  0  0  0  0  0  0  0
   -7.1760   15.1920   -1.1010 O   0  0  0  0  0  0  0  0  0  0  0  0
   -1.5800   17.9880   -6.0680 P   0  0  0  0  0  0  0  0  0  0  0  0
   -0.1450   17.4560   -6.6660 O   0  0  0  0  0  0  0  0  0  0  0  0
   -2.9300   17.7680   -6.9390 O   0  0  0  0  0  0  0  0  0  0  0  0
   -1.3290   19.3600   -6.6230 O   0  0  0  0  0  0  0  0  0  0  0  0
   -0.2360   19.7070   -7.7220 P   0  0  0  0  0  0  0  0  0  0  0  0
   -1.2460   20.1500   -8.7850 O   0  0  0  0  0  0  0  0  0  0  0  0
    0.1490   18.5140   -8.8630 O   0  0  0  0  0  0  0  0  0  0  0  0
    0.6590   21.0700   -7.7800 O   0  0  0  0  0  0  0  0  0  0  0  0
  1  2  1  0
  2  3  1  0
  2  4  1  0
  3  5  2  0
  4  6  1  0
  7  3  1  6
  6  8  1  0
  7  9  1  0
  7 10  1  0
  8 11  1  0
  9 12  1  0
 10 13  2  0
 11 14  1  0
 12 15  1  0
 13 15  1  0
 15 16  2  0
 14 17  1  0
 17 18  1  0
 17 19  1  0
 17 20  1  0
 20 21  1  0
 21 22  1  0
 21 23  1  0
 21 24  1  0
M  CHG  1  23  -1
M  END
