EU0342_0_A_α-5CB5_0_N_β
     RDKit          3D

 24 24  0  0  0  0  0  0  0  0999 V2000
    0.3480   15.1290    0.6600 C   0  0  0  0  0  0  0  0  0  0  0  0
   -0.8900   15.3040   -0.0030 N   0  0  0  0  0  0  0  0  0  0  0  0
   -2.0430   15.0930    0.7500 C   0  0  0  0  0  0  0  0  0  0  0  0
   -0.8100   14.9280   -1.3780 C   0  0  0  0  0  0  0  0  0  0  0  0
   -1.8690   14.4850    1.8570 O   0  0  0  0  0  0  0  0  0  0  0  0
   -0.3140   15.9600   -2.2620 C   0  0  0  0  0  0  0  0  0  0  0  0
   -3.3970   15.4860    0.4130 C   0  0  2  0  0  0  0  0  0  0  0  0
   -1.1550   16.2680   -3.4160 C   0  0  0  0  0  0  0  0  0  0  0  0
   -4.4320   14.7010    1.1590 C   0  0  0  0  0  0  0  0  0  0  0  0
   -3.6130   15.4770   -1.0480 C   0  0  0  0  0  0  0  0  0  0  0  0
   -0.3860   17.1170   -4.3820 C   0  0  0  0  0  0  0  0  0  0  0  0
   -5.7480   14.8250    0.6150 N   0  0  0  0  0  0  0  0  0  0  0  0
   -4.7880   15.3150   -1.6070 C   0  0  0  0  0  0  0  0  0  0  0  0
   -0.8850   16.9160   -5.6120 O   0  0  0  0  0  0  0  0  0  0  0  0
   -5.9460   15.1360   -0.7550 C   0  0  0  0  0  0  0  0  0  0  0  0
   -7.1210   15.2520   -1.2010 O   0  0  0  0  0  0  0  0  0  0  0  0
   -1.8190   18.2060   -5.9970 P   0  0  0  0  0  0  0  0  0  0  0  0
   -0.5460   18.9140   -6.4290 O   0  0  0  0  0  0  0  0  0  0  0  0
   -2.4940   18.3270   -7.4190 O   0  0  0  0  0  0  0  0  0  0  0  0
   -2.1790   19.3130   -4.8510 O   0  0  0  0  0  0  0  0  0  0  0  0
   -0.5920   20.0380   -7.6420 P   0  0  0  0  0  0  0  0  0  0  0  0
   -1.8530   20.5160   -8.4260 O   0  0  0  0  0  0  0  0  0  0  0  0
   -0.0360   19.0040   -8.6320 O   0  0  0  0  0  0  0  0  0  0  0  0
    0.8660   20.8010   -7.9350 O   0  0  0  0  0  0  0  0  0  0  0  0
  1  2  1  0
  2  3  1  0
  2  4  1  0
  3  5  2  0
  4  6  1  0
  7  3  1  6
  6  8  1  0
  7  9  1  0
  7 10  1  0
  8 11  1  0
  9 12  1  0
 10 13  2  0
 11 14  1  0
 12 15  1  0
 13 15  1  0
 15 16  2  0
 14 17  1  0
 17 18  1  0
 17 19  1  0
 17 20  1  0
 18 21  1  0
 21 22  1  0
 21 23  1  0
 21 24  1  0
M  CHG  2  19  -1  23  -1
M  END
