EU0860_0_A_β-4IQY_0_A_γ
     RDKit          3D

 22 23  0  0  0  0  0  0  0  0999 V2000
    1.9940    9.5170  -11.2350 N   0  0  0  0  0  0  0  0  0  0  0  0
    2.7690    9.8650  -12.3440 C   0  0  0  0  0  0  0  0  0  0  0  0
    3.8440    9.0450  -12.6990 C   0  0  0  0  0  0  0  0  0  0  0  0
    2.4880   11.0120  -13.0910 C   0  0  0  0  0  0  0  0  0  0  0  0
    1.3110   11.8970  -12.7040 C   0  0  0  0  0  0  0  0  0  0  0  0
    3.3250   11.3190  -14.2060 C   0  0  0  0  0  0  0  0  0  0  0  0
    4.6530    9.3460  -13.7870 C   0  0  0  0  0  0  0  0  0  0  0  0
    1.1390   12.2400  -11.1960 C   0  0  0  0  0  0  0  0  0  0  0  0
    4.3990   10.4760  -14.5370 C   0  0  0  0  0  0  0  0  0  0  0  0
    5.2410   10.7050  -15.5870 O   0  0  0  0  0  0  0  0  0  0  0  0
    0.0600   11.5550  -10.2850 C   0  0  0  0  0  0  0  0  0  0  0  0
    0.5350   11.0470   -8.8800 C   0  0  0  0  0  0  0  0  0  0  0  0
   -0.1220   11.6030   -7.5600 C   0  0  0  0  0  0  0  0  0  0  0  0
    0.7810   12.2390   -6.4470 C   0  0  0  0  0  0  0  0  0  0  0  0
    0.4090   13.5960   -6.0450 O   0  0  0  0  0  0  0  0  0  0  0  0
    0.5180   13.8940   -4.6190 C   0  0  1  0  0  0  0  0  0  0  0  0
    0.8550   15.3800   -4.2900 C   0  0  1  0  0  0  0  0  0  0  0  0
   -0.8630   13.7790   -3.9900 C   0  0  1  0  0  0  0  0  0  0  0  0
   -1.2450   12.4380   -3.7550 O   0  0  0  0  0  0  0  0  0  0  0  0
    0.4300   16.4370   -5.2990 C   0  0  0  0  0  0  0  0  0  0  0  0
   -0.6920   14.5970   -2.7220 C   0  0  0  0  0  0  0  0  0  0  0  0
    0.1430   15.7100   -3.0730 O   0  0  0  0  0  0  0  0  0  0  0  0
  1  2  1  0
  2  3  2  0
  2  4  1  0
  4  5  1  0
  4  6  2  0
  3  7  1  0
  5  8  1  0
  6  9  1  0
  7  9  2  0
  9 10  1  0
  8 11  1  0
 11 12  1  0
 12 13  1  0
 13 14  1  0
 14 15  1  0
 16 15  1  6
 16 17  1  0
 16 18  1  0
 18 19  1  1
 17 20  1  6
 18 21  1  0
 17 22  1  0
 21 22  1  0
M  END
