EU0844_0_A_α-3Q6Z_0_A_β
     RDKit          3D

 28 29  0  0  0  0  0  0  0  0999 V2000
   -9.7270   14.5170    0.6880 C   0  0  0  0  0  0  0  0  0  0  0  0
   -8.2680   14.6840    0.9650 C   0  0  0  0  0  0  0  0  0  0  0  0
   -7.4060   14.6690   -0.1150 N   0  0  0  0  0  0  0  0  0  0  0  0
   -7.7180   14.8590    2.1970 C   0  0  0  0  0  0  0  0  0  0  0  0
   -8.4720   14.9230    3.4250 C   0  0  0  0  0  0  0  0  0  0  0  0
   -6.0720   14.8240   -0.0140 C   0  0  0  0  0  0  0  0  0  0  0  0
   -6.3210   15.0030    2.3250 C   0  0  0  0  0  0  0  0  0  0  0  0
   -9.5790   15.5890    3.3730 O   0  0  0  0  0  0  0  0  0  0  0  0
   -8.0810   14.3680    4.6360 N   0  0  0  0  0  0  0  0  0  0  0  0
   -5.5190   14.9880    1.2310 C   0  0  0  0  0  0  0  0  0  0  0  0
   -5.2200   14.8340   -1.1330 C   0  0  0  0  0  0  0  0  0  0  0  0
   -8.5650   14.9780    5.9040 C   0  0  0  0  0  0  0  0  0  0  0  0
   -3.8630   15.0020   -1.0610 C   0  0  0  0  0  0  0  0  0  0  0  0
   -4.1510   15.1490    1.3340 C   0  0  0  0  0  0  0  0  0  0  0  0
   -2.9710   15.0390   -2.0700 O   0  0  0  0  0  0  0  0  0  0  0  0
   -3.3450   15.1590    0.2340 C   0  0  0  0  0  0  0  0  0  0  0  0
   -1.6040   15.1770   -2.1050 C   0  0  0  0  0  0  0  0  0  0  0  0
   -0.9830   16.1190   -3.1500 C   0  0  0  0  0  0  0  0  0  0  0  0
   -2.0730   16.5910   -4.1100 C   0  0  0  0  0  0  0  0  0  0  0  0
   -1.8160   17.8880   -4.5070 O   0  0  0  0  0  0  0  0  0  0  0  0
   -1.3470   17.8710   -6.0330 P   0  0  0  0  0  0  0  0  0  0  0  0
   -0.7540   19.2790   -6.3220 O   0  0  0  0  0  0  0  0  0  0  0  0
    0.1680   17.2500   -6.3690 O   0  0  0  0  0  0  0  0  0  0  0  0
   -2.4420   18.0720   -7.2190 O   0  0  0  0  0  0  0  0  0  0  0  0
   -0.5690   19.8520   -7.7780 P   0  0  0  0  0  0  0  0  0  0  0  0
   -1.9530   20.7030   -7.8060 O   0  0  0  0  0  0  0  0  0  0  0  0
   -0.4290   18.3960   -8.4570 O   0  0  0  0  0  0  0  0  0  0  0  0
    0.8540   20.6390   -7.3900 O   0  0  0  0  0  0  0  0  0  0  0  0
  1  2  1  0
  2  3  2  0
  2  4  1  0
  4  5  1  0
  3  6  1  0
  4  7  2  0
  5  8  2  0
  5  9  1  0
  6 10  2  0
  7 10  1  0
  6 11  1  0
  9 12  1  0
 11 13  2  0
 10 14  1  0
 13 15  1  0
 13 16  1  0
 14 16  2  0
 15 17  1  0
 17 18  1  0
 18 19  1  0
 19 20  1  0
 20 21  1  0
 21 22  1  0
 21 23  1  0
 21 24  1  0
 22 25  1  0
 25 26  1  0
 25 27  1  0
 25 28  1  0
M  CHG  1  27  -1
M  END
