EU0860_0_A_β-5CMS_0_K_γ
     RDKit          3D

 22 23  0  0  0  0  0  0  0  0999 V2000
    2.1460    9.4000  -11.2410 N   0  0  0  0  0  0  0  0  0  0  0  0
    2.8540    9.8060  -12.3710 C   0  0  0  0  0  0  0  0  0  0  0  0
    3.9300    9.0220  -12.8020 C   0  0  0  0  0  0  0  0  0  0  0  0
    2.5130   10.9650  -13.0650 C   0  0  0  0  0  0  0  0  0  0  0  0
    1.3310   11.8030  -12.5940 C   0  0  0  0  0  0  0  0  0  0  0  0
    3.2860   11.3280  -14.2060 C   0  0  0  0  0  0  0  0  0  0  0  0
    4.6800    9.3770  -13.9160 C   0  0  0  0  0  0  0  0  0  0  0  0
    1.2260   12.1330  -11.0830 C   0  0  0  0  0  0  0  0  0  0  0  0
    4.3610   10.5240  -14.6140 C   0  0  0  0  0  0  0  0  0  0  0  0
    5.1300   10.8270  -15.7010 O   0  0  0  0  0  0  0  0  0  0  0  0
    0.5460   11.1810  -10.0240 C   0  0  0  0  0  0  0  0  0  0  0  0
    1.2680   10.9560   -8.6390 C   0  0  0  0  0  0  0  0  0  0  0  0
    0.5830   11.5200   -7.3370 C   0  0  0  0  0  0  0  0  0  0  0  0
    1.4520   12.3310   -6.3150 C   0  0  0  0  0  0  0  0  0  0  0  0
    0.8260   12.6520   -5.0680 O   0  0  0  0  0  0  0  0  0  0  0  0
    0.0940   13.9120   -5.1720 C   0  0  2  0  0  0  0  0  0  0  0  0
    0.8500   15.1300   -4.5800 C   0  0  1  0  0  0  0  0  0  0  0  0
   -1.1230   13.7950   -4.2720 C   0  0  1  0  0  0  0  0  0  0  0  0
   -1.5470   12.4500   -4.1550 O   0  0  0  0  0  0  0  0  0  0  0  0
    0.6460   16.4350   -5.3450 C   0  0  0  0  0  0  0  0  0  0  0  0
   -0.6630   14.3980   -2.9560 C   0  0  0  0  0  0  0  0  0  0  0  0
    0.3290   15.3860   -3.2570 O   0  0  0  0  0  0  0  0  0  0  0  0
  1  2  1  0
  2  3  2  0
  2  4  1  0
  4  5  1  0
  4  6  2  0
  3  7  1  0
  5  8  1  0
  6  9  1  0
  7  9  2  0
  9 10  1  0
  8 11  1  0
 11 12  1  0
 12 13  1  0
 13 14  1  0
 14 15  1  0
 16 15  1  1
 16 17  1  0
 16 18  1  0
 18 19  1  1
 17 20  1  6
 18 21  1  0
 17 22  1  0
 21 22  1  0
M  END
