EU0860_0_A_α-x0766_0_A_α
     RDKit          3D

 24 26  0  0  0  0  0  0  0  0999 V2000
    1.7950    9.0810  -10.2600 C   0  0  0  0  0  0  0  0  0  0  0  0
    0.8930    9.4600   -9.1990 C   0  0  0  0  0  0  0  0  0  0  0  0
   -0.0980    8.7030   -8.6030 C   0  0  0  0  0  0  0  0  0  0  0  0
    2.2700    7.9590  -10.3920 O   0  0  0  0  0  0  0  0  0  0  0  0
    0.8170   10.6880   -8.5330 C   0  0  0  0  0  0  0  0  0  0  0  0
   -0.6790    9.5100   -7.6600 N   0  0  0  0  0  0  0  0  0  0  0  0
   -0.1300   10.7310   -7.5990 N   0  0  0  0  0  0  0  0  0  0  0  0
   -1.7820    9.1890   -6.7690 C   0  0  0  0  0  0  0  0  0  0  0  0
   -1.4510    8.9270   -5.2930 C   0  0  0  0  0  0  0  0  0  0  0  0
   -0.5800    9.9610   -4.5630 C   0  0  0  0  0  0  0  0  0  0  0  0
   -1.2020   10.6900   -3.3700 C   0  0  0  0  0  0  0  0  0  0  0  0
   -0.1190   10.9490   -2.4420 O   0  0  0  0  0  0  0  0  0  0  0  0
    0.4710   12.1930   -2.5750 C   0  0  0  0  0  0  0  0  0  0  0  0
    1.2340   12.6700   -1.7530 O   0  0  0  0  0  0  0  0  0  0  0  0
    0.1210   12.9720   -3.8450 C   0  0  2  0  0  0  0  0  0  0  0  0
    1.3910   13.2840   -4.6620 C   0  0  0  0  0  0  0  0  0  0  0  0
   -0.5180   14.3680   -3.6140 C   0  0  2  0  0  0  0  0  0  0  0  0
    1.6490   14.7860   -4.5020 C   0  0  0  0  0  0  0  0  0  0  0  0
    0.7010   15.2710   -3.4290 C   0  0  0  0  0  0  0  0  0  0  0  0
   -1.5770   14.5260   -2.5510 C   0  0  0  0  0  0  0  0  0  0  0  0
   -2.9350   14.7050   -2.7570 C   0  0  0  0  0  0  0  0  0  0  0  0
   -1.2900   14.5190   -1.1380 C   0  0  0  0  0  0  0  0  0  0  0  0
   -2.4140   14.6900   -0.3590 C   0  0  0  0  0  0  0  0  0  0  0  0
   -3.8220   14.8640   -1.3050 S   0  0  0  0  0  0  0  0  0  0  0  0
  1  2  1  0
  2  3  2  0
  1  4  2  0
  2  5  1  0
  3  6  1  0
  5  7  2  0
  6  7  1  0
  6  8  1  0
  8  9  1  0
  9 10  1  0
 10 11  1  0
 11 12  1  0
 12 13  1  0
 13 14  2  0
 15 13  1  1
 15 16  1  0
 15 17  1  0
 16 18  1  0
 17 19  1  0
 18 19  1  0
 17 20  1  1
 20 21  2  0
 20 22  1  0
 22 23  2  0
 21 24  1  0
 23 24  1  0
M  END
