EU0815_0_A_β-mac-194_0_A_α
     RDKit          3D

 13 14  0  0  0  0  0  0  0  0999 V2000
   -6.3750   15.8550   -1.5900 F   0  0  0  0  0  0  0  0  0  0  0  0
   -6.1100   14.7320   -0.8770 C   0  0  1  0  0  0  0  0  0  0  0  0
   -7.1120   14.6290    0.2370 C   0  0  0  0  0  0  0  0  0  0  0  0
   -5.9130   13.6170   -1.8600 C   0  0  0  0  0  0  0  0  0  0  0  0
   -4.8420   14.8470   -0.0940 C   0  0  0  0  0  0  0  0  0  0  0  0
   -6.4890   14.7300    1.4280 C   0  0  0  0  0  0  0  0  0  0  0  0
   -5.0690   14.8750    1.2120 C   0  0  0  0  0  0  0  0  0  0  0  0
   -3.6360   14.8940   -0.8390 C   0  0  0  0  0  0  0  0  0  0  0  0
   -4.6800   13.3650   -2.3510 C   0  0  0  0  0  0  0  0  0  0  0  0
   -7.0190   14.7010    2.6840 N   0  0  0  0  0  0  0  0  0  0  0  0
   -2.5020   15.6900   -0.4600 C   0  0  0  0  0  0  0  0  0  0  0  0
   -3.5670   14.1610   -1.9360 C   0  0  0  0  0  0  0  0  0  0  0  0
   -1.7150   15.8550   -1.7430 C   0  0  0  0  0  0  0  0  0  0  0  0
  2  1  1  6
  2  3  1  0
  2  4  1  0
  2  5  1  0
  3  6  2  0
  5  7  2  0
  6  7  1  0
  5  8  1  0
  4  9  2  0
  6 10  1  0
  8 11  1  0
  8 12  2  0
  9 12  1  0
 11 13  1  0
M  END
