EU0860_0_A_α-x0962_3_A_α
     RDKit          3D

  9  9  0  0  0  0  0  0  0  0999 V2000
    1.6980    9.5190  -10.1130 C   0  0  0  0  0  0  0  0  0  0  0  0
    0.7600    9.5710   -9.0110 C   0  0  0  0  0  0  0  0  0  0  0  0
   -0.3040    8.7090   -8.8450 C   0  0  0  0  0  0  0  0  0  0  0  0
    2.2550    8.4890  -10.4980 O   0  0  0  0  0  0  0  0  0  0  0  0
    0.6550   10.4300   -7.8760 C   0  0  0  0  0  0  0  0  0  0  0  0
   -0.9250    9.1000   -7.6950 N   0  0  0  0  0  0  0  0  0  0  0  0
   -0.3610   10.1380   -7.1050 N   0  0  0  0  0  0  0  0  0  0  0  0
    1.4300   11.4280   -7.5320 N   0  0  0  0  0  0  0  0  0  0  0  0
   -2.0860    8.5290   -7.0700 C   0  0  0  0  0  0  0  0  0  0  0  0
  1  2  1  0
  2  3  2  0
  1  4  2  0
  2  5  1  0
  3  6  1  0
  5  7  2  0
  6  7  1  0
  5  8  1  0
  6  9  1  0
M  END
