EU0860_0_A_β-5CMS_0_E_β
     RDKit          3D

 23 23  0  0  0  0  0  0  0  0999 V2000
    2.4090    8.6350  -11.1760 N   0  0  0  0  0  0  0  0  0  0  0  0
    2.8910    9.3520  -12.2880 C   0  0  0  0  0  0  0  0  0  0  0  0
    3.7720    8.6570  -13.1110 C   0  0  0  0  0  0  0  0  0  0  0  0
    2.5500   10.6760  -12.5790 C   0  0  0  0  0  0  0  0  0  0  0  0
    1.6330   11.4620  -11.7290 C   0  0  0  0  0  0  0  0  0  0  0  0
    3.1320   11.2100  -13.7050 C   0  0  0  0  0  0  0  0  0  0  0  0
    4.3400    9.2080  -14.2320 C   0  0  0  0  0  0  0  0  0  0  0  0
    1.4880   12.8540  -12.3110 C   0  0  0  0  0  0  0  0  0  0  0  0
    4.0030   10.5300  -14.5280 C   0  0  0  0  0  0  0  0  0  0  0  0
    4.5740   11.0900  -15.6780 O   0  0  0  0  0  0  0  0  0  0  0  0
    0.8960   13.8820  -11.4270 C   0  0  0  0  0  0  0  0  0  0  0  0
    1.3660   15.4520  -11.0650 C   0  0  0  0  0  0  0  0  0  0  0  0
    0.7200   17.2940  -10.3730 C   0  0  0  0  0  0  0  0  0  0  0  0
    0.3650   18.4290   -9.0120 C   0  0  0  0  0  0  0  0  0  0  0  0
   -0.8380   18.5020   -8.4280 O   0  0  0  0  0  0  0  0  0  0  0  0
   -1.0020   19.3130   -7.1160 P   0  0  0  0  0  0  0  0  0  0  0  0
    0.4540   18.9130   -6.4690 O   0  0  0  0  0  0  0  0  0  0  0  0
   -2.3020   18.3850   -6.8380 O   0  0  0  0  0  0  0  0  0  0  0  0
   -1.2240   20.7080   -7.9550 O   0  0  0  0  0  0  0  0  0  0  0  0
   -2.0440   17.3980   -5.5480 P   0  0  0  0  0  0  0  0  0  0  0  0
   -0.5940   16.6320   -5.4130 O   0  0  0  0  0  0  0  0  0  0  0  0
   -2.7680   16.3530   -6.4090 O   0  0  0  0  0  0  0  0  0  0  0  0
   -1.6620   18.6280   -4.7150 O   0  0  0  0  0  0  0  0  0  0  0  0
  1  2  1  0
  2  3  2  0
  2  4  1  0
  4  5  1  0
  4  6  2  0
  3  7  1  0
  5  8  1  0
  6  9  1  0
  7  9  2  0
  9 10  1  0
  8 11  1  0
 11 12  1  0
 12 13  1  0
 13 14  1  0
 14 15  1  0
 15 16  1  0
 16 17  1  0
 16 18  1  0
 16 19  1  0
 18 20  1  0
 20 21  1  0
 20 22  1  0
 20 23  1  0
M  CHG  2  19  -1  22  -1
M  END
