EU0960_0_A_α-5dus_0_A_β
     RDKit          3D

 31 32  0  0  0  0  0  0  0  0999 V2000
   -2.2680   10.1480   -4.9330 C   0  0  0  0  0  0  0  0  0  0  0  0
   -1.1020   10.4220   -5.8230 C   0  0  0  0  0  0  0  0  0  0  0  0
   -0.7850    9.5480   -6.8930 N   0  0  0  0  0  0  0  0  0  0  0  0
   -0.2290   11.4480   -5.7670 C   0  0  0  0  0  0  0  0  0  0  0  0
   -1.8720    8.9050   -7.6550 C   0  0  0  0  0  0  0  0  0  0  0  0
   -0.2570   12.5210   -4.8000 N   0  0  0  0  0  0  0  0  0  0  0  0
    0.7310   11.2540   -6.8770 C   0  0  0  0  0  0  0  0  0  0  0  0
    0.1600   10.2670   -7.7010 N   0  0  0  0  0  0  0  0  0  0  0  0
    1.7750   11.8550   -6.9620 O   0  0  0  0  0  0  0  0  0  0  0  0
    0.7340   12.1980   -3.4020 S   0  0  0  0  0  0  0  0  0  0  0  0
    0.0690   13.8850   -5.3680 C   0  0  0  0  0  0  0  0  0  0  0  0
    0.8570    9.6120   -8.7490 C   0  0  0  0  0  0  0  0  0  0  0  0
    0.6900   10.7740   -3.1490 O   0  0  0  0  0  0  0  0  0  0  0  0
    0.3640   13.1010   -2.3390 O   0  0  0  0  0  0  0  0  0  0  0  0
    2.3750   12.6740   -3.9500 C   0  0  0  0  0  0  0  0  0  0  0  0
    0.2730   14.9770   -4.3010 C   0  0  0  0  0  0  0  0  0  0  0  0
    1.2830   10.3100   -9.8890 C   0  0  0  0  0  0  0  0  0  0  0  0
    1.1460    8.2430   -8.6780 C   0  0  0  0  0  0  0  0  0  0  0  0
    0.2050   16.3850   -4.8980 C   0  0  0  0  0  0  0  0  0  0  0  0
    1.9770    9.6650  -10.9180 C   0  0  0  0  0  0  0  0  0  0  0  0
    1.8410    7.5970   -9.7060 C   0  0  0  0  0  0  0  0  0  0  0  0
   -1.1580   16.8020   -4.9070 O   0  0  0  0  0  0  0  0  0  0  0  0
    2.2580    8.3060  -10.8250 C   0  0  0  0  0  0  0  0  0  0  0  0
   -1.5990   18.0810   -5.7840 P   0  0  1  0  0  0  0  0  0  0  0  0
   -0.2440   18.7650   -6.2480 O   0  0  0  0  0  0  0  0  0  0  0  0
   -2.6110   17.7830   -6.8270 O   0  0  0  0  0  0  0  0  0  0  0  0
   -2.1140   19.1140   -4.6890 O   0  0  0  0  0  0  0  0  0  0  0  0
   -0.1380   19.6560   -7.5480 P   0  0  0  0  0  0  0  0  0  0  0  0
   -1.5840   20.2030   -7.9260 O   0  0  0  0  0  0  0  0  0  0  0  0
    0.9650   20.6710   -7.5320 O   0  0  0  0  0  0  0  0  0  0  0  0
    0.0880   18.5740   -8.7030 O   0  0  0  0  0  0  0  0  0  0  0  0
  1  2  1  0
  2  3  1  0
  2  4  2  0
  3  5  1  0
  4  6  1  0
  4  7  1  0
  3  8  1  0
  7  8  1  0
  7  9  2  0
 10  6  1  0
  6 11  1  0
  8 12  1  0
 10 13  2  0
 10 14  2  0
 10 15  1  0
 11 16  1  0
 12 17  2  0
 12 18  1  0
 16 19  1  0
 17 20  1  0
 18 21  2  0
 19 22  1  0
 20 23  2  0
 21 23  1  0
 22 24  1  0
 24 25  1  0
 24 26  2  0
 24 27  1  1
 25 28  1  0
 28 29  1  0
 28 30  2  0
 28 31  1  0
M  END
