EU0906_0_A_α-5CB5_0_O_γ
     RDKit          3D

 19 20  0  0  0  0  0  0  0  0999 V2000
    1.5360   10.6110  -10.5710 N   0  0  0  0  0  0  0  0  0  0  0  0
    0.5670   10.3170   -9.6920 C   0  0  0  0  0  0  0  0  0  0  0  0
    0.5930    9.3190   -8.7580 C   0  0  0  0  0  0  0  0  0  0  0  0
   -0.6710   10.9560   -9.5280 C   0  0  0  0  0  0  0  0  0  0  0  0
   -0.6050    9.4020   -8.0880 N   0  0  0  0  0  0  0  0  0  0  0  0
   -1.3940   10.4020   -8.5520 N   0  0  0  0  0  0  0  0  0  0  0  0
   -1.0800    8.5670   -6.9840 C   0  0  1  0  0  0  0  0  0  0  0  0
   -0.1240    7.4030   -6.7280 C   0  0  0  0  0  0  0  0  0  0  0  0
   -1.2820    9.3560   -5.6700 C   0  0  0  0  0  0  0  0  0  0  0  0
   -1.1390   10.8790   -5.8010 C   0  0  0  0  0  0  0  0  0  0  0  0
   -0.3730   11.5520   -4.6710 C   0  0  0  0  0  0  0  0  0  0  0  0
   -1.0420   12.7490   -4.3060 O   0  0  0  0  0  0  0  0  0  0  0  0
   -0.1660   13.7650   -3.8350 C   0  0  2  0  0  0  0  0  0  0  0  0
   -0.8230   14.9210   -3.1140 C   0  0  0  0  0  0  0  0  0  0  0  0
    0.4380   14.4740   -5.0300 C   0  0  2  0  0  0  0  0  0  0  0  0
    1.5880   13.7300   -5.4390 O   0  0  0  0  0  0  0  0  0  0  0  0
    0.0900   16.0210   -3.2310 O   0  0  0  0  0  0  0  0  0  0  0  0
    0.8500   15.8390   -4.4440 C   0  0  2  0  0  0  0  0  0  0  0  0
    0.5570   17.0370   -5.3390 C   0  0  0  0  0  0  0  0  0  0  0  0
  1  2  1  0
  2  3  2  0
  2  4  1  0
  3  5  1  0
  4  6  2  0
  5  6  1  0
  5  7  1  0
  7  8  1  1
  7  9  1  0
  9 10  1  0
 10 11  1  0
 11 12  1  0
 13 12  1  6
 13 14  1  0
 13 15  1  0
 15 16  1  1
 14 17  1  0
 15 18  1  0
 17 18  1  0
 18 19  1  6
M  END
