EU0960_0_A_α-5CB5_0_E_β
     RDKit          3D

 31 32  0  0  0  0  0  0  0  0999 V2000
   -2.3820   10.2190   -5.0000 C   0  0  0  0  0  0  0  0  0  0  0  0
   -1.2540   10.4330   -5.9170 C   0  0  0  0  0  0  0  0  0  0  0  0
   -0.9410    9.7070   -7.0220 N   0  0  0  0  0  0  0  0  0  0  0  0
   -0.2850   11.4580   -5.7890 C   0  0  0  0  0  0  0  0  0  0  0  0
   -1.7430    8.6130   -7.5200 C   0  0  0  0  0  0  0  0  0  0  0  0
   -0.2340   12.4700   -4.7490 N   0  0  0  0  0  0  0  0  0  0  0  0
    0.5470   11.2410   -6.8420 C   0  0  0  0  0  0  0  0  0  0  0  0
    0.0640   10.2400   -7.6560 N   0  0  0  0  0  0  0  0  0  0  0  0
    1.6160   11.8180   -7.0820 O   0  0  0  0  0  0  0  0  0  0  0  0
    0.8440   12.2300   -3.4170 S   0  0  0  0  0  0  0  0  0  0  0  0
   -1.2800   13.4450   -4.4870 C   0  0  0  0  0  0  0  0  0  0  0  0
    0.8040    9.6450   -8.7140 C   0  0  0  0  0  0  0  0  0  0  0  0
    0.7660   10.7920   -3.0340 O   0  0  0  0  0  0  0  0  0  0  0  0
    0.4260   13.0080   -2.2360 O   0  0  0  0  0  0  0  0  0  0  0  0
    2.4890   12.6790   -3.9470 C   0  0  0  0  0  0  0  0  0  0  0  0
   -1.2510   14.6640   -5.3020 C   0  0  0  0  0  0  0  0  0  0  0  0
    1.2170   10.3300   -9.8410 C   0  0  0  0  0  0  0  0  0  0  0  0
    1.1510    8.3020   -8.6530 C   0  0  0  0  0  0  0  0  0  0  0  0
   -1.2860   16.0500   -4.7340 C   0  0  0  0  0  0  0  0  0  0  0  0
    1.9320    9.6880  -10.8350 C   0  0  0  0  0  0  0  0  0  0  0  0
    1.8570    7.6600   -9.6260 C   0  0  0  0  0  0  0  0  0  0  0  0
   -0.4960   16.9300   -5.4970 O   0  0  0  0  0  0  0  0  0  0  0  0
    2.2670    8.3430  -10.7460 C   0  0  0  0  0  0  0  0  0  0  0  0
   -1.3290   18.1350   -6.2560 P   0  0  0  0  0  0  0  0  0  0  0  0
   -0.6930   19.6020   -6.6240 O   0  0  0  0  0  0  0  0  0  0  0  0
   -2.0040   18.5950   -5.0060 O   0  0  0  0  0  0  0  0  0  0  0  0
   -2.8430   17.8040   -6.8050 O   0  0  0  0  0  0  0  0  0  0  0  0
   -0.2690   19.9660   -8.0640 P   0  0  0  0  0  0  0  0  0  0  0  0
   -1.6600   20.8220   -8.3350 O   0  0  0  0  0  0  0  0  0  0  0  0
    1.0590   20.7860   -7.4810 O   0  0  0  0  0  0  0  0  0  0  0  0
   -0.1210   18.4750   -8.6320 O   0  0  0  0  0  0  0  0  0  0  0  0
  1  2  1  0
  2  3  1  0
  2  4  2  0
  3  5  1  0
  4  6  1  0
  4  7  1  0
  3  8  1  0
  7  8  1  0
  7  9  2  0
 10  6  1  0
  6 11  1  0
  8 12  1  0
 10 13  2  0
 10 14  2  0
 10 15  1  0
 11 16  1  0
 12 17  2  0
 12 18  1  0
 16 19  1  0
 17 20  1  0
 18 21  2  0
 19 22  1  0
 20 23  2  0
 21 23  1  0
 22 24  1  0
 24 25  1  0
 24 26  1  0
 24 27  1  0
 25 28  1  0
 28 29  1  0
 28 30  1  0
 28 31  1  0
M  CHG  2  26  -1  30  -1
M  END
