mac-x0392-mac-x0357
     RDKit          3D

 19 20  0  0  0  0  0  0  0  0999 V2000
   29.0900   47.5600   -7.9740 N   0  0  0  0  0  0  0  0  0  0  0  0
   29.5620   48.4710   -7.0250 C   0  0  0  0  0  0  0  0  0  0  0  0
   29.7140   49.8180   -7.3600 C   0  0  0  0  0  0  0  0  0  0  0  0
   29.9080   48.1170   -5.7080 C   0  0  0  0  0  0  0  0  0  0  0  0
   29.7820   46.7000   -5.2450 C   0  0  0  0  0  0  0  0  0  0  0  0
   30.3740   49.1020   -4.8220 C   0  0  0  0  0  0  0  0  0  0  0  0
   30.1580   50.7870   -6.5270 N   0  0  0  0  0  0  0  0  0  0  0  0
   28.7270   46.3020   -4.7430 O   0  0  0  0  0  0  0  0  0  0  0  0
   30.8690   45.8240   -5.3850 N   0  0  0  0  0  0  0  0  0  0  0  0
   30.4780   50.4040   -5.2750 C   0  0  0  0  0  0  0  0  0  0  0  0
   30.9050   45.2010   -6.6700 O   0  0  0  0  0  0  0  0  0  0  0  0
   32.1620   45.9230   -4.7910 C   0  0  0  0  0  0  0  0  0  0  0  0
   32.8340   44.7610   -4.3340 C   0  0  0  0  0  0  0  0  0  0  0  0
   32.7870   47.1770   -4.6490 C   0  0  0  0  0  0  0  0  0  0  0  0
   32.2080   43.3950   -4.4610 C   0  0  0  0  0  0  0  0  0  0  0  0
   34.0500   47.2930   -4.0710 C   0  0  0  0  0  0  0  0  0  0  0  0
   34.1070   44.9080   -3.7540 C   0  0  0  0  0  0  0  0  0  0  0  0
   34.8370   43.8510   -3.2830 O   0  0  0  0  0  0  0  0  0  0  0  0
   34.7080   46.1570   -3.6230 C   0  0  0  0  0  0  0  0  0  0  0  0
  1  2  1  0
  2  3  2  0
  2  4  1  0
  4  5  1  0
  4  6  2  0
  3  7  1  0
  5  8  2  0
  5  9  1  0
  6 10  1  0
  7 10  2  0
  9 11  1  0
  9 12  1  0
 12 13  2  0
 12 14  1  0
 13 15  1  0
 14 16  2  0
 13 17  1  0
 17 18  1  0
 16 19  1  0
 17 19  2  0
M  END
