mac-x0163-mac-x0301
     RDKit          3D

 24 27  0  0  0  0  0  0  0  0999 V2000
   31.2400   50.8500   -6.6550 Cl  0  0  0  0  0  0  0  0  0  0  0  0
   29.8720   49.7950   -6.1340 C   0  0  1  0  0  0  0  0  0  0  0  0
   28.8170   49.8630   -7.2600 C   0  0  0  0  0  0  0  0  0  0  0  0
   30.2780   48.2730   -5.7720 C   0  0  1  0  0  0  0  0  0  0  0  0
   29.2630   50.5890   -4.9850 C   0  0  0  0  0  0  0  0  0  0  0  0
   28.2130   51.0570   -7.5710 N   0  0  0  0  0  0  0  0  0  0  0  0
   29.7820   47.3030   -6.8040 N   0  0  0  0  0  0  0  0  0  0  0  0
   28.4370   48.8470   -7.9710 N   0  0  0  0  0  0  0  0  0  0  0  0
   31.7440   47.9760   -5.5710 N   0  0  0  0  0  0  0  0  0  0  0  0
   29.4240   47.7650   -4.5860 C   0  0  0  0  0  0  0  0  0  0  0  0
   28.7470   50.0050   -3.8990 C   0  0  0  0  0  0  0  0  0  0  0  0
   29.2830   46.3250   -4.2580 C   0  0  0  0  0  0  0  0  0  0  0  0
   28.9740   47.6260   -7.7430 C   0  0  0  0  0  0  0  0  0  0  0  0
   32.2140   46.7410   -6.2430 C   0  0  0  0  0  0  0  0  0  0  0  0
   32.5010   48.2610   -4.3100 C   0  0  0  0  0  0  0  0  0  0  0  0
   28.7400   48.5760   -3.7530 C   0  0  0  0  0  0  0  0  0  0  0  0
   28.8920   45.5640   -5.3040 O   0  0  0  0  0  0  0  0  0  0  0  0
   29.4960   45.8590   -3.1470 O   0  0  0  0  0  0  0  0  0  0  0  0
   33.3500   46.0260   -5.5140 C   0  0  0  0  0  0  0  0  0  0  0  0
   33.8890   48.8500   -4.7600 C   0  0  0  0  0  0  0  0  0  0  0  0
   32.2710   49.6250   -3.5980 C   0  0  0  0  0  0  0  0  0  0  0  0
   32.6270   47.0780   -3.3320 C   0  0  0  0  0  0  0  0  0  0  0  0
   33.0080   45.7890   -4.0510 C   0  0  0  0  0  0  0  0  0  0  0  0
   33.7930   49.8560   -3.6060 C   0  0  0  0  0  0  0  0  0  0  0  0
  2  1  1  6
  2  3  1  0
  2  4  1  0
  2  5  1  0
  3  6  1  0
  4  7  1  0
  3  8  2  0
  4  9  1  1
  4 10  1  0
  5 11  2  0
 10 12  1  0
  7 13  2  0
  8 13  1  0
  9 14  1  0
 15  9  1  0
 10 16  2  0
 11 16  1  0
 12 17  1  0
 12 18  2  0
 14 19  1  0
 15 20  1  0
 15 21  1  0
 15 22  1  0
 19 23  1  0
 22 23  1  0
 20 24  1  0
 21 24  1  0
M  END
