mac-x0496-mac-x0441
     RDKit          3D

 39 42  0  0  0  0  0  0  0  0999 V2000
   24.6130   58.6270   -6.2180 C   0  0  0  0  0  0  0  0  0  0  0  0
   25.9150   58.3240   -5.5940 C   0  0  0  0  0  0  0  0  0  0  0  0
   26.3010   58.8680   -4.4280 N   0  0  0  0  0  0  0  0  0  0  0  0
   26.8200   57.4630   -6.1670 N   0  0  0  0  0  0  0  0  0  0  0  0
   27.5670   58.3150   -4.2230 O   0  0  0  0  0  0  0  0  0  0  0  0
   27.8070   57.4940   -5.2910 C   0  0  0  0  0  0  0  0  0  0  0  0
   29.1070   56.7740   -5.3130 C   0  0  0  0  0  0  0  0  0  0  0  0
   28.8700   55.3640   -5.5740 N   0  0  0  0  0  0  0  0  0  0  0  0
   29.2490   54.3930   -4.6780 C   0  0  0  0  0  0  0  0  0  0  0  0
   29.7540   54.6720   -3.5940 O   0  0  0  0  0  0  0  0  0  0  0  0
   29.0280   52.9630   -5.0610 C   0  0  0  0  0  0  0  0  0  0  0  0
   28.4880   52.6930   -6.3280 C   0  0  0  0  0  0  0  0  0  0  0  0
   29.3360   51.8910   -4.2140 C   0  0  0  0  0  0  0  0  0  0  0  0
   28.2590   51.3750   -6.7450 C   0  0  0  0  0  0  0  0  0  0  0  0
   29.1050   50.5710   -4.6330 C   0  0  0  0  0  0  0  0  0  0  0  0
   29.4420   49.4760   -3.7160 C   0  0  0  0  0  0  0  0  0  0  0  0
   28.5670   50.3100   -5.8960 C   0  0  0  0  0  0  0  0  0  0  0  0
   29.6210   48.2250   -3.8820 N   0  0  0  0  0  0  0  0  0  0  0  0
   29.5790   49.9450   -2.4610 O   0  0  0  0  0  0  0  0  0  0  0  0
   29.9590   47.3160   -2.7880 C   0  0  0  0  0  0  0  0  0  0  0  0
   31.4450   46.9390   -2.8170 C   0  0  0  0  0  0  0  0  0  0  0  0
   31.7220   45.6420   -3.6000 C   0  0  0  0  0  0  0  0  0  0  0  0
   33.0070   45.6210   -4.4510 C   0  0  2  0  0  0  0  0  0  0  0  0
   32.9430   44.9460   -5.8080 C   0  0  0  0  0  0  0  0  0  0  0  0
   34.1980   45.2710   -3.6620 N   0  0  0  0  0  0  0  0  0  0  0  0
   34.0420   45.0810   -6.5830 O   0  0  0  0  0  0  0  0  0  0  0  0
   31.9940   44.3130   -6.2470 O   0  0  0  0  0  0  0  0  0  0  0  0
   34.3180   43.9940   -3.2100 N   0  0  0  0  0  0  0  0  0  0  0  0
   35.2580   46.0530   -3.2870 C   0  0  0  0  0  0  0  0  0  0  0  0
   35.4840   43.9630   -2.5280 C   0  0  0  0  0  0  0  0  0  0  0  0
   36.1020   45.2380   -2.5560 C   0  0  0  0  0  0  0  0  0  0  0  0
   35.4960   47.4950   -3.5810 C   0  0  0  0  0  0  0  0  0  0  0  0
   36.0170   42.7230   -1.8470 C   0  0  0  0  0  0  0  0  0  0  0  0
   37.3840   45.7110   -1.9600 C   0  0  0  0  0  0  0  0  0  0  0  0
   36.6710   48.0300   -2.7350 C   0  0  0  0  0  0  0  0  0  0  0  0
   37.0750   42.1550   -2.4890 F   0  0  0  0  0  0  0  0  0  0  0  0
   36.4350   42.9940   -0.5780 F   0  0  0  0  0  0  0  0  0  0  0  0
   35.0680   41.7480   -1.7320 F   0  0  0  0  0  0  0  0  0  0  0  0
   37.8340   47.0250   -2.6240 C   0  0  0  0  0  0  0  0  0  0  0  0
  1  2  1  0
  2  3  2  0
  2  4  1  0
  3  5  1  0
  4  6  2  0
  5  6  1  0
  6  7  1  0
  7  8  1  0
  8  9  1  0
  9 10  2  0
  9 11  1  0
 11 12  2  0
 11 13  1  0
 12 14  1  0
 13 15  2  0
 15 16  1  0
 14 17  2  0
 15 17  1  0
 16 18  2  3
 16 19  1  0
 18 20  1  0
 20 21  1  0
 21 22  1  0
 23 22  1  1
 23 24  1  0
 23 25  1  0
 24 26  1  0
 24 27  2  0
 25 28  1  0
 25 29  1  0
 28 30  2  0
 29 31  2  0
 30 31  1  0
 29 32  1  0
 30 33  1  0
 31 34  1  0
 32 35  1  0
 33 36  1  0
 33 37  1  0
 33 38  1  0
 34 39  1  0
 35 39  1  0
M  END
