mac-x0397-mac-x0496
     RDKit          3D

 23 25  0  0  0  0  0  0  0  0999 V2000
   30.7250   52.4270   -2.7310 Cl  0  0  0  0  0  0  0  0  0  0  0  0
   30.3520   51.2240   -3.9000 C   0  0  0  0  0  0  0  0  0  0  0  0
   29.0200   51.2770   -4.5460 C   0  0  1  0  0  0  0  0  0  0  0  0
   31.1700   50.2240   -4.2380 C   0  0  0  0  0  0  0  0  0  0  0  0
   28.4120   50.1570   -3.6320 C   0  0  0  0  0  0  0  0  0  0  0  0
   28.4740   52.6820   -4.4890 N   0  0  0  0  0  0  0  0  0  0  0  0
   29.1320   50.8650   -6.0080 C   0  0  1  0  0  0  0  0  0  0  0  0
   30.7500   49.2390   -5.2400 C   0  0  0  0  0  0  0  0  0  0  0  0
   28.0800   49.0350   -4.0080 O   0  0  0  0  0  0  0  0  0  0  0  0
   28.3330   50.4280   -2.3160 O   0  0  0  0  0  0  0  0  0  0  0  0
   28.8400   53.3030   -5.5920 C   0  0  0  0  0  0  0  0  0  0  0  0
   29.6920   52.3410   -6.8310 S   0  0  0  0  0  0  0  0  0  0  0  0
   29.7670   49.5260   -6.1260 C   0  0  0  0  0  0  0  0  0  0  0  0
   28.6360   54.6810   -5.7660 N   0  0  0  0  0  0  0  0  0  0  0  0
   27.8160   55.3120   -4.7230 C   0  0  0  0  0  0  0  0  0  0  0  0
   29.7870   55.4030   -5.6890 C   0  0  0  0  0  0  0  0  0  0  0  0
   30.3730   55.5790   -4.6230 O   0  0  0  0  0  0  0  0  0  0  0  0
   27.1670   56.6280   -5.0400 C   0  0  0  0  0  0  0  0  0  0  0  0
   27.4690   57.7100   -4.2430 O   0  0  0  0  0  0  0  0  0  0  0  0
   26.3010   56.9210   -5.9790 N   0  0  0  0  0  0  0  0  0  0  0  0
   26.0330   58.2360   -5.7420 C   0  0  0  0  0  0  0  0  0  0  0  0
   26.7030   58.7800   -4.7180 N   0  0  0  0  0  0  0  0  0  0  0  0
   25.0690   58.9900   -6.5610 C   0  0  0  0  0  0  0  0  0  0  0  0
  1  2  1  0
  2  3  1  0
  2  4  2  0
  3  5  1  1
  3  6  1  0
  3  7  1  0
  4  8  1  0
  5  9  2  0
  5 10  1  0
  6 11  2  0
  7 12  1  0
 11 12  1  0
  7 13  1  1
  8 13  2  0
 11 14  1  0
 14 15  1  0
 14 16  1  0
 16 17  2  0
 15 18  1  0
 18 19  1  0
 18 20  2  0
 20 21  1  0
 19 22  1  0
 21 22  2  0
 21 23  1  0
M  END
