mac-x0576-mac-x0319
     RDKit          3D

 24 26  0  0  0  0  0  0  0  0999 V2000
   29.1360   47.7960   -8.9810 N   0  0  0  0  0  0  0  0  0  0  0  0
   28.4630   48.7510   -8.1390 C   0  0  2  0  0  0  0  0  0  0  0  0
   29.3580   49.8690   -8.1680 N   0  0  0  0  0  0  0  0  0  0  0  0
   28.0770   48.3400   -6.8440 N   0  0  0  0  0  0  0  0  0  0  0  0
   29.0230   48.3220   -5.8730 C   0  0  0  0  0  0  0  0  0  0  0  0
   29.1330   50.4790   -6.8690 C   0  0  1  0  0  0  0  0  0  0  0  0
   29.0900   47.1140   -5.4350 N   0  0  0  0  0  0  0  0  0  0  0  0
   29.7110   49.6760   -5.6570 C   0  0  1  0  0  0  0  0  0  0  0  0
   29.6070   51.8150   -6.9290 N   0  0  0  0  0  0  0  0  0  0  0  0
   29.3930   52.5510   -5.8010 C   0  0  0  0  0  0  0  0  0  0  0  0
   29.3070   50.3910   -4.4160 N   0  0  0  0  0  0  0  0  0  0  0  0
   29.8020   46.3070   -4.5760 C   0  0  0  0  0  0  0  0  0  0  0  0
   28.9920   53.7120   -5.8770 O   0  0  0  0  0  0  0  0  0  0  0  0
   29.6750   51.8390   -4.4610 C   0  0  0  0  0  0  0  0  0  0  0  0
   29.1810   45.6540   -3.5360 C   0  0  0  0  0  0  0  0  0  0  0  0
   31.1320   46.1280   -4.8360 C   0  0  0  0  0  0  0  0  0  0  0  0
   31.8940   45.2700   -4.0880 C   0  0  0  0  0  0  0  0  0  0  0  0
   29.9220   44.7890   -2.7720 C   0  0  0  0  0  0  0  0  0  0  0  0
   33.3220   45.1580   -4.5270 C   0  0  0  0  0  0  0  0  0  0  0  0
   29.2520   44.1510   -1.7820 O   0  0  0  0  0  0  0  0  0  0  0  0
   31.2850   44.5800   -3.0310 C   0  0  0  0  0  0  0  0  0  0  0  0
   33.3960   45.4810   -6.0120 C   0  0  0  0  0  0  0  0  0  0  0  0
   34.6300   45.8450   -6.4070 O   0  0  0  0  0  0  0  0  0  0  0  0
   32.4880   45.4520   -6.8320 O   0  0  0  0  0  0  0  0  0  0  0  0
  2  1  1  1
  2  3  1  0
  2  4  1  0
  4  5  1  0
  6  3  1  6
  5  7  2  3
  5  8  1  0
  6  8  1  0
  6  9  1  0
  9 10  1  0
  8 11  1  1
  7 12  1  0
 10 13  2  0
 10 14  1  0
 11 14  1  0
 12 15  2  0
 12 16  1  0
 16 17  2  0
 15 18  1  0
 17 19  1  0
 18 20  1  0
 17 21  1  0
 18 21  2  0
 19 22  1  0
 22 23  1  0
 22 24  2  0
M  END
