mac-x0282-mac-x0338
     RDKit          3D

 12 13  0  0  0  0  0  0  0  0999 V2000
   28.2100   53.4800   -7.3090 N   0  0  0  0  0  0  0  0  0  0  0  0
   28.7600   52.8000   -6.2580 C   0  0  0  0  0  0  0  0  0  0  0  0
   29.0960   53.4090   -5.2540 O   0  0  0  0  0  0  0  0  0  0  0  0
   28.9010   51.3740   -6.4370 C   0  0  0  0  0  0  0  0  0  0  0  0
   29.3090   50.4370   -5.4940 C   0  0  0  0  0  0  0  0  0  0  0  0
   28.6530   50.6720   -7.5990 N   0  0  0  0  0  0  0  0  0  0  0  0
   29.3040   49.1540   -6.1000 C   0  0  0  0  0  0  0  0  0  0  0  0
   28.8890   49.3400   -7.4130 C   0  0  0  0  0  0  0  0  0  0  0  0
   29.6050   47.8440   -5.6940 C   0  0  0  0  0  0  0  0  0  0  0  0
   28.7360   48.4030   -8.3630 N   0  0  0  0  0  0  0  0  0  0  0  0
   29.4620   46.8280   -6.6430 C   0  0  0  0  0  0  0  0  0  0  0  0
   29.0370   47.1550   -7.9260 C   0  0  0  0  0  0  0  0  0  0  0  0
  1  2  1  0
  2  3  2  0
  2  4  1  0
  4  5  2  0
  4  6  1  0
  5  7  1  0
  6  8  1  0
  7  8  2  0
  7  9  1  0
  8 10  1  0
  9 11  2  0
 10 12  2  0
 11 12  1  0
M  END
