mac-x0206-mac-x0137
     RDKit          3D

 25 28  0  0  0  0  0  0  0  0999 V2000
   31.3930   50.7340   -5.7770 N   0  0  0  0  0  0  0  0  0  0  0  0
   30.3600   51.2140   -5.0120 C   0  0  0  0  0  0  0  0  0  0  0  0
   29.6080   50.4840   -4.2540 N   0  0  0  0  0  0  0  0  0  0  0  0
   30.0630   52.6950   -5.0470 C   0  0  0  0  0  0  0  0  0  0  0  0
   30.2600   53.5550   -3.9500 C   0  0  0  0  0  0  0  0  0  0  0  0
   29.5610   53.2390   -6.2400 C   0  0  0  0  0  0  0  0  0  0  0  0
   29.8130   49.0360   -4.1580 C   0  0  2  0  0  0  0  0  0  0  0  0
   30.7470   53.0820   -2.7560 O   0  0  0  0  0  0  0  0  0  0  0  0
   29.9610   54.9180   -4.0540 C   0  0  0  0  0  0  0  0  0  0  0  0
   29.2640   54.5990   -6.3410 C   0  0  0  0  0  0  0  0  0  0  0  0
   31.1690   48.8120   -3.4520 C   0  0  0  0  0  0  0  0  0  0  0  0
   29.7850   48.2810   -5.4290 N   0  0  0  0  0  0  0  0  0  0  0  0
   29.4630   55.4370   -5.2490 C   0  0  0  0  0  0  0  0  0  0  0  0
   30.3950   46.9400   -5.3160 C   0  0  0  0  0  0  0  0  0  0  0  0
   32.2870   48.2930   -4.3670 C   0  0  0  0  0  0  0  0  0  0  0  0
   28.9410   48.5850   -6.5150 C   0  0  0  0  0  0  0  0  0  0  0  0
   31.9020   46.9980   -5.0630 C   0  0  0  0  0  0  0  0  0  0  0  0
   29.1540   47.9960   -7.7540 N   0  0  0  0  0  0  0  0  0  0  0  0
   27.8870   49.4340   -6.4810 C   0  0  0  0  0  0  0  0  0  0  0  0
   28.3690   48.2470   -8.8450 C   0  0  0  0  0  0  0  0  0  0  0  0
   27.0740   49.6620   -7.7090 C   0  0  0  0  0  0  0  0  0  0  0  0
   27.2370   50.2750   -5.5190 C   0  0  0  0  0  0  0  0  0  0  0  0
   27.3520   49.0380   -8.8900 N   0  0  0  0  0  0  0  0  0  0  0  0
   26.0930   50.5030   -7.5150 N   0  0  0  0  0  0  0  0  0  0  0  0
   26.2210   50.8580   -6.1780 C   0  0  0  0  0  0  0  0  0  0  0  0
  1  2  1  0
  2  3  2  3
  2  4  1  0
  4  5  2  0
  4  6  1  0
  7  3  1  6
  5  8  1  0
  5  9  1  0
  6 10  2  0
  7 11  1  0
  7 12  1  0
  9 13  2  0
 10 13  1  0
 12 14  1  0
 11 15  1  0
 12 16  1  0
 14 17  1  0
 15 17  1  0
 16 18  1  0
 16 19  2  0
 18 20  1  0
 19 21  1  0
 19 22  1  0
 20 23  2  0
 21 23  1  0
 21 24  2  0
 22 25  2  0
 24 25  1  0
M  END
