mac-x0387-mac-x0396
     RDKit          3D

 19 21  0  0  0  0  0  0  0  0999 V2000
   28.4490   50.9380   -6.8610 N   0  0  0  0  0  0  0  0  0  0  0  0
   28.2880   51.4430   -5.5980 C   0  0  0  0  0  0  0  0  0  0  0  0
   27.5740   50.8300   -4.8040 O   0  0  0  0  0  0  0  0  0  0  0  0
   28.8090   49.6240   -7.1560 C   0  0  0  0  0  0  0  0  0  0  0  0
   29.4640   48.8940   -6.1290 C   0  0  0  0  0  0  0  0  0  0  0  0
   28.5290   49.1090   -8.3710 N   0  0  0  0  0  0  0  0  0  0  0  0
   28.9430   52.6680   -5.1290 C   0  0  0  0  0  0  0  0  0  0  0  0
   29.8250   47.5650   -6.4230 C   0  0  0  0  0  0  0  0  0  0  0  0
   28.8930   47.8360   -8.6090 C   0  0  0  0  0  0  0  0  0  0  0  0
   29.7830   49.3920   -4.8360 C   0  0  0  0  0  0  0  0  0  0  0  0
   29.4620   52.7060   -3.8430 C   0  0  0  0  0  0  0  0  0  0  0  0
   29.0620   53.8020   -5.9280 C   0  0  0  0  0  0  0  0  0  0  0  0
   29.5330   47.0340   -7.6810 C   0  0  0  0  0  0  0  0  0  0  0  0
   30.4740   46.7810   -5.4520 C   0  0  0  0  0  0  0  0  0  0  0  0
   30.4270   48.6040   -3.8840 C   0  0  0  0  0  0  0  0  0  0  0  0
   30.0820   53.7900   -3.3110 N   0  0  0  0  0  0  0  0  0  0  0  0
   29.6950   54.9300   -5.4090 C   0  0  0  0  0  0  0  0  0  0  0  0
   30.7730   47.2990   -4.1900 C   0  0  0  0  0  0  0  0  0  0  0  0
   30.1820   54.8740   -4.1120 C   0  0  0  0  0  0  0  0  0  0  0  0
  1  2  1  0
  2  3  2  0
  1  4  1  0
  4  5  1  0
  4  6  2  0
  2  7  1  0
  5  8  2  0
  6  9  1  0
  5 10  1  0
  7 11  2  0
  7 12  1  0
  8 13  1  0
  9 13  2  0
  8 14  1  0
 10 15  2  0
 11 16  1  0
 12 17  2  0
 14 18  2  0
 15 18  1  0
 16 19  2  0
 17 19  1  0
M  END
