mac-x0263-mac-x0402
     RDKit          3D

 21 23  0  0  0  0  0  0  0  0999 V2000
   28.0410   59.9870   -6.4610 O   0  0  0  0  0  0  0  0  0  0  0  0
   26.8740   59.3230   -6.3610 C   0  0  0  0  0  0  0  0  0  0  0  0
   25.8340   59.8230   -6.7540 O   0  0  0  0  0  0  0  0  0  0  0  0
   27.0340   57.9690   -5.7320 C   0  0  0  0  0  0  0  0  0  0  0  0
   28.4470   57.4190   -5.8410 C   0  0  0  0  0  0  0  0  0  0  0  0
   28.4110   55.9360   -5.8290 C   0  0  0  0  0  0  0  0  0  0  0  0
   28.0800   55.1950   -4.7080 N   0  0  0  0  0  0  0  0  0  0  0  0
   28.6760   55.1740   -6.8480 N   0  0  0  0  0  0  0  0  0  0  0  0
   28.1400   53.8830   -5.0740 C   0  0  0  0  0  0  0  0  0  0  0  0
   28.5110   53.9140   -6.3870 C   0  0  0  0  0  0  0  0  0  0  0  0
   27.8710   52.6680   -4.2660 C   0  0  0  0  0  0  0  0  0  0  0  0
   28.7180   52.7590   -7.2470 C   0  0  2  0  0  0  0  0  0  0  0  0
   27.7540   52.9510   -8.3220 N   0  0  0  0  0  0  0  0  0  0  0  0
   28.6210   51.4530   -4.9100 C   0  0  1  0  0  0  0  0  0  0  0  0
   28.5840   51.4350   -6.4790 C   0  0  0  0  0  0  0  0  0  0  0  0
   30.0530   51.4910   -4.3670 C   0  0  0  0  0  0  0  0  0  0  0  0
   28.0320   50.1090   -4.5810 C   0  0  0  0  0  0  0  0  0  0  0  0
   30.7960   50.3840   -4.2130 C   0  0  0  0  0  0  0  0  0  0  0  0
   28.7890   49.0120   -4.4450 C   0  0  0  0  0  0  0  0  0  0  0  0
   30.2670   49.0340   -4.5840 C   0  0  2  0  0  0  0  0  0  0  0  0
   30.9600   47.7760   -3.5300 Cl  0  0  0  0  0  0  0  0  0  0  0  0
  1  2  1  0
  2  3  2  0
  2  4  1  0
  4  5  1  0
  5  6  1  0
  6  7  1  0
  6  8  2  0
  7  9  1  0
  8 10  1  0
  9 10  2  0
  9 11  1  0
 10 12  1  0
 12 13  1  6
 14 11  1  1
 12 15  1  0
 14 15  1  0
 14 16  1  0
 14 17  1  0
 16 18  2  0
 17 19  2  0
 18 20  1  0
 19 20  1  0
 20 21  1  1
M  END
