mac-x0360-mac-x0319
     RDKit          3D

 25 26  0  0  0  0  0  0  0  0999 V2000
   32.0650   55.3060   -6.9800 Cl  0  0  0  0  0  0  0  0  0  0  0  0
   32.1990   53.6850   -6.4160 C   0  0  0  0  0  0  0  0  0  0  0  0
   33.4520   53.1770   -6.0770 C   0  0  0  0  0  0  0  0  0  0  0  0
   31.0570   52.8960   -6.3060 C   0  0  0  0  0  0  0  0  0  0  0  0
   31.1790   51.5820   -5.8480 C   0  0  0  0  0  0  0  0  0  0  0  0
   33.5610   51.8640   -5.6220 C   0  0  0  0  0  0  0  0  0  0  0  0
   35.1110   51.2440   -5.2050 Cl  0  0  0  0  0  0  0  0  0  0  0  0
   29.7250   50.5760   -5.7080 S   0  0  0  0  0  0  0  0  0  0  0  0
   32.4290   51.0540   -5.5020 C   0  0  0  0  0  0  0  0  0  0  0  0
   30.3370   49.0210   -5.7200 N   0  0  0  0  0  0  0  0  0  0  0  0
   29.1000   50.8410   -4.4290 O   0  0  0  0  0  0  0  0  0  0  0  0
   28.9800   50.6970   -6.9360 O   0  0  0  0  0  0  0  0  0  0  0  0
   30.2840   48.2650   -6.9900 C   0  0  0  0  0  0  0  0  0  0  0  0
   31.5990   47.5410   -7.3470 C   0  0  0  0  0  0  0  0  0  0  0  0
   31.8000   46.4810   -6.3790 N   0  0  0  0  0  0  0  0  0  0  0  0
   32.8810   45.8260   -6.1820 C   0  0  0  0  0  0  0  0  0  0  0  0
   34.0600   45.9430   -6.8210 O   0  0  0  0  0  0  0  0  0  0  0  0
   32.8720   44.8000   -5.0900 C   0  0  0  0  0  0  0  0  0  0  0  0
   31.7290   45.1770   -4.1850 C   0  0  0  0  0  0  0  0  0  0  0  0
   30.5850   44.3720   -4.1090 C   0  0  0  0  0  0  0  0  0  0  0  0
   31.7890   46.3480   -3.4110 C   0  0  0  0  0  0  0  0  0  0  0  0
   29.5340   44.7370   -3.2810 C   0  0  0  0  0  0  0  0  0  0  0  0
   30.7270   46.7060   -2.5820 C   0  0  0  0  0  0  0  0  0  0  0  0
   28.4440   43.9170   -3.2490 O   0  0  0  0  0  0  0  0  0  0  0  0
   29.5890   45.8970   -2.5140 C   0  0  0  0  0  0  0  0  0  0  0  0
  1  2  1  0
  2  3  2  0
  2  4  1  0
  4  5  2  0
  3  6  1  0
  6  7  1  0
  5  8  1  0
  5  9  1  0
  6  9  2  0
  8 10  1  0
  8 11  2  0
  8 12  2  0
 10 13  1  0
 13 14  1  0
 14 15  1  0
 15 16  2  3
 16 17  1  0
 16 18  1  0
 18 19  1  0
 19 20  2  0
 19 21  1  0
 20 22  1  0
 21 23  2  0
 22 24  1  0
 22 25  2  0
 23 25  1  0
M  END
