mac-x0451-mac-x0306
     RDKit          3D

 15 17  0  0  0  0  0  0  0  0999 V2000
   28.8350   53.8370   -9.1250 N   0  0  0  0  0  0  0  0  0  0  0  0
   29.0630   52.8760   -8.2250 C   0  0  0  0  0  0  0  0  0  0  0  0
   29.2100   53.1480   -6.9820 N   0  0  0  0  0  0  0  0  0  0  0  0
   29.1760   51.2020   -8.6390 S   0  0  0  0  0  0  0  0  0  0  0  0
   29.4220   51.9960   -6.2790 C   0  0  0  0  0  0  0  0  0  0  0  0
   29.4390   50.8350   -6.9990 C   0  0  0  0  0  0  0  0  0  0  0  0
   29.5890   52.1450   -4.8250 C   0  0  0  0  0  0  0  0  0  0  0  0
   29.6440   49.4770   -6.4410 C   0  0  0  0  0  0  0  0  0  0  0  0
   29.7200   50.7220   -4.1190 C   0  0  0  0  0  0  0  0  0  0  0  0
   30.2670   49.5820   -5.0380 C   0  0  1  0  0  0  0  0  0  0  0  0
   28.4030   52.9660   -4.4160 N   0  0  0  0  0  0  0  0  0  0  0  0
   30.5570   53.2070   -4.4110 N   0  0  0  0  0  0  0  0  0  0  0  0
   30.0990   48.3560   -4.4390 F   0  0  0  0  0  0  0  0  0  0  0  0
   30.0170   54.4380   -4.7860 C   0  0  0  0  0  0  0  0  0  0  0  0
   28.6960   54.2920   -4.7990 C   0  0  0  0  0  0  0  0  0  0  0  0
  1  2  1  0
  2  3  2  0
  2  4  1  0
  3  5  1  0
  4  6  1  0
  5  6  2  0
  5  7  1  0
  6  8  1  0
  7  9  1  0
  8 10  1  0
  9 10  1  0
  7 11  1  0
  7 12  1  0
 10 13  1  1
 12 14  1  0
 11 15  1  0
 14 15  2  0
M  END
