mac-x0412-mac-x0510
     RDKit          3D

 16 18  0  0  0  0  0  0  0  0999 V2000
   29.8860   54.5540   -4.3820 O   0  0  0  0  0  0  0  0  0  0  0  0
   29.5560   53.7560   -5.2550 C   0  0  0  0  0  0  0  0  0  0  0  0
   29.0470   54.2420   -6.4390 N   0  0  0  0  0  0  0  0  0  0  0  0
   29.6620   52.2420   -5.1420 C   0  0  2  0  0  0  0  0  0  0  0  0
   28.6190   51.5000   -6.0130 C   0  0  1  0  0  0  0  0  0  0  0  0
   28.6700   53.4790   -7.5030 C   0  0  0  0  0  0  0  0  0  0  0  0
   29.5630   51.6800   -3.7380 C   0  0  0  0  0  0  0  0  0  0  0  0
   29.4620   52.3310   -2.7030 O   0  0  0  0  0  0  0  0  0  0  0  0
   28.4520   52.1700   -7.3590 C   0  0  0  0  0  0  0  0  0  0  0  0
   28.9310   49.9580   -6.0700 C   0  0  2  0  0  0  0  0  0  0  0  0
   29.5930   50.2000   -3.6270 C   0  0  0  0  0  0  0  0  0  0  0  0
   29.3060   49.4360   -4.6900 C   0  0  0  0  0  0  0  0  0  0  0  0
   30.0670   49.6280   -6.9570 N   0  0  0  0  0  0  0  0  0  0  0  0
   27.7710   49.1100   -6.6450 C   0  0  0  0  0  0  0  0  0  0  0  0
   28.2300   48.7180   -7.9890 N   0  0  0  0  0  0  0  0  0  0  0  0
   29.6530   48.5280   -7.8030 C   0  0  0  0  0  0  0  0  0  0  0  0
  1  2  2  0
  2  3  1  0
  4  2  1  1
  4  5  1  0
  3  6  1  0
  4  7  1  0
  7  8  2  0
  5  9  1  6
  6  9  2  0
  5 10  1  0
  7 11  1  0
 10 12  1  1
 11 12  2  0
 10 13  1  0
 10 14  1  0
 14 15  1  0
 13 16  1  0
 15 16  1  0
M  END
