mac-x0584-mac-x0263
     RDKit          3D

 31 36  0  0  0  0  0  0  0  0999 V2000
   28.0090   60.0460   -6.4810 O   0  0  0  0  0  0  0  0  0  0  0  0
   26.8970   59.2960   -6.3800 C   0  0  0  0  0  0  0  0  0  0  0  0
   25.8070   59.7440   -6.6950 O   0  0  0  0  0  0  0  0  0  0  0  0
   27.1490   57.9140   -5.8570 C   0  0  0  0  0  0  0  0  0  0  0  0
   28.4610   57.3120   -6.3310 C   0  0  0  0  0  0  0  0  0  0  0  0
   28.4590   55.8470   -6.0890 C   0  0  0  0  0  0  0  0  0  0  0  0
   27.7120   55.2660   -5.0900 N   0  0  0  0  0  0  0  0  0  0  0  0
   29.1340   54.9500   -6.7670 N   0  0  0  0  0  0  0  0  0  0  0  0
   27.9360   53.9320   -5.1590 C   0  0  0  0  0  0  0  0  0  0  0  0
   28.8150   53.7660   -6.1870 C   0  0  0  0  0  0  0  0  0  0  0  0
   27.3640   52.9590   -4.3430 C   0  0  0  0  0  0  0  0  0  0  0  0
   29.3330   52.4520   -6.5830 C   0  0  0  0  0  0  0  0  0  0  0  0
   28.6330   51.2970   -5.8110 C   0  0  1  0  0  0  0  0  0  0  0  0
   27.6770   51.6960   -4.6650 C   0  0  0  0  0  0  0  0  0  0  0  0
   27.9860   50.5420   -6.8900 N   0  0  0  0  0  0  0  0  0  0  0  0
   29.6300   50.3440   -5.0900 C   0  0  0  0  0  0  0  0  0  0  0  0
   28.5280   49.2460   -6.8480 C   0  0  0  0  0  0  0  0  0  0  0  0
   29.4320   49.0800   -5.8290 C   0  0  0  0  0  0  0  0  0  0  0  0
   28.1870   48.2910   -7.6960 N   0  0  0  0  0  0  0  0  0  0  0  0
   30.0020   47.8550   -5.6370 C   0  0  0  0  0  0  0  0  0  0  0  0
   30.8960   47.7530   -4.5450 N   0  0  0  0  0  0  0  0  0  0  0  0
   29.6870   46.8450   -6.4680 N   0  0  0  0  0  0  0  0  0  0  0  0
   28.8010   47.1230   -7.4560 C   0  0  0  0  0  0  0  0  0  0  0  0
   31.4510   46.4890   -4.0080 C   0  0  2  0  0  0  0  0  0  0  0  0
   30.1850   48.2900   -3.3430 C   0  0  0  0  0  0  0  0  0  0  0  0
   32.3930   45.5020   -4.6680 C   0  0  0  0  0  0  0  0  0  0  0  0
   30.3720   45.9040   -3.1310 C   0  0  0  0  0  0  0  0  0  0  0  0
   30.1130   47.1490   -2.3100 C   0  0  0  0  0  0  0  0  0  0  0  0
   32.2560   44.6940   -5.9660 C   0  0  0  0  0  0  0  0  0  0  0  0
   33.7130   46.0690   -5.2130 C   0  0  0  0  0  0  0  0  0  0  0  0
   33.7740   44.8580   -6.1470 C   0  0  0  0  0  0  0  0  0  0  0  0
  1  2  1  0
  2  3  2  0
  2  4  1  0
  4  5  1  0
  5  6  1  0
  6  7  1  0
  6  8  2  0
  7  9  1  0
  8 10  1  0
  9 10  2  0
  9 11  1  0
 10 12  1  0
 13 12  1  6
 11 14  2  0
 13 14  1  0
 13 15  1  0
 13 16  1  0
 15 17  1  0
 16 18  1  0
 17 18  2  0
 17 19  1  0
 18 20  1  0
 20 21  1  0
 20 22  2  0
 19 23  2  0
 22 23  1  0
 21 24  1  0
 21 25  1  0
 24 26  1  6
 24 27  1  0
 25 28  1  0
 27 28  1  0
 26 29  1  0
 26 30  1  0
 29 31  1  0
 30 31  1  0
M  END
