mac-x0402-mac-x0277
     RDKit          3D

 25 27  0  0  0  0  0  0  0  0999 V2000
   28.4810   47.9000   -4.4230 Cl  0  0  0  0  0  0  0  0  0  0  0  0
   28.9070   49.5570   -4.6680 C   0  0  0  0  0  0  0  0  0  0  0  0
   29.8410   50.2150   -3.8540 C   0  0  0  0  0  0  0  0  0  0  0  0
   28.2680   50.2150   -5.7270 C   0  0  0  0  0  0  0  0  0  0  0  0
   30.5560   49.5450   -2.7010 C   0  0  0  0  0  0  0  0  0  0  0  0
   28.5810   51.5610   -5.9630 C   0  0  0  0  0  0  0  0  0  0  0  0
   30.1340   51.5690   -4.1180 C   0  0  0  0  0  0  0  0  0  0  0  0
   29.5890   49.1440   -1.5820 C   0  0  0  0  0  0  0  0  0  0  0  0
   29.5020   52.2520   -5.1780 C   0  0  0  0  0  0  0  0  0  0  0  0
   27.9710   52.6250   -7.1700 S   0  0  0  0  0  0  0  0  0  0  0  0
   30.0080   47.8560   -0.8630 C   0  0  0  0  0  0  0  0  0  0  0  0
   28.9600   53.8840   -6.5610 C   0  0  0  0  0  0  0  0  0  0  0  0
   29.7070   53.5740   -5.5320 N   0  0  0  0  0  0  0  0  0  0  0  0
   28.9560   55.1070   -7.1190 N   0  0  0  0  0  0  0  0  0  0  0  0
   30.1370   46.6560   -1.7740 C   0  0  0  0  0  0  0  0  0  0  0  0
   31.3510   46.4550   -2.4590 C   0  0  0  0  0  0  0  0  0  0  0  0
   29.0980   45.7320   -1.9700 C   0  0  0  0  0  0  0  0  0  0  0  0
   27.5680   45.8800   -1.1780 Cl  0  0  0  0  0  0  0  0  0  0  0  0
   31.5370   45.3610   -3.3200 C   0  0  0  0  0  0  0  0  0  0  0  0
   29.2740   44.6420   -2.8260 C   0  0  0  0  0  0  0  0  0  0  0  0
   32.8570   45.1700   -4.0390 C   0  0  0  0  0  0  0  0  0  0  0  0
   30.4840   44.4560   -3.4990 C   0  0  0  0  0  0  0  0  0  0  0  0
   32.7500   45.0080   -5.5380 C   0  0  0  0  0  0  0  0  0  0  0  0
   33.4970   45.9260   -6.1930 O   0  0  0  0  0  0  0  0  0  0  0  0
   32.1080   44.1880   -6.1730 O   0  0  0  0  0  0  0  0  0  0  0  0
  1  2  1  0
  2  3  2  0
  2  4  1  0
  3  5  1  0
  4  6  2  0
  3  7  1  0
  5  8  1  0
  6  9  1  0
  7  9  2  0
  6 10  1  0
  8 11  1  0
 10 12  1  0
  9 13  1  0
 12 13  2  0
 12 14  1  0
 11 15  1  0
 15 16  2  0
 15 17  1  0
 17 18  1  0
 16 19  1  0
 17 20  2  0
 19 21  1  0
 19 22  2  0
 20 22  1  0
 21 23  1  0
 23 24  1  0
 23 25  2  0
M  END
