mac-x0451-mac-x0346
     RDKit          3D

 16 17  0  0  0  0  0  0  0  0999 V2000
   29.8050   53.6720   -7.6070 N   0  0  0  0  0  0  0  0  0  0  0  0
   28.9150   52.8300   -6.8350 C   0  0  2  0  0  0  0  0  0  0  0  0
   29.5470   52.5540   -5.5770 N   0  0  0  0  0  0  0  0  0  0  0  0
   28.6710   51.3080   -7.7270 S   0  0  0  0  0  0  0  0  0  0  0  0
   29.7250   53.5880   -4.6650 C   0  0  0  0  0  0  0  0  0  0  0  0
   29.3380   51.1950   -5.0910 C   0  0  2  0  0  0  0  0  0  0  0  0
   28.7300   50.2840   -6.2200 C   0  0  2  0  0  0  0  0  0  0  0  0
   29.8030   54.8540   -5.2020 N   0  0  0  0  0  0  0  0  0  0  0  0
   29.8110   53.4250   -3.4470 O   0  0  0  0  0  0  0  0  0  0  0  0
   28.3900   51.2780   -4.0380 O   0  0  0  0  0  0  0  0  0  0  0  0
   30.6070   50.6260   -4.4980 C   0  0  0  0  0  0  0  0  0  0  0  0
   29.5320   49.0130   -6.5650 C   0  0  0  0  0  0  0  0  0  0  0  0
   29.2290   55.8770   -4.4010 O   0  0  0  0  0  0  0  0  0  0  0  0
   30.9620   49.3430   -4.5950 C   0  0  0  0  0  0  0  0  0  0  0  0
   30.1120   48.3660   -5.3180 C   0  0  2  0  0  0  0  0  0  0  0  0
   30.8610   47.2900   -5.6880 F   0  0  0  0  0  0  0  0  0  0  0  0
  2  1  1  6
  2  3  1  0
  2  4  1  0
  3  5  1  0
  3  6  1  0
  4  7  1  0
  6  7  1  0
  5  8  1  0
  5  9  2  0
  6 10  1  1
  6 11  1  0
  7 12  1  6
  8 13  1  0
 11 14  2  0
 12 15  1  0
 14 15  1  0
 15 16  1  6
M  END
