mac-x0361-mac-x0590
     RDKit          3D

 21 23  0  0  0  0  0  0  0  0999 V2000
   29.0770   53.3310   -6.1350 N   0  0  0  0  0  0  0  0  0  0  0  0
   29.5340   52.9710   -4.8990 C   0  0  0  0  0  0  0  0  0  0  0  0
   29.1090   53.5540   -3.9040 O   0  0  0  0  0  0  0  0  0  0  0  0
   30.5840   51.8390   -4.8750 C   0  0  2  0  0  0  0  0  0  0  0  0
   30.3620   50.7520   -5.9560 C   0  0  0  0  0  0  0  0  0  0  0  0
   30.7640   51.2690   -3.5010 C   0  0  0  0  0  0  0  0  0  0  0  0
   29.4920   49.5110   -5.5640 C   0  0  1  0  0  0  0  0  0  0  0  0
   30.2770   50.0860   -3.1310 C   0  0  0  0  0  0  0  0  0  0  0  0
   29.4810   49.1730   -4.0250 C   0  0  2  0  0  0  0  0  0  0  0  0
   28.0540   49.5990   -6.0900 C   0  0  0  0  0  0  0  0  0  0  0  0
   29.9410   48.3410   -6.3630 N   0  0  0  0  0  0  0  0  0  0  0  0
   30.0230   47.8580   -3.7890 O   0  0  0  0  0  0  0  0  0  0  0  0
   28.1640   49.3210   -7.5290 N   0  0  0  0  0  0  0  0  0  0  0  0
   29.2660   48.3810   -7.6440 C   0  0  0  0  0  0  0  0  0  0  0  0
   31.4430   47.7650   -3.9260 C   0  0  0  0  0  0  0  0  0  0  0  0
   31.8410   46.3130   -3.6420 C   0  0  0  0  0  0  0  0  0  0  0  0
   33.1280   45.8740   -4.3580 C   0  0  2  0  0  0  0  0  0  0  0  0
   32.9710   45.7750   -5.8750 C   0  0  0  0  0  0  0  0  0  0  0  0
   33.4960   44.4390   -4.0110 C   0  0  0  0  0  0  0  0  0  0  0  0
   32.6990   43.6290   -5.0060 C   0  0  0  0  0  0  0  0  0  0  0  0
   32.6050   44.4240   -6.1940 O   0  0  0  0  0  0  0  0  0  0  0  0
  1  2  1  0
  2  3  2  0
  4  2  1  1
  4  5  1  0
  4  6  1  0
  7  5  1  1
  6  8  2  0
  7  9  1  0
  8  9  1  0
  7 10  1  0
  7 11  1  0
  9 12  1  6
 10 13  1  0
 11 14  1  0
 13 14  1  0
 12 15  1  0
 15 16  1  0
 17 16  1  1
 17 18  1  0
 17 19  1  0
 19 20  1  0
 18 21  1  0
 20 21  1  0
M  END
