mac-x0472-mac-x0345
     RDKit          3D

 23 25  0  0  0  0  0  0  0  0999 V2000
   29.4260   49.9040   -3.7940 N   0  0  0  0  0  0  0  0  0  0  0  0
   30.6740   49.1020   -4.2210 S   0  0  1  0  0  0  0  0  0  0  0  0
   31.2890   48.0780   -3.4050 O   0  0  0  0  0  0  0  0  0  0  0  0
   29.3810   51.3690   -3.8610 C   0  0  0  0  0  0  0  0  0  0  0  0
   30.0670   48.2730   -5.5450 N   0  0  0  0  0  0  0  0  0  0  0  0
   31.9680   50.1980   -4.7610 C   0  0  0  0  0  0  0  0  0  0  0  0
   28.7240   51.9940   -4.9110 C   0  0  0  0  0  0  0  0  0  0  0  0
   29.9770   52.1730   -2.8950 C   0  0  0  0  0  0  0  0  0  0  0  0
   29.7340   48.8550   -6.7190 C   0  0  0  0  0  0  0  0  0  0  0  0
   33.2930   49.7800   -4.6120 C   0  0  0  0  0  0  0  0  0  0  0  0
   31.6730   51.4440   -5.3200 C   0  0  0  0  0  0  0  0  0  0  0  0
   28.6850   53.3890   -4.9640 C   0  0  0  0  0  0  0  0  0  0  0  0
   29.9560   53.5340   -2.9160 N   0  0  0  0  0  0  0  0  0  0  0  0
   27.7770   54.2020   -6.4160 Br  0  0  0  0  0  0  0  0  0  0  0  0
   28.7670   48.3790   -7.4850 N   0  0  0  0  0  0  0  0  0  0  0  0
   30.4770   50.2610   -7.4050 S   0  0  0  0  0  0  0  0  0  0  0  0
   34.3290   50.6170   -5.0270 C   0  0  0  0  0  0  0  0  0  0  0  0
   32.7130   52.2760   -5.7340 C   0  0  0  0  0  0  0  0  0  0  0  0
   29.3090   54.1290   -3.9540 C   0  0  0  0  0  0  0  0  0  0  0  0
   29.3090   55.6300   -3.9450 C   0  0  0  0  0  0  0  0  0  0  0  0
   29.4010   50.1150   -8.7230 C   0  0  0  0  0  0  0  0  0  0  0  0
   28.5690   49.1010   -8.6430 N   0  0  0  0  0  0  0  0  0  0  0  0
   34.0370   51.8620   -5.5870 C   0  0  0  0  0  0  0  0  0  0  0  0
  1  2  2  0
  2  3  2  0
  1  4  1  0
  2  5  1  6
  2  6  1  0
  4  7  2  0
  4  8  1  0
  5  9  1  0
  6 10  2  0
  6 11  1  0
  7 12  1  0
  8 13  2  0
 12 14  1  0
  9 15  2  0
  9 16  1  0
 10 17  1  0
 11 18  2  0
 12 19  2  0
 13 19  1  0
 19 20  1  0
 16 21  1  0
 15 22  1  0
 21 22  2  0
 17 23  2  0
 18 23  1  0
M  END
