mac-x0337-mac-x0510
     RDKit          3D

 18 20  0  0  0  0  0  0  0  0999 V2000
   35.5280   52.4810   -5.7710 C   0  0  0  0  0  0  0  0  0  0  0  0
   34.2300   51.8440   -5.3790 C   0  0  0  0  0  0  0  0  0  0  0  0
   33.0680   52.6160   -5.2470 C   0  0  0  0  0  0  0  0  0  0  0  0
   34.1650   50.4690   -5.1400 C   0  0  0  0  0  0  0  0  0  0  0  0
   32.9610   49.8690   -4.7720 C   0  0  0  0  0  0  0  0  0  0  0  0
   31.8620   52.0160   -4.8770 C   0  0  0  0  0  0  0  0  0  0  0  0
   31.8050   50.6360   -4.6380 C   0  0  0  0  0  0  0  0  0  0  0  0
   30.2460   49.8600   -4.1560 S   0  0  0  0  0  0  0  0  0  0  0  0
   30.4080   48.4000   -4.4350 O   0  0  0  0  0  0  0  0  0  0  0  0
   29.3010   50.4330   -5.5300 C   0  0  0  0  0  0  0  0  0  0  0  0
   29.0240   49.5690   -6.5100 C   0  0  0  0  0  0  0  0  0  0  0  0
   28.9270   51.7760   -5.4730 N   0  0  0  0  0  0  0  0  0  0  0  0
   28.2560   52.2030   -6.4930 C   0  0  0  0  0  0  0  0  0  0  0  0
   28.2640   50.1260   -7.6210 C   0  0  0  0  0  0  0  0  0  0  0  0
   29.2650   48.2520   -6.7900 N   0  0  0  0  0  0  0  0  0  0  0  0
   27.9070   51.4380   -7.5730 N   0  0  0  0  0  0  0  0  0  0  0  0
   28.0690   49.2000   -8.5050 N   0  0  0  0  0  0  0  0  0  0  0  0
   28.6920   48.0890   -7.9460 C   0  0  0  0  0  0  0  0  0  0  0  0
  1  2  1  0
  2  3  2  0
  2  4  1  0
  4  5  2  0
  3  6  1  0
  5  7  1  0
  6  7  2  0
  8  7  1  6
  8  9  2  0
  8 10  1  0
 10 11  2  0
 10 12  1  0
 12 13  2  0
 11 14  1  0
 11 15  1  0
 13 16  1  0
 14 16  1  0
 14 17  2  0
 15 18  2  0
 17 18  1  0
M  END
