mac-x0123-mac-x0472
     RDKit          3D

 27 31  0  0  0  0  0  0  0  0999 V2000
   29.1540   53.0990   -7.3300 N   0  0  0  0  0  0  0  0  0  0  0  0
   29.0940   53.4290   -5.9570 C   0  0  0  0  0  0  0  0  0  0  0  0
   28.5900   54.6220   -5.5150 C   0  0  0  0  0  0  0  0  0  0  0  0
   29.5230   52.6000   -4.9700 N   0  0  0  0  0  0  0  0  0  0  0  0
   29.4860   52.8480   -3.6840 C   0  0  0  0  0  0  0  0  0  0  0  0
   28.5530   54.8870   -4.1680 C   0  0  0  0  0  0  0  0  0  0  0  0
   28.0430   55.7390   -6.3180 C   0  0  0  0  0  0  0  0  0  0  0  0
   30.0350   51.4340   -5.1530 N   0  0  0  0  0  0  0  0  0  0  0  0
   28.9910   54.0190   -3.2480 N   0  0  0  0  0  0  0  0  0  0  0  0
   27.9750   56.2280   -3.9650 C   0  0  0  0  0  0  0  0  0  0  0  0
   27.9850   56.8720   -5.3540 C   0  0  0  0  0  0  0  0  0  0  0  0
   29.9970   51.7830   -3.0870 N   0  0  0  0  0  0  0  0  0  0  0  0
   30.3550   50.8720   -3.9990 C   0  0  0  0  0  0  0  0  0  0  0  0
   31.0970   49.2660   -3.7930 S   0  0  0  0  0  0  0  0  0  0  0  0
   31.5440   48.1430   -3.5300 O   0  0  0  0  0  0  0  0  0  0  0  0
   29.8610   48.6330   -4.7260 N   0  0  0  0  0  0  0  0  0  0  0  0
   32.5520   49.7510   -4.6230 C   0  0  0  0  0  0  0  0  0  0  0  0
   29.5740   48.8860   -6.1110 C   0  0  0  0  0  0  0  0  0  0  0  0
   33.3020   48.7260   -5.2070 C   0  0  0  0  0  0  0  0  0  0  0  0
   32.9900   51.0230   -4.7290 C   0  0  0  0  0  0  0  0  0  0  0  0
   30.0630   48.3420   -7.2210 N   0  0  0  0  0  0  0  0  0  0  0  0
   28.4590   50.0150   -6.8070 S   0  0  0  0  0  0  0  0  0  0  0  0
   34.4770   48.9970   -5.8880 C   0  0  0  0  0  0  0  0  0  0  0  0
   34.1600   51.3050   -5.4070 C   0  0  0  0  0  0  0  0  0  0  0  0
   28.7490   49.6570   -8.4720 C   0  0  0  0  0  0  0  0  0  0  0  0
   29.6700   48.7070   -8.3550 N   0  0  0  0  0  0  0  0  0  0  0  0
   34.8990   50.3060   -5.9830 C   0  0  0  0  0  0  0  0  0  0  0  0
  1  2  1  0
  2  3  2  0
  2  4  1  0
  4  5  1  0
  3  6  1  0
  3  7  1  0
  4  8  1  0
  5  9  1  0
  6  9  2  0
  6 10  1  0
  7 11  1  0
 10 11  1  0
  5 12  2  0
  8 13  2  0
 12 13  1  0
 13 14  1  0
 14 15  2  0
 14 16  1  0
 14 17  1  0
 16 18  1  0
 17 19  2  0
 17 20  1  0
 18 21  2  0
 18 22  1  0
 19 23  1  0
 20 24  2  0
 22 25  1  0
 21 26  1  0
 25 26  2  0
 23 27  2  0
 24 27  1  0
M  END
