mac-x0348-mac-x0137
     RDKit          3D

 31 35  0  0  0  0  0  0  0  0999 V2000
   27.1320   44.5840   -1.4040 C   0  0  0  0  0  0  0  0  0  0  0  0
   28.2900   45.3450   -1.8190 N   0  0  0  0  0  0  0  0  0  0  0  0
   28.9820   45.1410   -2.9860 C   0  0  0  0  0  0  0  0  0  0  0  0
   28.8560   46.3750   -1.1010 C   0  0  0  0  0  0  0  0  0  0  0  0
   30.0290   46.0480   -3.0470 C   0  0  0  0  0  0  0  0  0  0  0  0
   29.9470   46.8330   -1.8440 C   0  0  0  0  0  0  0  0  0  0  0  0
   28.5030   46.9400    0.1370 C   0  0  0  0  0  0  0  0  0  0  0  0
   31.0880   46.2150   -4.1450 C   0  0  1  0  0  0  0  0  0  0  0  0
   30.7110   47.9000   -1.3210 C   0  0  0  0  0  0  0  0  0  0  0  0
   29.2790   47.9940    0.6250 C   0  0  0  0  0  0  0  0  0  0  0  0
   31.7060   44.8770   -4.5800 C   0  0  0  0  0  0  0  0  0  0  0  0
   30.3700   48.4710   -0.0910 C   0  0  0  0  0  0  0  0  0  0  0  0
   30.6430   47.1060   -5.3520 C   0  0  1  0  0  0  0  0  0  0  0  0
   32.4670   45.0580   -5.8690 C   0  0  0  0  0  0  0  0  0  0  0  0
   29.6220   48.1680   -5.1250 N   0  0  0  0  0  0  0  0  0  0  0  0
   31.8260   47.8230   -6.0130 C   0  0  0  0  0  0  0  0  0  0  0  0
   32.0470   44.8640   -6.9980 O   0  0  0  0  0  0  0  0  0  0  0  0
   33.7320   45.4790   -5.6740 O   0  0  0  0  0  0  0  0  0  0  0  0
   30.0420   49.0460   -4.0020 C   0  0  0  0  0  0  0  0  0  0  0  0
   32.3350   48.9840   -5.1530 C   0  0  0  0  0  0  0  0  0  0  0  0
   28.9410   48.7490   -6.2040 C   0  0  0  0  0  0  0  0  0  0  0  0
   31.5680   49.1720   -3.8460 C   0  0  1  0  0  0  0  0  0  0  0  0
   28.7530   48.0100   -7.3560 N   0  0  0  0  0  0  0  0  0  0  0  0
   28.4360   50.0000   -6.2470 C   0  0  0  0  0  0  0  0  0  0  0  0
   31.8580   50.4150   -3.3740 F   0  0  0  0  0  0  0  0  0  0  0  0
   28.1110   48.4980   -8.4570 C   0  0  0  0  0  0  0  0  0  0  0  0
   27.7470   50.4720   -7.4770 C   0  0  0  0  0  0  0  0  0  0  0  0
   28.3520   51.1360   -5.3810 C   0  0  0  0  0  0  0  0  0  0  0  0
   27.6030   49.6790   -8.5780 N   0  0  0  0  0  0  0  0  0  0  0  0
   27.3180   51.7010   -7.3670 N   0  0  0  0  0  0  0  0  0  0  0  0
   27.7000   52.0740   -6.0870 C   0  0  0  0  0  0  0  0  0  0  0  0
  1  2  1  0
  2  3  1  0
  2  4  1  0
  3  5  2  0
  4  6  2  0
  5  6  1  0
  4  7  1  0
  5  8  1  0
  6  9  1  0
  7 10  2  0
  8 11  1  6
  9 12  2  0
 10 12  1  0
  8 13  1  0
 11 14  1  0
 13 15  1  0
 13 16  1  1
 14 17  2  0
 14 18  1  0
 15 19  1  0
 16 20  1  0
 15 21  1  0
 19 22  1  0
 20 22  1  0
 21 23  1  0
 21 24  2  0
 22 25  1  6
 23 26  1  0
 24 27  1  0
 24 28  1  0
 26 29  2  0
 27 29  1  0
 27 30  2  0
 28 31  2  0
 30 31  1  0
M  END
