mac-x0337-mac-x0190
     RDKit          3D

 22 24  0  0  0  0  0  0  0  0999 V2000
   35.3000   52.3150   -4.7770 C   0  0  0  0  0  0  0  0  0  0  0  0
   34.0060   51.6730   -5.1780 C   0  0  0  0  0  0  0  0  0  0  0  0
   32.9580   52.4530   -5.6860 C   0  0  0  0  0  0  0  0  0  0  0  0
   33.8290   50.2880   -5.0510 C   0  0  0  0  0  0  0  0  0  0  0  0
   32.6270   49.6860   -5.4260 C   0  0  0  0  0  0  0  0  0  0  0  0
   31.7530   51.8590   -6.0640 C   0  0  0  0  0  0  0  0  0  0  0  0
   31.5930   50.4760   -5.9340 C   0  0  0  0  0  0  0  0  0  0  0  0
   30.0530   49.7240   -6.4260 S   0  0  0  0  0  0  0  0  0  0  0  0
   30.1430   49.4030   -7.8240 O   0  0  0  0  0  0  0  0  0  0  0  0
   29.7100   48.7020   -5.4640 O   0  0  0  0  0  0  0  0  0  0  0  0
   28.9570   50.9970   -6.2870 N   0  0  0  0  0  0  0  0  0  0  0  0
   28.9770   51.5170   -4.9800 C   0  0  0  0  0  0  0  0  0  0  0  0
   29.1780   52.8880   -4.7560 C   0  0  0  0  0  0  0  0  0  0  0  0
   28.8050   50.6580   -3.8980 C   0  0  0  0  0  0  0  0  0  0  0  0
   29.2020   53.3460   -3.4490 C   0  0  0  0  0  0  0  0  0  0  0  0
   29.3680   53.9250   -5.6510 N   0  0  0  0  0  0  0  0  0  0  0  0
   28.8350   51.1500   -2.5990 C   0  0  0  0  0  0  0  0  0  0  0  0
   29.5080   54.9990   -4.9050 C   0  0  0  0  0  0  0  0  0  0  0  0
   29.4150   54.6920   -3.5680 N   0  0  0  0  0  0  0  0  0  0  0  0
   29.0350   52.5110   -2.3430 C   0  0  0  0  0  0  0  0  0  0  0  0
   29.7420   56.3890   -5.3610 C   0  0  0  0  0  0  0  0  0  0  0  0
   28.4680   57.0000   -5.5220 O   0  0  0  0  0  0  0  0  0  0  0  0
  1  2  1  0
  2  3  2  0
  2  4  1  0
  4  5  2  0
  3  6  1  0
  5  7  1  0
  6  7  2  0
  7  8  1  0
  8  9  2  0
  8 10  2  0
  8 11  1  0
 11 12  1  0
 12 13  1  0
 12 14  2  0
 13 15  2  0
 13 16  1  0
 14 17  1  0
 16 18  2  0
 15 19  1  0
 18 19  1  0
 15 20  1  0
 17 20  2  0
 18 21  1  0
 21 22  1  0
M  END
