mac-x0565-mac-x0360
     RDKit          3D

 23 25  0  0  0  0  0  0  0  0999 V2000
   27.6720   51.1190   -5.2540 O   0  0  0  0  0  0  0  0  0  0  0  0
   28.8280   51.7400   -4.7050 C   0  0  0  0  0  0  0  0  0  0  0  0
   28.2680   52.5650   -3.6850 O   0  0  0  0  0  0  0  0  0  0  0  0
   29.6160   52.4940   -5.9140 S   0  0  0  0  0  0  0  0  0  0  0  0
   29.4900   50.6680   -3.9070 C   0  0  0  0  0  0  0  0  0  0  0  0
   29.4510   51.3110   -6.9280 N   0  0  0  0  0  0  0  0  0  0  0  0
   28.6350   53.2890   -7.1960 O   0  0  0  0  0  0  0  0  0  0  0  0
   29.3740   49.3630   -4.3450 C   0  0  0  0  0  0  0  0  0  0  0  0
   30.2070   50.8750   -2.7590 C   0  0  0  0  0  0  0  0  0  0  0  0
   31.2420   52.6960   -6.0710 C   0  0  0  0  0  0  0  0  0  0  0  0
   29.9610   48.3020   -3.6570 C   0  0  0  0  0  0  0  0  0  0  0  0
   30.7990   49.8430   -2.0600 C   0  0  0  0  0  0  0  0  0  0  0  0
   32.1310   51.7530   -5.5530 C   0  0  0  0  0  0  0  0  0  0  0  0
   31.8790   53.7590   -6.6900 C   0  0  0  0  0  0  0  0  0  0  0  0
   30.6810   48.5400   -2.5010 C   0  0  0  0  0  0  0  0  0  0  0  0
   30.0160   46.9230   -3.8490 O   0  0  0  0  0  0  0  0  0  0  0  0
   33.4970   51.8590   -5.6460 C   0  0  0  0  0  0  0  0  0  0  0  0
   33.2450   53.8800   -6.7920 C   0  0  0  0  0  0  0  0  0  0  0  0
   33.9920   55.2600   -7.5940 Cl  0  0  0  0  0  0  0  0  0  0  0  0
   34.5870   50.6450   -4.9800 Cl  0  0  0  0  0  0  0  0  0  0  0  0
   31.1550   47.3110   -2.0170 O   0  0  0  0  0  0  0  0  0  0  0  0
   30.2830   46.3190   -2.5790 C   0  0  0  0  0  0  0  0  0  0  0  0
   34.0520   52.9260   -6.2660 C   0  0  0  0  0  0  0  0  0  0  0  0
  2  1  1  0
  2  3  1  0
  2  4  1  0
  2  5  1  0
  4  6  1  0
  4  7  2  0
  5  8  2  0
  5  9  1  0
  4 10  1  0
  8 11  1  0
  9 12  2  0
 10 13  2  0
 10 14  1  0
 11 15  2  0
 12 15  1  0
 11 16  1  0
 13 17  1  0
 14 18  2  0
 18 19  1  0
 17 20  1  0
 15 21  1  0
 16 22  1  0
 21 22  1  0
 17 23  2  0
 18 23  1  0
M  END
