mac-x0415-mac-x0412
     RDKit          3D

 27 30  0  0  0  0  0  0  0  0999 V2000
   33.6750   46.5930   -5.9390 O   0  0  0  0  0  0  0  0  0  0  0  0
   32.5350   45.8870   -5.7990 C   0  0  0  0  0  0  0  0  0  0  0  0
   31.6650   45.9490   -6.6550 O   0  0  0  0  0  0  0  0  0  0  0  0
   32.4950   45.0700   -4.5280 C   0  0  0  0  0  0  0  0  0  0  0  0
   31.1340   45.1000   -3.9560 C   0  0  0  0  0  0  0  0  0  0  0  0
   30.1020   44.0710   -4.1790 C   0  0  0  0  0  0  0  0  0  0  0  0
   30.4870   45.9300   -3.1410 C   0  0  0  0  0  0  0  0  0  0  0  0
   28.9400   44.2140   -3.6000 N   0  0  0  0  0  0  0  0  0  0  0  0
   29.0730   45.5110   -2.9090 C   0  0  1  0  0  0  0  0  0  0  0  0
   30.9240   47.1350   -2.4800 C   0  0  0  0  0  0  0  0  0  0  0  0
   28.7180   45.5940   -1.4630 C   0  0  0  0  0  0  0  0  0  0  0  0
   30.3600   47.4110   -1.2820 C   0  0  0  0  0  0  0  0  0  0  0  0
   30.7040   48.5270   -0.5410 O   0  0  0  0  0  0  0  0  0  0  0  0
   29.3460   46.5190   -0.7020 C   0  0  0  0  0  0  0  0  0  0  0  0
   30.6370   49.7120   -1.3310 C   0  0  0  0  0  0  0  0  0  0  0  0
   29.3630   49.6480   -2.1660 C   0  0  0  0  0  0  0  0  0  0  0  0
   29.5050   50.3310   -3.4970 C   0  0  0  0  0  0  0  0  0  0  0  0
   29.3880   49.5320   -4.7060 C   0  0  0  0  0  0  0  0  0  0  0  0
   29.7240   51.6500   -3.5930 C   0  0  0  0  0  0  0  0  0  0  0  0
   29.8460   52.3480   -4.9220 C   0  0  2  0  0  0  0  0  0  0  0  0
   29.2170   50.1100   -5.9050 C   0  0  0  0  0  0  0  0  0  0  0  0
   29.3420   53.8160   -4.8730 C   0  0  0  0  0  0  0  0  0  0  0  0
   29.1490   51.5540   -6.0170 C   0  0  0  0  0  0  0  0  0  0  0  0
   29.3500   54.4560   -3.8250 O   0  0  0  0  0  0  0  0  0  0  0  0
   28.5090   52.1550   -7.0290 C   0  0  0  0  0  0  0  0  0  0  0  0
   28.8910   54.3930   -6.0530 N   0  0  0  0  0  0  0  0  0  0  0  0
   28.5160   53.6260   -7.0220 C   0  0  0  0  0  0  0  0  0  0  0  0
  1  2  1  0
  2  3  2  0
  2  4  1  0
  4  5  1  0
  5  6  1  0
  5  7  2  0
  6  8  2  0
  7  9  1  0
  8  9  1  0
  7 10  1  0
  9 11  1  1
 10 12  2  0
 12 13  1  0
 11 14  2  0
 12 14  1  0
 13 15  1  0
 15 16  1  0
 16 17  1  0
 17 18  1  0
 17 19  2  0
 20 19  1  1
 18 21  2  0
 20 22  1  0
 20 23  1  0
 21 23  1  0
 22 24  2  0
 23 25  2  0
 22 26  1  0
 25 27  1  0
 26 27  2  0
M  END
