mac-x0344-mac-x0284
     RDKit          3D

 22 23  0  0  0  0  0  0  0  0999 V2000
   31.4380   44.5980   -4.1690 O   0  0  0  0  0  0  0  0  0  0  0  0
   31.7870   45.6150   -5.0820 C   0  0  0  0  0  0  0  0  0  0  0  0
   31.8510   44.8410   -6.2930 O   0  0  0  0  0  0  0  0  0  0  0  0
   33.2620   46.1690   -4.9640 C   0  0  0  0  0  0  0  0  0  0  0  0
   30.6290   46.6440   -5.3940 C   0  0  0  0  0  0  0  0  0  0  0  0
   33.7790   46.8380   -5.8540 O   0  0  0  0  0  0  0  0  0  0  0  0
   33.8890   45.7920   -3.7680 N   0  0  0  0  0  0  0  0  0  0  0  0
   29.8920   46.3580   -6.3530 O   0  0  0  0  0  0  0  0  0  0  0  0
   30.2930   47.9400   -4.6750 C   0  0  0  0  0  0  0  0  0  0  0  0
   35.1020   46.2860   -3.2290 C   0  0  0  0  0  0  0  0  0  0  0  0
   29.6170   48.9160   -5.4530 C   0  0  0  0  0  0  0  0  0  0  0  0
   30.5690   48.2740   -3.3410 C   0  0  0  0  0  0  0  0  0  0  0  0
   31.2060   47.4060   -2.5120 O   0  0  0  0  0  0  0  0  0  0  0  0
   36.0640   45.4970   -2.5900 C   0  0  0  0  0  0  0  0  0  0  0  0
   35.3380   47.6620   -3.3510 C   0  0  0  0  0  0  0  0  0  0  0  0
   29.2360   50.1680   -4.9280 C   0  0  0  0  0  0  0  0  0  0  0  0
   30.1950   49.5180   -2.8140 C   0  0  0  0  0  0  0  0  0  0  0  0
   28.5200   51.1790   -5.7780 C   0  0  0  0  0  0  0  0  0  0  0  0
   37.2370   46.0750   -2.0840 C   0  0  0  0  0  0  0  0  0  0  0  0
   36.5100   48.2390   -2.8450 C   0  0  0  0  0  0  0  0  0  0  0  0
   29.5340   50.4590   -3.6000 C   0  0  0  0  0  0  0  0  0  0  0  0
   37.4580   47.4450   -2.2120 C   0  0  0  0  0  0  0  0  0  0  0  0
  2  1  1  0
  2  3  1  0
  2  4  1  0
  2  5  1  0
  4  6  2  0
  4  7  1  0
  5  8  2  0
  5  9  1  0
  7 10  1  0
  9 11  2  0
  9 12  1  0
 12 13  1  0
 10 14  2  0
 10 15  1  0
 11 16  1  0
 12 17  2  0
 16 18  1  0
 14 19  1  0
 15 20  2  0
 16 21  2  0
 17 21  1  0
 19 22  2  0
 20 22  1  0
M  END
