MAC-120_0_A_α-3ew5_C_0_C_α
     RDKit          3D

 23 23  0  0  0  0  0  0  0  0999 V2000
   -7.0550   14.9390   -1.3320 C   0  0  0  0  0  0  0  0  0  0  0  0
   -5.5670   14.8400   -1.1480 C   0  0  0  0  0  0  0  0  0  0  0  0
   -4.7150   14.7720   -2.2500 C   0  0  0  0  0  0  0  0  0  0  0  0
   -5.0150   14.8150    0.1330 C   0  0  0  0  0  0  0  0  0  0  0  0
   -3.6330   14.7260    0.2790 C   0  0  0  0  0  0  0  0  0  0  0  0
   -3.3380   14.6830   -2.0390 C   0  0  0  0  0  0  0  0  0  0  0  0
   -3.0580   14.7060    1.5620 N   0  0  0  0  0  0  0  0  0  0  0  0
   -2.3720   14.5950   -3.2120 C   0  0  0  0  0  0  0  0  0  0  0  0
   -2.8110   14.6610   -0.7830 N   0  0  0  0  0  0  0  0  0  0  0  0
   -2.2670   15.7740   -4.2060 C   0  0  0  0  0  0  0  0  0  0  0  0
   -0.8200   16.2110   -4.5460 C   0  0  0  0  0  0  0  0  0  0  0  0
   -0.5600   17.7250   -4.6110 C   0  0  0  0  0  0  0  0  0  0  0  0
    0.0860   18.1670   -5.9120 C   0  0  0  0  0  0  0  0  0  0  0  0
   -0.8770   18.8720   -6.6720 O   0  0  0  0  0  0  0  0  0  0  0  0
   -0.3760   19.8730   -7.8040 P   0  0  1  0  0  0  0  0  0  0  0  0
   -1.6830   20.6570   -8.3010 O   0  0  0  0  0  0  0  0  0  0  0  0
    0.7880   20.7450   -7.4950 O   0  0  0  0  0  0  0  0  0  0  0  0
   -0.0090   18.8370   -8.9550 O   0  0  0  0  0  0  0  0  0  0  0  0
   -2.2330   21.6510   -7.4330 C   0  0  0  0  0  0  0  0  0  0  0  0
   -3.7220   21.8940   -7.7070 C   0  0  2  0  0  0  0  0  0  0  0  0
   -4.0190   23.2160   -8.4090 C   0  0  0  0  0  0  0  0  0  0  0  0
   -4.4540   21.8740   -6.4710 O   0  0  0  0  0  0  0  0  0  0  0  0
   -4.6520   22.9300   -9.6670 O   0  0  0  0  0  0  0  0  0  0  0  0
  1  2  1  0
  2  3  2  0
  2  4  1  0
  4  5  2  0
  3  6  1  0
  5  7  1  0
  6  8  1  0
  5  9  1  0
  6  9  2  0
  8 10  1  0
 10 11  1  0
 11 12  1  0
 12 13  1  0
 13 14  1  0
 14 15  1  0
 15 16  1  0
 15 17  2  0
 15 18  1  6
 16 19  1  0
 19 20  1  0
 20 21  1  0
 20 22  1  1
 21 23  1  0
M  END
