mac-x0587-mac-x0357
     RDKit          3D

 23 24  0  0  0  0  0  0  0  0999 V2000
   30.0260   45.7370   -2.9140 C   0  0  0  0  0  0  0  0  0  0  0  0
   30.3490   46.9240   -3.8080 C   0  0  2  0  0  0  0  0  0  0  0  0
   32.1280   47.2700   -3.9830 S   0  0  0  0  0  0  0  0  0  0  0  0
   29.6130   48.2200   -3.4870 C   0  0  0  0  0  0  0  0  0  0  0  0
   32.2740   47.1590   -5.8100 C   0  0  0  0  0  0  0  0  0  0  0  0
   29.3870   48.5010   -2.3020 O   0  0  0  0  0  0  0  0  0  0  0  0
   29.2150   49.0770   -4.5000 N   0  0  0  0  0  0  0  0  0  0  0  0
   33.1230   45.9420   -6.2210 C   0  0  0  0  0  0  0  0  0  0  0  0
   29.5430   50.4850   -4.3520 C   0  0  0  0  0  0  0  0  0  0  0  0
   28.9940   48.8270   -5.8740 C   0  0  0  0  0  0  0  0  0  0  0  0
   34.0650   46.2690   -7.2400 O   0  0  0  0  0  0  0  0  0  0  0  0
   32.2900   44.9540   -6.8120 O   0  0  0  0  0  0  0  0  0  0  0  0
   28.8650   47.7700   -6.4640 O   0  0  0  0  0  0  0  0  0  0  0  0
   29.0040   51.1360   -5.6060 C   0  0  0  0  0  0  0  0  0  0  0  0
   28.9340   50.0500   -6.5370 N   0  0  0  0  0  0  0  0  0  0  0  0
   33.8270   45.4310   -4.9760 C   0  0  0  0  0  0  0  0  0  0  0  0
   33.6580   44.1370   -4.4270 C   0  0  0  0  0  0  0  0  0  0  0  0
   34.7030   46.3280   -4.3290 C   0  0  0  0  0  0  0  0  0  0  0  0
   32.7450   43.0950   -5.0250 C   0  0  0  0  0  0  0  0  0  0  0  0
   35.3990   45.9780   -3.1780 C   0  0  0  0  0  0  0  0  0  0  0  0
   34.3760   43.8080   -3.2630 C   0  0  0  0  0  0  0  0  0  0  0  0
   34.2220   42.5600   -2.7240 O   0  0  0  0  0  0  0  0  0  0  0  0
   35.2370   44.7120   -2.6420 C   0  0  0  0  0  0  0  0  0  0  0  0
  2  1  1  1
  2  3  1  0
  2  4  1  0
  3  5  1  0
  4  6  2  0
  4  7  1  0
  5  8  1  0
  7  9  1  0
  7 10  1  0
  8 11  1  0
  8 12  1  0
 10 13  2  0
  9 14  1  0
 10 15  1  0
 14 15  1  0
  8 16  1  0
 16 17  2  0
 16 18  1  0
 17 19  1  0
 18 20  2  0
 17 21  1  0
 21 22  1  0
 20 23  1  0
 21 23  2  0
M  END
