mac-x0394-mac-x0159
     RDKit          3D

 28 31  0  0  0  0  0  0  0  0999 V2000
   23.2120   50.7760   -4.1460 Cl  0  0  0  0  0  0  0  0  0  0  0  0
   24.5910   51.8080   -4.2600 C   0  0  0  0  0  0  0  0  0  0  0  0
   24.5520   53.0740   -3.6820 C   0  0  0  0  0  0  0  0  0  0  0  0
   25.7370   51.3650   -4.9310 C   0  0  0  0  0  0  0  0  0  0  0  0
   26.8790   52.1900   -5.0370 C   0  0  0  0  0  0  0  0  0  0  0  0
   25.6720   53.8990   -3.7790 C   0  0  0  0  0  0  0  0  0  0  0  0
   25.6360   55.4700   -3.0670 Cl  0  0  0  0  0  0  0  0  0  0  0  0
   28.1260   51.6810   -5.7760 C   0  0  2  0  0  0  0  0  0  0  0  0
   26.8250   53.4680   -4.4480 C   0  0  0  0  0  0  0  0  0  0  0  0
   28.1610   51.9990   -7.2710 C   0  0  0  0  0  0  0  0  0  0  0  0
   28.4950   50.1810   -5.4320 C   0  0  2  0  0  0  0  0  0  0  0  0
   29.3150   52.5620   -7.7110 O   0  0  0  0  0  0  0  0  0  0  0  0
   27.2460   51.8020   -8.0660 O   0  0  0  0  0  0  0  0  0  0  0  0
   29.3220   50.0730   -4.1990 N   0  0  0  0  0  0  0  0  0  0  0  0
   29.2090   49.3980   -6.5750 C   0  0  1  0  0  0  0  0  0  0  0  0
   29.6240   48.6900   -3.7970 C   0  0  0  0  0  0  0  0  0  0  0  0
   29.5190   47.9980   -6.0850 C   0  0  2  0  0  0  0  0  0  0  0  0
   28.4090   49.0510   -7.7790 N   0  0  0  0  0  0  0  0  0  0  0  0
   30.2950   47.9830   -4.8650 N   0  0  0  0  0  0  0  0  0  0  0  0
   30.0850   47.4300   -7.3040 N   0  0  0  0  0  0  0  0  0  0  0  0
   29.0770   47.8400   -8.2920 C   0  0  0  0  0  0  0  0  0  0  0  0
   30.7650   46.6490   -4.4580 C   0  0  0  0  0  0  0  0  0  0  0  0
   29.7580   45.9400   -3.5860 C   0  0  0  0  0  0  0  0  0  0  0  0
   28.7720   45.0630   -4.0110 C   0  0  0  0  0  0  0  0  0  0  0  0
   29.7790   46.1520   -2.2100 N   0  0  0  0  0  0  0  0  0  0  0  0
   28.8290   45.4490   -1.6270 C   0  0  0  0  0  0  0  0  0  0  0  0
   27.8600   44.4970   -2.6770 S   0  0  0  0  0  0  0  0  0  0  0  0
   28.5630   45.4390   -0.1630 C   0  0  0  0  0  0  0  0  0  0  0  0
  1  2  1  0
  2  3  2  0
  2  4  1  0
  4  5  2  0
  3  6  1  0
  6  7  1  0
  5  8  1  0
  5  9  1  0
  6  9  2  0
  8 10  1  6
  8 11  1  0
 10 12  1  0
 10 13  2  0
 11 14  1  1
 11 15  1  0
 14 16  1  0
 15 17  1  0
 15 18  1  6
 16 19  1  0
 17 19  1  0
 17 20  1  6
 18 21  1  0
 20 21  1  0
 19 22  1  0
 22 23  1  0
 23 24  2  0
 23 25  1  0
 25 26  2  0
 24 27  1  0
 26 27  1  0
 26 28  1  0
M  END
