mac-x0328-mac-x0354
     RDKit          3D

 27 29  0  0  0  0  0  0  0  0999 V2000
   29.5230   47.7650   -4.2170 O   0  0  0  0  0  0  0  0  0  0  0  0
   29.8710   48.6080   -5.2040 C   0  0  0  0  0  0  0  0  0  0  0  0
   30.2210   48.1000   -6.3250 N   0  0  0  0  0  0  0  0  0  0  0  0
   29.7640   49.9950   -4.7430 C   0  0  0  0  0  0  0  0  0  0  0  0
   30.2350   46.6450   -6.5080 C   0  0  0  0  0  0  0  0  0  0  0  0
   29.4090   50.9950   -5.6520 C   0  0  0  0  0  0  0  0  0  0  0  0
   30.0200   50.3130   -3.4040 C   0  0  0  0  0  0  0  0  0  0  0  0
   31.6550   46.1450   -6.8080 C   0  0  0  0  0  0  0  0  0  0  0  0
   29.3060   52.3170   -5.2190 C   0  0  0  0  0  0  0  0  0  0  0  0
   29.9160   51.6360   -2.9720 C   0  0  0  0  0  0  0  0  0  0  0  0
   32.1860   45.3370   -5.7250 N   0  0  0  0  0  0  0  0  0  0  0  0
   29.5610   52.6270   -3.8850 C   0  0  0  0  0  0  0  0  0  0  0  0
   29.4480   53.9330   -3.5070 O   0  0  0  0  0  0  0  0  0  0  0  0
   33.3870   44.9480   -5.5550 C   0  0  0  0  0  0  0  0  0  0  0  0
   34.2220   45.3630   -6.5260 O   0  0  0  0  0  0  0  0  0  0  0  0
   33.9870   44.1440   -4.5060 C   0  0  0  0  0  0  0  0  0  0  0  0
   33.6880   42.8240   -4.0930 C   0  0  0  0  0  0  0  0  0  0  0  0
   35.0280   44.5120   -3.6390 C   0  0  0  0  0  0  0  0  0  0  0  0
   35.2450   43.4250   -2.8250 N   0  0  0  0  0  0  0  0  0  0  0  0
   34.4400   42.3840   -3.0830 N   0  0  0  0  0  0  0  0  0  0  0  0
   35.8130   45.7400   -3.5050 C   0  0  0  0  0  0  0  0  0  0  0  0
   36.2200   43.3110   -1.7630 C   0  0  0  0  0  0  0  0  0  0  0  0
   37.2020   45.7080   -3.6780 C   0  0  0  0  0  0  0  0  0  0  0  0
   35.1880   46.9550   -3.2000 C   0  0  0  0  0  0  0  0  0  0  0  0
   37.9560   46.8760   -3.5500 C   0  0  0  0  0  0  0  0  0  0  0  0
   35.9440   48.1230   -3.0720 C   0  0  0  0  0  0  0  0  0  0  0  0
   37.3280   48.0830   -3.2470 C   0  0  0  0  0  0  0  0  0  0  0  0
  1  2  1  0
  2  3  2  3
  2  4  1  0
  3  5  1  0
  4  6  2  0
  4  7  1  0
  5  8  1  0
  6  9  1  0
  7 10  2  0
  8 11  1  0
  9 12  2  0
 10 12  1  0
 12 13  1  0
 11 14  2  3
 14 15  1  0
 14 16  1  0
 16 17  1  0
 16 18  2  0
 18 19  1  0
 17 20  2  0
 19 20  1  0
 18 21  1  0
 19 22  1  0
 21 23  2  0
 21 24  1  0
 23 25  1  0
 24 26  2  0
 25 27  2  0
 26 27  1  0
M  END
