mac-x0306-mac-x0319
     RDKit          3D

 23 25  0  0  0  0  0  0  0  0999 V2000
   34.3100   45.8320   -6.7250 O   0  0  0  0  0  0  0  0  0  0  0  0
   33.0280   45.4830   -6.4520 C   0  0  0  0  0  0  0  0  0  0  0  0
   32.1120   45.7710   -7.2120 O   0  0  0  0  0  0  0  0  0  0  0  0
   32.8640   44.7370   -5.1430 C   0  0  0  0  0  0  0  0  0  0  0  0
   31.6850   45.2530   -4.3770 C   0  0  0  0  0  0  0  0  0  0  0  0
   30.5920   44.4450   -4.0530 C   0  0  0  0  0  0  0  0  0  0  0  0
   31.6860   46.5900   -3.9860 C   0  0  0  0  0  0  0  0  0  0  0  0
   29.5240   44.9850   -3.3470 C   0  0  0  0  0  0  0  0  0  0  0  0
   30.6250   47.1550   -3.2800 C   0  0  0  0  0  0  0  0  0  0  0  0
   28.4830   44.1470   -3.0610 O   0  0  0  0  0  0  0  0  0  0  0  0
   30.6950   48.6220   -2.8910 C   0  0  0  0  0  0  0  0  0  0  0  0
   29.5240   46.3320   -2.9540 C   0  0  0  0  0  0  0  0  0  0  0  0
   29.8050   49.5840   -3.5990 N   0  0  0  0  0  0  0  0  0  0  0  0
   29.5020   50.6850   -2.8160 C   0  0  0  0  0  0  0  0  0  0  0  0
   29.9240   49.8390   -4.9840 C   0  0  0  0  0  0  0  0  0  0  0  0
   29.0590   51.8550   -3.2800 C   0  0  0  0  0  0  0  0  0  0  0  0
   29.4940   50.9870   -5.5720 C   0  0  0  0  0  0  0  0  0  0  0  0
   28.8340   52.0830   -4.7510 C   0  0  0  0  0  0  0  0  0  0  0  0
   29.1150   53.5270   -5.1250 C   0  0  0  0  0  0  0  0  0  0  0  0
   28.7780   54.0540   -6.3560 N   0  0  0  0  0  0  0  0  0  0  0  0
   29.6850   54.4600   -4.3740 N   0  0  0  0  0  0  0  0  0  0  0  0
   29.7100   55.5960   -5.1320 C   0  0  0  0  0  0  0  0  0  0  0  0
   29.1520   55.3680   -6.3670 C   0  0  0  0  0  0  0  0  0  0  0  0
  1  2  1  0
  2  3  2  0
  2  4  1  0
  4  5  1  0
  5  6  2  0
  5  7  1  0
  6  8  1  0
  7  9  2  0
  8 10  1  0
  9 11  1  0
  8 12  2  0
  9 12  1  0
 11 13  1  0
 13 14  1  0
 13 15  1  0
 14 16  2  0
 15 17  2  0
 16 18  1  0
 17 18  1  0
 18 19  1  0
 19 20  1  0
 19 21  2  0
 21 22  1  0
 20 23  1  0
 22 23  2  0
M  END
