mac-x0387-mac-x0348
     RDKit          3D

 26 29  0  0  0  0  0  0  0  0999 V2000
   28.0610   51.2040   -7.8760 N   0  0  0  0  0  0  0  0  0  0  0  0
   28.3750   49.8870   -7.5170 C   0  0  0  0  0  0  0  0  0  0  0  0
   27.8800   48.9610   -8.3570 N   0  0  0  0  0  0  0  0  0  0  0  0
   29.1440   49.5840   -6.3710 C   0  0  0  0  0  0  0  0  0  0  0  0
   29.4200   48.2240   -6.0710 C   0  0  0  0  0  0  0  0  0  0  0  0
   28.1460   47.6780   -8.0650 C   0  0  0  0  0  0  0  0  0  0  0  0
   29.6400   50.5920   -5.5220 C   0  0  0  0  0  0  0  0  0  0  0  0
   28.8880   47.2720   -6.9690 C   0  0  0  0  0  0  0  0  0  0  0  0
   30.2020   47.8980   -4.9080 C   0  0  0  0  0  0  0  0  0  0  0  0
   30.3930   50.2820   -4.4020 C   0  0  0  0  0  0  0  0  0  0  0  0
   30.5420   46.4480   -4.5160 C   0  0  1  0  0  0  0  0  0  0  0  0
   30.6700   48.9570   -4.1010 C   0  0  0  0  0  0  0  0  0  0  0  0
   32.0180   46.0600   -4.3510 C   0  0  0  0  0  0  0  0  0  0  0  0
   29.7590   46.1770   -3.2420 C   0  0  0  0  0  0  0  0  0  0  0  0
   32.6220   45.6180   -5.6560 C   0  0  0  0  0  0  0  0  0  0  0  0
   28.7830   45.2020   -3.1120 C   0  0  0  0  0  0  0  0  0  0  0  0
   29.8430   46.8290   -1.9560 C   0  0  0  0  0  0  0  0  0  0  0  0
   32.1280   44.8560   -6.4690 O   0  0  0  0  0  0  0  0  0  0  0  0
   33.8350   46.1630   -5.8800 O   0  0  0  0  0  0  0  0  0  0  0  0
   28.2850   45.2340   -1.8360 N   0  0  0  0  0  0  0  0  0  0  0  0
   28.9120   46.2170   -1.1080 C   0  0  0  0  0  0  0  0  0  0  0  0
   30.6200   47.8810   -1.4270 C   0  0  0  0  0  0  0  0  0  0  0  0
   27.2510   44.3590   -1.3300 C   0  0  0  0  0  0  0  0  0  0  0  0
   30.4520   48.2890   -0.0960 C   0  0  0  0  0  0  0  0  0  0  0  0
   28.7350   46.6180    0.2310 C   0  0  0  0  0  0  0  0  0  0  0  0
   29.5210   47.6620    0.7160 C   0  0  0  0  0  0  0  0  0  0  0  0
  1  2  1  0
  2  3  2  0
  2  4  1  0
  4  5  2  0
  3  6  1  0
  4  7  1  0
  5  8  1  0
  6  8  2  0
  5  9  1  0
  7 10  2  0
  9 11  1  0
  9 12  2  0
 10 12  1  0
 11 13  1  1
 11 14  1  0
 13 15  1  0
 14 16  2  0
 14 17  1  0
 15 18  2  0
 15 19  1  0
 16 20  1  0
 17 21  2  0
 20 21  1  0
 17 22  1  0
 20 23  1  0
 22 24  2  0
 21 25  1  0
 24 26  1  0
 25 26  2  0
M  END
