mac-x0415-mac-x0555
     RDKit          3D

 27 30  0  0  0  0  0  0  0  0999 V2000
   33.6950   46.6130   -5.9500 O   0  0  0  0  0  0  0  0  0  0  0  0
   32.5670   45.8880   -5.8140 C   0  0  0  0  0  0  0  0  0  0  0  0
   31.6820   45.9370   -6.6610 O   0  0  0  0  0  0  0  0  0  0  0  0
   32.4960   45.0310   -4.5560 C   0  0  0  0  0  0  0  0  0  0  0  0
   31.1340   45.0460   -3.9740 C   0  0  0  0  0  0  0  0  0  0  0  0
   30.0820   44.0380   -4.1910 C   0  0  0  0  0  0  0  0  0  0  0  0
   30.5110   45.8730   -3.1360 C   0  0  0  0  0  0  0  0  0  0  0  0
   28.9310   44.1910   -3.5940 N   0  0  0  0  0  0  0  0  0  0  0  0
   29.0940   45.4730   -2.8880 C   0  0  1  0  0  0  0  0  0  0  0  0
   30.9680   47.0580   -2.4640 C   0  0  0  0  0  0  0  0  0  0  0  0
   28.7580   45.5500   -1.4380 C   0  0  0  0  0  0  0  0  0  0  0  0
   30.4270   47.3350   -1.2550 C   0  0  0  0  0  0  0  0  0  0  0  0
   30.8230   48.4540   -0.5550 O   0  0  0  0  0  0  0  0  0  0  0  0
   29.4050   46.4550   -0.6720 C   0  0  0  0  0  0  0  0  0  0  0  0
   30.2440   49.6530   -1.0380 C   0  0  0  0  0  0  0  0  0  0  0  0
   29.2030   49.3740   -2.1220 C   0  0  0  0  0  0  0  0  0  0  0  0
   29.2100   50.3570   -3.2500 C   0  0  0  0  0  0  0  0  0  0  0  0
   29.4780   51.6970   -2.9690 C   0  0  0  0  0  0  0  0  0  0  0  0
   28.9470   49.9660   -4.5600 C   0  0  0  0  0  0  0  0  0  0  0  0
   29.4830   52.6680   -3.9510 C   0  0  0  0  0  0  0  0  0  0  0  0
   28.9470   50.9220   -5.5710 C   0  0  0  0  0  0  0  0  0  0  0  0
   29.2070   52.2700   -5.2750 C   0  0  0  0  0  0  0  0  0  0  0  0
   29.7430   53.9430   -3.6060 N   0  0  0  0  0  0  0  0  0  0  0  0
   29.1990   53.2600   -6.2650 C   0  0  0  0  0  0  0  0  0  0  0  0
   29.7200   54.8610   -4.6030 C   0  0  0  0  0  0  0  0  0  0  0  0
   29.4550   54.5880   -5.9410 C   0  0  0  0  0  0  0  0  0  0  0  0
   29.4440   55.5860   -6.9150 N   0  0  0  0  0  0  0  0  0  0  0  0
  1  2  1  0
  2  3  2  0
  2  4  1  0
  4  5  1  0
  5  6  1  0
  5  7  2  0
  6  8  2  0
  7  9  1  0
  8  9  1  0
  7 10  1  0
  9 11  1  1
 10 12  2  0
 12 13  1  0
 11 14  2  0
 12 14  1  0
 13 15  1  0
 15 16  1  0
 16 17  1  0
 17 18  2  0
 17 19  1  0
 18 20  1  0
 19 21  2  0
 20 22  2  0
 21 22  1  0
 20 23  1  0
 22 24  1  0
 23 25  2  0
 24 26  2  0
 25 26  1  0
 26 27  1  0
M  END
