mac-x0567-mac-x0568
     RDKit          3D

 20 22  0  0  0  0  0  0  0  0999 V2000
   30.3940   46.9510   -8.3660 N   0  0  0  0  0  0  0  0  0  0  0  0
   29.4200   47.8710   -8.1990 C   0  0  0  0  0  0  0  0  0  0  0  0
   28.4090   48.0340   -9.1090 N   0  0  0  0  0  0  0  0  0  0  0  0
   29.1540   48.7970   -7.2360 C   0  0  0  0  0  0  0  0  0  0  0  0
   27.5150   48.9920   -8.8000 N   0  0  0  0  0  0  0  0  0  0  0  0
   27.9480   49.4880   -7.6370 C   0  0  0  0  0  0  0  0  0  0  0  0
   29.9020   49.0310   -6.0910 C   0  0  0  0  0  0  0  0  0  0  0  0
   27.4020   50.5050   -6.8570 C   0  0  0  0  0  0  0  0  0  0  0  0
   29.3380   50.0710   -5.3190 C   0  0  0  0  0  0  0  0  0  0  0  0
   29.9930   50.5270   -4.0420 C   0  0  2  0  0  0  0  0  0  0  0  0
   28.1360   50.7660   -5.6980 C   0  0  0  0  0  0  0  0  0  0  0  0
   31.2920   49.9700   -3.9260 O   0  0  0  0  0  0  0  0  0  0  0  0
   29.2810   50.1180   -2.8540 N   0  0  0  0  0  0  0  0  0  0  0  0
   30.0060   52.0260   -4.2370 C   0  0  0  0  0  0  0  0  0  0  0  0
   30.0830   52.9340   -3.1920 C   0  0  0  0  0  0  0  0  0  0  0  0
   29.9270   52.5670   -5.5330 C   0  0  0  0  0  0  0  0  0  0  0  0
   30.0820   54.2820   -3.3550 N   0  0  0  0  0  0  0  0  0  0  0  0
   29.9240   53.9410   -5.7280 C   0  0  0  0  0  0  0  0  0  0  0  0
   30.0020   54.7640   -4.6200 C   0  0  0  0  0  0  0  0  0  0  0  0
   30.0010   56.2520   -4.7940 C   0  0  0  0  0  0  0  0  0  0  0  0
  1  2  1  0
  2  3  1  0
  2  4  2  0
  3  5  1  0
  4  6  1  0
  5  6  2  0
  4  7  1  0
  6  8  1  0
  7  9  2  0
  9 10  1  0
  8 11  2  0
  9 11  1  0
 10 12  1  0
 10 13  1  1
 10 14  1  0
 14 15  2  0
 14 16  1  0
 15 17  1  0
 16 18  2  0
 17 19  2  0
 18 19  1  0
 19 20  1  0
M  END
