mac-x0124-mac-x0333
     RDKit          3D

 20 23  0  0  0  0  0  0  0  0999 V2000
   29.8100   48.2660   -4.0090 C   0  0  0  0  0  0  0  0  0  0  0  0
   29.4250   48.5970   -5.3640 N   0  0  0  0  0  0  0  0  0  0  0  0
   29.1420   49.8650   -5.8430 C   0  0  0  0  0  0  0  0  0  0  0  0
   29.2890   47.6720   -6.3710 C   0  0  0  0  0  0  0  0  0  0  0  0
   28.8200   49.7190   -7.1840 C   0  0  0  0  0  0  0  0  0  0  0  0
   28.9100   48.3430   -7.5240 C   0  0  0  0  0  0  0  0  0  0  0  0
   29.4880   46.3470   -6.2550 N   0  0  0  0  0  0  0  0  0  0  0  0
   29.1870   51.0910   -5.0470 C   0  0  0  0  0  0  0  0  0  0  0  0
   28.7170   47.5680   -8.6750 C   0  0  0  0  0  0  0  0  0  0  0  0
   29.2740   45.7090   -7.4190 C   0  0  0  0  0  0  0  0  0  0  0  0
   30.3640   51.4480   -4.3760 C   0  0  0  0  0  0  0  0  0  0  0  0
   28.0450   51.9190   -4.9540 C   0  0  0  0  0  0  0  0  0  0  0  0
   28.3370   48.0930   -9.9020 N   0  0  0  0  0  0  0  0  0  0  0  0
   28.9050   46.2350   -8.6030 N   0  0  0  0  0  0  0  0  0  0  0  0
   30.3600   52.6150   -3.6380 C   0  0  0  0  0  0  0  0  0  0  0  0
   28.0710   53.0950   -4.1980 C   0  0  0  0  0  0  0  0  0  0  0  0
   29.2450   53.4150   -3.5510 C   0  0  0  0  0  0  0  0  0  0  0  0
   31.4080   53.1100   -2.9270 O   0  0  0  0  0  0  0  0  0  0  0  0
   29.4520   54.5120   -2.7750 O   0  0  0  0  0  0  0  0  0  0  0  0
   30.8440   54.3430   -2.4330 C   0  0  0  0  0  0  0  0  0  0  0  0
  1  2  1  0
  2  3  1  0
  2  4  1  0
  3  5  2  0
  4  6  2  0
  5  6  1  0
  4  7  1  0
  3  8  1  0
  6  9  1  0
  7 10  2  0
  8 11  2  0
  8 12  1  0
  9 13  1  0
  9 14  2  0
 10 14  1  0
 11 15  1  0
 12 16  2  0
 15 17  2  0
 16 17  1  0
 15 18  1  0
 17 19  1  0
 18 20  1  0
 19 20  1  0
M  END
