mac-x0303-mac-x0137
     RDKit          3D

 29 33  0  0  0  0  0  0  0  0999 V2000
   29.8740   57.6670   -6.1840 N   0  0  0  0  0  0  0  0  0  0  0  0
   28.8830   56.8430   -5.0820 S   0  0  0  0  0  0  0  0  0  0  0  0
   27.5820   56.8070   -5.7010 O   0  0  0  0  0  0  0  0  0  0  0  0
   29.1540   57.4520   -3.8030 O   0  0  0  0  0  0  0  0  0  0  0  0
   29.4900   55.1920   -5.0150 C   0  0  0  0  0  0  0  0  0  0  0  0
   29.4630   54.4470   -3.8600 N   0  0  0  0  0  0  0  0  0  0  0  0
   30.0160   54.5020   -6.0080 N   0  0  0  0  0  0  0  0  0  0  0  0
   29.9990   53.2130   -4.1300 C   0  0  0  0  0  0  0  0  0  0  0  0
   30.3330   53.2820   -5.4770 C   0  0  0  0  0  0  0  0  0  0  0  0
   30.2140   52.0730   -3.3350 C   0  0  0  0  0  0  0  0  0  0  0  0
   30.9150   52.1760   -6.0950 C   0  0  0  0  0  0  0  0  0  0  0  0
   30.7970   50.9690   -3.9680 C   0  0  0  0  0  0  0  0  0  0  0  0
   31.1370   51.0340   -5.3250 C   0  0  0  0  0  0  0  0  0  0  0  0
   31.0980   49.7580   -3.4270 O   0  0  0  0  0  0  0  0  0  0  0  0
   30.8360   48.5590   -4.1500 C   0  0  2  0  0  0  0  0  0  0  0  0
   29.4330   47.9740   -4.0420 C   0  0  0  0  0  0  0  0  0  0  0  0
   31.9040   47.4780   -4.0830 C   0  0  0  0  0  0  0  0  0  0  0  0
   29.2260   47.1280   -5.2350 N   0  0  0  0  0  0  0  0  0  0  0  0
   31.6430   46.4730   -5.2090 C   0  0  0  0  0  0  0  0  0  0  0  0
   30.1810   45.9980   -5.2700 C   0  0  0  0  0  0  0  0  0  0  0  0
   28.7290   47.7010   -6.4210 C   0  0  0  0  0  0  0  0  0  0  0  0
   28.8250   47.0360   -7.6320 N   0  0  0  0  0  0  0  0  0  0  0  0
   28.1250   48.9130   -6.4910 C   0  0  0  0  0  0  0  0  0  0  0  0
   28.3560   47.5620   -8.8050 C   0  0  0  0  0  0  0  0  0  0  0  0
   27.6310   49.4190   -7.8010 C   0  0  0  0  0  0  0  0  0  0  0  0
   27.7760   49.9710   -5.5950 C   0  0  0  0  0  0  0  0  0  0  0  0
   27.7720   48.7050   -8.9540 N   0  0  0  0  0  0  0  0  0  0  0  0
   27.0670   50.5930   -7.7050 N   0  0  0  0  0  0  0  0  0  0  0  0
   27.1720   50.9010   -6.3540 C   0  0  0  0  0  0  0  0  0  0  0  0
  2  1  1  0
  2  3  2  0
  2  4  2  0
  2  5  1  0
  5  6  1  0
  5  7  2  0
  6  8  1  0
  7  9  1  0
  8  9  2  0
  8 10  1  0
  9 11  1  0
 10 12  2  0
 11 13  2  0
 12 13  1  0
 12 14  1  0
 15 14  1  1
 15 16  1  0
 15 17  1  0
 16 18  1  0
 17 19  1  0
 18 20  1  0
 19 20  1  0
 18 21  1  0
 21 22  1  0
 21 23  2  0
 22 24  1  0
 23 25  1  0
 23 26  1  0
 24 27  2  0
 25 27  1  0
 25 28  2  0
 26 29  2  0
 28 29  1  0
M  END
