mac-x0496-mac-x0204
     RDKit          3D

 30 32  0  0  0  0  0  0  0  0999 V2000
   24.8740   59.1880   -6.3150 C   0  0  0  0  0  0  0  0  0  0  0  0
   25.9220   58.6290   -5.4470 C   0  0  0  0  0  0  0  0  0  0  0  0
   25.9440   58.8350   -4.1210 N   0  0  0  0  0  0  0  0  0  0  0  0
   26.9480   57.8600   -5.9280 N   0  0  0  0  0  0  0  0  0  0  0  0
   27.0790   58.1400   -3.7060 O   0  0  0  0  0  0  0  0  0  0  0  0
   27.6260   57.5850   -4.8300 C   0  0  0  0  0  0  0  0  0  0  0  0
   28.8620   56.7860   -4.6350 C   0  0  0  0  0  0  0  0  0  0  0  0
   28.8020   55.5500   -5.4010 N   0  0  0  0  0  0  0  0  0  0  0  0
   29.4290   54.3610   -5.1610 C   0  0  0  0  0  0  0  0  0  0  0  0
   30.3990   54.2960   -4.4100 O   0  0  0  0  0  0  0  0  0  0  0  0
   28.9370   53.1350   -5.8110 C   0  0  0  0  0  0  0  0  0  0  0  0
   28.3960   53.1900   -7.1020 C   0  0  0  0  0  0  0  0  0  0  0  0
   29.0160   51.9200   -5.1210 C   0  0  0  0  0  0  0  0  0  0  0  0
   27.9300   52.0230   -7.7140 C   0  0  0  0  0  0  0  0  0  0  0  0
   28.5470   50.7600   -5.7410 C   0  0  0  0  0  0  0  0  0  0  0  0
   28.6210   49.4760   -5.0400 C   0  0  0  0  0  0  0  0  0  0  0  0
   28.0050   50.8060   -7.0330 C   0  0  0  0  0  0  0  0  0  0  0  0
   29.4140   48.4730   -5.1670 N   0  0  0  0  0  0  0  0  0  0  0  0
   27.6580   49.4040   -4.1120 O   0  0  0  0  0  0  0  0  0  0  0  0
   29.2140   47.3070   -4.2790 C   0  0  0  0  0  0  0  0  0  0  0  0
   30.4610   46.3720   -4.3490 C   0  0  0  0  0  0  0  0  0  0  0  0
   31.1210   46.5320   -5.6000 O   0  0  0  0  0  0  0  0  0  0  0  0
   30.0170   45.0270   -4.3600 O   0  0  0  0  0  0  0  0  0  0  0  0
   31.4190   46.6020   -3.2010 C   0  0  0  0  0  0  0  0  0  0  0  0
   30.9960   46.6110   -1.8590 C   0  0  0  0  0  0  0  0  0  0  0  0
   32.7830   46.8190   -3.4250 C   0  0  0  0  0  0  0  0  0  0  0  0
   31.9190   46.8270   -0.8430 C   0  0  0  0  0  0  0  0  0  0  0  0
   33.7030   47.0320   -2.4530 N   0  0  0  0  0  0  0  0  0  0  0  0
   31.5520   46.8420    0.4680 O   0  0  0  0  0  0  0  0  0  0  0  0
   33.2490   47.0320   -1.1790 C   0  0  0  0  0  0  0  0  0  0  0  0
  1  2  1  0
  2  3  2  0
  2  4  1  0
  3  5  1  0
  4  6  2  0
  5  6  1  0
  6  7  1  0
  7  8  1  0
  8  9  1  0
  9 10  2  0
  9 11  1  0
 11 12  2  0
 11 13  1  0
 12 14  1  0
 13 15  2  0
 15 16  1  0
 14 17  2  0
 15 17  1  0
 16 18  2  3
 16 19  1  0
 18 20  1  0
 20 21  1  0
 21 22  1  0
 21 23  1  0
 21 24  1  0
 24 25  2  0
 24 26  1  0
 25 27  1  0
 26 28  2  0
 27 29  1  0
 27 30  2  0
 28 30  1  0
M  END
