mac-x0337-mac-x0433
     RDKit          3D

 19 20  0  0  0  0  0  0  0  0999 V2000
   35.5460   52.3120   -5.4480 C   0  0  0  0  0  0  0  0  0  0  0  0
   34.1910   51.6630   -5.4810 C   0  0  0  0  0  0  0  0  0  0  0  0
   33.0990   52.3290   -6.0510 C   0  0  0  0  0  0  0  0  0  0  0  0
   34.0130   50.3810   -4.9400 C   0  0  0  0  0  0  0  0  0  0  0  0
   32.7580   49.7700   -4.9660 C   0  0  0  0  0  0  0  0  0  0  0  0
   31.8410   51.7210   -6.0800 C   0  0  0  0  0  0  0  0  0  0  0  0
   31.6790   50.4440   -5.5380 C   0  0  0  0  0  0  0  0  0  0  0  0
   30.0920   49.6670   -5.5710 S   0  0  2  0  0  0  0  0  0  0  0  0
   30.1890   48.4210   -6.2940 O   0  0  0  0  0  0  0  0  0  0  0  0
   28.9820   50.7040   -5.7030 N   0  0  0  0  0  0  0  0  0  0  0  0
   29.7470   49.1040   -4.0210 N   0  0  0  0  0  0  0  0  0  0  0  0
   29.0620   51.8640   -4.8270 C   0  0  0  0  0  0  0  0  0  0  0  0
   28.9850   51.6310   -3.5130 N   0  0  0  0  0  0  0  0  0  0  0  0
   29.2070   53.1060   -5.3910 C   0  0  0  0  0  0  0  0  0  0  0  0
   29.0590   52.7030   -2.7340 C   0  0  0  0  0  0  0  0  0  0  0  0
   29.2730   54.1510   -4.5020 C   0  0  0  0  0  0  0  0  0  0  0  0
   29.4290   55.5570   -4.9930 C   0  0  0  0  0  0  0  0  0  0  0  0
   28.9860   52.5060   -1.3720 N   0  0  0  0  0  0  0  0  0  0  0  0
   29.1990   53.9600   -3.1690 N   0  0  0  0  0  0  0  0  0  0  0  0
  1  2  1  0
  2  3  2  0
  2  4  1  0
  4  5  2  0
  3  6  1  0
  5  7  1  0
  6  7  2  0
  7  8  1  0
  8  9  2  0
  8 10  2  0
  8 11  1  1
 10 12  1  0
 12 13  2  0
 12 14  1  0
 13 15  1  0
 14 16  2  0
 16 17  1  0
 15 18  1  0
 15 19  2  0
 16 19  1  0
M  END
