mac-x0402-mac-x0206
     RDKit          3D

 15 16  0  0  0  0  0  0  0  0999 V2000
   31.3080   47.6010   -4.2020 Cl  0  0  0  0  0  0  0  0  0  0  0  0
   30.3990   49.0910   -4.5900 C   0  0  1  0  0  0  0  0  0  0  0  0
   30.4830   50.0160   -3.4190 C   0  0  0  0  0  0  0  0  0  0  0  0
   30.8590   49.7190   -5.9150 C   0  0  0  0  0  0  0  0  0  0  0  0
   30.7280   51.2500   -6.0780 C   0  0  2  0  0  0  0  0  0  0  0  0
   30.3600   51.3370   -3.5410 C   0  0  0  0  0  0  0  0  0  0  0  0
   30.1290   52.0070   -4.8670 C   0  0  1  0  0  0  0  0  0  0  0  0
   29.7350   51.7600   -7.5120 S   0  0  0  0  0  0  0  0  0  0  0  0
   30.7400   53.2910   -4.8090 O   0  0  0  0  0  0  0  0  0  0  0  0
   28.4660   52.5150   -6.4950 C   0  0  1  0  0  0  0  0  0  0  0  0
   28.7070   52.1490   -5.1250 N   0  0  0  0  0  0  0  0  0  0  0  0
   28.5630   53.9480   -6.6230 N   0  0  0  0  0  0  0  0  0  0  0  0
   27.8480   51.3560   -4.4230 C   0  0  0  0  0  0  0  0  0  0  0  0
   27.1210   50.4520   -5.1270 N   0  0  0  0  0  0  0  0  0  0  0  0
   27.7050   51.4150   -3.2030 O   0  0  0  0  0  0  0  0  0  0  0  0
  2  1  1  1
  2  3  1  0
  2  4  1  0
  5  4  1  1
  3  6  2  0
  5  7  1  0
  6  7  1  0
  5  8  1  0
  7  9  1  1
  8 10  1  0
  7 11  1  0
 10 11  1  0
 10 12  1  1
 11 13  1  0
 13 14  1  0
 13 15  2  0
M  END
