mac-x0137-mac-x0510
     RDKit          3D

 17 19  0  0  0  0  0  0  0  0999 V2000
   32.0830   49.5040   -3.5890 F   0  0  0  0  0  0  0  0  0  0  0  0
   31.3200   48.4030   -3.3340 C   0  0  2  0  0  0  0  0  0  0  0  0
   32.1290   47.1600   -3.6720 C   0  0  0  0  0  0  0  0  0  0  0  0
   30.0350   48.4730   -4.1580 C   0  0  0  0  0  0  0  0  0  0  0  0
   30.3100   48.3630   -5.6110 N   0  0  0  0  0  0  0  0  0  0  0  0
   32.3650   47.0670   -5.1760 C   0  0  0  0  0  0  0  0  0  0  0  0
   31.0470   47.1250   -5.9470 C   0  0  0  0  0  0  0  0  0  0  0  0
   29.3140   48.7750   -6.5020 C   0  0  0  0  0  0  0  0  0  0  0  0
   28.8450   47.9500   -7.4040 N   0  0  0  0  0  0  0  0  0  0  0  0
   28.7440   50.1220   -6.4780 C   0  0  0  0  0  0  0  0  0  0  0  0
   27.8670   48.3700   -8.2740 C   0  0  0  0  0  0  0  0  0  0  0  0
   27.7220   50.4760   -7.4280 C   0  0  0  0  0  0  0  0  0  0  0  0
   28.9110   51.2310   -5.7620 C   0  0  0  0  0  0  0  0  0  0  0  0
   27.3170   49.5420   -8.3180 N   0  0  0  0  0  0  0  0  0  0  0  0
   27.2710   51.6790   -7.3460 N   0  0  0  0  0  0  0  0  0  0  0  0
   27.9770   52.2330   -6.3080 C   0  0  0  0  0  0  0  0  0  0  0  0
   27.8890   53.3630   -5.8650 O   0  0  0  0  0  0  0  0  0  0  0  0
  2  1  1  6
  2  3  1  0
  2  4  1  0
  4  5  1  0
  3  6  1  0
  5  7  1  0
  6  7  1  0
  5  8  1  0
  8  9  2  0
  8 10  1  0
  9 11  1  0
 10 12  1  0
 10 13  2  0
 11 14  2  0
 12 14  1  0
 12 15  2  0
 13 16  1  0
 15 16  1  0
 16 17  2  0
M  END
