mac-x0564-mac-x0453
     RDKit          3D

 17 19  0  0  0  0  0  0  0  0999 V2000
   30.1420   46.4940   -6.9240 O   0  0  0  0  0  0  0  0  0  0  0  0
   30.4120   46.7900   -5.7680 C   0  0  0  0  0  0  0  0  0  0  0  0
   31.0050   45.8830   -4.8840 N   0  0  0  0  0  0  0  0  0  0  0  0
   30.1630   48.0830   -5.1630 C   0  0  0  0  0  0  0  0  0  0  0  0
   30.2970   48.3350   -3.8250 C   0  0  0  0  0  0  0  0  0  0  0  0
   31.0970   46.1980   -3.6300 C   0  0  0  0  0  0  0  0  0  0  0  0
   29.7660   49.2200   -5.8210 O   0  0  0  0  0  0  0  0  0  0  0  0
   30.6830   47.3440   -2.9970 N   0  0  0  0  0  0  0  0  0  0  0  0
   29.6510   50.2050   -4.8560 C   0  0  0  0  0  0  0  0  0  0  0  0
   29.9730   49.6820   -3.5990 C   0  0  0  0  0  0  0  0  0  0  0  0
   29.9160   50.5200   -2.4730 C   0  0  0  0  0  0  0  0  0  0  0  0
   29.2710   51.5560   -5.0600 C   0  0  0  0  0  0  0  0  0  0  0  0
   28.9310   52.1870   -6.3790 C   0  0  0  0  0  0  0  0  0  0  0  0
   29.5380   51.8530   -2.6450 C   0  0  0  0  0  0  0  0  0  0  0  0
   29.2260   52.3510   -3.9060 C   0  0  0  0  0  0  0  0  0  0  0  0
   29.9060   53.3300   -6.7160 C   0  0  0  0  0  0  0  0  0  0  0  0
   29.2550   54.6310   -6.8900 N   0  0  0  0  0  0  0  0  0  0  0  0
  1  2  2  0
  2  3  1  0
  2  4  1  0
  4  5  2  0
  3  6  2  0
  4  7  1  0
  5  8  1  0
  6  8  1  0
  7  9  1  0
  5 10  1  0
  9 10  2  0
 10 11  1  0
  9 12  1  0
 12 13  1  0
 11 14  2  0
 12 15  2  0
 14 15  1  0
 13 16  1  0
 16 17  1  0
M  END
