mac-x0204-mac-x0163
     RDKit          3D

 25 27  0  0  0  0  0  0  0  0999 V2000
   32.6210   43.2450   -3.8680 O   0  0  0  0  0  0  0  0  0  0  0  0
   31.4340   43.8180   -3.5900 C   0  0  0  0  0  0  0  0  0  0  0  0
   30.4040   43.3150   -3.9970 O   0  0  0  0  0  0  0  0  0  0  0  0
   31.5790   45.0550   -2.7740 C   0  0  0  0  0  0  0  0  0  0  0  0
   31.0590   45.0860   -1.4690 C   0  0  0  0  0  0  0  0  0  0  0  0
   32.2230   46.2110   -3.2540 C   0  0  0  0  0  0  0  0  0  0  0  0
   31.1890   46.2320   -0.6970 C   0  0  0  0  0  0  0  0  0  0  0  0
   32.3500   47.3370   -2.4860 N   0  0  0  0  0  0  0  0  0  0  0  0
   32.8320   46.3360   -4.6330 C   0  0  0  0  0  0  0  0  0  0  0  0
   30.6730   46.2260    0.5640 O   0  0  0  0  0  0  0  0  0  0  0  0
   31.8360   47.3240   -1.2390 C   0  0  0  0  0  0  0  0  0  0  0  0
   31.8080   46.6550   -5.7500 C   0  0  2  0  0  0  0  0  0  0  0  0
   32.2480   47.9030   -6.5480 C   0  0  0  0  0  0  0  0  0  0  0  0
   30.3530   46.8020   -5.2460 C   0  0  0  0  0  0  0  0  0  0  0  0
   31.4030   49.0710   -6.2240 N   0  0  0  0  0  0  0  0  0  0  0  0
   30.1330   48.0530   -4.3940 C   0  0  0  0  0  0  0  0  0  0  0  0
   30.2190   49.1410   -7.0120 C   0  0  0  0  0  0  0  0  0  0  0  0
   31.0970   49.1680   -4.7840 C   0  0  0  0  0  0  0  0  0  0  0  0
   29.3970   50.2740   -6.9800 C   0  0  0  0  0  0  0  0  0  0  0  0
   29.9090   48.0850   -7.7970 N   0  0  0  0  0  0  0  0  0  0  0  0
   29.7400   51.6610   -5.9980 Cl  0  0  0  0  0  0  0  0  0  0  0  0
   28.2630   50.2480   -7.7870 C   0  0  0  0  0  0  0  0  0  0  0  0
   28.7920   48.1710   -8.5310 C   0  0  0  0  0  0  0  0  0  0  0  0
   27.3610   51.3170   -7.8440 N   0  0  0  0  0  0  0  0  0  0  0  0
   27.9440   49.2050   -8.5700 N   0  0  0  0  0  0  0  0  0  0  0  0
  1  2  1  0
  2  3  2  0
  2  4  1  0
  4  5  2  0
  4  6  1  0
  5  7  1  0
  6  8  2  0
  6  9  1  0
  7 10  1  0
  7 11  2  0
  8 11  1  0
 12  9  1  1
 12 13  1  0
 12 14  1  0
 13 15  1  0
 14 16  1  0
 15 17  1  0
 15 18  1  0
 16 18  1  0
 17 19  2  0
 17 20  1  0
 19 21  1  0
 19 22  1  0
 20 23  2  0
 22 24  1  0
 22 25  2  0
 23 25  1  0
M  END
