mac-x0137-mac-x0411
     RDKit          3D

 28 31  0  0  0  0  0  0  0  0999 V2000
   31.7660   48.2150   -2.3260 F   0  0  0  0  0  0  0  0  0  0  0  0
   31.6610   47.7780   -3.6290 C   0  0  2  0  0  0  0  0  0  0  0  0
   32.9370   48.2270   -4.3870 C   0  0  2  0  0  0  0  0  0  0  0  0
   30.3840   48.4080   -4.2090 C   0  0  0  0  0  0  0  0  0  0  0  0
   30.3970   48.3830   -5.6870 N   0  0  0  0  0  0  0  0  0  0  0  0
   32.8350   47.9770   -5.9020 C   0  0  0  0  0  0  0  0  0  0  0  0
   34.2620   47.7180   -3.7960 C   0  0  0  0  0  0  0  0  0  0  0  0
   31.4250   47.5130   -6.2850 C   0  0  0  0  0  0  0  0  0  0  0  0
   29.3400   48.8730   -6.4660 C   0  0  0  0  0  0  0  0  0  0  0  0
   34.6270   46.3530   -3.6180 C   0  0  0  0  0  0  0  0  0  0  0  0
   35.1840   48.7120   -3.4030 C   0  0  0  0  0  0  0  0  0  0  0  0
   33.7240   45.3830   -4.0040 O   0  0  0  0  0  0  0  0  0  0  0  0
   28.8100   48.1180   -7.4970 N   0  0  0  0  0  0  0  0  0  0  0  0
   28.7670   50.0780   -6.2920 C   0  0  0  0  0  0  0  0  0  0  0  0
   36.4210   48.3870   -2.8560 C   0  0  0  0  0  0  0  0  0  0  0  0
   35.8870   46.0410   -3.0580 C   0  0  0  0  0  0  0  0  0  0  0  0
   36.4390   44.4250   -2.7910 Cl  0  0  0  0  0  0  0  0  0  0  0  0
   33.6570   45.1600   -5.4160 C   0  0  0  0  0  0  0  0  0  0  0  0
   27.7860   48.5680   -8.2850 C   0  0  0  0  0  0  0  0  0  0  0  0
   27.6550   50.5050   -7.1780 C   0  0  0  0  0  0  0  0  0  0  0  0
   28.9280   51.1920   -5.4130 C   0  0  0  0  0  0  0  0  0  0  0  0
   36.7720   47.0560   -2.6850 C   0  0  0  0  0  0  0  0  0  0  0  0
   33.4790   43.6940   -5.7740 C   0  0  0  0  0  0  0  0  0  0  0  0
   27.1850   49.7110   -8.1830 N   0  0  0  0  0  0  0  0  0  0  0  0
   27.2080   51.6950   -6.8750 N   0  0  0  0  0  0  0  0  0  0  0  0
   28.0000   52.0820   -5.8000 C   0  0  0  0  0  0  0  0  0  0  0  0
   32.2470   43.2010   -5.5250 O   0  0  0  0  0  0  0  0  0  0  0  0
   34.3380   42.9730   -6.2600 O   0  0  0  0  0  0  0  0  0  0  0  0
  2  1  1  1
  2  3  1  0
  2  4  1  0
  4  5  1  0
  3  6  1  0
  3  7  1  1
  5  8  1  0
  6  8  1  0
  5  9  1  0
  7 10  2  0
  7 11  1  0
 10 12  1  0
  9 13  1  0
  9 14  2  0
 11 15  2  0
 10 16  1  0
 16 17  1  0
 12 18  1  0
 13 19  1  0
 14 20  1  0
 14 21  1  0
 15 22  1  0
 16 22  2  0
 18 23  1  0
 19 24  2  0
 20 24  1  0
 20 25  2  0
 21 26  2  0
 25 26  1  0
 23 27  1  0
 23 28  2  0
M  END
