mac-x0387-mac-x0568
     RDKit          3D

 21 23  0  0  0  0  0  0  0  0999 V2000
   27.8860   50.4910   -7.2630 N   0  0  0  0  0  0  0  0  0  0  0  0
   28.4940   49.2430   -7.5060 C   0  0  0  0  0  0  0  0  0  0  0  0
   28.3780   48.8390   -8.7850 N   0  0  0  0  0  0  0  0  0  0  0  0
   29.1550   48.5070   -6.4800 C   0  0  0  0  0  0  0  0  0  0  0  0
   29.7150   47.2740   -6.8730 C   0  0  0  0  0  0  0  0  0  0  0  0
   28.9300   47.6540   -9.1020 C   0  0  0  0  0  0  0  0  0  0  0  0
   29.3020   48.8920   -5.1140 C   0  0  0  0  0  0  0  0  0  0  0  0
   28.7560   50.1060   -4.7090 N   0  0  0  0  0  0  0  0  0  0  0  0
   29.5980   46.8500   -8.1960 C   0  0  0  0  0  0  0  0  0  0  0  0
   30.3900   46.4730   -5.9360 C   0  0  0  0  0  0  0  0  0  0  0  0
   29.9750   48.0810   -4.2050 C   0  0  0  0  0  0  0  0  0  0  0  0
   29.3990   51.0220   -3.9310 C   0  0  0  0  0  0  0  0  0  0  0  0
   30.5190   46.8740   -4.6110 C   0  0  0  0  0  0  0  0  0  0  0  0
   29.8790   50.8280   -2.8230 O   0  0  0  0  0  0  0  0  0  0  0  0
   29.5030   52.3620   -4.5280 C   0  0  0  0  0  0  0  0  0  0  0  0
   29.7200   53.4310   -3.6840 C   0  0  0  0  0  0  0  0  0  0  0  0
   29.3950   52.6120   -5.8980 C   0  0  0  0  0  0  0  0  0  0  0  0
   29.8350   54.7110   -4.1060 N   0  0  0  0  0  0  0  0  0  0  0  0
   29.5070   53.9200   -6.3570 C   0  0  0  0  0  0  0  0  0  0  0  0
   29.7250   54.9380   -5.4340 C   0  0  0  0  0  0  0  0  0  0  0  0
   29.8490   56.3570   -5.8930 C   0  0  0  0  0  0  0  0  0  0  0  0
  1  2  1  0
  2  3  2  0
  2  4  1  0
  4  5  2  0
  3  6  1  0
  4  7  1  0
  7  8  1  0
  5  9  1  0
  6  9  2  0
  5 10  1  0
  7 11  2  0
  8 12  1  0
 10 13  2  0
 11 13  1  0
 12 14  2  0
 12 15  1  0
 15 16  2  0
 15 17  1  0
 16 18  1  0
 17 19  2  0
 18 20  2  0
 19 20  1  0
 20 21  1  0
M  END
