mac-x0148-mac-x0263
     RDKit          3D

 31 36  0  0  0  0  0  0  0  0999 V2000
   28.0490   59.9520   -6.4750 O   0  0  0  0  0  0  0  0  0  0  0  0
   26.9240   59.2130   -6.3780 C   0  0  0  0  0  0  0  0  0  0  0  0
   25.8410   59.6700   -6.7120 O   0  0  0  0  0  0  0  0  0  0  0  0
   27.1490   57.8290   -5.8320 C   0  0  0  0  0  0  0  0  0  0  0  0
   28.3490   57.1660   -6.4870 C   0  0  0  0  0  0  0  0  0  0  0  0
   28.4610   55.7180   -6.1330 C   0  0  0  0  0  0  0  0  0  0  0  0
   27.7440   55.1420   -5.1070 N   0  0  0  0  0  0  0  0  0  0  0  0
   29.2280   54.8290   -6.7330 N   0  0  0  0  0  0  0  0  0  0  0  0
   28.0850   53.8320   -5.0720 C   0  0  0  0  0  0  0  0  0  0  0  0
   29.0010   53.6610   -6.0660 C   0  0  0  0  0  0  0  0  0  0  0  0
   27.5840   52.8750   -4.1920 C   0  0  0  0  0  0  0  0  0  0  0  0
   29.6390   52.3540   -6.3410 C   0  0  0  0  0  0  0  0  0  0  0  0
   28.8640   51.1900   -5.6200 C   0  0  1  0  0  0  0  0  0  0  0  0
   27.9460   51.6130   -4.4670 C   0  0  0  0  0  0  0  0  0  0  0  0
   28.0630   50.6390   -6.7100 N   0  0  0  0  0  0  0  0  0  0  0  0
   29.7460   50.0240   -5.0340 C   0  0  0  0  0  0  0  0  0  0  0  0
   28.5070   49.3170   -6.8970 C   0  0  0  0  0  0  0  0  0  0  0  0
   29.4370   48.8990   -5.9570 C   0  0  0  0  0  0  0  0  0  0  0  0
   28.0400   48.5800   -7.8880 N   0  0  0  0  0  0  0  0  0  0  0  0
   29.8760   47.5860   -6.0520 C   0  0  0  0  0  0  0  0  0  0  0  0
   30.8030   46.9450   -5.1700 N   0  0  0  0  0  0  0  0  0  0  0  0
   29.4080   46.8150   -7.0530 N   0  0  0  0  0  0  0  0  0  0  0  0
   28.5310   47.3450   -7.9160 C   0  0  0  0  0  0  0  0  0  0  0  0
   31.2350   47.6580   -3.9400 C   0  0  1  0  0  0  0  0  0  0  0  0
   31.9330   46.3770   -5.9400 C   0  0  0  0  0  0  0  0  0  0  0  0
   30.2200   48.0110   -2.8640 C   0  0  0  0  0  0  0  0  0  0  0  0
   32.0720   46.7000   -3.0940 C   0  0  2  0  0  0  0  0  0  0  0  0
   33.2830   46.6560   -5.2760 C   0  0  0  0  0  0  0  0  0  0  0  0
   32.2850   47.5450   -1.8710 C   0  0  0  0  0  0  0  0  0  0  0  0
   30.9900   48.1270   -1.6340 O   0  0  0  0  0  0  0  0  0  0  0  0
   33.3010   46.1840   -3.8190 C   0  0  0  0  0  0  0  0  0  0  0  0
  1  2  1  0
  2  3  2  0
  2  4  1  0
  4  5  1  0
  5  6  1  0
  6  7  1  0
  6  8  2  0
  7  9  1  0
  8 10  1  0
  9 10  2  0
  9 11  1  0
 10 12  1  0
 13 12  1  6
 11 14  2  0
 13 14  1  0
 13 15  1  0
 13 16  1  0
 15 17  1  0
 16 18  1  0
 17 18  2  0
 17 19  1  0
 18 20  1  0
 20 21  1  0
 20 22  2  0
 19 23  2  0
 22 23  1  0
 21 24  1  0
 21 25  1  0
 24 26  1  1
 24 27  1  0
 25 28  1  0
 27 29  1  1
 26 30  1  0
 29 30  1  0
 27 31  1  0
 28 31  1  0
M  END
