mac-x0357-mac-x0510
     RDKit          3D

 23 25  0  0  0  0  0  0  0  0999 V2000
   32.3930   43.5210   -5.0400 C   0  0  0  0  0  0  0  0  0  0  0  0
   33.0810   44.6760   -4.3690 C   0  0  0  0  0  0  0  0  0  0  0  0
   33.7510   44.4920   -3.1510 C   0  0  0  0  0  0  0  0  0  0  0  0
   33.0840   45.9720   -4.9230 C   0  0  0  0  0  0  0  0  0  0  0  0
   33.7640   43.2430   -2.5910 O   0  0  0  0  0  0  0  0  0  0  0  0
   32.4150   46.2820   -6.2000 C   0  0  0  0  0  0  0  0  0  0  0  0
   33.7330   47.0350   -4.2780 C   0  0  0  0  0  0  0  0  0  0  0  0
   34.4000   45.5450   -2.5010 C   0  0  0  0  0  0  0  0  0  0  0  0
   31.2620   46.8500   -6.2850 N   0  0  0  0  0  0  0  0  0  0  0  0
   33.1350   45.9110   -7.2770 O   0  0  0  0  0  0  0  0  0  0  0  0
   34.3890   46.8170   -3.0670 C   0  0  0  0  0  0  0  0  0  0  0  0
   30.6120   47.1900   -5.0180 C   0  0  0  0  0  0  0  0  0  0  0  0
   30.7050   48.6210   -4.7180 N   0  0  0  0  0  0  0  0  0  0  0  0
   29.9000   49.4860   -5.2340 C   0  0  0  0  0  0  0  0  0  0  0  0
   28.8670   49.1130   -6.1390 C   0  0  0  0  0  0  0  0  0  0  0  0
   29.9190   50.8440   -5.0020 N   0  0  0  0  0  0  0  0  0  0  0  0
   29.2730   51.8110   -5.7500 C   0  0  0  0  0  0  0  0  0  0  0  0
   28.1790   50.0340   -6.8750 C   0  0  0  0  0  0  0  0  0  0  0  0
   28.3290   47.9100   -6.4950 N   0  0  0  0  0  0  0  0  0  0  0  0
   29.4180   53.0110   -5.5210 O   0  0  0  0  0  0  0  0  0  0  0  0
   28.4600   51.3630   -6.7670 N   0  0  0  0  0  0  0  0  0  0  0  0
   27.2400   49.4660   -7.6740 N   0  0  0  0  0  0  0  0  0  0  0  0
   27.3540   48.1750   -7.4200 C   0  0  0  0  0  0  0  0  0  0  0  0
  1  2  1  0
  2  3  2  0
  2  4  1  0
  3  5  1  0
  4  6  1  0
  4  7  2  0
  3  8  1  0
  6  9  2  3
  6 10  1  0
  7 11  1  0
  8 11  2  0
  9 12  1  0
 12 13  1  0
 13 14  2  3
 14 15  1  0
 14 16  1  0
 16 17  1  0
 15 18  2  0
 15 19  1  0
 17 20  2  0
 17 21  1  0
 18 21  1  0
 18 22  1  0
 19 23  1  0
 22 23  2  0
M  END
