mac-x0341-mac-x0344
     RDKit          3D

 26 28  0  0  0  0  0  0  0  0999 V2000
   28.2340   54.8520   -7.4130 N   0  0  0  0  0  0  0  0  0  0  0  0
   28.5880   53.6660   -6.8560 C   0  0  0  0  0  0  0  0  0  0  0  0
   28.4020   52.5600   -7.5010 N   0  0  0  0  0  0  0  0  0  0  0  0
   29.1430   53.7110   -5.6100 N   0  0  0  0  0  0  0  0  0  0  0  0
   29.4370   52.5870   -4.8730 C   0  0  0  0  0  0  0  0  0  0  0  0
   28.7990   51.3570   -6.8890 C   0  0  0  0  0  0  0  0  0  0  0  0
   29.7770   52.6380   -3.6980 O   0  0  0  0  0  0  0  0  0  0  0  0
   29.3200   51.3100   -5.5940 C   0  0  0  0  0  0  0  0  0  0  0  0
   28.6690   50.1670   -7.6000 C   0  0  0  0  0  0  0  0  0  0  0  0
   29.0620   48.9540   -7.0310 C   0  0  0  0  0  0  0  0  0  0  0  0
   29.7160   50.1000   -5.0060 C   0  0  0  0  0  0  0  0  0  0  0  0
   29.5900   48.9110   -5.7340 C   0  0  0  0  0  0  0  0  0  0  0  0
   30.0120   47.5820   -5.1610 C   0  0  0  0  0  0  0  0  0  0  0  0
   30.9990   46.8420   -6.0830 C   0  0  0  0  0  0  0  0  0  0  0  0
   31.1360   45.4670   -5.6340 N   0  0  0  0  0  0  0  0  0  0  0  0
   32.2010   44.9920   -5.1130 C   0  0  0  0  0  0  0  0  0  0  0  0
   32.3580   43.7430   -4.6640 O   0  0  0  0  0  0  0  0  0  0  0  0
   33.4870   45.8130   -4.9200 C   0  0  0  0  0  0  0  0  0  0  0  0
   33.9120   46.4870   -5.8440 O   0  0  0  0  0  0  0  0  0  0  0  0
   34.0150   45.6570   -3.6520 N   0  0  0  0  0  0  0  0  0  0  0  0
   35.2020   46.2210   -3.1440 C   0  0  0  0  0  0  0  0  0  0  0  0
   36.2000   45.4880   -2.5000 C   0  0  0  0  0  0  0  0  0  0  0  0
   35.3750   47.6030   -3.3080 C   0  0  0  0  0  0  0  0  0  0  0  0
   37.3510   46.1260   -2.0240 C   0  0  0  0  0  0  0  0  0  0  0  0
   36.5260   48.2390   -2.8330 C   0  0  0  0  0  0  0  0  0  0  0  0
   37.5150   47.4990   -2.1900 C   0  0  0  0  0  0  0  0  0  0  0  0
  1  2  1  0
  2  3  2  0
  2  4  1  0
  4  5  1  0
  3  6  1  0
  5  7  2  0
  5  8  1  0
  6  8  2  0
  6  9  1  0
  9 10  2  0
  8 11  1  0
 10 12  1  0
 11 12  2  0
 12 13  1  0
 13 14  1  0
 14 15  1  0
 15 16  2  3
 16 17  1  0
 16 18  1  0
 18 19  2  0
 18 20  1  0
 20 21  1  0
 21 22  2  0
 21 23  1  0
 22 24  1  0
 23 25  2  0
 24 26  2  0
 25 26  1  0
M  END
