mac-x0565-mac-x0188
     RDKit          3D

 16 17  0  0  0  0  0  0  0  0999 V2000
   28.8420   52.6170   -5.6760 O   0  0  0  0  0  0  0  0  0  0  0  0
   29.3810   52.6060   -4.4430 C   0  0  0  0  0  0  0  0  0  0  0  0
   29.5430   53.6180   -3.7750 O   0  0  0  0  0  0  0  0  0  0  0  0
   29.7640   51.2490   -3.9540 C   0  0  0  0  0  0  0  0  0  0  0  0
   29.7670   50.1210   -4.8300 C   0  0  0  0  0  0  0  0  0  0  0  0
   30.1250   51.1110   -2.6000 C   0  0  0  0  0  0  0  0  0  0  0  0
   30.1450   48.8740   -4.2960 C   0  0  0  0  0  0  0  0  0  0  0  0
   30.4930   49.8690   -2.0940 C   0  0  0  0  0  0  0  0  0  0  0  0
   30.4950   48.7890   -2.9500 C   0  0  0  0  0  0  0  0  0  0  0  0
   30.2810   47.5530   -4.8050 N   0  0  0  0  0  0  0  0  0  0  0  0
   30.1180   46.9440   -6.0170 C   0  0  0  0  0  0  0  0  0  0  0  0
   30.8460   47.5230   -2.5510 O   0  0  0  0  0  0  0  0  0  0  0  0
   30.4610   46.6780   -3.6630 C   0  0  2  0  0  0  0  0  0  0  0  0
   31.5500   45.6060   -3.8750 C   0  0  0  0  0  0  0  0  0  0  0  0
   29.1170   46.3360   -6.3650 O   0  0  0  0  0  0  0  0  0  0  0  0
   31.1680   47.0010   -6.8570 O   0  0  0  0  0  0  0  0  0  0  0  0
  1  2  1  0
  2  3  2  0
  2  4  1  0
  4  5  2  0
  4  6  1  0
  5  7  1  0
  6  8  2  0
  7  9  2  0
  8  9  1  0
  7 10  1  0
 10 11  1  0
  9 12  1  0
 10 13  1  0
 12 13  1  0
 13 14  1  6
 11 15  2  0
 11 16  1  0
M  END
