mac-x0159-mac-x0365
     RDKit          3D

 21 23  0  0  0  0  0  0  0  0999 V2000
   27.7430   51.9470   -6.0410 N   0  0  0  0  0  0  0  0  0  0  0  0
   28.8980   51.0140   -5.9040 C   0  0  2  0  0  0  0  0  0  0  0  0
   28.5000   49.6330   -6.4680 C   0  0  2  0  0  0  0  0  0  0  0  0
   29.4850   51.0160   -4.4470 C   0  0  1  0  0  0  0  0  0  0  0  0
   30.3600   52.1510   -4.3620 O   0  0  0  0  0  0  0  0  0  0  0  0
   28.5720   51.3750   -3.5000 F   0  0  0  0  0  0  0  0  0  0  0  0
   30.1240   49.6630   -4.0150 C   0  0  0  0  0  0  0  0  0  0  0  0
   29.4840   48.5720   -6.0780 C   0  0  1  0  0  0  0  0  0  0  0  0
   28.4430   49.4910   -7.9510 N   0  0  0  0  0  0  0  0  0  0  0  0
   29.4890   48.4590   -4.6290 N   0  0  0  0  0  0  0  0  0  0  0  0
   29.0020   47.4520   -6.9010 N   0  0  0  0  0  0  0  0  0  0  0  0
   28.6940   48.0630   -8.1800 C   0  0  0  0  0  0  0  0  0  0  0  0
   30.0270   47.2210   -4.3310 C   0  0  0  0  0  0  0  0  0  0  0  0
   31.1410   46.9270   -4.9640 C   0  0  0  0  0  0  0  0  0  0  0  0
   29.3760   46.2870   -3.4260 C   0  0  0  0  0  0  0  0  0  0  0  0
   31.7850   45.7540   -4.8440 O   0  0  0  0  0  0  0  0  0  0  0  0
   29.0060   45.0000   -3.7760 C   0  0  0  0  0  0  0  0  0  0  0  0
   29.0750   46.6390   -2.1160 N   0  0  0  0  0  0  0  0  0  0  0  0
   28.4830   45.6290   -1.5080 C   0  0  0  0  0  0  0  0  0  0  0  0
   28.2610   44.2130   -2.4540 S   0  0  0  0  0  0  0  0  0  0  0  0
   28.0140   45.6560   -0.0970 C   0  0  0  0  0  0  0  0  0  0  0  0
  2  1  1  1
  2  3  1  0
  2  4  1  0
  4  5  1  6
  4  6  1  0
  4  7  1  0
  3  8  1  0
  3  9  1  6
  7 10  1  0
  8 10  1  0
  8 11  1  6
  9 12  1  0
 11 12  1  0
 10 13  1  0
 13 14  2  3
 13 15  1  0
 14 16  1  0
 15 17  2  0
 15 18  1  0
 18 19  2  0
 17 20  1  0
 19 20  1  0
 19 21  1  0
M  END
