mac-x0365-mac-x0412
     RDKit          3D

 14 15  0  0  0  0  0  0  0  0999 V2000
   29.6730   47.5330   -5.7990 O   0  0  0  0  0  0  0  0  0  0  0  0
   30.0490   48.1300   -4.6590 C   0  0  0  0  0  0  0  0  0  0  0  0
   30.5390   47.4950   -3.7440 O   0  0  0  0  0  0  0  0  0  0  0  0
   29.8140   49.5970   -4.6500 C   0  0  0  0  0  0  0  0  0  0  0  0
   30.0250   50.3540   -3.4990 C   0  0  0  0  0  0  0  0  0  0  0  0
   29.3740   50.2240   -5.8270 C   0  0  0  0  0  0  0  0  0  0  0  0
   29.8020   51.7260   -3.5240 C   0  0  0  0  0  0  0  0  0  0  0  0
   29.1450   51.6140   -5.8610 C   0  0  0  0  0  0  0  0  0  0  0  0
   30.0150   52.4270   -2.3990 F   0  0  0  0  0  0  0  0  0  0  0  0
   29.3640   52.3740   -4.6920 C   0  0  0  0  0  0  0  0  0  0  0  0
   28.7080   52.2650   -7.0210 C   0  0  0  0  0  0  0  0  0  0  0  0
   29.1300   53.7490   -4.7650 C   0  0  0  0  0  0  0  0  0  0  0  0
   28.5050   53.6360   -6.9830 C   0  0  0  0  0  0  0  0  0  0  0  0
   28.7050   54.3940   -5.8830 N   0  0  0  0  0  0  0  0  0  0  0  0
  1  2  1  0
  2  3  2  0
  2  4  1  0
  4  5  2  0
  4  6  1  0
  5  7  1  0
  6  8  2  0
  7  9  1  0
  7 10  2  0
  8 10  1  0
  8 11  1  0
 10 12  1  0
 11 13  2  0
 12 14  2  0
 13 14  1  0
M  END
