mac-x0509-mac-x0255
     RDKit          3D

 25 28  0  0  0  0  0  0  0  0999 V2000
   38.2350   47.2570   -5.0700 O   0  0  0  0  0  0  0  0  0  0  0  0
   37.7690   46.2390   -4.5810 C   0  0  0  0  0  0  0  0  0  0  0  0
   37.2710   46.0760   -3.1470 C   0  0  0  0  0  0  0  0  0  0  0  0
   37.5650   45.0000   -5.1870 N   0  0  0  0  0  0  0  0  0  0  0  0
   36.5460   44.8870   -6.2350 C   0  0  0  0  0  0  0  0  0  0  0  0
   37.5380   44.6190   -2.9340 C   0  0  0  0  0  0  0  0  0  0  0  0
   37.7220   44.0170   -4.1820 C   0  0  0  0  0  0  0  0  0  0  0  0
   35.0870   45.0290   -5.7220 C   0  0  0  0  0  0  0  0  0  0  0  0
   37.6140   43.8990   -1.7570 C   0  0  0  0  0  0  0  0  0  0  0  0
   38.0030   42.6610   -4.2790 C   0  0  0  0  0  0  0  0  0  0  0  0
   34.1490   45.6550   -6.6940 N   0  0  0  0  0  0  0  0  0  0  0  0
   37.8890   42.5320   -1.8420 C   0  0  0  0  0  0  0  0  0  0  0  0
   38.0860   41.9200   -3.0940 C   0  0  0  0  0  0  0  0  0  0  0  0
   32.9130   45.2690   -6.6780 C   0  0  0  0  0  0  0  0  0  0  0  0
   31.9680   45.7610   -7.5080 O   0  0  0  0  0  0  0  0  0  0  0  0
   32.4470   44.2070   -5.7100 C   0  0  0  0  0  0  0  0  0  0  0  0
   31.4530   44.7120   -4.7060 C   0  0  0  0  0  0  0  0  0  0  0  0
   30.3000   44.0720   -4.3110 C   0  0  0  0  0  0  0  0  0  0  0  0
   31.6500   46.2010   -3.8950 S   0  0  0  0  0  0  0  0  0  0  0  0
   29.5590   44.7980   -3.3270 C   0  0  0  0  0  0  0  0  0  0  0  0
   30.1890   45.9990   -3.0000 C   0  0  0  0  0  0  0  0  0  0  0  0
   28.3440   44.4710   -2.6830 C   0  0  0  0  0  0  0  0  0  0  0  0
   29.6390   46.8770   -2.0480 C   0  0  0  0  0  0  0  0  0  0  0  0
   27.7950   45.3400   -1.7390 C   0  0  0  0  0  0  0  0  0  0  0  0
   28.4370   46.5310   -1.4250 C   0  0  0  0  0  0  0  0  0  0  0  0
  1  2  2  0
  2  3  1  0
  2  4  1  0
  4  5  1  0
  3  6  1  0
  4  7  1  0
  6  7  2  0
  5  8  1  0
  6  9  1  0
  7 10  1  0
  8 11  1  0
  9 12  2  0
 10 13  2  0
 12 13  1  0
 11 14  2  3
 14 15  1  0
 14 16  1  0
 16 17  1  0
 17 18  2  0
 17 19  1  0
 18 20  1  0
 19 21  1  0
 20 21  2  0
 20 22  1  0
 21 23  1  0
 22 24  2  0
 23 25  2  0
 24 25  1  0
M  END
