mac-x0398-mac-x0333
     RDKit          3D

 15 16  0  0  0  0  0  0  0  0999 V2000
   29.0170   53.9710   -6.6980 N   0  0  0  0  0  0  0  0  0  0  0  0
   29.0970   53.0240   -5.5630 C   0  0  2  0  0  0  0  0  0  0  0  0
   28.7500   51.6690   -6.1170 C   0  0  0  0  0  0  0  0  0  0  0  0
   28.0400   53.4380   -4.5470 C   0  0  0  0  0  0  0  0  0  0  0  0
   30.4700   53.0590   -4.8580 C   0  0  1  0  0  0  0  0  0  0  0  0
   30.6350   51.8610   -3.8850 C   0  0  1  0  0  0  0  0  0  0  0  0
   29.2880   50.5280   -5.6680 C   0  0  0  0  0  0  0  0  0  0  0  0
   31.7740   52.9790   -5.5860 C   0  0  0  0  0  0  0  0  0  0  0  0
   29.8990   52.1640   -2.6970 O   0  0  0  0  0  0  0  0  0  0  0  0
   30.3150   50.4850   -4.5590 C   0  0  2  0  0  0  0  0  0  0  0  0
   32.0680   51.8600   -3.6040 O   0  0  0  0  0  0  0  0  0  0  0  0
   32.6040   52.2930   -4.8070 C   0  0  0  0  0  0  0  0  0  0  0  0
   30.0210   49.4140   -3.5230 C   0  0  0  0  0  0  0  0  0  0  0  0
   30.0150   49.5520   -2.3100 O   0  0  0  0  0  0  0  0  0  0  0  0
   29.7670   48.2020   -4.0630 O   0  0  0  0  0  0  0  0  0  0  0  0
  2  1  1  0
  2  3  1  0
  2  4  1  1
  2  5  1  0
  5  6  1  0
  3  7  2  0
  5  8  1  6
  6  9  1  1
  6 10  1  0
  7 10  1  0
  6 11  1  0
  8 12  2  0
 11 12  1  0
 10 13  1  1
 13 14  2  0
 13 15  1  0
M  END
