mac-x0123-mac-x0344
     RDKit          3D

 28 31  0  0  0  0  0  0  0  0999 V2000
   28.4340   51.6250   -7.2600 N   0  0  0  0  0  0  0  0  0  0  0  0
   28.9410   52.2170   -6.1100 C   0  0  0  0  0  0  0  0  0  0  0  0
   28.9740   53.5350   -5.8790 C   0  0  0  0  0  0  0  0  0  0  0  0
   29.4740   51.3890   -5.0890 N   0  0  0  0  0  0  0  0  0  0  0  0
   29.9830   51.8680   -3.9490 C   0  0  0  0  0  0  0  0  0  0  0  0
   29.5580   53.9750   -4.5800 C   0  0  0  0  0  0  0  0  0  0  0  0
   28.5500   54.7440   -6.6340 C   0  0  0  0  0  0  0  0  0  0  0  0
   29.5890   50.0510   -5.0260 N   0  0  0  0  0  0  0  0  0  0  0  0
   30.0380   53.2070   -3.6540 N   0  0  0  0  0  0  0  0  0  0  0  0
   29.5120   55.4700   -4.4860 C   0  0  0  0  0  0  0  0  0  0  0  0
   29.3520   55.8630   -5.9590 C   0  0  0  0  0  0  0  0  0  0  0  0
   30.3700   50.8270   -3.2760 N   0  0  0  0  0  0  0  0  0  0  0  0
   30.1720   49.5530   -3.8700 C   0  0  0  0  0  0  0  0  0  0  0  0
   29.8670   48.3360   -4.6840 C   0  0  0  0  0  0  0  0  0  0  0  0
   30.4600   48.3670   -6.1030 C   0  0  0  0  0  0  0  0  0  0  0  0
   31.5500   47.3150   -6.3400 C   0  0  0  0  0  0  0  0  0  0  0  0
   31.2040   46.0420   -5.7140 N   0  0  0  0  0  0  0  0  0  0  0  0
   32.1300   45.3730   -5.1290 C   0  0  0  0  0  0  0  0  0  0  0  0
   31.8620   44.1950   -4.5420 O   0  0  0  0  0  0  0  0  0  0  0  0
   33.6030   45.7590   -5.0010 C   0  0  0  0  0  0  0  0  0  0  0  0
   34.1740   46.1430   -6.0090 O   0  0  0  0  0  0  0  0  0  0  0  0
   34.0940   45.6210   -3.7190 N   0  0  0  0  0  0  0  0  0  0  0  0
   35.2190   46.2800   -3.1860 C   0  0  0  0  0  0  0  0  0  0  0  0
   36.1780   45.4990   -2.5270 C   0  0  0  0  0  0  0  0  0  0  0  0
   35.4210   47.6580   -3.2850 C   0  0  0  0  0  0  0  0  0  0  0  0
   37.3210   46.0900   -1.9780 C   0  0  0  0  0  0  0  0  0  0  0  0
   36.5640   48.2470   -2.7360 C   0  0  0  0  0  0  0  0  0  0  0  0
   37.5130   47.4650   -2.0830 C   0  0  0  0  0  0  0  0  0  0  0  0
  1  2  1  0
  2  3  2  0
  2  4  1  0
  4  5  1  0
  3  6  1  0
  3  7  1  0
  4  8  1  0
  5  9  1  0
  6  9  2  0
  6 10  1  0
  7 11  1  0
 10 11  1  0
  5 12  2  0
  8 13  2  0
 12 13  1  0
 13 14  1  0
 14 15  1  0
 15 16  1  0
 16 17  1  0
 17 18  2  3
 18 19  1  0
 18 20  1  0
 20 21  2  0
 20 22  1  0
 22 23  1  0
 23 24  2  0
 23 25  1  0
 24 26  1  0
 25 27  2  0
 26 28  2  0
 27 28  1  0
M  END
