mac-x0190-mac-x0182
     RDKit          3D

 26 29  0  0  0  0  0  0  0  0999 V2000
   28.5380   56.7560   -5.5150 O   0  0  0  0  0  0  0  0  0  0  0  0
   29.6640   56.2010   -4.8480 C   0  0  0  0  0  0  0  0  0  0  0  0
   29.5280   54.7240   -4.9060 C   0  0  0  0  0  0  0  0  0  0  0  0
   29.9030   53.9340   -3.8520 N   0  0  0  0  0  0  0  0  0  0  0  0
   29.0610   53.9930   -5.9020 N   0  0  0  0  0  0  0  0  0  0  0  0
   29.6740   52.6270   -4.1870 C   0  0  0  0  0  0  0  0  0  0  0  0
   29.1470   52.6890   -5.4700 C   0  0  0  0  0  0  0  0  0  0  0  0
   29.8790   51.4330   -3.4950 C   0  0  0  0  0  0  0  0  0  0  0  0
   28.7940   51.4960   -6.1210 C   0  0  0  0  0  0  0  0  0  0  0  0
   29.5300   50.2380   -4.1550 C   0  0  0  0  0  0  0  0  0  0  0  0
   28.9920   50.2800   -5.4490 C   0  0  0  0  0  0  0  0  0  0  0  0
   29.7440   48.9100   -3.4580 C   0  0  0  0  0  0  0  0  0  0  0  0
   30.5970   47.9370   -4.2900 C   0  0  0  0  0  0  0  0  0  0  0  0
   32.0450   48.4210   -4.4480 C   0  0  0  0  0  0  0  0  0  0  0  0
   32.9890   47.5570   -3.7060 N   0  0  0  0  0  0  0  0  0  0  0  0
   34.0410   46.7210   -4.4430 S   0  0  2  0  0  0  0  0  0  0  0  0
   34.3810   46.7320   -5.8460 O   0  0  0  0  0  0  0  0  0  0  0  0
   33.5850   45.1370   -4.1020 N   0  0  0  0  0  0  0  0  0  0  0  0
   35.5070   46.6720   -3.5170 C   0  0  0  0  0  0  0  0  0  0  0  0
   34.4740   44.5290   -3.2470 C   0  0  0  0  0  0  0  0  0  0  0  0
   35.6170   45.4210   -2.9170 C   0  0  0  0  0  0  0  0  0  0  0  0
   36.4530   47.6660   -3.3550 C   0  0  0  0  0  0  0  0  0  0  0  0
   34.3610   43.3970   -2.7970 O   0  0  0  0  0  0  0  0  0  0  0  0
   37.5550   47.3730   -2.5490 C   0  0  0  0  0  0  0  0  0  0  0  0
   36.7060   45.1220   -2.1150 C   0  0  0  0  0  0  0  0  0  0  0  0
   37.6820   46.1120   -1.9330 C   0  0  0  0  0  0  0  0  0  0  0  0
  1  2  1  0
  2  3  1  0
  3  4  1  0
  3  5  2  0
  4  6  1  0
  5  7  1  0
  6  7  2  0
  6  8  1  0
  7  9  1  0
  8 10  2  0
  9 11  2  0
 10 11  1  0
 10 12  1  0
 12 13  1  0
 13 14  1  0
 14 15  1  0
 15 16  2  0
 16 17  2  0
 16 18  1  6
 16 19  1  0
 18 20  1  0
 19 21  2  0
 20 21  1  0
 19 22  1  0
 20 23  2  0
 22 24  2  0
 21 25  1  0
 24 26  1  0
 25 26  2  0
M  END
