mac-x0380-mac-x0373
     RDKit          3D

 23 25  0  0  0  0  0  0  0  0999 V2000
   30.5240   48.1180   -4.7310 N   0  0  0  0  0  0  0  0  0  0  0  0
   29.6440   49.0190   -4.0510 C   0  0  0  0  0  0  0  0  0  0  0  0
   29.2670   48.8450   -2.8900 O   0  0  0  0  0  0  0  0  0  0  0  0
   30.0960   47.0920   -5.5950 C   0  0  0  0  0  0  0  0  0  0  0  0
   31.9090   48.0330   -4.2790 C   0  0  0  0  0  0  0  0  0  0  0  0
   30.9430   46.8640   -6.6350 O   0  0  0  0  0  0  0  0  0  0  0  0
   29.1060   46.3720   -5.5470 O   0  0  0  0  0  0  0  0  0  0  0  0
   29.1380   50.2920   -4.7120 C   0  0  0  0  0  0  0  0  0  0  0  0
   32.4380   46.8990   -3.6230 C   0  0  0  0  0  0  0  0  0  0  0  0
   32.7930   49.1040   -4.4950 C   0  0  0  0  0  0  0  0  0  0  0  0
   29.2130   51.5390   -4.0530 C   0  0  0  0  0  0  0  0  0  0  0  0
   28.5800   50.2460   -6.0010 C   0  0  0  0  0  0  0  0  0  0  0  0
   33.7810   46.8470   -3.2060 C   0  0  0  0  0  0  0  0  0  0  0  0
   34.1330   49.0530   -4.0790 C   0  0  0  0  0  0  0  0  0  0  0  0
   28.7400   52.7120   -4.6750 C   0  0  0  0  0  0  0  0  0  0  0  0
   28.1080   51.4190   -6.6170 C   0  0  0  0  0  0  0  0  0  0  0  0
   34.6250   47.9260   -3.4370 C   0  0  0  0  0  0  0  0  0  0  0  0
   28.1900   52.6520   -5.9580 C   0  0  0  0  0  0  0  0  0  0  0  0
   28.8580   54.2650   -3.8110 S   0  0  0  0  0  0  0  0  0  0  0  0
   27.7120   53.8070   -6.6100 N   0  0  0  0  0  0  0  0  0  0  0  0
   29.0990   55.3480   -5.2370 C   0  0  0  0  0  0  0  0  0  0  0  0
   28.1260   55.0970   -6.3650 C   0  0  0  0  0  0  0  0  0  0  0  0
   27.7000   56.0220   -7.0660 O   0  0  0  0  0  0  0  0  0  0  0  0
  1  2  1  0
  2  3  2  0
  1  4  1  0
  1  5  1  0
  4  6  1  0
  4  7  2  0
  2  8  1  0
  5  9  2  0
  5 10  1  0
  8 11  2  0
  8 12  1  0
  9 13  1  0
 10 14  2  0
 11 15  1  0
 12 16  2  0
 13 17  2  0
 14 17  1  0
 15 18  2  0
 16 18  1  0
 15 19  1  0
 18 20  1  0
 19 21  1  0
 20 22  1  0
 21 22  1  0
 22 23  2  0
M  END
