mac-x0223-mac-x0271
     RDKit          3D

 27 29  0  0  0  0  0  0  0  0999 V2000
   27.8260   43.5100   -1.9080 C   0  0  0  0  0  0  0  0  0  0  0  0
   27.5960   44.8220   -2.4280 O   0  0  0  0  0  0  0  0  0  0  0  0
   28.7840   45.4890   -2.5760 C   0  0  0  0  0  0  0  0  0  0  0  0
   29.0880   46.6390   -1.8480 C   0  0  0  0  0  0  0  0  0  0  0  0
   29.7030   44.9740   -3.4950 C   0  0  0  0  0  0  0  0  0  0  0  0
   28.1810   47.1380   -0.9440 O   0  0  0  0  0  0  0  0  0  0  0  0
   30.3120   47.2820   -2.0360 C   0  0  0  0  0  0  0  0  0  0  0  0
   30.9380   45.6080   -3.6960 C   0  0  0  0  0  0  0  0  0  0  0  0
   31.9320   45.0500   -4.6880 C   0  0  0  0  0  0  0  0  0  0  0  0
   28.2910   48.5590   -0.8080 C   0  0  0  0  0  0  0  0  0  0  0  0
   31.2330   46.7670   -2.9560 C   0  0  0  0  0  0  0  0  0  0  0  0
   32.3050   45.9910   -5.8100 C   0  0  0  0  0  0  0  0  0  0  0  0
   28.2020   49.2650   -2.1610 C   0  0  0  0  0  0  0  0  0  0  0  0
   33.1320   46.8880   -5.8020 O   0  0  0  0  0  0  0  0  0  0  0  0
   31.5900   45.7480   -6.9330 O   0  0  0  0  0  0  0  0  0  0  0  0
   29.1970   50.2830   -2.2770 O   0  0  0  0  0  0  0  0  0  0  0  0
   29.1930   51.0630   -3.3980 C   0  0  0  0  0  0  0  0  0  0  0  0
   29.3260   52.4290   -3.1500 C   0  0  0  0  0  0  0  0  0  0  0  0
   29.0710   50.6150   -4.7190 C   0  0  0  0  0  0  0  0  0  0  0  0
   29.3340   53.3250   -4.2160 C   0  0  0  0  0  0  0  0  0  0  0  0
   29.0810   51.5290   -5.7840 C   0  0  0  0  0  0  0  0  0  0  0  0
   29.2130   52.8940   -5.5340 C   0  0  0  0  0  0  0  0  0  0  0  0
   29.4710   54.6940   -3.9120 O   0  0  0  0  0  0  0  0  0  0  0  0
   29.2280   53.8780   -6.6040 C   0  0  0  0  0  0  0  0  0  0  0  0
   29.3830   55.6580   -4.9050 C   0  0  0  0  0  0  0  0  0  0  0  0
   29.3660   56.8580   -4.6570 O   0  0  0  0  0  0  0  0  0  0  0  0
   29.3090   55.1770   -6.2970 C   0  0  0  0  0  0  0  0  0  0  0  0
  1  2  1  0
  2  3  1  0
  3  4  2  0
  3  5  1  0
  4  6  1  0
  4  7  1  0
  5  8  2  0
  8  9  1  0
  6 10  1  0
  7 11  2  0
  8 11  1  0
  9 12  1  0
 10 13  1  0
 12 14  2  0
 12 15  1  0
 13 16  1  0
 16 17  1  0
 17 18  2  0
 17 19  1  0
 18 20  1  0
 19 21  2  0
 20 22  2  0
 21 22  1  0
 20 23  1  0
 22 24  1  0
 23 25  1  0
 25 26  2  0
 24 27  2  0
 25 27  1  0
M  END
