mac-x0411-mac-x0441
     RDKit          3D

 20 21  0  0  0  0  0  0  0  0999 V2000
   37.4310   44.6820   -4.2650 Cl  0  0  0  0  0  0  0  0  0  0  0  0
   36.2120   45.0530   -2.8980 C   0  0  2  0  0  0  0  0  0  0  0  0
   34.8650   45.5860   -3.4410 C   0  0  2  0  0  0  0  0  0  0  0  0
   36.9680   46.0580   -2.0070 C   0  0  0  0  0  0  0  0  0  0  0  0
   35.7350   43.6200   -2.5150 C   0  0  1  0  0  0  0  0  0  0  0  0
   34.6100   44.8060   -4.6070 O   0  0  0  0  0  0  0  0  0  0  0  0
   36.4750   42.7120   -1.5390 C   0  0  0  0  0  0  0  0  0  0  0  0
   34.7640   47.1310   -3.7580 C   0  0  1  0  0  0  0  0  0  0  0  0
   36.8280   47.5080   -2.3910 C   0  0  0  0  0  0  0  0  0  0  0  0
   33.9370   45.1250   -2.4090 N   0  0  0  0  0  0  0  0  0  0  0  0
   34.2940   43.7500   -2.1780 N   0  0  0  0  0  0  0  0  0  0  0  0
   33.1610   47.8320   -3.3410 Cl  0  0  0  0  0  0  0  0  0  0  0  0
   33.2430   44.5980   -4.8990 C   0  0  0  0  0  0  0  0  0  0  0  0
   37.5980   42.2260   -2.1210 F   0  0  0  0  0  0  0  0  0  0  0  0
   36.8150   43.2960   -0.3800 F   0  0  0  0  0  0  0  0  0  0  0  0
   35.7040   41.6360   -1.2520 F   0  0  0  0  0  0  0  0  0  0  0  0
   35.8430   47.9810   -3.1700 C   0  0  0  0  0  0  0  0  0  0  0  0
   32.9630   45.1750   -6.2620 C   0  0  0  0  0  0  0  0  0  0  0  0
   31.6610   45.1630   -6.6050 O   0  0  0  0  0  0  0  0  0  0  0  0
   33.8500   45.6070   -6.9820 O   0  0  0  0  0  0  0  0  0  0  0  0
  2  1  1  6
  2  3  1  0
  2  4  1  0
  2  5  1  0
  3  6  1  6
  5  7  1  1
  3  8  1  0
  4  9  1  0
  3 10  1  0
  5 11  1  0
 10 11  1  0
  8 12  1  1
  6 13  1  0
  7 14  1  0
  7 15  1  0
  7 16  1  0
  8 17  1  0
  9 17  2  0
 13 18  1  0
 18 19  1  0
 18 20  2  0
M  END
