mac-x0576-mac-x0472
     RDKit          3D

 22 24  0  0  0  0  0  0  0  0999 V2000
   28.3090   47.6580   -8.9540 N   0  0  0  0  0  0  0  0  0  0  0  0
   29.3120   48.3330   -8.1860 C   0  0  1  0  0  0  0  0  0  0  0  0
   28.8350   49.6850   -8.2660 N   0  0  0  0  0  0  0  0  0  0  0  0
   29.5790   47.7690   -6.9030 N   0  0  0  0  0  0  0  0  0  0  0  0
   29.9070   48.5530   -5.8180 C   0  0  0  0  0  0  0  0  0  0  0  0
   28.3170   50.1750   -7.0050 C   0  0  1  0  0  0  0  0  0  0  0  0
   30.6950   48.2040   -4.8330 N   0  0  0  0  0  0  0  0  0  0  0  0
   29.2610   49.9660   -5.7930 C   0  0  2  0  0  0  0  0  0  0  0  0
   27.9380   51.5470   -7.2270 N   0  0  0  0  0  0  0  0  0  0  0  0
   31.0820   49.1160   -3.5450 S   0  0  0  0  0  0  0  0  0  0  0  0
   28.3170   52.5440   -6.3540 C   0  0  0  0  0  0  0  0  0  0  0  0
   30.2640   51.0510   -5.7280 N   0  0  0  0  0  0  0  0  0  0  0  0
   27.6020   53.5360   -6.2310 O   0  0  0  0  0  0  0  0  0  0  0  0
   30.0060   50.0380   -3.2430 O   0  0  0  0  0  0  0  0  0  0  0  0
   31.5850   48.2480   -2.4920 O   0  0  0  0  0  0  0  0  0  0  0  0
   29.6250   52.3720   -5.5660 C   0  0  0  0  0  0  0  0  0  0  0  0
   32.4690   50.0780   -4.1170 C   0  0  0  0  0  0  0  0  0  0  0  0
   33.5630   49.4390   -4.7140 C   0  0  0  0  0  0  0  0  0  0  0  0
   32.4550   51.4690   -3.9600 C   0  0  0  0  0  0  0  0  0  0  0  0
   34.6460   50.2000   -5.1570 C   0  0  0  0  0  0  0  0  0  0  0  0
   33.5420   52.2220   -4.4060 C   0  0  0  0  0  0  0  0  0  0  0  0
   34.6350   51.5880   -5.0030 C   0  0  0  0  0  0  0  0  0  0  0  0
  2  1  1  1
  2  3  1  0
  2  4  1  0
  4  5  1  0
  6  3  1  6
  5  7  2  3
  5  8  1  0
  6  8  1  0
  6  9  1  0
 10  7  1  0
  9 11  1  0
  8 12  1  6
 11 13  2  0
 10 14  2  0
 10 15  2  0
 11 16  1  0
 12 16  1  0
 10 17  1  0
 17 18  2  0
 17 19  1  0
 18 20  1  0
 19 21  2  0
 20 22  2  0
 21 22  1  0
M  END
