mac-x0228-mac-x0436
     RDKit          3D

 29 32  0  0  0  0  0  0  0  0999 V2000
   29.4540   48.4000   -6.3860 O   0  0  0  0  0  0  0  0  0  0  0  0
   30.1250   48.4820   -5.2170 C   0  0  0  0  0  0  0  0  0  0  0  0
   30.7550   47.4560   -4.7850 N   0  0  0  0  0  0  0  0  0  0  0  0
   29.9880   49.8270   -4.6340 C   0  0  0  0  0  0  0  0  0  0  0  0
   31.4800   47.5360   -3.5250 C   0  0  0  0  0  0  0  0  0  0  0  0
   30.2700   50.9430   -5.4310 C   0  0  0  0  0  0  0  0  0  0  0  0
   29.5780   49.9590   -3.2950 C   0  0  0  0  0  0  0  0  0  0  0  0
   32.7220   48.2660   -3.7010 N   0  0  0  0  0  0  0  0  0  0  0  0
   30.1310   52.1890   -4.8530 C   0  0  0  0  0  0  0  0  0  0  0  0
   29.4460   51.2310   -2.7330 C   0  0  0  0  0  0  0  0  0  0  0  0
   29.7270   52.3260   -3.5290 C   0  0  0  0  0  0  0  0  0  0  0  0
   30.3520   53.5340   -5.4360 C   0  0  0  0  0  0  0  0  0  0  0  0
   33.8690   47.6610   -3.7940 C   0  0  0  0  0  0  0  0  0  0  0  0
   29.6410   53.6260   -3.1160 O   0  0  0  0  0  0  0  0  0  0  0  0
   30.3170   54.3690   -4.1570 C   0  0  0  0  0  0  0  0  0  0  0  0
   33.9310   46.1100   -3.7210 C   0  0  0  0  0  0  0  0  0  0  0  0
   35.1020   48.2430   -3.9420 N   0  0  0  0  0  0  0  0  0  0  0  0
   32.7570   45.2510   -4.1510 C   0  0  0  0  0  0  0  0  0  0  0  0
   36.1730   47.6810   -3.2380 C   0  0  0  0  0  0  0  0  0  0  0  0
   35.0120   45.5100   -3.2970 N   0  0  0  0  0  0  0  0  0  0  0  0
   33.2470   43.8820   -4.6100 C   0  0  0  0  0  0  0  0  0  0  0  0
   36.1120   46.3090   -2.9210 C   0  0  0  0  0  0  0  0  0  0  0  0
   37.2800   48.4410   -2.8500 C   0  0  0  0  0  0  0  0  0  0  0  0
   32.2560   43.1880   -5.5060 C   0  0  0  0  0  0  0  0  0  0  0  0
   37.1670   45.7200   -2.2200 C   0  0  0  0  0  0  0  0  0  0  0  0
   38.3290   47.8380   -2.1490 C   0  0  0  0  0  0  0  0  0  0  0  0
   32.6490   43.1480   -6.7940 O   0  0  0  0  0  0  0  0  0  0  0  0
   31.1970   42.6910   -5.1620 O   0  0  0  0  0  0  0  0  0  0  0  0
   38.2730   46.4810   -1.8340 C   0  0  0  0  0  0  0  0  0  0  0  0
  1  2  1  0
  2  3  2  3
  2  4  1  0
  3  5  1  0
  4  6  2  0
  4  7  1  0
  5  8  1  0
  6  9  1  0
  7 10  2  0
  9 11  2  0
 10 11  1  0
  9 12  1  0
  8 13  2  3
 11 14  1  0
 12 15  1  0
 14 15  1  0
 13 16  1  0
 13 17  1  0
 16 18  1  0
 17 19  1  0
 16 20  2  0
 18 21  1  0
 19 22  2  0
 20 22  1  0
 19 23  1  0
 21 24  1  0
 22 25  1  0
 23 26  2  0
 24 27  1  0
 24 28  2  0
 25 29  2  0
 26 29  1  0
M  END
