mac-x0387-mac-x0226
     RDKit          3D

 26 29  0  0  0  0  0  0  0  0999 V2000
   28.1310   51.2430   -7.3000 N   0  0  0  0  0  0  0  0  0  0  0  0
   28.5890   49.9230   -7.3330 C   0  0  0  0  0  0  0  0  0  0  0  0
   28.3800   49.3010   -8.5090 N   0  0  0  0  0  0  0  0  0  0  0  0
   29.2150   49.3190   -6.2180 C   0  0  0  0  0  0  0  0  0  0  0  0
   29.6540   47.9820   -6.3500 C   0  0  0  0  0  0  0  0  0  0  0  0
   28.8020   48.0280   -8.6070 C   0  0  0  0  0  0  0  0  0  0  0  0
   29.4180   49.9900   -4.9910 C   0  0  0  0  0  0  0  0  0  0  0  0
   29.4290   47.3440   -7.5830 C   0  0  0  0  0  0  0  0  0  0  0  0
   30.2940   47.3480   -5.2560 C   0  0  0  0  0  0  0  0  0  0  0  0
   30.0410   49.3610   -3.9150 C   0  0  0  0  0  0  0  0  0  0  0  0
   30.8030   45.9300   -5.3430 C   0  0  0  0  0  0  0  0  0  0  0  0
   30.4780   48.0480   -4.0470 C   0  0  0  0  0  0  0  0  0  0  0  0
   31.7350   45.8480   -6.4410 O   0  0  0  0  0  0  0  0  0  0  0  0
   33.0380   46.1060   -6.1470 C   0  0  0  0  0  0  0  0  0  0  0  0
   33.7680   46.8860   -6.7540 O   0  0  0  0  0  0  0  0  0  0  0  0
   33.4790   45.3410   -5.0090 C   0  0  0  0  0  0  0  0  0  0  0  0
   32.9220   44.1860   -4.4320 C   0  0  0  0  0  0  0  0  0  0  0  0
   34.5790   45.6020   -4.2280 C   0  0  0  0  0  0  0  0  0  0  0  0
   33.6070   43.7530   -3.3760 N   0  0  0  0  0  0  0  0  0  0  0  0
   34.6320   44.6360   -3.2570 N   0  0  0  0  0  0  0  0  0  0  0  0
   35.5950   44.5150   -2.2330 C   0  0  0  0  0  0  0  0  0  0  0  0
   36.4470   45.5820   -1.9360 C   0  0  0  0  0  0  0  0  0  0  0  0
   35.6950   43.3190   -1.5110 C   0  0  0  0  0  0  0  0  0  0  0  0
   37.3950   45.4530   -0.9220 C   0  0  0  0  0  0  0  0  0  0  0  0
   36.6440   43.1940   -0.4990 C   0  0  0  0  0  0  0  0  0  0  0  0
   37.4930   44.2610   -0.2060 C   0  0  0  0  0  0  0  0  0  0  0  0
  1  2  1  0
  2  3  2  0
  2  4  1  0
  4  5  2  0
  3  6  1  0
  4  7  1  0
  5  8  1  0
  6  8  2  0
  5  9  1  0
  7 10  2  0
  9 11  1  0
  9 12  2  0
 10 12  1  0
 11 13  1  0
 13 14  1  0
 14 15  2  0
 14 16  1  0
 16 17  1  0
 16 18  2  0
 17 19  2  0
 18 20  1  0
 19 20  1  0
 20 21  1  0
 21 22  2  0
 21 23  1  0
 22 24  1  0
 23 25  2  0
 24 26  2  0
 25 26  1  0
M  END
