mac-x0319-mac-x0357
     RDKit          3D

 18 19  0  0  0  0  0  0  0  0999 V2000
   33.3120   47.2960   -7.0910 O   0  0  0  0  0  0  0  0  0  0  0  0
   32.5440   46.5190   -6.2100 C   0  0  0  0  0  0  0  0  0  0  0  0
   31.9410   45.5390   -7.0170 O   0  0  0  0  0  0  0  0  0  0  0  0
   31.5660   47.3660   -5.6680 O   0  0  0  0  0  0  0  0  0  0  0  0
   33.4720   45.8860   -5.1720 C   0  0  0  0  0  0  0  0  0  0  0  0
   33.0320   45.3270   -3.9500 C   0  0  0  0  0  0  0  0  0  0  0  0
   34.8460   45.8610   -5.4450 C   0  0  0  0  0  0  0  0  0  0  0  0
   31.6200   45.3570   -3.5740 C   0  0  0  0  0  0  0  0  0  0  0  0
   35.7680   45.3050   -4.5670 C   0  0  0  0  0  0  0  0  0  0  0  0
   33.9900   44.7520   -3.0820 C   0  0  0  0  0  0  0  0  0  0  0  0
   33.5930   44.1880   -1.9010 O   0  0  0  0  0  0  0  0  0  0  0  0
   30.7120   44.3120   -3.7910 C   0  0  0  0  0  0  0  0  0  0  0  0
   31.1670   46.5270   -2.9570 C   0  0  0  0  0  0  0  0  0  0  0  0
   35.3420   44.7410   -3.3800 C   0  0  0  0  0  0  0  0  0  0  0  0
   29.3850   44.4640   -3.3830 C   0  0  0  0  0  0  0  0  0  0  0  0
   29.8450   46.6710   -2.5540 C   0  0  0  0  0  0  0  0  0  0  0  0
   28.5270   43.4330   -3.6030 O   0  0  0  0  0  0  0  0  0  0  0  0
   28.9490   45.6340   -2.7670 C   0  0  0  0  0  0  0  0  0  0  0  0
  2  1  1  0
  2  3  1  0
  2  4  1  0
  2  5  1  0
  5  6  2  0
  5  7  1  0
  6  8  1  0
  7  9  2  0
  6 10  1  0
 10 11  1  0
  8 12  2  0
  8 13  1  0
  9 14  1  0
 10 14  2  0
 12 15  1  0
 13 16  2  0
 15 17  1  0
 15 18  2  0
 16 18  1  0
M  END
