mac-x0584-mac-x1494
     RDKit          3D

 25 29  0  0  0  0  0  0  0  0999 V2000
   29.5740   51.5540   -7.9240 O   0  0  0  0  0  0  0  0  0  0  0  0
   29.1010   50.9550   -6.8050 N   0  0  1  0  0  0  0  0  0  0  0  0
   29.0350   49.4830   -6.9120 C   0  0  0  0  0  0  0  0  0  0  0  0
   30.0040   51.1580   -5.6310 C   0  0  0  0  0  0  0  0  0  0  0  0
   28.5760   48.8570   -8.0030 N   0  0  0  0  0  0  0  0  0  0  0  0
   29.4900   48.8600   -5.7550 C   0  0  0  0  0  0  0  0  0  0  0  0
   29.9470   49.8800   -4.7320 C   0  0  1  0  0  0  0  0  0  0  0  0
   28.5790   47.5290   -7.9040 C   0  0  0  0  0  0  0  0  0  0  0  0
   29.4370   47.4730   -5.7530 C   0  0  0  0  0  0  0  0  0  0  0  0
   31.3910   49.6650   -4.1950 C   0  0  0  0  0  0  0  0  0  0  0  0
   28.8990   50.1440   -3.6760 C   0  0  0  0  0  0  0  0  0  0  0  0
   29.8250   46.6960   -4.6480 N   0  0  0  0  0  0  0  0  0  0  0  0
   28.9800   46.8140   -6.8410 N   0  0  0  0  0  0  0  0  0  0  0  0
   31.6830   49.7820   -2.6840 C   0  0  2  0  0  0  0  0  0  0  0  0
   29.1550   50.2490   -2.3700 C   0  0  0  0  0  0  0  0  0  0  0  0
   32.5260   48.3290   -2.0540 Cl  0  0  0  0  0  0  0  0  0  0  0  0
   31.2180   46.6290   -4.1160 C   0  0  2  0  0  0  0  0  0  0  0  0
   28.9520   47.0000   -3.4890 C   0  0  0  0  0  0  0  0  0  0  0  0
   30.5130   50.1230   -1.7470 C   0  0  0  0  0  0  0  0  0  0  0  0
   32.3640   45.9450   -4.8650 C   0  0  0  0  0  0  0  0  0  0  0  0
   30.9970   46.0640   -2.7160 C   0  0  0  0  0  0  0  0  0  0  0  0
   29.8370   46.9120   -2.2440 C   0  0  0  0  0  0  0  0  0  0  0  0
   32.0000   44.8170   -5.8740 C   0  0  0  0  0  0  0  0  0  0  0  0
   33.1780   46.5660   -6.0330 C   0  0  0  0  0  0  0  0  0  0  0  0
   33.3580   45.1170   -6.5410 C   0  0  0  0  0  0  0  0  0  0  0  0
  2  1  1  6
  2  3  1  0
  2  4  1  0
  3  5  2  0
  3  6  1  0
  7  4  1  6
  6  7  1  0
  5  8  1  0
  6  9  2  0
  7 10  1  0
  7 11  1  0
  9 12  1  0
  8 13  2  0
  9 13  1  0
 10 14  1  0
 11 15  2  0
 14 16  1  1
 12 17  1  0
 12 18  1  0
 14 19  1  0
 15 19  1  0
 17 20  1  6
 17 21  1  0
 18 22  1  0
 21 22  1  0
 20 23  1  0
 20 24  1  0
 23 25  1  0
 24 25  1  0
M  CHG  2   1  -1   2   1
M  END
