mac-x0148-mac-x0555
     RDKit          3D

 27 32  0  0  0  0  0  0  0  0999 V2000
   28.6130   55.9750   -6.2750 N   0  0  0  0  0  0  0  0  0  0  0  0
   29.0860   54.8610   -5.5770 C   0  0  0  0  0  0  0  0  0  0  0  0
   29.6900   54.9610   -4.3280 C   0  0  0  0  0  0  0  0  0  0  0  0
   28.9720   53.5820   -6.1060 C   0  0  0  0  0  0  0  0  0  0  0  0
   29.4520   52.4680   -5.3920 C   0  0  0  0  0  0  0  0  0  0  0  0
   30.1670   53.9170   -3.6030 N   0  0  0  0  0  0  0  0  0  0  0  0
   29.3640   51.1580   -5.8770 C   0  0  0  0  0  0  0  0  0  0  0  0
   30.0470   52.6890   -4.1330 C   0  0  0  0  0  0  0  0  0  0  0  0
   28.7930   50.7720   -7.1210 N   0  0  0  0  0  0  0  0  0  0  0  0
   29.8630   50.0690   -5.1250 C   0  0  0  0  0  0  0  0  0  0  0  0
   30.5280   51.5920   -3.4130 C   0  0  0  0  0  0  0  0  0  0  0  0
   28.9240   49.4770   -7.1640 C   0  0  0  0  0  0  0  0  0  0  0  0
   29.5930   48.8960   -5.9560 C   0  0  0  0  0  0  0  0  0  0  0  0
   30.4450   50.2820   -3.8920 C   0  0  0  0  0  0  0  0  0  0  0  0
   28.4940   48.7090   -8.2070 N   0  0  0  0  0  0  0  0  0  0  0  0
   29.7780   47.5470   -5.9150 C   0  0  0  0  0  0  0  0  0  0  0  0
   30.3890   46.8280   -4.8780 N   0  0  0  0  0  0  0  0  0  0  0  0
   29.3170   46.8470   -7.0120 N   0  0  0  0  0  0  0  0  0  0  0  0
   28.7140   47.4470   -8.0760 C   0  0  0  0  0  0  0  0  0  0  0  0
   30.6190   47.4490   -3.5400 C   0  0  1  0  0  0  0  0  0  0  0  0
   31.2650   45.7000   -5.1990 C   0  0  0  0  0  0  0  0  0  0  0  0
   30.3160   46.5310   -2.3590 C   0  0  0  0  0  0  0  0  0  0  0  0
   32.0820   47.7840   -3.2610 C   0  0  1  0  0  0  0  0  0  0  0  0
   32.7160   46.1550   -5.1380 C   0  0  0  0  0  0  0  0  0  0  0  0
   32.1030   47.8920   -1.7400 C   0  0  0  0  0  0  0  0  0  0  0  0
   31.0700   47.0310   -1.2370 O   0  0  0  0  0  0  0  0  0  0  0  0
   33.1000   46.7830   -3.7990 C   0  0  0  0  0  0  0  0  0  0  0  0
  1  2  1  0
  2  3  2  0
  2  4  1  0
  4  5  2  0
  3  6  1  0
  5  7  1  0
  5  8  1  0
  6  8  2  0
  7  9  1  0
  7 10  2  0
  8 11  1  0
  9 12  2  0
 10 13  1  0
 12 13  1  0
 10 14  1  0
 11 14  2  0
 12 15  1  0
 13 16  2  0
 16 17  1  0
 16 18  1  0
 15 19  2  0
 18 19  1  0
 17 20  1  0
 17 21  1  0
 20 22  1  1
 20 23  1  0
 21 24  1  0
 23 25  1  1
 22 26  1  0
 25 26  1  0
 23 27  1  0
 24 27  1  0
M  END
