mac-x0455
     RDKit          3D

 12 12  0  0  0  0  0  0  0  0999 V2000
   30.5540   48.4130   -4.4640 C   0  0  0  0  0  0  0  0  0  0  0  0
   31.0130   46.9960   -4.1880 C   0  0  1  0  0  0  0  0  0  0  0  0
   30.1820   46.5920   -3.1840 O   0  0  0  0  0  0  0  0  0  0  0  0
   30.6860   46.2760   -5.4770 C   0  0  0  0  0  0  0  0  0  0  0  0
   29.5790   45.7320   -5.6580 O   0  0  0  0  0  0  0  0  0  0  0  0
   31.4760   46.1900   -6.4130 O   0  0  0  0  0  0  0  0  0  0  0  0
   32.4830   46.7810   -3.8070 C   0  0  0  0  0  0  0  0  0  0  0  0
   32.9560   45.5190   -3.6590 C   0  0  0  0  0  0  0  0  0  0  0  0
   34.2910   45.3090   -3.3290 C   0  0  0  0  0  0  0  0  0  0  0  0
   35.1550   46.3770   -3.1780 C   0  0  0  0  0  0  0  0  0  0  0  0
   34.6870   47.6530   -3.3440 C   0  0  0  0  0  0  0  0  0  0  0  0
   33.3180   47.8330   -3.6500 C   0  0  0  0  0  0  0  0  0  0  0  0
  2  1  1  6
  2  3  1  0
  2  4  1  0
  4  5  2  0
  4  6  1  0
  2  7  1  0
  7  8  2  0
  8  9  1  0
  9 10  2  0
 10 11  1  0
  7 12  1  0
 11 12  2  0
M  END
