mac-x0402-mac-x0321
     RDKit          3D

 14 15  0  0  0  0  0  0  0  0999 V2000
   29.8330   48.1360   -4.4960 N   0  0  0  0  0  0  0  0  0  0  0  0
   31.1400   47.5370   -4.5290 C   0  0  0  0  0  0  0  0  0  0  0  0
   30.9630   46.1460   -4.4450 O   0  0  0  0  0  0  0  0  0  0  0  0
   29.7080   49.5330   -4.6520 C   0  0  0  0  0  0  0  0  0  0  0  0
   30.0710   50.4270   -3.6390 C   0  0  0  0  0  0  0  0  0  0  0  0
   29.1960   50.0690   -5.8650 C   0  0  0  0  0  0  0  0  0  0  0  0
   28.7250   49.0040   -7.1500 Cl  0  0  0  0  0  0  0  0  0  0  0  0
   29.0690   51.4610   -6.0210 C   0  0  0  0  0  0  0  0  0  0  0  0
   29.9420   51.8130   -3.7990 C   0  0  0  0  0  0  0  0  0  0  0  0
   29.4360   52.3400   -5.0030 C   0  0  0  0  0  0  0  0  0  0  0  0
   28.4890   52.3930   -7.3540 S   0  0  0  0  0  0  0  0  0  0  0  0
   28.7750   53.8370   -6.4810 C   0  0  0  0  0  0  0  0  0  0  0  0
   29.2660   53.6860   -5.2770 N   0  0  0  0  0  0  0  0  0  0  0  0
   28.5050   55.0420   -7.0150 N   0  0  0  0  0  0  0  0  0  0  0  0
  1  2  1  0
  2  3  1  0
  1  4  1  0
  4  5  2  0
  4  6  1  0
  6  7  1  0
  6  8  2  0
  5  9  1  0
  8 10  1  0
  9 10  2  0
  8 11  1  0
 11 12  1  0
 10 13  1  0
 12 13  2  0
 12 14  1  0
M  END
