mac-x0178-mac-x0588
     RDKit          3D

 29 32  0  0  0  0  0  0  0  0999 V2000
   29.3380   45.1330    0.5060 N   0  0  0  0  0  0  0  0  0  0  0  0
   29.7970   46.7000    0.1020 S   0  0  0  0  0  0  0  0  0  0  0  0
   30.7520   47.0940    1.1070 O   0  0  0  0  0  0  0  0  0  0  0  0
   28.5730   47.4310   -0.1360 O   0  0  0  0  0  0  0  0  0  0  0  0
   30.6260   46.4800   -1.4440 C   0  0  0  0  0  0  0  0  0  0  0  0
   29.8760   46.6300   -2.5910 C   0  0  0  0  0  0  0  0  0  0  0  0
   31.9840   46.1680   -1.5330 C   0  0  0  0  0  0  0  0  0  0  0  0
   30.4340   46.4730   -3.8620 C   0  0  0  0  0  0  0  0  0  0  0  0
   32.5720   46.0050   -2.7970 C   0  0  0  0  0  0  0  0  0  0  0  0
   29.5060   46.6600   -5.0350 C   0  0  2  0  0  0  0  0  0  0  0  0
   31.8010   46.1540   -3.9610 C   0  0  0  0  0  0  0  0  0  0  0  0
   32.4950   45.9620   -5.2580 C   0  0  0  0  0  0  0  0  0  0  0  0
   29.3610   48.0690   -5.4280 N   0  0  0  0  0  0  0  0  0  0  0  0
   28.2610   45.7650   -4.7110 C   0  0  2  0  0  0  0  0  0  0  0  0
   32.0950   45.2990   -6.1950 O   0  0  0  0  0  0  0  0  0  0  0  0
   33.6600   46.6290   -5.2760 O   0  0  0  0  0  0  0  0  0  0  0  0
   29.7140   49.1280   -4.5100 C   0  0  0  0  0  0  0  0  0  0  0  0
   28.2720   48.4000   -6.3100 C   0  0  1  0  0  0  0  0  0  0  0  0
   27.4470   46.3440   -3.6560 O   0  0  0  0  0  0  0  0  0  0  0  0
   28.5060   44.3140   -4.3120 C   0  0  0  0  0  0  0  0  0  0  0  0
   29.0300   50.3790   -4.8300 N   0  0  0  0  0  0  0  0  0  0  0  0
   28.5550   49.6230   -7.1810 C   0  0  1  0  0  0  0  0  0  0  0  0
   27.9960   47.4060   -7.3270 N   0  0  0  0  0  0  0  0  0  0  0  0
   28.3240   44.3030   -2.8110 C   0  0  0  0  0  0  0  0  0  0  0  0
   27.3390   45.4190   -2.5580 C   0  0  0  0  0  0  0  0  0  0  0  0
   29.1130   50.7080   -6.2400 C   0  0  1  0  0  0  0  0  0  0  0  0
   29.4060   49.0810   -8.2600 N   0  0  0  0  0  0  0  0  0  0  0  0
   28.9080   47.7080   -8.4240 C   0  0  0  0  0  0  0  0  0  0  0  0
   28.4260   51.9780   -6.3560 N   0  0  0  0  0  0  0  0  0  0  0  0
  2  1  1  0
  2  3  2  0
  2  4  2  0
  2  5  1  0
  5  6  2  0
  5  7  1  0
  6  8  1  0
  7  9  2  0
 10  8  1  1
  8 11  2  0
  9 11  1  0
 11 12  1  0
 10 13  1  0
 10 14  1  0
 12 15  2  0
 12 16  1  0
 13 17  1  0
 13 18  1  0
 14 19  1  0
 14 20  1  1
 17 21  1  0
 18 22  1  0
 18 23  1  6
 20 24  1  0
 19 25  1  0
 24 25  1  0
 21 26  1  0
 22 26  1  0
 22 27  1  6
 23 28  1  0
 27 28  1  0
 26 29  1  1
M  END
