mac-x0587-mac-x0284
     RDKit          3D

 16 17  0  0  0  0  0  0  0  0999 V2000
   29.2960   45.9190   -2.9730 C   0  0  0  0  0  0  0  0  0  0  0  0
   30.1620   46.6540   -3.9980 C   0  0  2  0  0  0  0  0  0  0  0  0
   31.7960   45.7800   -4.1710 S   0  0  0  0  0  0  0  0  0  0  0  0
   30.3590   48.1080   -3.5670 C   0  0  0  0  0  0  0  0  0  0  0  0
   29.4570   46.5760   -5.3510 C   0  0  0  0  0  0  0  0  0  0  0  0
   32.4650   46.5020   -5.7260 C   0  0  0  0  0  0  0  0  0  0  0  0
   30.9860   48.4280   -2.5590 O   0  0  0  0  0  0  0  0  0  0  0  0
   29.2650   47.5520   -6.1900 N   0  0  0  0  0  0  0  0  0  0  0  0
   29.7760   49.0170   -4.3980 N   0  0  0  0  0  0  0  0  0  0  0  0
   33.6880   45.7480   -6.2310 C   0  0  0  0  0  0  0  0  0  0  0  0
   29.3430   50.3320   -4.0010 C   0  0  0  0  0  0  0  0  0  0  0  0
   29.7770   48.8470   -5.8060 C   0  0  2  0  0  0  0  0  0  0  0  0
   34.8220   46.2060   -6.1780 O   0  0  0  0  0  0  0  0  0  0  0  0
   33.4430   44.5230   -6.7500 O   0  0  0  0  0  0  0  0  0  0  0  0
   29.1090   51.0170   -5.3330 C   0  0  0  0  0  0  0  0  0  0  0  0
   28.9070   49.9080   -6.2800 N   0  0  0  0  0  0  0  0  0  0  0  0
  2  1  1  1
  2  3  1  0
  2  4  1  0
  2  5  1  0
  3  6  1  0
  4  7  2  0
  5  8  2  0
  4  9  1  0
  6 10  1  0
  9 11  1  0
 12  8  1  1
  9 12  1  0
 10 13  2  0
 10 14  1  0
 11 15  1  0
 12 16  1  0
 15 16  1  0
M  END
