mac-x0402-mac-x0303
     RDKit          3D

 14 15  0  0  0  0  0  0  0  0999 V2000
   30.3200   47.4170   -4.2650 Cl  0  0  0  0  0  0  0  0  0  0  0  0
   30.0130   49.1010   -4.4460 C   0  0  0  0  0  0  0  0  0  0  0  0
   30.0440   49.9260   -3.3260 C   0  0  0  0  0  0  0  0  0  0  0  0
   29.7390   49.6120   -5.7180 C   0  0  0  0  0  0  0  0  0  0  0  0
   29.4920   50.9910   -5.8310 C   0  0  0  0  0  0  0  0  0  0  0  0
   29.7970   51.2980   -3.4530 C   0  0  0  0  0  0  0  0  0  0  0  0
   29.5190   51.8450   -4.7230 C   0  0  0  0  0  0  0  0  0  0  0  0
   29.1290   51.9210   -7.2380 S   0  0  0  0  0  0  0  0  0  0  0  0
   29.0440   53.3190   -6.2730 C   0  0  0  0  0  0  0  0  0  0  0  0
   29.2590   53.1780   -4.9910 N   0  0  0  0  0  0  0  0  0  0  0  0
   28.7470   54.6320   -6.8200 N   0  0  0  0  0  0  0  0  0  0  0  0
   29.3720   55.8040   -6.0720 S   0  0  0  0  0  0  0  0  0  0  0  0
   30.1140   56.5980   -7.3590 N   0  0  0  0  0  0  0  0  0  0  0  0
   28.6840   56.8860   -5.4090 O   0  0  0  0  0  0  0  0  0  0  0  0
  1  2  1  0
  2  3  2  0
  2  4  1  0
  4  5  2  0
  3  6  1  0
  5  7  1  0
  6  7  2  0
  5  8  1  0
  8  9  1  0
  7 10  1  0
  9 10  2  0
  9 11  1  0
 11 12  2  0
 12 13  1  0
 12 14  2  0
M  END
