mac-x0365-mac-x0303
     RDKit          3D

 18 19  0  0  0  0  0  0  0  0999 V2000
   29.5880   47.8630   -6.0290 O   0  0  0  0  0  0  0  0  0  0  0  0
   30.0150   48.3670   -4.8590 C   0  0  0  0  0  0  0  0  0  0  0  0
   30.4710   47.6650   -3.9660 O   0  0  0  0  0  0  0  0  0  0  0  0
   29.8930   49.8550   -4.7300 C   0  0  0  0  0  0  0  0  0  0  0  0
   30.3920   50.4990   -3.5150 C   0  0  0  0  0  0  0  0  0  0  0  0
   29.3230   50.5830   -5.7430 C   0  0  0  0  0  0  0  0  0  0  0  0
   30.0200   51.7460   -3.1850 C   0  0  0  0  0  0  0  0  0  0  0  0
   29.2710   52.0470   -5.4700 C   0  0  0  0  0  0  0  0  0  0  0  0
   30.5000   52.2980   -2.0540 F   0  0  0  0  0  0  0  0  0  0  0  0
   29.0830   52.5070   -4.0450 C   0  0  1  0  0  0  0  0  0  0  0  0
   29.3510   53.0650   -6.2740 N   0  0  0  0  0  0  0  0  0  0  0  0
   27.7950   52.2170   -3.6220 O   0  0  0  0  0  0  0  0  0  0  0  0
   29.2830   54.1700   -5.4070 C   0  0  0  0  0  0  0  0  0  0  0  0
   29.1850   53.9480   -4.1280 N   0  0  0  0  0  0  0  0  0  0  0  0
   29.3140   55.9030   -5.9310 S   0  0  0  0  0  0  0  0  0  0  0  0
   30.6770   56.0990   -6.9220 N   0  0  0  0  0  0  0  0  0  0  0  0
   28.1440   56.1270   -6.7430 O   0  0  0  0  0  0  0  0  0  0  0  0
   29.5800   56.6890   -4.7410 O   0  0  0  0  0  0  0  0  0  0  0  0
  1  2  1  0
  2  3  2  0
  2  4  1  0
  4  5  1  0
  4  6  2  0
  5  7  2  0
  6  8  1  0
  7  9  1  0
  7 10  1  0
  8 10  1  0
  8 11  2  0
 10 12  1  1
 11 13  1  0
 10 14  1  0
 13 14  2  0
 13 15  1  0
 15 16  1  0
 15 17  2  0
 15 18  2  0
M  END
