mac-x0178-mac-x0212
     RDKit          3D

 26 27  0  0  0  0  0  0  0  0999 V2000
   28.2810   44.5560   -0.0850 N   0  0  0  0  0  0  0  0  0  0  0  0
   28.5660   46.1890   -0.2650 S   0  0  0  0  0  0  0  0  0  0  0  0
   29.5000   46.5960    0.7560 O   0  0  0  0  0  0  0  0  0  0  0  0
   27.2890   46.8330   -0.4540 O   0  0  0  0  0  0  0  0  0  0  0  0
   29.4130   46.2440   -1.8020 C   0  0  0  0  0  0  0  0  0  0  0  0
   28.9010   45.6060   -2.9390 C   0  0  0  0  0  0  0  0  0  0  0  0
   30.6000   46.9490   -1.8320 C   0  0  0  0  0  0  0  0  0  0  0  0
   29.6030   45.6960   -4.1400 C   0  0  0  0  0  0  0  0  0  0  0  0
   31.2870   47.0360   -3.0140 C   0  0  0  0  0  0  0  0  0  0  0  0
   30.8000   46.4220   -4.1740 C   0  0  0  0  0  0  0  0  0  0  0  0
   31.6210   46.6200   -5.4060 C   0  0  0  0  0  0  0  0  0  0  0  0
   30.8850   46.4870   -6.6300 O   0  0  0  0  0  0  0  0  0  0  0  0
   32.7500   45.7580   -5.5060 O   0  0  0  0  0  0  0  0  0  0  0  0
   32.1020   48.1070   -5.1990 C   0  0  1  0  0  0  0  0  0  0  0  0
   33.1590   48.3880   -6.1030 O   0  0  0  0  0  0  0  0  0  0  0  0
   31.0690   49.2400   -5.2400 C   0  0  0  0  0  0  0  0  0  0  0  0
   30.5030   49.6350   -6.4600 C   0  0  0  0  0  0  0  0  0  0  0  0
   30.6770   49.9280   -4.0720 C   0  0  0  0  0  0  0  0  0  0  0  0
   29.5910   50.6930   -6.5160 C   0  0  0  0  0  0  0  0  0  0  0  0
   29.7660   50.9840   -4.1280 C   0  0  0  0  0  0  0  0  0  0  0  0
   29.2320   51.3710   -5.3520 C   0  0  0  0  0  0  0  0  0  0  0  0
   28.3290   52.4660   -5.4210 N   0  0  0  0  0  0  0  0  0  0  0  0
   29.0310   54.0070   -5.3450 S   0  0  0  0  0  0  0  0  0  0  0  0
   30.4770   53.8200   -6.3750 C   0  0  0  0  0  0  0  0  0  0  0  0
   28.1330   54.9070   -6.0340 O   0  0  0  0  0  0  0  0  0  0  0  0
   29.4720   54.2880   -3.9930 O   0  0  0  0  0  0  0  0  0  0  0  0
  2  1  1  0
  2  3  2  0
  2  4  2  0
  2  5  1  0
  5  6  2  0
  5  7  1  0
  6  8  1  0
  7  9  2  0
  8 10  2  0
  9 10  1  0
 10 11  1  0
 11 12  1  0
 11 13  1  0
 11 14  1  0
 14 15  1  6
 14 16  1  0
 16 17  2  0
 16 18  1  0
 17 19  1  0
 18 20  2  0
 19 21  2  0
 20 21  1  0
 21 22  1  0
 23 22  1  0
 23 24  1  0
 23 25  2  0
 23 26  2  0
M  END
