mac-x0213-mac-x0546
     RDKit          3D

 15 16  0  0  0  0  0  0  0  0999 V2000
   33.1690   46.6890   -6.0900 O   0  0  0  0  0  0  0  0  0  0  0  0
   31.9110   46.2350   -5.9060 C   0  0  0  0  0  0  0  0  0  0  0  0
   31.1760   46.1150   -6.8720 O   0  0  0  0  0  0  0  0  0  0  0  0
   31.5930   45.9230   -4.4510 C   0  0  1  0  0  0  0  0  0  0  0  0
   32.8710   45.3350   -3.8560 C   0  0  0  0  0  0  0  0  0  0  0  0
   31.1660   47.2140   -3.6880 C   0  0  0  0  0  0  0  0  0  0  0  0
   30.3980   44.9440   -4.3390 C   0  0  0  0  0  0  0  0  0  0  0  0
   30.0880   46.7240   -2.7580 C   0  0  0  0  0  0  0  0  0  0  0  0
   29.6630   45.4430   -3.1310 C   0  0  0  0  0  0  0  0  0  0  0  0
   29.5280   47.3820   -1.6560 C   0  0  0  0  0  0  0  0  0  0  0  0
   28.6750   44.7820   -2.4210 C   0  0  0  0  0  0  0  0  0  0  0  0
   29.9940   48.6360   -1.3630 O   0  0  0  0  0  0  0  0  0  0  0  0
   28.5320   46.7090   -0.9420 C   0  0  0  0  0  0  0  0  0  0  0  0
   28.1100   45.4240   -1.3200 C   0  0  0  0  0  0  0  0  0  0  0  0
   31.1090   48.7690   -0.4950 C   0  0  0  0  0  0  0  0  0  0  0  0
  1  2  1  0
  2  3  2  0
  4  2  1  0
  4  5  1  1
  4  6  1  0
  4  7  1  0
  6  8  1  0
  7  9  1  0
  8  9  2  0
  8 10  1  0
  9 11  1  0
 10 12  1  0
 10 13  2  0
 11 14  2  0
 13 14  1  0
 12 15  1  0
M  END
