mac-x0284-mac-x0572
     RDKit          3D

 22 24  0  0  0  0  0  0  0  0999 V2000
   27.2440   49.8630   -4.8500 C   0  0  0  0  0  0  0  0  0  0  0  0
   28.6260   49.9130   -5.5030 C   0  0  1  0  0  0  0  0  0  0  0  0
   29.4210   50.9030   -4.6410 C   0  0  0  0  0  0  0  0  0  0  0  0
   29.1970   48.5430   -5.5900 C   0  0  0  0  0  0  0  0  0  0  0  0
   28.2970   50.3380   -6.8790 C   0  0  0  0  0  0  0  0  0  0  0  0
   29.9690   48.0300   -4.6550 C   0  0  0  0  0  0  0  0  0  0  0  0
   30.0140   50.2050   -3.4580 C   0  0  0  0  0  0  0  0  0  0  0  0
   29.4650   52.2330   -5.0350 C   0  0  0  0  0  0  0  0  0  0  0  0
   28.3730   51.5760   -7.2730 C   0  0  0  0  0  0  0  0  0  0  0  0
   30.4000   46.6480   -4.9810 C   0  0  0  0  0  0  0  0  0  0  0  0
   30.2730   48.8500   -3.4770 C   0  0  0  0  0  0  0  0  0  0  0  0
   30.0900   53.4060   -4.3310 C   0  0  0  0  0  0  0  0  0  0  0  0
   28.8210   52.6190   -6.3440 C   0  0  0  0  0  0  0  0  0  0  0  0
   30.8320   48.2200   -2.3810 O   0  0  0  0  0  0  0  0  0  0  0  0
   30.2930   46.1180   -6.0770 O   0  0  0  0  0  0  0  0  0  0  0  0
   30.9330   45.9700   -3.9520 O   0  0  0  0  0  0  0  0  0  0  0  0
   30.8100   53.3200   -3.3460 O   0  0  0  0  0  0  0  0  0  0  0  0
   29.7540   54.7710   -4.9000 C   0  0  0  0  0  0  0  0  0  0  0  0
   28.6480   53.8110   -6.7960 N   0  0  0  0  0  0  0  0  0  0  0  0
   30.1770   55.8710   -4.1700 O   0  0  0  0  0  0  0  0  0  0  0  0
   29.0730   54.8700   -6.0600 C   0  0  0  0  0  0  0  0  0  0  0  0
   28.7000   56.1870   -6.7040 C   0  0  0  0  0  0  0  0  0  0  0  0
  2  1  1  1
  2  3  1  0
  2  4  1  0
  2  5  1  0
  4  6  2  0
  3  7  1  0
  3  8  2  0
  5  9  2  0
  6 10  1  0
  6 11  1  0
  7 11  2  0
  8 12  1  0
  8 13  1  0
  9 13  1  0
 11 14  1  0
 10 15  2  0
 10 16  1  0
 12 17  2  0
 12 18  1  0
 13 19  2  0
 18 20  1  0
 18 21  2  0
 19 21  1  0
 21 22  1  0
M  END
