mac-x0455-mac-x0124
     RDKit          3D

 22 24  0  0  0  0  0  0  0  0999 V2000
   31.1010   48.5160   -3.3070 C   0  0  0  0  0  0  0  0  0  0  0  0
   31.1950   46.9910   -3.5830 C   0  0  1  0  0  0  0  0  0  0  0  0
   30.5230   46.4050   -2.4420 O   0  0  0  0  0  0  0  0  0  0  0  0
   30.3720   46.6660   -4.9260 C   0  0  0  0  0  0  0  0  0  0  0  0
   32.6940   46.6560   -3.5650 C   0  0  0  0  0  0  0  0  0  0  0  0
   29.9270   45.3200   -4.9150 O   0  0  0  0  0  0  0  0  0  0  0  0
   31.1960   46.8000   -6.0750 O   0  0  0  0  0  0  0  0  0  0  0  0
   33.6500   47.6860   -3.6390 C   0  0  0  0  0  0  0  0  0  0  0  0
   33.1700   45.3380   -3.4700 C   0  0  0  0  0  0  0  0  0  0  0  0
   29.1630   47.4780   -5.0950 N   0  0  0  0  0  0  0  0  0  0  0  0
   35.0170   47.4170   -3.6140 C   0  0  0  0  0  0  0  0  0  0  0  0
   34.5390   45.0650   -3.4460 C   0  0  0  0  0  0  0  0  0  0  0  0
   28.9260   48.5900   -4.2750 C   0  0  0  0  0  0  0  0  0  0  0  0
   28.8600   47.9940   -6.4370 C   0  0  1  0  0  0  0  0  0  0  0  0
   35.4620   46.1030   -3.5170 C   0  0  0  0  0  0  0  0  0  0  0  0
   29.1290   49.7470   -4.9260 C   0  0  0  0  0  0  0  0  0  0  0  0
   29.5410   49.3890   -6.3240 C   0  0  2  0  0  0  0  0  0  0  0  0
   29.2570   47.3430   -7.6640 N   0  0  0  0  0  0  0  0  0  0  0  0
   28.9730   50.2390   -7.4570 C   0  0  2  0  0  0  0  0  0  0  0  0
   28.9340   48.1870   -8.7940 C   0  0  0  0  0  0  0  0  0  0  0  0
   28.0110   51.2300   -7.0230 N   0  0  0  0  0  0  0  0  0  0  0  0
   28.2500   49.4180   -8.4010 N   0  0  0  0  0  0  0  0  0  0  0  0
  2  1  1  1
  2  3  1  0
  2  4  1  0
  2  5  1  0
  4  6  1  0
  4  7  1  0
  5  8  2  0
  5  9  1  0
  4 10  1  0
  8 11  1  0
  9 12  2  0
 10 13  1  0
 10 14  1  0
 11 15  2  0
 12 15  1  0
 13 16  2  0
 14 17  1  0
 17 16  1  1
 14 18  1  6
 17 19  1  0
 18 20  1  0
 19 21  1  1
 19 22  1  0
 20 22  1  0
M  END
