mac-x0212-mac-x0346
     RDKit          3D

 16 17  0  0  0  0  0  0  0  0999 V2000
   30.9000   54.0480   -6.4280 C   0  0  0  0  0  0  0  0  0  0  0  0
   29.3580   54.1710   -5.5650 S   0  0  2  0  0  0  0  0  0  0  0  0
   28.5650   55.2040   -6.1870 O   0  0  0  0  0  0  0  0  0  0  0  0
   29.6140   54.0030   -4.0760 N   0  0  0  0  0  0  0  0  0  0  0  0
   28.4800   52.7710   -5.9620 N   0  0  0  0  0  0  0  0  0  0  0  0
   29.7270   52.7380   -3.4780 C   0  0  0  0  0  0  0  0  0  0  0  0
   29.0330   51.5540   -5.5220 C   0  0  0  0  0  0  0  0  0  0  0  0
   29.8870   52.6330   -2.2720 O   0  0  0  0  0  0  0  0  0  0  0  0
   28.9580   50.4150   -6.3270 C   0  0  0  0  0  0  0  0  0  0  0  0
   29.6670   51.4710   -4.2830 C   0  0  0  0  0  0  0  0  0  0  0  0
   29.5080   49.2040   -5.8970 C   0  0  0  0  0  0  0  0  0  0  0  0
   30.2230   50.2520   -3.8340 C   0  0  0  0  0  0  0  0  0  0  0  0
   30.1410   49.1100   -4.6510 C   0  0  0  0  0  0  0  0  0  0  0  0
   30.7300   47.8230   -4.1910 C   0  0  0  0  0  0  0  0  0  0  0  0
   31.0330   46.8910   -4.9130 O   0  0  0  0  0  0  0  0  0  0  0  0
   30.9130   47.7600   -2.8640 O   0  0  0  0  0  0  0  0  0  0  0  0
  2  1  1  6
  2  3  2  0
  2  4  2  0
  2  5  1  0
  4  6  1  0
  5  7  1  0
  6  8  2  0
  7  9  2  0
  6 10  1  0
  7 10  1  0
  9 11  1  0
 10 12  2  0
 11 13  2  0
 12 13  1  0
 13 14  1  0
 14 15  2  0
 14 16  1  0
M  END
