mac-x0555-mac-x0204
     RDKit          3D

 22 24  0  0  0  0  0  0  0  0999 V2000
   29.3690   55.6160   -6.4170 N   0  0  0  0  0  0  0  0  0  0  0  0
   29.4060   54.4640   -5.6190 C   0  0  0  0  0  0  0  0  0  0  0  0
   29.7470   54.4780   -4.2690 C   0  0  0  0  0  0  0  0  0  0  0  0
   29.0970   53.2240   -6.1510 C   0  0  0  0  0  0  0  0  0  0  0  0
   29.1300   52.0700   -5.3550 C   0  0  0  0  0  0  0  0  0  0  0  0
   29.7930   53.3800   -3.4580 N   0  0  0  0  0  0  0  0  0  0  0  0
   29.4850   52.1790   -3.9930 C   0  0  0  0  0  0  0  0  0  0  0  0
   28.8130   50.8290   -5.9010 C   0  0  0  0  0  0  0  0  0  0  0  0
   29.5010   50.9890   -3.2220 C   0  0  0  0  0  0  0  0  0  0  0  0
   28.8350   49.6770   -5.1320 C   0  0  0  0  0  0  0  0  0  0  0  0
   29.1710   49.7130   -3.7870 C   0  0  0  0  0  0  0  0  0  0  0  0
   29.1560   48.3670   -3.0390 C   0  0  0  0  0  0  0  0  0  0  0  0
   30.5320   47.7470   -2.9220 C   0  0  0  0  0  0  0  0  0  0  0  0
   31.1940   46.9650   -3.9110 C   0  0  0  0  0  0  0  0  0  0  0  0
   31.2190   47.9740   -1.7360 C   0  0  0  0  0  0  0  0  0  0  0  0
   30.6720   46.5440   -5.2300 C   0  0  0  0  0  0  0  0  0  0  0  0
   30.6040   48.6840   -0.7490 O   0  0  0  0  0  0  0  0  0  0  0  0
   32.4980   47.4870   -1.5640 C   0  0  0  0  0  0  0  0  0  0  0  0
   32.4820   46.5220   -3.6460 C   0  0  0  0  0  0  0  0  0  0  0  0
   31.5690   46.6700   -6.2250 O   0  0  0  0  0  0  0  0  0  0  0  0
   29.5460   46.0970   -5.3810 O   0  0  0  0  0  0  0  0  0  0  0  0
   33.1500   46.7750   -2.4980 N   0  0  0  0  0  0  0  0  0  0  0  0
  1  2  1  0
  2  3  2  0
  2  4  1  0
  4  5  2  0
  3  6  1  0
  5  7  1  0
  6  7  2  0
  5  8  1  0
  7  9  1  0
  8 10  2  0
  9 11  2  0
 10 11  1  0
 11 12  1  0
 12 13  1  0
 13 14  2  0
 13 15  1  0
 14 16  1  0
 15 17  1  0
 15 18  2  0
 14 19  1  0
 16 20  1  0
 16 21  2  0
 18 22  1  0
 19 22  2  0
M  END
