mac-x0306-mac-x0159
     RDKit          3D

 22 25  0  0  0  0  0  0  0  0999 V2000
   30.1270   47.7070   -4.1500 C   0  0  0  0  0  0  0  0  0  0  0  0
   29.4240   46.5760   -3.4030 C   0  0  0  0  0  0  0  0  0  0  0  0
   29.0770   45.3210   -3.8960 C   0  0  0  0  0  0  0  0  0  0  0  0
   29.4060   49.0240   -4.3800 N   0  0  0  0  0  0  0  0  0  0  0  0
   29.4650   50.0080   -3.3860 C   0  0  0  0  0  0  0  0  0  0  0  0
   29.2010   49.4050   -5.8210 C   0  0  2  0  0  0  0  0  0  0  0  0
   29.0660   46.7670   -2.0710 N   0  0  0  0  0  0  0  0  0  0  0  0
   29.6520   51.3230   -3.5900 C   0  0  0  0  0  0  0  0  0  0  0  0
   29.0850   50.9850   -5.9910 C   0  0  0  0  0  0  0  0  0  0  0  0
   28.4730   45.6970   -1.5890 C   0  0  0  0  0  0  0  0  0  0  0  0
   28.3000   44.3880   -2.6860 S   0  0  0  0  0  0  0  0  0  0  0  0
   28.0870   48.7890   -6.5930 N   0  0  0  0  0  0  0  0  0  0  0  0
   30.3990   48.8940   -6.6710 C   0  0  0  0  0  0  0  0  0  0  0  0
   27.9660   45.5770   -0.1940 C   0  0  0  0  0  0  0  0  0  0  0  0
   29.8280   51.8780   -4.9740 C   0  0  1  0  0  0  0  0  0  0  0  0
   29.9570   47.5840   -7.1880 N   0  0  0  0  0  0  0  0  0  0  0  0
   28.6260   47.9240   -7.6230 C   0  0  0  0  0  0  0  0  0  0  0  0
   29.5310   53.3660   -5.1480 C   0  0  0  0  0  0  0  0  0  0  0  0
   28.9540   53.9050   -6.2830 N   0  0  0  0  0  0  0  0  0  0  0  0
   29.7770   54.3320   -4.2730 N   0  0  0  0  0  0  0  0  0  0  0  0
   29.3550   55.4990   -4.8560 C   0  0  0  0  0  0  0  0  0  0  0  0
   28.8410   55.2580   -6.1020 C   0  0  0  0  0  0  0  0  0  0  0  0
  1  2  1  0
  2  3  2  0
  1  4  1  0
  4  5  1  0
  6  4  1  0
  2  7  1  0
  5  8  2  0
  6  9  1  1
  7 10  2  0
  3 11  1  0
 10 11  1  0
  6 12  1  0
  6 13  1  0
 10 14  1  0
  8 15  1  0
  9 15  1  0
 13 16  1  0
 12 17  1  0
 16 17  1  0
 15 18  1  1
 18 19  1  0
 18 20  2  0
 20 21  1  0
 19 22  1  0
 21 22  2  0
M  END
