mac-x0283-mac-x0190
     RDKit          3D

 12 13  0  0  0  0  0  0  0  0999 V2000
   28.7910   54.3530   -7.0250 N   0  0  0  0  0  0  0  0  0  0  0  0
   29.0200   53.7970   -5.7990 C   0  0  0  0  0  0  0  0  0  0  0  0
   29.3550   54.4860   -4.6460 N   0  0  0  0  0  0  0  0  0  0  0  0
   28.9650   52.4980   -5.4720 C   0  0  0  0  0  0  0  0  0  0  0  0
   29.7790   55.8720   -4.5890 C   0  0  0  0  0  0  0  0  0  0  0  0
   29.9990   53.5930   -3.7300 O   0  0  0  0  0  0  0  0  0  0  0  0
   29.2680   52.3720   -4.0100 C   0  0  2  0  0  0  0  0  0  0  0  0
   28.6820   51.3100   -6.2360 C   0  0  0  0  0  0  0  0  0  0  0  0
   28.8430   56.6570   -5.3110 O   0  0  0  0  0  0  0  0  0  0  0  0
   29.9560   51.0760   -3.6750 C   0  0  0  0  0  0  0  0  0  0  0  0
   29.1160   50.1250   -5.7650 C   0  0  0  0  0  0  0  0  0  0  0  0
   29.8670   50.0250   -4.5200 C   0  0  0  0  0  0  0  0  0  0  0  0
  1  2  1  0
  2  3  1  0
  2  4  2  0
  3  5  1  0
  3  6  1  0
  4  7  1  0
  6  7  1  0
  4  8  1  0
  5  9  1  0
  7 10  1  6
  8 11  2  0
 10 12  2  0
 11 12  1  0
M  END
