mac-x0510-mac-x0319
     RDKit          3D

 23 25  0  0  0  0  0  0  0  0999 V2000
   30.1050   53.1630   -5.9430 O   0  0  0  0  0  0  0  0  0  0  0  0
   29.6870   52.0080   -6.0220 C   0  0  0  0  0  0  0  0  0  0  0  0
   30.0560   51.0480   -5.0990 N   0  0  0  0  0  0  0  0  0  0  0  0
   28.8340   51.6090   -7.0240 N   0  0  0  0  0  0  0  0  0  0  0  0
   28.4360   50.3070   -7.0980 C   0  0  0  0  0  0  0  0  0  0  0  0
   29.4150   49.8370   -4.9130 C   0  0  0  0  0  0  0  0  0  0  0  0
   29.4240   49.1280   -3.8370 N   0  0  0  0  0  0  0  0  0  0  0  0
   28.7100   49.4370   -6.0850 C   0  0  0  0  0  0  0  0  0  0  0  0
   27.7580   49.7280   -8.1190 N   0  0  0  0  0  0  0  0  0  0  0  0
   28.7100   47.8510   -3.7170 C   0  0  0  0  0  0  0  0  0  0  0  0
   28.1740   48.2490   -6.4980 N   0  0  0  0  0  0  0  0  0  0  0  0
   27.6130   48.4770   -7.7280 C   0  0  0  0  0  0  0  0  0  0  0  0
   29.6010   46.6330   -3.6560 C   0  0  0  0  0  0  0  0  0  0  0  0
   29.1050   45.4340   -3.1260 C   0  0  0  0  0  0  0  0  0  0  0  0
   30.9280   46.6710   -4.1200 C   0  0  0  0  0  0  0  0  0  0  0  0
   31.7540   45.5350   -4.0600 C   0  0  0  0  0  0  0  0  0  0  0  0
   29.9190   44.3110   -3.0660 C   0  0  0  0  0  0  0  0  0  0  0  0
   33.1780   45.5930   -4.5620 C   0  0  0  0  0  0  0  0  0  0  0  0
   29.3800   43.1720   -2.5410 O   0  0  0  0  0  0  0  0  0  0  0  0
   31.2330   44.3450   -3.5250 C   0  0  0  0  0  0  0  0  0  0  0  0
   33.3290   45.5160   -6.0640 C   0  0  0  0  0  0  0  0  0  0  0  0
   34.1650   46.4690   -6.5340 O   0  0  0  0  0  0  0  0  0  0  0  0
   32.8060   44.7350   -6.8430 O   0  0  0  0  0  0  0  0  0  0  0  0
  1  2  2  0
  2  3  1  0
  2  4  1  0
  4  5  1  0
  3  6  1  0
  6  7  2  3
  5  8  2  0
  6  8  1  0
  5  9  1  0
  7 10  1  0
  8 11  1  0
  9 12  2  0
 11 12  1  0
 10 13  1  0
 13 14  2  0
 13 15  1  0
 15 16  2  0
 14 17  1  0
 16 18  1  0
 17 19  1  0
 16 20  1  0
 17 20  2  0
 18 21  1  0
 21 22  1  0
 21 23  2  0
M  END
