mac-x0394-mac-x0373
     RDKit          3D

 28 30  0  0  0  0  0  0  0  0999 V2000
   23.5100   50.2530   -3.6320 Cl  0  0  0  0  0  0  0  0  0  0  0  0
   24.7110   51.4470   -3.9310 C   0  0  0  0  0  0  0  0  0  0  0  0
   24.7810   52.5970   -3.1530 C   0  0  0  0  0  0  0  0  0  0  0  0
   25.6090   51.2500   -4.9590 C   0  0  0  0  0  0  0  0  0  0  0  0
   26.5950   52.1970   -5.2330 C   0  0  0  0  0  0  0  0  0  0  0  0
   25.7680   53.5450   -3.4250 C   0  0  0  0  0  0  0  0  0  0  0  0
   25.8700   54.9730   -2.4750 Cl  0  0  0  0  0  0  0  0  0  0  0  0
   27.5060   51.8730   -6.3640 C   0  0  1  0  0  0  0  0  0  0  0  0
   26.6770   53.3520   -4.4610 C   0  0  0  0  0  0  0  0  0  0  0  0
   28.0080   52.9660   -7.3030 C   0  0  0  0  0  0  0  0  0  0  0  0
   28.4720   50.8230   -5.9220 C   0  0  0  0  0  0  0  0  0  0  0  0
   29.2190   53.4730   -6.9840 O   0  0  0  0  0  0  0  0  0  0  0  0
   27.4230   53.3850   -8.2890 O   0  0  0  0  0  0  0  0  0  0  0  0
   28.9090   50.6460   -4.5830 C   0  0  0  0  0  0  0  0  0  0  0  0
   28.9150   49.9980   -6.9140 C   0  0  0  0  0  0  0  0  0  0  0  0
   29.8050   49.6000   -4.2900 C   0  0  0  0  0  0  0  0  0  0  0  0
   29.7770   48.9910   -6.6330 C   0  0  0  0  0  0  0  0  0  0  0  0
   30.2290   48.7720   -5.3520 C   0  0  0  0  0  0  0  0  0  0  0  0
   31.1740   47.5950   -5.3090 C   0  0  2  0  0  0  0  0  0  0  0  0
   30.5480   46.2410   -5.6300 C   0  0  0  0  0  0  0  0  0  0  0  0
   32.3880   47.7170   -4.4240 C   0  0  0  0  0  0  0  0  0  0  0  0
   31.2210   45.5950   -6.6170 O   0  0  0  0  0  0  0  0  0  0  0  0
   29.5550   45.7380   -5.1280 O   0  0  0  0  0  0  0  0  0  0  0  0
   32.8130   46.6510   -3.6160 C   0  0  0  0  0  0  0  0  0  0  0  0
   33.1220   48.9060   -4.4200 C   0  0  0  0  0  0  0  0  0  0  0  0
   33.9550   46.7830   -2.8290 C   0  0  0  0  0  0  0  0  0  0  0  0
   34.2580   49.0370   -3.6370 C   0  0  0  0  0  0  0  0  0  0  0  0
   34.6770   47.9750   -2.8420 C   0  0  0  0  0  0  0  0  0  0  0  0
  1  2  1  0
  2  3  2  0
  2  4  1  0
  4  5  2  0
  3  6  1  0
  6  7  1  0
  5  8  1  0
  5  9  1  0
  6  9  2  0
  8 10  1  1
  8 11  1  0
 10 12  1  0
 10 13  2  0
 11 14  2  0
 11 15  1  0
 14 16  1  0
 15 17  2  0
 16 18  2  0
 17 18  1  0
 18 19  1  0
 19 20  1  1
 19 21  1  0
 20 22  1  0
 20 23  2  0
 21 24  2  0
 21 25  1  0
 24 26  1  0
 25 27  2  0
 26 28  2  0
 27 28  1  0
M  END
