mac-x0305-mac-x0116
     RDKit          3D

 20 22  0  0  0  0  0  0  0  0999 V2000
   31.3840   47.6920   -7.3360 O   0  0  0  0  0  0  0  0  0  0  0  0
   30.8160   47.5510   -6.1080 C   0  0  0  0  0  0  0  0  0  0  0  0
   31.4260   46.9490   -5.2360 O   0  0  0  0  0  0  0  0  0  0  0  0
   29.3910   48.1520   -6.0050 C   0  0  2  0  0  0  0  0  0  0  0  0
   28.8840   49.2760   -6.9490 C   0  0  1  0  0  0  0  0  0  0  0  0
   29.1090   48.4520   -4.5920 N   0  0  0  0  0  0  0  0  0  0  0  0
   28.6330   47.2050   -6.8350 N   0  0  0  0  0  0  0  0  0  0  0  0
   27.6100   48.9250   -7.4830 O   0  0  0  0  0  0  0  0  0  0  0  0
   28.7630   50.7360   -6.3280 C   0  0  2  0  0  0  0  0  0  0  0  0
   29.4170   49.7140   -4.1460 C   0  0  0  0  0  0  0  0  0  0  0  0
   29.6460   48.9490   -8.1300 N   0  0  0  0  0  0  0  0  0  0  0  0
   29.2090   47.5420   -8.1710 C   0  0  0  0  0  0  0  0  0  0  0  0
   29.2370   51.8210   -7.2030 N   0  0  0  0  0  0  0  0  0  0  0  0
   29.2790   50.8020   -4.9080 C   0  0  0  0  0  0  0  0  0  0  0  0
   29.3360   53.1590   -6.6400 C   0  0  0  0  0  0  0  0  0  0  0  0
   30.6430   53.7740   -6.9710 C   0  0  0  0  0  0  0  0  0  0  0  0
   31.7120   53.3860   -6.2150 O   0  0  0  0  0  0  0  0  0  0  0  0
   31.0470   54.6900   -7.9190 C   0  0  0  0  0  0  0  0  0  0  0  0
   32.4340   54.8710   -7.7340 C   0  0  0  0  0  0  0  0  0  0  0  0
   32.7930   54.0570   -6.6860 C   0  0  0  0  0  0  0  0  0  0  0  0
  1  2  1  0
  2  3  2  0
  4  2  1  1
  4  5  1  0
  4  6  1  0
  4  7  1  0
  5  8  1  6
  5  9  1  0
  6 10  1  0
  5 11  1  0
  7 12  1  0
 11 12  1  0
  9 13  1  6
  9 14  1  0
 10 14  2  0
 13 15  1  0
 15 16  1  0
 16 17  1  0
 16 18  2  0
 18 19  1  0
 17 20  1  0
 19 20  2  0
M  END
