mac-x0472-mac-x0159
     RDKit          3D

 31 35  0  0  0  0  0  0  0  0999 V2000
   30.7200   51.3620   -5.6120 O   0  0  0  0  0  0  0  0  0  0  0  0
   30.4730   49.9400   -4.8300 S   0  0  0  0  0  0  0  0  0  0  0  0
   29.3000   48.7120   -4.2830 C   0  0  0  0  0  0  0  0  0  0  0  0
   29.3300   50.9450   -5.5500 N   0  0  0  0  0  0  0  0  0  0  0  0
   32.1980   49.8720   -4.5580 C   0  0  0  0  0  0  0  0  0  0  0  0
   29.6930   52.1770   -6.0050 C   0  0  0  0  0  0  0  0  0  0  0  0
   32.9850   48.8800   -5.1460 C   0  0  0  0  0  0  0  0  0  0  0  0
   32.7750   50.8390   -3.7320 C   0  0  0  0  0  0  0  0  0  0  0  0
   27.7580   48.6570   -4.4490 C   0  0  1  0  0  0  0  0  0  0  0  0
   29.9490   47.6160   -3.5580 C   0  0  0  0  0  0  0  0  0  0  0  0
   30.0620   52.5030   -7.2320 N   0  0  0  0  0  0  0  0  0  0  0  0
   29.6960   53.5320   -4.9300 S   0  0  0  0  0  0  0  0  0  0  0  0
   34.3590   48.8570   -4.9060 C   0  0  0  0  0  0  0  0  0  0  0  0
   34.1490   50.8120   -3.4960 C   0  0  0  0  0  0  0  0  0  0  0  0
   27.3270   49.3570   -5.6740 N   0  0  0  0  0  0  0  0  0  0  0  0
   27.1890   47.2970   -4.4340 N   0  0  0  0  0  0  0  0  0  0  0  0
   30.8620   46.7270   -4.1080 C   0  0  0  0  0  0  0  0  0  0  0  0
   29.6770   47.3970   -2.2100 N   0  0  0  0  0  0  0  0  0  0  0  0
   30.2150   54.4920   -6.2480 C   0  0  0  0  0  0  0  0  0  0  0  0
   30.3650   53.8410   -7.3770 N   0  0  0  0  0  0  0  0  0  0  0  0
   34.9400   49.8220   -4.0810 C   0  0  0  0  0  0  0  0  0  0  0  0
   27.6730   48.6480   -6.8950 C   0  0  2  0  0  0  0  0  0  0  0  0
   27.3960   46.5410   -5.6590 C   0  0  1  0  0  0  0  0  0  0  0  0
   30.3710   46.3680   -1.7650 C   0  0  0  0  0  0  0  0  0  0  0  0
   31.3860   45.6020   -2.9220 S   0  0  0  0  0  0  0  0  0  0  0  0
   27.1860   49.5180   -7.9470 N   0  0  0  0  0  0  0  0  0  0  0  0
   30.3160   45.8600   -0.3640 C   0  0  0  0  0  0  0  0  0  0  0  0
   26.9740   47.2830   -6.9120 C   0  0  2  0  0  0  0  0  0  0  0  0
   28.7680   46.2430   -5.9990 N   0  0  0  0  0  0  0  0  0  0  0  0
   27.3250   46.2580   -7.8870 N   0  0  0  0  0  0  0  0  0  0  0  0
   28.6570   45.8500   -7.4140 C   0  0  0  0  0  0  0  0  0  0  0  0
  1  2  2  0
  2  3  2  0
  2  4  1  0
  2  5  1  0
  4  6  1  0
  5  7  2  0
  5  8  1  0
  9  3  1  6
  3 10  1  0
  6 11  2  0
  6 12  1  0
  7 13  1  0
  8 14  2  0
  9 15  1  0
  9 16  1  0
 10 17  2  0
 10 18  1  0
 12 19  1  0
 11 20  1  0
 19 20  2  0
 13 21  2  0
 14 21  1  0
 15 22  1  0
 23 16  1  1
 18 24  2  0
 17 25  1  0
 24 25  1  0
 22 26  1  6
 24 27  1  0
 22 28  1  0
 23 28  1  0
 23 29  1  0
 28 30  1  6
 29 31  1  0
 30 31  1  0
M  END
