mac-x0123-mac-x0204
     RDKit          3D

 22 25  0  0  0  0  0  0  0  0999 V2000
   27.6120   51.3530   -6.4210 N   0  0  0  0  0  0  0  0  0  0  0  0
   28.6470   51.8180   -5.6180 C   0  0  0  0  0  0  0  0  0  0  0  0
   28.9650   53.1710   -5.5340 C   0  0  0  0  0  0  0  0  0  0  0  0
   29.4320   50.9360   -4.8440 C   0  0  0  0  0  0  0  0  0  0  0  0
   30.4820   51.4360   -4.0860 C   0  0  0  0  0  0  0  0  0  0  0  0
   30.0170   53.5800   -4.7100 C   0  0  0  0  0  0  0  0  0  0  0  0
   28.3340   54.3530   -6.2170 C   0  0  0  0  0  0  0  0  0  0  0  0
   29.3000   49.4850   -4.7060 N   0  0  0  0  0  0  0  0  0  0  0  0
   30.8020   52.7460   -3.9780 N   0  0  0  0  0  0  0  0  0  0  0  0
   30.1680   55.0840   -4.7470 C   0  0  0  0  0  0  0  0  0  0  0  0
   29.3940   55.4500   -6.0160 C   0  0  0  0  0  0  0  0  0  0  0  0
   31.1720   50.3380   -3.4630 N   0  0  0  0  0  0  0  0  0  0  0  0
   30.4040   49.0730   -3.7260 C   0  0  2  0  0  0  0  0  0  0  0  0
   31.1730   47.7510   -4.1170 C   0  0  1  0  0  0  0  0  0  0  0  0
   30.1300   48.6830   -2.2030 C   0  0  1  0  0  0  0  0  0  0  0  0
   30.8000   46.9180   -5.3520 C   0  0  0  0  0  0  0  0  0  0  0  0
   29.2320   47.5780   -1.9500 O   0  0  0  0  0  0  0  0  0  0  0  0
   31.4970   48.2640   -1.5670 C   0  0  0  0  0  0  0  0  0  0  0  0
   32.6360   47.9060   -3.7980 C   0  0  0  0  0  0  0  0  0  0  0  0
   31.6950   46.8220   -6.3560 O   0  0  0  0  0  0  0  0  0  0  0  0
   29.7240   46.3150   -5.4310 O   0  0  0  0  0  0  0  0  0  0  0  0
   32.7600   48.3310   -2.3910 N   0  0  0  0  0  0  0  0  0  0  0  0
  1  2  1  0
  2  3  2  0
  2  4  1  0
  4  5  2  0
  3  6  1  0
  3  7  1  0
  4  8  1  0
  5  9  1  0
  6  9  2  0
  6 10  1  0
  7 11  1  0
 10 11  1  0
  5 12  1  0
 13  8  1  6
 12 13  1  0
 13 14  1  0
 13 15  1  0
 14 16  1  6
 15 17  1  6
 15 18  1  0
 14 19  1  0
 16 20  1  0
 16 21  2  0
 18 22  1  0
 19 22  1  0
M  END
