mac-x0509-mac-x0358
     RDKit          3D

 22 24  0  0  0  0  0  0  0  0999 V2000
   37.7180   47.2410   -5.3120 O   0  0  0  0  0  0  0  0  0  0  0  0
   37.7740   46.2480   -4.6050 C   0  0  0  0  0  0  0  0  0  0  0  0
   37.3120   46.1290   -3.1440 C   0  0  1  0  0  0  0  0  0  0  0  0
   38.2900   45.0100   -4.9780 N   0  0  0  0  0  0  0  0  0  0  0  0
   35.9690   46.8270   -2.8070 C   0  0  0  0  0  0  0  0  0  0  0  0
   37.4730   44.6490   -2.8820 C   0  0  0  0  0  0  0  0  0  0  0  0
   38.0620   44.0510   -4.0010 C   0  0  0  0  0  0  0  0  0  0  0  0
   34.7840   46.4360   -3.5320 O   0  0  0  0  0  0  0  0  0  0  0  0
   37.1500   43.8820   -1.7750 C   0  0  0  0  0  0  0  0  0  0  0  0
   38.3490   42.7020   -4.0640 C   0  0  0  0  0  0  0  0  0  0  0  0
   37.4310   42.5110   -1.8160 C   0  0  0  0  0  0  0  0  0  0  0  0
   38.0260   41.9240   -2.9480 C   0  0  0  0  0  0  0  0  0  0  0  0
   33.5400   46.6870   -2.9740 C   0  0  0  0  0  0  0  0  0  0  0  0
   32.4490   45.9410   -3.4870 C   0  0  0  0  0  0  0  0  0  0  0  0
   33.2950   47.6080   -1.9540 C   0  0  0  0  0  0  0  0  0  0  0  0
   32.6380   44.9290   -4.5970 C   0  0  0  0  0  0  0  0  0  0  0  0
   32.0030   47.7940   -1.4410 C   0  0  0  0  0  0  0  0  0  0  0  0
   31.1570   46.1380   -2.9610 C   0  0  0  0  0  0  0  0  0  0  0  0
   32.6700   45.5670   -5.9660 C   0  0  0  0  0  0  0  0  0  0  0  0
   30.9370   47.0590   -1.9430 C   0  0  0  0  0  0  0  0  0  0  0  0
   31.5770   45.2850   -6.7070 O   0  0  0  0  0  0  0  0  0  0  0  0
   33.5480   46.2710   -6.4330 O   0  0  0  0  0  0  0  0  0  0  0  0
  1  2  2  0
  2  3  1  0
  2  4  1  0
  3  5  1  6
  3  6  1  0
  4  7  1  0
  6  7  2  0
  5  8  1  0
  6  9  1  0
  7 10  1  0
  9 11  2  0
 10 12  2  0
 11 12  1  0
  8 13  1  0
 13 14  2  0
 13 15  1  0
 14 16  1  0
 15 17  2  0
 14 18  1  0
 16 19  1  0
 17 20  1  0
 18 20  2  0
 19 21  1  0
 19 22  2  0
M  END
