mac-x0263-mac-x0455
     RDKit          3D

 28 30  0  0  0  0  0  0  0  0999 V2000
   28.0750   59.8910   -6.4630 O   0  0  0  0  0  0  0  0  0  0  0  0
   26.9430   59.1660   -6.3550 C   0  0  0  0  0  0  0  0  0  0  0  0
   25.8680   59.6340   -6.7100 O   0  0  0  0  0  0  0  0  0  0  0  0
   27.1780   57.8000   -5.7690 C   0  0  0  0  0  0  0  0  0  0  0  0
   28.4070   57.0940   -6.3490 C   0  0  0  0  0  0  0  0  0  0  0  0
   28.3420   55.6180   -6.1360 C   0  0  0  0  0  0  0  0  0  0  0  0
   28.6020   55.0330   -4.9170 N   0  0  0  0  0  0  0  0  0  0  0  0
   28.0390   54.7060   -7.0350 N   0  0  0  0  0  0  0  0  0  0  0  0
   28.4570   53.6750   -5.0470 C   0  0  0  0  0  0  0  0  0  0  0  0
   28.1040   53.5010   -6.3790 C   0  0  0  0  0  0  0  0  0  0  0  0
   28.6000   52.6150   -4.1440 C   0  0  0  0  0  0  0  0  0  0  0  0
   27.8730   52.2050   -6.8570 C   0  0  0  0  0  0  0  0  0  0  0  0
   28.3720   51.3110   -4.6350 C   0  0  0  0  0  0  0  0  0  0  0  0
   28.0110   51.1220   -5.9780 C   0  0  0  0  0  0  0  0  0  0  0  0
   28.5210   50.1150   -3.7110 C   0  0  0  0  0  0  0  0  0  0  0  0
   28.9530   48.8320   -4.4510 C   0  0  0  0  0  0  0  0  0  0  0  0
   30.4800   48.5940   -4.3860 C   0  0  0  0  0  0  0  0  0  0  0  0
   30.9340   47.1120   -4.1910 C   0  0  1  0  0  0  0  0  0  0  0  0
   30.1400   46.6020   -3.1110 O   0  0  0  0  0  0  0  0  0  0  0  0
   30.5720   46.3090   -5.4700 C   0  0  0  0  0  0  0  0  0  0  0  0
   32.4140   46.8710   -3.8340 C   0  0  0  0  0  0  0  0  0  0  0  0
   29.5260   45.7030   -5.6550 O   0  0  0  0  0  0  0  0  0  0  0  0
   31.5200   46.3070   -6.4290 O   0  0  0  0  0  0  0  0  0  0  0  0
   33.3380   47.9180   -3.6610 C   0  0  0  0  0  0  0  0  0  0  0  0
   32.8990   45.5540   -3.6600 C   0  0  0  0  0  0  0  0  0  0  0  0
   34.6770   47.6710   -3.3360 C   0  0  0  0  0  0  0  0  0  0  0  0
   34.2390   45.3070   -3.3330 C   0  0  0  0  0  0  0  0  0  0  0  0
   35.1280   46.3660   -3.1700 C   0  0  0  0  0  0  0  0  0  0  0  0
  1  2  1  0
  2  3  2  0
  2  4  1  0
  4  5  1  0
  5  6  1  0
  6  7  1  0
  6  8  2  0
  7  9  1  0
  8 10  1  0
  9 10  2  0
  9 11  1  0
 10 12  1  0
 11 13  2  0
 12 14  2  0
 13 14  1  0
 13 15  1  0
 15 16  1  0
 16 17  1  0
 17 18  1  0
 18 19  1  1
 18 20  1  0
 18 21  1  0
 20 22  2  0
 20 23  1  0
 21 24  2  0
 21 25  1  0
 24 26  1  0
 25 27  2  0
 26 28  2  0
 27 28  1  0
M  END
