mac-x0283-mac-x0138
     RDKit          3D

 18 20  0  0  0  0  0  0  0  0999 V2000
   28.1180   54.7420   -5.8990 N   0  0  0  0  0  0  0  0  0  0  0  0
   28.7260   53.9650   -4.9890 C   0  0  0  0  0  0  0  0  0  0  0  0
   29.3200   54.4130   -3.8770 N   0  0  0  0  0  0  0  0  0  0  0  0
   28.8180   52.5610   -5.0890 C   0  0  0  0  0  0  0  0  0  0  0  0
   29.8150   53.2860   -3.2270 O   0  0  0  0  0  0  0  0  0  0  0  0
   29.5000   52.2040   -3.9720 C   0  0  0  0  0  0  0  0  0  0  0  0
   28.3560   51.5530   -6.0750 C   0  0  0  0  0  0  0  0  0  0  0  0
   29.8710   50.8470   -3.5880 C   0  0  0  0  0  0  0  0  0  0  0  0
   29.2050   50.2070   -6.1070 C   0  0  2  0  0  0  0  0  0  0  0  0
   30.2800   50.0950   -4.8930 C   0  0  2  0  0  0  0  0  0  0  0  0
   29.9580   50.0770   -7.4750 C   0  0  2  0  0  0  0  0  0  0  0  0
   28.1900   49.0220   -6.1090 C   0  0  0  0  0  0  0  0  0  0  0  0
   30.6270   48.6400   -4.5180 C   0  0  0  0  0  0  0  0  0  0  0  0
   29.9060   51.2670   -8.3070 N   0  0  0  0  0  0  0  0  0  0  0  0
   29.4240   49.0330   -8.3230 N   0  0  0  0  0  0  0  0  0  0  0  0
   28.7560   47.7230   -6.4940 N   0  0  0  0  0  0  0  0  0  0  0  0
   29.4180   47.7290   -7.7510 C   0  0  1  0  0  0  0  0  0  0  0  0
   28.5660   47.0070   -8.6330 N   0  0  0  0  0  0  0  0  0  0  0  0
  1  2  1  0
  2  3  2  0
  2  4  1  0
  3  5  1  0
  4  6  2  0
  5  6  1  0
  4  7  1  0
  6  8  1  0
  9  7  1  6
  8 10  1  0
  9 10  1  0
  9 11  1  0
  9 12  1  0
 10 13  1  1
 11 14  1  6
 11 15  1  0
 12 16  1  0
 15 17  1  0
 16 17  1  0
 17 18  1  6
M  END
