mac-x0159-mac-x0439
     RDKit          3D

 24 27  0  0  0  0  0  0  0  0999 V2000
   27.9490   51.8470   -6.0510 N   0  0  0  0  0  0  0  0  0  0  0  0
   28.8190   50.6890   -6.0240 C   0  0  2  0  0  0  0  0  0  0  0  0
   28.1360   49.3740   -6.4760 C   0  0  2  0  0  0  0  0  0  0  0  0
   29.3070   50.6270   -4.6710 N   0  0  0  0  0  0  0  0  0  0  0  0
   30.2140   49.5100   -4.4430 C   0  0  0  0  0  0  0  0  0  0  0  0
   29.0180   48.1900   -6.0640 C   0  0  2  0  0  0  0  0  0  0  0  0
   27.9990   49.1770   -7.9380 N   0  0  0  0  0  0  0  0  0  0  0  0
   29.6190   48.2060   -4.7270 N   0  0  0  0  0  0  0  0  0  0  0  0
   29.9540   48.0870   -7.1710 N   0  0  0  0  0  0  0  0  0  0  0  0
   29.1800   48.4250   -8.3560 C   0  0  0  0  0  0  0  0  0  0  0  0
   30.5480   47.1110   -4.3750 C   0  0  0  0  0  0  0  0  0  0  0  0
   29.9980   45.8120   -3.6530 C   0  0  2  0  0  0  0  0  0  0  0  0
   28.6420   45.2750   -4.1830 C   0  0  2  0  0  0  0  0  0  0  0  0
   29.8980   46.0380   -2.1470 N   0  0  0  0  0  0  0  0  0  0  0  0
   30.9970   44.6900   -4.0640 C   0  0  0  0  0  0  0  0  0  0  0  0
   30.6560   47.4970   -1.4870 Cl  0  0  0  0  0  0  0  0  0  0  0  0
   28.5000   45.8180   -1.7120 C   0  0  1  0  0  0  0  0  0  0  0  0
   27.7550   44.5760   -2.7930 S   0  0  0  0  0  0  0  0  0  0  0  0
   30.2550   43.6850   -4.9470 C   0  0  1  0  0  0  0  0  0  0  0  0
   28.9010   44.2190   -5.1710 N   0  0  0  0  0  0  0  0  0  0  0  0
   28.2590   45.4650   -0.2430 C   0  0  0  0  0  0  0  0  0  0  0  0
   30.9880   43.4590   -6.2800 C   0  0  0  0  0  0  0  0  0  0  0  0
   30.4230   42.5030   -7.0540 O   0  0  0  0  0  0  0  0  0  0  0  0
   31.9850   44.0440   -6.6740 O   0  0  0  0  0  0  0  0  0  0  0  0
  2  1  1  1
  2  3  1  0
  2  4  1  0
  4  5  1  0
  3  6  1  0
  3  7  1  6
  5  8  1  0
  6  8  1  0
  6  9  1  6
  7 10  1  0
  9 10  1  0
  8 11  1  0
 12 11  1  6
 12 13  1  0
 12 14  1  0
 12 15  1  0
 14 16  1  0
 14 17  1  0
 13 18  1  0
 17 18  1  0
 15 19  1  0
 13 20  1  6
 19 20  1  0
 17 21  1  1
 19 22  1  6
 22 23  1  0
 22 24  2  0
M  END
