mac-x0178-mac-x0284
     RDKit          3D

 22 23  0  0  0  0  0  0  0  0999 V2000
   28.3210   44.7740   -0.1840 N   0  0  0  0  0  0  0  0  0  0  0  0
   28.6550   46.4070   -0.4440 S   0  0  0  0  0  0  0  0  0  0  0  0
   29.4780   46.8700    0.6470 O   0  0  0  0  0  0  0  0  0  0  0  0
   27.3880   47.0110   -0.7790 O   0  0  0  0  0  0  0  0  0  0  0  0
   29.6540   46.3370   -1.9030 C   0  0  0  0  0  0  0  0  0  0  0  0
   29.0900   45.9760   -3.1290 C   0  0  0  0  0  0  0  0  0  0  0  0
   31.0070   46.6500   -1.7990 C   0  0  0  0  0  0  0  0  0  0  0  0
   29.9000   45.9350   -4.2700 C   0  0  0  0  0  0  0  0  0  0  0  0
   31.8070   46.6050   -2.9350 C   0  0  0  0  0  0  0  0  0  0  0  0
   31.2670   46.2520   -4.1800 C   0  0  0  0  0  0  0  0  0  0  0  0
   32.1550   46.2190   -5.4050 C   0  0  2  0  0  0  0  0  0  0  0  0
   31.4140   46.5030   -6.6300 N   0  0  0  0  0  0  0  0  0  0  0  0
   32.7680   44.9480   -5.4650 O   0  0  0  0  0  0  0  0  0  0  0  0
   30.6160   47.5380   -6.6500 C   0  0  0  0  0  0  0  0  0  0  0  0
   30.3460   48.5120   -5.5500 C   0  0  0  0  0  0  0  0  0  0  0  0
   29.1140   49.1730   -5.6430 C   0  0  0  0  0  0  0  0  0  0  0  0
   31.1950   48.8230   -4.4640 C   0  0  0  0  0  0  0  0  0  0  0  0
   32.4190   48.2630   -4.2570 O   0  0  0  0  0  0  0  0  0  0  0  0
   28.7260   50.1200   -4.6880 C   0  0  0  0  0  0  0  0  0  0  0  0
   30.8070   49.7620   -3.5120 C   0  0  0  0  0  0  0  0  0  0  0  0
   27.4060   50.8190   -4.8110 C   0  0  0  0  0  0  0  0  0  0  0  0
   29.5780   50.4080   -3.6230 C   0  0  0  0  0  0  0  0  0  0  0  0
  2  1  1  0
  2  3  2  0
  2  4  2  0
  2  5  1  0
  5  6  2  0
  5  7  1  0
  6  8  1  0
  7  9  2  0
  8 10  2  0
  9 10  1  0
 10 11  1  0
 11 12  1  0
 11 13  1  6
 12 14  2  3
 14 15  1  0
 15 16  2  0
 15 17  1  0
 17 18  1  0
 16 19  1  0
 17 20  2  0
 19 21  1  0
 19 22  2  0
 20 22  1  0
M  END
