mac-x0306-mac-x0346
     RDKit          3D

 15 16  0  0  0  0  0  0  0  0999 V2000
   32.3140   54.2710   -2.7120 O   0  0  0  0  0  0  0  0  0  0  0  0
   31.2060   54.0530   -3.5630 N   0  0  0  0  0  0  0  0  0  0  0  0
   30.2470   53.1910   -3.0880 C   0  0  0  0  0  0  0  0  0  0  0  0
   29.7970   53.2780   -1.9460 O   0  0  0  0  0  0  0  0  0  0  0  0
   29.7680   52.1310   -4.0000 C   0  0  0  0  0  0  0  0  0  0  0  0
   30.1040   50.8260   -3.6500 C   0  0  0  0  0  0  0  0  0  0  0  0
   29.0120   52.3270   -5.1710 C   0  0  0  0  0  0  0  0  0  0  0  0
   28.5770   53.6310   -5.6730 C   0  0  0  0  0  0  0  0  0  0  0  0
   29.7530   49.7280   -4.3650 N   0  0  0  0  0  0  0  0  0  0  0  0
   28.6460   51.1970   -5.9180 C   0  0  0  0  0  0  0  0  0  0  0  0
   28.7980   54.0770   -6.9610 N   0  0  0  0  0  0  0  0  0  0  0  0
   27.9220   54.5480   -4.9850 N   0  0  0  0  0  0  0  0  0  0  0  0
   29.0330   49.9390   -5.4830 C   0  0  0  0  0  0  0  0  0  0  0  0
   27.7240   55.5990   -5.8390 C   0  0  0  0  0  0  0  0  0  0  0  0
   28.2580   55.3290   -7.0730 C   0  0  0  0  0  0  0  0  0  0  0  0
  1  2  1  0
  2  3  1  0
  3  4  2  0
  3  5  1  0
  5  6  2  0
  5  7  1  0
  7  8  1  0
  6  9  1  0
  7 10  2  0
  8 11  1  0
  8 12  2  0
  9 13  2  0
 10 13  1  0
 12 14  1  0
 11 15  1  0
 14 15  2  0
M  END
