mac-x0344-mac-x0451
     RDKit          3D

 24 26  0  0  0  0  0  0  0  0999 V2000
   32.4370   43.7040   -4.8660 O   0  0  0  0  0  0  0  0  0  0  0  0
   32.2850   44.9800   -5.2060 C   0  0  0  0  0  0  0  0  0  0  0  0
   31.1520   45.3180   -5.6950 N   0  0  0  0  0  0  0  0  0  0  0  0
   33.5340   45.8250   -4.9320 C   0  0  0  0  0  0  0  0  0  0  0  0
   33.9550   46.5330   -5.8320 O   0  0  0  0  0  0  0  0  0  0  0  0
   34.0340   45.6540   -3.6550 N   0  0  0  0  0  0  0  0  0  0  0  0
   30.9710   46.7330   -6.0220 C   0  0  0  0  0  0  0  0  0  0  0  0
   30.1280   47.4650   -5.1280 O   0  0  0  0  0  0  0  0  0  0  0  0
   35.2180   46.2190   -3.1390 C   0  0  0  0  0  0  0  0  0  0  0  0
   36.2130   45.4870   -2.4880 C   0  0  0  0  0  0  0  0  0  0  0  0
   35.3890   47.6020   -3.2980 C   0  0  0  0  0  0  0  0  0  0  0  0
   29.9770   48.8130   -5.2620 C   0  0  0  0  0  0  0  0  0  0  0  0
   37.3600   46.1260   -2.0050 C   0  0  0  0  0  0  0  0  0  0  0  0
   36.5350   48.2390   -2.8150 C   0  0  0  0  0  0  0  0  0  0  0  0
   30.1630   49.7420   -4.2440 C   0  0  0  0  0  0  0  0  0  0  0  0
   29.6030   49.2250   -6.5440 C   0  0  0  0  0  0  0  0  0  0  0  0
   37.5230   47.5010   -2.1680 C   0  0  0  0  0  0  0  0  0  0  0  0
   29.4160   50.5960   -6.7820 C   0  0  0  0  0  0  0  0  0  0  0  0
   29.9740   51.1090   -4.4920 C   0  0  0  0  0  0  0  0  0  0  0  0
   29.5940   51.5440   -5.7750 C   0  0  0  0  0  0  0  0  0  0  0  0
   28.9600   51.4000   -8.2300 S   0  0  0  0  0  0  0  0  0  0  0  0
   29.0330   52.9070   -7.4180 C   0  0  0  0  0  0  0  0  0  0  0  0
   29.3710   52.8580   -6.1550 N   0  0  0  0  0  0  0  0  0  0  0  0
   28.7560   54.0610   -8.0540 N   0  0  0  0  0  0  0  0  0  0  0  0
  1  2  1  0
  2  3  2  3
  2  4  1  0
  4  5  2  0
  4  6  1  0
  3  7  1  0
  7  8  1  0
  6  9  1  0
  9 10  2  0
  9 11  1  0
  8 12  1  0
 10 13  1  0
 11 14  2  0
 12 15  2  0
 12 16  1  0
 13 17  2  0
 14 17  1  0
 16 18  2  0
 15 19  1  0
 18 20  1  0
 19 20  2  0
 18 21  1  0
 21 22  1  0
 20 23  1  0
 22 23  2  0
 22 24  1  0
M  END
