mac-x0451-mac-x0212
     RDKit          3D

 18 19  0  0  0  0  0  0  0  0999 V2000
   28.3110   53.3870   -9.4500 N   0  0  0  0  0  0  0  0  0  0  0  0
   28.6630   52.4860   -8.5150 C   0  0  0  0  0  0  0  0  0  0  0  0
   28.6180   52.7430   -7.2350 N   0  0  0  0  0  0  0  0  0  0  0  0
   29.2010   50.9160   -8.9450 S   0  0  0  0  0  0  0  0  0  0  0  0
   29.0360   51.6340   -6.5150 C   0  0  0  0  0  0  0  0  0  0  0  0
   29.4000   50.5260   -7.2790 C   0  0  0  0  0  0  0  0  0  0  0  0
   29.1200   51.5420   -5.1060 C   0  0  0  0  0  0  0  0  0  0  0  0
   29.8440   49.3300   -6.6880 C   0  0  0  0  0  0  0  0  0  0  0  0
   28.7460   52.6800   -4.3050 N   0  0  0  0  0  0  0  0  0  0  0  0
   29.5600   50.3570   -4.5070 C   0  0  0  0  0  0  0  0  0  0  0  0
   29.9190   49.2580   -5.2890 C   0  0  0  0  0  0  0  0  0  0  0  0
   30.3550   48.0780   -4.6820 N   0  0  0  0  0  0  0  0  0  0  0  0
   29.8980   53.9330   -4.1910 S   0  0  0  0  0  0  0  0  0  0  0  0
   31.0480   53.4550   -5.4630 C   0  0  0  0  0  0  0  0  0  0  0  0
   29.3030   55.2000   -4.5580 O   0  0  0  0  0  0  0  0  0  0  0  0
   30.5590   53.7480   -2.9170 O   0  0  0  0  0  0  0  0  0  0  0  0
   31.0520   48.1060   -3.5990 C   0  0  0  0  0  0  0  0  0  0  0  0
   31.5150   47.0300   -2.9400 O   0  0  0  0  0  0  0  0  0  0  0  0
  1  2  1  0
  2  3  2  0
  2  4  1  0
  3  5  1  0
  4  6  1  0
  5  6  2  0
  5  7  1  0
  6  8  1  0
  7  9  1  0
  7 10  2  0
  8 11  2  0
 10 11  1  0
 11 12  1  0
 13  9  1  0
 13 14  1  0
 13 15  2  0
 13 16  2  0
 12 17  2  3
 17 18  1  0
M  END
