mac-x0411-mac-x0590
     RDKit          3D

 28 31  0  0  0  0  0  0  0  0999 V2000
   32.5080   44.4980   -8.1680 O   0  0  0  0  0  0  0  0  0  0  0  0
   33.7190   44.6540   -7.5760 C   0  0  0  0  0  0  0  0  0  0  0  0
   34.5890   45.3560   -8.0690 O   0  0  0  0  0  0  0  0  0  0  0  0
   33.8500   43.8680   -6.2640 C   0  0  1  0  0  0  0  0  0  0  0  0
   34.2990   44.7800   -5.1370 C   0  0  0  0  0  0  0  0  0  0  0  0
   32.6190   43.2710   -5.8330 O   0  0  0  0  0  0  0  0  0  0  0  0
   33.7550   44.0630   -3.9220 C   0  0  2  0  0  0  0  0  0  0  0  0
   32.3990   43.6320   -4.4610 C   0  0  0  0  0  0  0  0  0  0  0  0
   33.6290   44.9440   -2.8040 O   0  0  0  0  0  0  0  0  0  0  0  0
   34.4300   46.0560   -2.9120 C   0  0  0  0  0  0  0  0  0  0  0  0
   33.8050   47.3080   -3.0800 C   0  0  0  0  0  0  0  0  0  0  0  0
   35.8340   45.9690   -2.8600 C   0  0  0  0  0  0  0  0  0  0  0  0
   36.6650   44.4660   -2.6540 Cl  0  0  0  0  0  0  0  0  0  0  0  0
   32.2960   47.4700   -3.1430 C   0  0  0  0  0  0  0  0  0  0  0  0
   34.6150   48.4530   -3.1930 C   0  0  0  0  0  0  0  0  0  0  0  0
   36.6150   47.1180   -2.9750 C   0  0  0  0  0  0  0  0  0  0  0  0
   31.6740   47.6630   -4.5470 C   0  0  0  0  0  0  0  0  0  0  0  0
   36.0050   48.3600   -3.1410 C   0  0  0  0  0  0  0  0  0  0  0  0
   30.5140   48.5930   -4.5730 N   0  0  0  0  0  0  0  0  0  0  0  0
   30.8810   49.9270   -4.0740 C   0  0  0  0  0  0  0  0  0  0  0  0
   30.0260   48.7490   -5.9420 C   0  0  2  0  0  0  0  0  0  0  0  0
   29.8120   50.9380   -4.2500 N   0  0  0  0  0  0  0  0  0  0  0  0
   28.7800   49.5960   -6.0060 C   0  0  1  0  0  0  0  0  0  0  0  0
   29.5180   47.5000   -6.4770 N   0  0  0  0  0  0  0  0  0  0  0  0
   29.2370   50.9950   -5.5780 C   0  0  1  0  0  0  0  0  0  0  0  0
   28.3390   49.3530   -7.3800 N   0  0  0  0  0  0  0  0  0  0  0  0
   28.6340   47.9330   -7.5630 C   0  0  0  0  0  0  0  0  0  0  0  0
   28.1660   51.9720   -5.5220 N   0  0  0  0  0  0  0  0  0  0  0  0
  1  2  1  0
  2  3  2  0
  4  2  1  6
  4  5  1  0
  4  6  1  0
  5  7  1  0
  6  8  1  0
  7  8  1  0
  7  9  1  1
  9 10  1  0
 10 11  1  0
 10 12  2  0
 12 13  1  0
 11 14  1  0
 11 15  2  0
 12 16  1  0
 14 17  1  0
 15 18  1  0
 16 18  2  0
 17 19  1  0
 19 20  1  0
 19 21  1  0
 20 22  1  0
 21 23  1  0
 21 24  1  1
 22 25  1  0
 23 25  1  0
 23 26  1  6
 24 27  1  0
 26 27  1  0
 25 28  1  1
M  END
