mac-x0182-mac-x0303
     RDKit          3D

 27 30  0  0  0  0  0  0  0  0999 V2000
   34.3340   43.4180   -2.8490 O   0  0  0  0  0  0  0  0  0  0  0  0
   34.4030   44.5870   -3.2000 C   0  0  0  0  0  0  0  0  0  0  0  0
   33.4350   45.2630   -3.9100 N   0  0  0  0  0  0  0  0  0  0  0  0
   35.5670   45.4550   -2.8990 C   0  0  0  0  0  0  0  0  0  0  0  0
   33.9570   46.8120   -4.3380 S   0  0  2  0  0  0  0  0  0  0  0  0
   35.4570   46.7170   -3.4670 C   0  0  0  0  0  0  0  0  0  0  0  0
   36.6840   45.1240   -2.1420 C   0  0  0  0  0  0  0  0  0  0  0  0
   32.9930   47.7630   -3.6050 N   0  0  0  0  0  0  0  0  0  0  0  0
   34.2450   46.7370   -5.7510 O   0  0  0  0  0  0  0  0  0  0  0  0
   36.4200   47.6970   -3.3240 C   0  0  0  0  0  0  0  0  0  0  0  0
   37.6780   46.0950   -1.9790 C   0  0  0  0  0  0  0  0  0  0  0  0
   31.5130   47.7270   -3.7950 C   0  0  0  0  0  0  0  0  0  0  0  0
   37.5510   47.3690   -2.5620 C   0  0  0  0  0  0  0  0  0  0  0  0
   30.6850   48.8120   -3.0340 C   0  0  0  0  0  0  0  0  0  0  0  0
   30.1480   49.9790   -3.8640 C   0  0  0  0  0  0  0  0  0  0  0  0
   30.3410   51.3150   -3.4270 C   0  0  0  0  0  0  0  0  0  0  0  0
   29.4730   49.7350   -5.0670 C   0  0  0  0  0  0  0  0  0  0  0  0
   29.8530   52.3400   -4.2530 C   0  0  0  0  0  0  0  0  0  0  0  0
   28.9910   50.7760   -5.8650 C   0  0  0  0  0  0  0  0  0  0  0  0
   29.8770   53.7170   -4.1550 N   0  0  0  0  0  0  0  0  0  0  0  0
   29.1930   52.0990   -5.4500 C   0  0  0  0  0  0  0  0  0  0  0  0
   29.2600   54.2270   -5.2710 C   0  0  0  0  0  0  0  0  0  0  0  0
   28.8300   53.2650   -6.0650 N   0  0  0  0  0  0  0  0  0  0  0  0
   29.0800   55.9560   -5.5990 S   0  0  0  0  0  0  0  0  0  0  0  0
   30.3510   56.3450   -6.6370 N   0  0  0  0  0  0  0  0  0  0  0  0
   27.8410   56.0710   -6.3280 O   0  0  0  0  0  0  0  0  0  0  0  0
   29.3210   56.6270   -4.3460 O   0  0  0  0  0  0  0  0  0  0  0  0
  1  2  2  0
  2  3  1  0
  2  4  1  0
  5  3  1  1
  4  6  2  0
  5  6  1  0
  4  7  1  0
  5  8  2  0
  5  9  2  0
  6 10  1  0
  7 11  2  0
  8 12  1  0
 10 13  2  0
 11 13  1  0
 12 14  1  0
 14 15  1  0
 15 16  2  0
 15 17  1  0
 16 18  1  0
 17 19  2  0
 18 20  1  0
 18 21  2  0
 19 21  1  0
 20 22  1  0
 21 23  1  0
 22 23  2  0
 22 24  1  0
 24 25  1  0
 24 26  2  0
 24 27  2  0
M  END
