mac-x0123-mac-x0436
     RDKit          3D

 30 34  0  0  0  0  0  0  0  0999 V2000
   28.7240   51.2980   -7.0640 N   0  0  0  0  0  0  0  0  0  0  0  0
   29.1750   52.0460   -5.9900 C   0  0  0  0  0  0  0  0  0  0  0  0
   28.9540   53.3730   -5.8520 C   0  0  0  0  0  0  0  0  0  0  0  0
   29.9520   51.4110   -4.9590 N   0  0  0  0  0  0  0  0  0  0  0  0
   30.3930   52.1660   -3.8640 C   0  0  0  0  0  0  0  0  0  0  0  0
   29.4820   54.0410   -4.6360 C   0  0  0  0  0  0  0  0  0  0  0  0
   28.2650   54.4210   -6.6560 C   0  0  0  0  0  0  0  0  0  0  0  0
   30.4170   50.1030   -4.8160 N   0  0  0  0  0  0  0  0  0  0  0  0
   30.1370   53.4900   -3.6880 N   0  0  0  0  0  0  0  0  0  0  0  0
   29.1370   55.4990   -4.6540 C   0  0  0  0  0  0  0  0  0  0  0  0
   28.9230   55.7120   -6.1500 C   0  0  0  0  0  0  0  0  0  0  0  0
   31.0900   51.4210   -3.0780 N   0  0  0  0  0  0  0  0  0  0  0  0
   31.1240   50.1950   -3.6560 C   0  0  0  0  0  0  0  0  0  0  0  0
   31.9780   49.2260   -2.8510 C   0  0  0  0  0  0  0  0  0  0  0  0
   32.3230   47.8290   -3.1930 N   0  0  0  0  0  0  0  0  0  0  0  0
   33.5650   47.3950   -3.2510 C   0  0  0  0  0  0  0  0  0  0  0  0
   33.6530   45.8750   -3.4580 C   0  0  0  0  0  0  0  0  0  0  0  0
   34.7930   48.0330   -3.1110 N   0  0  0  0  0  0  0  0  0  0  0  0
   32.4040   45.1180   -3.8220 C   0  0  0  0  0  0  0  0  0  0  0  0
   35.9710   47.2760   -2.8500 C   0  0  0  0  0  0  0  0  0  0  0  0
   34.7530   45.1860   -3.3020 N   0  0  0  0  0  0  0  0  0  0  0  0
   32.5510   44.4430   -5.1710 C   0  0  0  0  0  0  0  0  0  0  0  0
   35.9330   45.8730   -2.9430 C   0  0  0  0  0  0  0  0  0  0  0  0
   37.1820   47.9040   -2.4980 C   0  0  0  0  0  0  0  0  0  0  0  0
   32.5710   45.3160   -6.4080 C   0  0  0  0  0  0  0  0  0  0  0  0
   37.0860   45.1210   -2.6790 C   0  0  0  0  0  0  0  0  0  0  0  0
   38.3310   47.1410   -2.2390 C   0  0  0  0  0  0  0  0  0  0  0  0
   33.7450   45.8210   -6.8160 O   0  0  0  0  0  0  0  0  0  0  0  0
   31.5430   45.5610   -7.0320 O   0  0  0  0  0  0  0  0  0  0  0  0
   38.2840   45.7550   -2.3270 C   0  0  0  0  0  0  0  0  0  0  0  0
  1  2  1  0
  2  3  2  0
  2  4  1  0
  4  5  1  0
  3  6  1  0
  3  7  1  0
  4  8  1  0
  5  9  1  0
  6  9  2  0
  6 10  1  0
  7 11  1  0
 10 11  1  0
  5 12  2  0
  8 13  2  0
 12 13  1  0
 13 14  1  0
 14 15  1  0
 15 16  2  3
 16 17  1  0
 16 18  1  0
 17 19  1  0
 18 20  1  0
 17 21  2  0
 19 22  1  0
 20 23  2  0
 21 23  1  0
 20 24  1  0
 22 25  1  0
 23 26  1  0
 24 27  2  0
 25 28  1  0
 25 29  2  0
 26 30  2  0
 27 30  1  0
M  END
