mac-x0301-mac-x1493
     RDKit          3D

 23 26  0  0  0  0  0  0  0  0999 V2000
   29.9400   46.0170   -4.5950 O   0  0  0  0  0  0  0  0  0  0  0  0
   30.0300   47.2900   -3.9670 C   0  0  1  0  0  0  0  0  0  0  0  0
   31.4200   47.6890   -3.8380 N   0  0  0  0  0  0  0  0  0  0  0  0
   29.2710   48.2840   -4.7740 C   0  0  0  0  0  0  0  0  0  0  0  0
   31.7730   48.9510   -3.9350 C   0  0  0  0  0  0  0  0  0  0  0  0
   29.1740   48.2110   -6.1540 C   0  0  0  0  0  0  0  0  0  0  0  0
   28.6220   49.3500   -4.1360 C   0  0  0  0  0  0  0  0  0  0  0  0
   28.4700   49.1510   -6.8710 C   0  0  0  0  0  0  0  0  0  0  0  0
   27.9060   50.3020   -4.8700 C   0  0  0  0  0  0  0  0  0  0  0  0
   29.7230   47.2620   -6.9670 O   0  0  0  0  0  0  0  0  0  0  0  0
   30.9730   50.2010   -4.1620 C   0  0  0  0  0  0  0  0  0  0  0  0
   27.8270   50.2060   -6.2590 C   0  0  0  0  0  0  0  0  0  0  0  0
   28.4910   48.9090   -8.2100 O   0  0  0  0  0  0  0  0  0  0  0  0
   29.1190   47.6140   -8.2290 C   0  0  0  0  0  0  0  0  0  0  0  0
   30.4800   50.6390   -5.4060 C   0  0  0  0  0  0  0  0  0  0  0  0
   30.7190   51.0110   -3.0650 C   0  0  0  0  0  0  0  0  0  0  0  0
   29.7750   51.8650   -5.4900 C   0  0  0  0  0  0  0  0  0  0  0  0
   30.0440   52.1880   -3.1140 N   0  0  0  0  0  0  0  0  0  0  0  0
   29.5850   52.6090   -4.3070 C   0  0  0  0  0  0  0  0  0  0  0  0
   29.2650   52.3620   -6.7120 C   0  0  0  0  0  0  0  0  0  0  0  0
   28.9040   53.8190   -4.3800 C   0  0  0  0  0  0  0  0  0  0  0  0
   28.5860   53.5780   -6.7570 C   0  0  0  0  0  0  0  0  0  0  0  0
   28.4050   54.3110   -5.5900 C   0  0  0  0  0  0  0  0  0  0  0  0
  2  1  1  6
  2  3  1  0
  2  4  1  0
  3  5  2  3
  4  6  1  0
  4  7  2  0
  6  8  2  0
  7  9  1  0
  6 10  1  0
  5 11  1  0
  8 12  1  0
  9 12  2  0
  8 13  1  0
 10 14  1  0
 13 14  1  0
 11 15  2  0
 11 16  1  0
 15 17  1  0
 16 18  2  0
 17 19  2  0
 18 19  1  0
 17 20  1  0
 19 21  1  0
 20 22  2  0
 21 23  2  0
 22 23  1  0
M  END
