mac-x1493-mac-x0161
     RDKit          3D

 25 28  0  0  0  0  0  0  0  0999 V2000
   30.7670   48.9190   -5.7350 O   0  0  0  0  0  0  0  0  0  0  0  0
   30.3450   49.0180   -4.4570 C   0  0  0  0  0  0  0  0  0  0  0  0
   30.8600   48.4090   -3.4470 N   0  0  0  0  0  0  0  0  0  0  0  0
   29.1810   49.9600   -4.3010 C   0  0  2  0  0  0  0  0  0  0  0  0
   28.5460   50.4810   -5.6710 C   0  0  1  0  0  0  0  0  0  0  0  0
   29.6360   51.0130   -3.2850 C   0  0  0  0  0  0  0  0  0  0  0  0
   31.9300   47.6230   -3.6540 C   0  0  0  0  0  0  0  0  0  0  0  0
   28.2700   52.0820   -5.7640 C   0  0  1  0  0  0  0  0  0  0  0  0
   29.9500   52.3070   -3.8790 N   0  0  0  0  0  0  0  0  0  0  0  0
   29.3430   50.0730   -6.8960 N   0  0  0  0  0  0  0  0  0  0  0  0
   27.2670   49.6430   -5.8790 C   0  0  0  0  0  0  0  0  0  0  0  0
   33.1330   47.6680   -2.9960 C   0  0  0  0  0  0  0  0  0  0  0  0
   32.0040   46.6190   -4.5900 O   0  0  0  0  0  0  0  0  0  0  0  0
   26.7940   52.2760   -5.9530 N   0  0  0  0  0  0  0  0  0  0  0  0
   28.7220   52.8610   -4.4500 C   0  0  1  0  0  0  0  0  0  0  0  0
   28.8020   52.7700   -7.0040 C   0  0  0  0  0  0  0  0  0  0  0  0
   27.7890   48.4090   -6.4670 N   0  0  0  0  0  0  0  0  0  0  0  0
   28.6990   48.9000   -7.4770 C   0  0  0  0  0  0  0  0  0  0  0  0
   33.2490   46.0180   -4.5450 N   0  0  0  0  0  0  0  0  0  0  0  0
   33.9040   46.6680   -3.5820 C   0  0  0  0  0  0  0  0  0  0  0  0
   35.1700   46.3750   -3.2290 O   0  0  0  0  0  0  0  0  0  0  0  0
   28.8340   54.3530   -4.6240 C   0  0  0  0  0  0  0  0  0  0  0  0
   29.1460   54.0700   -7.0160 C   0  0  0  0  0  0  0  0  0  0  0  0
   35.7580   47.3370   -2.3580 C   0  0  0  0  0  0  0  0  0  0  0  0
   29.0320   54.8920   -5.8380 C   0  0  0  0  0  0  0  0  0  0  0  0
  1  2  1  0
  2  3  2  3
  4  2  1  6
  4  5  1  0
  4  6  1  0
  3  7  1  0
  5  8  1  0
  6  9  1  0
  5 10  1  0
  5 11  1  6
  7 12  2  0
  7 13  1  0
  8 14  1  6
  8 15  1  0
  9 15  1  0
  8 16  1  0
 11 17  1  0
 10 18  1  0
 17 18  1  0
 13 19  1  0
 12 20  1  0
 19 20  2  0
 20 21  1  0
 15 22  1  6
 16 23  2  0
 21 24  1  0
 22 25  2  0
 23 25  1  0
M  END
