mac-x0453-mac-x0305
     RDKit          3D

 12 12  0  0  0  0  0  0  0  0999 V2000
   29.4250   54.7020   -6.8530 N   0  0  0  0  0  0  0  0  0  0  0  0
   29.9080   53.4660   -6.2340 C   0  0  0  0  0  0  0  0  0  0  0  0
   28.8200   52.4090   -5.9710 C   0  0  0  0  0  0  0  0  0  0  0  0
   29.3370   51.0620   -5.5620 C   0  0  0  0  0  0  0  0  0  0  0  0
   29.4690   49.8820   -6.2980 C   0  0  0  0  0  0  0  0  0  0  0  0
   29.7750   50.8690   -4.2710 N   0  0  0  0  0  0  0  0  0  0  0  0
   29.1850   49.5620   -7.5680 O   0  0  0  0  0  0  0  0  0  0  0  0
   30.0120   48.9430   -5.4310 N   0  0  0  0  0  0  0  0  0  0  0  0
   30.1680   49.6110   -4.2210 C   0  0  0  0  0  0  0  0  0  0  0  0
   30.3360   47.5950   -5.7290 C   0  0  0  0  0  0  0  0  0  0  0  0
   30.6830   47.4180   -7.0280 O   0  0  0  0  0  0  0  0  0  0  0  0
   30.3190   46.6680   -4.9360 O   0  0  0  0  0  0  0  0  0  0  0  0
  1  2  1  0
  2  3  1  0
  3  4  1  0
  4  5  2  0
  4  6  1  0
  5  7  1  0
  5  8  1  0
  6  9  2  0
  8  9  1  0
  8 10  1  0
 10 11  1  0
 10 12  2  0
M  END
