mac-x0385-mac-x0510
     RDKit          3D

 13 14  0  0  0  0  0  0  0  0999 V2000
   29.1960   51.1740   -2.3900 C   0  0  0  0  0  0  0  0  0  0  0  0
   29.4120   50.5290   -3.7670 C   0  0  1  0  0  0  0  0  0  0  0  0
   29.6110   49.0000   -3.6450 C   0  0  0  0  0  0  0  0  0  0  0  0
   28.3220   50.9550   -4.7740 C   0  0  1  0  0  0  0  0  0  0  0  0
   28.3140   52.3920   -4.9940 N   0  0  0  0  0  0  0  0  0  0  0  0
   28.3660   50.3440   -6.1050 N   0  0  0  0  0  0  0  0  0  0  0  0
   30.3050   48.3860   -4.7800 N   0  0  0  0  0  0  0  0  0  0  0  0
   29.5040   48.1800   -6.0170 C   0  0  2  0  0  0  0  0  0  0  0  0
   28.2340   48.8980   -6.1020 N   0  0  0  0  0  0  0  0  0  0  0  0
   29.4120   46.6640   -6.2770 C   0  0  0  0  0  0  0  0  0  0  0  0
   30.0630   48.8600   -7.2970 C   0  0  0  0  0  0  0  0  0  0  0  0
   27.7990   48.4570   -7.4230 C   0  0  0  0  0  0  0  0  0  0  0  0
   28.9500   48.7660   -8.2770 N   0  0  0  0  0  0  0  0  0  0  0  0
  2  1  1  1
  2  3  1  0
  2  4  1  0
  4  5  1  6
  4  6  1  0
  3  7  1  0
  8  7  1  0
  6  9  1  0
  8  9  1  0
  8 10  1  6
  8 11  1  0
  9 12  1  0
 11 13  1  0
 12 13  1  0
M  END
