mac-x0142-mac-x0223
     RDKit          3D

 24 27  0  0  0  0  0  0  0  0999 V2000
   27.9010   44.1280   -2.7380 C   0  0  0  0  0  0  0  0  0  0  0  0
   28.3360   44.9040   -3.8560 O   0  0  0  0  0  0  0  0  0  0  0  0
   29.5220   45.6620   -3.5540 C   0  0  1  0  0  0  0  0  0  0  0  0
   30.7970   45.2090   -4.2860 C   0  0  0  0  0  0  0  0  0  0  0  0
   29.4220   47.1300   -3.8200 N   0  0  0  0  0  0  0  0  0  0  0  0
   31.2880   43.7700   -4.1310 C   0  0  0  0  0  0  0  0  0  0  0  0
   30.7860   44.2300   -5.4600 C   0  0  0  0  0  0  0  0  0  0  0  0
   31.8390   46.3240   -4.2190 C   0  0  2  0  0  0  0  0  0  0  0  0
   30.3370   47.7800   -2.8840 C   0  0  1  0  0  0  0  0  0  0  0  0
   29.1250   47.7490   -5.0790 C   0  0  0  0  0  0  0  0  0  0  0  0
   33.2500   45.9050   -4.5820 C   0  0  0  0  0  0  0  0  0  0  0  0
   29.7700   47.6380   -1.5880 O   0  0  0  0  0  0  0  0  0  0  0  0
   31.7230   47.1250   -2.9110 C   0  0  0  0  0  0  0  0  0  0  0  0
   28.8960   47.0150   -6.2390 N   0  0  0  0  0  0  0  0  0  0  0  0
   29.0380   49.0880   -5.2860 C   0  0  0  0  0  0  0  0  0  0  0  0
   33.5320   46.1550   -6.0410 C   0  0  0  0  0  0  0  0  0  0  0  0
   28.6160   47.5610   -7.4590 C   0  0  0  0  0  0  0  0  0  0  0  0
   28.7210   49.6300   -6.6430 C   0  0  0  0  0  0  0  0  0  0  0  0
   29.1690   50.2900   -4.5120 C   0  0  0  0  0  0  0  0  0  0  0  0
   34.5260   46.6920   -6.4830 O   0  0  0  0  0  0  0  0  0  0  0  0
   32.5300   45.7230   -6.8430 O   0  0  0  0  0  0  0  0  0  0  0  0
   28.5150   48.8230   -7.7220 N   0  0  0  0  0  0  0  0  0  0  0  0
   28.6630   50.9350   -6.6650 N   0  0  0  0  0  0  0  0  0  0  0  0
   28.9400   51.3020   -5.3620 C   0  0  0  0  0  0  0  0  0  0  0  0
  1  2  1  0
  3  2  1  6
  3  4  1  0
  3  5  1  0
  4  6  1  0
  4  7  1  0
  6  7  1  0
  4  8  1  0
  5  9  1  0
  5 10  1  0
  8 11  1  1
  9 12  1  1
  8 13  1  0
  9 13  1  0
 10 14  1  0
 10 15  2  0
 11 16  1  0
 14 17  1  0
 15 18  1  0
 15 19  1  0
 16 20  2  0
 16 21  1  0
 17 22  2  0
 18 22  1  0
 18 23  2  0
 19 24  2  0
 23 24  1  0
M  END
