mac-x0231-mac-x0206
     RDKit          3D

 27 29  0  0  0  0  0  0  0  0999 V2000
   34.2880   45.4170   -6.5630 O   0  0  0  0  0  0  0  0  0  0  0  0
   33.0330   44.9920   -6.3160 C   0  0  0  0  0  0  0  0  0  0  0  0
   32.1180   45.3360   -7.0500 O   0  0  0  0  0  0  0  0  0  0  0  0
   32.9520   44.1070   -5.1030 C   0  0  0  0  0  0  0  0  0  0  0  0
   31.6910   44.3480   -4.3040 C   0  0  0  0  0  0  0  0  0  0  0  0
   31.5260   45.6410   -3.5990 C   0  0  0  0  0  0  0  0  0  0  0  0
   30.7840   43.4140   -4.2990 N   0  0  0  0  0  0  0  0  0  0  0  0
   30.3140   45.8620   -2.9620 C   0  0  0  0  0  0  0  0  0  0  0  0
   29.6320   43.6390   -3.6080 N   0  0  0  0  0  0  0  0  0  0  0  0
   32.5220   46.6260   -3.5670 C   0  0  0  0  0  0  0  0  0  0  0  0
   29.2790   44.8150   -2.9890 C   0  0  0  0  0  0  0  0  0  0  0  0
   30.0740   47.0690   -2.3110 C   0  0  0  0  0  0  0  0  0  0  0  0
   32.2820   47.8370   -2.9130 C   0  0  0  0  0  0  0  0  0  0  0  0
   28.1760   44.9860   -2.4850 O   0  0  0  0  0  0  0  0  0  0  0  0
   31.0530   48.0660   -2.2930 C   0  0  0  0  0  0  0  0  0  0  0  0
   30.7380   49.3640   -1.6200 C   0  0  0  0  0  0  0  0  0  0  0  0
   29.3630   49.8310   -2.1170 C   0  0  0  0  0  0  0  0  0  0  0  0
   29.3790   51.0030   -3.0080 N   0  0  0  0  0  0  0  0  0  0  0  0
   29.3020   50.9890   -4.3070 C   0  0  0  0  0  0  0  0  0  0  0  0
   29.2130   49.9020   -5.1550 N   0  0  0  0  0  0  0  0  0  0  0  0
   29.2790   52.3580   -4.9210 C   0  0  0  0  0  0  0  0  0  0  0  0
   29.8050   53.4430   -4.2290 C   0  0  0  0  0  0  0  0  0  0  0  0
   28.7170   52.5570   -6.1910 C   0  0  0  0  0  0  0  0  0  0  0  0
   30.3600   53.2860   -2.9950 O   0  0  0  0  0  0  0  0  0  0  0  0
   29.7780   54.7250   -4.7810 C   0  0  0  0  0  0  0  0  0  0  0  0
   28.6880   53.8410   -6.7480 C   0  0  0  0  0  0  0  0  0  0  0  0
   29.2170   54.9220   -6.0420 C   0  0  0  0  0  0  0  0  0  0  0  0
  1  2  1  0
  2  3  2  0
  2  4  1  0
  4  5  1  0
  5  6  1  0
  5  7  2  0
  6  8  2  0
  7  9  1  0
  6 10  1  0
  8 11  1  0
  9 11  1  0
  8 12  1  0
 10 13  2  0
 11 14  2  0
 12 15  2  0
 13 15  1  0
 15 16  1  0
 16 17  1  0
 17 18  1  0
 18 19  2  3
 19 20  1  0
 19 21  1  0
 21 22  2  0
 21 23  1  0
 22 24  1  0
 22 25  1  0
 23 26  2  0
 25 27  2  0
 26 27  1  0
M  END
