mac-x0142-mac-x0116
     RDKit          3D

 24 28  0  0  0  0  0  0  0  0999 V2000
   28.9930   53.3280   -6.9370 C   0  0  0  0  0  0  0  0  0  0  0  0
   28.8130   51.9480   -7.4060 N   0  0  0  0  0  0  0  0  0  0  0  0
   29.0670   50.9850   -6.3750 N   0  0  0  0  0  0  0  0  0  0  0  0
   30.3900   53.8170   -7.1140 C   0  0  0  0  0  0  0  0  0  0  0  0
   31.1460   53.9490   -5.9830 O   0  0  0  0  0  0  0  0  0  0  0  0
   31.1300   54.1870   -8.2180 C   0  0  0  0  0  0  0  0  0  0  0  0
   29.1830   49.6190   -6.5450 C   0  0  0  0  0  0  0  0  0  0  0  0
   29.2330   51.3030   -5.0520 C   0  0  0  0  0  0  0  0  0  0  0  0
   32.4060   54.5650   -7.7370 C   0  0  0  0  0  0  0  0  0  0  0  0
   32.3650   54.4020   -6.3720 C   0  0  0  0  0  0  0  0  0  0  0  0
   29.0760   48.9540   -7.7130 N   0  0  0  0  0  0  0  0  0  0  0  0
   29.4290   49.0560   -5.2950 C   0  0  0  0  0  0  0  0  0  0  0  0
   29.4580   50.1340   -4.3600 C   0  0  0  0  0  0  0  0  0  0  0  0
   29.2380   47.6370   -7.5440 C   0  0  0  0  0  0  0  0  0  0  0  0
   29.5860   47.6510   -5.2320 C   0  0  0  0  0  0  0  0  0  0  0  0
   29.8370   46.9670   -4.0290 N   0  0  0  0  0  0  0  0  0  0  0  0
   29.4800   46.9660   -6.4020 N   0  0  0  0  0  0  0  0  0  0  0  0
   30.8210   47.6180   -3.1590 C   0  0  0  0  0  0  0  0  0  0  0  0
   30.0640   45.5210   -4.1960 C   0  0  0  0  0  0  0  0  0  0  0  0
   31.4740   45.2610   -4.7300 C   0  0  0  0  0  0  0  0  0  0  0  0
   32.2230   47.4270   -3.7450 C   0  0  0  0  0  0  0  0  0  0  0  0
   31.7690   43.8880   -5.3020 C   0  0  0  0  0  0  0  0  0  0  0  0
   31.6670   45.0670   -6.2230 C   0  0  0  0  0  0  0  0  0  0  0  0
   32.5710   45.9560   -3.9600 C   0  0  0  0  0  0  0  0  0  0  0  0
  1  2  1  0
  2  3  1  0
  1  4  1  0
  4  5  1  0
  4  6  2  0
  3  7  1  0
  3  8  1  0
  6  9  1  0
  5 10  1  0
  9 10  2  0
  7 11  2  0
  7 12  1  0
  8 13  2  0
 12 13  1  0
 11 14  1  0
 12 15  2  0
 15 16  1  0
 14 17  2  0
 15 17  1  0
 16 18  1  0
 16 19  1  0
 20 19  1  0
 18 21  1  0
 20 22  1  0
 20 23  1  0
 22 23  1  0
 20 24  1  0
 21 24  1  0
M  END
