mac-x0179-mac-x0587
     RDKit          3D

 26 28  0  0  0  0  0  0  0  0999 V2000
   31.8270   45.7990   -5.9680 O   0  0  0  0  0  0  0  0  0  0  0  0
   32.8090   46.2420   -5.0360 C   0  0  2  0  0  0  0  0  0  0  0  0
   34.2370   45.8780   -5.3320 N   0  0  0  0  0  0  0  0  0  0  0  0
   32.3940   45.8400   -3.5850 C   0  0  2  0  0  0  0  0  0  0  0  0
   30.9570   46.4100   -3.2100 C   0  0  2  0  0  0  0  0  0  0  0  0
   34.4230   45.7000   -6.5460 O   0  0  0  0  0  0  0  0  0  0  0  0
   33.5530   46.0430   -2.6210 N   0  0  0  0  0  0  0  0  0  0  0  0
   29.7900   45.5690   -3.7440 C   0  0  0  0  0  0  0  0  0  0  0  0
   30.6730   47.9410   -3.3080 C   0  0  0  0  0  0  0  0  0  0  0  0
   34.3240   44.9700   -2.1600 C   0  0  0  0  0  0  0  0  0  0  0  0
   34.3130   47.1860   -2.5320 C   0  0  0  0  0  0  0  0  0  0  0  0
   34.0520   43.7820   -2.1440 O   0  0  0  0  0  0  0  0  0  0  0  0
   34.0550   48.3110   -2.8960 O   0  0  0  0  0  0  0  0  0  0  0  0
   30.8560   48.5720   -2.2580 O   0  0  0  0  0  0  0  0  0  0  0  0
   35.6010   45.4990   -1.6600 C   0  0  0  0  0  0  0  0  0  0  0  0
   35.5900   46.8550   -1.8890 C   0  0  0  0  0  0  0  0  0  0  0  0
   30.2020   48.6790   -4.4160 N   0  0  0  0  0  0  0  0  0  0  0  0
   36.6840   44.8700   -1.0580 C   0  0  0  0  0  0  0  0  0  0  0  0
   36.6570   47.6680   -1.5340 C   0  0  0  0  0  0  0  0  0  0  0  0
   29.8500   50.0740   -4.1530 C   0  0  0  0  0  0  0  0  0  0  0  0
   29.5540   48.3180   -5.6280 C   0  0  0  0  0  0  0  0  0  0  0  0
   29.3560   47.2170   -6.0950 O   0  0  0  0  0  0  0  0  0  0  0  0
   37.7760   45.6720   -0.6880 C   0  0  0  0  0  0  0  0  0  0  0  0
   37.7620   47.0610   -0.9260 C   0  0  0  0  0  0  0  0  0  0  0  0
   29.3140   50.6360   -5.4560 C   0  0  0  0  0  0  0  0  0  0  0  0
   29.1350   49.4790   -6.2740 N   0  0  0  0  0  0  0  0  0  0  0  0
  2  1  1  6
  2  3  1  0
  2  4  1  0
  4  5  1  0
  3  6  2  0
  4  7  1  1
  5  8  1  6
  5  9  1  0
  7 10  1  0
  7 11  1  0
 10 12  2  0
 11 13  2  0
  9 14  2  0
 10 15  1  0
 11 16  1  0
 15 16  2  0
  9 17  1  0
 15 18  1  0
 16 19  1  0
 17 20  1  0
 17 21  1  0
 21 22  2  0
 18 23  2  0
 19 24  2  0
 23 24  1  0
 20 25  1  0
 21 26  1  0
 25 26  1  0
M  END
