mac-x0116-mac-x0302
     RDKit          3D

 30 33  0  0  0  0  0  0  0  0999 V2000
   29.7310   52.9760   -8.8620 C   0  0  0  0  0  0  0  0  0  0  0  0
   29.8770   51.5330   -8.8860 N   0  0  0  0  0  0  0  0  0  0  0  0
   29.6090   50.6840   -7.8280 C   0  0  0  0  0  0  0  0  0  0  0  0
   30.8370   53.7570   -8.2390 C   0  0  0  0  0  0  0  0  0  0  0  0
   31.9900   53.0730   -7.9830 O   0  0  0  0  0  0  0  0  0  0  0  0
   30.9760   55.0690   -7.8400 C   0  0  0  0  0  0  0  0  0  0  0  0
   32.2810   55.1910   -7.3160 C   0  0  0  0  0  0  0  0  0  0  0  0
   32.8580   53.9480   -7.4240 C   0  0  0  0  0  0  0  0  0  0  0  0
   29.4080   51.2190   -6.5690 N   0  0  0  0  0  0  0  0  0  0  0  0
   29.5370   49.3550   -8.0480 C   0  0  0  0  0  0  0  0  0  0  0  0
   29.1770   50.4460   -5.5400 C   0  0  0  0  0  0  0  0  0  0  0  0
   29.2580   48.4770   -6.9070 C   0  0  0  0  0  0  0  0  0  0  0  0
   29.6690   48.5820   -9.1710 N   0  0  0  0  0  0  0  0  0  0  0  0
   29.1310   49.0310   -5.6430 N   0  0  0  0  0  0  0  0  0  0  0  0
   29.1850   47.2520   -7.3580 N   0  0  0  0  0  0  0  0  0  0  0  0
   29.4440   47.3840   -8.7210 C   0  0  0  0  0  0  0  0  0  0  0  0
   28.9590   51.2170   -4.2780 C   0  0  0  0  0  0  0  0  0  0  0  0
   29.9860   51.9970   -3.7390 C   0  0  0  0  0  0  0  0  0  0  0  0
   27.7120   51.1640   -3.6460 C   0  0  0  0  0  0  0  0  0  0  0  0
   29.5840   48.2290   -4.5210 N   0  0  0  0  0  0  0  0  0  0  0  0
   29.7600   52.7100   -2.5710 C   0  0  0  0  0  0  0  0  0  0  0  0
   27.4990   51.8870   -2.4740 C   0  0  0  0  0  0  0  0  0  0  0  0
   31.0410   47.9660   -4.6110 C   0  0  0  0  0  0  0  0  0  0  0  0
   29.0980   48.7320   -3.2430 C   0  0  0  0  0  0  0  0  0  0  0  0
   30.7890   53.4590   -2.0800 O   0  0  0  0  0  0  0  0  0  0  0  0
   28.5240   52.6640   -1.9340 C   0  0  0  0  0  0  0  0  0  0  0  0
   31.4570   46.5400   -4.2440 C   0  0  0  0  0  0  0  0  0  0  0  0
   29.1740   47.7520   -2.2120 O   0  0  0  0  0  0  0  0  0  0  0  0
   30.4360   45.6810   -4.0040 O   0  0  0  0  0  0  0  0  0  0  0  0
   32.6230   46.1800   -4.1690 O   0  0  0  0  0  0  0  0  0  0  0  0
  1  2  1  0
  2  3  1  0
  1  4  1  0
  4  5  1  0
  4  6  2  0
  6  7  1  0
  5  8  1  0
  7  8  2  0
  3  9  1  0
  3 10  2  0
  9 11  2  0
 10 12  1  0
 10 13  1  0
 11 14  1  0
 12 14  1  0
 12 15  2  0
 13 16  2  0
 15 16  1  0
 11 17  1  0
 17 18  2  0
 17 19  1  0
 14 20  1  0
 18 21  1  0
 19 22  2  0
 20 23  1  0
 20 24  1  0
 21 25  1  0
 21 26  2  0
 22 26  1  0
 23 27  1  0
 24 28  1  0
 27 29  1  0
 27 30  2  0
M  END
