mac-x0451-mac-x0182
     RDKit          3D

 25 28  0  0  0  0  0  0  0  0999 V2000
   28.8450   54.1000   -8.1060 N   0  0  0  0  0  0  0  0  0  0  0  0
   29.0460   52.9460   -7.4430 C   0  0  0  0  0  0  0  0  0  0  0  0
   29.2930   52.8990   -6.1600 N   0  0  0  0  0  0  0  0  0  0  0  0
   28.9900   51.4360   -8.2510 S   0  0  0  0  0  0  0  0  0  0  0  0
   29.4520   51.5850   -5.7580 C   0  0  0  0  0  0  0  0  0  0  0  0
   29.3220   50.6300   -6.7670 C   0  0  0  0  0  0  0  0  0  0  0  0
   29.7270   51.1460   -4.4490 C   0  0  0  0  0  0  0  0  0  0  0  0
   29.4580   49.2570   -6.5090 C   0  0  0  0  0  0  0  0  0  0  0  0
   29.8640   49.7770   -4.1810 C   0  0  0  0  0  0  0  0  0  0  0  0
   29.7300   48.8390   -5.2010 C   0  0  0  0  0  0  0  0  0  0  0  0
   29.8420   47.4830   -5.0680 O   0  0  0  0  0  0  0  0  0  0  0  0
   31.1430   46.8960   -5.1710 C   0  0  0  0  0  0  0  0  0  0  0  0
   32.2440   47.9520   -4.9950 C   0  0  0  0  0  0  0  0  0  0  0  0
   33.2930   47.5030   -4.0630 N   0  0  0  0  0  0  0  0  0  0  0  0
   34.3530   46.5480   -4.5960 S   0  0  2  0  0  0  0  0  0  0  0  0
   34.7970   46.3970   -5.9590 O   0  0  0  0  0  0  0  0  0  0  0  0
   33.7870   45.0390   -4.1260 N   0  0  0  0  0  0  0  0  0  0  0  0
   35.7270   46.5570   -3.5500 C   0  0  0  0  0  0  0  0  0  0  0  0
   34.6300   44.4560   -3.2090 C   0  0  0  0  0  0  0  0  0  0  0  0
   35.7560   45.3540   -2.8540 C   0  0  0  0  0  0  0  0  0  0  0  0
   36.6710   47.5500   -3.3850 C   0  0  0  0  0  0  0  0  0  0  0  0
   34.4880   43.3420   -2.7310 O   0  0  0  0  0  0  0  0  0  0  0  0
   37.6930   47.3050   -2.4680 C   0  0  0  0  0  0  0  0  0  0  0  0
   36.7660   45.1030   -1.9420 C   0  0  0  0  0  0  0  0  0  0  0  0
   37.7410   46.0890   -1.7510 C   0  0  0  0  0  0  0  0  0  0  0  0
  1  2  1  0
  2  3  2  0
  2  4  1  0
  3  5  1  0
  4  6  1  0
  5  6  2  0
  5  7  1  0
  6  8  1  0
  7  9  2  0
  8 10  2  0
  9 10  1  0
 10 11  1  0
 11 12  1  0
 12 13  1  0
 13 14  1  0
 14 15  2  0
 15 16  2  0
 15 17  1  1
 15 18  1  0
 17 19  1  0
 18 20  2  0
 19 20  1  0
 18 21  1  0
 19 22  2  0
 21 23  2  0
 20 24  1  0
 23 25  1  0
 24 25  2  0
M  END
