mac-x0417-mac-x0587
     RDKit          3D

 24 26  0  0  0  0  0  0  0  0999 V2000
   31.8100   45.2410   -6.1760 O   0  0  0  0  0  0  0  0  0  0  0  0
   32.9670   45.8610   -5.6330 C   0  0  0  0  0  0  0  0  0  0  0  0
   34.0620   45.0190   -5.9340 O   0  0  0  0  0  0  0  0  0  0  0  0
   32.7880   46.1940   -4.1170 C   0  0  1  0  0  0  0  0  0  0  0  0
   33.2020   47.1460   -6.3960 C   0  0  0  0  0  0  0  0  0  0  0  0
   31.3050   46.3390   -3.5480 C   0  0  2  0  0  0  0  0  0  0  0  0
   33.9610   45.5370   -3.3600 C   0  0  0  0  0  0  0  0  0  0  0  0
   30.2910   45.2690   -3.9700 C   0  0  0  0  0  0  0  0  0  0  0  0
   30.7080   47.7860   -3.4470 C   0  0  0  0  0  0  0  0  0  0  0  0
   34.0070   44.2490   -2.9420 N   0  0  0  0  0  0  0  0  0  0  0  0
   35.1650   46.2110   -3.0210 C   0  0  0  0  0  0  0  0  0  0  0  0
   30.6530   48.2650   -2.3050 O   0  0  0  0  0  0  0  0  0  0  0  0
   35.2560   44.0940   -2.3270 O   0  0  0  0  0  0  0  0  0  0  0  0
   35.9430   45.2690   -2.3790 C   0  0  0  0  0  0  0  0  0  0  0  0
   35.6720   47.5080   -3.1920 C   0  0  0  0  0  0  0  0  0  0  0  0
   30.2250   48.5970   -4.4960 N   0  0  0  0  0  0  0  0  0  0  0  0
   37.2240   45.5230   -1.8800 C   0  0  0  0  0  0  0  0  0  0  0  0
   36.9510   47.8000   -2.7040 C   0  0  0  0  0  0  0  0  0  0  0  0
   29.9280   49.9850   -4.1490 C   0  0  0  0  0  0  0  0  0  0  0  0
   29.5600   48.3320   -5.7260 C   0  0  0  0  0  0  0  0  0  0  0  0
   29.3320   47.2740   -6.2730 O   0  0  0  0  0  0  0  0  0  0  0  0
   37.7130   46.8240   -2.0600 C   0  0  0  0  0  0  0  0  0  0  0  0
   29.2960   50.6230   -5.3720 C   0  0  0  0  0  0  0  0  0  0  0  0
   29.1610   49.5420   -6.2930 N   0  0  0  0  0  0  0  0  0  0  0  0
  2  1  1  0
  2  3  1  0
  4  2  1  6
  2  5  1  0
  4  6  1  0
  4  7  1  0
  6  8  1  6
  6  9  1  0
  7 10  2  0
  7 11  1  0
  9 12  2  0
 10 13  1  0
 11 14  2  0
 13 14  1  0
 11 15  1  0
  9 16  1  0
 14 17  1  0
 15 18  2  0
 16 19  1  0
 16 20  1  0
 20 21  2  0
 17 22  2  0
 18 22  1  0
 19 23  1  0
 20 24  1  0
 23 24  1  0
M  END
