mac-x0576-mac-x0361
     RDKit          3D

 15 16  0  0  0  0  0  0  0  0999 V2000
   28.9740   47.3960   -9.0150 N   0  0  0  0  0  0  0  0  0  0  0  0
   28.8260   48.2230   -7.8680 C   0  0  2  0  0  0  0  0  0  0  0  0
   29.4260   49.4560   -8.2310 N   0  0  0  0  0  0  0  0  0  0  0  0
   29.6090   47.5840   -6.9060 N   0  0  0  0  0  0  0  0  0  0  0  0
   29.7610   48.1750   -5.6960 C   0  0  0  0  0  0  0  0  0  0  0  0
   29.6590   50.3590   -7.0970 C   0  0  2  0  0  0  0  0  0  0  0  0
   29.7750   47.5070   -4.6610 O   0  0  0  0  0  0  0  0  0  0  0  0
   29.9220   49.6900   -5.7010 C   0  0  1  0  0  0  0  0  0  0  0  0
   28.7730   51.4980   -6.9740 N   0  0  0  0  0  0  0  0  0  0  0  0
   28.9560   52.3680   -5.9270 C   0  0  0  0  0  0  0  0  0  0  0  0
   29.1870   50.3080   -4.5650 N   0  0  0  0  0  0  0  0  0  0  0  0
   28.8310   53.6460   -5.9620 N   0  0  0  0  0  0  0  0  0  0  0  0
   29.3600   51.7670   -4.5670 C   0  0  0  0  0  0  0  0  0  0  0  0
   29.0570   54.3420   -4.8130 C   0  0  0  0  0  0  0  0  0  0  0  0
   30.1370   54.5130   -4.2620 O   0  0  0  0  0  0  0  0  0  0  0  0
  2  1  1  6
  2  3  1  0
  2  4  1  0
  4  5  1  0
  6  3  1  6
  5  7  2  0
  5  8  1  0
  6  8  1  0
  6  9  1  0
  9 10  1  0
  8 11  1  1
 10 12  2  3
 10 13  1  0
 11 13  1  0
 12 14  1  0
 14 15  2  0
M  END
