mac-x0341-mac-x0365
     RDKit          3D

 16 17  0  0  0  0  0  0  0  0999 V2000
   28.2150   54.8760   -7.6300 N   0  0  0  0  0  0  0  0  0  0  0  0
   28.5660   53.7520   -6.9590 C   0  0  0  0  0  0  0  0  0  0  0  0
   28.4720   52.5900   -7.5200 N   0  0  0  0  0  0  0  0  0  0  0  0
   29.0140   53.9170   -5.6830 N   0  0  0  0  0  0  0  0  0  0  0  0
   29.3450   52.8770   -4.8490 C   0  0  0  0  0  0  0  0  0  0  0  0
   28.8520   51.4590   -6.7780 C   0  0  0  0  0  0  0  0  0  0  0  0
   29.6580   53.0790   -3.6810 O   0  0  0  0  0  0  0  0  0  0  0  0
   29.2930   51.5390   -5.4530 C   0  0  0  0  0  0  0  0  0  0  0  0
   28.7870   50.2080   -7.3940 C   0  0  0  0  0  0  0  0  0  0  0  0
   29.1590   49.0530   -6.6990 C   0  0  0  0  0  0  0  0  0  0  0  0
   29.6680   50.3940   -4.7460 C   0  0  0  0  0  0  0  0  0  0  0  0
   30.0860   50.5140   -3.4720 F   0  0  0  0  0  0  0  0  0  0  0  0
   29.6040   49.1380   -5.3680 C   0  0  0  0  0  0  0  0  0  0  0  0
   30.0020   47.9180   -4.6240 C   0  0  0  0  0  0  0  0  0  0  0  0
   29.8140   46.8050   -5.3570 O   0  0  0  0  0  0  0  0  0  0  0  0
   30.4490   47.8420   -3.4970 O   0  0  0  0  0  0  0  0  0  0  0  0
  1  2  1  0
  2  3  2  0
  2  4  1  0
  4  5  1  0
  3  6  1  0
  5  7  2  0
  5  8  1  0
  6  8  2  0
  6  9  1  0
  9 10  2  0
  8 11  1  0
 11 12  1  0
 10 13  1  0
 11 13  2  0
 13 14  1  0
 14 15  1  0
 14 16  2  0
M  END
