mac-x0123-mac-x0193
     RDKit          3D

 30 33  0  0  0  0  0  0  0  0999 V2000
   28.6630   51.6620   -7.3510 N   0  0  0  0  0  0  0  0  0  0  0  0
   29.0650   52.2470   -6.1560 C   0  0  0  0  0  0  0  0  0  0  0  0
   29.0180   53.5560   -5.8960 C   0  0  0  0  0  0  0  0  0  0  0  0
   29.5660   51.4190   -5.1210 N   0  0  0  0  0  0  0  0  0  0  0  0
   29.9570   51.8920   -3.9290 C   0  0  0  0  0  0  0  0  0  0  0  0
   29.4810   53.9940   -4.5480 C   0  0  0  0  0  0  0  0  0  0  0  0
   28.5900   54.7600   -6.6560 C   0  0  0  0  0  0  0  0  0  0  0  0
   29.7570   50.0920   -5.0910 N   0  0  0  0  0  0  0  0  0  0  0  0
   29.9180   53.2240   -3.5990 N   0  0  0  0  0  0  0  0  0  0  0  0
   29.3690   55.4840   -4.4400 C   0  0  0  0  0  0  0  0  0  0  0  0
   29.3110   55.8910   -5.9170 C   0  0  0  0  0  0  0  0  0  0  0  0
   30.3440   50.8490   -3.2550 N   0  0  0  0  0  0  0  0  0  0  0  0
   30.2770   49.5890   -3.9100 C   0  0  0  0  0  0  0  0  0  0  0  0
   30.1160   48.3940   -4.8020 C   0  0  0  0  0  0  0  0  0  0  0  0
   31.3890   48.0860   -5.6170 C   0  0  0  0  0  0  0  0  0  0  0  0
   31.2970   46.8440   -6.5150 C   0  0  0  0  0  0  0  0  0  0  0  0
   31.7300   45.6500   -5.7780 N   0  0  0  0  0  0  0  0  0  0  0  0
   32.9770   45.3560   -5.6670 C   0  0  0  0  0  0  0  0  0  0  0  0
   33.9850   46.0740   -6.2090 O   0  0  0  0  0  0  0  0  0  0  0  0
   33.4290   44.1450   -4.8850 C   0  0  0  0  0  0  0  0  0  0  0  0
   34.4180   44.5510   -3.8940 N   0  0  0  0  0  0  0  0  0  0  0  0
   34.8720   43.6290   -2.9820 C   0  0  0  0  0  0  0  0  0  0  0  0
   34.2710   42.6020   -2.7130 O   0  0  0  0  0  0  0  0  0  0  0  0
   36.0670   43.9950   -2.4200 N   0  0  0  0  0  0  0  0  0  0  0  0
   36.8770   43.0030   -1.7110 C   0  0  0  0  0  0  0  0  0  0  0  0
   37.8400   42.2930   -2.6720 C   0  0  0  0  0  0  0  0  0  0  0  0
   37.6190   43.6400   -0.5350 C   0  0  0  0  0  0  0  0  0  0  0  0
   39.2170   42.0260   -2.0620 C   0  0  0  0  0  0  0  0  0  0  0  0
   38.4230   42.6270    0.2840 C   0  0  0  0  0  0  0  0  0  0  0  0
   39.1480   41.6120   -0.5950 C   0  0  0  0  0  0  0  0  0  0  0  0
  1  2  1  0
  2  3  2  0
  2  4  1  0
  4  5  1  0
  3  6  1  0
  3  7  1  0
  4  8  1  0
  5  9  1  0
  6  9  2  0
  6 10  1  0
  7 11  1  0
 10 11  1  0
  5 12  2  0
  8 13  2  0
 12 13  1  0
 13 14  1  0
 14 15  1  0
 15 16  1  0
 16 17  1  0
 17 18  2  3
 18 19  1  0
 18 20  1  0
 20 21  1  0
 21 22  1  0
 22 23  2  0
 22 24  1  0
 24 25  1  0
 25 26  1  0
 25 27  1  0
 26 28  1  0
 27 29  1  0
 28 30  1  0
 29 30  1  0
M  END
