mac-x0301-mac-x0338
     RDKit          3D

 15 16  0  0  0  0  0  0  0  0999 V2000
   30.1330   45.6730   -4.7320 O   0  0  0  0  0  0  0  0  0  0  0  0
   30.4260   46.8280   -4.1030 C   0  0  0  0  0  0  0  0  0  0  0  0
   31.0560   46.8520   -3.0570 O   0  0  0  0  0  0  0  0  0  0  0  0
   29.9440   48.0740   -4.7720 C   0  0  0  0  0  0  0  0  0  0  0  0
   29.5930   48.1640   -6.1140 C   0  0  0  0  0  0  0  0  0  0  0  0
   29.8380   49.2460   -4.0060 C   0  0  0  0  0  0  0  0  0  0  0  0
   29.1650   49.3510   -6.6870 C   0  0  0  0  0  0  0  0  0  0  0  0
   29.4060   50.4570   -4.5860 C   0  0  0  0  0  0  0  0  0  0  0  0
   29.6230   47.1400   -7.0230 O   0  0  0  0  0  0  0  0  0  0  0  0
   29.0630   50.5350   -5.9490 C   0  0  0  0  0  0  0  0  0  0  0  0
   28.8840   49.1840   -8.0130 O   0  0  0  0  0  0  0  0  0  0  0  0
   28.9880   47.7570   -8.1570 C   0  0  0  0  0  0  0  0  0  0  0  0
   28.6310   51.8650   -6.5090 C   0  0  0  0  0  0  0  0  0  0  0  0
   28.1480   51.8880   -7.7810 N   0  0  0  0  0  0  0  0  0  0  0  0
   28.7180   52.9110   -5.8710 O   0  0  0  0  0  0  0  0  0  0  0  0
  1  2  1  0
  2  3  2  0
  2  4  1  0
  4  5  2  0
  4  6  1  0
  5  7  1  0
  6  8  2  0
  5  9  1  0
  7 10  2  0
  8 10  1  0
  7 11  1  0
  9 12  1  0
 11 12  1  0
 10 13  1  0
 13 14  1  0
 13 15  2  0
M  END
