mac-x0344-mac-x0392
     RDKit          3D

 21 22  0  0  0  0  0  0  0  0999 V2000
   32.0270   44.1730   -5.6720 O   0  0  0  0  0  0  0  0  0  0  0  0
   31.9950   45.4680   -5.2780 C   0  0  0  0  0  0  0  0  0  0  0  0
   30.8230   46.0280   -5.2550 N   0  0  0  0  0  0  0  0  0  0  0  0
   33.4420   45.8960   -4.9500 C   0  0  0  0  0  0  0  0  0  0  0  0
   34.0090   46.4400   -5.8940 O   0  0  0  0  0  0  0  0  0  0  0  0
   33.9850   45.6700   -3.7110 N   0  0  0  0  0  0  0  0  0  0  0  0
   30.5590   47.3140   -4.8180 C   0  0  0  0  0  0  0  0  0  0  0  0
   30.7940   47.6620   -3.6700 O   0  0  0  0  0  0  0  0  0  0  0  0
   35.1480   46.2940   -3.1940 C   0  0  0  0  0  0  0  0  0  0  0  0
   29.9450   48.3790   -5.7070 C   0  0  0  0  0  0  0  0  0  0  0  0
   36.0990   45.4920   -2.5460 C   0  0  0  0  0  0  0  0  0  0  0  0
   35.3880   47.6690   -3.3030 C   0  0  0  0  0  0  0  0  0  0  0  0
   29.5660   48.2050   -7.0560 C   0  0  0  0  0  0  0  0  0  0  0  0
   29.7520   49.6350   -5.0980 C   0  0  0  0  0  0  0  0  0  0  0  0
   29.7030   47.0090   -7.7770 N   0  0  0  0  0  0  0  0  0  0  0  0
   37.2700   46.0550   -2.0170 C   0  0  0  0  0  0  0  0  0  0  0  0
   36.5590   48.2280   -2.7740 C   0  0  0  0  0  0  0  0  0  0  0  0
   29.2000   50.6690   -5.8280 C   0  0  0  0  0  0  0  0  0  0  0  0
   29.0160   49.3360   -7.6840 C   0  0  0  0  0  0  0  0  0  0  0  0
   37.4990   47.4270   -2.1320 C   0  0  0  0  0  0  0  0  0  0  0  0
   28.8270   50.5470   -7.1100 N   0  0  0  0  0  0  0  0  0  0  0  0
  1  2  1  0
  2  3  2  3
  2  4  1  0
  4  5  2  0
  4  6  1  0
  3  7  1  0
  7  8  2  0
  6  9  1  0
  7 10  1  0
  9 11  2  0
  9 12  1  0
 10 13  2  0
 10 14  1  0
 13 15  1  0
 11 16  1  0
 12 17  2  0
 14 18  2  0
 13 19  1  0
 16 20  2  0
 17 20  1  0
 18 21  1  0
 19 21  2  0
M  END
