mac-x0338-mac-x0178
     RDKit          3D

 23 24  0  0  0  0  0  0  0  0999 V2000
   28.5480   51.5970   -7.5600 N   0  0  0  0  0  0  0  0  0  0  0  0
   28.8820   52.3360   -6.4560 C   0  0  0  0  0  0  0  0  0  0  0  0
   28.6980   53.5460   -6.4140 O   0  0  0  0  0  0  0  0  0  0  0  0
   29.4830   51.5960   -5.3070 C   0  0  0  0  0  0  0  0  0  0  0  0
   30.2580   50.4920   -5.5580 N   0  0  0  0  0  0  0  0  0  0  0  0
   29.2460   52.0570   -4.0270 C   0  0  0  0  0  0  0  0  0  0  0  0
   30.7850   49.8870   -4.4430 C   0  0  0  0  0  0  0  0  0  0  0  0
   29.7580   51.4530   -2.9320 N   0  0  0  0  0  0  0  0  0  0  0  0
   31.6830   48.6760   -4.5900 C   0  0  0  0  0  0  0  0  0  0  0  0
   30.5260   50.3720   -3.1710 C   0  0  0  0  0  0  0  0  0  0  0  0
   31.0580   47.4060   -4.0590 C   0  0  0  0  0  0  0  0  0  0  0  0
   31.1030   46.1800   -4.7340 C   0  0  0  0  0  0  0  0  0  0  0  0
   30.3870   47.4750   -2.8170 C   0  0  0  0  0  0  0  0  0  0  0  0
   31.7820   45.9560   -6.0390 C   0  0  0  0  0  0  0  0  0  0  0  0
   29.7630   46.3560   -2.2710 C   0  0  0  0  0  0  0  0  0  0  0  0
   30.4650   45.0590   -4.1700 C   0  0  0  0  0  0  0  0  0  0  0  0
   28.9290   46.5210   -0.7110 S   0  0  0  0  0  0  0  0  0  0  0  0
   31.2350   45.6100   -7.0680 O   0  0  0  0  0  0  0  0  0  0  0  0
   33.1060   46.1750   -6.0130 O   0  0  0  0  0  0  0  0  0  0  0  0
   29.7980   45.1410   -2.9430 C   0  0  0  0  0  0  0  0  0  0  0  0
   28.5150   44.9280   -0.3540 N   0  0  0  0  0  0  0  0  0  0  0  0
   29.8790   46.9670    0.2800 O   0  0  0  0  0  0  0  0  0  0  0  0
   27.6820   47.2080   -0.9480 O   0  0  0  0  0  0  0  0  0  0  0  0
  1  2  1  0
  2  3  2  0
  2  4  1  0
  4  5  2  0
  4  6  1  0
  5  7  1  0
  6  8  2  0
  7  9  1  0
  7 10  2  0
  8 10  1  0
  9 11  1  0
 11 12  2  0
 11 13  1  0
 12 14  1  0
 13 15  2  0
 12 16  1  0
 15 17  1  0
 14 18  2  0
 14 19  1  0
 15 20  1  0
 16 20  2  0
 17 21  1  0
 17 22  2  0
 17 23  2  0
M  END
