mac-x0373-mac-x0159
     RDKit          3D

 27 30  0  0  0  0  0  0  0  0999 V2000
   31.5270   46.0380   -6.5600 O   0  0  0  0  0  0  0  0  0  0  0  0
   30.3800   46.0730   -5.8360 C   0  0  0  0  0  0  0  0  0  0  0  0
   29.4700   45.3510   -6.2260 O   0  0  0  0  0  0  0  0  0  0  0  0
   30.3720   47.0140   -4.5970 C   0  0  1  0  0  0  0  0  0  0  0  0
   31.7760   47.4390   -4.0690 C   0  0  0  0  0  0  0  0  0  0  0  0
   29.4090   48.2950   -4.8230 C   0  0  1  0  0  0  0  0  0  0  0  0
   29.8470   46.1280   -3.4170 C   0  0  0  0  0  0  0  0  0  0  0  0
   32.4910   46.5930   -3.1820 C   0  0  0  0  0  0  0  0  0  0  0  0
   32.4020   48.6510   -4.4290 C   0  0  0  0  0  0  0  0  0  0  0  0
   29.7890   49.4840   -3.9180 C   0  0  0  0  0  0  0  0  0  0  0  0
   28.9310   48.7670   -6.2780 C   0  0  1  0  0  0  0  0  0  0  0  0
   29.8690   44.7400   -3.3260 C   0  0  0  0  0  0  0  0  0  0  0  0
   29.2740   46.7300   -2.2910 N   0  0  0  0  0  0  0  0  0  0  0  0
   33.7520   46.9400   -2.6890 C   0  0  0  0  0  0  0  0  0  0  0  0
   33.6660   48.9970   -3.9330 C   0  0  0  0  0  0  0  0  0  0  0  0
   29.6440   50.7860   -4.2540 C   0  0  0  0  0  0  0  0  0  0  0  0
   28.2430   50.1710   -6.2020 C   0  0  0  0  0  0  0  0  0  0  0  0
   30.0090   48.9280   -7.2900 N   0  0  0  0  0  0  0  0  0  0  0  0
   27.9840   47.8200   -7.0340 C   0  0  0  0  0  0  0  0  0  0  0  0
   28.8910   45.8340   -1.4110 C   0  0  0  0  0  0  0  0  0  0  0  0
   29.1810   44.2060   -1.8510 S   0  0  0  0  0  0  0  0  0  0  0  0
   28.2460   46.1550   -0.1100 C   0  0  0  0  0  0  0  0  0  0  0  0
   34.3400   48.1430   -3.0640 C   0  0  0  0  0  0  0  0  0  0  0  0
   29.0950   51.2640   -5.5640 C   0  0  1  0  0  0  0  0  0  0  0  0
   28.0360   48.3170   -8.4140 N   0  0  0  0  0  0  0  0  0  0  0  0
   29.3870   48.8250   -8.6010 C   0  0  0  0  0  0  0  0  0  0  0  0
   28.3770   52.5140   -5.3600 N   0  0  0  0  0  0  0  0  0  0  0  0
  1  2  1  0
  2  3  2  0
  4  2  1  6
  4  5  1  0
  4  6  1  0
  4  7  1  0
  5  8  2  0
  5  9  1  0
  6 10  1  6
  6 11  1  0
  7 12  2  0
  7 13  1  0
  8 14  1  0
  9 15  2  0
 10 16  2  0
 11 17  1  1
 11 18  1  0
 11 19  1  0
 13 20  2  0
 12 21  1  0
 20 21  1  0
 20 22  1  0
 14 23  2  0
 15 23  1  0
 16 24  1  0
 17 24  1  0
 19 25  1  0
 18 26  1  0
 25 26  1  0
 24 27  1  1
M  END
