mac-x0212-mac-x0204
     RDKit          3D

 23 24  0  0  0  0  0  0  0  0999 V2000
   30.5450   53.7490   -6.2370 C   0  0  0  0  0  0  0  0  0  0  0  0
   29.1660   54.2100   -5.2010 S   0  0  0  0  0  0  0  0  0  0  0  0
   28.3160   55.0880   -5.9740 O   0  0  0  0  0  0  0  0  0  0  0  0
   29.6750   54.6150   -3.9070 O   0  0  0  0  0  0  0  0  0  0  0  0
   28.3100   52.7680   -5.0580 N   0  0  0  0  0  0  0  0  0  0  0  0
   28.9810   51.5240   -5.2310 C   0  0  0  0  0  0  0  0  0  0  0  0
   29.0300   50.9710   -6.5100 C   0  0  0  0  0  0  0  0  0  0  0  0
   29.5830   50.8520   -4.1680 C   0  0  0  0  0  0  0  0  0  0  0  0
   29.6790   49.7510   -6.7250 C   0  0  0  0  0  0  0  0  0  0  0  0
   30.2320   49.6330   -4.3890 C   0  0  0  0  0  0  0  0  0  0  0  0
   30.2920   49.0610   -5.6710 C   0  0  0  0  0  0  0  0  0  0  0  0
   30.9960   47.7360   -5.9370 C   0  0  2  0  0  0  0  0  0  0  0  0
   30.7700   46.5810   -4.8820 C   0  0  0  0  0  0  0  0  0  0  0  0
   32.4110   47.9400   -6.1150 O   0  0  0  0  0  0  0  0  0  0  0  0
   31.4100   45.3920   -5.3300 O   0  0  0  0  0  0  0  0  0  0  0  0
   29.3760   46.2480   -4.8800 O   0  0  0  0  0  0  0  0  0  0  0  0
   31.1940   46.9090   -3.4640 C   0  0  0  0  0  0  0  0  0  0  0  0
   30.2760   47.0300   -2.4100 C   0  0  0  0  0  0  0  0  0  0  0  0
   32.5390   47.1080   -3.1390 C   0  0  0  0  0  0  0  0  0  0  0  0
   30.7220   47.3310   -1.1290 C   0  0  0  0  0  0  0  0  0  0  0  0
   32.9980   47.4020   -1.8980 N   0  0  0  0  0  0  0  0  0  0  0  0
   29.7990   47.4400   -0.1330 O   0  0  0  0  0  0  0  0  0  0  0  0
   32.0770   47.5080   -0.9180 C   0  0  0  0  0  0  0  0  0  0  0  0
  1  2  1  0
  2  3  2  0
  2  4  2  0
  2  5  1  0
  5  6  1  0
  6  7  2  0
  6  8  1  0
  7  9  1  0
  8 10  2  0
  9 11  2  0
 10 11  1  0
 11 12  1  0
 12 13  1  0
 12 14  1  1
 13 15  1  0
 13 16  1  0
 13 17  1  0
 17 18  2  0
 17 19  1  0
 18 20  1  0
 19 21  2  0
 20 22  1  0
 20 23  2  0
 21 23  1  0
M  END
