mac-x0576-mac-x0411
     RDKit          3D

 28 30  0  0  0  0  0  0  0  0999 V2000
   29.3510   47.5670   -9.1340 N   0  0  0  0  0  0  0  0  0  0  0  0
   29.0220   48.1540   -7.8540 C   0  0  2  0  0  0  0  0  0  0  0  0
   29.2390   49.5610   -8.0360 N   0  0  0  0  0  0  0  0  0  0  0  0
   29.5150   47.5360   -6.6850 N   0  0  0  0  0  0  0  0  0  0  0  0
   29.6330   48.2090   -5.4960 C   0  0  0  0  0  0  0  0  0  0  0  0
   28.7790   50.2770   -6.8540 C   0  0  1  0  0  0  0  0  0  0  0  0
   30.1730   47.7700   -4.3980 N   0  0  0  0  0  0  0  0  0  0  0  0
   29.0580   49.6550   -5.4490 C   0  0  2  0  0  0  0  0  0  0  0  0
   29.1620   51.6550   -6.9960 N   0  0  0  0  0  0  0  0  0  0  0  0
   30.7750   46.4430   -4.2150 C   0  0  0  0  0  0  0  0  0  0  0  0
   29.1170   52.5210   -5.9370 C   0  0  0  0  0  0  0  0  0  0  0  0
   29.8860   50.5560   -4.6040 N   0  0  0  0  0  0  0  0  0  0  0  0
   28.9330   53.7200   -6.1200 O   0  0  0  0  0  0  0  0  0  0  0  0
   31.8880   46.5310   -3.1500 C   0  0  0  0  0  0  0  0  0  0  0  0
   29.3040   51.9110   -4.5490 C   0  0  0  0  0  0  0  0  0  0  0  0
   33.0240   47.4830   -3.5420 C   0  0  0  0  0  0  0  0  0  0  0  0
   34.4900   47.0810   -3.3560 C   0  0  0  0  0  0  0  0  0  0  0  0
   35.0160   45.7520   -3.2980 C   0  0  0  0  0  0  0  0  0  0  0  0
   35.3930   48.1560   -3.2380 C   0  0  0  0  0  0  0  0  0  0  0  0
   34.1720   44.6690   -3.3920 O   0  0  0  0  0  0  0  0  0  0  0  0
   36.7600   47.9570   -3.0730 C   0  0  0  0  0  0  0  0  0  0  0  0
   36.4100   45.5730   -3.1350 C   0  0  0  0  0  0  0  0  0  0  0  0
   37.1460   44.0110   -3.0610 Cl  0  0  0  0  0  0  0  0  0  0  0  0
   33.3090   44.4670   -4.5130 C   0  0  0  0  0  0  0  0  0  0  0  0
   37.2670   46.6680   -3.0240 C   0  0  0  0  0  0  0  0  0  0  0  0
   33.4960   45.0830   -5.9020 C   0  0  0  0  0  0  0  0  0  0  0  0
   32.3350   45.0830   -6.5940 O   0  0  0  0  0  0  0  0  0  0  0  0
   34.5150   45.5300   -6.4040 O   0  0  0  0  0  0  0  0  0  0  0  0
  2  1  1  6
  2  3  1  0
  2  4  1  0
  4  5  1  0
  6  3  1  6
  5  7  2  3
  5  8  1  0
  6  8  1  0
  6  9  1  0
  7 10  1  0
  9 11  1  0
  8 12  1  6
 11 13  2  0
 10 14  1  0
 11 15  1  0
 12 15  1  0
 14 16  1  0
 16 17  1  0
 17 18  2  0
 17 19  1  0
 18 20  1  0
 19 21  2  0
 18 22  1  0
 22 23  1  0
 20 24  1  0
 21 25  1  0
 22 25  2  0
 24 26  1  0
 26 27  1  0
 26 28  2  0
M  END
