mac-x0358-mac-x0439
     RDKit          3D

 23 25  0  0  0  0  0  0  0  0999 V2000
   32.1500   44.6560   -6.7440 N   0  0  0  0  0  0  0  0  0  0  0  0
   32.7790   45.4470   -5.8130 C   0  0  0  0  0  0  0  0  0  0  0  0
   33.3050   46.5240   -6.0930 O   0  0  0  0  0  0  0  0  0  0  0  0
   30.9450   44.2970   -6.4780 C   0  0  0  0  0  0  0  0  0  0  0  0
   32.7740   44.8430   -4.4140 C   0  0  0  0  0  0  0  0  0  0  0  0
   30.3220   43.5060   -7.3770 O   0  0  0  0  0  0  0  0  0  0  0  0
   30.0670   44.6040   -5.3130 C   0  0  0  0  0  0  0  0  0  0  0  0
   32.6090   45.8300   -3.2820 C   0  0  0  0  0  0  0  0  0  0  0  0
   29.7290   45.8520   -4.9510 C   0  0  0  0  0  0  0  0  0  0  0  0
   29.5410   43.6180   -4.5080 N   0  0  0  0  0  0  0  0  0  0  0  0
   33.4450   46.9450   -3.1670 C   0  0  0  0  0  0  0  0  0  0  0  0
   31.6120   45.6400   -2.3150 C   0  0  0  0  0  0  0  0  0  0  0  0
   28.8130   45.7910   -3.7770 C   0  0  1  0  0  0  0  0  0  0  0  0
   28.8530   44.2790   -3.6240 C   0  0  0  0  0  0  0  0  0  0  0  0
   34.4200   47.1250   -4.1030 O   0  0  0  0  0  0  0  0  0  0  0  0
   33.2990   47.8570   -2.1230 C   0  0  0  0  0  0  0  0  0  0  0  0
   31.4610   46.5500   -1.2660 C   0  0  0  0  0  0  0  0  0  0  0  0
   29.1220   46.3960   -2.4480 C   0  0  0  0  0  0  0  0  0  0  0  0
   28.1170   43.6890   -2.4970 C   0  0  0  0  0  0  0  0  0  0  0  0
   29.8920   47.9390   -2.4030 Cl  0  0  0  0  0  0  0  0  0  0  0  0
   32.3030   47.6560   -1.1700 C   0  0  0  0  0  0  0  0  0  0  0  0
   28.7810   45.7420   -1.3200 C   0  0  0  0  0  0  0  0  0  0  0  0
   28.1130   44.4460   -1.3860 C   0  0  0  0  0  0  0  0  0  0  0  0
  1  2  1  0
  2  3  2  0
  1  4  2  3
  2  5  1  0
  4  6  1  0
  4  7  1  0
  5  8  1  0
  7  9  2  0
  7 10  1  0
  8 11  2  0
  8 12  1  0
 13  9  1  6
 10 14  2  0
 13 14  1  0
 11 15  1  0
 11 16  1  0
 12 17  2  0
 13 18  1  0
 14 19  1  0
 18 20  1  0
 16 21  2  0
 17 21  1  0
 18 22  2  0
 19 23  2  0
 22 23  1  0
M  END
