mac-x0231-mac-x0373
     RDKit          3D

 30 33  0  0  0  0  0  0  0  0999 V2000
   33.8070   44.9420   -6.9600 O   0  0  0  0  0  0  0  0  0  0  0  0
   32.7000   45.1650   -6.2340 C   0  0  0  0  0  0  0  0  0  0  0  0
   31.9820   46.1660   -6.6580 N   0  0  0  0  0  0  0  0  0  0  0  0
   32.5500   44.1900   -5.0800 C   0  0  0  0  0  0  0  0  0  0  0  0
   30.8090   46.5290   -6.0180 C   0  0  0  0  0  0  0  0  0  0  0  0
   31.3450   44.3830   -4.1770 C   0  0  0  0  0  0  0  0  0  0  0  0
   29.7240   46.0730   -6.3750 O   0  0  0  0  0  0  0  0  0  0  0  0
   30.9630   47.5410   -4.8530 C   0  0  0  0  0  0  0  0  0  0  0  0
   31.3630   45.4270   -3.1140 C   0  0  0  0  0  0  0  0  0  0  0  0
   30.3180   43.6070   -4.3860 N   0  0  0  0  0  0  0  0  0  0  0  0
   30.1560   45.6890   -2.4710 C   0  0  0  0  0  0  0  0  0  0  0  0
   29.2250   43.7810   -3.5950 N   0  0  0  0  0  0  0  0  0  0  0  0
   32.5030   46.1460   -2.7400 C   0  0  0  0  0  0  0  0  0  0  0  0
   32.3900   47.9340   -4.4710 C   0  0  0  0  0  0  0  0  0  0  0  0
   30.0720   48.7710   -5.0030 C   0  0  0  0  0  0  0  0  0  0  0  0
   28.9670   44.9140   -2.8620 C   0  0  0  0  0  0  0  0  0  0  0  0
   30.0760   46.6680   -1.4720 C   0  0  0  0  0  0  0  0  0  0  0  0
   32.4270   47.1220   -1.7420 C   0  0  0  0  0  0  0  0  0  0  0  0
   33.4080   46.9670   -4.5060 C   0  0  0  0  0  0  0  0  0  0  0  0
   32.7340   49.2350   -4.0780 C   0  0  0  0  0  0  0  0  0  0  0  0
   29.7160   49.5350   -3.8780 C   0  0  0  0  0  0  0  0  0  0  0  0
   29.5910   49.1630   -6.2610 C   0  0  0  0  0  0  0  0  0  0  0  0
   27.8330   45.2560   -2.5450 O   0  0  0  0  0  0  0  0  0  0  0  0
   31.2150   47.3850   -1.1100 C   0  0  0  0  0  0  0  0  0  0  0  0
   34.7200   47.2850   -4.1570 C   0  0  0  0  0  0  0  0  0  0  0  0
   34.0470   49.5520   -3.7300 C   0  0  0  0  0  0  0  0  0  0  0  0
   28.9060   50.6640   -4.0090 C   0  0  0  0  0  0  0  0  0  0  0  0
   28.7790   50.2960   -6.3890 C   0  0  0  0  0  0  0  0  0  0  0  0
   35.0390   48.5790   -3.7690 C   0  0  0  0  0  0  0  0  0  0  0  0
   28.4350   51.0430   -5.2640 C   0  0  0  0  0  0  0  0  0  0  0  0
  1  2  1  0
  2  3  2  3
  2  4  1  0
  3  5  1  0
  4  6  1  0
  5  7  2  0
  5  8  1  0
  6  9  1  0
  6 10  2  0
  9 11  2  0
 10 12  1  0
  9 13  1  0
  8 14  1  0
  8 15  1  0
 11 16  1  0
 12 16  1  0
 11 17  1  0
 13 18  2  0
 14 19  2  0
 14 20  1  0
 15 21  2  0
 15 22  1  0
 16 23  2  0
 17 24  2  0
 18 24  1  0
 19 25  1  0
 20 26  2  0
 21 27  1  0
 22 28  2  0
 25 29  2  0
 26 29  1  0
 27 30  2  0
 28 30  1  0
M  END
