mac-x0306-mac-x0344
     RDKit          3D

 26 28  0  0  0  0  0  0  0  0999 V2000
   31.7140   44.4270   -4.3200 O   0  0  0  0  0  0  0  0  0  0  0  0
   32.1440   45.4300   -5.1010 C   0  0  0  0  0  0  0  0  0  0  0  0
   31.3150   46.0710   -5.8410 N   0  0  0  0  0  0  0  0  0  0  0  0
   33.6460   45.7140   -4.9940 C   0  0  0  0  0  0  0  0  0  0  0  0
   34.2350   46.0900   -5.9960 O   0  0  0  0  0  0  0  0  0  0  0  0
   34.1590   45.5220   -3.7270 N   0  0  0  0  0  0  0  0  0  0  0  0
   29.8960   45.7450   -5.8170 C   0  0  0  0  0  0  0  0  0  0  0  0
   29.1330   46.9840   -5.3020 C   0  0  0  0  0  0  0  0  0  0  0  0
   35.2970   46.1520   -3.1790 C   0  0  0  0  0  0  0  0  0  0  0  0
   29.9250   47.9000   -4.3380 C   0  0  0  0  0  0  0  0  0  0  0  0
   36.3060   45.4700   -2.4940 C   0  0  0  0  0  0  0  0  0  0  0  0
   35.4130   47.5390   -3.3360 C   0  0  0  0  0  0  0  0  0  0  0  0
   29.6420   49.3570   -4.4680 N   0  0  0  0  0  0  0  0  0  0  0  0
   37.4050   46.1610   -1.9800 C   0  0  0  0  0  0  0  0  0  0  0  0
   36.5110   48.2300   -2.8220 C   0  0  0  0  0  0  0  0  0  0  0  0
   30.0120   50.2570   -3.4690 C   0  0  0  0  0  0  0  0  0  0  0  0
   29.3970   49.9080   -5.7220 C   0  0  0  0  0  0  0  0  0  0  0  0
   37.5110   47.5410   -2.1420 C   0  0  0  0  0  0  0  0  0  0  0  0
   29.6980   51.5690   -3.5230 C   0  0  0  0  0  0  0  0  0  0  0  0
   29.0500   51.1950   -5.8970 C   0  0  0  0  0  0  0  0  0  0  0  0
   28.9060   52.1090   -4.7020 C   0  0  0  0  0  0  0  0  0  0  0  0
   29.1430   53.5790   -5.0140 C   0  0  0  0  0  0  0  0  0  0  0  0
   28.7860   54.1160   -6.2300 N   0  0  0  0  0  0  0  0  0  0  0  0
   29.6760   54.5140   -4.2390 N   0  0  0  0  0  0  0  0  0  0  0  0
   29.6570   55.6690   -4.9830 C   0  0  0  0  0  0  0  0  0  0  0  0
   29.1090   55.4440   -6.2190 C   0  0  0  0  0  0  0  0  0  0  0  0
  1  2  1  0
  2  3  2  3
  2  4  1  0
  4  5  2  0
  4  6  1  0
  3  7  1  0
  7  8  1  0
  6  9  1  0
  8 10  1  0
  9 11  2  0
  9 12  1  0
 10 13  1  0
 11 14  1  0
 12 15  2  0
 13 16  1  0
 13 17  1  0
 14 18  2  0
 15 18  1  0
 16 19  2  0
 17 20  2  0
 19 21  1  0
 20 21  1  0
 21 22  1  0
 22 23  1  0
 22 24  2  0
 24 25  1  0
 23 26  1  0
 25 26  2  0
M  END
