mac-x0385-mac-x0338
     RDKit          3D

 11 11  0  0  0  0  0  0  0  0999 V2000
   29.4870   51.7360   -2.8940 C   0  0  0  0  0  0  0  0  0  0  0  0
   29.3300   50.6080   -3.8540 C   0  0  0  0  0  0  0  0  0  0  0  0
   29.5500   49.3040   -3.4450 C   0  0  0  0  0  0  0  0  0  0  0  0
   28.9660   50.7290   -5.1950 C   0  0  0  0  0  0  0  0  0  0  0  0
   28.6760   52.0430   -5.8990 C   0  0  0  0  0  0  0  0  0  0  0  0
   28.8330   49.6640   -6.0280 N   0  0  0  0  0  0  0  0  0  0  0  0
   29.4310   48.2210   -4.2410 N   0  0  0  0  0  0  0  0  0  0  0  0
   28.3370   51.9120   -7.2290 N   0  0  0  0  0  0  0  0  0  0  0  0
   28.7350   53.1630   -5.3990 O   0  0  0  0  0  0  0  0  0  0  0  0
   29.0720   48.4510   -5.5160 C   0  0  0  0  0  0  0  0  0  0  0  0
   28.9290   47.2780   -6.4330 C   0  0  0  0  0  0  0  0  0  0  0  0
  1  2  1  0
  2  3  2  0
  2  4  1  0
  4  5  1  0
  4  6  2  0
  3  7  1  0
  5  8  1  0
  5  9  2  0
  6 10  1  0
  7 10  2  0
 10 11  1  0
M  END
