mac-x0142-mac-x0546
     RDKit          3D

 32 37  0  0  0  0  0  0  0  0999 V2000
   30.7300   49.4910   -0.6880 C   0  0  0  0  0  0  0  0  0  0  0  0
   29.7360   48.4770   -0.7420 O   0  0  0  0  0  0  0  0  0  0  0  0
   30.1380   47.1910   -1.0070 C   0  0  0  0  0  0  0  0  0  0  0  0
   31.0820   46.7880   -1.8910 C   0  0  0  0  0  0  0  0  0  0  0  0
   29.4140   46.2060   -0.2060 C   0  0  0  0  0  0  0  0  0  0  0  0
   31.3830   45.3240   -2.0310 C   0  0  1  0  0  0  0  0  0  0  0  0
   29.3720   44.8970   -0.5040 C   0  0  0  0  0  0  0  0  0  0  0  0
   30.1040   44.5480   -1.7240 C   0  0  0  0  0  0  0  0  0  0  0  0
   31.6190   44.6700   -3.3630 C   0  0  0  0  0  0  0  0  0  0  0  0
   32.7130   45.0180   -4.3350 C   0  0  2  0  0  0  0  0  0  0  0  0
   29.7540   43.6290   -2.5680 N   0  0  0  0  0  0  0  0  0  0  0  0
   30.6840   43.7260   -3.5600 C   0  0  0  0  0  0  0  0  0  0  0  0
   34.0390   45.4980   -3.7470 C   0  0  0  0  0  0  0  0  0  0  0  0
   32.2320   46.0210   -5.3920 C   0  0  1  0  0  0  0  0  0  0  0  0
   34.8440   44.7770   -3.2040 O   0  0  0  0  0  0  0  0  0  0  0  0
   34.2720   46.8230   -3.9060 O   0  0  0  0  0  0  0  0  0  0  0  0
   31.0610   45.4040   -6.1360 C   0  0  0  0  0  0  0  0  0  0  0  0
   31.8940   47.4250   -4.8590 C   0  0  0  0  0  0  0  0  0  0  0  0
   31.2810   43.9510   -6.5520 C   0  0  0  0  0  0  0  0  0  0  0  0
   31.2480   45.0210   -7.5940 C   0  0  0  0  0  0  0  0  0  0  0  0
   30.4960   47.5310   -4.2650 C   0  0  0  0  0  0  0  0  0  0  0  0
   29.6610   45.7020   -5.6130 C   0  0  0  0  0  0  0  0  0  0  0  0
   29.4930   47.1050   -5.2390 N   0  0  0  0  0  0  0  0  0  0  0  0
   29.0770   48.0450   -6.1720 C   0  0  0  0  0  0  0  0  0  0  0  0
   28.7680   47.6130   -7.4460 N   0  0  0  0  0  0  0  0  0  0  0  0
   28.9400   49.3660   -5.9640 C   0  0  0  0  0  0  0  0  0  0  0  0
   28.3600   48.4610   -8.4290 C   0  0  0  0  0  0  0  0  0  0  0  0
   28.4870   50.2340   -7.0790 C   0  0  0  0  0  0  0  0  0  0  0  0
   29.1150   50.2980   -4.8900 C   0  0  0  0  0  0  0  0  0  0  0  0
   28.2030   49.7360   -8.3170 N   0  0  0  0  0  0  0  0  0  0  0  0
   28.4010   51.4890   -6.7310 N   0  0  0  0  0  0  0  0  0  0  0  0
   28.7880   51.4960   -5.4000 C   0  0  0  0  0  0  0  0  0  0  0  0
  1  2  1  0
  2  3  1  0
  3  4  2  0
  3  5  1  0
  6  4  1  6
  5  7  2  0
  6  8  1  0
  7  8  1  0
  6  9  1  0
  9 10  1  0
  8 11  2  0
  9 12  2  0
 11 12  1  0
 10 13  1  1
 10 14  1  0
 13 15  2  0
 13 16  1  0
 14 17  1  0
 14 18  1  1
 17 19  1  0
 17 20  1  0
 19 20  1  0
 18 21  1  0
 17 22  1  0
 21 23  1  0
 22 23  1  0
 23 24  1  0
 24 25  1  0
 24 26  2  0
 25 27  1  0
 26 28  1  0
 26 29  1  0
 27 30  2  0
 28 30  1  0
 28 31  2  0
 29 32  2  0
 31 32  1  0
M  END
