mac-x0576-mac-x0161
     RDKit          3D

 20 22  0  0  0  0  0  0  0  0999 V2000
   29.5040   47.5860   -9.0210 N   0  0  0  0  0  0  0  0  0  0  0  0
   29.1470   48.1940   -7.7750 C   0  0  2  0  0  0  0  0  0  0  0  0
   28.9770   49.5720   -8.1640 N   0  0  0  0  0  0  0  0  0  0  0  0
   29.9870   47.9790   -6.6570 N   0  0  0  0  0  0  0  0  0  0  0  0
   29.6980   48.6790   -5.5160 C   0  0  0  0  0  0  0  0  0  0  0  0
   28.4970   50.3390   -7.0220 C   0  0  1  0  0  0  0  0  0  0  0  0
   30.4330   48.5560   -4.4410 N   0  0  0  0  0  0  0  0  0  0  0  0
   28.4880   49.6050   -5.6270 C   0  0  2  0  0  0  0  0  0  0  0  0
   29.2970   51.5360   -7.0180 N   0  0  0  0  0  0  0  0  0  0  0  0
   29.1790   52.4130   -5.9710 C   0  0  0  0  0  0  0  0  0  0  0  0
   28.4340   50.5540   -4.4720 N   0  0  0  0  0  0  0  0  0  0  0  0
   31.5480   47.8250   -4.3440 C   0  0  0  0  0  0  0  0  0  0  0  0
   29.0000   53.6180   -6.1420 O   0  0  0  0  0  0  0  0  0  0  0  0
   29.2900   51.7570   -4.6020 C   0  0  0  0  0  0  0  0  0  0  0  0
   32.5500   47.9580   -3.4140 C   0  0  0  0  0  0  0  0  0  0  0  0
   31.8910   46.8100   -5.1960 O   0  0  0  0  0  0  0  0  0  0  0  0
   33.1220   46.2900   -4.8280 N   0  0  0  0  0  0  0  0  0  0  0  0
   33.4930   47.0000   -3.7620 C   0  0  0  0  0  0  0  0  0  0  0  0
   34.6610   46.7910   -3.1170 O   0  0  0  0  0  0  0  0  0  0  0  0
   35.0640   47.8660   -2.2740 C   0  0  0  0  0  0  0  0  0  0  0  0
  2  1  1  6
  2  3  1  0
  2  4  1  0
  4  5  1  0
  6  3  1  6
  5  7  2  3
  5  8  1  0
  6  8  1  0
  6  9  1  0
  9 10  1  0
  8 11  1  1
  7 12  1  0
 10 13  2  0
 10 14  1  0
 11 14  1  0
 12 15  2  0
 12 16  1  0
 16 17  1  0
 15 18  1  0
 17 18  2  0
 18 19  1  0
 19 20  1  0
M  END
