mac-x0380-mac-x0357
     RDKit          3D

 24 26  0  0  0  0  0  0  0  0999 V2000
   29.5970   47.2630   -5.5680 N   0  0  0  0  0  0  0  0  0  0  0  0
   29.6080   48.2120   -4.5740 C   0  0  0  0  0  0  0  0  0  0  0  0
   29.8440   47.9630   -3.3960 O   0  0  0  0  0  0  0  0  0  0  0  0
   30.6590   46.5460   -5.7110 C   0  0  0  0  0  0  0  0  0  0  0  0
   30.7840   45.5820   -6.6460 O   0  0  0  0  0  0  0  0  0  0  0  0
   29.3010   49.6150   -4.9920 C   0  0  0  0  0  0  0  0  0  0  0  0
   31.8680   46.6850   -4.8770 C   0  0  0  0  0  0  0  0  0  0  0  0
   29.6000   50.7140   -4.1720 C   0  0  0  0  0  0  0  0  0  0  0  0
   28.6980   49.8310   -6.2360 C   0  0  0  0  0  0  0  0  0  0  0  0
   32.4650   45.5600   -4.2730 C   0  0  0  0  0  0  0  0  0  0  0  0
   32.3950   47.9770   -4.7110 C   0  0  0  0  0  0  0  0  0  0  0  0
   31.8920   44.1820   -4.4580 C   0  0  0  0  0  0  0  0  0  0  0  0
   29.2970   52.0170   -4.5950 C   0  0  0  0  0  0  0  0  0  0  0  0
   28.3950   51.1260   -6.6610 C   0  0  0  0  0  0  0  0  0  0  0  0
   33.5370   48.1620   -3.9320 C   0  0  0  0  0  0  0  0  0  0  0  0
   33.6130   45.7820   -3.4960 C   0  0  0  0  0  0  0  0  0  0  0  0
   34.2860   44.7780   -2.8590 O   0  0  0  0  0  0  0  0  0  0  0  0
   28.6920   52.2210   -5.8430 C   0  0  0  0  0  0  0  0  0  0  0  0
   29.6990   53.3730   -3.5100 S   0  0  0  0  0  0  0  0  0  0  0  0
   34.1420   47.0640   -3.3280 C   0  0  0  0  0  0  0  0  0  0  0  0
   28.3620   53.4980   -6.3210 N   0  0  0  0  0  0  0  0  0  0  0  0
   29.8440   54.6940   -4.7320 C   0  0  0  0  0  0  0  0  0  0  0  0
   28.7500   54.6880   -5.7740 C   0  0  0  0  0  0  0  0  0  0  0  0
   28.2010   55.7290   -6.1420 O   0  0  0  0  0  0  0  0  0  0  0  0
  1  2  1  0
  2  3  2  0
  1  4  2  3
  4  5  1  0
  2  6  1  0
  4  7  1  0
  6  8  2  0
  6  9  1  0
  7 10  2  0
  7 11  1  0
 10 12  1  0
  8 13  1  0
  9 14  2  0
 11 15  2  0
 10 16  1  0
 16 17  1  0
 13 18  2  0
 14 18  1  0
 13 19  1  0
 15 20  1  0
 16 20  2  0
 18 21  1  0
 19 22  1  0
 21 23  1  0
 22 23  1  0
 23 24  2  0
M  END
