mac-x0437-mac-x0567
     RDKit          3D

 26 29  0  0  0  0  0  0  0  0999 V2000
   32.0490   44.4840   -7.2930 O   0  0  0  0  0  0  0  0  0  0  0  0
   32.4940   45.2320   -6.1960 C   0  0  0  0  0  0  0  0  0  0  0  0
   33.8230   45.6020   -6.5220 O   0  0  0  0  0  0  0  0  0  0  0  0
   32.5600   44.3780   -4.9080 C   0  0  0  0  0  0  0  0  0  0  0  0
   31.5920   46.4760   -6.0770 C   0  0  0  0  0  0  0  0  0  0  0  0
   32.6650   45.1090   -3.5650 C   0  0  0  0  0  0  0  0  0  0  0  0
   30.1910   46.2920   -6.6960 C   0  0  0  0  0  0  0  0  0  0  0  0
   29.9130   47.2550   -7.7700 N   0  0  0  0  0  0  0  0  0  0  0  0
   33.8820   45.8690   -3.3900 N   0  0  0  0  0  0  0  0  0  0  0  0
   34.0020   47.2160   -3.5860 C   0  0  0  0  0  0  0  0  0  0  0  0
   35.1110   45.3840   -3.0090 C   0  0  0  0  0  0  0  0  0  0  0  0
   29.4660   48.5050   -7.4600 C   0  0  0  0  0  0  0  0  0  0  0  0
   35.2260   47.6340   -3.3540 N   0  0  0  0  0  0  0  0  0  0  0  0
   35.9280   46.5120   -2.9960 C   0  0  0  0  0  0  0  0  0  0  0  0
   35.5830   44.1070   -2.6780 C   0  0  0  0  0  0  0  0  0  0  0  0
   28.8750   49.3660   -8.3550 N   0  0  0  0  0  0  0  0  0  0  0  0
   29.4730   49.2050   -6.2830 C   0  0  0  0  0  0  0  0  0  0  0  0
   37.2790   46.3830   -2.6430 C   0  0  0  0  0  0  0  0  0  0  0  0
   36.9350   43.9990   -2.3300 C   0  0  0  0  0  0  0  0  0  0  0  0
   28.5080   50.5570   -7.8380 N   0  0  0  0  0  0  0  0  0  0  0  0
   28.8700   50.4880   -6.5430 C   0  0  0  0  0  0  0  0  0  0  0  0
   29.9730   48.7520   -5.0660 C   0  0  0  0  0  0  0  0  0  0  0  0
   37.7710   45.1160   -2.3120 C   0  0  0  0  0  0  0  0  0  0  0  0
   28.7380   51.4350   -5.5130 C   0  0  0  0  0  0  0  0  0  0  0  0
   29.8290   49.7190   -4.0540 C   0  0  0  0  0  0  0  0  0  0  0  0
   29.2400   51.0020   -4.2640 C   0  0  0  0  0  0  0  0  0  0  0  0
  2  1  1  0
  2  3  1  0
  2  4  1  0
  2  5  1  0
  4  6  1  0
  5  7  1  0
  7  8  1  0
  6  9  1  0
  9 10  1  0
  9 11  1  0
  8 12  1  0
 10 13  2  0
 11 14  2  0
 13 14  1  0
 11 15  1  0
 12 16  1  0
 12 17  2  0
 14 18  1  0
 15 19  2  0
 16 20  1  0
 17 21  1  0
 20 21  2  0
 17 22  1  0
 18 23  2  0
 19 23  1  0
 21 24  1  0
 22 25  2  0
 24 26  2  0
 25 26  1  0
M  END
