mac-x0358-mac-x0398
     RDKit          3D

 22 23  0  0  0  0  0  0  0  0999 V2000
   31.7470   45.1280   -6.8720 O   0  0  0  0  0  0  0  0  0  0  0  0
   32.8320   45.3920   -6.1070 C   0  0  0  0  0  0  0  0  0  0  0  0
   33.7840   45.9760   -6.5930 O   0  0  0  0  0  0  0  0  0  0  0  0
   32.6710   44.9050   -4.6910 C   0  0  0  0  0  0  0  0  0  0  0  0
   32.3980   46.0580   -3.7780 C   0  0  0  0  0  0  0  0  0  0  0  0
   33.3500   46.5370   -2.8750 C   0  0  0  0  0  0  0  0  0  0  0  0
   31.1630   46.6810   -3.8470 C   0  0  0  0  0  0  0  0  0  0  0  0
   34.5660   45.9260   -2.8390 O   0  0  0  0  0  0  0  0  0  0  0  0
   33.0780   47.6150   -2.0330 C   0  0  0  0  0  0  0  0  0  0  0  0
   30.9000   47.7590   -3.0310 C   0  0  0  0  0  0  0  0  0  0  0  0
   29.6520   48.3610   -3.1960 O   0  0  0  0  0  0  0  0  0  0  0  0
   31.8370   48.2360   -2.1090 C   0  0  0  0  0  0  0  0  0  0  0  0
   29.7450   49.7010   -2.9030 C   0  0  0  0  0  0  0  0  0  0  0  0
   30.0340   50.1430   -1.8070 O   0  0  0  0  0  0  0  0  0  0  0  0
   29.4840   50.6620   -4.0280 C   0  0  0  0  0  0  0  0  0  0  0  0
   29.5470   52.0130   -3.6790 C   0  0  0  0  0  0  0  0  0  0  0  0
   29.1880   50.3310   -5.3650 C   0  0  0  0  0  0  0  0  0  0  0  0
   29.8300   52.4330   -2.4070 O   0  0  0  0  0  0  0  0  0  0  0  0
   29.3220   53.0240   -4.6120 C   0  0  0  0  0  0  0  0  0  0  0  0
   28.9620   51.3620   -6.3050 C   0  0  0  0  0  0  0  0  0  0  0  0
   29.0250   52.7130   -5.9370 C   0  0  0  0  0  0  0  0  0  0  0  0
   28.8000   53.7350   -6.8640 N   0  0  0  0  0  0  0  0  0  0  0  0
  1  2  1  0
  2  3  2  0
  2  4  1  0
  4  5  1  0
  5  6  2  0
  5  7  1  0
  6  8  1  0
  6  9  1  0
  7 10  2  0
 10 11  1  0
  9 12  2  0
 10 12  1  0
 11 13  1  0
 13 14  2  0
 13 15  1  0
 15 16  2  0
 15 17  1  0
 16 18  1  0
 16 19  1  0
 17 20  2  0
 19 21  2  0
 20 21  1  0
 21 22  1  0
M  END
