mac-x0587-mac-x0348
     RDKit          3D

 25 27  0  0  0  0  0  0  0  0999 V2000
   29.9240   45.9190   -5.2270 C   0  0  0  0  0  0  0  0  0  0  0  0
   30.4460   46.5660   -3.9300 C   0  0  1  0  0  0  0  0  0  0  0  0
   32.1210   45.6650   -3.7220 S   0  0  0  0  0  0  0  0  0  0  0  0
   30.7510   48.0940   -4.1120 C   0  0  0  0  0  0  0  0  0  0  0  0
   29.4250   46.3770   -2.8020 C   0  0  1  0  0  0  0  0  0  0  0  0
   33.2230   46.5050   -4.9150 C   0  0  0  0  0  0  0  0  0  0  0  0
   31.7090   48.6040   -3.5070 O   0  0  0  0  0  0  0  0  0  0  0  0
   29.9700   48.9280   -4.8960 N   0  0  0  0  0  0  0  0  0  0  0  0
   28.8390   44.9920   -2.4810 C   0  0  0  0  0  0  0  0  0  0  0  0
   29.8120   46.8000   -1.4100 C   0  0  2  0  0  0  0  0  0  0  0  0
   33.3240   45.7390   -6.2230 C   0  0  0  0  0  0  0  0  0  0  0  0
   29.5780   50.2240   -4.3740 C   0  0  0  0  0  0  0  0  0  0  0  0
   29.2670   48.7280   -6.1050 C   0  0  0  0  0  0  0  0  0  0  0  0
   27.9910   45.2350   -1.2800 N   0  0  0  0  0  0  0  0  0  0  0  0
   28.4460   46.5440   -0.7440 C   0  0  1  0  0  0  0  0  0  0  0  0
   30.3090   48.1840   -1.1060 C   0  0  0  0  0  0  0  0  0  0  0  0
   34.3730   45.5750   -6.8300 O   0  0  0  0  0  0  0  0  0  0  0  0
   32.1500   45.2420   -6.6780 O   0  0  0  0  0  0  0  0  0  0  0  0
   29.0300   47.6950   -6.6940 O   0  0  0  0  0  0  0  0  0  0  0  0
   28.0040   44.1170   -0.3470 C   0  0  0  0  0  0  0  0  0  0  0  0
   29.0880   50.9920   -5.5840 C   0  0  0  0  0  0  0  0  0  0  0  0
   28.8540   49.9700   -6.5600 N   0  0  0  0  0  0  0  0  0  0  0  0
   30.0500   48.6900    0.1050 C   0  0  0  0  0  0  0  0  0  0  0  0
   28.5300   46.8740    0.7150 C   0  0  0  0  0  0  0  0  0  0  0  0
   29.3100   47.9140    1.0890 C   0  0  0  0  0  0  0  0  0  0  0  0
  2  1  1  6
  2  3  1  0
  2  4  1  0
  2  5  1  0
  3  6  1  0
  4  7  2  0
  4  8  1  0
  5  9  1  1
  5 10  1  0
  6 11  1  0
  8 12  1  0
  8 13  1  0
  9 14  1  0
 10 15  1  0
 14 15  1  0
 10 16  1  6
 11 17  2  0
 11 18  1  0
 13 19  2  0
 14 20  1  0
 12 21  1  0
 13 22  1  0
 21 22  1  0
 16 23  2  0
 15 24  1  1
 23 25  1  0
 24 25  2  0
M  END
