mac-x0439-mac-x0565
     RDKit          3D

 24 27  0  0  0  0  0  0  0  0999 V2000
   29.4780   48.0950   -1.6000 Cl  0  0  0  0  0  0  0  0  0  0  0  0
   29.0430   46.4860   -1.9910 C   0  0  0  0  0  0  0  0  0  0  0  0
   29.4070   45.9070   -3.1790 C   0  0  0  0  0  0  0  0  0  0  0  0
   28.3050   45.7480   -1.0690 C   0  0  0  0  0  0  0  0  0  0  0  0
   30.1840   46.4770   -4.3350 C   0  0  2  0  0  0  0  0  0  0  0  0
   29.0600   44.5750   -3.4420 C   0  0  0  0  0  0  0  0  0  0  0  0
   27.9390   44.4250   -1.3430 C   0  0  0  0  0  0  0  0  0  0  0  0
   30.2170   45.1230   -5.1590 C   0  0  0  0  0  0  0  0  0  0  0  0
   29.5450   44.1130   -4.6590 N   0  0  0  0  0  0  0  0  0  0  0  0
   28.3230   43.8260   -2.5420 C   0  0  0  0  0  0  0  0  0  0  0  0
   31.3160   47.0830   -3.6680 O   0  0  0  0  0  0  0  0  0  0  0  0
   29.4900   47.4950   -5.1190 O   0  0  0  0  0  0  0  0  0  0  0  0
   30.9110   44.9380   -6.4840 C   0  0  0  0  0  0  0  0  0  0  0  0
   29.8740   48.6650   -4.5040 C   0  0  0  0  0  0  0  0  0  0  0  0
   30.9170   48.4310   -3.6420 C   0  0  0  0  0  0  0  0  0  0  0  0
   30.7350   43.6900   -6.9520 O   0  0  0  0  0  0  0  0  0  0  0  0
   31.5480   45.7760   -7.0760 O   0  0  0  0  0  0  0  0  0  0  0  0
   29.3200   49.9410   -4.6900 C   0  0  0  0  0  0  0  0  0  0  0  0
   31.4480   49.4740   -2.8860 C   0  0  0  0  0  0  0  0  0  0  0  0
   29.8580   51.0190   -3.9490 C   0  0  0  0  0  0  0  0  0  0  0  0
   30.9140   50.7730   -3.0410 C   0  0  0  0  0  0  0  0  0  0  0  0
   29.3120   52.4050   -4.1380 C   0  0  0  0  0  0  0  0  0  0  0  0
   28.6960   52.5840   -5.3240 O   0  0  0  0  0  0  0  0  0  0  0  0
   29.4290   53.2970   -3.3110 O   0  0  0  0  0  0  0  0  0  0  0  0
  1  2  1  0
  2  3  2  0
  2  4  1  0
  3  5  1  0
  3  6  1  0
  4  7  2  0
  5  8  1  0
  6  9  1  0
  8  9  2  0
  6 10  2  0
  7 10  1  0
  5 11  1  1
  5 12  1  0
  8 13  1  0
 12 14  1  0
 11 15  1  0
 14 15  2  0
 13 16  1  0
 13 17  2  0
 14 18  1  0
 15 19  1  0
 18 20  2  0
 19 21  2  0
 20 21  1  0
 20 22  1  0
 22 23  1  0
 22 24  2  0
M  END
