mac-x0282-mac-x0139
     RDKit          3D

 16 17  0  0  0  0  0  0  0  0999 V2000
   29.9690   47.4200   -3.9370 C   0  0  0  0  0  0  0  0  0  0  0  0
   30.3870   47.0000   -5.2800 N   0  0  0  0  0  0  0  0  0  0  0  0
   30.5040   45.5490   -5.5110 C   0  0  0  0  0  0  0  0  0  0  0  0
   29.7030   47.7320   -6.2770 C   0  0  0  0  0  0  0  0  0  0  0  0
   31.9620   45.0980   -5.4500 C   0  0  0  0  0  0  0  0  0  0  0  0
   29.3830   49.0980   -6.1040 C   0  0  0  0  0  0  0  0  0  0  0  0
   29.2980   47.1650   -7.4950 C   0  0  0  0  0  0  0  0  0  0  0  0
   32.5420   44.8590   -6.8150 C   0  0  0  0  0  0  0  0  0  0  0  0
   29.5810   50.0700   -5.0740 C   0  0  0  0  0  0  0  0  0  0  0  0
   28.7100   49.7530   -7.1320 C   0  0  0  0  0  0  0  0  0  0  0  0
   28.6290   47.9360   -8.4380 C   0  0  0  0  0  0  0  0  0  0  0  0
   31.9450   44.4520   -7.7960 O   0  0  0  0  0  0  0  0  0  0  0  0
   33.8590   45.1410   -6.8880 O   0  0  0  0  0  0  0  0  0  0  0  0
   29.0310   51.2600   -5.5030 C   0  0  0  0  0  0  0  0  0  0  0  0
   28.5090   51.0510   -6.7540 N   0  0  0  0  0  0  0  0  0  0  0  0
   28.3090   49.2400   -8.3070 N   0  0  0  0  0  0  0  0  0  0  0  0
  1  2  1  0
  2  3  1  0
  2  4  1  0
  3  5  1  0
  4  6  2  0
  4  7  1  0
  5  8  1  0
  6  9  1  0
  6 10  1  0
  7 11  2  0
  8 12  2  0
  8 13  1  0
  9 14  2  0
 10 15  1  0
 14 15  1  0
 10 16  2  0
 11 16  1  0
M  END
