mac-x0255-mac-x0357
     RDKit          3D

 21 23  0  0  0  0  0  0  0  0999 V2000
   31.5380   44.7720   -7.8220 O   0  0  0  0  0  0  0  0  0  0  0  0
   32.1170   45.4830   -6.7620 C   0  0  0  0  0  0  0  0  0  0  0  0
   33.3170   46.0220   -7.2830 O   0  0  0  0  0  0  0  0  0  0  0  0
   32.3190   44.6100   -5.4720 C   0  0  2  0  0  0  0  0  0  0  0  0
   31.2790   46.5830   -6.4570 O   0  0  0  0  0  0  0  0  0  0  0  0
   31.1750   44.7950   -4.5240 C   0  0  0  0  0  0  0  0  0  0  0  0
   33.4320   45.1970   -4.6420 C   0  0  0  0  0  0  0  0  0  0  0  0
   30.0650   44.0700   -4.1950 C   0  0  0  0  0  0  0  0  0  0  0  0
   31.2820   46.2550   -3.6380 S   0  0  0  0  0  0  0  0  0  0  0  0
   33.5940   46.5730   -4.7530 C   0  0  0  0  0  0  0  0  0  0  0  0
   34.2790   44.4830   -3.7740 C   0  0  0  0  0  0  0  0  0  0  0  0
   34.1490   43.1240   -3.6310 O   0  0  0  0  0  0  0  0  0  0  0  0
   29.2780   44.7240   -3.1870 C   0  0  0  0  0  0  0  0  0  0  0  0
   29.8460   45.9400   -2.7960 C   0  0  0  0  0  0  0  0  0  0  0  0
   34.5590   47.2440   -4.0340 C   0  0  0  0  0  0  0  0  0  0  0  0
   35.2570   45.1570   -3.0440 C   0  0  0  0  0  0  0  0  0  0  0  0
   28.0780   44.3340   -2.5660 C   0  0  0  0  0  0  0  0  0  0  0  0
   29.2680   46.7650   -1.8250 C   0  0  0  0  0  0  0  0  0  0  0  0
   35.3900   46.5370   -3.1790 C   0  0  0  0  0  0  0  0  0  0  0  0
   27.4930   45.1500   -1.5960 C   0  0  0  0  0  0  0  0  0  0  0  0
   28.0820   46.3520   -1.2290 C   0  0  0  0  0  0  0  0  0  0  0  0
  2  1  1  0
  2  3  1  0
  4  2  1  6
  2  5  1  0
  4  6  1  0
  4  7  1  0
  6  8  2  0
  6  9  1  0
  7 10  2  0
  7 11  1  0
 11 12  1  0
  8 13  1  0
  9 14  1  0
 13 14  2  0
 10 15  1  0
 11 16  2  0
 13 17  1  0
 14 18  1  0
 15 19  2  0
 16 19  1  0
 17 20  2  0
 18 21  2  0
 20 21  1  0
M  END
