mac-x0226-mac-x0411
     RDKit          3D

 24 26  0  0  0  0  0  0  0  0999 V2000
   31.5040   45.4280   -5.8690 O   0  0  0  0  0  0  0  0  0  0  0  0
   32.9220   45.3600   -5.7940 C   0  0  0  0  0  0  0  0  0  0  0  0
   33.3590   44.8000   -7.0290 O   0  0  0  0  0  0  0  0  0  0  0  0
   33.4640   46.8030   -5.6380 C   0  0  0  0  0  0  0  0  0  0  0  0
   33.3620   44.5530   -4.6220 C   0  0  0  0  0  0  0  0  0  0  0  0
   34.9140   46.8000   -5.6620 O   0  0  0  0  0  0  0  0  0  0  0  0
   32.8800   43.3210   -4.1370 C   0  0  0  0  0  0  0  0  0  0  0  0
   34.3640   44.8690   -3.7430 C   0  0  0  0  0  0  0  0  0  0  0  0
   33.5310   42.9020   -3.0460 N   0  0  0  0  0  0  0  0  0  0  0  0
   34.4550   43.8760   -2.8110 N   0  0  0  0  0  0  0  0  0  0  0  0
   35.5370   47.1590   -4.4800 C   0  0  0  0  0  0  0  0  0  0  0  0
   35.3760   43.8420   -1.7320 C   0  0  0  0  0  0  0  0  0  0  0  0
   35.0610   48.1570   -3.6040 C   0  0  0  0  0  0  0  0  0  0  0  0
   36.7280   46.4820   -4.1340 C   0  0  0  0  0  0  0  0  0  0  0  0
   37.4060   45.2440   -5.1310 Cl  0  0  0  0  0  0  0  0  0  0  0  0
   33.6230   49.0760   -3.8890 Cl  0  0  0  0  0  0  0  0  0  0  0  0
   35.9020   45.0380   -1.2270 C   0  0  0  0  0  0  0  0  0  0  0  0
   35.7740   42.6230   -1.1690 C   0  0  0  0  0  0  0  0  0  0  0  0
   35.7570   48.4560   -2.4290 C   0  0  0  0  0  0  0  0  0  0  0  0
   37.4130   46.7920   -2.9560 C   0  0  0  0  0  0  0  0  0  0  0  0
   36.8130   45.0160   -0.1700 C   0  0  0  0  0  0  0  0  0  0  0  0
   36.6860   42.6060   -0.1110 C   0  0  0  0  0  0  0  0  0  0  0  0
   36.9290   47.7770   -2.1050 C   0  0  0  0  0  0  0  0  0  0  0  0
   37.2060   43.8010    0.3860 C   0  0  0  0  0  0  0  0  0  0  0  0
  2  1  1  0
  2  3  1  0
  2  4  1  0
  2  5  1  0
  4  6  1  0
  5  7  1  0
  5  8  2  0
  7  9  2  0
  8 10  1  0
  9 10  1  0
  6 11  1  0
 10 12  1  0
 11 13  2  0
 11 14  1  0
 14 15  1  0
 13 16  1  0
 12 17  2  0
 12 18  1  0
 13 19  1  0
 14 20  2  0
 17 21  1  0
 18 22  2  0
 19 23  2  0
 20 23  1  0
 21 24  2  0
 22 24  1  0
M  END
