mac-x0417-mac-x0138
     RDKit          3D

 27 30  0  0  0  0  0  0  0  0999 V2000
   32.2590   45.1300   -6.4760 O   0  0  0  0  0  0  0  0  0  0  0  0
   33.3920   45.3760   -5.7820 C   0  0  0  0  0  0  0  0  0  0  0  0
   34.4670   45.3950   -6.3530 O   0  0  0  0  0  0  0  0  0  0  0  0
   33.1250   45.6080   -4.3090 C   0  0  1  0  0  0  0  0  0  0  0  0
   31.7520   45.0440   -3.9110 C   0  0  0  0  0  0  0  0  0  0  0  0
   34.3190   45.1700   -3.5030 C   0  0  0  0  0  0  0  0  0  0  0  0
   30.5710   45.8110   -4.5380 C   0  0  0  0  0  0  0  0  0  0  0  0
   34.5100   43.9120   -3.0680 N   0  0  0  0  0  0  0  0  0  0  0  0
   35.3830   46.0170   -3.1070 C   0  0  0  0  0  0  0  0  0  0  0  0
   30.0590   46.9880   -3.7060 C   0  0  0  0  0  0  0  0  0  0  0  0
   35.7200   43.9340   -2.3790 O   0  0  0  0  0  0  0  0  0  0  0  0
   36.2370   45.1910   -2.4050 C   0  0  0  0  0  0  0  0  0  0  0  0
   35.7140   47.3720   -3.2600 C   0  0  0  0  0  0  0  0  0  0  0  0
   37.4360   45.6170   -1.8290 C   0  0  0  0  0  0  0  0  0  0  0  0
   36.9090   47.8360   -2.6940 C   0  0  0  0  0  0  0  0  0  0  0  0
   29.8170   48.2700   -4.3410 N   0  0  0  0  0  0  0  0  0  0  0  0
   37.7520   46.9720   -1.9930 C   0  0  0  0  0  0  0  0  0  0  0  0
   29.8450   49.4650   -3.6740 C   0  0  0  0  0  0  0  0  0  0  0  0
   29.5210   48.5470   -5.6600 C   0  0  0  0  0  0  0  0  0  0  0  0
   29.5870   50.4830   -4.4630 N   0  0  0  0  0  0  0  0  0  0  0  0
   29.3820   49.9250   -5.7030 C   0  0  0  0  0  0  0  0  0  0  0  0
   29.3890   47.7000   -6.6900 N   0  0  0  0  0  0  0  0  0  0  0  0
   29.0670   50.4840   -6.9520 C   0  0  0  0  0  0  0  0  0  0  0  0
   29.0920   48.3380   -7.8380 C   0  0  0  0  0  0  0  0  0  0  0  0
   28.8920   51.8490   -7.1490 N   0  0  0  0  0  0  0  0  0  0  0  0
   28.9370   47.5520   -8.9670 N   0  0  0  0  0  0  0  0  0  0  0  0
   28.9270   49.6600   -8.0120 N   0  0  0  0  0  0  0  0  0  0  0  0
  1  2  1  0
  2  3  2  0
  2  4  1  0
  4  5  1  1
  4  6  1  0
  5  7  1  0
  6  8  2  0
  6  9  1  0
  7 10  1  0
  8 11  1  0
  9 12  2  0
 11 12  1  0
  9 13  1  0
 12 14  1  0
 13 15  2  0
 10 16  1  0
 14 17  2  0
 15 17  1  0
 16 18  1  0
 16 19  1  0
 18 20  2  0
 19 21  2  0
 20 21  1  0
 19 22  1  0
 21 23  1  0
 22 24  2  0
 23 25  1  0
 24 26  1  0
 23 27  2  0
 24 27  1  0
M  END
