mac-x0116-mac-x0576
     RDKit          3D

 18 20  0  0  0  0  0  0  0  0999 V2000
   29.5040   53.4140   -6.4250 C   0  0  0  0  0  0  0  0  0  0  0  0
   29.2090   52.0510   -6.8530 N   0  0  0  0  0  0  0  0  0  0  0  0
   29.3080   50.9180   -6.0570 C   0  0  0  0  0  0  0  0  0  0  0  0
   30.7240   54.0300   -7.0250 C   0  0  0  0  0  0  0  0  0  0  0  0
   31.8400   54.0600   -6.2400 O   0  0  0  0  0  0  0  0  0  0  0  0
   30.9980   54.6080   -8.2490 C   0  0  0  0  0  0  0  0  0  0  0  0
   32.3570   55.0090   -8.2090 C   0  0  0  0  0  0  0  0  0  0  0  0
   32.8230   54.6530   -6.9640 C   0  0  0  0  0  0  0  0  0  0  0  0
   29.4030   50.9710   -4.6820 N   0  0  0  0  0  0  0  0  0  0  0  0
   29.3160   49.6860   -6.6120 C   0  0  0  0  0  0  0  0  0  0  0  0
   29.5040   49.8460   -3.9120 C   0  0  0  0  0  0  0  0  0  0  0  0
   29.4290   48.5010   -5.7190 C   0  0  0  0  0  0  0  0  0  0  0  0
   29.2350   49.3090   -7.9460 N   0  0  0  0  0  0  0  0  0  0  0  0
   29.5210   48.6260   -4.3490 N   0  0  0  0  0  0  0  0  0  0  0  0
   29.4150   47.4630   -6.5000 N   0  0  0  0  0  0  0  0  0  0  0  0
   29.2910   48.0030   -7.8960 C   0  0  0  0  0  0  0  0  0  0  0  0
   29.2480   47.1650   -8.9730 N   0  0  0  0  0  0  0  0  0  0  0  0
   29.4830   46.2190   -6.2350 O   0  0  0  0  0  0  0  0  0  0  0  0
  1  2  1  0
  2  3  1  0
  1  4  1  0
  4  5  1  0
  4  6  2  0
  6  7  1  0
  5  8  1  0
  7  8  2  0
  3  9  1  0
  3 10  2  0
  9 11  1  0
 10 12  1  0
 10 13  1  0
 11 14  2  0
 12 14  1  0
 12 15  2  0
 13 16  2  0
 15 16  1  0
 16 17  1  0
 15 18  1  0
M  CHG  2  15   1  18  -1
M  END
