mac-x0412-mac-x0385
     RDKit          3D

 13 14  0  0  0  0  0  0  0  0999 V2000
   28.9450   54.3890   -4.1200 O   0  0  0  0  0  0  0  0  0  0  0  0
   28.8140   53.6090   -5.0670 C   0  0  0  0  0  0  0  0  0  0  0  0
   28.7210   54.0980   -6.3550 N   0  0  0  0  0  0  0  0  0  0  0  0
   28.7520   52.0740   -4.8180 C   0  0  1  0  0  0  0  0  0  0  0  0
   28.9380   51.2500   -6.0910 C   0  0  0  0  0  0  0  0  0  0  0  0
   28.7860   53.2840   -7.3480 C   0  0  0  0  0  0  0  0  0  0  0  0
   29.6630   51.5680   -3.6770 C   0  0  0  0  0  0  0  0  0  0  0  0
   30.0720   52.4240   -2.6730 N   0  0  0  0  0  0  0  0  0  0  0  0
   28.9540   51.8270   -7.2980 C   0  0  0  0  0  0  0  0  0  0  0  0
   29.0950   49.8050   -5.8900 C   0  0  0  0  0  0  0  0  0  0  0  0
   30.0450   50.2750   -3.6900 C   0  0  0  0  0  0  0  0  0  0  0  0
   28.6650   48.8450   -6.9650 C   0  0  0  0  0  0  0  0  0  0  0  0
   29.6270   49.3660   -4.7340 C   0  0  0  0  0  0  0  0  0  0  0  0
  1  2  2  0
  2  3  1  0
  4  2  1  6
  4  5  1  0
  3  6  2  0
  4  7  1  0
  7  8  1  0
  5  9  2  0
  6  9  1  0
  5 10  1  0
  7 11  2  0
 10 12  1  0
 10 13  2  0
 11 13  1  0
M  END
