mac-x0163-mac-x0344
     RDKit          3D

 29 32  0  0  0  0  0  0  0  0999 V2000
   29.1000   50.7980   -4.4430 Cl  0  0  0  0  0  0  0  0  0  0  0  0
   29.0760   49.6540   -5.7370 C   0  0  0  0  0  0  0  0  0  0  0  0
   29.0650   50.0900   -7.0610 C   0  0  0  0  0  0  0  0  0  0  0  0
   29.0620   48.2690   -5.5300 C   0  0  0  0  0  0  0  0  0  0  0  0
   29.0750   51.4490   -7.3980 N   0  0  0  0  0  0  0  0  0  0  0  0
   29.0400   47.4190   -6.5790 N   0  0  0  0  0  0  0  0  0  0  0  0
   29.0430   49.2540   -8.1080 N   0  0  0  0  0  0  0  0  0  0  0  0
   29.0660   47.7280   -4.2130 N   0  0  0  0  0  0  0  0  0  0  0  0
   29.0320   47.9510   -7.8090 C   0  0  0  0  0  0  0  0  0  0  0  0
   30.2430   48.1160   -3.4110 C   0  0  0  0  0  0  0  0  0  0  0  0
   28.7050   46.3050   -4.1360 C   0  0  0  0  0  0  0  0  0  0  0  0
   31.5340   47.3410   -3.8390 C   0  0  0  0  0  0  0  0  0  0  0  0
   29.9480   45.4130   -4.0450 C   0  0  0  0  0  0  0  0  0  0  0  0
   32.5650   48.3150   -4.5090 C   0  0  0  0  0  0  0  0  0  0  0  0
   32.5370   47.3040   -2.6280 C   0  0  0  0  0  0  0  0  0  0  0  0
   31.1940   46.0620   -4.6820 C   0  0  2  0  0  0  0  0  0  0  0  0
   32.2950   44.9790   -4.8520 C   0  0  0  0  0  0  0  0  0  0  0  0
   33.0760   48.6670   -3.1020 C   0  0  0  0  0  0  0  0  0  0  0  0
   32.3720   44.1370   -3.7140 O   0  0  0  0  0  0  0  0  0  0  0  0
   32.0090   44.1560   -5.9690 O   0  0  0  0  0  0  0  0  0  0  0  0
   33.7340   45.6020   -5.0220 C   0  0  0  0  0  0  0  0  0  0  0  0
   34.0150   46.2280   -6.0440 O   0  0  0  0  0  0  0  0  0  0  0  0
   34.5580   45.3450   -3.9420 N   0  0  0  0  0  0  0  0  0  0  0  0
   35.5070   46.1980   -3.3500 C   0  0  0  0  0  0  0  0  0  0  0  0
   36.2180   45.6920   -2.2540 C   0  0  0  0  0  0  0  0  0  0  0  0
   35.7720   47.4950   -3.7870 C   0  0  0  0  0  0  0  0  0  0  0  0
   37.1790   46.4730   -1.6070 C   0  0  0  0  0  0  0  0  0  0  0  0
   36.7350   48.2770   -3.1400 C   0  0  0  0  0  0  0  0  0  0  0  0
   37.4380   47.7670   -2.0500 C   0  0  0  0  0  0  0  0  0  0  0  0
  1  2  1  0
  2  3  2  0
  2  4  1  0
  3  5  1  0
  4  6  2  0
  3  7  1  0
  4  8  1  0
  6  9  1  0
  7  9  2  0
  8 10  1  0
  8 11  1  0
 12 10  1  0
 11 13  1  0
 12 14  1  0
 12 15  1  0
 12 16  1  0
 13 16  1  0
 16 17  1  1
 14 18  1  0
 15 18  1  0
 17 19  1  0
 17 20  1  0
 17 21  1  0
 21 22  2  0
 21 23  1  0
 23 24  1  0
 24 25  2  0
 24 26  1  0
 25 27  1  0
 26 28  2  0
 27 29  2  0
 28 29  1  0
M  END
