mac-x0387-mac-x0358
     RDKit          3D

 23 25  0  0  0  0  0  0  0  0999 V2000
   28.3190   51.3640   -7.3510 N   0  0  0  0  0  0  0  0  0  0  0  0
   28.6400   49.9970   -7.4000 C   0  0  0  0  0  0  0  0  0  0  0  0
   28.3760   49.3880   -8.5710 N   0  0  0  0  0  0  0  0  0  0  0  0
   29.2020   49.3320   -6.2820 C   0  0  0  0  0  0  0  0  0  0  0  0
   29.4940   47.9540   -6.4200 C   0  0  0  0  0  0  0  0  0  0  0  0
   28.6620   48.0800   -8.6720 C   0  0  0  0  0  0  0  0  0  0  0  0
   29.4850   49.9660   -5.0500 C   0  0  0  0  0  0  0  0  0  0  0  0
   29.2090   47.3400   -7.6460 C   0  0  0  0  0  0  0  0  0  0  0  0
   30.0540   47.2420   -5.3380 C   0  0  0  0  0  0  0  0  0  0  0  0
   30.0380   49.2640   -3.9850 C   0  0  0  0  0  0  0  0  0  0  0  0
   30.3670   45.7600   -5.4700 C   0  0  0  0  0  0  0  0  0  0  0  0
   30.3210   47.9100   -4.1280 C   0  0  0  0  0  0  0  0  0  0  0  0
   31.4620   45.5540   -6.3790 O   0  0  0  0  0  0  0  0  0  0  0  0
   32.6940   45.5530   -5.8020 C   0  0  0  0  0  0  0  0  0  0  0  0
   33.7090   46.0170   -6.3070 O   0  0  0  0  0  0  0  0  0  0  0  0
   32.6400   44.9050   -4.4370 C   0  0  0  0  0  0  0  0  0  0  0  0
   32.3750   45.9220   -3.3560 C   0  0  0  0  0  0  0  0  0  0  0  0
   33.3110   46.9170   -3.0650 C   0  0  0  0  0  0  0  0  0  0  0  0
   31.1780   45.8920   -2.6140 C   0  0  0  0  0  0  0  0  0  0  0  0
   34.4780   46.9470   -3.7800 O   0  0  0  0  0  0  0  0  0  0  0  0
   33.0800   47.8630   -2.0720 C   0  0  0  0  0  0  0  0  0  0  0  0
   30.9400   46.8380   -1.6170 C   0  0  0  0  0  0  0  0  0  0  0  0
   31.8870   47.8220   -1.3460 C   0  0  0  0  0  0  0  0  0  0  0  0
  1  2  1  0
  2  3  2  0
  2  4  1  0
  4  5  2  0
  3  6  1  0
  4  7  1  0
  5  8  1  0
  6  8  2  0
  5  9  1  0
  7 10  2  0
  9 11  1  0
  9 12  2  0
 10 12  1  0
 11 13  1  0
 13 14  1  0
 14 15  2  0
 14 16  1  0
 16 17  1  0
 17 18  2  0
 17 19  1  0
 18 20  1  0
 18 21  1  0
 19 22  2  0
 21 23  2  0
 22 23  1  0
M  END
