mac-x0159-mac-x0496
     RDKit          3D

 35 39  0  0  0  0  0  0  0  0999 V2000
   29.9470   50.6980   -8.0020 N   0  0  0  0  0  0  0  0  0  0  0  0
   30.8080   49.6230   -7.5380 C   0  0  2  0  0  0  0  0  0  0  0  0
   30.1280   48.2340   -7.5750 C   0  0  1  0  0  0  0  0  0  0  0  0
   31.2400   50.0680   -6.2330 N   0  0  0  0  0  0  0  0  0  0  0  0
   31.0530   49.0280   -5.2250 C   0  0  0  0  0  0  0  0  0  0  0  0
   29.1190   48.1090   -6.4280 C   0  0  2  0  0  0  0  0  0  0  0  0
   29.3350   47.9030   -8.7830 N   0  0  0  0  0  0  0  0  0  0  0  0
   29.7560   48.3580   -5.1340 N   0  0  0  0  0  0  0  0  0  0  0  0
   28.5510   46.8330   -6.8570 N   0  0  0  0  0  0  0  0  0  0  0  0
   28.2870   47.0180   -8.2690 C   0  0  0  0  0  0  0  0  0  0  0  0
   29.0470   48.3110   -3.9020 C   0  0  0  0  0  0  0  0  0  0  0  0
   28.3090   49.4050   -3.5440 C   0  0  0  0  0  0  0  0  0  0  0  0
   29.1350   47.1140   -3.0850 C   0  0  0  0  0  0  0  0  0  0  0  0
   27.6090   49.3940   -2.3410 O   0  0  0  0  0  0  0  0  0  0  0  0
   29.5780   45.8830   -3.5280 C   0  0  0  0  0  0  0  0  0  0  0  0
   28.7550   47.1520   -1.7520 N   0  0  0  0  0  0  0  0  0  0  0  0
   28.1310   50.6660   -4.2930 C   0  0  0  0  0  0  0  0  0  0  0  0
   28.9090   45.9680   -1.2060 C   0  0  0  0  0  0  0  0  0  0  0  0
   29.5160   44.7450   -2.2460 S   0  0  0  0  0  0  0  0  0  0  0  0
   27.3370   50.6970   -5.4510 C   0  0  0  0  0  0  0  0  0  0  0  0
   28.7470   51.8540   -3.8610 C   0  0  0  0  0  0  0  0  0  0  0  0
   28.5930   45.6540    0.2150 C   0  0  0  0  0  0  0  0  0  0  0  0
   27.1570   51.8840   -6.1690 C   0  0  0  0  0  0  0  0  0  0  0  0
   28.5600   53.0410   -4.5890 C   0  0  0  0  0  0  0  0  0  0  0  0
   29.2010   54.2930   -4.1480 C   0  0  0  0  0  0  0  0  0  0  0  0
   27.7690   53.0580   -5.7390 C   0  0  0  0  0  0  0  0  0  0  0  0
   29.1390   55.3980   -4.9680 N   0  0  0  0  0  0  0  0  0  0  0  0
   29.7770   54.3500   -3.0670 O   0  0  0  0  0  0  0  0  0  0  0  0
   29.1510   56.7950   -4.5670 C   0  0  0  0  0  0  0  0  0  0  0  0
   27.8740   57.5020   -4.8320 C   0  0  0  0  0  0  0  0  0  0  0  0
   27.4060   58.3480   -3.8630 O   0  0  0  0  0  0  0  0  0  0  0  0
   27.0930   57.4420   -5.8900 N   0  0  0  0  0  0  0  0  0  0  0  0
   26.0810   58.3040   -5.5500 C   0  0  0  0  0  0  0  0  0  0  0  0
   26.2070   58.8810   -4.3490 N   0  0  0  0  0  0  0  0  0  0  0  0
   24.9370   58.5710   -6.4460 C   0  0  0  0  0  0  0  0  0  0  0  0
  2  1  1  1
  2  3  1  0
  2  4  1  0
  4  5  1  0
  3  6  1  0
  3  7  1  6
  5  8  1  0
  6  8  1  0
  6  9  1  1
  7 10  1  0
  9 10  1  0
  8 11  1  0
 11 12  2  3
 11 13  1  0
 12 14  1  0
 13 15  2  0
 13 16  1  0
 12 17  1  0
 16 18  2  0
 15 19  1  0
 18 19  1  0
 17 20  2  0
 17 21  1  0
 18 22  1  0
 20 23  1  0
 21 24  2  0
 24 25  1  0
 23 26  2  0
 24 26  1  0
 25 27  1  0
 25 28  2  0
 27 29  1  0
 29 30  1  0
 30 31  1  0
 30 32  2  0
 32 33  1  0
 31 34  1  0
 33 34  2  0
 33 35  1  0
M  END
