mac-x0344-mac-x0365
     RDKit          3D

 24 25  0  0  0  0  0  0  0  0999 V2000
   31.8830   44.2980   -4.7120 O   0  0  0  0  0  0  0  0  0  0  0  0
   32.4190   45.4210   -5.2270 C   0  0  0  0  0  0  0  0  0  0  0  0
   31.7510   46.3870   -5.7450 N   0  0  0  0  0  0  0  0  0  0  0  0
   33.9600   45.4380   -5.1320 C   0  0  0  0  0  0  0  0  0  0  0  0
   34.6240   45.5310   -6.1510 O   0  0  0  0  0  0  0  0  0  0  0  0
   34.4040   45.3440   -3.8240 N   0  0  0  0  0  0  0  0  0  0  0  0
   30.2950   46.3720   -5.8310 C   0  0  0  0  0  0  0  0  0  0  0  0
   29.6400   47.6520   -5.8040 O   0  0  0  0  0  0  0  0  0  0  0  0
   35.4660   46.0390   -3.2140 C   0  0  0  0  0  0  0  0  0  0  0  0
   29.4420   48.1350   -4.5480 C   0  0  0  0  0  0  0  0  0  0  0  0
   36.4830   45.4150   -2.4860 C   0  0  0  0  0  0  0  0  0  0  0  0
   35.4910   47.4330   -3.3530 C   0  0  0  0  0  0  0  0  0  0  0  0
   29.2860   47.4660   -3.5410 O   0  0  0  0  0  0  0  0  0  0  0  0
   37.5050   46.1750   -1.9050 C   0  0  0  0  0  0  0  0  0  0  0  0
   36.5120   48.1900   -2.7740 C   0  0  0  0  0  0  0  0  0  0  0  0
   29.4370   49.6250   -4.5480 C   0  0  0  0  0  0  0  0  0  0  0  0
   37.5200   47.5600   -2.0490 C   0  0  0  0  0  0  0  0  0  0  0  0
   29.7710   50.3700   -3.4090 C   0  0  0  0  0  0  0  0  0  0  0  0
   29.0830   50.2930   -5.7340 C   0  0  0  0  0  0  0  0  0  0  0  0
   29.7470   51.7590   -3.4700 C   0  0  0  0  0  0  0  0  0  0  0  0
   29.0620   51.6900   -5.7830 C   0  0  0  0  0  0  0  0  0  0  0  0
   30.0660   52.4770   -2.3850 F   0  0  0  0  0  0  0  0  0  0  0  0
   29.3950   52.4170   -4.6460 C   0  0  0  0  0  0  0  0  0  0  0  0
   29.3710   53.7800   -4.7100 O   0  0  0  0  0  0  0  0  0  0  0  0
  1  2  1  0
  2  3  2  3
  2  4  1  0
  4  5  2  0
  4  6  1  0
  3  7  1  0
  7  8  1  0
  6  9  1  0
  8 10  1  0
  9 11  2  0
  9 12  1  0
 10 13  2  0
 11 14  1  0
 12 15  2  0
 10 16  1  0
 14 17  2  0
 15 17  1  0
 16 18  2  0
 16 19  1  0
 18 20  1  0
 19 21  2  0
 20 22  1  0
 20 23  2  0
 21 23  1  0
 23 24  1  0
M  END
