mac-x0333-mac-x0436
     RDKit          3D

 28 31  0  0  0  0  0  0  0  0999 V2000
   29.8200   48.3390   -3.7920 O   0  0  0  0  0  0  0  0  0  0  0  0
   29.6630   49.6100   -4.2720 C   0  0  0  0  0  0  0  0  0  0  0  0
   28.7100   49.8590   -5.2800 C   0  0  0  0  0  0  0  0  0  0  0  0
   30.4610   50.6360   -3.7380 C   0  0  0  0  0  0  0  0  0  0  0  0
   31.4860   50.3860   -2.6590 C   0  0  0  0  0  0  0  0  0  0  0  0
   30.2510   51.9050   -4.2640 C   0  0  0  0  0  0  0  0  0  0  0  0
   28.5340   51.1500   -5.7790 C   0  0  0  0  0  0  0  0  0  0  0  0
   32.8310   49.9010   -3.2200 C   0  0  0  0  0  0  0  0  0  0  0  0
   29.3190   52.1510   -5.2510 C   0  0  0  0  0  0  0  0  0  0  0  0
   30.9040   53.0450   -3.9010 O   0  0  0  0  0  0  0  0  0  0  0  0
   32.7790   48.4540   -3.3820 N   0  0  0  0  0  0  0  0  0  0  0  0
   29.2780   53.4600   -5.6230 O   0  0  0  0  0  0  0  0  0  0  0  0
   30.1660   54.0330   -4.6450 C   0  0  0  0  0  0  0  0  0  0  0  0
   33.8210   47.6920   -3.4620 C   0  0  0  0  0  0  0  0  0  0  0  0
   33.8190   46.1530   -3.6420 C   0  0  0  0  0  0  0  0  0  0  0  0
   35.0630   48.2870   -3.3870 N   0  0  0  0  0  0  0  0  0  0  0  0
   32.5990   45.4320   -4.1710 C   0  0  0  0  0  0  0  0  0  0  0  0
   36.1260   47.5100   -2.8740 C   0  0  0  0  0  0  0  0  0  0  0  0
   34.8690   45.4440   -3.3460 N   0  0  0  0  0  0  0  0  0  0  0  0
   32.9430   44.3920   -5.2360 C   0  0  0  0  0  0  0  0  0  0  0  0
   36.0140   46.1040   -2.8610 C   0  0  0  0  0  0  0  0  0  0  0  0
   37.2850   48.1190   -2.3830 C   0  0  0  0  0  0  0  0  0  0  0  0
   32.3340   44.7030   -6.5770 C   0  0  0  0  0  0  0  0  0  0  0  0
   37.0610   45.3320   -2.3560 C   0  0  0  0  0  0  0  0  0  0  0  0
   38.3280   47.3330   -1.8820 C   0  0  0  0  0  0  0  0  0  0  0  0
   33.2730   45.0540   -7.4850 O   0  0  0  0  0  0  0  0  0  0  0  0
   31.1580   44.6660   -6.8980 O   0  0  0  0  0  0  0  0  0  0  0  0
   38.2170   45.9450   -1.8670 C   0  0  0  0  0  0  0  0  0  0  0  0
  1  2  1  0
  2  3  2  0
  2  4  1  0
  4  5  1  0
  4  6  2  0
  3  7  1  0
  5  8  1  0
  6  9  1  0
  7  9  2  0
  6 10  1  0
  8 11  1  0
  9 12  1  0
 10 13  1  0
 12 13  1  0
 11 14  2  3
 14 15  1  0
 14 16  1  0
 15 17  1  0
 16 18  1  0
 15 19  2  0
 17 20  1  0
 18 21  2  0
 19 21  1  0
 18 22  1  0
 20 23  1  0
 21 24  1  0
 22 25  2  0
 23 26  1  0
 23 27  2  0
 24 28  2  0
 25 28  1  0
M  END
