mac-x0348-mac-x0341
     RDKit          3D

 29 32  0  0  0  0  0  0  0  0999 V2000
   27.5620   44.3270   -0.9150 C   0  0  0  0  0  0  0  0  0  0  0  0
   28.5130   45.2250   -1.5320 N   0  0  0  0  0  0  0  0  0  0  0  0
   29.0490   45.0500   -2.7800 C   0  0  0  0  0  0  0  0  0  0  0  0
   29.0090   46.3790   -0.9560 C   0  0  0  0  0  0  0  0  0  0  0  0
   29.9110   46.1050   -3.0330 C   0  0  0  0  0  0  0  0  0  0  0  0
   29.8850   46.9410   -1.8810 C   0  0  0  0  0  0  0  0  0  0  0  0
   28.7690   46.9820    0.2910 C   0  0  0  0  0  0  0  0  0  0  0  0
   30.7410   46.4000   -4.2570 C   0  0  1  0  0  0  0  0  0  0  0  0
   30.5460   48.1410   -1.5630 C   0  0  0  0  0  0  0  0  0  0  0  0
   29.4400   48.1760    0.5830 C   0  0  0  0  0  0  0  0  0  0  0  0
   31.8050   45.3750   -4.6350 C   0  0  0  0  0  0  0  0  0  0  0  0
   29.8340   46.6640   -5.4570 C   0  0  0  0  0  0  0  0  0  0  0  0
   30.3160   48.7500   -0.3300 C   0  0  0  0  0  0  0  0  0  0  0  0
   32.3780   45.8010   -5.9600 C   0  0  0  0  0  0  0  0  0  0  0  0
   28.6950   47.5930   -5.0620 C   0  0  0  0  0  0  0  0  0  0  0  0
   31.8320   45.6960   -7.0460 O   0  0  0  0  0  0  0  0  0  0  0  0
   33.6010   46.3540   -5.8620 O   0  0  0  0  0  0  0  0  0  0  0  0
   28.7400   48.9400   -5.6900 C   0  0  0  0  0  0  0  0  0  0  0  0
   28.4840   49.0520   -7.0560 C   0  0  0  0  0  0  0  0  0  0  0  0
   29.0250   50.0930   -4.9410 C   0  0  0  0  0  0  0  0  0  0  0  0
   29.0300   51.3340   -5.5820 C   0  0  0  0  0  0  0  0  0  0  0  0
   28.4930   50.2920   -7.6770 C   0  0  0  0  0  0  0  0  0  0  0  0
   29.3100   52.5870   -4.8620 C   0  0  0  0  0  0  0  0  0  0  0  0
   28.7600   51.4460   -6.9480 C   0  0  0  0  0  0  0  0  0  0  0  0
   29.8060   52.6170   -3.7400 O   0  0  0  0  0  0  0  0  0  0  0  0
   28.9690   53.7280   -5.5470 N   0  0  0  0  0  0  0  0  0  0  0  0
   28.7360   52.6800   -7.6170 N   0  0  0  0  0  0  0  0  0  0  0  0
   28.8250   53.7540   -6.9040 C   0  0  0  0  0  0  0  0  0  0  0  0
   28.7810   54.9720   -7.4970 N   0  0  0  0  0  0  0  0  0  0  0  0
  1  2  1  0
  2  3  1  0
  2  4  1  0
  3  5  2  0
  4  6  2  0
  5  6  1  0
  4  7  1  0
  5  8  1  0
  6  9  1  0
  7 10  2  0
  8 11  1  6
  8 12  1  0
  9 13  2  0
 10 13  1  0
 11 14  1  0
 12 15  1  0
 14 16  2  0
 14 17  1  0
 15 18  1  0
 18 19  2  0
 18 20  1  0
 20 21  2  0
 19 22  1  0
 21 23  1  0
 21 24  1  0
 22 24  2  0
 23 25  2  0
 23 26  1  0
 24 27  1  0
 26 28  1  0
 27 28  2  0
 28 29  1  0
M  END
