mac-x0451-mac-x0271
     RDKit          3D

 18 20  0  0  0  0  0  0  0  0999 V2000
   29.0830   53.8910   -9.1130 N   0  0  0  0  0  0  0  0  0  0  0  0
   29.2890   52.9100   -8.2210 C   0  0  0  0  0  0  0  0  0  0  0  0
   29.2750   53.1270   -6.9430 N   0  0  0  0  0  0  0  0  0  0  0  0
   29.5880   51.2830   -8.6890 S   0  0  0  0  0  0  0  0  0  0  0  0
   29.5090   51.9580   -6.2640 C   0  0  0  0  0  0  0  0  0  0  0  0
   29.7060   50.8450   -7.0520 C   0  0  0  0  0  0  0  0  0  0  0  0
   29.5180   51.9680   -4.7670 C   0  0  1  0  0  0  0  0  0  0  0  0
   29.9750   49.4650   -6.5610 C   0  0  0  0  0  0  0  0  0  0  0  0
   30.1920   50.6140   -4.2570 C   0  0  2  0  0  0  0  0  0  0  0  0
   29.6820   49.3770   -5.0550 C   0  0  2  0  0  0  0  0  0  0  0  0
   30.2340   53.1530   -4.2490 O   0  0  0  0  0  0  0  0  0  0  0  0
   28.0600   52.1170   -4.4350 C   0  0  0  0  0  0  0  0  0  0  0  0
   30.2550   48.2320   -4.5780 F   0  0  0  0  0  0  0  0  0  0  0  0
   29.9450   50.3750   -2.8520 O   0  0  0  0  0  0  0  0  0  0  0  0
   27.4830   53.3260   -4.5230 C   0  0  0  0  0  0  0  0  0  0  0  0
   29.7000   54.4140   -4.3730 C   0  0  0  0  0  0  0  0  0  0  0  0
   30.3210   55.4270   -4.0470 O   0  0  0  0  0  0  0  0  0  0  0  0
   28.2920   54.5140   -4.9170 C   0  0  0  0  0  0  0  0  0  0  0  0
  1  2  1  0
  2  3  2  0
  2  4  1  0
  3  5  1  0
  4  6  1  0
  5  6  2  0
  5  7  1  0
  6  8  1  0
  7  9  1  0
  8 10  1  0
  9 10  1  0
  7 11  1  0
  7 12  1  1
 10 13  1  1
  9 14  1  1
 12 15  2  0
 11 16  1  0
 16 17  2  0
 15 18  1  0
 16 18  1  0
M  END
