mac-x0375-mac-x0319
     RDKit          3D

 18 19  0  0  0  0  0  0  0  0999 V2000
   31.6340   44.5440   -7.2800 O   0  0  0  0  0  0  0  0  0  0  0  0
   32.7680   45.0880   -6.7750 C   0  0  0  0  0  0  0  0  0  0  0  0
   33.4050   45.8590   -7.4780 O   0  0  0  0  0  0  0  0  0  0  0  0
   33.0820   44.6200   -5.3420 C   0  0  1  0  0  0  0  0  0  0  0  0
   34.4740   44.8890   -5.0970 O   0  0  0  0  0  0  0  0  0  0  0  0
   32.1990   45.2910   -4.2930 C   0  0  0  0  0  0  0  0  0  0  0  0
   34.8040   45.6830   -4.0330 C   0  0  0  0  0  0  0  0  0  0  0  0
   31.2520   44.5320   -3.5850 C   0  0  0  0  0  0  0  0  0  0  0  0
   32.3060   46.6630   -4.0070 C   0  0  0  0  0  0  0  0  0  0  0  0
   34.6710   45.3450   -2.6850 C   0  0  0  0  0  0  0  0  0  0  0  0
   35.3160   46.9370   -4.3730 C   0  0  0  0  0  0  0  0  0  0  0  0
   30.4460   45.1340   -2.6240 C   0  0  0  0  0  0  0  0  0  0  0  0
   31.4910   47.2570   -3.0390 C   0  0  0  0  0  0  0  0  0  0  0  0
   29.5430   44.3470   -1.9670 O   0  0  0  0  0  0  0  0  0  0  0  0
   35.0470   46.2550   -1.6940 C   0  0  0  0  0  0  0  0  0  0  0  0
   35.6920   47.8470   -3.3840 C   0  0  0  0  0  0  0  0  0  0  0  0
   30.5570   46.4910   -2.3430 C   0  0  0  0  0  0  0  0  0  0  0  0
   35.5570   47.5040   -2.0410 C   0  0  0  0  0  0  0  0  0  0  0  0
  1  2  1  0
  2  3  2  0
  2  4  1  0
  4  5  1  1
  4  6  1  0
  5  7  1  0
  6  8  2  0
  6  9  1  0
  7 10  2  0
  7 11  1  0
  8 12  1  0
  9 13  2  0
 12 14  1  0
 10 15  1  0
 11 16  2  0
 12 17  2  0
 13 17  1  0
 15 18  2  0
 16 18  1  0
M  END
