mac-x0148-mac-x0138
     RDKit          3D

 20 23  0  0  0  0  0  0  0  0999 V2000
   28.8220   49.3390   -3.0500 C   0  0  0  0  0  0  0  0  0  0  0  0
   28.7940   49.7850   -4.4600 C   0  0  0  0  0  0  0  0  0  0  0  0
   29.3690   49.1090   -5.5870 C   0  0  0  0  0  0  0  0  0  0  0  0
   28.2330   50.8970   -4.9700 C   0  0  0  0  0  0  0  0  0  0  0  0
   29.0360   50.0000   -6.7290 C   0  0  0  0  0  0  0  0  0  0  0  0
   30.0690   47.9760   -5.8400 C   0  0  0  0  0  0  0  0  0  0  0  0
   28.3630   51.0570   -6.3430 N   0  0  0  0  0  0  0  0  0  0  0  0
   30.4050   47.1060   -4.7810 N   0  0  0  0  0  0  0  0  0  0  0  0
   30.4770   47.6330   -7.1370 N   0  0  0  0  0  0  0  0  0  0  0  0
   29.4630   49.6080   -7.9700 N   0  0  0  0  0  0  0  0  0  0  0  0
   29.0210   50.3160   -9.1060 N   0  0  0  0  0  0  0  0  0  0  0  0
   31.2540   47.6600   -3.6970 C   0  0  1  0  0  0  0  0  0  0  0  0
   30.6770   45.7000   -5.1410 C   0  0  0  0  0  0  0  0  0  0  0  0
   30.1640   48.4400   -8.1110 C   0  0  0  0  0  0  0  0  0  0  0  0
   30.9330   47.1360   -2.2920 C   0  0  0  0  0  0  0  0  0  0  0  0
   32.7380   47.3400   -3.8520 C   0  0  1  0  0  0  0  0  0  0  0  0
   32.1450   45.4670   -5.4710 C   0  0  0  0  0  0  0  0  0  0  0  0
   33.2110   47.5730   -2.4250 C   0  0  0  0  0  0  0  0  0  0  0  0
   32.1770   47.0770   -1.5650 O   0  0  0  0  0  0  0  0  0  0  0  0
   33.0530   45.9140   -4.3390 C   0  0  0  0  0  0  0  0  0  0  0  0
  1  2  1  0
  2  3  1  0
  2  4  2  0
  3  5  1  0
  3  6  2  0
  4  7  1  0
  5  7  2  0
  6  8  1  0
  6  9  1  0
  5 10  1  0
 10 11  1  0
  8 12  1  0
  8 13  1  0
  9 14  2  0
 10 14  1  0
 12 15  1  1
 12 16  1  0
 13 17  1  0
 16 18  1  1
 15 19  1  0
 18 19  1  0
 16 20  1  0
 17 20  1  0
M  END
