mac-x0212-mac-x0411
     RDKit          3D

 26 27  0  0  0  0  0  0  0  0999 V2000
   30.6470   53.6450   -6.1990 C   0  0  0  0  0  0  0  0  0  0  0  0
   29.2620   54.0720   -5.1610 S   0  0  0  0  0  0  0  0  0  0  0  0
   28.3410   54.8810   -5.9270 O   0  0  0  0  0  0  0  0  0  0  0  0
   29.7960   54.5410   -3.8980 O   0  0  0  0  0  0  0  0  0  0  0  0
   28.5760   52.5690   -4.8300 N   0  0  0  0  0  0  0  0  0  0  0  0
   29.3770   51.3900   -4.8390 C   0  0  0  0  0  0  0  0  0  0  0  0
   29.5640   50.6470   -6.0040 C   0  0  0  0  0  0  0  0  0  0  0  0
   29.9850   50.9750   -3.6500 C   0  0  0  0  0  0  0  0  0  0  0  0
   30.3550   49.4940   -5.9860 C   0  0  0  0  0  0  0  0  0  0  0  0
   30.7800   49.8190   -3.6280 C   0  0  0  0  0  0  0  0  0  0  0  0
   30.9700   49.0700   -4.7990 C   0  0  0  0  0  0  0  0  0  0  0  0
   31.8190   47.8440   -4.7600 C   0  0  0  0  0  0  0  0  0  0  0  0
   32.0290   47.2020   -5.7800 O   0  0  0  0  0  0  0  0  0  0  0  0
   32.2940   47.5720   -3.4820 O   0  0  0  0  0  0  0  0  0  0  0  0
   33.7000   47.4790   -3.3610 C   0  0  0  0  0  0  0  0  0  0  0  0
   34.3830   46.2360   -3.4260 C   0  0  0  0  0  0  0  0  0  0  0  0
   34.4070   48.6710   -3.1670 C   0  0  0  0  0  0  0  0  0  0  0  0
   33.6610   45.0820   -3.6210 O   0  0  0  0  0  0  0  0  0  0  0  0
   35.7940   48.6410   -3.0340 C   0  0  0  0  0  0  0  0  0  0  0  0
   35.7830   46.2320   -3.2890 C   0  0  0  0  0  0  0  0  0  0  0  0
   36.7140   44.7760   -3.3520 Cl  0  0  0  0  0  0  0  0  0  0  0  0
   33.0000   45.1040   -4.8920 C   0  0  0  0  0  0  0  0  0  0  0  0
   36.4810   47.4260   -3.0940 C   0  0  0  0  0  0  0  0  0  0  0  0
   33.2270   43.8380   -5.7000 C   0  0  0  0  0  0  0  0  0  0  0  0
   32.1000   43.1800   -6.0440 O   0  0  0  0  0  0  0  0  0  0  0  0
   34.3160   43.3970   -6.0500 O   0  0  0  0  0  0  0  0  0  0  0  0
  1  2  1  0
  2  3  2  0
  2  4  2  0
  2  5  1  0
  5  6  1  0
  6  7  2  0
  6  8  1  0
  7  9  1  0
  8 10  2  0
  9 11  2  0
 10 11  1  0
 11 12  1  0
 12 13  2  0
 12 14  1  0
 14 15  1  0
 15 16  2  0
 15 17  1  0
 16 18  1  0
 17 19  2  0
 16 20  1  0
 20 21  1  0
 18 22  1  0
 19 23  1  0
 20 23  2  0
 22 24  1  0
 24 25  1  0
 24 26  2  0
M  END
