mac-x0159-mac-x0375
     RDKit          3D

 30 33  0  0  0  0  0  0  0  0999 V2000
   28.3470   51.7270   -6.2210 N   0  0  0  0  0  0  0  0  0  0  0  0
   29.1990   50.5810   -5.9660 C   0  0  2  0  0  0  0  0  0  0  0  0
   28.6710   49.2830   -6.5990 C   0  0  2  0  0  0  0  0  0  0  0  0
   29.1950   50.4490   -4.5110 N   0  0  0  0  0  0  0  0  0  0  0  0
   29.9780   49.2800   -4.0730 C   0  0  0  0  0  0  0  0  0  0  0  0
   29.6010   48.2010   -6.1430 C   0  0  1  0  0  0  0  0  0  0  0  0
   28.7520   49.1420   -8.0670 N   0  0  0  0  0  0  0  0  0  0  0  0
   29.5680   48.0340   -4.7170 N   0  0  0  0  0  0  0  0  0  0  0  0
   29.0710   47.0890   -6.9130 N   0  0  0  0  0  0  0  0  0  0  0  0
   28.8300   47.6810   -8.2270 C   0  0  0  0  0  0  0  0  0  0  0  0
   30.2000   46.8300   -4.1410 C   0  0  2  0  0  0  0  0  0  0  0  0
   30.7980   45.8740   -5.1800 C   0  0  0  0  0  0  0  0  0  0  0  0
   29.3500   46.0140   -3.2140 C   0  0  0  0  0  0  0  0  0  0  0  0
   31.7800   44.8680   -4.5920 C   0  0  0  0  0  0  0  0  0  0  0  0
   28.7970   44.7930   -3.5510 C   0  0  0  0  0  0  0  0  0  0  0  0
   29.0610   46.4410   -1.9270 N   0  0  0  0  0  0  0  0  0  0  0  0
   33.1710   45.3790   -4.8830 C   0  0  2  0  0  0  0  0  0  0  0  0
   28.3080   45.5530   -1.3230 C   0  0  0  0  0  0  0  0  0  0  0  0
   27.9020   44.1630   -2.2470 S   0  0  0  0  0  0  0  0  0  0  0  0
   27.8100   45.6900    0.0670 C   0  0  0  0  0  0  0  0  0  0  0  0
   33.4740   45.0360   -6.3300 C   0  0  0  0  0  0  0  0  0  0  0  0
   34.1790   44.8050   -4.0300 O   0  0  0  0  0  0  0  0  0  0  0  0
   32.3510   44.7560   -7.0380 O   0  0  0  0  0  0  0  0  0  0  0  0
   34.5830   45.0170   -6.8270 O   0  0  0  0  0  0  0  0  0  0  0  0
   35.1410   45.6980   -3.6410 C   0  0  0  0  0  0  0  0  0  0  0  0
   36.4950   45.4370   -3.4430 C   0  0  0  0  0  0  0  0  0  0  0  0
   34.6600   46.9980   -3.4370 C   0  0  0  0  0  0  0  0  0  0  0  0
   37.3550   46.4690   -3.0500 C   0  0  0  0  0  0  0  0  0  0  0  0
   35.5180   48.0250   -3.0470 C   0  0  0  0  0  0  0  0  0  0  0  0
   36.8670   47.7600   -2.8550 C   0  0  0  0  0  0  0  0  0  0  0  0
  2  1  1  1
  2  3  1  0
  2  4  1  0
  4  5  1  0
  3  6  1  0
  3  7  1  6
  5  8  1  0
  6  8  1  0
  6  9  1  6
  7 10  1  0
  9 10  1  0
  8 11  1  0
 11 12  1  6
 11 13  1  0
 12 14  1  0
 13 15  2  0
 13 16  1  0
 17 14  1  1
 16 18  2  0
 15 19  1  0
 18 19  1  0
 18 20  1  0
 17 21  1  0
 17 22  1  0
 21 23  1  0
 21 24  2  0
 22 25  1  0
 25 26  2  0
 25 27  1  0
 26 28  1  0
 27 29  2  0
 28 30  2  0
 29 30  1  0
M  END
