mac-x0572-mac-x0321
     RDKit          3D

 17 18  0  0  0  0  0  0  0  0999 V2000
   28.1410   55.9000   -6.5680 C   0  0  0  0  0  0  0  0  0  0  0  0
   28.7890   54.6790   -5.9690 C   0  0  0  0  0  0  0  0  0  0  0  0
   28.4390   53.5010   -6.5950 N   0  0  0  0  0  0  0  0  0  0  0  0
   29.6270   54.7760   -4.9200 C   0  0  0  0  0  0  0  0  0  0  0  0
   29.9690   55.9630   -4.3030 O   0  0  0  0  0  0  0  0  0  0  0  0
   30.2220   53.5270   -4.3940 C   0  0  0  0  0  0  0  0  0  0  0  0
   29.0750   52.3980   -6.3180 C   0  0  0  0  0  0  0  0  0  0  0  0
   30.6790   53.5250   -3.2480 O   0  0  0  0  0  0  0  0  0  0  0  0
   30.2210   52.3300   -5.3160 C   0  0  2  0  0  0  0  0  0  0  0  0
   28.7090   51.1120   -6.9860 C   0  0  0  0  0  0  0  0  0  0  0  0
   27.9230   51.1570   -8.5130 Cl  0  0  0  0  0  0  0  0  0  0  0  0
   29.0050   49.9590   -6.3710 C   0  0  0  0  0  0  0  0  0  0  0  0
   30.2440   51.0130   -4.5730 C   0  0  0  0  0  0  0  0  0  0  0  0
   29.6700   49.9010   -5.0770 C   0  0  0  0  0  0  0  0  0  0  0  0
   29.6950   48.6010   -4.3400 C   0  0  0  0  0  0  0  0  0  0  0  0
   29.9500   47.5310   -5.1230 O   0  0  0  0  0  0  0  0  0  0  0  0
   29.5050   48.5150   -3.1360 O   0  0  0  0  0  0  0  0  0  0  0  0
  1  2  1  0
  2  3  1  0
  2  4  2  0
  4  5  1  0
  4  6  1  0
  3  7  2  0
  6  8  2  0
  6  9  1  0
  7  9  1  0
  7 10  1  0
 10 11  1  0
 10 12  2  0
  9 13  1  1
 12 14  1  0
 13 14  2  0
 14 15  1  0
 15 16  1  0
 15 17  2  0
M  END
