mac-x0328-mac-x0226
     RDKit          3D

 25 27  0  0  0  0  0  0  0  0999 V2000
   29.7040   47.8390   -3.5180 O   0  0  0  0  0  0  0  0  0  0  0  0
   30.2100   48.5180   -4.5580 C   0  0  0  0  0  0  0  0  0  0  0  0
   30.8450   47.8600   -5.4550 N   0  0  0  0  0  0  0  0  0  0  0  0
   29.9040   49.9450   -4.4230 C   0  0  0  0  0  0  0  0  0  0  0  0
   30.9810   46.4120   -5.2880 C   0  0  0  0  0  0  0  0  0  0  0  0
   29.4410   50.6660   -5.5270 C   0  0  0  0  0  0  0  0  0  0  0  0
   30.0780   50.5700   -3.1830 C   0  0  0  0  0  0  0  0  0  0  0  0
   31.7320   45.7280   -6.2980 O   0  0  0  0  0  0  0  0  0  0  0  0
   29.1540   52.0250   -5.3880 C   0  0  0  0  0  0  0  0  0  0  0  0
   29.7900   51.9300   -3.0480 C   0  0  0  0  0  0  0  0  0  0  0  0
   33.0870   45.8370   -6.2300 C   0  0  0  0  0  0  0  0  0  0  0  0
   29.3290   52.6440   -4.1530 C   0  0  0  0  0  0  0  0  0  0  0  0
   29.0350   53.9720   -4.0660 O   0  0  0  0  0  0  0  0  0  0  0  0
   33.7870   46.4830   -6.9990 O   0  0  0  0  0  0  0  0  0  0  0  0
   33.6420   45.0850   -5.1200 C   0  0  0  0  0  0  0  0  0  0  0  0
   33.2990   43.7880   -4.6980 C   0  0  0  0  0  0  0  0  0  0  0  0
   34.6280   45.4680   -4.2290 C   0  0  0  0  0  0  0  0  0  0  0  0
   34.0000   43.3820   -3.6390 N   0  0  0  0  0  0  0  0  0  0  0  0
   34.8240   44.4240   -3.3490 N   0  0  0  0  0  0  0  0  0  0  0  0
   35.7370   44.3590   -2.2580 C   0  0  0  0  0  0  0  0  0  0  0  0
   36.5450   45.4540   -1.9200 C   0  0  0  0  0  0  0  0  0  0  0  0
   35.8320   43.1770   -1.5070 C   0  0  0  0  0  0  0  0  0  0  0  0
   37.4330   45.3620   -0.8430 C   0  0  0  0  0  0  0  0  0  0  0  0
   36.7220   43.0930   -0.4340 C   0  0  0  0  0  0  0  0  0  0  0  0
   37.5210   44.1850   -0.1030 C   0  0  0  0  0  0  0  0  0  0  0  0
  1  2  1  0
  2  3  2  3
  2  4  1  0
  3  5  1  0
  4  6  2  0
  4  7  1  0
  5  8  1  0
  6  9  1  0
  7 10  2  0
  8 11  1  0
  9 12  2  0
 10 12  1  0
 12 13  1  0
 11 14  2  0
 11 15  1  0
 15 16  1  0
 15 17  2  0
 16 18  2  0
 17 19  1  0
 18 19  1  0
 19 20  1  0
 20 21  2  0
 20 22  1  0
 21 23  1  0
 22 24  2  0
 23 25  2  0
 24 25  1  0
M  END
