mac-x0132-mac-x0584
     RDKit          3D

 28 33  0  0  0  0  0  0  0  0999 V2000
   29.1460   52.2850   -7.2120 N   0  0  0  0  0  0  0  0  0  0  0  0
   29.5090   52.5730   -5.9010 C   0  0  0  0  0  0  0  0  0  0  0  0
   30.1040   53.7750   -5.7760 N   0  0  0  0  0  0  0  0  0  0  0  0
   29.2790   51.7040   -4.8390 C   0  0  0  0  0  0  0  0  0  0  0  0
   29.7240   52.2010   -3.6160 C   0  0  0  0  0  0  0  0  0  0  0  0
   30.4830   54.1280   -4.5440 C   0  0  0  0  0  0  0  0  0  0  0  0
   28.6050   50.3360   -4.9290 C   0  0  2  0  0  0  0  0  0  0  0  0
   30.3210   53.3970   -3.4440 N   0  0  0  0  0  0  0  0  0  0  0  0
   29.5760   51.4490   -2.3700 C   0  0  0  0  0  0  0  0  0  0  0  0
   28.4110   49.5880   -3.5510 C   0  0  0  0  0  0  0  0  0  0  0  0
   29.0510   49.2960   -5.9660 C   0  0  0  0  0  0  0  0  0  0  0  0
   27.1650   50.5690   -5.4880 C   0  0  0  0  0  0  0  0  0  0  0  0
   28.9750   50.2530   -2.3350 C   0  0  0  0  0  0  0  0  0  0  0  0
   28.2230   49.4420   -7.0900 C   0  0  0  0  0  0  0  0  0  0  0  0
   30.0340   48.2980   -6.0410 C   0  0  0  0  0  0  0  0  0  0  0  0
   27.2420   50.4710   -6.9590 N   0  0  0  0  0  0  0  0  0  0  0  0
   30.9630   47.9790   -5.0310 N   0  0  0  0  0  0  0  0  0  0  0  0
   30.1130   47.5580   -7.1670 N   0  0  0  0  0  0  0  0  0  0  0  0
   28.3020   48.7160   -8.2010 N   0  0  0  0  0  0  0  0  0  0  0  0
   30.8660   46.6200   -4.4280 C   0  0  1  0  0  0  0  0  0  0  0  0
   31.1670   48.9640   -3.9520 C   0  0  0  0  0  0  0  0  0  0  0  0
   29.2610   47.7940   -8.1800 C   0  0  0  0  0  0  0  0  0  0  0  0
   32.2090   45.8950   -4.3710 C   0  0  0  0  0  0  0  0  0  0  0  0
   30.3770   46.9030   -2.9950 C   0  0  0  0  0  0  0  0  0  0  0  0
   31.1250   48.1690   -2.6380 C   0  0  0  0  0  0  0  0  0  0  0  0
   32.3160   44.6430   -5.3060 C   0  0  0  0  0  0  0  0  0  0  0  0
   33.4130   46.4670   -5.1830 C   0  0  0  0  0  0  0  0  0  0  0  0
   33.8050   45.0020   -5.4780 C   0  0  0  0  0  0  0  0  0  0  0  0
  1  2  1  0
  2  3  2  0
  2  4  1  0
  4  5  2  0
  3  6  1  0
  4  7  1  0
  5  8  1  0
  6  8  2  0
  5  9  1  0
  7 10  1  1
  7 11  1  0
  7 12  1  0
  9 13  2  0
 10 13  1  0
 11 14  2  0
 11 15  1  0
 12 16  1  0
 14 16  1  0
 15 17  1  0
 15 18  2  0
 14 19  1  0
 17 20  1  0
 17 21  1  0
 18 22  1  0
 19 22  2  0
 20 23  1  1
 20 24  1  0
 21 25  1  0
 24 25  1  0
 23 26  1  0
 23 27  1  0
 26 28  1  0
 27 28  1  0
M  END
