mac-x0439-mac-x0402
     RDKit          3D

 23 26  0  0  0  0  0  0  0  0999 V2000
   30.9100   47.9150   -3.0470 C   0  0  0  0  0  0  0  0  0  0  0  0
   29.9430   46.7750   -2.8370 C   0  0  0  0  0  0  0  0  0  0  0  0
   30.3070   45.3880   -3.2970 C   0  0  2  0  0  0  0  0  0  0  0  0
   30.2920   49.1820   -3.6040 C   0  0  0  0  0  0  0  0  0  0  0  0
   28.7400   46.9470   -2.2400 C   0  0  0  0  0  0  0  0  0  0  0  0
   29.8450   50.1780   -2.7290 C   0  0  0  0  0  0  0  0  0  0  0  0
   30.1610   49.3710   -4.9940 C   0  0  0  0  0  0  0  0  0  0  0  0
   31.0270   45.1430   -4.5760 C   0  0  0  0  0  0  0  0  0  0  0  0
   29.0190   44.7000   -3.7180 C   0  0  0  0  0  0  0  0  0  0  0  0
   27.8180   45.8340   -2.0430 C   0  0  0  0  0  0  0  0  0  0  0  0
   29.5830   50.5630   -5.4630 C   0  0  0  0  0  0  0  0  0  0  0  0
   29.2710   51.3610   -3.2110 C   0  0  0  0  0  0  0  0  0  0  0  0
   30.2380   44.4580   -5.4160 C   0  0  0  0  0  0  0  0  0  0  0  0
   28.9890   44.1710   -4.9040 N   0  0  0  0  0  0  0  0  0  0  0  0
   27.9130   44.6970   -2.7510 C   0  0  0  0  0  0  0  0  0  0  0  0
   29.1370   51.5610   -4.6000 C   0  0  0  0  0  0  0  0  0  0  0  0
   29.2980   51.0680   -7.0850 S   0  0  0  0  0  0  0  0  0  0  0  0
   30.7010   44.0650   -6.7720 C   0  0  0  0  0  0  0  0  0  0  0  0
   28.6240   52.5340   -6.5100 C   0  0  0  0  0  0  0  0  0  0  0  0
   28.5930   52.6780   -5.2100 N   0  0  0  0  0  0  0  0  0  0  0  0
   30.3360   42.8110   -7.1040 O   0  0  0  0  0  0  0  0  0  0  0  0
   31.3400   44.7600   -7.5440 O   0  0  0  0  0  0  0  0  0  0  0  0
   28.1580   53.4690   -7.3570 N   0  0  0  0  0  0  0  0  0  0  0  0
  1  2  1  0
  2  3  1  0
  1  4  1  0
  2  5  2  0
  4  6  2  0
  4  7  1  0
  3  8  1  6
  3  9  1  0
  5 10  1  0
  7 11  2  0
  6 12  1  0
  8 13  2  0
  9 14  2  0
 13 14  1  0
  9 15  1  0
 10 15  2  0
 11 16  1  0
 12 16  2  0
 11 17  1  0
 13 18  1  0
 17 19  1  0
 16 20  1  0
 19 20  2  0
 18 21  1  0
 18 22  2  0
 19 23  1  0
M  END
