mac-x0333-mac-x0115
     RDKit          3D

 26 29  0  0  0  0  0  0  0  0999 V2000
   30.4930   48.2070   -3.2720 O   0  0  0  0  0  0  0  0  0  0  0  0
   30.1240   49.2770   -4.0510 C   0  0  0  0  0  0  0  0  0  0  0  0
   30.1040   50.5280   -3.4850 C   0  0  0  0  0  0  0  0  0  0  0  0
   29.7840   48.8870   -5.4270 C   0  0  0  0  0  0  0  0  0  0  0  0
   29.7500   51.8020   -4.0740 C   0  0  0  0  0  0  0  0  0  0  0  0
   29.2470   49.8820   -6.3910 C   0  0  0  0  0  0  0  0  0  0  0  0
   29.8650   47.6620   -6.1120 C   0  0  0  0  0  0  0  0  0  0  0  0
   29.3010   52.0730   -5.2690 C   0  0  0  0  0  0  0  0  0  0  0  0
   29.0390   51.1970   -6.3390 C   0  0  0  0  0  0  0  0  0  0  0  0
   29.8870   52.9520   -3.3060 O   0  0  0  0  0  0  0  0  0  0  0  0
   30.2490   46.2940   -5.9820 N   0  0  0  0  0  0  0  0  0  0  0  0
   29.3100   48.0860   -7.4000 C   0  0  0  0  0  0  0  0  0  0  0  0
   28.9470   49.2920   -7.5480 N   0  0  0  0  0  0  0  0  0  0  0  0
   30.9700   45.7890   -4.7870 C   0  0  0  0  0  0  0  0  0  0  0  0
   29.0670   53.4200   -5.4960 O   0  0  0  0  0  0  0  0  0  0  0  0
   29.6980   53.9630   -4.3240 C   0  0  0  0  0  0  0  0  0  0  0  0
   30.1160   45.3990   -7.0790 C   0  0  0  0  0  0  0  0  0  0  0  0
   29.1540   47.1280   -8.5090 C   0  0  0  0  0  0  0  0  0  0  0  0
   30.2310   44.6130   -4.1210 C   0  0  0  0  0  0  0  0  0  0  0  0
   28.7220   47.4900   -9.5880 O   0  0  0  0  0  0  0  0  0  0  0  0
   30.6000   43.7900   -7.1810 S   0  0  0  0  0  0  0  0  0  0  0  0
   29.5270   45.8590   -8.2230 N   0  0  0  0  0  0  0  0  0  0  0  0
   30.1010   44.8960   -2.7270 O   0  0  0  0  0  0  0  0  0  0  0  0
   28.8370   44.6000   -2.1280 C   0  0  0  0  0  0  0  0  0  0  0  0
   27.9880   45.8610   -1.9940 C   0  0  0  0  0  0  0  0  0  0  0  0
   28.1270   43.5640   -2.9920 C   0  0  0  0  0  0  0  0  0  0  0  0
  1  2  1  0
  2  3  2  0
  2  4  1  0
  3  5  1  0
  4  6  1  0
  4  7  2  0
  5  8  2  0
  6  9  2  0
  8  9  1  0
  5 10  1  0
  7 11  1  0
  7 12  1  0
  6 13  1  0
 12 13  2  0
 11 14  1  0
  8 15  1  0
 10 16  1  0
 15 16  1  0
 11 17  1  0
 12 18  1  0
 14 19  1  0
 18 20  2  0
 17 21  2  0
 17 22  1  0
 18 22  1  0
 19 23  1  0
 23 24  1  0
 24 25  1  0
 24 26  1  0
M  END
