mac-x0179-mac-x0193
     RDKit          3D

 24 27  0  0  0  0  0  0  0  0999 V2000
   31.6760   46.0720   -5.2180 O   0  0  0  0  0  0  0  0  0  0  0  0
   32.9730   46.0010   -4.8260 C   0  0  0  0  0  0  0  0  0  0  0  0
   33.8420   46.5290   -5.5030 O   0  0  0  0  0  0  0  0  0  0  0  0
   33.2070   45.2070   -3.5220 C   0  0  1  0  0  0  0  0  0  0  0  0
   34.0360   44.0140   -3.7840 N   0  0  0  0  0  0  0  0  0  0  0  0
   33.8180   45.8440   -2.3870 N   0  0  0  0  0  0  0  0  0  0  0  0
   34.7350   43.6560   -2.5690 C   0  0  1  0  0  0  0  0  0  0  0  0
   34.5870   44.8870   -1.5980 C   0  0  1  0  0  0  0  0  0  0  0  0
   34.4920   47.0630   -2.4610 C   0  0  0  0  0  0  0  0  0  0  0  0
   34.1160   48.0990   -2.9740 O   0  0  0  0  0  0  0  0  0  0  0  0
   34.0950   42.5310   -2.0500 O   0  0  0  0  0  0  0  0  0  0  0  0
   36.0780   43.3690   -3.0050 N   0  0  0  0  0  0  0  0  0  0  0  0
   35.8410   45.6190   -1.2630 C   0  0  0  0  0  0  0  0  0  0  0  0
   35.7860   46.9070   -1.7800 C   0  0  0  0  0  0  0  0  0  0  0  0
   36.9570   45.1980   -0.5600 C   0  0  0  0  0  0  0  0  0  0  0  0
   36.8210   47.8120   -1.6270 C   0  0  0  0  0  0  0  0  0  0  0  0
   37.2470   43.1720   -2.1350 C   0  0  0  0  0  0  0  0  0  0  0  0
   38.0160   46.0880   -0.3910 C   0  0  0  0  0  0  0  0  0  0  0  0
   37.9500   47.3860   -0.9210 C   0  0  0  0  0  0  0  0  0  0  0  0
   38.4000   42.4260   -2.8000 C   0  0  0  0  0  0  0  0  0  0  0  0
   36.9530   42.6400   -0.7050 C   0  0  0  0  0  0  0  0  0  0  0  0
   39.0400   41.4120   -1.8600 C   0  0  0  0  0  0  0  0  0  0  0  0
   38.1880   42.5790    0.2090 C   0  0  0  0  0  0  0  0  0  0  0  0
   39.4020   42.0000   -0.4990 C   0  0  0  0  0  0  0  0  0  0  0  0
  1  2  1  0
  2  3  2  0
  4  2  1  6
  4  5  1  0
  4  6  1  0
  5  7  1  0
  6  8  1  0
  7  8  1  0
  6  9  1  0
  9 10  2  0
  7 11  1  1
  7 12  1  0
  8 13  1  6
  9 14  1  0
 13 14  2  0
 13 15  1  0
 14 16  1  0
 12 17  1  0
 15 18  2  0
 16 19  2  0
 18 19  1  0
 17 20  1  0
 17 21  1  0
 20 22  1  0
 21 23  1  0
 22 24  1  0
 23 24  1  0
M  END
