mac-x0451-mac-x0123
     RDKit          3D

 20 23  0  0  0  0  0  0  0  0999 V2000
   30.2340   51.6470  -10.4490 N   0  0  0  0  0  0  0  0  0  0  0  0
   30.1030   51.1960   -9.1880 C   0  0  0  0  0  0  0  0  0  0  0  0
   29.9900   51.9900   -8.1540 N   0  0  0  0  0  0  0  0  0  0  0  0
   30.0740   49.5120   -8.8360 S   0  0  0  0  0  0  0  0  0  0  0  0
   29.8690   51.2460   -6.9900 C   0  0  0  0  0  0  0  0  0  0  0  0
   29.8980   49.8800   -7.1830 C   0  0  0  0  0  0  0  0  0  0  0  0
   29.7240   51.9120   -5.6240 C   0  0  2  0  0  0  0  0  0  0  0  0
   29.7930   48.8530   -6.1160 C   0  0  0  0  0  0  0  0  0  0  0  0
   29.7820   50.8130   -4.4960 C   0  0  0  0  0  0  0  0  0  0  0  0
   29.1310   49.4770   -4.8810 C   0  0  2  0  0  0  0  0  0  0  0  0
   28.3650   52.7050   -5.4440 C   0  0  2  0  0  0  0  0  0  0  0  0
   30.9380   52.9020   -5.4600 C   0  0  0  0  0  0  0  0  0  0  0  0
   29.2760   48.6110   -3.8350 F   0  0  0  0  0  0  0  0  0  0  0  0
   27.4570   52.7020   -6.6130 N   0  0  0  0  0  0  0  0  0  0  0  0
   31.0000   53.5940   -4.1590 N   0  0  0  0  0  0  0  0  0  0  0  0
   28.6690   54.1220   -4.9520 C   0  0  2  0  0  0  0  0  0  0  0  0
   29.6620   54.0680   -3.7930 C   0  0  2  0  0  0  0  0  0  0  0  0
   27.5040   54.9110   -4.3350 C   0  0  0  0  0  0  0  0  0  0  0  0
   29.6330   55.4920   -3.2620 C   0  0  0  0  0  0  0  0  0  0  0  0
   28.1470   55.8700   -3.3240 C   0  0  0  0  0  0  0  0  0  0  0  0
  1  2  1  0
  2  3  2  0
  2  4  1  0
  3  5  1  0
  4  6  1  0
  5  6  2  0
  5  7  1  0
  6  8  1  0
  7  9  1  1
  8 10  1  0
  9 10  1  0
  7 11  1  0
  7 12  1  0
 10 13  1  1
 11 14  1  6
 12 15  1  0
 11 16  1  0
 15 17  1  0
 16 17  1  0
 16 18  1  1
 17 19  1  6
 18 20  1  0
 19 20  1  0
M  END
