mac-x0412-mac-x0387
     RDKit          3D

 21 24  0  0  0  0  0  0  0  0999 V2000
   28.3460   54.7430   -4.4140 O   0  0  0  0  0  0  0  0  0  0  0  0
   28.7280   53.8770   -5.1960 C   0  0  0  0  0  0  0  0  0  0  0  0
   28.0210   53.6070   -6.3590 N   0  0  0  0  0  0  0  0  0  0  0  0
   30.0170   53.0590   -4.9160 C   0  0  2  0  0  0  0  0  0  0  0  0
   29.9370   51.6660   -5.5150 C   0  0  0  0  0  0  0  0  0  0  0  0
   28.1780   52.4550   -6.9260 C   0  0  0  0  0  0  0  0  0  0  0  0
   30.3400   52.9860   -3.4390 C   0  0  0  0  0  0  0  0  0  0  0  0
   29.0550   51.3530   -6.4710 C   0  0  0  0  0  0  0  0  0  0  0  0
   30.8750   50.6910   -4.9710 C   0  0  0  0  0  0  0  0  0  0  0  0
   30.9650   51.9270   -2.8980 C   0  0  0  0  0  0  0  0  0  0  0  0
   31.3550   50.8170   -3.7330 C   0  0  0  0  0  0  0  0  0  0  0  0
   28.9610   49.9980   -7.0250 C   0  0  0  0  0  0  0  0  0  0  0  0
   29.0600   48.8930   -6.1540 C   0  0  0  0  0  0  0  0  0  0  0  0
   28.7900   49.9030   -8.3670 N   0  0  0  0  0  0  0  0  0  0  0  0
   28.9820   47.6140   -6.7330 C   0  0  0  0  0  0  0  0  0  0  0  0
   28.7160   48.6560   -8.8780 C   0  0  0  0  0  0  0  0  0  0  0  0
   29.2320   48.9840   -4.7490 C   0  0  0  0  0  0  0  0  0  0  0  0
   28.8060   47.5010   -8.1150 C   0  0  0  0  0  0  0  0  0  0  0  0
   29.0810   46.4740   -5.9170 C   0  0  0  0  0  0  0  0  0  0  0  0
   29.3290   47.8500   -3.9520 C   0  0  0  0  0  0  0  0  0  0  0  0
   29.2550   46.5940   -4.5360 C   0  0  0  0  0  0  0  0  0  0  0  0
  1  2  2  0
  2  3  1  0
  2  4  1  0
  4  5  1  0
  3  6  2  0
  4  7  1  1
  5  8  2  0
  6  8  1  0
  5  9  1  0
  7 10  2  0
  9 11  2  0
 10 11  1  0
  8 12  1  0
 12 13  1  0
 12 14  2  0
 13 15  2  0
 14 16  1  0
 13 17  1  0
 15 18  1  0
 16 18  2  0
 15 19  1  0
 17 20  2  0
 19 21  2  0
 20 21  1  0
M  END
