mac-x0123-mac-x0228
     RDKit          3D

 16 18  0  0  0  0  0  0  0  0999 V2000
   28.4160   51.8220   -7.3750 N   0  0  0  0  0  0  0  0  0  0  0  0
   28.9290   52.3200   -6.1880 C   0  0  0  0  0  0  0  0  0  0  0  0
   28.9790   53.6100   -5.8600 C   0  0  0  0  0  0  0  0  0  0  0  0
   29.4460   51.4030   -5.2490 N   0  0  0  0  0  0  0  0  0  0  0  0
   29.9840   51.7930   -4.0130 C   0  0  0  0  0  0  0  0  0  0  0  0
   29.5630   53.9540   -4.5330 C   0  0  0  0  0  0  0  0  0  0  0  0
   28.5670   54.8640   -6.5420 C   0  0  0  0  0  0  0  0  0  0  0  0
   29.5100   50.0660   -5.3870 N   0  0  0  0  0  0  0  0  0  0  0  0
   30.0360   53.1200   -3.6450 N   0  0  0  0  0  0  0  0  0  0  0  0
   29.5260   55.4450   -4.3570 C   0  0  0  0  0  0  0  0  0  0  0  0
   29.3970   55.9230   -5.8090 C   0  0  0  0  0  0  0  0  0  0  0  0
   30.3880   50.7010   -3.3670 N   0  0  0  0  0  0  0  0  0  0  0  0
   30.0790   49.6690   -4.2550 C   0  0  0  0  0  0  0  0  0  0  0  0
   30.3580   48.2420   -3.9940 C   0  0  0  0  0  0  0  0  0  0  0  0
   30.1040   47.4830   -5.1060 O   0  0  0  0  0  0  0  0  0  0  0  0
   30.7640   47.7460   -2.9550 O   0  0  0  0  0  0  0  0  0  0  0  0
  1  2  1  0
  2  3  2  0
  2  4  1  0
  4  5  1  0
  3  6  1  0
  3  7  1  0
  4  8  1  0
  5  9  1  0
  6  9  2  0
  6 10  1  0
  7 11  1  0
 10 11  1  0
  5 12  2  0
  8 13  2  0
 12 13  1  0
 13 14  1  0
 14 15  1  0
 14 16  2  0
M  END
