mac-x0338-mac-x0346
     RDKit          3D

 12 13  0  0  0  0  0  0  0  0999 V2000
   28.5210   52.0810   -7.5460 N   0  0  0  0  0  0  0  0  0  0  0  0
   28.9500   52.5020   -6.3120 C   0  0  0  0  0  0  0  0  0  0  0  0
   28.9620   53.7770   -6.0380 N   0  0  0  0  0  0  0  0  0  0  0  0
   29.3880   51.4830   -5.3300 C   0  0  0  0  0  0  0  0  0  0  0  0
   29.3940   54.1680   -4.8080 N   0  0  0  0  0  0  0  0  0  0  0  0
   29.3840   50.1760   -5.7260 N   0  0  0  0  0  0  0  0  0  0  0  0
   29.7750   51.8920   -4.0750 C   0  0  0  0  0  0  0  0  0  0  0  0
   29.7360   53.3330   -3.7650 C   0  0  0  0  0  0  0  0  0  0  0  0
   29.7960   49.3020   -4.7770 C   0  0  0  0  0  0  0  0  0  0  0  0
   30.1880   51.0090   -3.1200 N   0  0  0  0  0  0  0  0  0  0  0  0
   29.9900   53.7770   -2.6430 O   0  0  0  0  0  0  0  0  0  0  0  0
   30.1870   49.7080   -3.5060 C   0  0  0  0  0  0  0  0  0  0  0  0
  1  2  1  0
  2  3  2  0
  2  4  1  0
  3  5  1  0
  4  6  2  0
  4  7  1  0
  5  8  1  0
  7  8  1  0
  6  9  1  0
  7 10  2  0
  8 11  2  0
  9 12  2  0
 10 12  1  0
M  END
