mac-x0231-mac-x0306
     RDKit          3D

 27 30  0  0  0  0  0  0  0  0999 V2000
   34.3760   45.0760   -6.6740 O   0  0  0  0  0  0  0  0  0  0  0  0
   33.1220   44.6160   -6.4450 C   0  0  0  0  0  0  0  0  0  0  0  0
   32.2220   44.7720   -7.2590 O   0  0  0  0  0  0  0  0  0  0  0  0
   32.9920   43.9160   -5.1110 C   0  0  0  0  0  0  0  0  0  0  0  0
   31.7210   44.2400   -4.3460 C   0  0  0  0  0  0  0  0  0  0  0  0
   31.5300   45.5880   -3.7530 C   0  0  0  0  0  0  0  0  0  0  0  0
   30.8320   43.2920   -4.2490 N   0  0  0  0  0  0  0  0  0  0  0  0
   30.3180   45.8350   -3.1100 C   0  0  0  0  0  0  0  0  0  0  0  0
   29.6810   43.5520   -3.5720 N   0  0  0  0  0  0  0  0  0  0  0  0
   32.4920   46.6010   -3.8130 C   0  0  0  0  0  0  0  0  0  0  0  0
   29.3080   44.7640   -3.0450 C   0  0  0  0  0  0  0  0  0  0  0  0
   30.0570   47.0840   -2.5330 C   0  0  0  0  0  0  0  0  0  0  0  0
   32.2340   47.8470   -3.2380 C   0  0  0  0  0  0  0  0  0  0  0  0
   28.2040   44.9540   -2.5470 O   0  0  0  0  0  0  0  0  0  0  0  0
   31.0170   48.1020   -2.5960 C   0  0  0  0  0  0  0  0  0  0  0  0
   30.7420   49.4550   -1.9880 C   0  0  0  0  0  0  0  0  0  0  0  0
   29.9810   50.3080   -2.9240 N   0  0  0  0  0  0  0  0  0  0  0  0
   29.1070   51.2730   -2.4430 C   0  0  0  0  0  0  0  0  0  0  0  0
   30.2250   50.2740   -4.3010 C   0  0  0  0  0  0  0  0  0  0  0  0
   28.5020   52.1830   -3.2180 C   0  0  0  0  0  0  0  0  0  0  0  0
   29.6770   51.1350   -5.1760 C   0  0  0  0  0  0  0  0  0  0  0  0
   28.7240   52.2380   -4.7220 C   0  0  0  0  0  0  0  0  0  0  0  0
   29.0740   53.6450   -5.1760 C   0  0  0  0  0  0  0  0  0  0  0  0
   28.8010   54.1340   -6.4340 N   0  0  0  0  0  0  0  0  0  0  0  0
   29.6730   54.5780   -4.4480 N   0  0  0  0  0  0  0  0  0  0  0  0
   29.7840   55.6770   -5.2510 C   0  0  0  0  0  0  0  0  0  0  0  0
   29.2480   55.4250   -6.4910 C   0  0  0  0  0  0  0  0  0  0  0  0
  1  2  1  0
  2  3  2  0
  2  4  1  0
  4  5  1  0
  5  6  1  0
  5  7  2  0
  6  8  2  0
  7  9  1  0
  6 10  1  0
  8 11  1  0
  9 11  1  0
  8 12  1  0
 10 13  2  0
 11 14  2  0
 12 15  2  0
 13 15  1  0
 15 16  1  0
 16 17  1  0
 17 18  1  0
 17 19  1  0
 18 20  2  0
 19 21  2  0
 20 22  1  0
 21 22  1  0
 22 23  1  0
 23 24  1  0
 23 25  2  0
 25 26  1  0
 24 27  1  0
 26 27  2  0
M  END
