mac-x0139-mac-x0159
     RDKit          3D

 23 25  0  0  0  0  0  0  0  0999 V2000
   30.0430   47.1870   -4.2550 C   0  0  0  0  0  0  0  0  0  0  0  0
   30.2150   46.7700   -5.6620 N   0  0  0  0  0  0  0  0  0  0  0  0
   30.5570   45.3510   -5.8310 C   0  0  0  0  0  0  0  0  0  0  0  0
   29.3200   46.2130   -3.3520 C   0  0  0  0  0  0  0  0  0  0  0  0
   29.5990   47.4380   -6.7390 C   0  0  0  0  0  0  0  0  0  0  0  0
   28.8530   44.9540   -3.6940 C   0  0  0  0  0  0  0  0  0  0  0  0
   29.0680   46.5680   -2.0310 N   0  0  0  0  0  0  0  0  0  0  0  0
   32.0350   45.0800   -5.6150 C   0  0  0  0  0  0  0  0  0  0  0  0
   29.3270   48.7590   -6.7200 C   0  0  0  0  0  0  0  0  0  0  0  0
   29.2650   46.6600   -7.8650 N   0  0  0  0  0  0  0  0  0  0  0  0
   28.4270   45.5970   -1.4120 C   0  0  0  0  0  0  0  0  0  0  0  0
   28.0910   44.2060   -2.3580 S   0  0  0  0  0  0  0  0  0  0  0  0
   32.6820   44.9320   -6.9600 C   0  0  0  0  0  0  0  0  0  0  0  0
   27.9950   45.6360    0.0100 C   0  0  0  0  0  0  0  0  0  0  0  0
   28.6860   49.3630   -7.9040 C   0  0  0  0  0  0  0  0  0  0  0  0
   28.7100   47.2520   -8.8810 C   0  0  0  0  0  0  0  0  0  0  0  0
   29.4670   49.8700   -5.8410 C   0  0  0  0  0  0  0  0  0  0  0  0
   32.0760   44.6370   -7.9820 O   0  0  0  0  0  0  0  0  0  0  0  0
   34.0110   45.1560   -6.9380 O   0  0  0  0  0  0  0  0  0  0  0  0
   28.4170   48.5670   -8.9600 N   0  0  0  0  0  0  0  0  0  0  0  0
   28.4690   50.6310   -7.7590 N   0  0  0  0  0  0  0  0  0  0  0  0
   28.9430   50.9290   -6.4920 C   0  0  0  0  0  0  0  0  0  0  0  0
   28.8700   52.1830   -5.9810 N   0  0  0  0  0  0  0  0  0  0  0  0
  1  2  1  0
  2  3  1  0
  1  4  1  0
  2  5  1  0
  4  6  2  0
  4  7  1  0
  3  8  1  0
  5  9  2  0
  5 10  1  0
  7 11  2  0
  6 12  1  0
 11 12  1  0
  8 13  1  0
 11 14  1  0
  9 15  1  0
 10 16  2  0
  9 17  1  0
 13 18  2  0
 13 19  1  0
 15 20  1  0
 16 20  1  0
 15 21  2  0
 17 22  2  0
 21 22  1  0
 22 23  1  0
M  END
