mac-x0193-mac-x0224
     RDKit          3D

 27 28  0  0  0  0  0  0  0  0999 V2000
   34.5600   45.1890   -6.4270 O   0  0  0  0  0  0  0  0  0  0  0  0
   33.3330   44.8530   -5.9770 C   0  0  0  0  0  0  0  0  0  0  0  0
   32.3890   44.8410   -6.8590 N   0  0  0  0  0  0  0  0  0  0  0  0
   33.3210   44.5570   -4.4790 C   0  0  0  0  0  0  0  0  0  0  0  0
   34.6990   44.4590   -4.0350 N   0  0  0  0  0  0  0  0  0  0  0  0
   31.0110   44.5470   -6.5400 C   0  0  0  0  0  0  0  0  0  0  0  0
   35.0460   43.6560   -2.9740 C   0  0  0  0  0  0  0  0  0  0  0  0
   30.3580   45.8350   -6.4570 N   0  0  0  0  0  0  0  0  0  0  0  0
   34.5020   42.5830   -2.7450 O   0  0  0  0  0  0  0  0  0  0  0  0
   36.0480   44.2380   -2.2410 N   0  0  0  0  0  0  0  0  0  0  0  0
   30.4770   46.4940   -5.3790 C   0  0  0  0  0  0  0  0  0  0  0  0
   31.1470   45.8700   -4.3990 O   0  0  0  0  0  0  0  0  0  0  0  0
   37.2540   43.5480   -1.7730 C   0  0  0  0  0  0  0  0  0  0  0  0
   30.0630   47.8160   -4.9330 C   0  0  0  0  0  0  0  0  0  0  0  0
   37.5680   42.2980   -2.6050 C   0  0  0  0  0  0  0  0  0  0  0  0
   37.1660   43.2420   -0.2770 C   0  0  0  0  0  0  0  0  0  0  0  0
   29.4790   48.6840   -5.8480 C   0  0  0  0  0  0  0  0  0  0  0  0
   30.2550   48.2280   -3.6100 C   0  0  0  0  0  0  0  0  0  0  0  0
   30.8250   47.4300   -2.6520 O   0  0  0  0  0  0  0  0  0  0  0  0
   38.7610   41.4880   -2.0810 C   0  0  0  0  0  0  0  0  0  0  0  0
   38.3680   42.4440    0.2310 C   0  0  0  0  0  0  0  0  0  0  0  0
   29.0850   49.9590   -5.4590 C   0  0  0  0  0  0  0  0  0  0  0  0
   29.8650   49.5040   -3.2070 C   0  0  0  0  0  0  0  0  0  0  0  0
   28.3410   51.0410   -6.6650 S   0  0  0  0  0  0  0  0  0  0  0  0
   39.4000   42.1160   -0.8500 C   0  0  0  0  0  0  0  0  0  0  0  0
   29.2790   50.3720   -4.1340 C   0  0  0  0  0  0  0  0  0  0  0  0
   28.7940   52.6490   -5.9610 C   0  0  0  0  0  0  0  0  0  0  0  0
  1  2  1  0
  2  3  2  3
  2  4  1  0
  4  5  1  0
  3  6  1  0
  5  7  1  0
  6  8  1  0
  7  9  2  0
  7 10  1  0
  8 11  2  3
 11 12  1  0
 10 13  1  0
 11 14  1  0
 13 15  1  0
 13 16  1  0
 14 17  2  0
 14 18  1  0
 18 19  1  0
 15 20  1  0
 16 21  1  0
 17 22  1  0
 18 23  2  0
 22 24  1  0
 20 25  1  0
 21 25  1  0
 22 26  2  0
 23 26  1  0
 24 27  1  0
M  END
