mac-x0472-mac-x0178
     RDKit          3D

 28 30  0  0  0  0  0  0  0  0999 V2000
   29.7580   50.9530   -3.3950 O   0  0  0  0  0  0  0  0  0  0  0  0
   30.6580   49.8660   -3.6950 S   0  0  1  0  0  0  0  0  0  0  0  0
   31.0200   48.7760   -2.6530 N   0  0  0  0  0  0  0  0  0  0  0  0
   29.9360   49.0010   -4.9950 N   0  0  0  0  0  0  0  0  0  0  0  0
   32.1210   50.5810   -4.4100 C   0  0  0  0  0  0  0  0  0  0  0  0
   29.4170   49.7530   -6.0070 C   0  0  0  0  0  0  0  0  0  0  0  0
   33.1920   49.7580   -4.7810 C   0  0  0  0  0  0  0  0  0  0  0  0
   32.1840   51.9580   -4.5990 C   0  0  0  0  0  0  0  0  0  0  0  0
   30.7100   47.4100   -3.0400 C   0  0  0  0  0  0  0  0  0  0  0  0
   29.2120   49.3200   -7.2460 N   0  0  0  0  0  0  0  0  0  0  0  0
   28.9490   51.4050   -5.8080 S   0  0  0  0  0  0  0  0  0  0  0  0
   34.3340   50.3340   -5.3470 C   0  0  0  0  0  0  0  0  0  0  0  0
   33.3290   52.5250   -5.1640 C   0  0  0  0  0  0  0  0  0  0  0  0
   29.8910   46.4430   -2.4280 C   0  0  0  0  0  0  0  0  0  0  0  0
   31.3650   47.1150   -4.2180 C   0  0  0  0  0  0  0  0  0  0  0  0
   28.9960   46.6770   -0.9090 S   0  0  0  0  0  0  0  0  0  0  0  0
   28.4890   51.4170   -7.4580 C   0  0  0  0  0  0  0  0  0  0  0  0
   28.6780   50.2760   -8.0840 N   0  0  0  0  0  0  0  0  0  0  0  0
   34.4000   51.7140   -5.5370 C   0  0  0  0  0  0  0  0  0  0  0  0
   29.7570   45.1910   -3.0630 C   0  0  0  0  0  0  0  0  0  0  0  0
   31.2390   45.9020   -4.8350 C   0  0  0  0  0  0  0  0  0  0  0  0
   28.5700   45.1300   -0.4150 N   0  0  0  0  0  0  0  0  0  0  0  0
   29.9240   47.1180    0.1120 O   0  0  0  0  0  0  0  0  0  0  0  0
   27.7800   47.4080   -1.1620 O   0  0  0  0  0  0  0  0  0  0  0  0
   31.9620   45.6660   -6.0940 C   0  0  0  0  0  0  0  0  0  0  0  0
   30.4270   44.9220   -4.2630 C   0  0  0  0  0  0  0  0  0  0  0  0
   31.3930   45.3220   -7.1120 O   0  0  0  0  0  0  0  0  0  0  0  0
   33.2900   45.8850   -6.0080 O   0  0  0  0  0  0  0  0  0  0  0  0
  1  2  2  0
  2  3  2  0
  2  4  1  6
  2  5  1  0
  4  6  1  0
  5  7  2  0
  5  8  1  0
  3  9  1  0
  6 10  2  0
  6 11  1  0
  7 12  1  0
  8 13  2  0
  9 14  2  0
  9 15  1  0
 14 16  1  0
 11 17  1  0
 10 18  1  0
 17 18  2  0
 12 19  2  0
 13 19  1  0
 14 20  1  0
 15 21  2  0
 16 22  1  0
 16 23  2  0
 16 24  2  0
 21 25  1  0
 20 26  2  0
 21 26  1  0
 25 27  2  0
 25 28  1  0
M  END
