mac-x0358-mac-x0451
     RDKit          3D

 24 26  0  0  0  0  0  0  0  0999 V2000
   32.4870   43.4890   -6.0470 O   0  0  0  0  0  0  0  0  0  0  0  0
   32.3050   44.8390   -5.6400 C   0  0  0  0  0  0  0  0  0  0  0  0
   33.0020   45.5920   -6.6270 O   0  0  0  0  0  0  0  0  0  0  0  0
   32.9820   45.0600   -4.2620 C   0  0  0  0  0  0  0  0  0  0  0  0
   30.8120   45.1950   -5.7270 C   0  0  0  0  0  0  0  0  0  0  0  0
   30.5200   46.4870   -6.4850 C   0  0  0  0  0  0  0  0  0  0  0  0
   32.5170   46.2310   -3.4170 C   0  0  0  0  0  0  0  0  0  0  0  0
   29.4430   47.1990   -5.8620 O   0  0  0  0  0  0  0  0  0  0  0  0
   33.3290   47.3530   -3.1970 C   0  0  0  0  0  0  0  0  0  0  0  0
   31.2420   46.2190   -2.8260 C   0  0  0  0  0  0  0  0  0  0  0  0
   34.5760   47.3960   -3.7560 O   0  0  0  0  0  0  0  0  0  0  0  0
   32.8920   48.4280   -2.4200 C   0  0  0  0  0  0  0  0  0  0  0  0
   30.8000   47.2910   -2.0470 C   0  0  0  0  0  0  0  0  0  0  0  0
   29.4630   48.5650   -5.8840 C   0  0  0  0  0  0  0  0  0  0  0  0
   31.6220   48.3920   -1.8450 C   0  0  0  0  0  0  0  0  0  0  0  0
   29.8950   49.1560   -4.6960 C   0  0  0  0  0  0  0  0  0  0  0  0
   29.0960   49.3650   -6.9660 C   0  0  0  0  0  0  0  0  0  0  0  0
   29.1750   50.7630   -6.8270 C   0  0  0  0  0  0  0  0  0  0  0  0
   29.9720   50.5460   -4.5630 C   0  0  0  0  0  0  0  0  0  0  0  0
   29.6060   51.3670   -5.6460 C   0  0  0  0  0  0  0  0  0  0  0  0
   28.7960   51.9900   -7.9730 S   0  0  0  0  0  0  0  0  0  0  0  0
   29.2270   53.1900   -6.8310 C   0  0  0  0  0  0  0  0  0  0  0  0
   29.6300   52.7520   -5.6650 N   0  0  0  0  0  0  0  0  0  0  0  0
   29.1510   54.4990   -7.1340 N   0  0  0  0  0  0  0  0  0  0  0  0
  2  1  1  0
  2  3  1  0
  2  4  1  0
  2  5  1  0
  5  6  1  0
  4  7  1  0
  6  8  1  0
  7  9  2  0
  7 10  1  0
  9 11  1  0
  9 12  1  0
 10 13  2  0
  8 14  1  0
 12 15  2  0
 13 15  1  0
 14 16  2  0
 14 17  1  0
 17 18  2  0
 16 19  1  0
 18 20  1  0
 19 20  2  0
 18 21  1  0
 21 22  1  0
 20 23  1  0
 22 23  2  0
 22 24  1  0
M  END
