mac-x0436-mac-x0206
     RDKit          3D

 28 30  0  0  0  0  0  0  0  0999 V2000
   33.7260   45.7670   -6.6020 O   0  0  0  0  0  0  0  0  0  0  0  0
   32.5250   45.2760   -6.2340 C   0  0  0  0  0  0  0  0  0  0  0  0
   31.4890   45.5980   -6.7960 O   0  0  0  0  0  0  0  0  0  0  0  0
   32.5870   44.2980   -5.0840 C   0  0  0  0  0  0  0  0  0  0  0  0
   32.5930   44.9780   -3.7170 C   0  0  0  0  0  0  0  0  0  0  0  0
   33.8650   45.7350   -3.4070 C   0  0  0  0  0  0  0  0  0  0  0  0
   33.8380   47.2680   -3.4520 C   0  0  0  0  0  0  0  0  0  0  0  0
   34.9470   45.0740   -3.1040 N   0  0  0  0  0  0  0  0  0  0  0  0
   32.7550   47.9480   -3.5530 N   0  0  0  0  0  0  0  0  0  0  0  0
   35.0520   47.9230   -3.3640 N   0  0  0  0  0  0  0  0  0  0  0  0
   36.1240   45.7920   -2.8290 C   0  0  0  0  0  0  0  0  0  0  0  0
   32.4400   49.3540   -3.5960 C   0  0  0  0  0  0  0  0  0  0  0  0
   36.1930   47.1970   -2.9570 C   0  0  0  0  0  0  0  0  0  0  0  0
   37.2520   45.0710   -2.4210 C   0  0  0  0  0  0  0  0  0  0  0  0
   30.9320   49.4850   -3.3150 C   0  0  0  0  0  0  0  0  0  0  0  0
   38.4470   45.7320   -2.1420 C   0  0  0  0  0  0  0  0  0  0  0  0
   37.3990   47.8500   -2.6760 C   0  0  0  0  0  0  0  0  0  0  0  0
   30.4950   50.7920   -3.7560 N   0  0  0  0  0  0  0  0  0  0  0  0
   38.5200   47.1160   -2.2700 C   0  0  0  0  0  0  0  0  0  0  0  0
   29.7380   51.0560   -4.7630 C   0  0  0  0  0  0  0  0  0  0  0  0
   29.2730   49.9940   -5.4980 N   0  0  0  0  0  0  0  0  0  0  0  0
   29.3750   52.4280   -5.1740 C   0  0  0  0  0  0  0  0  0  0  0  0
   29.6970   53.4740   -4.3090 C   0  0  0  0  0  0  0  0  0  0  0  0
   28.7360   52.7020   -6.3880 C   0  0  0  0  0  0  0  0  0  0  0  0
   30.3190   53.2710   -3.1110 O   0  0  0  0  0  0  0  0  0  0  0  0
   29.3960   54.7880   -4.6380 C   0  0  0  0  0  0  0  0  0  0  0  0
   28.4320   54.0240   -6.7200 C   0  0  0  0  0  0  0  0  0  0  0  0
   28.7600   55.0670   -5.8520 C   0  0  0  0  0  0  0  0  0  0  0  0
  1  2  1  0
  2  3  2  0
  2  4  1  0
  4  5  1  0
  5  6  1  0
  6  7  1  0
  6  8  2  0
  7  9  2  3
  7 10  1  0
  8 11  1  0
  9 12  1  0
 10 13  1  0
 11 13  2  0
 11 14  1  0
 12 15  1  0
 14 16  2  0
 13 17  1  0
 15 18  1  0
 16 19  1  0
 17 19  2  0
 18 20  2  3
 20 21  1  0
 20 22  1  0
 22 23  2  0
 22 24  1  0
 23 25  1  0
 23 26  1  0
 24 27  2  0
 26 28  2  0
 27 28  1  0
M  END
