mac-x0231-mac-x0546
     RDKit          3D

 17 18  0  0  0  0  0  0  0  0999 V2000
   34.2380   45.5420   -6.6460 O   0  0  0  0  0  0  0  0  0  0  0  0
   32.9840   45.1400   -6.3570 C   0  0  0  0  0  0  0  0  0  0  0  0
   32.0530   45.4650   -7.0780 O   0  0  0  0  0  0  0  0  0  0  0  0
   32.9270   44.3040   -5.1150 C   0  0  0  0  0  0  0  0  0  0  0  0
   31.6370   44.4770   -4.3410 C   0  0  0  0  0  0  0  0  0  0  0  0
   31.4550   45.6490   -3.4430 C   0  0  0  0  0  0  0  0  0  0  0  0
   30.7180   43.5660   -4.5100 N   0  0  0  0  0  0  0  0  0  0  0  0
   30.2290   45.7590   -2.7970 C   0  0  0  0  0  0  0  0  0  0  0  0
   29.5440   43.6940   -3.8310 N   0  0  0  0  0  0  0  0  0  0  0  0
   32.4310   46.6340   -3.2160 C   0  0  0  0  0  0  0  0  0  0  0  0
   29.1940   44.7430   -3.0170 C   0  0  0  0  0  0  0  0  0  0  0  0
   29.9620   46.8220   -1.9420 C   0  0  0  0  0  0  0  0  0  0  0  0
   32.1620   47.7100   -2.3500 C   0  0  0  0  0  0  0  0  0  0  0  0
   28.0870   44.8350   -2.4990 O   0  0  0  0  0  0  0  0  0  0  0  0
   30.9160   47.8000   -1.7110 C   0  0  0  0  0  0  0  0  0  0  0  0
   30.4760   48.7610   -0.8480 O   0  0  0  0  0  0  0  0  0  0  0  0
   31.4310   49.6840   -0.3640 C   0  0  0  0  0  0  0  0  0  0  0  0
  1  2  1  0
  2  3  2  0
  2  4  1  0
  4  5  1  0
  5  6  1  0
  5  7  2  0
  6  8  2  0
  7  9  1  0
  6 10  1  0
  8 11  1  0
  9 11  1  0
  8 12  1  0
 10 13  2  0
 11 14  2  0
 12 15  2  0
 13 15  1  0
 15 16  1  0
 16 17  1  0
M  END
