mac-x0115-mac-x0437
     RDKit          3D

 30 33  0  0  0  0  0  0  0  0999 V2000
   29.1620   45.5100   -2.0600 C   0  0  0  0  0  0  0  0  0  0  0  0
   29.5800   44.2180   -2.7570 C   0  0  0  0  0  0  0  0  0  0  0  0
   28.6300   43.0870   -2.3810 C   0  0  0  0  0  0  0  0  0  0  0  0
   29.5040   44.3760   -4.1790 O   0  0  0  0  0  0  0  0  0  0  0  0
   30.6880   43.9600   -4.8800 C   0  0  0  0  0  0  0  0  0  0  0  0
   31.5800   45.1940   -5.2730 C   0  0  2  0  0  0  0  0  0  0  0  0
   32.6630   44.4360   -6.0890 C   0  0  0  0  0  0  0  0  0  0  0  0
   32.1490   45.8620   -3.9770 C   0  0  0  0  0  0  0  0  0  0  0  0
   30.8920   46.1810   -6.2580 N   0  0  0  0  0  0  0  0  0  0  0  0
   32.7770   43.1180   -5.8140 O   0  0  0  0  0  0  0  0  0  0  0  0
   33.3980   44.9280   -6.9410 O   0  0  0  0  0  0  0  0  0  0  0  0
   30.2480   45.7560   -7.4660 C   0  0  0  0  0  0  0  0  0  0  0  0
   30.5310   47.4760   -5.8500 C   0  0  0  0  0  0  0  0  0  0  0  0
   33.5750   46.1890   -3.9390 N   0  0  0  0  0  0  0  0  0  0  0  0
   30.3000   44.2710   -8.2480 S   0  0  0  0  0  0  0  0  0  0  0  0
   29.4540   46.7020   -8.0980 N   0  0  0  0  0  0  0  0  0  0  0  0
   29.1170   47.9280   -6.0590 C   0  0  2  0  0  0  0  0  0  0  0  0
   31.2480   48.4440   -5.2820 C   0  0  0  0  0  0  0  0  0  0  0  0
   34.2220   47.0150   -4.8240 C   0  0  0  0  0  0  0  0  0  0  0  0
   34.5050   45.7450   -3.0270 C   0  0  0  0  0  0  0  0  0  0  0  0
   28.8270   47.7970   -7.5340 C   0  0  0  0  0  0  0  0  0  0  0  0
   29.0650   49.3220   -5.5570 N   0  0  0  0  0  0  0  0  0  0  0  0
   30.2750   49.5260   -5.1380 C   0  0  0  0  0  0  0  0  0  0  0  0
   35.5020   47.1300   -4.5410 N   0  0  0  0  0  0  0  0  0  0  0  0
   35.6960   46.3500   -3.4300 C   0  0  0  0  0  0  0  0  0  0  0  0
   34.4410   44.8970   -1.9110 C   0  0  0  0  0  0  0  0  0  0  0  0
   28.1220   48.5410   -8.2110 O   0  0  0  0  0  0  0  0  0  0  0  0
   36.8780   46.1130   -2.7090 C   0  0  0  0  0  0  0  0  0  0  0  0
   35.6280   44.6730   -1.2060 C   0  0  0  0  0  0  0  0  0  0  0  0
   36.8270   45.2690   -1.5940 C   0  0  0  0  0  0  0  0  0  0  0  0
  1  2  1  0
  2  3  1  0
  2  4  1  0
  4  5  1  0
  6  5  1  1
  6  7  1  0
  6  8  1  0
  6  9  1  0
  7 10  1  0
  7 11  2  0
  9 12  1  0
  9 13  1  0
  8 14  1  0
 12 15  2  0
 12 16  1  0
 13 17  1  0
 13 18  2  0
 14 19  1  0
 14 20  1  0
 16 21  1  0
 17 21  1  0
 17 22  1  6
 18 23  1  0
 22 23  2  0
 19 24  2  0
 20 25  2  0
 24 25  1  0
 20 26  1  0
 21 27  2  0
 25 28  1  0
 26 29  2  0
 28 30  2  0
 29 30  1  0
M  END
