mac-x0333-mac-x0404
     RDKit          3D

 28 31  0  0  0  0  0  0  0  0999 V2000
   28.9430   48.6830   -3.5110 O   0  0  0  0  0  0  0  0  0  0  0  0
   29.1590   49.8170   -4.2420 C   0  0  0  0  0  0  0  0  0  0  0  0
   29.3010   49.5930   -5.6870 C   0  0  0  0  0  0  0  0  0  0  0  0
   29.1980   50.9600   -3.4350 C   0  0  0  0  0  0  0  0  0  0  0  0
   29.0770   48.2280   -5.0820 C   0  0  0  0  0  0  0  0  0  0  0  0
   29.3990   52.1320   -4.0200 C   0  0  0  0  0  0  0  0  0  0  0  0
   29.5030   50.9740   -6.0830 C   0  0  0  0  0  0  0  0  0  0  0  0
   29.4390   47.0650   -6.0200 C   0  0  0  0  0  0  0  0  0  0  0  0
   29.5490   52.1300   -5.3370 C   0  0  0  0  0  0  0  0  0  0  0  0
   29.4730   53.3630   -3.4440 O   0  0  0  0  0  0  0  0  0  0  0  0
   30.4780   46.1090   -5.4400 C   0  0  0  0  0  0  0  0  0  0  0  0
   29.7490   53.3850   -5.8330 O   0  0  0  0  0  0  0  0  0  0  0  0
   29.6530   54.1700   -4.6250 C   0  0  0  0  0  0  0  0  0  0  0  0
   31.1690   45.4100   -6.4790 O   0  0  0  0  0  0  0  0  0  0  0  0
   32.5020   45.2360   -6.2670 C   0  0  0  0  0  0  0  0  0  0  0  0
   33.3730   45.4710   -7.0990 O   0  0  0  0  0  0  0  0  0  0  0  0
   32.8160   44.7110   -4.8590 C   0  0  0  0  0  0  0  0  0  0  0  0
   31.7710   44.5650   -3.9110 O   0  0  0  0  0  0  0  0  0  0  0  0
   31.4430   45.6190   -3.0830 C   0  0  0  0  0  0  0  0  0  0  0  0
   30.1250   45.5960   -2.5470 C   0  0  0  0  0  0  0  0  0  0  0  0
   32.3070   46.6730   -2.7570 C   0  0  0  0  0  0  0  0  0  0  0  0
   29.7090   46.6430   -1.6920 C   0  0  0  0  0  0  0  0  0  0  0  0
   31.8820   47.6980   -1.9140 C   0  0  0  0  0  0  0  0  0  0  0  0
   29.1990   44.5660   -2.8300 C   0  0  0  0  0  0  0  0  0  0  0  0
   30.5940   47.6850   -1.3850 C   0  0  0  0  0  0  0  0  0  0  0  0
   28.4080   46.6350   -1.1550 C   0  0  0  0  0  0  0  0  0  0  0  0
   27.9120   44.5710   -2.2910 C   0  0  0  0  0  0  0  0  0  0  0  0
   27.5160   45.6040   -1.4530 C   0  0  0  0  0  0  0  0  0  0  0  0
  1  2  1  0
  2  3  2  0
  2  4  1  0
  3  5  1  0
  4  6  2  0
  3  7  1  0
  5  8  1  0
  6  9  1  0
  7  9  2  0
  6 10  1  0
  8 11  1  0
  9 12  1  0
 10 13  1  0
 12 13  1  0
 11 14  1  0
 14 15  1  0
 15 16  2  0
 15 17  1  0
 17 18  1  0
 18 19  1  0
 19 20  1  0
 19 21  2  0
 20 22  2  0
 21 23  1  0
 20 24  1  0
 22 25  1  0
 23 25  2  0
 22 26  1  0
 24 27  2  0
 26 28  2  0
 27 28  1  0
M  END
