mac-x0193-mac-x0439
     RDKit          3D

 26 28  0  0  0  0  0  0  0  0999 V2000
   34.1640   45.9880   -6.2520 O   0  0  0  0  0  0  0  0  0  0  0  0
   33.1800   45.1160   -6.0070 C   0  0  0  0  0  0  0  0  0  0  0  0
   32.1020   45.0830   -6.7180 N   0  0  0  0  0  0  0  0  0  0  0  0
   33.4320   44.1660   -4.8380 C   0  0  0  0  0  0  0  0  0  0  0  0
   34.5770   44.5490   -4.0050 N   0  0  0  0  0  0  0  0  0  0  0  0
   31.0940   44.0900   -6.3740 C   0  0  2  0  0  0  0  0  0  0  0  0
   35.0560   43.7070   -3.0230 C   0  0  0  0  0  0  0  0  0  0  0  0
   30.0400   43.9500   -7.3200 O   0  0  0  0  0  0  0  0  0  0  0  0
   30.4950   44.3470   -5.0060 C   0  0  0  0  0  0  0  0  0  0  0  0
   34.5810   42.6000   -2.8270 O   0  0  0  0  0  0  0  0  0  0  0  0
   36.0920   44.2740   -2.3210 N   0  0  0  0  0  0  0  0  0  0  0  0
   30.9870   45.1550   -4.0550 C   0  0  0  0  0  0  0  0  0  0  0  0
   29.3250   43.7150   -4.6220 N   0  0  0  0  0  0  0  0  0  0  0  0
   37.2700   43.5440   -1.8220 C   0  0  0  0  0  0  0  0  0  0  0  0
   30.1770   45.0610   -2.8240 C   0  0  2  0  0  0  0  0  0  0  0  0
   29.1320   44.1300   -3.3980 C   0  0  0  0  0  0  0  0  0  0  0  0
   37.5750   42.2920   -2.6350 C   0  0  0  0  0  0  0  0  0  0  0  0
   37.1640   43.2550   -0.3190 C   0  0  0  0  0  0  0  0  0  0  0  0
   29.5160   46.2090   -2.1490 C   0  0  0  0  0  0  0  0  0  0  0  0
   28.0090   43.7720   -2.5230 C   0  0  0  0  0  0  0  0  0  0  0  0
   30.3410   47.7290   -2.0920 Cl  0  0  0  0  0  0  0  0  0  0  0  0
   38.7480   41.4860   -2.0710 C   0  0  0  0  0  0  0  0  0  0  0  0
   38.3400   42.4440    0.2290 C   0  0  0  0  0  0  0  0  0  0  0  0
   28.3140   46.0330   -1.5860 C   0  0  0  0  0  0  0  0  0  0  0  0
   27.6510   44.7340   -1.6500 C   0  0  0  0  0  0  0  0  0  0  0  0
   39.3700   42.1360   -0.8440 C   0  0  0  0  0  0  0  0  0  0  0  0
  1  2  1  0
  2  3  2  3
  2  4  1  0
  4  5  1  0
  3  6  1  0
  5  7  1  0
  6  8  1  6
  6  9  1  0
  7 10  2  0
  7 11  1  0
  9 12  2  0
  9 13  1  0
 11 14  1  0
 15 12  1  6
 13 16  2  0
 15 16  1  0
 14 17  1  0
 14 18  1  0
 15 19  1  0
 16 20  1  0
 19 21  1  0
 17 22  1  0
 18 23  1  0
 19 24  2  0
 20 25  2  0
 24 25  1  0
 22 26  1  0
 23 26  1  0
M  END
