mac-x0387-mac-x0357
     RDKit          3D

 22 24  0  0  0  0  0  0  0  0999 V2000
   28.8980   51.6150   -6.2310 N   0  0  0  0  0  0  0  0  0  0  0  0
   29.0490   50.3110   -6.7170 C   0  0  0  0  0  0  0  0  0  0  0  0
   28.7460   50.1730   -8.0210 N   0  0  0  0  0  0  0  0  0  0  0  0
   29.4850   49.2500   -5.8890 C   0  0  0  0  0  0  0  0  0  0  0  0
   29.6090   47.9630   -6.4680 C   0  0  0  0  0  0  0  0  0  0  0  0
   28.8700   48.9450   -8.5480 C   0  0  0  0  0  0  0  0  0  0  0  0
   29.7990   49.4200   -4.5210 C   0  0  0  0  0  0  0  0  0  0  0  0
   29.2880   47.8340   -7.8320 C   0  0  0  0  0  0  0  0  0  0  0  0
   30.0460   46.8760   -5.6570 C   0  0  0  0  0  0  0  0  0  0  0  0
   30.2230   48.3560   -3.7360 C   0  0  0  0  0  0  0  0  0  0  0  0
   30.3470   47.0910   -4.2990 C   0  0  0  0  0  0  0  0  0  0  0  0
   30.2090   45.4660   -6.1910 C   0  0  0  0  0  0  0  0  0  0  0  0
   31.6760   45.0740   -6.4540 C   0  0  2  0  0  0  0  0  0  0  0  0
   31.7600   43.6430   -6.5610 O   0  0  0  0  0  0  0  0  0  0  0  0
   32.5970   45.5510   -5.3390 C   0  0  0  0  0  0  0  0  0  0  0  0
   33.0660   44.7150   -4.2920 C   0  0  0  0  0  0  0  0  0  0  0  0
   33.0010   46.9070   -5.3570 C   0  0  0  0  0  0  0  0  0  0  0  0
   32.6990   43.2580   -4.1780 C   0  0  0  0  0  0  0  0  0  0  0  0
   33.8380   47.4380   -4.3800 C   0  0  0  0  0  0  0  0  0  0  0  0
   33.9160   45.2810   -3.3160 C   0  0  0  0  0  0  0  0  0  0  0  0
   34.4270   44.5670   -2.2640 O   0  0  0  0  0  0  0  0  0  0  0  0
   34.2980   46.6210   -3.3570 C   0  0  0  0  0  0  0  0  0  0  0  0
  1  2  1  0
  2  3  2  0
  2  4  1  0
  4  5  2  0
  3  6  1  0
  4  7  1  0
  5  8  1  0
  6  8  2  0
  5  9  1  0
  7 10  2  0
  9 11  2  0
 10 11  1  0
  9 12  1  0
 12 13  1  0
 13 14  1  1
 13 15  1  0
 15 16  2  0
 15 17  1  0
 16 18  1  0
 17 19  2  0
 16 20  1  0
 20 21  1  0
 19 22  1  0
 20 22  2  0
M  END
