mac-x0392-mac-x0411
     RDKit          3D

 24 25  0  0  0  0  0  0  0  0999 V2000
   29.5100   47.2820   -7.5810 N   0  0  0  0  0  0  0  0  0  0  0  0
   29.5010   48.5210   -6.9160 C   0  0  0  0  0  0  0  0  0  0  0  0
   29.2320   49.7030   -7.6060 C   0  0  0  0  0  0  0  0  0  0  0  0
   29.7510   48.6650   -5.5430 C   0  0  0  0  0  0  0  0  0  0  0  0
   30.0440   47.4930   -4.6950 C   0  0  0  0  0  0  0  0  0  0  0  0
   29.7280   49.9220   -4.9330 C   0  0  0  0  0  0  0  0  0  0  0  0
   29.2000   50.9390   -7.0460 N   0  0  0  0  0  0  0  0  0  0  0  0
   31.0590   47.2330   -3.9520 N   0  0  0  0  0  0  0  0  0  0  0  0
   29.0530   46.5830   -4.7400 O   0  0  0  0  0  0  0  0  0  0  0  0
   29.4490   51.0200   -5.7250 C   0  0  0  0  0  0  0  0  0  0  0  0
   32.1890   48.1530   -3.8370 C   0  0  0  0  0  0  0  0  0  0  0  0
   33.3990   47.5810   -4.6080 C   0  0  0  0  0  0  0  0  0  0  0  0
   34.6100   47.2720   -3.7460 C   0  0  0  0  0  0  0  0  0  0  0  0
   35.3820   46.0930   -3.8790 C   0  0  0  0  0  0  0  0  0  0  0  0
   34.9940   48.2020   -2.7650 C   0  0  0  0  0  0  0  0  0  0  0  0
   35.0750   45.1360   -4.8200 O   0  0  0  0  0  0  0  0  0  0  0  0
   36.1000   47.9810   -1.9420 C   0  0  0  0  0  0  0  0  0  0  0  0
   36.4920   45.8770   -3.0450 C   0  0  0  0  0  0  0  0  0  0  0  0
   37.4520   44.4450   -3.1860 Cl  0  0  0  0  0  0  0  0  0  0  0  0
   33.7750   44.5470   -4.6400 C   0  0  0  0  0  0  0  0  0  0  0  0
   36.8490   46.8150   -2.0830 C   0  0  0  0  0  0  0  0  0  0  0  0
   33.2210   44.2090   -6.0160 C   0  0  0  0  0  0  0  0  0  0  0  0
   32.0280   43.5660   -5.9820 O   0  0  0  0  0  0  0  0  0  0  0  0
   33.7850   44.4790   -7.0710 O   0  0  0  0  0  0  0  0  0  0  0  0
  1  2  1  0
  2  3  2  0
  2  4  1  0
  4  5  1  0
  4  6  2  0
  3  7  1  0
  5  8  2  3
  5  9  1  0
  6 10  1  0
  7 10  2  0
  8 11  1  0
 11 12  1  0
 12 13  1  0
 13 14  2  0
 13 15  1  0
 14 16  1  0
 15 17  2  0
 14 18  1  0
 18 19  1  0
 16 20  1  0
 17 21  1  0
 18 21  2  0
 20 22  1  0
 22 23  1  0
 22 24  2  0
M  END
