mac-x0441-mac-x0142
     RDKit          3D

 34 39  0  0  0  0  0  0  0  0999 V2000
   35.2290   45.0560   -6.9090 O   0  0  0  0  0  0  0  0  0  0  0  0
   33.9420   44.7530   -6.6050 C   0  0  0  0  0  0  0  0  0  0  0  0
   33.2360   44.1110   -7.3770 O   0  0  0  0  0  0  0  0  0  0  0  0
   33.4540   45.2730   -5.2600 C   0  0  2  0  0  0  0  0  0  0  0  0
   34.4520   45.0360   -4.1880 N   0  0  0  0  0  0  0  0  0  0  0  0
   32.0310   44.8560   -5.0060 C   0  0  1  0  0  0  0  0  0  0  0  0
   34.5590   43.7660   -3.6840 N   0  0  0  0  0  0  0  0  0  0  0  0
   35.3250   45.8990   -3.5850 C   0  0  0  0  0  0  0  0  0  0  0  0
   31.6280   43.8130   -3.9950 C   0  0  0  0  0  0  0  0  0  0  0  0
   31.3020   45.2730   -3.7380 C   0  0  1  0  0  0  0  0  0  0  0  0
   35.5310   43.8400   -2.7400 C   0  0  0  0  0  0  0  0  0  0  0  0
   36.0300   45.1600   -2.6550 C   0  0  0  0  0  0  0  0  0  0  0  0
   35.5200   47.3540   -3.8420 C   0  0  0  0  0  0  0  0  0  0  0  0
   32.0500   45.9990   -2.6450 C   0  0  0  0  0  0  0  0  0  0  0  0
   29.8940   45.8170   -3.9580 C   0  0  0  0  0  0  0  0  0  0  0  0
   35.9990   42.6620   -1.9110 C   0  0  0  0  0  0  0  0  0  0  0  0
   37.0920   45.7420   -1.7860 C   0  0  0  0  0  0  0  0  0  0  0  0
   36.4470   47.9840   -2.7840 C   0  0  0  0  0  0  0  0  0  0  0  0
   32.0970   47.4860   -2.9700 C   0  0  0  0  0  0  0  0  0  0  0  0
   29.9910   47.2610   -4.2330 N   0  0  0  0  0  0  0  0  0  0  0  0
   37.0890   42.0420   -2.4340 F   0  0  0  0  0  0  0  0  0  0  0  0
   36.3380   43.0370   -0.6480 F   0  0  0  0  0  0  0  0  0  0  0  0
   35.0320   41.7130   -1.7840 F   0  0  0  0  0  0  0  0  0  0  0  0
   37.6080   47.0600   -2.3850 C   0  0  0  0  0  0  0  0  0  0  0  0
   30.6820   48.0170   -3.1710 C   0  0  0  0  0  0  0  0  0  0  0  0
   29.4730   47.8750   -5.3820 C   0  0  0  0  0  0  0  0  0  0  0  0
   29.2180   47.1450   -6.5350 N   0  0  0  0  0  0  0  0  0  0  0  0
   29.1820   49.1850   -5.4770 C   0  0  0  0  0  0  0  0  0  0  0  0
   28.7190   47.7140   -7.6720 C   0  0  0  0  0  0  0  0  0  0  0  0
   28.6390   49.7420   -6.7410 C   0  0  0  0  0  0  0  0  0  0  0  0
   29.2470   50.3380   -4.6280 C   0  0  0  0  0  0  0  0  0  0  0  0
   28.4180   48.9600   -7.8390 N   0  0  0  0  0  0  0  0  0  0  0  0
   28.4130   51.0260   -6.6670 N   0  0  0  0  0  0  0  0  0  0  0  0
   28.7920   51.3560   -5.3730 C   0  0  0  0  0  0  0  0  0  0  0  0
  1  2  1  0
  2  3  2  0
  4  2  1  6
  4  5  1  0
  4  6  1  0
  5  7  1  0
  5  8  1  0
  6  9  1  1
  6 10  1  0
 10  9  1  1
  7 11  2  0
  8 12  2  0
 11 12  1  0
  8 13  1  0
 10 14  1  0
 10 15  1  0
 11 16  1  0
 12 17  1  0
 13 18  1  0
 14 19  1  0
 15 20  1  0
 16 21  1  0
 16 22  1  0
 16 23  1  0
 17 24  1  0
 18 24  1  0
 19 25  1  0
 20 25  1  0
 20 26  1  0
 26 27  1  0
 26 28  2  0
 27 29  1  0
 28 30  1  0
 28 31  1  0
 29 32  2  0
 30 32  1  0
 30 33  2  0
 31 34  2  0
 33 34  1  0
M  END
