mac-x0358-mac-x0436
     RDKit          3D

 21 24  0  0  0  0  0  0  0  0999 V2000
   31.2670   45.1350   -6.5860 O   0  0  0  0  0  0  0  0  0  0  0  0
   32.2860   45.5690   -5.8110 C   0  0  0  0  0  0  0  0  0  0  0  0
   33.2070   46.1800   -6.3270 O   0  0  0  0  0  0  0  0  0  0  0  0
   32.0920   45.1940   -4.3440 C   0  0  1  0  0  0  0  0  0  0  0  0
   33.3070   44.4100   -3.8220 C   0  0  0  0  0  0  0  0  0  0  0  0
   31.7660   46.3800   -3.4440 C   0  0  0  0  0  0  0  0  0  0  0  0
   32.7960   47.0320   -2.7230 C   0  0  0  0  0  0  0  0  0  0  0  0
   30.4400   46.8240   -3.3280 C   0  0  0  0  0  0  0  0  0  0  0  0
   34.4400   45.2940   -3.3660 C   0  0  0  0  0  0  0  0  0  0  0  0
   32.4580   48.1180   -1.9030 C   0  0  0  0  0  0  0  0  0  0  0  0
   30.1300   47.9070   -2.5050 C   0  0  0  0  0  0  0  0  0  0  0  0
   34.1750   46.5600   -2.8420 C   0  0  0  0  0  0  0  0  0  0  0  0
   35.6990   44.8110   -3.4830 N   0  0  0  0  0  0  0  0  0  0  0  0
   31.1370   48.5540   -1.7940 C   0  0  0  0  0  0  0  0  0  0  0  0
   35.1760   47.3780   -2.4260 N   0  0  0  0  0  0  0  0  0  0  0  0
   36.6910   45.6190   -3.0670 C   0  0  0  0  0  0  0  0  0  0  0  0
   36.4280   46.9050   -2.5400 C   0  0  0  0  0  0  0  0  0  0  0  0
   38.0040   45.1810   -3.1600 C   0  0  0  0  0  0  0  0  0  0  0  0
   39.0660   45.9840   -2.7420 C   0  0  0  0  0  0  0  0  0  0  0  0
   37.4940   47.6950   -2.1290 C   0  0  0  0  0  0  0  0  0  0  0  0
   38.8100   47.2460   -2.2250 C   0  0  0  0  0  0  0  0  0  0  0  0
  1  2  1  0
  2  3  2  0
  4  2  1  6
  4  5  1  0
  4  6  1  0
  6  7  2  0
  6  8  1  0
  5  9  1  0
  7 10  1  0
  8 11  2  0
  7 12  1  0
  9 12  2  0
  9 13  1  0
 10 14  2  0
 11 14  1  0
 12 15  1  0
 13 16  2  0
 15 17  2  0
 16 17  1  0
 16 18  1  0
 18 19  2  0
 17 20  1  0
 19 21  1  0
 20 21  2  0
M  END
