mac-x0179-mac-x0402
     RDKit          3D

 27 30  0  0  0  0  0  0  0  0999 V2000
   31.6850   45.3330   -5.3740 O   0  0  0  0  0  0  0  0  0  0  0  0
   32.8750   45.6980   -4.8580 C   0  0  0  0  0  0  0  0  0  0  0  0
   33.9070   45.3650   -5.4190 O   0  0  0  0  0  0  0  0  0  0  0  0
   32.8070   46.5470   -3.5980 C   0  0  1  0  0  0  0  0  0  0  0  0
   31.4290   47.0910   -3.1390 C   0  0  0  0  0  0  0  0  0  0  0  0
   33.8460   46.3470   -2.5730 N   0  0  0  0  0  0  0  0  0  0  0  0
   30.3850   47.5500   -4.1810 C   0  0  0  0  0  0  0  0  0  0  0  0
   34.4790   45.1580   -2.2000 C   0  0  0  0  0  0  0  0  0  0  0  0
   34.6310   47.3980   -2.2640 C   0  0  0  0  0  0  0  0  0  0  0  0
   34.1010   44.0000   -2.2780 O   0  0  0  0  0  0  0  0  0  0  0  0
   34.4060   48.5760   -2.4230 O   0  0  0  0  0  0  0  0  0  0  0  0
   35.7880   45.5380   -1.6400 C   0  0  0  0  0  0  0  0  0  0  0  0
   35.8660   46.9140   -1.6900 C   0  0  0  0  0  0  0  0  0  0  0  0
   30.0800   49.0370   -4.4030 C   0  0  0  0  0  0  0  0  0  0  0  0
   36.8330   44.7860   -1.1270 C   0  0  0  0  0  0  0  0  0  0  0  0
   36.9630   47.6200   -1.2500 C   0  0  0  0  0  0  0  0  0  0  0  0
   30.1530   50.0000   -3.3850 C   0  0  0  0  0  0  0  0  0  0  0  0
   29.6970   49.4530   -5.6980 C   0  0  0  0  0  0  0  0  0  0  0  0
   37.9660   45.4780   -0.6690 C   0  0  0  0  0  0  0  0  0  0  0  0
   38.0290   46.8880   -0.7320 C   0  0  0  0  0  0  0  0  0  0  0  0
   29.3970   50.8110   -5.9350 C   0  0  0  0  0  0  0  0  0  0  0  0
   29.8510   51.3560   -3.6360 C   0  0  0  0  0  0  0  0  0  0  0  0
   29.4650   51.7690   -4.9320 C   0  0  0  0  0  0  0  0  0  0  0  0
   28.9080   51.5760   -7.4010 S   0  0  0  0  0  0  0  0  0  0  0  0
   28.8260   53.0860   -6.5960 C   0  0  0  0  0  0  0  0  0  0  0  0
   29.1360   53.0660   -5.3230 N   0  0  0  0  0  0  0  0  0  0  0  0
   28.4620   54.2110   -7.2470 N   0  0  0  0  0  0  0  0  0  0  0  0
  1  2  1  0
  2  3  2  0
  2  4  1  0
  4  5  1  1
  4  6  1  0
  5  7  1  0
  6  8  1  0
  6  9  1  0
  8 10  2  0
  9 11  2  0
  8 12  1  0
  9 13  1  0
 12 13  2  0
  7 14  1  0
 12 15  1  0
 13 16  1  0
 14 17  2  0
 14 18  1  0
 15 19  2  0
 16 20  2  0
 19 20  1  0
 18 21  2  0
 17 22  1  0
 21 23  1  0
 22 23  2  0
 21 24  1  0
 24 25  1  0
 23 26  1  0
 25 26  2  0
 25 27  1  0
M  END
