mac-x0142-mac-x0345
     RDKit          3D

 24 28  0  0  0  0  0  0  0  0999 V2000
   28.7600   54.5300   -3.7650 C   0  0  0  0  0  0  0  0  0  0  0  0
   28.9740   53.1300   -4.2720 C   0  0  0  0  0  0  0  0  0  0  0  0
   29.5020   52.2580   -3.3580 N   0  0  0  0  0  0  0  0  0  0  0  0
   28.6540   52.7560   -5.5760 C   0  0  0  0  0  0  0  0  0  0  0  0
   27.9210   53.9680   -6.8320 Br  0  0  0  0  0  0  0  0  0  0  0  0
   28.8960   51.4370   -5.9250 C   0  0  0  0  0  0  0  0  0  0  0  0
   29.7330   50.9790   -3.7110 C   0  0  0  0  0  0  0  0  0  0  0  0
   30.2740   50.1390   -2.7310 N   0  0  0  0  0  0  0  0  0  0  0  0
   28.6470   50.8330   -7.1960 N   0  0  0  0  0  0  0  0  0  0  0  0
   29.4410   50.5400   -4.9840 C   0  0  0  0  0  0  0  0  0  0  0  0
   29.0280   49.5920   -7.0580 C   0  0  0  0  0  0  0  0  0  0  0  0
   29.5530   49.2780   -5.6990 C   0  0  0  0  0  0  0  0  0  0  0  0
   28.9610   48.6490   -8.0460 N   0  0  0  0  0  0  0  0  0  0  0  0
   29.9780   48.0240   -5.4460 C   0  0  0  0  0  0  0  0  0  0  0  0
   30.4950   47.6120   -4.2070 N   0  0  0  0  0  0  0  0  0  0  0  0
   29.8820   47.1260   -6.4890 N   0  0  0  0  0  0  0  0  0  0  0  0
   29.3870   47.4800   -7.7100 C   0  0  0  0  0  0  0  0  0  0  0  0
   31.8260   48.1130   -3.7950 C   0  0  0  0  0  0  0  0  0  0  0  0
   30.1930   46.2120   -3.8010 C   0  0  0  0  0  0  0  0  0  0  0  0
   31.3250   45.2820   -4.1780 C   0  0  0  0  0  0  0  0  0  0  0  0
   32.9440   47.2010   -4.2820 C   0  0  0  0  0  0  0  0  0  0  0  0
   31.0840   43.7880   -4.0930 C   0  0  0  0  0  0  0  0  0  0  0  0
   31.1860   44.4440   -5.4360 C   0  0  0  0  0  0  0  0  0  0  0  0
   32.7050   45.7770   -3.7960 C   0  0  0  0  0  0  0  0  0  0  0  0
  1  2  1  0
  2  3  2  0
  2  4  1  0
  4  5  1  0
  4  6  2  0
  3  7  1  0
  7  8  1  0
  6  9  1  0
  6 10  1  0
  7 10  2  0
  9 11  2  0
 10 12  1  0
 11 12  1  0
 11 13  1  0
 12 14  2  0
 14 15  1  0
 14 16  1  0
 13 17  2  0
 16 17  1  0
 15 18  1  0
 15 19  1  0
 20 19  1  0
 18 21  1  0
 20 22  1  0
 20 23  1  0
 22 23  1  0
 20 24  1  0
 21 24  1  0
M  END
