mac-x0344-mac-x0347
     RDKit          3D

 24 26  0  0  0  0  0  0  0  0999 V2000
   31.4970   44.6750   -4.4150 O   0  0  0  0  0  0  0  0  0  0  0  0
   31.8450   45.8430   -5.1590 C   0  0  0  0  0  0  0  0  0  0  0  0
   31.3960   45.5580   -6.4680 O   0  0  0  0  0  0  0  0  0  0  0  0
   33.4220   46.0460   -5.0680 C   0  0  0  0  0  0  0  0  0  0  0  0
   31.1210   47.0900   -4.5910 C   0  0  0  0  0  0  0  0  0  0  0  0
   34.0730   46.4350   -6.0320 O   0  0  0  0  0  0  0  0  0  0  0  0
   33.9550   45.7400   -3.8090 N   0  0  0  0  0  0  0  0  0  0  0  0
   30.8020   48.2670   -5.3430 C   0  0  0  0  0  0  0  0  0  0  0  0
   30.7490   47.1120   -3.2520 C   0  0  0  0  0  0  0  0  0  0  0  0
   35.1440   46.2540   -3.2390 C   0  0  0  0  0  0  0  0  0  0  0  0
   30.1530   49.3800   -4.7340 C   0  0  0  0  0  0  0  0  0  0  0  0
   30.1310   48.1430   -2.6400 N   0  0  0  0  0  0  0  0  0  0  0  0
   36.1040   45.4830   -2.5780 C   0  0  0  0  0  0  0  0  0  0  0  0
   35.3560   47.6350   -3.3580 C   0  0  0  0  0  0  0  0  0  0  0  0
   29.8570   49.2320   -3.3850 C   0  0  0  0  0  0  0  0  0  0  0  0
   29.7920   50.6450   -5.4190 C   0  0  0  0  0  0  0  0  0  0  0  0
   37.2540   46.0830   -2.0470 C   0  0  0  0  0  0  0  0  0  0  0  0
   36.5040   48.2330   -2.8260 C   0  0  0  0  0  0  0  0  0  0  0  0
   28.8160   50.7160   -6.4290 C   0  0  0  0  0  0  0  0  0  0  0  0
   30.4340   51.8480   -5.0530 C   0  0  0  0  0  0  0  0  0  0  0  0
   37.4540   47.4550   -2.1700 C   0  0  0  0  0  0  0  0  0  0  0  0
   28.4980   51.9360   -7.0450 C   0  0  0  0  0  0  0  0  0  0  0  0
   30.1160   53.0640   -5.6670 C   0  0  0  0  0  0  0  0  0  0  0  0
   29.1480   53.1070   -6.6630 C   0  0  0  0  0  0  0  0  0  0  0  0
  2  1  1  0
  2  3  1  0
  2  4  1  0
  2  5  1  0
  4  6  2  0
  4  7  1  0
  5  8  2  0
  5  9  1  0
  7 10  1  0
  8 11  1  0
  9 12  2  0
 10 13  2  0
 10 14  1  0
 11 15  2  0
 12 15  1  0
 11 16  1  0
 13 17  1  0
 14 18  2  0
 16 19  2  0
 16 20  1  0
 17 21  2  0
 18 21  1  0
 19 22  1  0
 20 23  2  0
 22 24  2  0
 23 24  1  0
M  END
