mac-x0436-mac-x0305
     RDKit          3D

 25 27  0  0  0  0  0  0  0  0999 V2000
   33.5860   45.6150   -6.8690 O   0  0  0  0  0  0  0  0  0  0  0  0
   32.4510   45.7330   -6.1570 C   0  0  0  0  0  0  0  0  0  0  0  0
   31.6320   46.6530   -6.5680 N   0  0  0  0  0  0  0  0  0  0  0  0
   32.3990   44.7410   -5.0170 C   0  0  0  0  0  0  0  0  0  0  0  0
   32.4920   45.4150   -3.6520 C   0  0  0  0  0  0  0  0  0  0  0  0
   30.4390   46.8750   -5.9020 C   0  0  0  0  0  0  0  0  0  0  0  0
   29.8190   45.9540   -5.3880 O   0  0  0  0  0  0  0  0  0  0  0  0
   33.8620   45.9990   -3.3860 C   0  0  0  0  0  0  0  0  0  0  0  0
   29.8720   48.2940   -5.7680 C   0  0  0  0  0  0  0  0  0  0  0  0
   34.0240   47.5070   -3.5850 C   0  0  0  0  0  0  0  0  0  0  0  0
   34.8400   45.2210   -3.0090 N   0  0  0  0  0  0  0  0  0  0  0  0
   29.2340   49.0280   -6.7880 C   0  0  0  0  0  0  0  0  0  0  0  0
   30.0290   48.8260   -4.5140 N   0  0  0  0  0  0  0  0  0  0  0  0
   33.0680   48.2070   -3.8650 O   0  0  0  0  0  0  0  0  0  0  0  0
   29.0430   48.5570   -8.0580 O   0  0  0  0  0  0  0  0  0  0  0  0
   35.2910   47.9970   -3.4220 N   0  0  0  0  0  0  0  0  0  0  0  0
   36.0970   45.8130   -2.7800 C   0  0  0  0  0  0  0  0  0  0  0  0
   28.7640   50.3160   -6.4920 C   0  0  0  0  0  0  0  0  0  0  0  0
   29.5650   50.0660   -4.2670 C   0  0  0  0  0  0  0  0  0  0  0  0
   36.3340   47.1850   -2.9810 C   0  0  0  0  0  0  0  0  0  0  0  0
   37.1500   45.0140   -2.3370 C   0  0  0  0  0  0  0  0  0  0  0  0
   28.9300   50.8430   -5.2140 C   0  0  0  0  0  0  0  0  0  0  0  0
   38.4120   45.5640   -2.1000 C   0  0  0  0  0  0  0  0  0  0  0  0
   37.5890   47.7410   -2.7470 C   0  0  0  0  0  0  0  0  0  0  0  0
   38.6290   46.9290   -2.3060 C   0  0  0  0  0  0  0  0  0  0  0  0
  1  2  1  0
  2  3  2  3
  2  4  1  0
  4  5  1  0
  3  6  1  0
  6  7  2  0
  5  8  1  0
  6  9  1  0
  8 10  1  0
  8 11  2  0
  9 12  2  0
  9 13  1  0
 10 14  2  0
 12 15  1  0
 10 16  1  0
 11 17  1  0
 12 18  1  0
 13 19  2  0
 16 20  1  0
 17 20  2  0
 17 21  1  0
 18 22  2  0
 19 22  1  0
 21 23  2  0
 20 24  1  0
 23 25  1  0
 24 25  2  0
M  END
