mac-x0392-mac-x0319
     RDKit          3D

 22 23  0  0  0  0  0  0  0  0999 V2000
   28.9370   48.4950   -8.9920 N   0  0  0  0  0  0  0  0  0  0  0  0
   28.8580   49.0590   -7.7040 C   0  0  0  0  0  0  0  0  0  0  0  0
   27.6650   49.6260   -7.2530 C   0  0  0  0  0  0  0  0  0  0  0  0
   29.9330   49.0930   -6.8010 C   0  0  0  0  0  0  0  0  0  0  0  0
   31.2790   48.5450   -7.0980 C   0  0  0  0  0  0  0  0  0  0  0  0
   29.7740   49.6710   -5.5330 C   0  0  0  0  0  0  0  0  0  0  0  0
   27.4800   50.1920   -6.0360 N   0  0  0  0  0  0  0  0  0  0  0  0
   32.3060   49.2080   -6.9930 O   0  0  0  0  0  0  0  0  0  0  0  0
   31.1880   47.2430   -7.4880 O   0  0  0  0  0  0  0  0  0  0  0  0
   28.5410   50.2010   -5.2030 C   0  0  0  0  0  0  0  0  0  0  0  0
   31.5140   46.2850   -6.4700 C   0  0  0  0  0  0  0  0  0  0  0  0
   32.9430   46.0120   -6.3080 N   0  0  0  0  0  0  0  0  0  0  0  0
   33.3220   45.0430   -5.5600 C   0  0  0  0  0  0  0  0  0  0  0  0
   34.6540   44.8710   -5.4680 O   0  0  0  0  0  0  0  0  0  0  0  0
   32.5450   44.0420   -4.7530 C   0  0  0  0  0  0  0  0  0  0  0  0
   31.5210   44.6440   -3.8190 C   0  0  0  0  0  0  0  0  0  0  0  0
   30.3140   43.9740   -3.5610 C   0  0  0  0  0  0  0  0  0  0  0  0
   31.7570   45.8800   -3.1940 C   0  0  0  0  0  0  0  0  0  0  0  0
   29.3750   44.5350   -2.7000 C   0  0  0  0  0  0  0  0  0  0  0  0
   30.8110   46.4340   -2.3310 C   0  0  0  0  0  0  0  0  0  0  0  0
   28.1980   43.9130   -2.4290 O   0  0  0  0  0  0  0  0  0  0  0  0
   29.6160   45.7590   -2.0840 C   0  0  0  0  0  0  0  0  0  0  0  0
  1  2  1  0
  2  3  2  0
  2  4  1  0
  4  5  1  0
  4  6  2  0
  3  7  1  0
  5  8  2  0
  5  9  1  0
  6 10  1  0
  7 10  2  0
  9 11  1  0
 11 12  1  0
 12 13  2  3
 13 14  1  0
 13 15  1  0
 15 16  1  0
 16 17  2  0
 16 18  1  0
 17 19  1  0
 18 20  2  0
 19 21  1  0
 19 22  2  0
 20 22  1  0
M  END
