mac-x0306-mac-x0178
     RDKit          3D

 26 28  0  0  0  0  0  0  0  0999 V2000
   28.3340   45.1360   -0.3540 N   0  0  0  0  0  0  0  0  0  0  0  0
   29.0140   46.6090   -0.7740 S   0  0  2  0  0  0  0  0  0  0  0  0
   29.9130   46.8780    0.3200 O   0  0  0  0  0  0  0  0  0  0  0  0
   27.7630   47.4030   -1.1300 N   0  0  0  0  0  0  0  0  0  0  0  0
   29.9150   46.4180   -2.2810 C   0  0  0  0  0  0  0  0  0  0  0  0
   27.9630   48.6980   -1.8450 C   0  0  0  0  0  0  0  0  0  0  0  0
   29.3970   45.6080   -3.2960 C   0  0  0  0  0  0  0  0  0  0  0  0
   31.1300   47.0910   -2.4410 C   0  0  0  0  0  0  0  0  0  0  0  0
   28.1890   48.5190   -3.3720 C   0  0  0  0  0  0  0  0  0  0  0  0
   30.1070   45.4770   -4.4930 C   0  0  0  0  0  0  0  0  0  0  0  0
   31.8390   46.9580   -3.6420 C   0  0  0  0  0  0  0  0  0  0  0  0
   29.0370   49.6020   -3.9600 N   0  0  0  0  0  0  0  0  0  0  0  0
   31.3240   46.1550   -4.6640 C   0  0  0  0  0  0  0  0  0  0  0  0
   32.0420   45.9990   -5.9490 C   0  0  0  0  0  0  0  0  0  0  0  0
   29.6120   50.5440   -3.1130 C   0  0  0  0  0  0  0  0  0  0  0  0
   28.7620   49.9980   -5.2680 C   0  0  0  0  0  0  0  0  0  0  0  0
   31.4830   45.6540   -6.9740 O   0  0  0  0  0  0  0  0  0  0  0  0
   33.3560   46.2830   -5.8710 O   0  0  0  0  0  0  0  0  0  0  0  0
   30.0440   51.7420   -3.5230 C   0  0  0  0  0  0  0  0  0  0  0  0
   29.1470   51.1710   -5.7940 C   0  0  0  0  0  0  0  0  0  0  0  0
   29.9470   52.1670   -4.9760 C   0  0  0  0  0  0  0  0  0  0  0  0
   29.5430   53.6140   -5.1710 C   0  0  0  0  0  0  0  0  0  0  0  0
   28.9250   54.0810   -6.3180 N   0  0  0  0  0  0  0  0  0  0  0  0
   29.7230   54.6030   -4.3100 N   0  0  0  0  0  0  0  0  0  0  0  0
   29.2140   55.7210   -4.9170 C   0  0  0  0  0  0  0  0  0  0  0  0
   28.7140   55.4200   -6.1630 C   0  0  0  0  0  0  0  0  0  0  0  0
  2  1  1  1
  2  3  2  0
  2  4  2  0
  2  5  1  0
  4  6  1  0
  5  7  2  0
  5  8  1  0
  6  9  1  0
  7 10  1  0
  8 11  2  0
  9 12  1  0
 10 13  2  0
 11 13  1  0
 13 14  1  0
 12 15  1  0
 12 16  1  0
 14 17  2  0
 14 18  1  0
 15 19  2  0
 16 20  2  0
 19 21  1  0
 20 21  1  0
 21 22  1  0
 22 23  1  0
 22 24  2  0
 24 25  1  0
 23 26  1  0
 25 26  2  0
M  END
