mac-x0178-mac-x0398
     RDKit          3D

 24 25  0  0  0  0  0  0  0  0999 V2000
   28.4550   44.7220   -0.3180 N   0  0  0  0  0  0  0  0  0  0  0  0
   28.8380   46.3310   -0.6100 S   0  0  0  0  0  0  0  0  0  0  0  0
   29.7830   46.7670    0.3900 O   0  0  0  0  0  0  0  0  0  0  0  0
   27.5820   47.0130   -0.8280 O   0  0  0  0  0  0  0  0  0  0  0  0
   29.6780   46.2540   -2.1690 C   0  0  0  0  0  0  0  0  0  0  0  0
   29.8840   45.0490   -2.8470 C   0  0  0  0  0  0  0  0  0  0  0  0
   30.1200   47.4390   -2.6970 C   0  0  0  0  0  0  0  0  0  0  0  0
   30.5610   45.0600   -4.0790 C   0  0  0  0  0  0  0  0  0  0  0  0
   30.7790   47.4540   -3.9180 C   0  0  0  0  0  0  0  0  0  0  0  0
   31.1420   48.7320   -4.3350 O   0  0  0  0  0  0  0  0  0  0  0  0
   31.0210   46.2630   -4.6260 C   0  0  0  0  0  0  0  0  0  0  0  0
   31.7280   46.1810   -5.9250 C   0  0  0  0  0  0  0  0  0  0  0  0
   30.5040   49.7060   -3.5680 C   0  0  0  0  0  0  0  0  0  0  0  0
   31.1610   45.9100   -6.9670 O   0  0  0  0  0  0  0  0  0  0  0  0
   33.0520   46.4260   -5.8340 O   0  0  0  0  0  0  0  0  0  0  0  0
   30.4080   49.7170   -2.3440 O   0  0  0  0  0  0  0  0  0  0  0  0
   29.9510   50.7850   -4.3980 C   0  0  0  0  0  0  0  0  0  0  0  0
   29.7520   52.0490   -3.8420 C   0  0  0  0  0  0  0  0  0  0  0  0
   29.6280   50.5530   -5.7370 C   0  0  0  0  0  0  0  0  0  0  0  0
   30.0660   52.2650   -2.5300 O   0  0  0  0  0  0  0  0  0  0  0  0
   29.2400   53.0860   -4.6180 C   0  0  0  0  0  0  0  0  0  0  0  0
   29.1120   51.5970   -6.5130 C   0  0  0  0  0  0  0  0  0  0  0  0
   28.9180   52.8730   -5.9590 C   0  0  0  0  0  0  0  0  0  0  0  0
   28.4090   53.9190   -6.7350 N   0  0  0  0  0  0  0  0  0  0  0  0
  2  1  1  0
  2  3  2  0
  2  4  2  0
  2  5  1  0
  5  6  2  0
  5  7  1  0
  6  8  1  0
  7  9  2  0
  9 10  1  0
  8 11  2  0
  9 11  1  0
 11 12  1  0
 10 13  1  0
 12 14  2  0
 12 15  1  0
 13 16  2  0
 13 17  1  0
 17 18  2  0
 17 19  1  0
 18 20  1  0
 18 21  1  0
 19 22  2  0
 21 23  2  0
 22 23  1  0
 23 24  1  0
M  END
