mac-x0584
     RDKit          3D

 18 21  0  0  0  0  0  0  0  0999 V2000
   33.9140   45.1240   -5.4520 C   0  0  0  0  0  0  0  0  0  0  0  0
   33.2390   46.3770   -4.9150 C   0  0  0  0  0  0  0  0  0  0  0  0
   31.9020   45.7690   -5.2770 C   0  0  1  0  0  0  0  0  0  0  0  0
   32.5880   44.4240   -5.2320 C   0  0  0  0  0  0  0  0  0  0  0  0
   30.6270   46.1310   -4.4360 C   0  0  1  0  0  0  0  0  0  0  0  0
   30.8380   45.8820   -2.8100 C   0  0  0  0  0  0  0  0  0  0  0  0
   30.7860   47.0550   -2.2090 C   0  0  0  0  0  0  0  0  0  0  0  0
   30.4200   48.1660   -3.2630 C   0  0  0  0  0  0  0  0  0  0  0  0
   30.2710   47.3810   -4.5830 N   0  0  0  0  0  0  0  0  0  0  0  0
   29.6990   47.9240   -5.7200 C   0  0  0  0  0  0  0  0  0  0  0  0
   29.5220   47.1610   -6.7100 N   0  0  0  0  0  0  0  0  0  0  0  0
   28.9900   47.5920   -7.8300 C   0  0  0  0  0  0  0  0  0  0  0  0
   28.6080   48.8190   -8.0130 N   0  0  0  0  0  0  0  0  0  0  0  0
   28.8080   49.6760   -7.0200 C   0  0  0  0  0  0  0  0  0  0  0  0
   28.5620   51.0030   -6.9310 N   0  0  0  0  0  0  0  0  0  0  0  0
   28.8290   51.4760   -5.7320 C   0  0  0  0  0  0  0  0  0  0  0  0
   29.3700   50.4310   -4.9910 C   0  0  0  0  0  0  0  0  0  0  0  0
   29.3370   49.2860   -5.8280 C   0  0  0  0  0  0  0  0  0  0  0  0
  1  2  1  0
  3  2  1  1
  1  4  1  0
  3  4  1  0
  3  5  1  0
  5  6  1  1
  6  7  1  0
  7  8  1  0
  5  9  1  0
  8  9  1  0
  9 10  1  0
 10 11  2  0
 11 12  1  0
 12 13  2  0
 13 14  1  0
 14 15  1  0
 15 16  1  0
 16 17  2  0
 10 18  1  0
 14 18  2  0
 17 18  1  0
M  END
