mac-x0360-mac-x0161
     RDKit          3D

 27 30  0  0  0  0  0  0  0  0999 V2000
   31.6850   55.2080   -6.2600 Cl  0  0  0  0  0  0  0  0  0  0  0  0
   32.2820   53.6020   -6.0710 C   0  0  0  0  0  0  0  0  0  0  0  0
   33.5410   53.3970   -5.5170 C   0  0  0  0  0  0  0  0  0  0  0  0
   31.4940   52.5280   -6.4780 C   0  0  0  0  0  0  0  0  0  0  0  0
   31.9640   51.2160   -6.3310 C   0  0  0  0  0  0  0  0  0  0  0  0
   34.0120   52.0940   -5.3710 C   0  0  0  0  0  0  0  0  0  0  0  0
   35.5700   51.8340   -4.6840 Cl  0  0  0  0  0  0  0  0  0  0  0  0
   30.9270   49.8170   -6.8690 S   0  0  0  0  0  0  0  0  0  0  0  0
   33.2350   51.0080   -5.7720 C   0  0  0  0  0  0  0  0  0  0  0  0
   30.7040   49.1300   -5.2890 N   0  0  0  0  0  0  0  0  0  0  0  0
   31.8270   48.9880   -7.7410 O   0  0  0  0  0  0  0  0  0  0  0  0
   29.4140   48.9860   -4.6870 N   0  0  0  0  0  0  0  0  0  0  0  0
   31.6450   48.3330   -4.6860 C   0  0  0  0  0  0  0  0  0  0  0  0
   29.1710   49.8500   -3.5280 C   0  0  0  0  0  0  0  0  0  0  0  0
   28.2300   48.7320   -5.5090 C   0  0  1  0  0  0  0  0  0  0  0  0
   32.5410   48.5550   -3.6570 C   0  0  0  0  0  0  0  0  0  0  0  0
   31.8170   47.0370   -5.1090 O   0  0  0  0  0  0  0  0  0  0  0  0
   28.4340   51.0650   -3.8970 N   0  0  0  0  0  0  0  0  0  0  0  0
   27.5740   50.0140   -5.9780 C   0  0  2  0  0  0  0  0  0  0  0  0
   28.3550   48.0720   -6.7980 N   0  0  0  0  0  0  0  0  0  0  0  0
   32.8130   46.4120   -4.3700 N   0  0  0  0  0  0  0  0  0  0  0  0
   33.2270   47.3420   -3.5110 C   0  0  0  0  0  0  0  0  0  0  0  0
   34.2090   47.0980   -2.6120 O   0  0  0  0  0  0  0  0  0  0  0  0
   27.2380   50.8260   -4.7310 C   0  0  0  0  0  0  0  0  0  0  0  0
   26.4930   49.5230   -6.8400 N   0  0  0  0  0  0  0  0  0  0  0  0
   27.0590   48.3010   -7.4300 C   0  0  0  0  0  0  0  0  0  0  0  0
   34.9890   48.2360   -2.2670 C   0  0  0  0  0  0  0  0  0  0  0  0
  1  2  1  0
  2  3  2  0
  2  4  1  0
  4  5  2  0
  3  6  1  0
  6  7  1  0
  5  8  1  0
  5  9  1  0
  6  9  2  0
  8 10  1  1
  8 11  2  0
 10 12  1  0
 10 13  1  0
 12 14  1  0
 12 15  1  0
 13 16  2  0
 13 17  1  0
 14 18  1  0
 15 19  1  0
 15 20  1  6
 17 21  1  0
 16 22  1  0
 21 22  2  0
 22 23  1  0
 18 24  1  0
 19 24  1  1
 19 25  1  0
 20 26  1  0
 25 26  1  0
 23 27  1  0
M  END
