mac-x0337-mac-x0572
     RDKit          3D

 24 26  0  0  0  0  0  0  0  0999 V2000
   35.4780   52.2110   -6.1400 C   0  0  0  0  0  0  0  0  0  0  0  0
   34.2550   51.5480   -5.5750 C   0  0  0  0  0  0  0  0  0  0  0  0
   33.2110   52.3220   -5.0540 C   0  0  0  0  0  0  0  0  0  0  0  0
   34.1490   50.1500   -5.5640 C   0  0  0  0  0  0  0  0  0  0  0  0
   33.0140   49.5290   -5.0390 C   0  0  0  0  0  0  0  0  0  0  0  0
   32.0720   51.7090   -4.5270 C   0  0  0  0  0  0  0  0  0  0  0  0
   31.9820   50.3130   -4.5230 C   0  0  0  0  0  0  0  0  0  0  0  0
   30.5240   49.5450   -3.8490 S   0  0  0  0  0  0  0  0  0  0  0  0
   30.7860   49.2690   -2.4520 O   0  0  0  0  0  0  0  0  0  0  0  0
   30.1030   48.4980   -4.7580 O   0  0  0  0  0  0  0  0  0  0  0  0
   29.3860   50.8160   -3.8930 N   0  0  0  0  0  0  0  0  0  0  0  0
   29.0290   51.2930   -5.1920 C   0  0  0  0  0  0  0  0  0  0  0  0
   29.3460   52.6910   -5.6630 C   0  0  2  0  0  0  0  0  0  0  0  0
   28.3960   50.3950   -5.9600 C   0  0  0  0  0  0  0  0  0  0  0  0
   29.2220   53.7790   -4.6230 C   0  0  0  0  0  0  0  0  0  0  0  0
   28.5260   53.0650   -6.8900 C   0  0  0  0  0  0  0  0  0  0  0  0
   27.9820   50.7290   -7.2990 C   0  0  0  0  0  0  0  0  0  0  0  0
   29.1610   53.6010   -3.4020 O   0  0  0  0  0  0  0  0  0  0  0  0
   29.1640   55.1590   -5.1510 C   0  0  0  0  0  0  0  0  0  0  0  0
   28.2340   54.2940   -7.2030 N   0  0  0  0  0  0  0  0  0  0  0  0
   28.0290   51.9780   -7.7780 C   0  0  0  0  0  0  0  0  0  0  0  0
   29.6070   56.1900   -4.3440 O   0  0  0  0  0  0  0  0  0  0  0  0
   28.6790   55.3210   -6.3930 C   0  0  0  0  0  0  0  0  0  0  0  0
   28.5760   56.6840   -7.0290 C   0  0  0  0  0  0  0  0  0  0  0  0
  1  2  1  0
  2  3  2  0
  2  4  1  0
  4  5  2  0
  3  6  1  0
  5  7  1  0
  6  7  2  0
  7  8  1  0
  8  9  2  0
  8 10  2  0
  8 11  1  0
 11 12  1  0
 13 12  1  1
 12 14  2  0
 13 15  1  0
 13 16  1  0
 14 17  1  0
 15 18  2  0
 15 19  1  0
 16 20  2  0
 16 21  1  0
 17 21  2  0
 19 22  1  0
 19 23  2  0
 20 23  1  0
 23 24  1  0
M  END
