mac-x0380-mac-x0319
     RDKit          3D

 26 28  0  0  0  0  0  0  0  0999 V2000
   28.0230   48.1540   -3.9430 O   0  0  0  0  0  0  0  0  0  0  0  0
   28.8330   49.2060   -3.4320 C   0  0  0  0  0  0  0  0  0  0  0  0
   28.2980   49.4520   -2.1420 O   0  0  0  0  0  0  0  0  0  0  0  0
   30.3000   48.7100   -3.3300 C   0  0  0  0  0  0  0  0  0  0  0  0
   28.6810   50.4250   -4.3340 C   0  0  0  0  0  0  0  0  0  0  0  0
   28.7440   51.7230   -3.7860 C   0  0  0  0  0  0  0  0  0  0  0  0
   28.4750   50.2980   -5.7170 C   0  0  0  0  0  0  0  0  0  0  0  0
   30.5110   47.2200   -3.5210 C   0  0  0  0  0  0  0  0  0  0  0  0
   28.6050   52.8610   -4.5950 C   0  0  0  0  0  0  0  0  0  0  0  0
   28.3370   51.4280   -6.5290 C   0  0  0  0  0  0  0  0  0  0  0  0
   29.6330   46.2850   -2.9570 C   0  0  0  0  0  0  0  0  0  0  0  0
   31.6050   46.7580   -4.2770 C   0  0  0  0  0  0  0  0  0  0  0  0
   28.4010   52.7080   -5.9730 C   0  0  0  0  0  0  0  0  0  0  0  0
   28.6970   54.4650   -3.8280 S   0  0  0  0  0  0  0  0  0  0  0  0
   31.8270   45.3850   -4.4700 C   0  0  0  0  0  0  0  0  0  0  0  0
   29.8550   44.9220   -3.1490 C   0  0  0  0  0  0  0  0  0  0  0  0
   33.0060   44.9060   -5.2820 C   0  0  0  0  0  0  0  0  0  0  0  0
   29.0210   43.9850   -2.6140 O   0  0  0  0  0  0  0  0  0  0  0  0
   28.2550   53.8060   -6.8360 N   0  0  0  0  0  0  0  0  0  0  0  0
   29.2720   55.4220   -5.2500 C   0  0  0  0  0  0  0  0  0  0  0  0
   30.9370   44.4700   -3.8970 C   0  0  0  0  0  0  0  0  0  0  0  0
   33.0760   45.4990   -6.6660 C   0  0  0  0  0  0  0  0  0  0  0  0
   28.5280   55.1120   -6.5320 C   0  0  0  0  0  0  0  0  0  0  0  0
   28.1630   56.0040   -7.3030 O   0  0  0  0  0  0  0  0  0  0  0  0
   34.1330   46.3270   -6.8230 O   0  0  0  0  0  0  0  0  0  0  0  0
   32.3100   45.3040   -7.5960 O   0  0  0  0  0  0  0  0  0  0  0  0
  2  1  1  0
  2  3  1  0
  2  4  1  0
  2  5  1  0
  5  6  2  0
  5  7  1  0
  4  8  1  0
  6  9  1  0
  7 10  2  0
  8 11  2  0
  8 12  1  0
  9 13  2  0
 10 13  1  0
  9 14  1  0
 12 15  2  0
 11 16  1  0
 15 17  1  0
 16 18  1  0
 13 19  1  0
 14 20  1  0
 15 21  1  0
 16 21  2  0
 17 22  1  0
 19 23  1  0
 20 23  1  0
 23 24  2  0
 22 25  1  0
 22 26  2  0
M  END
