mac-x0576-mac-x0587
     RDKit          3D

 22 23  0  0  0  0  0  0  0  0999 V2000
   28.8490   47.5480   -9.0640 N   0  0  0  0  0  0  0  0  0  0  0  0
   29.0420   48.3950   -8.0280 C   0  0  0  0  0  0  0  0  0  0  0  0
   28.6280   49.6210   -8.0700 N   0  0  0  0  0  0  0  0  0  0  0  0
   29.6870   47.8450   -6.9700 N   0  0  0  0  0  0  0  0  0  0  0  0
   29.6950   48.4990   -5.7530 C   0  0  0  0  0  0  0  0  0  0  0  0
   28.8650   50.4140   -6.9700 C   0  0  0  0  0  0  0  0  0  0  0  0
   30.1580   47.7230   -4.5580 C   0  0  0  0  0  0  0  0  0  0  0  0
   29.2920   49.7820   -5.7060 C   0  0  0  0  0  0  0  0  0  0  0  0
   28.7000   51.6840   -7.1050 N   0  0  0  0  0  0  0  0  0  0  0  0
   30.3320   46.2070   -4.6730 C   0  0  2  0  0  0  0  0  0  0  0  0
   30.3900   48.3290   -3.5090 O   0  0  0  0  0  0  0  0  0  0  0  0
   28.9420   52.4460   -5.9990 C   0  0  0  0  0  0  0  0  0  0  0  0
   29.2470   50.5800   -4.5130 N   0  0  0  0  0  0  0  0  0  0  0  0
   29.0680   53.6640   -6.0200 O   0  0  0  0  0  0  0  0  0  0  0  0
   29.3220   45.3880   -3.8700 C   0  0  0  0  0  0  0  0  0  0  0  0
   32.0290   45.7750   -4.0940 S   0  0  0  0  0  0  0  0  0  0  0  0
   29.3570   50.1210   -3.3260 O   0  0  0  0  0  0  0  0  0  0  0  0
   29.0790   51.8610   -4.6470 C   0  0  0  0  0  0  0  0  0  0  0  0
   32.9930   46.2690   -5.5640 C   0  0  0  0  0  0  0  0  0  0  0  0
   34.0150   45.2270   -5.9570 C   0  0  0  0  0  0  0  0  0  0  0  0
   35.2110   45.4220   -6.1030 O   0  0  0  0  0  0  0  0  0  0  0  0
   33.5070   43.9930   -6.1450 O   0  0  0  0  0  0  0  0  0  0  0  0
  1  2  1  0
  2  3  2  0
  2  4  1  0
  4  5  1  0
  3  6  1  0
  5  7  1  0
  5  8  2  0
  6  8  1  0
  6  9  2  0
  7 10  1  0
  7 11  2  0
  9 12  1  0
  8 13  1  0
 12 14  2  0
 10 15  1  1
 10 16  1  0
 13 17  1  0
 12 18  1  0
 13 18  2  0
 16 19  1  0
 19 20  1  0
 20 21  2  0
 20 22  1  0
M  CHG  2  13   1  17  -1
M  END
