mac-x0139-mac-x0371
     RDKit          3D

 24 27  0  0  0  0  0  0  0  0999 V2000
   30.0820   46.9990   -4.8740 C   0  0  0  0  0  0  0  0  0  0  0  0
   30.1640   46.7850   -6.3360 N   0  0  0  0  0  0  0  0  0  0  0  0
   30.1640   45.3810   -6.7640 C   0  0  0  0  0  0  0  0  0  0  0  0
   30.4850   45.7690   -4.0860 C   0  0  0  0  0  0  0  0  0  0  0  0
   29.4650   47.6300   -7.1880 C   0  0  0  0  0  0  0  0  0  0  0  0
   31.1000   44.6520   -4.6890 C   0  0  0  0  0  0  0  0  0  0  0  0
   30.2220   45.7470   -2.7130 C   0  0  0  0  0  0  0  0  0  0  0  0
   31.3480   44.6590   -6.1720 C   0  0  2  0  0  0  0  0  0  0  0  0
   29.3360   48.9420   -6.9360 C   0  0  0  0  0  0  0  0  0  0  0  0
   28.9080   47.0370   -8.3270 N   0  0  0  0  0  0  0  0  0  0  0  0
   30.5660   44.6340   -1.9580 C   0  0  0  0  0  0  0  0  0  0  0  0
   31.4460   43.5470   -3.9220 C   0  0  0  0  0  0  0  0  0  0  0  0
   32.6310   45.2600   -6.7480 C   0  0  0  0  0  0  0  0  0  0  0  0
   32.2030   42.1600   -4.6260 Cl  0  0  0  0  0  0  0  0  0  0  0  0
   28.5870   49.7590   -7.9120 C   0  0  0  0  0  0  0  0  0  0  0  0
   28.2650   47.7930   -9.1500 C   0  0  0  0  0  0  0  0  0  0  0  0
   29.7300   49.8800   -5.9360 C   0  0  0  0  0  0  0  0  0  0  0  0
   31.1780   43.5370   -2.5580 C   0  0  0  0  0  0  0  0  0  0  0  0
   32.7670   45.4900   -7.9450 O   0  0  0  0  0  0  0  0  0  0  0  0
   33.8290   45.6030   -5.9450 N   0  0  0  0  0  0  0  0  0  0  0  0
   28.0790   49.1280   -9.0000 N   0  0  0  0  0  0  0  0  0  0  0  0
   28.5350   51.0100   -7.5570 N   0  0  0  0  0  0  0  0  0  0  0  0
   29.2330   51.0540   -6.3550 C   0  0  0  0  0  0  0  0  0  0  0  0
   34.5030   46.5250   -6.4250 O   0  0  0  0  0  0  0  0  0  0  0  0
  1  2  1  0
  2  3  1  0
  1  4  1  0
  2  5  1  0
  4  6  2  0
  4  7  1  0
  3  8  1  0
  6  8  1  0
  5  9  2  0
  5 10  1  0
  7 11  2  0
  6 12  1  0
  8 13  1  1
 12 14  1  0
  9 15  1  0
 10 16  2  0
  9 17  1  0
 11 18  1  0
 12 18  2  0
 13 19  2  0
 13 20  1  0
 15 21  1  0
 16 21  1  0
 15 22  2  0
 17 23  2  0
 22 23  1  0
 20 24  2  0
M  END
