mac-x0284-mac-x0453
     RDKit          3D

 13 13  0  0  0  0  0  0  0  0999 V2000
   28.7540   51.7250   -5.8200 C   0  0  0  0  0  0  0  0  0  0  0  0
   29.7700   52.8820   -6.0350 C   0  0  0  0  0  0  0  0  0  0  0  0
   29.2150   54.0760   -6.6900 N   0  0  0  0  0  0  0  0  0  0  0  0
   29.3040   50.5720   -4.9870 C   0  0  0  0  0  0  0  0  0  0  0  0
   29.4460   49.2740   -5.5240 C   0  0  0  0  0  0  0  0  0  0  0  0
   29.6830   50.7900   -3.6570 C   0  0  0  0  0  0  0  0  0  0  0  0
   29.9640   48.2160   -4.7440 C   0  0  0  0  0  0  0  0  0  0  0  0
   30.1960   49.7480   -2.8790 C   0  0  0  0  0  0  0  0  0  0  0  0
   30.1090   46.8520   -5.3300 C   0  0  0  0  0  0  0  0  0  0  0  0
   30.3380   48.4680   -3.4200 C   0  0  0  0  0  0  0  0  0  0  0  0
   30.8460   47.4720   -2.6370 O   0  0  0  0  0  0  0  0  0  0  0  0
   29.8260   46.4760   -6.4510 O   0  0  0  0  0  0  0  0  0  0  0  0
   30.6290   45.9800   -4.4400 O   0  0  0  0  0  0  0  0  0  0  0  0
  1  2  1  0
  2  3  1  0
  1  4  1  0
  4  5  2  0
  4  6  1  0
  5  7  1  0
  6  8  2  0
  7  9  1  0
  7 10  2  0
  8 10  1  0
 10 11  1  0
  9 12  2  0
  9 13  1  0
M  END
