mac-x0360-mac-x0142
     RDKit          3D

 28 32  0  0  0  0  0  0  0  0999 V2000
   34.0980   55.4920   -7.1970 Cl  0  0  0  0  0  0  0  0  0  0  0  0
   33.2110   54.1990   -6.4780 C   0  0  0  0  0  0  0  0  0  0  0  0
   33.9010   53.1660   -5.8490 C   0  0  0  0  0  0  0  0  0  0  0  0
   31.8200   54.1960   -6.5320 C   0  0  0  0  0  0  0  0  0  0  0  0
   31.0960   53.1470   -5.9490 C   0  0  0  0  0  0  0  0  0  0  0  0
   33.1830   52.1230   -5.2690 C   0  0  0  0  0  0  0  0  0  0  0  0
   34.0390   50.8460   -4.4900 Cl  0  0  0  0  0  0  0  0  0  0  0  0
   29.2810   53.0580   -5.9680 S   0  0  0  0  0  0  0  0  0  0  0  0
   31.7890   52.1070   -5.3150 C   0  0  0  0  0  0  0  0  0  0  0  0
   29.2030   52.0720   -7.3120 N   0  0  0  0  0  0  0  0  0  0  0  0
   29.1500   51.8250   -4.7910 N   0  0  0  0  0  0  0  0  0  0  0  0
   29.0040   50.5340   -5.1790 C   0  0  0  0  0  0  0  0  0  0  0  0
   28.1920   50.1710   -6.2740 N   0  0  0  0  0  0  0  0  0  0  0  0
   29.5870   49.4570   -4.6010 C   0  0  0  0  0  0  0  0  0  0  0  0
   28.2860   48.8740   -6.3550 C   0  0  0  0  0  0  0  0  0  0  0  0
   29.1650   48.2960   -5.3120 C   0  0  0  0  0  0  0  0  0  0  0  0
   27.6570   48.0860   -7.2860 N   0  0  0  0  0  0  0  0  0  0  0  0
   29.3610   46.9620   -5.2500 C   0  0  0  0  0  0  0  0  0  0  0  0
   30.1620   46.2830   -4.3160 N   0  0  0  0  0  0  0  0  0  0  0  0
   28.6900   46.2340   -6.2180 N   0  0  0  0  0  0  0  0  0  0  0  0
   27.8970   46.8270   -7.1600 C   0  0  0  0  0  0  0  0  0  0  0  0
   30.7860   46.9580   -3.1680 C   0  0  0  0  0  0  0  0  0  0  0  0
   30.5900   44.8990   -4.5480 C   0  0  0  0  0  0  0  0  0  0  0  0
   32.1030   44.8170   -4.6290 C   0  0  0  0  0  0  0  0  0  0  0  0
   32.3010   46.9810   -3.3540 C   0  0  0  0  0  0  0  0  0  0  0  0
   32.7440   43.5580   -5.1760 C   0  0  0  0  0  0  0  0  0  0  0  0
   32.7300   44.8040   -6.0140 C   0  0  0  0  0  0  0  0  0  0  0  0
   32.8340   45.5550   -3.5240 C   0  0  0  0  0  0  0  0  0  0  0  0
  1  2  1  0
  2  3  2  0
  2  4  1  0
  4  5  2  0
  3  6  1  0
  6  7  1  0
  5  8  1  0
  5  9  1  0
  6  9  2  0
  8 10  1  0
  8 11  2  3
 11 12  1  0
 12 13  1  0
 12 14  2  0
 13 15  2  0
 14 16  1  0
 15 16  1  0
 15 17  1  0
 16 18  2  0
 18 19  1  0
 18 20  1  0
 17 21  2  0
 20 21  1  0
 19 22  1  0
 19 23  1  0
 24 23  1  0
 22 25  1  0
 24 26  1  0
 24 27  1  0
 26 27  1  0
 24 28  1  0
 25 28  1  0
M  END
