mac-x0178-mac-x0188
     RDKit          3D

 20 21  0  0  0  0  0  0  0  0999 V2000
   28.9100   45.5120    0.2130 N   0  0  0  0  0  0  0  0  0  0  0  0
   29.2330   46.9410   -0.6030 S   0  0  0  0  0  0  0  0  0  0  0  0
   29.7820   47.8210    0.4020 O   0  0  0  0  0  0  0  0  0  0  0  0
   28.0150   47.2520   -1.3140 O   0  0  0  0  0  0  0  0  0  0  0  0
   30.5360   46.4560   -1.7630 C   0  0  1  0  0  0  0  0  0  0  0  0
   30.0920   45.3100   -2.6610 C   0  0  0  0  0  0  0  0  0  0  0  0
   30.9720   47.6680   -2.5960 C   0  0  0  0  0  0  0  0  0  0  0  0
   30.8760   45.2880   -3.9810 C   0  0  1  0  0  0  0  0  0  0  0  0
   30.2960   47.8190   -3.9910 C   0  0  0  0  0  0  0  0  0  0  0  0
   30.6410   43.9260   -4.6500 C   0  0  0  0  0  0  0  0  0  0  0  0
   30.4960   46.5200   -4.8740 C   0  0  1  0  0  0  0  0  0  0  0  0
   28.8190   48.1480   -3.7810 C   0  0  0  0  0  0  0  0  0  0  0  0
   31.0240   49.0130   -4.6160 C   0  0  0  0  0  0  0  0  0  0  0  0
   31.4600   46.6860   -6.0820 C   0  0  0  0  0  0  0  0  0  0  0  0
   28.2990   49.3810   -3.9150 C   0  0  0  0  0  0  0  0  0  0  0  0
   30.4900   50.2400   -4.7440 C   0  0  0  0  0  0  0  0  0  0  0  0
   31.5490   45.5090   -6.8400 O   0  0  0  0  0  0  0  0  0  0  0  0
   32.7910   46.9580   -5.7660 O   0  0  0  0  0  0  0  0  0  0  0  0
   31.0470   47.6690   -6.9880 O   0  0  0  0  0  0  0  0  0  0  0  0
   29.1070   50.5870   -4.2890 C   0  0  0  0  0  0  0  0  0  0  0  0
  2  1  1  0
  2  3  2  0
  2  4  2  0
  5  2  1  1
  5  6  1  0
  5  7  1  0
  6  8  1  0
  7  9  1  0
  8 10  1  6
  8 11  1  0
  9 11  1  0
  9 12  1  0
  9 13  1  0
 11 14  1  6
 12 15  2  0
 13 16  2  0
 14 17  1  0
 14 18  1  0
 14 19  1  0
 15 20  1  0
 16 20  1  0
M  END
