mac-x0306-mac-x0439
     RDKit          3D

 26 29  0  0  0  0  0  0  0  0999 V2000
   30.4010   47.4930   -2.0140 C   0  0  0  0  0  0  0  0  0  0  0  0
   31.3090   47.9480   -3.1630 C   0  0  0  0  0  0  0  0  0  0  0  0
   30.5870   48.3220   -4.4600 C   0  0  0  0  0  0  0  0  0  0  0  0
   29.7020   46.1620   -2.1390 C   0  0  0  0  0  0  0  0  0  0  0  0
   30.2620   45.0450   -2.9910 C   0  0  2  0  0  0  0  0  0  0  0  0
   28.5520   45.9140   -1.4710 C   0  0  0  0  0  0  0  0  0  0  0  0
   29.6430   49.4520   -4.3360 N   0  0  0  0  0  0  0  0  0  0  0  0
   30.9250   45.2200   -4.3140 C   0  0  0  0  0  0  0  0  0  0  0  0
   29.1250   44.1770   -3.5030 C   0  0  0  0  0  0  0  0  0  0  0  0
   27.8580   44.6390   -1.5580 C   0  0  0  0  0  0  0  0  0  0  0  0
   29.7980   50.3910   -3.3180 C   0  0  0  0  0  0  0  0  0  0  0  0
   28.9910   49.9200   -5.4760 C   0  0  0  0  0  0  0  0  0  0  0  0
   30.2700   44.5100   -5.2480 C   0  0  0  0  0  0  0  0  0  0  0  0
   29.1510   43.8620   -4.7650 N   0  0  0  0  0  0  0  0  0  0  0  0
   28.1020   43.7510   -2.5360 C   0  0  0  0  0  0  0  0  0  0  0  0
   30.6810   44.4070   -6.6770 C   0  0  0  0  0  0  0  0  0  0  0  0
   29.8810   51.7080   -3.5640 C   0  0  0  0  0  0  0  0  0  0  0  0
   29.0320   51.2090   -5.8410 C   0  0  0  0  0  0  0  0  0  0  0  0
   30.4290   43.1950   -7.2110 O   0  0  0  0  0  0  0  0  0  0  0  0
   31.2030   45.2790   -7.3470 O   0  0  0  0  0  0  0  0  0  0  0  0
   29.8110   52.1960   -4.9980 C   0  0  0  0  0  0  0  0  0  0  0  0
   29.4800   53.6550   -5.1660 C   0  0  0  0  0  0  0  0  0  0  0  0
   28.8880   54.1670   -6.2950 N   0  0  0  0  0  0  0  0  0  0  0  0
   29.7120   54.6140   -4.2880 N   0  0  0  0  0  0  0  0  0  0  0  0
   29.2600   55.7670   -4.8690 C   0  0  0  0  0  0  0  0  0  0  0  0
   28.7440   55.5150   -6.1140 C   0  0  0  0  0  0  0  0  0  0  0  0
  1  2  1  0
  2  3  1  0
  1  4  1  0
  4  5  1  0
  4  6  2  0
  3  7  1  0
  5  8  1  6
  5  9  1  0
  6 10  1  0
  7 11  1  0
  7 12  1  0
  8 13  2  0
  9 14  2  0
 13 14  1  0
  9 15  1  0
 10 15  2  0
 13 16  1  0
 11 17  2  0
 12 18  2  0
 16 19  1  0
 16 20  2  0
 17 21  1  0
 18 21  1  0
 21 22  1  0
 22 23  1  0
 22 24  2  0
 24 25  1  0
 23 26  1  0
 25 26  2  0
M  END
