mac-x0206-mac-x0213
     RDKit          3D

 24 26  0  0  0  0  0  0  0  0999 V2000
   29.1600   49.8880   -5.3690 N   0  0  0  0  0  0  0  0  0  0  0  0
   29.6510   50.9250   -4.6070 C   0  0  0  0  0  0  0  0  0  0  0  0
   30.3120   50.8410   -3.4920 N   0  0  0  0  0  0  0  0  0  0  0  0
   29.4090   52.3290   -5.0820 C   0  0  0  0  0  0  0  0  0  0  0  0
   30.6340   49.5650   -2.8370 C   0  0  0  0  0  0  0  0  0  0  0  0
   29.7740   53.4110   -4.2780 C   0  0  0  0  0  0  0  0  0  0  0  0
   28.8120   52.5710   -6.3300 C   0  0  0  0  0  0  0  0  0  0  0  0
   30.3530   53.1990   -3.0590 O   0  0  0  0  0  0  0  0  0  0  0  0
   31.4080   48.6080   -3.7490 C   0  0  0  0  0  0  0  0  0  0  0  0
   29.5590   54.7210   -4.6980 C   0  0  0  0  0  0  0  0  0  0  0  0
   28.5950   53.8880   -6.7540 C   0  0  0  0  0  0  0  0  0  0  0  0
   28.9670   54.9600   -5.9390 C   0  0  0  0  0  0  0  0  0  0  0  0
   30.6710   47.2950   -4.0450 C   0  0  1  0  0  0  0  0  0  0  0  0
   31.4380   46.0300   -4.4880 C   0  0  2  0  0  0  0  0  0  0  0  0
   29.8310   46.7200   -2.9300 C   0  0  0  0  0  0  0  0  0  0  0  0
   32.0060   46.1720   -5.8780 C   0  0  0  0  0  0  0  0  0  0  0  0
   29.6420   45.3520   -3.1570 C   0  0  0  0  0  0  0  0  0  0  0  0
   30.3600   44.9220   -4.4060 C   0  0  0  0  0  0  0  0  0  0  0  0
   29.2690   47.3350   -1.8200 C   0  0  0  0  0  0  0  0  0  0  0  0
   33.3060   46.5420   -5.9060 O   0  0  0  0  0  0  0  0  0  0  0  0
   31.3750   45.9810   -6.9070 O   0  0  0  0  0  0  0  0  0  0  0  0
   28.5100   46.5640   -0.9410 C   0  0  0  0  0  0  0  0  0  0  0  0
   28.8880   44.5800   -2.2910 C   0  0  0  0  0  0  0  0  0  0  0  0
   28.3160   45.1980   -1.1760 C   0  0  0  0  0  0  0  0  0  0  0  0
  1  2  1  0
  2  3  2  3
  2  4  1  0
  3  5  1  0
  4  6  2  0
  4  7  1  0
  6  8  1  0
  5  9  1  0
  6 10  1  0
  7 11  2  0
 10 12  2  0
 11 12  1  0
 13  9  1  1
 13 14  1  0
 13 15  1  0
 14 16  1  6
 15 17  2  0
 14 18  1  0
 17 18  1  0
 15 19  1  0
 16 20  1  0
 16 21  2  0
 19 22  2  0
 17 23  1  0
 22 24  1  0
 23 24  2  0
M  END
