mac-x0277-mac-x0555
     RDKit          3D

 25 27  0  0  0  0  0  0  0  0999 V2000
   27.6190   46.4560   -0.9890 Cl  0  0  0  0  0  0  0  0  0  0  0  0
   28.9560   46.1550   -2.0450 C   0  0  0  0  0  0  0  0  0  0  0  0
   30.2180   46.7430   -1.8570 C   0  0  0  0  0  0  0  0  0  0  0  0
   28.7300   45.2860   -3.1150 C   0  0  0  0  0  0  0  0  0  0  0  0
   30.5280   47.6910   -0.7210 C   0  0  0  0  0  0  0  0  0  0  0  0
   31.2400   46.4280   -2.7760 C   0  0  0  0  0  0  0  0  0  0  0  0
   29.7520   44.9860   -4.0130 C   0  0  0  0  0  0  0  0  0  0  0  0
   30.1670   49.1670   -0.9560 C   0  0  0  0  0  0  0  0  0  0  0  0
   31.0210   45.5530   -3.8540 C   0  0  0  0  0  0  0  0  0  0  0  0
   32.1360   45.2280   -4.8210 C   0  0  0  0  0  0  0  0  0  0  0  0
   28.8600   49.3990   -1.7310 C   0  0  0  0  0  0  0  0  0  0  0  0
   32.1190   45.9770   -6.1420 C   0  0  0  0  0  0  0  0  0  0  0  0
   29.0040   50.3120   -2.9230 C   0  0  0  0  0  0  0  0  0  0  0  0
   33.1290   46.8830   -6.2250 O   0  0  0  0  0  0  0  0  0  0  0  0
   31.3240   45.8270   -7.0550 O   0  0  0  0  0  0  0  0  0  0  0  0
   29.2400   51.6850   -2.7500 C   0  0  0  0  0  0  0  0  0  0  0  0
   28.9070   49.8040   -4.2200 C   0  0  0  0  0  0  0  0  0  0  0  0
   29.3790   52.5560   -3.8240 C   0  0  0  0  0  0  0  0  0  0  0  0
   29.0430   50.6520   -5.3170 C   0  0  0  0  0  0  0  0  0  0  0  0
   29.2780   52.0230   -5.1260 C   0  0  0  0  0  0  0  0  0  0  0  0
   29.6030   53.8600   -3.6000 N   0  0  0  0  0  0  0  0  0  0  0  0
   29.4180   52.9020   -6.2130 C   0  0  0  0  0  0  0  0  0  0  0  0
   29.7330   54.6710   -4.6760 C   0  0  0  0  0  0  0  0  0  0  0  0
   29.6510   54.2580   -6.0000 C   0  0  0  0  0  0  0  0  0  0  0  0
   29.7940   55.1410   -7.0750 N   0  0  0  0  0  0  0  0  0  0  0  0
  1  2  1  0
  2  3  2  0
  2  4  1  0
  3  5  1  0
  3  6  1  0
  4  7  2  0
  5  8  1  0
  6  9  2  0
  7  9  1  0
  9 10  1  0
  8 11  1  0
 10 12  1  0
 11 13  1  0
 12 14  1  0
 12 15  2  0
 13 16  2  0
 13 17  1  0
 16 18  1  0
 17 19  2  0
 18 20  2  0
 19 20  1  0
 18 21  1  0
 20 22  1  0
 21 23  2  0
 22 24  2  0
 23 24  1  0
 24 25  1  0
M  END
