mac-x0439-mac-x0415
     RDKit          3D

 17 19  0  0  0  0  0  0  0  0999 V2000
   31.4960   47.3630   -2.1730 Cl  0  0  0  0  0  0  0  0  0  0  0  0
   30.2380   46.1730   -2.1640 C   0  0  0  0  0  0  0  0  0  0  0  0
   30.4810   44.9060   -2.9360 C   0  0  2  0  0  0  0  0  0  0  0  0
   29.0710   46.3440   -1.4970 C   0  0  0  0  0  0  0  0  0  0  0  0
   28.6290   47.8670   -0.4920 Br  0  0  0  0  0  0  0  0  0  0  0  0
   31.1360   44.8640   -4.2780 C   0  0  0  0  0  0  0  0  0  0  0  0
   29.1150   44.4420   -3.4450 C   0  0  0  0  0  0  0  0  0  0  0  0
   28.0470   45.2950   -1.5290 C   0  0  0  0  0  0  0  0  0  0  0  0
   32.5410   45.2010   -4.6370 C   0  0  0  0  0  0  0  0  0  0  0  0
   30.2560   44.4460   -5.1910 C   0  0  0  0  0  0  0  0  0  0  0  0
   29.0040   44.1780   -4.7120 N   0  0  0  0  0  0  0  0  0  0  0  0
   28.0260   44.3350   -2.4670 C   0  0  0  0  0  0  0  0  0  0  0  0
   30.7560   44.3390   -6.5700 C   0  0  0  0  0  0  0  0  0  0  0  0
   32.7050   45.5530   -6.1400 C   0  0  1  0  0  0  0  0  0  0  0  0
   29.9410   43.6530   -7.3810 O   0  0  0  0  0  0  0  0  0  0  0  0
   31.8410   44.8050   -7.0730 N   0  0  0  0  0  0  0  0  0  0  0  0
   32.5370   46.9530   -6.2890 O   0  0  0  0  0  0  0  0  0  0  0  0
  1  2  1  0
  3  2  1  6
  2  4  2  0
  4  5  1  0
  3  6  1  0
  3  7  1  0
  4  8  1  0
  6  9  1  0
  6 10  2  0
  7 11  2  0
 10 11  1  0
  7 12  1  0
  8 12  2  0
 10 13  1  0
  9 14  1  0
 13 15  1  0
 13 16  2  0
 14 16  1  0
 14 17  1  1
M  END
