mac-x0333-mac-x0373
     RDKit          3D

 19 21  0  0  0  0  0  0  0  0999 V2000
   30.5420   48.0990   -4.5510 N   0  0  0  0  0  0  0  0  0  0  0  0
   30.1920   47.0580   -5.4570 C   0  0  0  0  0  0  0  0  0  0  0  0
   31.0810   46.8840   -6.4800 O   0  0  0  0  0  0  0  0  0  0  0  0
   30.0770   49.4650   -4.8000 C   0  0  0  0  0  0  0  0  0  0  0  0
   31.9320   48.0090   -4.1450 C   0  0  0  0  0  0  0  0  0  0  0  0
   29.2160   46.3150   -5.4120 O   0  0  0  0  0  0  0  0  0  0  0  0
   30.3170   50.5490   -3.9090 C   0  0  0  0  0  0  0  0  0  0  0  0
   29.3580   49.7310   -5.9900 C   0  0  0  0  0  0  0  0  0  0  0  0
   32.4710   46.8830   -3.4840 C   0  0  0  0  0  0  0  0  0  0  0  0
   32.8100   49.0720   -4.4150 C   0  0  0  0  0  0  0  0  0  0  0  0
   29.8430   51.8150   -4.2600 C   0  0  0  0  0  0  0  0  0  0  0  0
   28.8950   51.0160   -6.3100 C   0  0  0  0  0  0  0  0  0  0  0  0
   33.8230   46.8300   -3.1150 C   0  0  0  0  0  0  0  0  0  0  0  0
   34.1560   49.0190   -4.0470 C   0  0  0  0  0  0  0  0  0  0  0  0
   29.1570   52.0370   -5.4260 C   0  0  0  0  0  0  0  0  0  0  0  0
   29.9820   52.9690   -3.5410 O   0  0  0  0  0  0  0  0  0  0  0  0
   34.6660   47.9020   -3.3970 C   0  0  0  0  0  0  0  0  0  0  0  0
   28.7930   53.3410   -5.5800 O   0  0  0  0  0  0  0  0  0  0  0  0
   29.5870   53.9380   -4.5370 C   0  0  0  0  0  0  0  0  0  0  0  0
  1  2  1  0
  2  3  1  0
  1  4  1  0
  1  5  1  0
  2  6  2  0
  4  7  2  0
  4  8  1  0
  5  9  2  0
  5 10  1  0
  7 11  1  0
  8 12  2  0
  9 13  1  0
 10 14  2  0
 11 15  2  0
 12 15  1  0
 11 16  1  0
 13 17  2  0
 14 17  1  0
 15 18  1  0
 16 19  1  0
 18 19  1  0
M  END
