mac-x0392-mac-x0568
     RDKit          3D

 20 21  0  0  0  0  0  0  0  0999 V2000
   29.3570   46.3930   -8.1780 N   0  0  0  0  0  0  0  0  0  0  0  0
   29.4170   47.7090   -7.6890 C   0  0  0  0  0  0  0  0  0  0  0  0
   29.1160   48.7700   -8.5430 C   0  0  0  0  0  0  0  0  0  0  0  0
   29.7690   48.0440   -6.3650 C   0  0  0  0  0  0  0  0  0  0  0  0
   30.1150   46.9900   -5.3610 C   0  0  0  0  0  0  0  0  0  0  0  0
   29.8030   49.4020   -5.9610 C   0  0  0  0  0  0  0  0  0  0  0  0
   29.1370   50.0700   -8.2010 N   0  0  0  0  0  0  0  0  0  0  0  0
   30.7650   47.1720   -4.3410 O   0  0  0  0  0  0  0  0  0  0  0  0
   29.6500   45.7580   -5.6490 O   0  0  0  0  0  0  0  0  0  0  0  0
   30.1540   49.7470   -4.6300 N   0  0  0  0  0  0  0  0  0  0  0  0
   29.4780   50.3560   -6.9250 C   0  0  0  0  0  0  0  0  0  0  0  0
   29.5200   50.6560   -3.8070 C   0  0  0  0  0  0  0  0  0  0  0  0
   28.9750   50.3970   -2.7410 O   0  0  0  0  0  0  0  0  0  0  0  0
   29.5120   52.0630   -4.2780 C   0  0  0  0  0  0  0  0  0  0  0  0
   30.3850   53.0250   -3.7900 C   0  0  0  0  0  0  0  0  0  0  0  0
   28.5940   52.4630   -5.2520 C   0  0  0  0  0  0  0  0  0  0  0  0
   30.3980   54.3160   -4.2020 N   0  0  0  0  0  0  0  0  0  0  0  0
   28.5840   53.7840   -5.6940 C   0  0  0  0  0  0  0  0  0  0  0  0
   29.4990   54.6810   -5.1470 C   0  0  0  0  0  0  0  0  0  0  0  0
   29.5150   56.1100   -5.5980 C   0  0  0  0  0  0  0  0  0  0  0  0
  1  2  1  0
  2  3  2  0
  2  4  1  0
  4  5  1  0
  4  6  2  0
  3  7  1  0
  5  8  2  0
  5  9  1  0
  6 10  1  0
  6 11  1  0
  7 11  2  0
 10 12  1  0
 12 13  2  0
 12 14  1  0
 14 15  2  0
 14 16  1  0
 15 17  1  0
 16 18  2  0
 17 19  2  0
 18 19  1  0
 19 20  1  0
M  END
