mac-x0404-mac-x0301
     RDKit          3D

 26 29  0  0  0  0  0  0  0  0999 V2000
   32.3670   44.2480   -6.8110 O   0  0  0  0  0  0  0  0  0  0  0  0
   32.9870   44.8560   -5.7800 C   0  0  0  0  0  0  0  0  0  0  0  0
   34.1050   45.3290   -5.9500 O   0  0  0  0  0  0  0  0  0  0  0  0
   32.2180   44.8930   -4.4610 C   0  0  0  0  0  0  0  0  0  0  0  0
   31.3270   46.0480   -4.2460 N   0  0  0  0  0  0  0  0  0  0  0  0
   31.3880   47.0760   -5.1900 C   0  0  0  0  0  0  0  0  0  0  0  0
   30.9820   46.3540   -2.9010 C   0  0  0  0  0  0  0  0  0  0  0  0
   32.3320   47.2290   -5.9570 O   0  0  0  0  0  0  0  0  0  0  0  0
   29.7510   45.9240   -2.3300 C   0  0  0  0  0  0  0  0  0  0  0  0
   31.8920   47.1040   -2.1470 C   0  0  0  0  0  0  0  0  0  0  0  0
   30.2690   48.0410   -5.2570 C   0  0  0  0  0  0  0  0  0  0  0  0
   29.4780   46.2800   -0.9880 C   0  0  0  0  0  0  0  0  0  0  0  0
   31.6090   47.4450   -0.8330 C   0  0  0  0  0  0  0  0  0  0  0  0
   28.7760   45.1630   -3.0180 C   0  0  0  0  0  0  0  0  0  0  0  0
   29.5490   48.2170   -6.4240 C   0  0  0  0  0  0  0  0  0  0  0  0
   29.9100   48.8080   -4.1330 C   0  0  0  0  0  0  0  0  0  0  0  0
   30.4100   47.0350   -0.2580 C   0  0  0  0  0  0  0  0  0  0  0  0
   28.2760   45.8800   -0.3860 C   0  0  0  0  0  0  0  0  0  0  0  0
   27.5850   44.7720   -2.4060 C   0  0  0  0  0  0  0  0  0  0  0  0
   28.5110   49.1180   -6.4840 C   0  0  0  0  0  0  0  0  0  0  0  0
   28.8480   49.7250   -4.2080 C   0  0  0  0  0  0  0  0  0  0  0  0
   29.7310   47.5780   -7.6150 O   0  0  0  0  0  0  0  0  0  0  0  0
   27.3340   45.1310   -1.0890 C   0  0  0  0  0  0  0  0  0  0  0  0
   28.1370   49.8840   -5.4000 C   0  0  0  0  0  0  0  0  0  0  0  0
   27.9230   49.1530   -7.7120 O   0  0  0  0  0  0  0  0  0  0  0  0
   28.6020   48.0630   -8.3640 C   0  0  0  0  0  0  0  0  0  0  0  0
  1  2  1  0
  2  3  2  0
  2  4  1  0
  4  5  1  0
  5  6  1  0
  5  7  1  0
  6  8  2  0
  7  9  1  0
  7 10  2  0
  6 11  1  0
  9 12  2  0
 10 13  1  0
  9 14  1  0
 11 15  1  0
 11 16  2  0
 12 17  1  0
 13 17  2  0
 12 18  1  0
 14 19  2  0
 15 20  2  0
 16 21  1  0
 15 22  1  0
 18 23  2  0
 19 23  1  0
 20 24  1  0
 21 24  2  0
 20 25  1  0
 22 26  1  0
 25 26  1  0
M  END
