mac-x0341-mac-x0338
     RDKit          3D

 20 22  0  0  0  0  0  0  0  0999 V2000
   29.1550   53.6440   -6.9200 N   0  0  0  0  0  0  0  0  0  0  0  0
   30.3810   53.8260   -6.4880 C   0  0  0  0  0  0  0  0  0  0  0  0
   31.0000   54.9770   -6.9080 N   0  0  0  0  0  0  0  0  0  0  0  0
   28.5170   52.5140   -6.5210 C   0  0  0  0  0  0  0  0  0  0  0  0
   27.6400   52.6590   -5.4920 N   0  0  0  0  0  0  0  0  0  0  0  0
   28.7610   51.3900   -7.1100 N   0  0  0  0  0  0  0  0  0  0  0  0
   31.1260   52.8800   -5.5880 C   0  0  0  0  0  0  0  0  0  0  0  0
   27.1350   51.5940   -4.8070 C   0  0  0  0  0  0  0  0  0  0  0  0
   28.0850   50.2560   -6.6350 C   0  0  0  0  0  0  0  0  0  0  0  0
   31.6550   51.7650   -6.1650 N   0  0  0  0  0  0  0  0  0  0  0  0
   31.2570   53.1510   -4.2310 C   0  0  0  0  0  0  0  0  0  0  0  0
   26.6070   51.6930   -3.7060 O   0  0  0  0  0  0  0  0  0  0  0  0
   27.2680   50.2930   -5.4990 C   0  0  0  0  0  0  0  0  0  0  0  0
   28.2340   49.0450   -7.3140 C   0  0  0  0  0  0  0  0  0  0  0  0
   32.3150   50.9420   -5.3150 C   0  0  0  0  0  0  0  0  0  0  0  0
   31.9250   52.3220   -3.3800 N   0  0  0  0  0  0  0  0  0  0  0  0
   27.5780   47.8940   -6.8640 C   0  0  0  0  0  0  0  0  0  0  0  0
   26.6070   49.1520   -5.0400 C   0  0  0  0  0  0  0  0  0  0  0  0
   32.4480   51.2120   -3.9600 C   0  0  0  0  0  0  0  0  0  0  0  0
   26.7660   47.9490   -5.7290 C   0  0  0  0  0  0  0  0  0  0  0  0
  1  2  2  3
  2  3  1  0
  1  4  1  0
  4  5  1  0
  4  6  2  0
  2  7  1  0
  5  8  1  0
  6  9  1  0
  7 10  2  0
  7 11  1  0
  8 12  2  0
  8 13  1  0
  9 13  2  0
  9 14  1  0
 10 15  1  0
 11 16  2  0
 14 17  2  0
 13 18  1  0
 15 19  2  0
 16 19  1  0
 17 20  1  0
 18 20  2  0
M  END
