mac-x0402-mac-x0255
     RDKit          3D

 25 28  0  0  0  0  0  0  0  0999 V2000
   30.9870   48.0920   -2.7630 Cl  0  0  0  0  0  0  0  0  0  0  0  0
   30.3880   49.4020   -3.7190 C   0  0  0  0  0  0  0  0  0  0  0  0
   30.4370   50.6330   -3.0730 C   0  0  0  0  0  0  0  0  0  0  0  0
   29.8890   49.2430   -5.0450 C   0  0  0  0  0  0  0  0  0  0  0  0
   29.8330   47.8880   -5.7460 C   0  0  0  0  0  0  0  0  0  0  0  0
   29.4450   50.4700   -5.6590 C   0  0  0  0  0  0  0  0  0  0  0  0
   29.9970   51.7860   -3.7020 C   0  0  0  0  0  0  0  0  0  0  0  0
   29.4960   51.7140   -5.0060 C   0  0  0  0  0  0  0  0  0  0  0  0
   28.7760   50.7730   -7.2370 S   0  0  0  0  0  0  0  0  0  0  0  0
   30.2360   46.7710   -4.7820 C   0  0  0  0  0  0  0  0  0  0  0  0
   28.6350   52.4450   -6.8960 C   0  0  0  0  0  0  0  0  0  0  0  0
   29.0400   52.8080   -5.7130 N   0  0  0  0  0  0  0  0  0  0  0  0
   31.4650   46.1110   -4.8560 C   0  0  0  0  0  0  0  0  0  0  0  0
   29.4390   46.2520   -3.6670 C   0  0  0  0  0  0  0  0  0  0  0  0
   28.1410   53.3160   -7.7910 N   0  0  0  0  0  0  0  0  0  0  0  0
   32.6070   46.3040   -5.8220 C   0  0  0  0  0  0  0  0  0  0  0  0
   30.1070   45.2510   -2.9730 C   0  0  0  0  0  0  0  0  0  0  0  0
   31.6490   44.9320   -3.6400 S   0  0  0  0  0  0  0  0  0  0  0  0
   28.1430   46.5930   -3.1930 C   0  0  0  0  0  0  0  0  0  0  0  0
   32.5640   45.4220   -7.0480 C   0  0  0  0  0  0  0  0  0  0  0  0
   27.5740   45.9590   -2.0840 C   0  0  0  0  0  0  0  0  0  0  0  0
   29.5420   44.6070   -1.8550 C   0  0  0  0  0  0  0  0  0  0  0  0
   31.3350   45.1350   -7.5310 O   0  0  0  0  0  0  0  0  0  0  0  0
   33.5800   45.0000   -7.5800 O   0  0  0  0  0  0  0  0  0  0  0  0
   28.2710   44.9740   -1.4210 C   0  0  0  0  0  0  0  0  0  0  0  0
  1  2  1  0
  2  3  2  0
  2  4  1  0
  4  5  1  0
  4  6  2  0
  3  7  1  0
  6  8  1  0
  7  8  2  0
  6  9  1  0
  5 10  1  0
  9 11  1  0
  8 12  1  0
 11 12  2  0
 10 13  2  0
 10 14  1  0
 11 15  1  0
 13 16  1  0
 14 17  2  0
 13 18  1  0
 17 18  1  0
 14 19  1  0
 16 20  1  0
 19 21  2  0
 17 22  1  0
 20 23  1  0
 20 24  2  0
 21 25  1  0
 22 25  2  0
M  END
