mac-x0305-mac-x0148
     RDKit          3D

 23 26  0  0  0  0  0  0  0  0999 V2000
   30.3250   48.3150   -9.0840 O   0  0  0  0  0  0  0  0  0  0  0  0
   30.9440   48.0100   -7.9220 C   0  0  0  0  0  0  0  0  0  0  0  0
   32.0000   47.3950   -7.9860 O   0  0  0  0  0  0  0  0  0  0  0  0
   30.2160   48.4850   -6.6530 C   0  0  2  0  0  0  0  0  0  0  0  0
   28.8330   49.0810   -7.0550 C   0  0  2  0  0  0  0  0  0  0  0  0
   31.0970   49.4370   -5.8780 N   0  0  0  0  0  0  0  0  0  0  0  0
   29.9510   47.3040   -5.7030 C   0  0  0  0  0  0  0  0  0  0  0  0
   28.9340   50.0120   -8.1200 O   0  0  0  0  0  0  0  0  0  0  0  0
   28.2510   49.8730   -5.9100 C   0  0  0  0  0  0  0  0  0  0  0  0
   30.4780   50.3040   -5.1490 C   0  0  0  0  0  0  0  0  0  0  0  0
   30.9210   46.9320   -4.7460 N   0  0  0  0  0  0  0  0  0  0  0  0
   28.8390   46.6230   -5.7770 N   0  0  0  0  0  0  0  0  0  0  0  0
   27.8220   48.0730   -7.3380 N   0  0  0  0  0  0  0  0  0  0  0  0
   29.0200   50.4650   -4.9910 C   0  0  0  0  0  0  0  0  0  0  0  0
   30.6160   47.0280   -3.3050 C   0  0  2  0  0  0  0  0  0  0  0  0
   31.8790   45.8850   -5.1240 C   0  0  0  0  0  0  0  0  0  0  0  0
   27.8990   46.9650   -6.7010 C   0  0  0  0  0  0  0  0  0  0  0  0
   30.7870   48.4230   -2.7050 C   0  0  0  0  0  0  0  0  0  0  0  0
   31.5600   46.1950   -2.4380 C   0  0  2  0  0  0  0  0  0  0  0  0
   33.1990   46.1170   -4.4060 C   0  0  0  0  0  0  0  0  0  0  0  0
   31.3930   46.8620   -1.0840 C   0  0  0  0  0  0  0  0  0  0  0  0
   31.2350   48.2620   -1.3390 O   0  0  0  0  0  0  0  0  0  0  0  0
   33.0290   46.2410   -2.8970 C   0  0  0  0  0  0  0  0  0  0  0  0
  1  2  1  0
  2  3  2  0
  4  2  1  6
  4  5  1  0
  4  6  1  0
  4  7  1  0
  5  8  1  6
  5  9  1  0
  6 10  2  0
  7 11  1  0
  7 12  2  0
  5 13  1  0
  9 14  2  0
 10 14  1  0
 11 15  1  0
 11 16  1  0
 12 17  1  0
 13 17  2  0
 15 18  1  1
 15 19  1  0
 16 20  1  0
 19 21  1  1
 18 22  1  0
 21 22  1  0
 19 23  1  0
 20 23  1  0
M  END
