mac-x0228-mac-x0223
     RDKit          3D

 25 27  0  0  0  0  0  0  0  0999 V2000
   32.6970   49.0370   -2.9520 O   0  0  0  0  0  0  0  0  0  0  0  0
   32.1110   49.2080   -4.2490 C   0  0  2  0  0  0  0  0  0  0  0  0
   31.1210   50.3510   -4.1430 C   0  0  0  0  0  0  0  0  0  0  0  0
   31.5710   47.8430   -4.7330 C   0  0  0  0  0  0  0  0  0  0  0  0
   30.6490   51.0540   -5.2630 C   0  0  0  0  0  0  0  0  0  0  0  0
   30.6560   50.7230   -2.8550 C   0  0  0  0  0  0  0  0  0  0  0  0
   30.5890   47.0680   -3.8680 C   0  0  0  0  0  0  0  0  0  0  0  0
   29.7470   52.0870   -5.0730 C   0  0  0  0  0  0  0  0  0  0  0  0
   29.7440   51.7690   -2.6830 C   0  0  0  0  0  0  0  0  0  0  0  0
   29.5700   47.7210   -3.1500 C   0  0  0  0  0  0  0  0  0  0  0  0
   30.6820   45.6550   -3.7660 C   0  0  0  0  0  0  0  0  0  0  0  0
   29.3080   52.4320   -3.8070 C   0  0  0  0  0  0  0  0  0  0  0  0
   29.1070   52.9730   -6.0720 C   0  0  0  0  0  0  0  0  0  0  0  0
   31.7400   44.8400   -4.4910 C   0  0  0  0  0  0  0  0  0  0  0  0
   28.6700   47.0010   -2.3550 C   0  0  0  0  0  0  0  0  0  0  0  0
   29.7580   44.9510   -2.9570 C   0  0  0  0  0  0  0  0  0  0  0  0
   28.4190   53.4750   -3.8000 O   0  0  0  0  0  0  0  0  0  0  0  0
   28.5600   54.0410   -5.1250 C   0  0  0  0  0  0  0  0  0  0  0  0
   31.6320   44.8360   -6.0090 C   0  0  0  0  0  0  0  0  0  0  0  0
   27.6890   47.6640   -1.6660 O   0  0  0  0  0  0  0  0  0  0  0  0
   28.7520   45.6110   -2.2500 C   0  0  0  0  0  0  0  0  0  0  0  0
   27.8220   45.0060   -1.4480 O   0  0  0  0  0  0  0  0  0  0  0  0
   32.4880   45.2150   -6.7920 O   0  0  0  0  0  0  0  0  0  0  0  0
   30.4440   44.3460   -6.4440 O   0  0  0  0  0  0  0  0  0  0  0  0
   27.3600   43.7210   -1.8350 C   0  0  0  0  0  0  0  0  0  0  0  0
  2  1  1  1
  2  3  1  0
  2  4  1  0
  3  5  2  0
  3  6  1  0
  4  7  1  0
  5  8  1  0
  6  9  2  0
  7 10  2  0
  7 11  1  0
  8 12  2  0
  9 12  1  0
  8 13  1  0
 11 14  1  0
 10 15  1  0
 11 16  2  0
 12 17  1  0
 13 18  1  0
 17 18  1  0
 14 19  1  0
 15 20  1  0
 15 21  2  0
 16 21  1  0
 21 22  1  0
 19 23  2  0
 19 24  1  0
 22 25  1  0
M  END
