mac-x0436-mac-x0385
     RDKit          3D

 27 29  0  0  0  0  0  0  0  0999 V2000
   33.9300   45.1510   -6.8170 O   0  0  0  0  0  0  0  0  0  0  0  0
   32.6790   45.1330   -6.3220 C   0  0  0  0  0  0  0  0  0  0  0  0
   31.7630   45.6300   -7.0660 N   0  0  0  0  0  0  0  0  0  0  0  0
   32.5580   44.5170   -4.9480 C   0  0  0  0  0  0  0  0  0  0  0  0
   32.5550   45.5350   -3.8140 C   0  0  0  0  0  0  0  0  0  0  0  0
   30.3760   45.6650   -6.6290 C   0  0  0  0  0  0  0  0  0  0  0  0
   29.7330   46.9420   -7.1760 C   0  0  0  0  0  0  0  0  0  0  0  0
   33.9180   46.0890   -3.4690 C   0  0  0  0  0  0  0  0  0  0  0  0
   28.4910   47.3980   -6.4090 C   0  0  0  0  0  0  0  0  0  0  0  0
   34.1150   47.6010   -3.5770 C   0  0  0  0  0  0  0  0  0  0  0  0
   34.8690   45.2780   -3.0980 N   0  0  0  0  0  0  0  0  0  0  0  0
   33.1760   48.3370   -3.8400 O   0  0  0  0  0  0  0  0  0  0  0  0
   35.3860   48.0590   -3.3630 N   0  0  0  0  0  0  0  0  0  0  0  0
   36.1260   45.8310   -2.7940 C   0  0  0  0  0  0  0  0  0  0  0  0
   28.7580   48.5030   -5.4220 C   0  0  0  0  0  0  0  0  0  0  0  0
   36.3980   47.2020   -2.9190 C   0  0  0  0  0  0  0  0  0  0  0  0
   37.1450   44.9860   -2.3480 C   0  0  0  0  0  0  0  0  0  0  0  0
   28.5200   49.7640   -5.8190 N   0  0  0  0  0  0  0  0  0  0  0  0
   29.2150   48.1640   -4.2040 N   0  0  0  0  0  0  0  0  0  0  0  0
   38.4070   45.4980   -2.0370 C   0  0  0  0  0  0  0  0  0  0  0  0
   37.6550   47.7230   -2.6120 C   0  0  0  0  0  0  0  0  0  0  0  0
   28.7590   50.7410   -4.9370 C   0  0  0  0  0  0  0  0  0  0  0  0
   29.4410   49.1780   -3.3510 C   0  0  0  0  0  0  0  0  0  0  0  0
   28.4960   52.0310   -5.3970 N   0  0  0  0  0  0  0  0  0  0  0  0
   38.6600   46.8650   -2.1690 C   0  0  0  0  0  0  0  0  0  0  0  0
   29.2310   50.5060   -3.6590 C   0  0  0  0  0  0  0  0  0  0  0  0
   29.4980   51.5920   -2.6740 C   0  0  0  0  0  0  0  0  0  0  0  0
  1  2  1  0
  2  3  2  3
  2  4  1  0
  4  5  1  0
  3  6  1  0
  6  7  1  0
  5  8  1  0
  7  9  1  0
  8 10  1  0
  8 11  2  0
 10 12  2  0
 10 13  1  0
 11 14  1  0
  9 15  1  0
 13 16  1  0
 14 16  2  0
 14 17  1  0
 15 18  2  0
 15 19  1  0
 17 20  2  0
 16 21  1  0
 18 22  1  0
 19 23  2  0
 22 24  1  0
 20 25  1  0
 21 25  2  0
 22 26  2  0
 23 26  1  0
 26 27  1  0
M  END
