mac-x0397-mac-x0441
     RDKit          3D

 31 34  0  0  0  0  0  0  0  0999 V2000
   29.6310   52.3980   -2.3620 Cl  0  0  0  0  0  0  0  0  0  0  0  0
   29.6310   51.3190   -3.6920 C   0  0  0  0  0  0  0  0  0  0  0  0
   29.3040   51.8700   -4.9510 C   0  0  0  0  0  0  0  0  0  0  0  0
   29.9390   49.9620   -3.5360 C   0  0  0  0  0  0  0  0  0  0  0  0
   28.9770   53.1890   -5.2660 N   0  0  0  0  0  0  0  0  0  0  0  0
   29.3010   50.9980   -6.0420 C   0  0  0  0  0  0  0  0  0  0  0  0
   29.9280   49.1130   -4.6490 C   0  0  0  0  0  0  0  0  0  0  0  0
   30.2550   47.6410   -4.5220 C   0  0  0  0  0  0  0  0  0  0  0  0
   28.7350   53.3090   -6.5470 C   0  0  0  0  0  0  0  0  0  0  0  0
   28.8800   51.8720   -7.4640 S   0  0  0  0  0  0  0  0  0  0  0  0
   29.6060   49.6320   -5.9130 C   0  0  0  0  0  0  0  0  0  0  0  0
   28.3960   54.4760   -7.1260 N   0  0  0  0  0  0  0  0  0  0  0  0
   30.1160   46.8780   -5.8470 C   0  0  0  0  0  0  0  0  0  0  0  0
   30.6540   45.4460   -5.8030 C   0  0  0  0  0  0  0  0  0  0  0  0
   31.9630   45.4000   -6.4670 N   0  0  0  0  0  0  0  0  0  0  0  0
   33.0030   45.2980   -5.7180 C   0  0  0  0  0  0  0  0  0  0  0  0
   34.2530   45.2570   -6.2220 O   0  0  0  0  0  0  0  0  0  0  0  0
   32.8620   45.2220   -4.2220 C   0  0  0  0  0  0  0  0  0  0  0  0
   34.1150   44.9720   -3.5370 N   0  0  0  0  0  0  0  0  0  0  0  0
   34.3350   43.7380   -3.0200 N   0  0  0  0  0  0  0  0  0  0  0  0
   35.1490   45.8240   -3.3220 C   0  0  0  0  0  0  0  0  0  0  0  0
   35.5590   43.8160   -2.4520 C   0  0  0  0  0  0  0  0  0  0  0  0
   36.1040   45.1170   -2.6240 C   0  0  0  0  0  0  0  0  0  0  0  0
   35.2550   47.2450   -3.7420 C   0  0  0  0  0  0  0  0  0  0  0  0
   36.2100   42.6550   -1.7440 C   0  0  0  0  0  0  0  0  0  0  0  0
   37.4040   45.7060   -2.1900 C   0  0  0  0  0  0  0  0  0  0  0  0
   36.3310   47.9320   -2.8840 C   0  0  0  0  0  0  0  0  0  0  0  0
   37.2940   42.1600   -2.3970 F   0  0  0  0  0  0  0  0  0  0  0  0
   36.6290   43.0050   -0.4970 F   0  0  0  0  0  0  0  0  0  0  0  0
   35.3420   41.6200   -1.5780 F   0  0  0  0  0  0  0  0  0  0  0  0
   37.6270   47.1030   -2.8110 C   0  0  0  0  0  0  0  0  0  0  0  0
  1  2  1  0
  2  3  2  0
  2  4  1  0
  3  5  1  0
  3  6  1  0
  4  7  2  0
  7  8  1  0
  5  9  2  0
  6 10  1  0
  9 10  1  0
  6 11  2  0
  7 11  1  0
  9 12  1  0
  8 13  1  0
 13 14  1  0
 14 15  1  0
 15 16  2  3
 16 17  1  0
 16 18  1  0
 18 19  1  0
 19 20  1  0
 19 21  1  0
 20 22  2  0
 21 23  2  0
 22 23  1  0
 21 24  1  0
 22 25  1  0
 23 26  1  0
 24 27  1  0
 25 28  1  0
 25 29  1  0
 25 30  1  0
 26 31  1  0
 27 31  1  0
M  END
