mac-x0204-mac-x0303
     RDKit          3D

 24 26  0  0  0  0  0  0  0  0999 V2000
   31.5800   46.6260   -6.2470 O   0  0  0  0  0  0  0  0  0  0  0  0
   30.6630   46.5230   -5.2650 C   0  0  0  0  0  0  0  0  0  0  0  0
   29.5540   46.0770   -5.4990 O   0  0  0  0  0  0  0  0  0  0  0  0
   31.1900   46.9650   -3.9450 C   0  0  0  0  0  0  0  0  0  0  0  0
   30.5090   47.7670   -2.9810 C   0  0  0  0  0  0  0  0  0  0  0  0
   32.4790   46.5450   -3.6320 C   0  0  0  0  0  0  0  0  0  0  0  0
   29.1270   48.3780   -3.1290 C   0  0  0  0  0  0  0  0  0  0  0  0
   31.1770   48.0240   -1.7810 C   0  0  0  0  0  0  0  0  0  0  0  0
   33.1300   46.8240   -2.4780 N   0  0  0  0  0  0  0  0  0  0  0  0
   30.5480   48.7510   -0.8160 O   0  0  0  0  0  0  0  0  0  0  0  0
   32.4560   47.5500   -1.5750 C   0  0  0  0  0  0  0  0  0  0  0  0
   29.1410   49.7190   -3.9040 C   0  0  0  0  0  0  0  0  0  0  0  0
   29.2650   51.0160   -3.2970 C   0  0  0  0  0  0  0  0  0  0  0  0
   29.0180   49.6330   -5.2920 C   0  0  0  0  0  0  0  0  0  0  0  0
   29.2430   52.1470   -4.1620 C   0  0  0  0  0  0  0  0  0  0  0  0
   29.0040   50.7590   -6.1130 C   0  0  0  0  0  0  0  0  0  0  0  0
   29.3270   53.5220   -3.9700 N   0  0  0  0  0  0  0  0  0  0  0  0
   29.1170   52.0230   -5.5390 C   0  0  0  0  0  0  0  0  0  0  0  0
   29.2380   54.1320   -5.2110 C   0  0  0  0  0  0  0  0  0  0  0  0
   29.1150   53.2380   -6.1670 N   0  0  0  0  0  0  0  0  0  0  0  0
   29.2740   55.8780   -5.5240 S   0  0  0  0  0  0  0  0  0  0  0  0
   30.5820   56.1610   -6.5490 N   0  0  0  0  0  0  0  0  0  0  0  0
   28.0610   56.1270   -6.2670 O   0  0  0  0  0  0  0  0  0  0  0  0
   29.5510   56.5190   -4.2630 O   0  0  0  0  0  0  0  0  0  0  0  0
  1  2  1  0
  2  3  2  0
  2  4  1  0
  4  5  2  0
  4  6  1  0
  5  7  1  0
  5  8  1  0
  6  9  2  0
  8 10  1  0
  8 11  2  0
  9 11  1  0
  7 12  1  0
 12 13  2  0
 12 14  1  0
 13 15  1  0
 14 16  2  0
 15 17  1  0
 15 18  2  0
 16 18  1  0
 17 19  1  0
 18 20  1  0
 19 20  2  0
 19 21  1  0
 21 22  1  0
 21 23  2  0
 21 24  2  0
M  END
