mac-x0306-mac-x0365
     RDKit          3D

 16 17  0  0  0  0  0  0  0  0999 V2000
   29.8370   47.5640   -5.3610 O   0  0  0  0  0  0  0  0  0  0  0  0
   30.0840   48.3670   -4.2970 C   0  0  0  0  0  0  0  0  0  0  0  0
   30.6330   47.8830   -3.3230 O   0  0  0  0  0  0  0  0  0  0  0  0
   29.6640   49.6790   -4.4760 N   0  0  0  0  0  0  0  0  0  0  0  0
   29.5340   50.5950   -3.3230 C   0  0  1  0  0  0  0  0  0  0  0  0
   29.0420   50.0770   -5.6330 C   0  0  0  0  0  0  0  0  0  0  0  0
   30.4750   50.3280   -2.3770 F   0  0  0  0  0  0  0  0  0  0  0  0
   29.7430   52.0820   -3.6820 C   0  0  2  0  0  0  0  0  0  0  0  0
   29.0960   51.3480   -6.0040 C   0  0  0  0  0  0  0  0  0  0  0  0
   28.7930   52.9610   -3.0760 O   0  0  0  0  0  0  0  0  0  0  0  0
   29.8400   52.3610   -5.1820 C   0  0  1  0  0  0  0  0  0  0  0  0
   29.5000   53.7940   -5.4200 C   0  0  0  0  0  0  0  0  0  0  0  0
   28.8830   54.2780   -6.5420 N   0  0  0  0  0  0  0  0  0  0  0  0
   29.7590   54.7650   -4.5670 N   0  0  0  0  0  0  0  0  0  0  0  0
   29.2980   55.9060   -5.1560 C   0  0  0  0  0  0  0  0  0  0  0  0
   28.7510   55.6280   -6.3850 C   0  0  0  0  0  0  0  0  0  0  0  0
  1  2  1  0
  2  3  2  0
  2  4  1  0
  4  5  1  0
  4  6  1  0
  5  7  1  1
  5  8  1  0
  6  9  2  0
  8 10  1  6
  8 11  1  0
  9 11  1  0
 11 12  1  1
 12 13  1  0
 12 14  2  0
 14 15  1  0
 13 16  1  0
 15 16  2  0
M  END
