mac-x0546-mac-x0142
     RDKit          3D

 32 37  0  0  0  0  0  0  0  0999 V2000
   30.9240   48.4380   -0.3660 C   0  0  0  0  0  0  0  0  0  0  0  0
   29.7640   47.6200   -0.2580 O   0  0  0  0  0  0  0  0  0  0  0  0
   29.7890   46.3870   -0.8590 C   0  0  0  0  0  0  0  0  0  0  0  0
   30.7330   45.8900   -1.6920 C   0  0  0  0  0  0  0  0  0  0  0  0
   28.6260   45.5730   -0.5090 C   0  0  0  0  0  0  0  0  0  0  0  0
   30.5720   44.5120   -2.2380 C   0  0  1  0  0  0  0  0  0  0  0  0
   28.2360   44.5050   -1.2260 C   0  0  0  0  0  0  0  0  0  0  0  0
   29.0840   44.2360   -2.3900 C   0  0  0  0  0  0  0  0  0  0  0  0
   30.9430   44.1430   -3.6480 C   0  0  0  0  0  0  0  0  0  0  0  0
   32.3240   44.2020   -4.2270 C   0  0  1  0  0  0  0  0  0  0  0  0
   28.6870   43.7950   -3.5430 N   0  0  0  0  0  0  0  0  0  0  0  0
   29.8330   43.7480   -4.2930 C   0  0  0  0  0  0  0  0  0  0  0  0
   32.3890   43.5610   -5.6300 C   0  0  0  0  0  0  0  0  0  0  0  0
   33.1490   45.4710   -4.0980 C   0  0  1  0  0  0  0  0  0  0  0  0
   31.4490   43.0660   -6.2340 O   0  0  0  0  0  0  0  0  0  0  0  0
   33.6340   43.5880   -6.1730 O   0  0  0  0  0  0  0  0  0  0  0  0
   34.0280   46.0000   -5.1960 C   0  0  0  0  0  0  0  0  0  0  0  0
   32.9350   46.9000   -4.6580 C   0  0  2  0  0  0  0  0  0  0  0  0
   33.3710   48.0370   -3.7550 C   0  0  0  0  0  0  0  0  0  0  0  0
   31.9420   47.3620   -5.7260 C   0  0  0  0  0  0  0  0  0  0  0  0
   32.2450   49.0460   -3.5630 C   0  0  0  0  0  0  0  0  0  0  0  0
   30.7270   47.9930   -5.1630 N   0  0  0  0  0  0  0  0  0  0  0  0
   30.8610   48.4360   -3.7740 C   0  0  0  0  0  0  0  0  0  0  0  0
   29.8470   48.6200   -6.0510 C   0  0  0  0  0  0  0  0  0  0  0  0
   29.4210   47.9200   -7.1650 N   0  0  0  0  0  0  0  0  0  0  0  0
   29.3550   49.8650   -5.9350 C   0  0  0  0  0  0  0  0  0  0  0  0
   28.5620   48.4530   -8.0810 C   0  0  0  0  0  0  0  0  0  0  0  0
   28.4240   50.3860   -6.9680 C   0  0  0  0  0  0  0  0  0  0  0  0
   29.4680   50.9590   -5.0230 C   0  0  0  0  0  0  0  0  0  0  0  0
   28.0460   49.6360   -8.0460 N   0  0  0  0  0  0  0  0  0  0  0  0
   28.0350   51.6070   -6.7180 N   0  0  0  0  0  0  0  0  0  0  0  0
   28.6850   51.9250   -5.5310 C   0  0  0  0  0  0  0  0  0  0  0  0
  1  2  1  0
  2  3  1  0
  3  4  2  0
  3  5  1  0
  6  4  1  6
  5  7  2  0
  6  8  1  0
  7  8  1  0
  6  9  1  0
  9 10  1  0
  8 11  2  0
  9 12  2  0
 11 12  1  0
 10 13  1  6
 10 14  1  0
 13 15  2  0
 13 16  1  0
 14 17  1  6
 14 18  1  0
 18 17  1  6
 18 19  1  0
 18 20  1  0
 19 21  1  0
 20 22  1  0
 21 23  1  0
 22 23  1  0
 22 24  1  0
 24 25  1  0
 24 26  2  0
 25 27  1  0
 26 28  1  0
 26 29  1  0
 27 30  2  0
 28 30  1  0
 28 31  2  0
 29 32  2  0
 31 32  1  0
M  END
