mac-x0564-mac-x0387
     RDKit          3D

 20 23  0  0  0  0  0  0  0  0999 V2000
   30.4920   46.2700   -6.9200 O   0  0  0  0  0  0  0  0  0  0  0  0
   30.6180   46.6970   -5.7770 C   0  0  0  0  0  0  0  0  0  0  0  0
   31.3220   46.0190   -4.8220 N   0  0  0  0  0  0  0  0  0  0  0  0
   30.0520   47.9650   -5.2250 C   0  0  1  0  0  0  0  0  0  0  0  0
   30.9970   48.4930   -4.1840 C   0  0  2  0  0  0  0  0  0  0  0  0
   31.1160   46.1880   -3.4040 C   0  0  0  0  0  0  0  0  0  0  0  0
   29.4330   49.1380   -6.0460 C   0  0  1  0  0  0  0  0  0  0  0  0
   31.0950   47.6050   -3.0200 N   0  0  0  0  0  0  0  0  0  0  0  0
   29.8430   50.4240   -5.2100 C   0  0  2  0  0  0  0  0  0  0  0  0
   30.6330   49.9790   -3.9420 C   0  0  1  0  0  0  0  0  0  0  0  0
   29.7720   49.5250   -7.5610 C   0  0  2  0  0  0  0  0  0  0  0  0
   27.9780   48.7670   -6.0710 C   0  0  0  0  0  0  0  0  0  0  0  0
   29.1900   50.8020   -7.9200 N   0  0  0  0  0  0  0  0  0  0  0  0
   29.9960   50.3250   -2.6150 C   0  0  0  0  0  0  0  0  0  0  0  0
   28.8330   51.5250   -4.9330 C   0  0  0  0  0  0  0  0  0  0  0  0
   27.5200   48.0380   -7.0900 C   0  0  0  0  0  0  0  0  0  0  0  0
   29.2570   48.6950   -8.6530 N   0  0  0  0  0  0  0  0  0  0  0  0
   29.0000   51.2220   -2.5310 C   0  0  0  0  0  0  0  0  0  0  0  0
   28.4700   51.8820   -3.6980 C   0  0  0  0  0  0  0  0  0  0  0  0
   28.4000   47.6110   -8.2050 C   0  0  0  0  0  0  0  0  0  0  0  0
  1  2  2  0
  2  3  1  0
  4  2  1  6
  4  5  1  0
  3  6  1  0
  4  7  1  0
  5  8  1  1
  6  8  1  0
  7  9  1  0
  5 10  1  0
  9 10  1  0
  7 11  1  0
  7 12  1  6
 11 13  1  6
 10 14  1  1
  9 15  1  1
 12 16  2  0
 11 17  1  0
 14 18  2  0
 15 19  2  0
 18 19  1  0
 16 20  1  0
 17 20  1  0
M  END
