mac-x0417-mac-x0375
     RDKit          3D

 14 16  0  0  0  0  0  0  0  0999 V2000
   32.0030   45.1830   -5.9410 O   0  0  0  0  0  0  0  0  0  0  0  0
   33.3080   45.3300   -5.5750 C   0  0  0  0  0  0  0  0  0  0  0  0
   34.2110   45.2160   -6.3910 O   0  0  0  0  0  0  0  0  0  0  0  0
   33.4950   45.6410   -4.0950 C   0  0  2  0  0  0  0  0  0  0  0  0
   34.1580   47.0940   -4.0340 O   0  0  0  0  0  0  0  0  0  0  0  0
   34.4500   44.7520   -3.3850 C   0  0  0  0  0  0  0  0  0  0  0  0
   34.6970   43.5030   -2.9940 N   0  0  0  0  0  0  0  0  0  0  0  0
   35.4280   45.5930   -3.0100 C   0  0  0  0  0  0  0  0  0  0  0  0
   35.3210   46.8980   -3.3380 C   0  0  0  0  0  0  0  0  0  0  0  0
   35.9820   43.6220   -2.2950 O   0  0  0  0  0  0  0  0  0  0  0  0
   36.3930   44.9430   -2.3360 C   0  0  0  0  0  0  0  0  0  0  0  0
   36.3670   47.6840   -2.9120 C   0  0  0  0  0  0  0  0  0  0  0  0
   37.4820   45.6620   -1.8730 C   0  0  0  0  0  0  0  0  0  0  0  0
   37.4340   47.0640   -2.1860 C   0  0  0  0  0  0  0  0  0  0  0  0
  1  2  1  0
  2  3  2  0
  4  2  1  6
  4  5  1  0
  4  6  1  0
  6  7  2  0
  6  8  1  0
  5  9  1  0
  8  9  2  0
  7 10  1  0
  8 11  1  0
 10 11  1  0
  9 12  1  0
 11 13  2  0
 12 14  2  0
 13 14  1  0
M  END
