mac-x0226-mac-x0159
     RDKit          3D

 33 37  0  0  0  0  0  0  0  0999 V2000
   32.4160   45.5440   -6.8490 O   0  0  0  0  0  0  0  0  0  0  0  0
   33.2780   46.2690   -5.9950 C   0  0  0  0  0  0  0  0  0  0  0  0
   34.3330   46.7200   -6.8230 O   0  0  0  0  0  0  0  0  0  0  0  0
   32.5280   47.4840   -5.4020 C   0  0  0  0  0  0  0  0  0  0  0  0
   33.7890   45.3860   -4.8970 C   0  0  0  0  0  0  0  0  0  0  0  0
   31.6750   47.1550   -4.1570 C   0  0  0  0  0  0  0  0  0  0  0  0
   33.3480   44.0900   -4.5620 C   0  0  0  0  0  0  0  0  0  0  0  0
   34.7850   45.6390   -3.9800 C   0  0  0  0  0  0  0  0  0  0  0  0
   30.1980   46.8510   -4.5070 C   0  0  2  0  0  0  0  0  0  0  0  0
   34.0060   43.5720   -3.5270 N   0  0  0  0  0  0  0  0  0  0  0  0
   34.8960   44.5340   -3.1690 N   0  0  0  0  0  0  0  0  0  0  0  0
   35.7940   44.3540   -2.0850 C   0  0  0  0  0  0  0  0  0  0  0  0
   29.3800   48.0310   -4.9120 N   0  0  0  0  0  0  0  0  0  0  0  0
   29.4540   46.0300   -3.4670 C   0  0  0  0  0  0  0  0  0  0  0  0
   36.6440   45.4100   -1.7220 C   0  0  0  0  0  0  0  0  0  0  0  0
   35.8500   43.1510   -1.3730 C   0  0  0  0  0  0  0  0  0  0  0  0
   29.8880   49.2390   -4.2440 C   0  0  0  0  0  0  0  0  0  0  0  0
   29.3310   48.2850   -6.3480 C   0  0  2  0  0  0  0  0  0  0  0  0
   28.9960   44.7330   -3.6520 C   0  0  0  0  0  0  0  0  0  0  0  0
   29.1730   46.5540   -2.2070 N   0  0  0  0  0  0  0  0  0  0  0  0
   37.5400   45.2640   -0.6600 C   0  0  0  0  0  0  0  0  0  0  0  0
   36.7500   43.0130   -0.3100 C   0  0  0  0  0  0  0  0  0  0  0  0
   29.0950   50.4390   -4.5400 N   0  0  0  0  0  0  0  0  0  0  0  0
   28.4460   49.4620   -6.6870 C   0  0  1  0  0  0  0  0  0  0  0  0
   28.6150   47.3070   -7.1520 N   0  0  0  0  0  0  0  0  0  0  0  0
   28.5240   45.6710   -1.4790 C   0  0  0  0  0  0  0  0  0  0  0  0
   28.2100   44.1650   -2.2470 S   0  0  0  0  0  0  0  0  0  0  0  0
   28.0680   45.9060   -0.0830 C   0  0  0  0  0  0  0  0  0  0  0  0
   37.5930   44.0680    0.0440 C   0  0  0  0  0  0  0  0  0  0  0  0
   28.9900   50.7010   -5.9610 C   0  0  1  0  0  0  0  0  0  0  0  0
   28.3740   49.4240   -8.1710 N   0  0  0  0  0  0  0  0  0  0  0  0
   28.4190   47.9810   -8.4370 C   0  0  0  0  0  0  0  0  0  0  0  0
   28.0770   51.8230   -6.0640 N   0  0  0  0  0  0  0  0  0  0  0  0
  2  1  1  0
  2  3  1  0
  2  4  1  0
  2  5  1  0
  4  6  1  0
  5  7  1  0
  5  8  2  0
  9  6  1  1
  7 10  2  0
  8 11  1  0
 10 11  1  0
 11 12  1  0
  9 13  1  0
  9 14  1  0
 12 15  2  0
 12 16  1  0
 13 17  1  0
 13 18  1  0
 14 19  2  0
 14 20  1  0
 15 21  1  0
 16 22  2  0
 17 23  1  0
 18 24  1  0
 18 25  1  6
 20 26  2  0
 19 27  1  0
 26 27  1  0
 26 28  1  0
 21 29  2  0
 22 29  1  0
 23 30  1  0
 24 30  1  0
 24 31  1  6
 25 32  1  0
 31 32  1  0
 30 33  1  1
M  END
