mac-x0347-mac-x0179
     RDKit          3D

 29 32  0  0  0  0  0  0  0  0999 V2000
   30.3860   44.8330   -5.1540 O   0  0  0  0  0  0  0  0  0  0  0  0
   31.1880   45.9780   -5.3880 C   0  0  0  0  0  0  0  0  0  0  0  0
   31.1990   46.1760   -6.7960 O   0  0  0  0  0  0  0  0  0  0  0  0
   32.6260   45.7120   -4.8200 C   0  0  0  0  0  0  0  0  0  0  0  0
   30.6590   47.2480   -4.7570 C   0  0  0  0  0  0  0  0  0  0  0  0
   33.6340   45.7530   -5.5460 O   0  0  0  0  0  0  0  0  0  0  0  0
   32.7250   45.4100   -3.3230 C   0  0  0  0  0  0  0  0  0  0  0  0
   30.4010   48.4450   -5.4460 C   0  0  0  0  0  0  0  0  0  0  0  0
   30.4170   47.2500   -3.3860 C   0  0  0  0  0  0  0  0  0  0  0  0
   29.9290   49.5800   -4.7590 C   0  0  0  0  0  0  0  0  0  0  0  0
   29.9650   48.3050   -2.6870 N   0  0  0  0  0  0  0  0  0  0  0  0
   34.0550   45.6450   -2.8070 N   0  0  0  0  0  0  0  0  0  0  0  0
   29.7350   49.4370   -3.3880 C   0  0  0  0  0  0  0  0  0  0  0  0
   29.6530   50.8580   -5.4280 C   0  0  0  0  0  0  0  0  0  0  0  0
   34.7550   44.7050   -2.1040 C   0  0  0  0  0  0  0  0  0  0  0  0
   34.5410   46.9040   -2.5480 C   0  0  0  0  0  0  0  0  0  0  0  0
   34.4840   43.5360   -1.9150 O   0  0  0  0  0  0  0  0  0  0  0  0
   34.0310   47.9710   -2.8280 O   0  0  0  0  0  0  0  0  0  0  0  0
   28.6970   50.9510   -6.4530 C   0  0  0  0  0  0  0  0  0  0  0  0
   30.3390   52.0260   -5.0530 C   0  0  0  0  0  0  0  0  0  0  0  0
   35.9500   45.3770   -1.5810 C   0  0  0  0  0  0  0  0  0  0  0  0
   35.8170   46.7270   -1.8580 C   0  0  0  0  0  0  0  0  0  0  0  0
   28.4360   52.1720   -7.0820 C   0  0  0  0  0  0  0  0  0  0  0  0
   30.0800   53.2470   -5.6800 C   0  0  0  0  0  0  0  0  0  0  0  0
   37.0550   44.8720   -0.9260 C   0  0  0  0  0  0  0  0  0  0  0  0
   36.7830   47.6490   -1.4960 C   0  0  0  0  0  0  0  0  0  0  0  0
   29.1260   53.3180   -6.6950 C   0  0  0  0  0  0  0  0  0  0  0  0
   38.0470   45.7830   -0.5500 C   0  0  0  0  0  0  0  0  0  0  0  0
   37.9160   47.1600   -0.8300 C   0  0  0  0  0  0  0  0  0  0  0  0
  2  1  1  0
  2  3  1  0
  2  4  1  0
  2  5  1  0
  4  6  2  0
  4  7  1  0
  5  8  2  0
  5  9  1  0
  8 10  1  0
  9 11  2  0
  7 12  1  0
 10 13  2  0
 11 13  1  0
 10 14  1  0
 12 15  1  0
 12 16  1  0
 15 17  2  0
 16 18  2  0
 14 19  2  0
 14 20  1  0
 15 21  1  0
 16 22  1  0
 21 22  2  0
 19 23  1  0
 20 24  2  0
 21 25  1  0
 22 26  1  0
 23 27  2  0
 24 27  1  0
 25 28  2  0
 26 29  2  0
 28 29  1  0
M  END
