
     RDKit          3D

 10 10  0  0  0  0  0  0  0  0999 V2000
    1.4100   25.4060   14.7320 N   0  0  0  0  0  0  0  0  0  0  0  0
    1.4000   26.7600   15.2530 C   0  0  0  0  0  0  0  0  0  0  0  0
    0.3930   27.3910   15.3160 O   0  0  0  0  0  0  0  0  0  0  0  0
    2.7170   27.3710   15.7070 C   0  0  0  0  0  0  0  0  0  0  0  0
    3.9030   26.8890   15.1770 C   0  0  0  0  0  0  0  0  0  0  0  0
    5.1090   27.4410   15.5710 C   0  0  0  0  0  0  0  0  0  0  0  0
    5.1240   28.4660   16.4990 C   0  0  0  0  0  0  0  0  0  0  0  0
    6.3400   29.0240   16.9020 O   0  0  0  0  0  0  0  0  0  0  0  0
    3.9390   28.9490   17.0280 C   0  0  0  0  0  0  0  0  0  0  0  0
    2.7320   28.4020   16.6310 C   0  0  0  0  0  0  0  0  0  0  0  0
  1  2  1  0
  2  3  2  0
  2  4  1  0
  4  5  2  0
  4 10  1  0
  5  6  1  0
 10  9  2  0
  6  7  2  0
  7  8  1  0
  7  9  1  0
M  END
