mac-x0204-mac-x0411
     RDKit          3D

 22 23  0  0  0  0  0  0  0  0999 V2000
   32.1390   45.8770   -5.8460 O   0  0  0  0  0  0  0  0  0  0  0  0
   30.8710   45.9390   -5.3810 C   0  0  0  0  0  0  0  0  0  0  0  0
   29.8920   45.3140   -5.7530 O   0  0  0  0  0  0  0  0  0  0  0  0
   32.9200   44.8280   -5.4390 C   0  0  0  0  0  0  0  0  0  0  0  0
   33.0800   43.7590   -6.0090 O   0  0  0  0  0  0  0  0  0  0  0  0
   33.5840   45.2280   -4.1020 C   0  0  0  0  0  0  0  0  0  0  0  0
   30.7890   46.9340   -4.2790 C   0  0  0  0  0  0  0  0  0  0  0  0
   34.8160   44.6860   -3.6350 O   0  0  0  0  0  0  0  0  0  0  0  0
   30.2730   46.6520   -3.0110 C   0  0  0  0  0  0  0  0  0  0  0  0
   31.2530   48.2250   -4.5190 C   0  0  0  0  0  0  0  0  0  0  0  0
   30.2420   47.6610   -2.0500 C   0  0  0  0  0  0  0  0  0  0  0  0
   31.2330   49.2250   -3.5970 N   0  0  0  0  0  0  0  0  0  0  0  0
   35.7630   45.6060   -3.2600 C   0  0  0  0  0  0  0  0  0  0  0  0
   29.7320   47.3600   -0.8250 O   0  0  0  0  0  0  0  0  0  0  0  0
   30.7270   48.9180   -2.3830 C   0  0  0  0  0  0  0  0  0  0  0  0
   35.5260   46.3720   -2.1040 C   0  0  0  0  0  0  0  0  0  0  0  0
   36.9530   45.8170   -3.9740 C   0  0  0  0  0  0  0  0  0  0  0  0
   37.3500   44.9310   -5.4030 Cl  0  0  0  0  0  0  0  0  0  0  0  0
   34.0900   46.1730   -1.1620 Cl  0  0  0  0  0  0  0  0  0  0  0  0
   36.4520   47.3250   -1.6770 C   0  0  0  0  0  0  0  0  0  0  0  0
   37.8770   46.7740   -3.5400 C   0  0  0  0  0  0  0  0  0  0  0  0
   37.6290   47.5280   -2.3960 C   0  0  0  0  0  0  0  0  0  0  0  0
  1  2  1  0
  2  3  2  0
  1  4  1  0
  4  5  2  0
  4  6  1  0
  2  7  1  0
  6  8  1  0
  7  9  2  0
  7 10  1  0
  9 11  1  0
 10 12  2  0
  8 13  1  0
 11 14  1  0
 11 15  2  0
 12 15  1  0
 13 16  2  0
 13 17  1  0
 17 18  1  0
 16 19  1  0
 16 20  1  0
 17 21  2  0
 20 22  2  0
 21 22  1  0
M  END
