mac-x0131-mac-x0283
     RDKit          3D

 27 31  0  0  0  0  0  0  0  0999 V2000
   30.3140   49.2170   -2.5900 C   0  0  0  0  0  0  0  0  0  0  0  0
   29.9060   48.8480   -3.9780 C   0  0  0  0  0  0  0  0  0  0  0  0
   29.1860   49.5600   -4.9310 C   0  0  0  0  0  0  0  0  0  0  0  0
   30.2260   47.6240   -4.5440 N   0  0  0  0  0  0  0  0  0  0  0  0
   30.9780   46.5460   -3.9090 C   0  0  0  0  0  0  0  0  0  0  0  0
   29.0690   48.7470   -6.1030 C   0  0  0  0  0  0  0  0  0  0  0  0
   29.7250   47.5550   -5.8260 C   0  0  0  0  0  0  0  0  0  0  0  0
   28.6730   50.8930   -4.6930 C   0  0  0  0  0  0  0  0  0  0  0  0
   28.4900   48.8540   -7.3810 C   0  0  0  0  0  0  0  0  0  0  0  0
   29.8570   46.5040   -6.6530 N   0  0  0  0  0  0  0  0  0  0  0  0
   32.4000   46.5600   -4.3350 C   0  0  0  0  0  0  0  0  0  0  0  0
   29.4590   52.0300   -4.9080 C   0  0  0  0  0  0  0  0  0  0  0  0
   27.3640   51.1080   -4.2360 C   0  0  0  0  0  0  0  0  0  0  0  0
   27.7940   49.9640   -7.8450 N   0  0  0  0  0  0  0  0  0  0  0  0
   28.6020   47.8200   -8.2420 N   0  0  0  0  0  0  0  0  0  0  0  0
   29.2660   46.7230   -7.8380 C   0  0  0  0  0  0  0  0  0  0  0  0
   33.0570   46.1420   -5.4730 C   0  0  0  0  0  0  0  0  0  0  0  0
   33.2980   47.0890   -3.4500 O   0  0  0  0  0  0  0  0  0  0  0  0
   30.7490   52.0790   -5.3450 O   0  0  0  0  0  0  0  0  0  0  0  0
   29.0100   53.3240   -4.6960 C   0  0  0  0  0  0  0  0  0  0  0  0
   26.8840   52.4000   -4.0130 C   0  0  0  0  0  0  0  0  0  0  0  0
   34.5210   47.0050   -4.0310 C   0  0  0  0  0  0  0  0  0  0  0  0
   34.4290   46.4290   -5.2760 C   0  0  0  0  0  0  0  0  0  0  0  0
   30.1230   54.1320   -5.0380 C   0  0  0  0  0  0  0  0  0  0  0  0
   31.1670   53.3970   -5.4260 N   0  0  0  0  0  0  0  0  0  0  0  0
   27.6920   53.5210   -4.2380 C   0  0  0  0  0  0  0  0  0  0  0  0
   30.1250   55.4790   -4.9750 N   0  0  0  0  0  0  0  0  0  0  0  0
  1  2  1  0
  2  3  2  0
  2  4  1  0
  4  5  1  0
  3  6  1  0
  4  7  1  0
  6  7  2  0
  3  8  1  0
  6  9  1  0
  7 10  1  0
  5 11  1  0
  8 12  1  0
  8 13  2  0
  9 14  1  0
  9 15  2  0
 10 16  2  0
 15 16  1  0
 11 17  2  0
 11 18  1  0
 12 19  1  0
 12 20  2  0
 13 21  1  0
 18 22  1  0
 17 23  1  0
 22 23  2  0
 20 24  1  0
 19 25  1  0
 24 25  2  0
 20 26  1  0
 21 26  2  0
 24 27  1  0
M  END
