mac-x0412-mac-x0188
     RDKit          3D

 19 21  0  0  0  0  0  0  0  0999 V2000
   29.6120   53.6190   -3.4960 O   0  0  0  0  0  0  0  0  0  0  0  0
   29.2020   53.0570   -4.5160 C   0  0  0  0  0  0  0  0  0  0  0  0
   29.0630   53.7810   -5.6830 N   0  0  0  0  0  0  0  0  0  0  0  0
   28.7940   51.5630   -4.6630 C   0  0  1  0  0  0  0  0  0  0  0  0
   29.3250   50.9110   -5.9340 C   0  0  1  0  0  0  0  0  0  0  0  0
   29.1890   53.2320   -6.9270 C   0  0  0  0  0  0  0  0  0  0  0  0
   28.9520   50.6000   -3.4930 C   0  0  0  0  0  0  0  0  0  0  0  0
   29.3200   51.8990   -7.0960 C   0  0  0  0  0  0  0  0  0  0  0  0
   30.6970   50.1950   -5.6910 C   0  0  0  0  0  0  0  0  0  0  0  0
   29.7680   49.4970   -3.4600 C   0  0  0  0  0  0  0  0  0  0  0  0
   30.7240   49.0700   -4.5680 C   0  0  2  0  0  0  0  0  0  0  0  0
   31.9700   49.0990   -3.7320 N   0  0  0  0  0  0  0  0  0  0  0  0
   31.0220   47.6110   -5.1490 C   0  0  2  0  0  0  0  0  0  0  0  0
   29.9980   46.6560   -5.6820 C   0  0  0  0  0  0  0  0  0  0  0  0
   31.9920   46.8850   -4.2050 C   0  0  1  0  0  0  0  0  0  0  0  0
   32.0490   47.7630   -3.0960 O   0  0  0  0  0  0  0  0  0  0  0  0
   31.5990   45.4600   -3.7990 C   0  0  0  0  0  0  0  0  0  0  0  0
   28.9280   46.3200   -5.2110 O   0  0  0  0  0  0  0  0  0  0  0  0
   30.4140   46.1250   -6.8550 O   0  0  0  0  0  0  0  0  0  0  0  0
  1  2  2  0
  2  3  1  0
  2  4  1  0
  4  5  1  0
  3  6  1  0
  4  7  1  1
  5  8  1  6
  6  8  2  0
  5  9  1  0
  7 10  2  0
 11  9  1  6
 11 10  1  0
 11 12  1  0
 11 13  1  0
 13 14  1  1
 13 15  1  0
 12 16  1  0
 15 16  1  0
 15 17  1  1
 14 18  2  0
 14 19  1  0
M  END
