mac-x0472-mac-x0132
     RDKit          3D

 25 28  0  0  0  0  0  0  0  0999 V2000
   30.3270   48.2090   -4.2610 O   0  0  0  0  0  0  0  0  0  0  0  0
   31.4060   47.9350   -5.1900 S   0  0  0  0  0  0  0  0  0  0  0  0
   32.2230   46.7520   -5.0640 O   0  0  0  0  0  0  0  0  0  0  0  0
   30.7330   48.0750   -6.7530 N   0  0  0  0  0  0  0  0  0  0  0  0
   32.5090   49.3370   -5.1530 C   0  0  0  0  0  0  0  0  0  0  0  0
   30.0310   49.3380   -6.7980 C   0  0  0  0  0  0  0  0  0  0  0  0
   33.5190   49.4310   -6.1160 C   0  0  0  0  0  0  0  0  0  0  0  0
   32.3680   50.3350   -4.1750 C   0  0  0  0  0  0  0  0  0  0  0  0
   29.1970   49.7020   -7.7560 N   0  0  0  0  0  0  0  0  0  0  0  0
   30.2550   50.4520   -5.5720 S   0  0  0  0  0  0  0  0  0  0  0  0
   34.3860   50.5220   -6.1030 C   0  0  0  0  0  0  0  0  0  0  0  0
   33.2400   51.4230   -4.1710 C   0  0  0  0  0  0  0  0  0  0  0  0
   29.1540   51.4830   -6.3730 C   0  0  0  0  0  0  0  0  0  0  0  0
   28.6770   50.9730   -7.5060 N   0  0  0  0  0  0  0  0  0  0  0  0
   34.2470   51.5160   -5.1330 C   0  0  0  0  0  0  0  0  0  0  0  0
   28.9240   52.7440   -5.6690 C   0  0  0  0  0  0  0  0  0  0  0  0
   28.9380   52.7130   -4.2640 C   0  0  0  0  0  0  0  0  0  0  0  0
   28.7240   53.8680   -6.3960 N   0  0  0  0  0  0  0  0  0  0  0  0
   28.7360   53.9430   -3.6500 C   0  0  0  0  0  0  0  0  0  0  0  0
   28.5390   54.9830   -5.6790 C   0  0  0  0  0  0  0  0  0  0  0  0
   29.1380   51.5600   -3.4470 C   0  0  0  0  0  0  0  0  0  0  0  0
   28.5380   55.0720   -4.3400 N   0  0  0  0  0  0  0  0  0  0  0  0
   28.7420   54.0040   -2.2590 C   0  0  0  0  0  0  0  0  0  0  0  0
   29.1400   51.6410   -2.0640 C   0  0  0  0  0  0  0  0  0  0  0  0
   28.9430   52.8670   -1.4640 C   0  0  0  0  0  0  0  0  0  0  0  0
  1  2  2  0
  2  3  2  0
  2  4  1  0
  2  5  1  0
  4  6  1  0
  5  7  2  0
  5  8  1  0
  6  9  2  0
  6 10  1  0
  7 11  1  0
  8 12  2  0
 10 13  1  0
  9 14  1  0
 13 14  2  0
 11 15  2  0
 12 15  1  0
 13 16  1  0
 16 17  1  0
 16 18  2  0
 17 19  2  0
 18 20  1  0
 17 21  1  0
 19 22  1  0
 20 22  2  0
 19 23  1  0
 21 24  2  0
 23 25  2  0
 24 25  1  0
M  END
