mac-x0373-mac-x0193
     RDKit          3D

 29 31  0  0  0  0  0  0  0  0999 V2000
   31.9090   46.2420   -6.3280 N   0  0  0  0  0  0  0  0  0  0  0  0
   30.7250   46.4240   -5.6260 C   0  0  0  0  0  0  0  0  0  0  0  0
   29.6980   45.7930   -5.8780 O   0  0  0  0  0  0  0  0  0  0  0  0
   32.8430   45.4490   -5.8660 C   0  0  0  0  0  0  0  0  0  0  0  0
   30.7790   47.4790   -4.5040 C   0  0  0  0  0  0  0  0  0  0  0  0
   33.9480   45.3660   -6.6320 O   0  0  0  0  0  0  0  0  0  0  0  0
   32.9410   44.5800   -4.6130 C   0  0  0  0  0  0  0  0  0  0  0  0
   34.3020   44.6270   -4.0730 N   0  0  0  0  0  0  0  0  0  0  0  0
   32.1970   47.7940   -4.0520 C   0  0  0  0  0  0  0  0  0  0  0  0
   29.9720   48.7520   -4.7910 C   0  0  0  0  0  0  0  0  0  0  0  0
   34.7290   43.6780   -3.1670 C   0  0  0  0  0  0  0  0  0  0  0  0
   32.8230   46.9280   -3.1360 C   0  0  0  0  0  0  0  0  0  0  0  0
   32.9150   48.9070   -4.5100 C   0  0  0  0  0  0  0  0  0  0  0  0
   29.6500   49.6080   -3.7230 C   0  0  0  0  0  0  0  0  0  0  0  0
   29.5400   49.1020   -6.0830 C   0  0  0  0  0  0  0  0  0  0  0  0
   34.1020   42.6680   -2.8830 O   0  0  0  0  0  0  0  0  0  0  0  0
   35.9550   44.0040   -2.6200 N   0  0  0  0  0  0  0  0  0  0  0  0
   34.1220   47.1670   -2.6980 C   0  0  0  0  0  0  0  0  0  0  0  0
   34.2160   49.1450   -4.0690 C   0  0  0  0  0  0  0  0  0  0  0  0
   28.9230   50.7800   -3.9390 C   0  0  0  0  0  0  0  0  0  0  0  0
   28.8130   50.2770   -6.2950 C   0  0  0  0  0  0  0  0  0  0  0  0
   34.8210   48.2760   -3.1640 C   0  0  0  0  0  0  0  0  0  0  0  0
   28.5040   51.1140   -5.2250 C   0  0  0  0  0  0  0  0  0  0  0  0
   36.7530   43.0210   -1.8850 C   0  0  0  0  0  0  0  0  0  0  0  0
   37.9070   42.5020   -2.7600 C   0  0  0  0  0  0  0  0  0  0  0  0
   37.2810   43.5860   -0.5600 C   0  0  0  0  0  0  0  0  0  0  0  0
   38.8490   41.5310   -2.0410 C   0  0  0  0  0  0  0  0  0  0  0  0
   38.2300   42.6200    0.1610 C   0  0  0  0  0  0  0  0  0  0  0  0
   39.3600   42.0850   -0.7200 C   0  0  0  0  0  0  0  0  0  0  0  0
  1  2  1  0
  2  3  2  0
  1  4  2  3
  2  5  1  0
  4  6  1  0
  4  7  1  0
  7  8  1  0
  5  9  1  0
  5 10  1  0
  8 11  1  0
  9 12  2  0
  9 13  1  0
 10 14  2  0
 10 15  1  0
 11 16  2  0
 11 17  1  0
 12 18  1  0
 13 19  2  0
 14 20  1  0
 15 21  2  0
 18 22  2  0
 19 22  1  0
 20 23  2  0
 21 23  1  0
 17 24  1  0
 24 25  1  0
 24 26  1  0
 25 27  1  0
 26 28  1  0
 27 29  1  0
 28 29  1  0
M  END
