mac-x0213-mac-x0361
     RDKit          3D

 22 24  0  0  0  0  0  0  0  0999 V2000
   33.0500   46.6210   -5.4850 O   0  0  0  0  0  0  0  0  0  0  0  0
   31.8050   46.3220   -5.9120 C   0  0  0  0  0  0  0  0  0  0  0  0
   31.6380   45.9700   -7.0650 O   0  0  0  0  0  0  0  0  0  0  0  0
   30.7150   46.4650   -4.8700 C   0  0  2  0  0  0  0  0  0  0  0  0
   31.1940   46.9830   -3.4970 C   0  0  1  0  0  0  0  0  0  0  0  0
   30.0750   45.0980   -4.5350 C   0  0  0  0  0  0  0  0  0  0  0  0
   31.1760   48.3820   -3.1950 O   0  0  0  0  0  0  0  0  0  0  0  0
   30.0690   46.4970   -2.6410 C   0  0  0  0  0  0  0  0  0  0  0  0
   29.4290   45.4170   -3.2270 C   0  0  0  0  0  0  0  0  0  0  0  0
   29.6670   47.0110   -1.4240 C   0  0  0  0  0  0  0  0  0  0  0  0
   28.3540   44.8060   -2.6010 C   0  0  0  0  0  0  0  0  0  0  0  0
   30.6310   49.4630   -3.8410 C   0  0  0  0  0  0  0  0  0  0  0  0
   28.5850   46.4120   -0.7820 C   0  0  0  0  0  0  0  0  0  0  0  0
   27.9340   45.3130   -1.3690 C   0  0  0  0  0  0  0  0  0  0  0  0
   30.1560   49.6400   -5.1430 C   0  0  0  0  0  0  0  0  0  0  0  0
   30.6000   50.5450   -2.9570 C   0  0  0  0  0  0  0  0  0  0  0  0
   29.6740   50.9100   -5.5390 C   0  0  0  0  0  0  0  0  0  0  0  0
   30.1250   51.7930   -3.3400 C   0  0  0  0  0  0  0  0  0  0  0  0
   29.6660   51.9910   -4.6350 C   0  0  0  0  0  0  0  0  0  0  0  0
   29.1790   53.3300   -5.0710 C   0  0  0  0  0  0  0  0  0  0  0  0
   28.4930   53.4280   -6.2480 N   0  0  0  0  0  0  0  0  0  0  0  0
   29.4040   54.3310   -4.3970 O   0  0  0  0  0  0  0  0  0  0  0  0
  1  2  1  0
  2  3  2  0
  4  2  1  6
  4  5  1  0
  4  6  1  0
  5  7  1  6
  5  8  1  0
  6  9  1  0
  8  9  2  0
  8 10  1  0
  9 11  1  0
  7 12  1  0
 10 13  2  0
 11 14  2  0
 13 14  1  0
 12 15  2  0
 12 16  1  0
 15 17  1  0
 16 18  2  0
 17 19  2  0
 18 19  1  0
 19 20  1  0
 20 21  1  0
 20 22  2  0
M  END
