mac-x0223-mac-x0588
     RDKit          3D

 24 26  0  0  0  0  0  0  0  0999 V2000
   27.4190   43.4250   -2.2570 C   0  0  0  0  0  0  0  0  0  0  0  0
   28.2730   44.2400   -1.4630 O   0  0  0  0  0  0  0  0  0  0  0  0
   29.1020   45.1010   -2.1370 C   0  0  0  0  0  0  0  0  0  0  0  0
   28.6590   46.4210   -2.1940 C   0  0  0  0  0  0  0  0  0  0  0  0
   30.3130   44.7800   -2.7510 C   0  0  0  0  0  0  0  0  0  0  0  0
   27.4740   46.7710   -1.5990 O   0  0  0  0  0  0  0  0  0  0  0  0
   29.3900   47.4110   -2.8420 C   0  0  0  0  0  0  0  0  0  0  0  0
   31.0850   45.7620   -3.4200 C   0  0  0  0  0  0  0  0  0  0  0  0
   32.3930   45.3220   -4.0490 C   0  0  0  0  0  0  0  0  0  0  0  0
   30.6150   47.1040   -3.4680 C   0  0  0  0  0  0  0  0  0  0  0  0
   32.2520   44.5750   -5.3560 C   0  0  0  0  0  0  0  0  0  0  0  0
   31.3940   48.2220   -4.1680 C   0  0  0  0  0  0  0  0  0  0  0  0
   32.8420   44.8120   -6.3980 O   0  0  0  0  0  0  0  0  0  0  0  0
   31.3730   43.5520   -5.2970 O   0  0  0  0  0  0  0  0  0  0  0  0
   30.6550   49.2420   -4.9660 N   0  0  0  0  0  0  0  0  0  0  0  0
   29.6430   49.9180   -4.1670 C   0  0  0  0  0  0  0  0  0  0  0  0
   30.0620   48.7680   -6.2350 C   0  0  2  0  0  0  0  0  0  0  0  0
   29.2790   51.1520   -4.8400 N   0  0  0  0  0  0  0  0  0  0  0  0
   29.4340   49.9200   -7.0280 C   0  0  2  0  0  0  0  0  0  0  0  0
   28.8660   47.9730   -5.9740 N   0  0  0  0  0  0  0  0  0  0  0  0
   28.6540   50.9040   -6.1270 C   0  0  2  0  0  0  0  0  0  0  0  0
   28.5720   49.1580   -7.9740 N   0  0  0  0  0  0  0  0  0  0  0  0
   27.9610   48.1680   -7.0940 C   0  0  0  0  0  0  0  0  0  0  0  0
   28.4580   52.2140   -6.7200 N   0  0  0  0  0  0  0  0  0  0  0  0
  1  2  1  0
  2  3  1  0
  3  4  2  0
  3  5  1  0
  4  6  1  0
  4  7  1  0
  5  8  2  0
  8  9  1  0
  7 10  2  0
  8 10  1  0
  9 11  1  0
 10 12  1  0
 11 13  2  0
 11 14  1  0
 12 15  1  0
 15 16  1  0
 15 17  1  0
 16 18  1  0
 17 19  1  0
 17 20  1  1
 18 21  1  0
 19 21  1  0
 19 22  1  6
 20 23  1  0
 22 23  1  0
 21 24  1  6
M  END
