mac-x0441-mac-x0509
     RDKit          3D

 26 29  0  0  0  0  0  0  0  0999 V2000
   33.0890   45.4420   -6.8700 O   0  0  0  0  0  0  0  0  0  0  0  0
   32.7450   44.7130   -5.7800 C   0  0  0  0  0  0  0  0  0  0  0  0
   32.5030   43.5140   -5.8690 O   0  0  0  0  0  0  0  0  0  0  0  0
   32.6720   45.4610   -4.4700 C   0  0  0  0  0  0  0  0  0  0  0  0
   33.8170   45.2640   -3.5910 N   0  0  0  0  0  0  0  0  0  0  0  0
   33.8750   44.1400   -2.8290 N   0  0  0  0  0  0  0  0  0  0  0  0
   34.8950   46.0810   -3.4020 C   0  0  0  0  0  0  0  0  0  0  0  0
   35.0320   44.2540   -2.1350 C   0  0  0  0  0  0  0  0  0  0  0  0
   35.7040   45.4670   -2.4720 C   0  0  0  0  0  0  0  0  0  0  0  0
   35.1430   47.3880   -4.0720 C   0  0  0  0  0  0  0  0  0  0  0  0
   35.4600   43.1930   -1.1580 C   0  0  0  0  0  0  0  0  0  0  0  0
   36.9950   46.0870   -2.0020 C   0  0  2  0  0  0  0  0  0  0  0  0
   36.2970   48.1840   -3.4260 C   0  0  0  0  0  0  0  0  0  0  0  0
   35.5520   43.7050    0.1030 F   0  0  0  0  0  0  0  0  0  0  0  0
   34.5390   42.1900   -1.0790 F   0  0  0  0  0  0  0  0  0  0  0  0
   36.8190   47.6340   -2.0790 C   0  0  0  0  0  0  0  0  0  0  0  0
   38.3060   45.5390   -2.6410 C   0  0  2  0  0  0  0  0  0  0  0  0
   38.5360   46.0950   -4.0650 C   0  0  0  0  0  0  0  0  0  0  0  0
   38.4750   44.0620   -2.8770 C   0  0  0  0  0  0  0  0  0  0  0  0
   38.7470   47.2560   -4.3820 O   0  0  0  0  0  0  0  0  0  0  0  0
   38.5650   43.8250   -4.2510 C   0  0  0  0  0  0  0  0  0  0  0  0
   38.4690   45.0200   -4.9410 N   0  0  0  0  0  0  0  0  0  0  0  0
   38.5490   43.0070   -1.9850 C   0  0  0  0  0  0  0  0  0  0  0  0
   38.7120   41.7170   -2.4980 C   0  0  0  0  0  0  0  0  0  0  0  0
   38.7250   42.5640   -4.7810 C   0  0  0  0  0  0  0  0  0  0  0  0
   38.7990   41.4960   -3.8850 C   0  0  0  0  0  0  0  0  0  0  0  0
  1  2  1  0
  2  3  2  0
  2  4  1  0
  4  5  1  0
  5  6  1  0
  5  7  1  0
  6  8  2  0
  7  9  2  0
  8  9  1  0
  7 10  1  0
  8 11  1  0
  9 12  1  0
 10 13  1  0
 11 14  1  0
 11 15  1  0
 12 16  1  6
 13 16  1  0
 12 17  1  0
 17 18  1  6
 17 19  1  0
 18 20  2  0
 19 21  2  0
 18 22  1  0
 21 22  1  0
 19 23  1  0
 23 24  2  0
 21 25  1  0
 24 26  1  0
 25 26  2  0
M  END
