mac-x0303-mac-x0472
     RDKit          3D

 27 30  0  0  0  0  0  0  0  0999 V2000
   30.5510   56.4230   -6.7580 N   0  0  0  0  0  0  0  0  0  0  0  0
   29.2280   56.3270   -5.7270 S   0  0  0  0  0  0  0  0  0  0  0  0
   28.0160   56.4070   -6.5080 O   0  0  0  0  0  0  0  0  0  0  0  0
   29.4860   57.1770   -4.5940 O   0  0  0  0  0  0  0  0  0  0  0  0
   29.1890   54.6940   -5.0890 C   0  0  0  0  0  0  0  0  0  0  0  0
   29.2150   54.4410   -3.7450 N   0  0  0  0  0  0  0  0  0  0  0  0
   29.1270   53.5930   -5.7940 N   0  0  0  0  0  0  0  0  0  0  0  0
   29.1620   53.0920   -3.5720 C   0  0  0  0  0  0  0  0  0  0  0  0
   29.1080   52.5970   -4.8560 C   0  0  0  0  0  0  0  0  0  0  0  0
   29.1570   52.2940   -2.4240 C   0  0  0  0  0  0  0  0  0  0  0  0
   29.0500   51.2470   -4.9820 C   0  0  0  0  0  0  0  0  0  0  0  0
   29.0870   50.9170   -2.6060 C   0  0  0  0  0  0  0  0  0  0  0  0
   29.0320   50.4050   -3.8750 C   0  0  0  0  0  0  0  0  0  0  0  0
   29.0280   50.4370   -6.4400 S   0  0  0  0  0  0  0  0  0  0  0  0
   29.7790   49.0720   -6.8660 C   0  0  0  0  0  0  0  0  0  0  0  0
   28.2860   50.7000   -7.9270 C   0  0  0  0  0  0  0  0  0  0  0  0
   30.5830   48.3150   -6.1010 N   0  0  0  0  0  0  0  0  0  0  0  0
   29.4510   48.8390   -8.1200 N   0  0  0  0  0  0  0  0  0  0  0  0
   28.5980   49.7420   -8.7720 N   0  0  0  0  0  0  0  0  0  0  0  0
   30.8710   48.8730   -4.4990 S   0  0  0  0  0  0  0  0  0  0  0  0
   31.4960   47.8100   -3.6470 O   0  0  0  0  0  0  0  0  0  0  0  0
   32.2260   50.0520   -4.8700 C   0  0  0  0  0  0  0  0  0  0  0  0
   33.4570   49.5460   -5.2830 C   0  0  0  0  0  0  0  0  0  0  0  0
   32.0770   51.4480   -4.7530 C   0  0  0  0  0  0  0  0  0  0  0  0
   34.5200   50.4010   -5.5780 C   0  0  0  0  0  0  0  0  0  0  0  0
   33.1420   52.3060   -5.0500 C   0  0  0  0  0  0  0  0  0  0  0  0
   34.3630   51.7800   -5.4620 C   0  0  0  0  0  0  0  0  0  0  0  0
  2  1  1  0
  2  3  2  0
  2  4  2  0
  2  5  1  0
  5  6  1  0
  5  7  2  0
  6  8  1  0
  7  9  1  0
  8  9  2  0
  8 10  1  0
  9 11  1  0
 10 12  2  0
 11 13  2  0
 12 13  1  0
 11 14  1  0
 14 15  2  0
 14 16  1  0
 15 17  1  0
 15 18  1  0
 16 19  2  0
 18 19  1  0
 20 17  1  6
 20 21  2  0
 20 22  1  0
 22 23  2  0
 22 24  1  0
 23 25  1  0
 24 26  2  0
 25 27  2  0
 26 27  1  0
M  END
