mac-x0159-mac-x0564
     RDKit          3D

 27 31  0  0  0  0  0  0  0  0999 V2000
   29.6790   51.4730   -6.8410 N   0  0  0  0  0  0  0  0  0  0  0  0
   28.7730   50.5730   -6.1390 C   0  0  1  0  0  0  0  0  0  0  0  0
   28.5150   49.2440   -6.8830 C   0  0  2  0  0  0  0  0  0  0  0  0
   28.8660   50.4660   -4.7060 N   0  0  0  0  0  0  0  0  0  0  0  0
   30.1770   49.9720   -4.1550 C   0  0  2  0  0  0  0  0  0  0  0  0
   28.7340   47.8750   -6.2430 C   0  0  2  0  0  0  0  0  0  0  0  0
   29.0310   49.1850   -8.2760 N   0  0  0  0  0  0  0  0  0  0  0  0
   28.3090   51.6040   -4.1620 C   0  0  0  0  0  0  0  0  0  0  0  0
   29.8500   47.4260   -5.2110 C   0  0  1  0  0  0  0  0  0  0  0  0
   28.7020   47.0400   -7.4700 N   0  0  0  0  0  0  0  0  0  0  0  0
   29.3610   47.7970   -8.5030 C   0  0  0  0  0  0  0  0  0  0  0  0
   30.5980   48.4380   -4.3240 C   0  0  2  0  0  0  0  0  0  0  0  0
   30.4380   50.5760   -2.7860 C   0  0  0  0  0  0  0  0  0  0  0  0
   28.6900   52.1860   -3.0360 C   0  0  0  0  0  0  0  0  0  0  0  0
   29.2910   46.0780   -4.7080 C   0  0  0  0  0  0  0  0  0  0  0  0
   30.9940   46.6750   -5.8310 C   0  0  0  0  0  0  0  0  0  0  0  0
   31.1530   47.7620   -3.1220 N   0  0  0  0  0  0  0  0  0  0  0  0
   29.7500   51.6040   -2.2790 C   0  0  0  0  0  0  0  0  0  0  0  0
   31.1130   46.3630   -7.0190 O   0  0  0  0  0  0  0  0  0  0  0  0
   28.8950   45.6290   -3.3530 C   0  0  0  0  0  0  0  0  0  0  0  0
   31.7640   46.4740   -3.4870 C   0  0  0  0  0  0  0  0  0  0  0  0
   31.9250   46.3180   -4.9120 N   0  0  0  0  0  0  0  0  0  0  0  0
   28.6140   44.2990   -3.1670 C   0  0  0  0  0  0  0  0  0  0  0  0
   28.7580   46.4130   -2.2290 N   0  0  0  0  0  0  0  0  0  0  0  0
   28.3710   45.6610   -1.2200 C   0  0  0  0  0  0  0  0  0  0  0  0
   28.1600   43.9960   -1.5630 S   0  0  0  0  0  0  0  0  0  0  0  0
   28.1130   46.1540    0.1500 C   0  0  0  0  0  0  0  0  0  0  0  0
  2  1  1  6
  2  3  1  0
  2  4  1  0
  4  5  1  0
  3  6  1  0
  3  7  1  6
  4  8  1  0
  6  9  1  0
  6 10  1  6
  7 11  1  0
 10 11  1  0
  5 12  1  0
  9 12  1  0
  5 13  1  1
  8 14  2  0
  9 15  1  1
  9 16  1  0
 12 17  1  1
 13 18  2  0
 14 18  1  0
 16 19  2  0
 15 20  1  0
 17 21  1  0
 16 22  1  0
 21 22  1  0
 20 23  2  0
 20 24  1  0
 24 25  2  0
 23 26  1  0
 25 26  1  0
 25 27  1  0
M  END
