mac-x0204-mac-x0213
     RDKit          3D

 16 17  0  0  0  0  0  0  0  0999 V2000
   31.8120   46.7960   -6.2600 O   0  0  0  0  0  0  0  0  0  0  0  0
   31.3330   46.1090   -5.1320 C   0  0  0  0  0  0  0  0  0  0  0  0
   30.4540   45.1450   -5.6470 O   0  0  0  0  0  0  0  0  0  0  0  0
   32.4140   45.4240   -4.5560 O   0  0  0  0  0  0  0  0  0  0  0  0
   30.7040   47.1310   -4.1480 C   0  0  1  0  0  0  0  0  0  0  0  0
   30.3360   46.6260   -2.6920 C   0  0  0  0  0  0  0  0  0  0  0  0
   31.5700   48.4110   -4.0890 C   0  0  0  0  0  0  0  0  0  0  0  0
   31.6240   46.5560   -1.7860 C   0  0  2  0  0  0  0  0  0  0  0  0
   32.7510   48.2710   -3.2230 N   0  0  0  0  0  0  0  0  0  0  0  0
   29.3610   47.5630   -1.9690 C   0  0  0  0  0  0  0  0  0  0  0  0
   29.7190   45.2220   -2.8300 C   0  0  0  0  0  0  0  0  0  0  0  0
   31.3160   46.2550   -0.4180 O   0  0  0  0  0  0  0  0  0  0  0  0
   32.4350   47.8550   -1.8610 C   0  0  0  0  0  0  0  0  0  0  0  0
   28.1620   47.1930   -1.4850 C   0  0  0  0  0  0  0  0  0  0  0  0
   28.5170   44.8650   -2.3400 C   0  0  0  0  0  0  0  0  0  0  0  0
   27.6150   45.8010   -1.5910 C   0  0  0  0  0  0  0  0  0  0  0  0
  2  1  1  0
  2  3  1  0
  2  4  1  0
  5  2  1  1
  5  6  1  0
  5  7  1  0
  6  8  1  0
  7  9  1  0
  6 10  1  0
  6 11  1  0
  8 12  1  1
  8 13  1  0
  9 13  1  0
 10 14  2  0
 11 15  2  0
 14 16  1  0
 15 16  1  0
M  END
