mac-x0555-mac-x0328
     RDKit          3D

 15 16  0  0  0  0  0  0  0  0999 V2000
   29.0690   55.2950   -7.2970 N   0  0  0  0  0  0  0  0  0  0  0  0
   29.2350   54.4200   -6.2220 C   0  0  0  0  0  0  0  0  0  0  0  0
   29.3240   54.8580   -4.9070 C   0  0  0  0  0  0  0  0  0  0  0  0
   29.3220   53.0450   -6.4190 C   0  0  0  0  0  0  0  0  0  0  0  0
   29.4910   52.1710   -5.3320 C   0  0  0  0  0  0  0  0  0  0  0  0
   29.4860   54.0510   -3.8310 N   0  0  0  0  0  0  0  0  0  0  0  0
   29.5700   52.7190   -4.0310 C   0  0  0  0  0  0  0  0  0  0  0  0
   29.5790   50.7810   -5.5310 C   0  0  0  0  0  0  0  0  0  0  0  0
   29.7390   51.8190   -2.9630 C   0  0  0  0  0  0  0  0  0  0  0  0
   29.7470   49.9210   -4.4440 C   0  0  0  0  0  0  0  0  0  0  0  0
   29.8360   48.4650   -4.6980 C   0  0  0  0  0  0  0  0  0  0  0  0
   29.8200   52.3210   -1.6830 O   0  0  0  0  0  0  0  0  0  0  0  0
   29.8290   50.4360   -3.1490 C   0  0  0  0  0  0  0  0  0  0  0  0
   30.7010   47.8390   -3.8720 O   0  0  0  0  0  0  0  0  0  0  0  0
   29.1920   47.9000   -5.5640 O   0  0  0  0  0  0  0  0  0  0  0  0
  1  2  1  0
  2  3  2  0
  2  4  1  0
  4  5  2  0
  3  6  1  0
  5  7  1  0
  6  7  2  0
  5  8  1  0
  7  9  1  0
  8 10  2  0
 10 11  1  0
  9 12  1  0
  9 13  2  0
 10 13  1  0
 11 14  1  0
 11 15  2  0
M  END
