mac-x0344-mac-x0348
     RDKit          3D

 23 25  0  0  0  0  0  0  0  0999 V2000
   31.7220   44.1140   -4.1390 O   0  0  0  0  0  0  0  0  0  0  0  0
   31.8390   45.2990   -4.9180 C   0  0  0  0  0  0  0  0  0  0  0  0
   31.5970   44.8950   -6.2590 O   0  0  0  0  0  0  0  0  0  0  0  0
   33.3080   45.8770   -4.8170 C   0  0  0  0  0  0  0  0  0  0  0  0
   30.7260   46.3010   -4.4850 C   0  0  0  0  0  0  0  0  0  0  0  0
   33.7870   46.4830   -5.7810 O   0  0  0  0  0  0  0  0  0  0  0  0
   33.9470   45.6370   -3.6110 N   0  0  0  0  0  0  0  0  0  0  0  0
   29.9240   46.0840   -3.2120 C   0  0  0  0  0  0  0  0  0  0  0  0
   35.1460   46.2010   -3.1300 C   0  0  0  0  0  0  0  0  0  0  0  0
   29.0370   45.0520   -2.9360 C   0  0  0  0  0  0  0  0  0  0  0  0
   29.9320   46.9250   -2.0520 C   0  0  0  0  0  0  0  0  0  0  0  0
   36.1620   45.4740   -2.5040 C   0  0  0  0  0  0  0  0  0  0  0  0
   35.3160   47.5840   -3.2990 C   0  0  0  0  0  0  0  0  0  0  0  0
   28.5190   45.2400   -1.6770 N   0  0  0  0  0  0  0  0  0  0  0  0
   29.0500   46.3820   -1.1080 C   0  0  0  0  0  0  0  0  0  0  0  0
   30.6180   48.1130   -1.7220 C   0  0  0  0  0  0  0  0  0  0  0  0
   27.5560   44.3670   -1.0430 C   0  0  0  0  0  0  0  0  0  0  0  0
   37.3230   46.1160   -2.0540 C   0  0  0  0  0  0  0  0  0  0  0  0
   36.4750   48.2240   -2.8490 C   0  0  0  0  0  0  0  0  0  0  0  0
   30.4120   48.7190   -0.4830 C   0  0  0  0  0  0  0  0  0  0  0  0
   28.8340   46.9820    0.1420 C   0  0  0  0  0  0  0  0  0  0  0  0
   37.4770   47.4890   -2.2280 C   0  0  0  0  0  0  0  0  0  0  0  0
   29.5300   48.1610    0.4390 C   0  0  0  0  0  0  0  0  0  0  0  0
  2  1  1  0
  2  3  1  0
  2  4  1  0
  2  5  1  0
  4  6  2  0
  4  7  1  0
  5  8  1  0
  7  9  1  0
  8 10  2  0
  8 11  1  0
  9 12  2  0
  9 13  1  0
 10 14  1  0
 11 15  2  0
 14 15  1  0
 11 16  1  0
 14 17  1  0
 12 18  1  0
 13 19  2  0
 16 20  2  0
 15 21  1  0
 18 22  2  0
 19 22  1  0
 20 23  1  0
 21 23  2  0
M  END
