mac-x0132-mac-x0282
     RDKit          3D

 19 22  0  0  0  0  0  0  0  0999 V2000
   27.8430   52.6310   -7.0530 N   0  0  0  0  0  0  0  0  0  0  0  0
   28.6690   52.8540   -5.9570 C   0  0  0  0  0  0  0  0  0  0  0  0
   29.1560   54.1050   -5.8980 N   0  0  0  0  0  0  0  0  0  0  0  0
   28.9710   51.8820   -5.0040 C   0  0  0  0  0  0  0  0  0  0  0  0
   29.8250   52.3310   -3.9930 C   0  0  0  0  0  0  0  0  0  0  0  0
   29.9590   54.4080   -4.8790 C   0  0  0  0  0  0  0  0  0  0  0  0
   28.4700   50.4310   -4.9680 C   0  0  2  0  0  0  0  0  0  0  0  0
   30.3290   53.5770   -3.9070 N   0  0  0  0  0  0  0  0  0  0  0  0
   30.2600   51.4560   -2.9070 C   0  0  0  0  0  0  0  0  0  0  0  0
   28.5660   49.7760   -3.5560 C   0  0  0  0  0  0  0  0  0  0  0  0
   29.0190   49.4510   -5.9810 C   0  0  0  0  0  0  0  0  0  0  0  0
   26.9700   50.4080   -5.4450 C   0  0  0  0  0  0  0  0  0  0  0  0
   29.6870   50.2670   -2.6920 C   0  0  0  0  0  0  0  0  0  0  0  0
   28.1320   49.3370   -7.0480 C   0  0  0  0  0  0  0  0  0  0  0  0
   26.9900   50.1570   -6.8910 N   0  0  0  0  0  0  0  0  0  0  0  0
   30.1890   48.7080   -5.9870 C   0  0  0  0  0  0  0  0  0  0  0  0
   30.4160   47.8760   -7.0800 C   0  0  0  0  0  0  0  0  0  0  0  0
   28.3210   48.5500   -8.1070 N   0  0  0  0  0  0  0  0  0  0  0  0
   29.4670   47.8310   -8.1010 C   0  0  0  0  0  0  0  0  0  0  0  0
  1  2  1  0
  2  3  2  0
  2  4  1  0
  4  5  2  0
  3  6  1  0
  4  7  1  0
  5  8  1  0
  6  8  2  0
  5  9  1  0
  7 10  1  1
  7 11  1  0
  7 12  1  0
  9 13  2  0
 10 13  1  0
 11 14  2  0
 12 15  1  0
 14 15  1  0
 11 16  1  0
 16 17  2  0
 14 18  1  0
 17 19  1  0
 18 19  2  0
M  END
