mac-x0226-mac-x0333
     RDKit          3D

 27 30  0  0  0  0  0  0  0  0999 V2000
   32.0730   45.6160   -6.8030 O   0  0  0  0  0  0  0  0  0  0  0  0
   32.8410   46.3900   -5.8920 C   0  0  0  0  0  0  0  0  0  0  0  0
   33.8000   47.0880   -6.6690 O   0  0  0  0  0  0  0  0  0  0  0  0
   31.8790   47.4300   -5.2750 C   0  0  0  0  0  0  0  0  0  0  0  0
   33.4870   45.4930   -4.8770 C   0  0  0  0  0  0  0  0  0  0  0  0
   31.3880   47.1850   -3.8410 C   0  0  0  0  0  0  0  0  0  0  0  0
   33.1760   44.1430   -4.6120 C   0  0  0  0  0  0  0  0  0  0  0  0
   34.5080   45.7640   -3.9840 C   0  0  0  0  0  0  0  0  0  0  0  0
   31.0990   48.4440   -3.0330 C   0  0  0  0  0  0  0  0  0  0  0  0
   33.9260   43.6140   -3.6480 N   0  0  0  0  0  0  0  0  0  0  0  0
   34.7540   44.6180   -3.2570 N   0  0  0  0  0  0  0  0  0  0  0  0
   29.7440   48.8370   -3.2620 O   0  0  0  0  0  0  0  0  0  0  0  0
   35.7130   44.4180   -2.2260 C   0  0  0  0  0  0  0  0  0  0  0  0
   36.5810   45.4700   -1.8820 C   0  0  0  0  0  0  0  0  0  0  0  0
   35.8120   43.1980   -1.5460 C   0  0  0  0  0  0  0  0  0  0  0  0
   29.5560   49.9160   -4.0820 C   0  0  0  0  0  0  0  0  0  0  0  0
   37.5290   45.2980   -0.8730 C   0  0  0  0  0  0  0  0  0  0  0  0
   36.7650   43.0350   -0.5370 C   0  0  0  0  0  0  0  0  0  0  0  0
   29.7850   51.1550   -3.4740 C   0  0  0  0  0  0  0  0  0  0  0  0
   29.1650   49.8620   -5.4360 C   0  0  0  0  0  0  0  0  0  0  0  0
   37.6220   44.0800   -0.2010 C   0  0  0  0  0  0  0  0  0  0  0  0
   29.6180   52.2950   -4.2300 C   0  0  0  0  0  0  0  0  0  0  0  0
   29.0030   51.0360   -6.1830 C   0  0  0  0  0  0  0  0  0  0  0  0
   29.2380   52.2370   -5.5490 C   0  0  0  0  0  0  0  0  0  0  0  0
   29.7980   53.5720   -3.7980 O   0  0  0  0  0  0  0  0  0  0  0  0
   29.1310   53.4690   -6.1140 O   0  0  0  0  0  0  0  0  0  0  0  0
   29.5190   54.3080   -5.0060 C   0  0  0  0  0  0  0  0  0  0  0  0
  2  1  1  0
  2  3  1  0
  2  4  1  0
  2  5  1  0
  4  6  1  0
  5  7  1  0
  5  8  2  0
  6  9  1  0
  7 10  2  0
  8 11  1  0
 10 11  1  0
  9 12  1  0
 11 13  1  0
 13 14  2  0
 13 15  1  0
 12 16  1  0
 14 17  1  0
 15 18  2  0
 16 19  2  0
 16 20  1  0
 17 21  2  0
 18 21  1  0
 19 22  1  0
 20 23  2  0
 22 24  2  0
 23 24  1  0
 22 25  1  0
 24 26  1  0
 25 27  1  0
 26 27  1  0
M  END
