mac-x0344-mac-x0402
     RDKit          3D

 25 27  0  0  0  0  0  0  0  0999 V2000
   31.5870   44.1100   -4.5970 O   0  0  0  0  0  0  0  0  0  0  0  0
   31.9630   45.1490   -5.5120 C   0  0  0  0  0  0  0  0  0  0  0  0
   31.6570   44.6120   -6.7740 O   0  0  0  0  0  0  0  0  0  0  0  0
   33.4980   45.4320   -5.3050 C   0  0  0  0  0  0  0  0  0  0  0  0
   31.1140   46.3840   -5.1660 C   0  0  0  0  0  0  0  0  0  0  0  0
   34.1810   45.7070   -6.3090 O   0  0  0  0  0  0  0  0  0  0  0  0
   34.1550   45.4000   -4.1100 N   0  0  0  0  0  0  0  0  0  0  0  0
   31.7560   47.3390   -4.1480 C   0  0  0  0  0  0  0  0  0  0  0  0
   30.7120   48.0720   -3.2920 C   0  0  0  0  0  0  0  0  0  0  0  0
   35.0190   46.2840   -3.4380 C   0  0  0  0  0  0  0  0  0  0  0  0
   36.0940   45.6950   -2.7490 C   0  0  0  0  0  0  0  0  0  0  0  0
   34.8880   47.6710   -3.4060 C   0  0  0  0  0  0  0  0  0  0  0  0
   30.3280   49.4220   -3.8610 C   0  0  0  0  0  0  0  0  0  0  0  0
   37.0130   46.4780   -2.0470 C   0  0  0  0  0  0  0  0  0  0  0  0
   35.8100   48.4560   -2.7040 C   0  0  0  0  0  0  0  0  0  0  0  0
   30.3660   50.5600   -3.0460 C   0  0  0  0  0  0  0  0  0  0  0  0
   29.9340   49.5380   -5.2060 C   0  0  0  0  0  0  0  0  0  0  0  0
   36.8730   47.8620   -2.0250 C   0  0  0  0  0  0  0  0  0  0  0  0
   29.5820   50.8070   -5.7020 C   0  0  0  0  0  0  0  0  0  0  0  0
   30.0140   51.8190   -3.5510 C   0  0  0  0  0  0  0  0  0  0  0  0
   29.6160   51.9470   -4.8960 C   0  0  0  0  0  0  0  0  0  0  0  0
   29.0650   51.2590   -7.2790 S   0  0  0  0  0  0  0  0  0  0  0  0
   28.9330   52.8910   -6.7670 C   0  0  0  0  0  0  0  0  0  0  0  0
   29.2440   53.1250   -5.5190 N   0  0  0  0  0  0  0  0  0  0  0  0
   28.5300   53.8510   -7.6210 N   0  0  0  0  0  0  0  0  0  0  0  0
  2  1  1  0
  2  3  1  0
  2  4  1  0
  2  5  1  0
  4  6  2  0
  4  7  1  0
  5  8  1  0
  8  9  1  0
  7 10  1  0
 10 11  2  0
 10 12  1  0
  9 13  1  0
 11 14  1  0
 12 15  2  0
 13 16  2  0
 13 17  1  0
 14 18  2  0
 15 18  1  0
 17 19  2  0
 16 20  1  0
 19 21  1  0
 20 21  2  0
 19 22  1  0
 22 23  1  0
 21 24  1  0
 23 24  2  0
 23 25  1  0
M  END
