mac-x0344-mac-x0321
     RDKit          3D

 23 24  0  0  0  0  0  0  0  0999 V2000
   31.7700   44.6140   -4.3420 O   0  0  0  0  0  0  0  0  0  0  0  0
   32.3450   45.5040   -5.1580 C   0  0  0  0  0  0  0  0  0  0  0  0
   31.6120   46.2600   -5.8900 N   0  0  0  0  0  0  0  0  0  0  0  0
   33.8650   45.5000   -5.0920 C   0  0  0  0  0  0  0  0  0  0  0  0
   34.4900   45.5910   -6.1330 O   0  0  0  0  0  0  0  0  0  0  0  0
   34.3330   45.4030   -3.7960 N   0  0  0  0  0  0  0  0  0  0  0  0
   30.1630   46.1320   -5.7660 C   0  0  0  0  0  0  0  0  0  0  0  0
   29.4910   47.3160   -5.3050 O   0  0  0  0  0  0  0  0  0  0  0  0
   35.3730   46.1590   -3.2290 C   0  0  0  0  0  0  0  0  0  0  0  0
   30.0940   48.0020   -4.3030 C   0  0  0  0  0  0  0  0  0  0  0  0
   36.3530   45.4620   -2.5100 C   0  0  0  0  0  0  0  0  0  0  0  0
   35.4790   47.5460   -3.3470 C   0  0  0  0  0  0  0  0  0  0  0  0
   30.8130   47.5350   -3.4340 O   0  0  0  0  0  0  0  0  0  0  0  0
   37.4200   46.1440   -1.9210 C   0  0  0  0  0  0  0  0  0  0  0  0
   36.5470   48.2280   -2.7580 C   0  0  0  0  0  0  0  0  0  0  0  0
   29.7690   49.4550   -4.3740 C   0  0  0  0  0  0  0  0  0  0  0  0
   37.5170   47.5270   -2.0450 C   0  0  0  0  0  0  0  0  0  0  0  0
   29.3360   50.0840   -5.5520 C   0  0  0  0  0  0  0  0  0  0  0  0
   29.9080   50.2130   -3.2020 C   0  0  0  0  0  0  0  0  0  0  0  0
   29.0490   51.4470   -5.5380 C   0  0  0  0  0  0  0  0  0  0  0  0
   29.6180   51.5780   -3.1970 C   0  0  0  0  0  0  0  0  0  0  0  0
   28.5150   52.2250   -6.9820 Cl  0  0  0  0  0  0  0  0  0  0  0  0
   29.1860   52.1970   -4.3710 C   0  0  0  0  0  0  0  0  0  0  0  0
  1  2  1  0
  2  3  2  3
  2  4  1  0
  4  5  2  0
  4  6  1  0
  3  7  1  0
  7  8  1  0
  6  9  1  0
  8 10  1  0
  9 11  2  0
  9 12  1  0
 10 13  2  0
 11 14  1  0
 12 15  2  0
 10 16  1  0
 14 17  2  0
 15 17  1  0
 16 18  2  0
 16 19  1  0
 18 20  1  0
 19 21  2  0
 20 22  1  0
 20 23  2  0
 21 23  1  0
M  END
