mac-x0193-mac-x0451
     RDKit          3D

 27 29  0  0  0  0  0  0  0  0999 V2000
   34.5250   45.1670   -6.4870 O   0  0  0  0  0  0  0  0  0  0  0  0
   33.3070   45.1700   -5.9190 C   0  0  0  0  0  0  0  0  0  0  0  0
   32.2690   45.5960   -6.5390 N   0  0  0  0  0  0  0  0  0  0  0  0
   33.2460   44.6400   -4.4960 C   0  0  0  0  0  0  0  0  0  0  0  0
   34.5540   44.6980   -3.8650 N   0  0  0  0  0  0  0  0  0  0  0  0
   31.0390   45.5630   -5.7570 C   0  0  0  0  0  0  0  0  0  0  0  0
   34.9370   43.7140   -2.9940 C   0  0  0  0  0  0  0  0  0  0  0  0
   31.0750   46.7820   -4.8340 C   0  0  0  0  0  0  0  0  0  0  0  0
   34.2880   42.6890   -2.8210 O   0  0  0  0  0  0  0  0  0  0  0  0
   36.1060   44.0270   -2.3600 N   0  0  0  0  0  0  0  0  0  0  0  0
   29.8200   47.4420   -4.8340 O   0  0  0  0  0  0  0  0  0  0  0  0
   36.9090   42.9950   -1.7100 C   0  0  0  0  0  0  0  0  0  0  0  0
   29.7280   48.7470   -5.2290 C   0  0  0  0  0  0  0  0  0  0  0  0
   38.0030   42.5080   -2.6680 C   0  0  0  0  0  0  0  0  0  0  0  0
   37.4750   43.5190   -0.3760 C   0  0  0  0  0  0  0  0  0  0  0  0
   29.9960   49.6740   -4.2220 C   0  0  0  0  0  0  0  0  0  0  0  0
   29.3890   49.1830   -6.5140 C   0  0  0  0  0  0  0  0  0  0  0  0
   38.9150   41.4810   -2.0050 C   0  0  0  0  0  0  0  0  0  0  0  0
   38.3960   42.5000    0.2870 C   0  0  0  0  0  0  0  0  0  0  0  0
   29.3190   50.5690   -6.7520 C   0  0  0  0  0  0  0  0  0  0  0  0
   29.9270   51.0510   -4.4690 C   0  0  0  0  0  0  0  0  0  0  0  0
   39.4700   41.9930   -0.6740 C   0  0  0  0  0  0  0  0  0  0  0  0
   29.5790   51.5070   -5.7560 C   0  0  0  0  0  0  0  0  0  0  0  0
   28.9230   51.3990   -8.2100 S   0  0  0  0  0  0  0  0  0  0  0  0
   29.1190   52.8990   -7.4090 C   0  0  0  0  0  0  0  0  0  0  0  0
   29.4620   52.8330   -6.1470 N   0  0  0  0  0  0  0  0  0  0  0  0
   28.9270   54.0650   -8.0570 N   0  0  0  0  0  0  0  0  0  0  0  0
  1  2  1  0
  2  3  2  3
  2  4  1  0
  4  5  1  0
  3  6  1  0
  5  7  1  0
  6  8  1  0
  7  9  2  0
  7 10  1  0
  8 11  1  0
 10 12  1  0
 11 13  1  0
 12 14  1  0
 12 15  1  0
 13 16  2  0
 13 17  1  0
 14 18  1  0
 15 19  1  0
 17 20  2  0
 16 21  1  0
 18 22  1  0
 19 22  1  0
 20 23  1  0
 21 23  2  0
 20 24  1  0
 24 25  1  0
 23 26  1  0
 25 26  2  0
 25 27  1  0
M  END
