mac-x0417-mac-x0228
     RDKit          3D

 27 30  0  0  0  0  0  0  0  0999 V2000
   32.0940   45.1910   -6.2370 O   0  0  0  0  0  0  0  0  0  0  0  0
   33.2210   45.3020   -5.4930 C   0  0  0  0  0  0  0  0  0  0  0  0
   34.2510   45.7500   -5.9830 O   0  0  0  0  0  0  0  0  0  0  0  0
   33.1240   44.8250   -4.0410 C   0  0  2  0  0  0  0  0  0  0  0  0
   32.1790   45.6900   -3.1910 C   0  0  0  0  0  0  0  0  0  0  0  0
   34.4640   44.7370   -3.3740 C   0  0  0  0  0  0  0  0  0  0  0  0
   30.8740   46.0910   -3.8740 C   0  0  0  0  0  0  0  0  0  0  0  0
   34.9180   43.5390   -2.9710 N   0  0  0  0  0  0  0  0  0  0  0  0
   35.3930   45.7750   -3.0700 C   0  0  0  0  0  0  0  0  0  0  0  0
   30.6640   47.4850   -3.5170 N   0  0  0  0  0  0  0  0  0  0  0  0
   36.1550   43.7790   -2.3960 O   0  0  0  0  0  0  0  0  0  0  0  0
   36.4390   45.1070   -2.4540 C   0  0  0  0  0  0  0  0  0  0  0  0
   35.4910   47.1710   -3.2300 C   0  0  0  0  0  0  0  0  0  0  0  0
   30.2860   48.3430   -4.3790 C   0  0  0  0  0  0  0  0  0  0  0  0
   37.5940   45.7180   -1.9750 C   0  0  0  0  0  0  0  0  0  0  0  0
   36.6430   47.8200   -2.7570 C   0  0  0  0  0  0  0  0  0  0  0  0
   30.0640   47.9180   -5.6310 O   0  0  0  0  0  0  0  0  0  0  0  0
   37.6750   47.1050   -2.1420 C   0  0  0  0  0  0  0  0  0  0  0  0
   30.0440   49.7790   -4.2590 C   0  0  0  0  0  0  0  0  0  0  0  0
   29.8010   50.5560   -5.3980 C   0  0  0  0  0  0  0  0  0  0  0  0
   30.0680   50.3560   -2.9750 C   0  0  0  0  0  0  0  0  0  0  0  0
   29.5860   51.9100   -5.2160 C   0  0  0  0  0  0  0  0  0  0  0  0
   29.8480   51.7240   -2.8150 C   0  0  0  0  0  0  0  0  0  0  0  0
   29.6120   52.4740   -3.9480 C   0  0  0  0  0  0  0  0  0  0  0  0
   29.3110   52.9650   -6.2140 C   0  0  0  0  0  0  0  0  0  0  0  0
   29.3830   53.8240   -3.9470 O   0  0  0  0  0  0  0  0  0  0  0  0
   29.5610   54.1920   -5.3360 C   0  0  0  0  0  0  0  0  0  0  0  0
  1  2  1  0
  2  3  2  0
  2  4  1  0
  4  5  1  1
  4  6  1  0
  5  7  1  0
  6  8  2  0
  6  9  1  0
  7 10  1  0
  8 11  1  0
  9 12  2  0
 11 12  1  0
  9 13  1  0
 10 14  2  3
 12 15  1  0
 13 16  2  0
 14 17  1  0
 15 18  2  0
 16 18  1  0
 14 19  1  0
 19 20  2  0
 19 21  1  0
 20 22  1  0
 21 23  2  0
 22 24  2  0
 23 24  1  0
 22 25  1  0
 24 26  1  0
 25 27  1  0
 26 27  1  0
M  END
