mac-x0179-mac-x0546
     RDKit          3D

 27 30  0  0  0  0  0  0  0  0999 V2000
   32.2300   46.4000   -5.7270 N   0  0  0  0  0  0  0  0  0  0  0  0
   32.4890   45.5560   -4.4960 C   0  0  1  0  0  0  0  0  0  0  0  0
   33.3560   44.4290   -4.7060 O   0  0  0  0  0  0  0  0  0  0  0  0
   31.9560   45.7270   -6.7260 O   0  0  0  0  0  0  0  0  0  0  0  0
   33.1110   46.5060   -3.4220 C   0  0  0  0  0  0  0  0  0  0  0  0
   31.1690   45.0850   -3.9510 C   0  0  0  0  0  0  0  0  0  0  0  0
   34.4770   46.2450   -3.0160 N   0  0  0  0  0  0  0  0  0  0  0  0
   30.6960   45.4510   -2.5770 C   0  0  1  0  0  0  0  0  0  0  0  0
   30.2340   44.3130   -4.5350 C   0  0  0  0  0  0  0  0  0  0  0  0
   34.8690   45.1570   -2.2740 C   0  0  0  0  0  0  0  0  0  0  0  0
   35.2560   47.3280   -2.7300 C   0  0  0  0  0  0  0  0  0  0  0  0
   30.4520   46.8780   -2.1800 C   0  0  0  0  0  0  0  0  0  0  0  0
   29.3530   44.7570   -2.6710 C   0  0  0  0  0  0  0  0  0  0  0  0
   29.1150   44.0950   -3.7670 N   0  0  0  0  0  0  0  0  0  0  0  0
   34.3360   44.0720   -2.1580 O   0  0  0  0  0  0  0  0  0  0  0  0
   35.0970   48.4760   -3.0950 O   0  0  0  0  0  0  0  0  0  0  0  0
   36.1120   45.5380   -1.6000 C   0  0  0  0  0  0  0  0  0  0  0  0
   36.3420   46.8690   -1.8800 C   0  0  0  0  0  0  0  0  0  0  0  0
   29.4130   47.1730   -1.3810 C   0  0  0  0  0  0  0  0  0  0  0  0
   28.4520   44.8960   -1.5180 C   0  0  0  0  0  0  0  0  0  0  0  0
   29.0660   48.4180   -0.9170 O   0  0  0  0  0  0  0  0  0  0  0  0
   36.9710   44.8040   -0.8100 C   0  0  0  0  0  0  0  0  0  0  0  0
   37.4380   47.5490   -1.3950 C   0  0  0  0  0  0  0  0  0  0  0  0
   28.5200   46.1040   -0.9180 C   0  0  0  0  0  0  0  0  0  0  0  0
   30.1220   49.2940   -0.5810 C   0  0  0  0  0  0  0  0  0  0  0  0
   38.0930   45.4700   -0.3040 C   0  0  0  0  0  0  0  0  0  0  0  0
   38.3230   46.8310   -0.5920 C   0  0  0  0  0  0  0  0  0  0  0  0
  2  1  1  0
  2  3  1  6
  1  4  2  0
  2  5  1  0
  2  6  1  0
  5  7  1  0
  6  8  1  0
  6  9  2  0
  7 10  1  0
  7 11  1  0
  8 12  1  6
  8 13  1  0
  9 14  1  0
 13 14  2  0
 10 15  2  0
 11 16  2  0
 10 17  1  0
 11 18  1  0
 17 18  2  0
 12 19  2  0
 13 20  1  0
 19 21  1  0
 17 22  1  0
 18 23  1  0
 19 24  1  0
 20 24  2  0
 21 25  1  0
 22 26  2  0
 23 27  2  0
 26 27  1  0
M  END
