mac-x0584-mac-x0572
     RDKit          3D

 26 30  0  0  0  0  0  0  0  0999 V2000
   28.3560   54.4240   -6.9340 C   0  0  0  0  0  0  0  0  0  0  0  0
   28.2580   54.0880   -5.4420 C   0  0  1  0  0  0  0  0  0  0  0  0
   27.9670   52.6530   -5.3370 N   0  0  0  0  0  0  0  0  0  0  0  0
   29.4930   54.5330   -4.6370 C   0  0  2  0  0  0  0  0  0  0  0  0
   29.9950   55.8020   -5.0360 O   0  0  0  0  0  0  0  0  0  0  0  0
   28.9820   51.6940   -5.7730 C   0  0  2  0  0  0  0  0  0  0  0  0
   30.5500   53.4520   -4.7360 C   0  0  0  0  0  0  0  0  0  0  0  0
   31.5200   53.4480   -3.9690 O   0  0  0  0  0  0  0  0  0  0  0  0
   28.7140   51.1620   -7.1040 N   0  0  0  0  0  0  0  0  0  0  0  0
   29.0060   50.4030   -4.8640 C   0  0  0  0  0  0  0  0  0  0  0  0
   30.3700   52.3940   -5.8010 C   0  0  0  0  0  0  0  0  0  0  0  0
   29.1820   49.8320   -7.1090 C   0  0  0  0  0  0  0  0  0  0  0  0
   29.3740   49.3270   -5.8310 C   0  0  0  0  0  0  0  0  0  0  0  0
   29.4010   49.1680   -8.2350 N   0  0  0  0  0  0  0  0  0  0  0  0
   29.8300   48.0370   -5.7050 C   0  0  0  0  0  0  0  0  0  0  0  0
   30.0760   47.3750   -4.5260 N   0  0  0  0  0  0  0  0  0  0  0  0
   30.0600   47.3390   -6.8410 N   0  0  0  0  0  0  0  0  0  0  0  0
   29.8400   47.9260   -8.0330 C   0  0  0  0  0  0  0  0  0  0  0  0
   31.3400   47.2620   -3.7930 C   0  0  2  0  0  0  0  0  0  0  0  0
   28.9260   47.1660   -3.6390 C   0  0  0  0  0  0  0  0  0  0  0  0
   32.3140   46.3100   -4.5000 C   0  0  0  0  0  0  0  0  0  0  0  0
   30.9160   46.7720   -2.4010 C   0  0  0  0  0  0  0  0  0  0  0  0
   29.5000   47.2980   -2.2380 C   0  0  0  0  0  0  0  0  0  0  0  0
   31.6940   45.0830   -5.2270 C   0  0  0  0  0  0  0  0  0  0  0  0
   33.0270   46.6200   -5.8510 C   0  0  0  0  0  0  0  0  0  0  0  0
   32.9260   45.1100   -6.1560 C   0  0  0  0  0  0  0  0  0  0  0  0
  2  1  1  6
  2  3  1  0
  2  4  1  0
  4  5  1  6
  6  3  1  0
  4  7  1  0
  7  8  2  0
  6  9  1  0
  6 10  1  1
  6 11  1  0
  7 11  1  0
  9 12  1  0
 10 13  1  0
 12 13  2  0
 12 14  1  0
 13 15  1  0
 15 16  1  0
 15 17  2  0
 14 18  2  0
 17 18  1  0
 16 19  1  0
 16 20  1  0
 19 21  1  6
 19 22  1  0
 20 23  1  0
 22 23  1  0
 21 24  1  0
 21 25  1  0
 24 26  1  0
 25 26  1  0
M  END
