mac-x0161-mac-x0567
     RDKit          3D

 19 21  0  0  0  0  0  0  0  0999 V2000
   27.8590   52.3090   -5.9280 N   0  0  0  0  0  0  0  0  0  0  0  0
   28.7080   51.1860   -5.5680 C   0  0  2  0  0  0  0  0  0  0  0  0
   28.2800   49.8530   -6.2070 C   0  0  2  0  0  0  0  0  0  0  0  0
   28.6340   51.1450   -4.1190 N   0  0  0  0  0  0  0  0  0  0  0  0
   29.3860   50.0270   -3.5460 C   0  0  0  0  0  0  0  0  0  0  0  0
   29.2160   48.8080   -5.6370 C   0  0  1  0  0  0  0  0  0  0  0  0
   28.4270   49.5810   -7.6470 N   0  0  0  0  0  0  0  0  0  0  0  0
   29.1150   48.7430   -4.1980 N   0  0  0  0  0  0  0  0  0  0  0  0
   28.7170   47.6460   -6.3410 N   0  0  0  0  0  0  0  0  0  0  0  0
   28.4460   48.1330   -7.6670 C   0  0  2  0  0  0  0  0  0  0  0  0
   29.7620   47.5840   -3.5690 C   0  0  0  0  0  0  0  0  0  0  0  0
   29.5500   47.7350   -8.4720 N   0  0  0  0  0  0  0  0  0  0  0  0
   31.2360   47.4480   -3.7670 C   0  0  0  0  0  0  0  0  0  0  0  0
   32.3340   47.6610   -2.9650 C   0  0  0  0  0  0  0  0  0  0  0  0
   31.6600   47.0210   -4.9900 O   0  0  0  0  0  0  0  0  0  0  0  0
   33.0450   46.9480   -5.0050 N   0  0  0  0  0  0  0  0  0  0  0  0
   33.4220   47.3300   -3.7860 C   0  0  0  0  0  0  0  0  0  0  0  0
   34.7260   47.3840   -3.4300 O   0  0  0  0  0  0  0  0  0  0  0  0
   34.9710   47.9950   -2.1690 C   0  0  0  0  0  0  0  0  0  0  0  0
  2  1  1  6
  2  3  1  0
  2  4  1  0
  4  5  1  0
  3  6  1  0
  3  7  1  6
  5  8  1  0
  6  8  1  0
  6  9  1  6
  7 10  1  0
  9 10  1  0
  8 11  1  0
 10 12  1  6
 11 13  1  0
 13 14  2  0
 13 15  1  0
 15 16  1  0
 14 17  1  0
 16 17  2  0
 17 18  1  0
 18 19  1  0
M  END
