mac-x0433-mac-x0319
     RDKit          3D

 23 24  0  0  0  0  0  0  0  0999 V2000
   28.6780   50.2820   -6.2490 C   0  0  0  0  0  0  0  0  0  0  0  0
   29.0540   51.3700   -5.2890 C   0  0  0  0  0  0  0  0  0  0  0  0
   29.1510   52.6780   -5.7170 C   0  0  0  0  0  0  0  0  0  0  0  0
   29.2860   51.0140   -4.0130 N   0  0  0  0  0  0  0  0  0  0  0  0
   29.6210   51.9770   -3.1480 C   0  0  0  0  0  0  0  0  0  0  0  0
   29.5000   53.6090   -4.7600 C   0  0  0  0  0  0  0  0  0  0  0  0
   29.6300   55.0560   -5.1200 C   0  0  0  0  0  0  0  0  0  0  0  0
   29.8500   51.5530   -1.8440 N   0  0  0  0  0  0  0  0  0  0  0  0
   29.7370   53.2690   -3.4780 N   0  0  0  0  0  0  0  0  0  0  0  0
   29.5150   50.1690   -1.5620 C   0  0  0  0  0  0  0  0  0  0  0  0
   30.2970   49.1990   -2.4480 C   0  0  0  0  0  0  0  0  0  0  0  0
   30.7720   47.9640   -1.6830 C   0  0  0  0  0  0  0  0  0  0  0  0
   30.7120   46.7320   -2.5510 C   0  0  0  0  0  0  0  0  0  0  0  0
   29.5720   45.9160   -2.5370 C   0  0  0  0  0  0  0  0  0  0  0  0
   31.7920   46.3900   -3.3780 C   0  0  0  0  0  0  0  0  0  0  0  0
   31.7410   45.2430   -4.1870 C   0  0  0  0  0  0  0  0  0  0  0  0
   29.5270   44.7820   -3.3400 C   0  0  0  0  0  0  0  0  0  0  0  0
   32.9060   44.8800   -5.0750 C   0  0  0  0  0  0  0  0  0  0  0  0
   28.4320   43.9670   -3.3530 O   0  0  0  0  0  0  0  0  0  0  0  0
   30.5950   44.4420   -4.1590 C   0  0  0  0  0  0  0  0  0  0  0  0
   32.9320   45.6100   -6.3930 C   0  0  0  0  0  0  0  0  0  0  0  0
   34.1880   45.9660   -6.7450 O   0  0  0  0  0  0  0  0  0  0  0  0
   31.9990   45.8920   -7.1260 O   0  0  0  0  0  0  0  0  0  0  0  0
  1  2  1  0
  2  3  2  0
  2  4  1  0
  4  5  2  0
  3  6  1  0
  6  7  1  0
  5  8  1  0
  5  9  1  0
  6  9  2  0
  8 10  1  0
 10 11  1  0
 11 12  1  0
 12 13  1  0
 13 14  2  0
 13 15  1  0
 15 16  2  0
 14 17  1  0
 16 18  1  0
 17 19  1  0
 16 20  1  0
 17 20  2  0
 18 21  1  0
 21 22  1  0
 21 23  2  0
M  END
