mac-x0441-mac-x0282
     RDKit          3D

 28 31  0  0  0  0  0  0  0  0999 V2000
   34.3450   45.3610   -6.1780 O   0  0  0  0  0  0  0  0  0  0  0  0
   33.0690   45.2570   -5.7560 C   0  0  0  0  0  0  0  0  0  0  0  0
   32.0860   45.1960   -6.5830 N   0  0  0  0  0  0  0  0  0  0  0  0
   32.8590   45.2150   -4.2660 C   0  0  0  0  0  0  0  0  0  0  0  0
   30.7250   45.0860   -6.0470 C   0  0  0  0  0  0  0  0  0  0  0  0
   34.1050   44.9690   -3.5640 N   0  0  0  0  0  0  0  0  0  0  0  0
   29.6740   45.5440   -7.0660 C   0  0  0  0  0  0  0  0  0  0  0  0
   34.3230   43.7350   -3.0460 N   0  0  0  0  0  0  0  0  0  0  0  0
   35.1330   45.8280   -3.3300 C   0  0  0  0  0  0  0  0  0  0  0  0
   35.5420   43.8170   -2.4630 C   0  0  0  0  0  0  0  0  0  0  0  0
   36.0820   45.1220   -2.6210 C   0  0  0  0  0  0  0  0  0  0  0  0
   35.2340   47.2540   -3.7430 C   0  0  0  0  0  0  0  0  0  0  0  0
   29.3950   47.0240   -7.0350 C   0  0  0  0  0  0  0  0  0  0  0  0
   36.1930   42.6580   -1.7480 C   0  0  0  0  0  0  0  0  0  0  0  0
   37.3700   45.7180   -2.1630 C   0  0  0  0  0  0  0  0  0  0  0  0
   36.3300   47.9410   -2.9060 C   0  0  0  0  0  0  0  0  0  0  0  0
   29.5730   47.7710   -5.8620 C   0  0  0  0  0  0  0  0  0  0  0  0
   28.9510   47.6940   -8.1790 C   0  0  0  0  0  0  0  0  0  0  0  0
   37.2760   42.1620   -2.4060 F   0  0  0  0  0  0  0  0  0  0  0  0
   36.6140   43.0060   -0.5030 F   0  0  0  0  0  0  0  0  0  0  0  0
   35.3310   41.6180   -1.5860 F   0  0  0  0  0  0  0  0  0  0  0  0
   37.6150   47.0930   -2.8240 C   0  0  0  0  0  0  0  0  0  0  0  0
   29.2920   49.1440   -5.9090 C   0  0  0  0  0  0  0  0  0  0  0  0
   28.6660   49.0150   -8.2790 N   0  0  0  0  0  0  0  0  0  0  0  0
   29.3360   50.2210   -4.9800 C   0  0  0  0  0  0  0  0  0  0  0  0
   28.8560   49.6710   -7.1180 C   0  0  0  0  0  0  0  0  0  0  0  0
   28.9300   51.3600   -5.6450 C   0  0  0  0  0  0  0  0  0  0  0  0
   28.6420   51.0110   -6.9420 N   0  0  0  0  0  0  0  0  0  0  0  0
  1  2  1  0
  2  3  2  3
  2  4  1  0
  3  5  1  0
  4  6  1  0
  5  7  1  0
  6  8  1  0
  6  9  1  0
  8 10  2  0
  9 11  2  0
 10 11  1  0
  9 12  1  0
  7 13  1  0
 10 14  1  0
 11 15  1  0
 12 16  1  0
 13 17  2  0
 13 18  1  0
 14 19  1  0
 14 20  1  0
 14 21  1  0
 15 22  1  0
 16 22  1  0
 17 23  1  0
 18 24  2  0
 23 25  1  0
 23 26  2  0
 24 26  1  0
 25 27  2  0
 26 28  1  0
 27 28  1  0
M  END
