mac-x0415-mac-x0284
     RDKit          3D

 23 25  0  0  0  0  0  0  0  0999 V2000
   33.4940   45.6020   -6.7470 O   0  0  0  0  0  0  0  0  0  0  0  0
   32.2790   45.6900   -6.0120 C   0  0  2  0  0  0  0  0  0  0  0  0
   31.8900   47.0320   -5.6510 N   0  0  0  0  0  0  0  0  0  0  0  0
   32.4010   44.9060   -4.6810 C   0  0  0  0  0  0  0  0  0  0  0  0
   30.7230   47.1530   -5.1310 C   0  0  0  0  0  0  0  0  0  0  0  0
   31.1320   44.7890   -3.8970 C   0  0  0  0  0  0  0  0  0  0  0  0
   30.0240   43.8870   -4.2560 C   0  0  0  0  0  0  0  0  0  0  0  0
   30.6310   45.3670   -2.7970 C   0  0  0  0  0  0  0  0  0  0  0  0
   30.2160   48.4490   -4.6470 C   0  0  0  0  0  0  0  0  0  0  0  0
   28.9540   43.8670   -3.5050 N   0  0  0  0  0  0  0  0  0  0  0  0
   29.2830   44.8270   -2.4380 C   0  0  2  0  0  0  0  0  0  0  0  0
   31.1410   46.3840   -1.9100 C   0  0  0  0  0  0  0  0  0  0  0  0
   29.2610   49.1250   -5.4160 C   0  0  0  0  0  0  0  0  0  0  0  0
   30.6640   49.0110   -3.4550 C   0  0  0  0  0  0  0  0  0  0  0  0
   31.5970   48.3830   -2.6880 O   0  0  0  0  0  0  0  0  0  0  0  0
   28.3300   45.9520   -2.2060 C   0  0  0  0  0  0  0  0  0  0  0  0
   30.2360   47.2350   -1.3630 C   0  0  0  0  0  0  0  0  0  0  0  0
   28.7590   50.3640   -4.9860 C   0  0  0  0  0  0  0  0  0  0  0  0
   30.1680   50.2360   -3.0200 C   0  0  0  0  0  0  0  0  0  0  0  0
   30.7320   48.6110   -0.1970 Br  0  0  0  0  0  0  0  0  0  0  0  0
   27.7420   51.1000   -5.8030 C   0  0  0  0  0  0  0  0  0  0  0  0
   28.8080   47.1030   -1.6830 C   0  0  0  0  0  0  0  0  0  0  0  0
   29.2180   50.9090   -3.7840 C   0  0  0  0  0  0  0  0  0  0  0  0
  2  1  1  1
  2  3  1  0
  2  4  1  0
  3  5  2  3
  4  6  1  0
  6  7  1  0
  6  8  2  0
  5  9  1  0
  7 10  2  0
  8 11  1  0
 10 11  1  0
  8 12  1  0
  9 13  2  0
  9 14  1  0
 14 15  1  0
 11 16  1  6
 12 17  2  0
 13 18  1  0
 14 19  2  0
 17 20  1  0
 18 21  1  0
 16 22  2  0
 17 22  1  0
 18 23  2  0
 19 23  1  0
M  END
