mac-x0568-mac-x0439
     RDKit          3D

 24 26  0  0  0  0  0  0  0  0999 V2000
   29.3830   55.8140   -5.0980 C   0  0  0  0  0  0  0  0  0  0  0  0
   29.4510   54.3170   -5.1360 C   0  0  0  0  0  0  0  0  0  0  0  0
   29.1300   53.6330   -6.3060 C   0  0  0  0  0  0  0  0  0  0  0  0
   29.8310   53.6810   -4.0010 N   0  0  0  0  0  0  0  0  0  0  0  0
   29.8910   52.3250   -4.0390 C   0  0  0  0  0  0  0  0  0  0  0  0
   29.2010   52.2400   -6.3140 C   0  0  0  0  0  0  0  0  0  0  0  0
   29.5900   51.5620   -5.1590 C   0  0  0  0  0  0  0  0  0  0  0  0
   29.6770   50.0650   -5.1390 C   0  0  0  0  0  0  0  0  0  0  0  0
   30.3640   49.5380   -4.1860 N   0  0  0  0  0  0  0  0  0  0  0  0
   29.0250   49.3710   -6.1300 N   0  0  0  0  0  0  0  0  0  0  0  0
   30.5260   48.0910   -4.0590 C   0  0  0  0  0  0  0  0  0  0  0  0
   30.2840   47.6480   -2.6110 C   0  0  0  0  0  0  0  0  0  0  0  0
   29.6010   46.3100   -2.4010 C   0  0  0  0  0  0  0  0  0  0  0  0
   30.2720   45.0890   -2.9850 C   0  0  2  0  0  0  0  0  0  0  0  0
   28.4390   46.1140   -1.7320 C   0  0  0  0  0  0  0  0  0  0  0  0
   30.9450   45.1250   -4.3140 C   0  0  0  0  0  0  0  0  0  0  0  0
   29.1840   44.1100   -3.3940 C   0  0  0  0  0  0  0  0  0  0  0  0
   27.8540   44.7850   -1.5780 C   0  0  0  0  0  0  0  0  0  0  0  0
   30.3050   44.3070   -5.1660 C   0  0  0  0  0  0  0  0  0  0  0  0
   29.2130   43.6690   -4.6140 N   0  0  0  0  0  0  0  0  0  0  0  0
   28.1880   43.7570   -2.3750 C   0  0  0  0  0  0  0  0  0  0  0  0
   30.7580   44.1310   -6.5700 C   0  0  0  0  0  0  0  0  0  0  0  0
   30.1770   43.0820   -7.1790 O   0  0  0  0  0  0  0  0  0  0  0  0
   31.5660   44.8320   -7.1580 O   0  0  0  0  0  0  0  0  0  0  0  0
  1  2  1  0
  2  3  2  0
  2  4  1  0
  4  5  2  0
  3  6  1  0
  5  7  1  0
  6  7  2  0
  7  8  1  0
  8  9  2  3
  8 10  1  0
  9 11  1  0
 11 12  1  0
 12 13  1  0
 13 14  1  0
 13 15  2  0
 14 16  1  6
 14 17  1  0
 15 18  1  0
 16 19  2  0
 17 20  2  0
 19 20  1  0
 17 21  1  0
 18 21  2  0
 19 22  1  0
 22 23  1  0
 22 24  2  0
M  END
