mac-x0193-mac-x0567
     RDKit          3D

 26 28  0  0  0  0  0  0  0  0999 V2000
   34.0130   45.8720   -6.1290 O   0  0  0  0  0  0  0  0  0  0  0  0
   32.9980   45.0650   -5.7460 C   0  0  0  0  0  0  0  0  0  0  0  0
   31.8770   45.1570   -6.3500 N   0  0  0  0  0  0  0  0  0  0  0  0
   33.3090   44.1130   -4.6110 C   0  0  0  0  0  0  0  0  0  0  0  0
   34.4760   44.5350   -3.8790 N   0  0  0  0  0  0  0  0  0  0  0  0
   31.6030   46.0950   -7.4290 C   0  0  0  0  0  0  0  0  0  0  0  0
   34.9410   43.6650   -2.9350 C   0  0  0  0  0  0  0  0  0  0  0  0
   30.0820   46.3220   -7.4710 C   0  0  0  0  0  0  0  0  0  0  0  0
   34.3270   42.6590   -2.6130 O   0  0  0  0  0  0  0  0  0  0  0  0
   36.1430   44.0360   -2.4050 N   0  0  0  0  0  0  0  0  0  0  0  0
   29.7850   47.5020   -8.2780 N   0  0  0  0  0  0  0  0  0  0  0  0
   36.9600   43.0330   -1.7320 C   0  0  0  0  0  0  0  0  0  0  0  0
   29.3680   48.6810   -7.7370 C   0  0  0  0  0  0  0  0  0  0  0  0
   38.0730   42.5270   -2.6540 C   0  0  0  0  0  0  0  0  0  0  0  0
   37.5320   43.5590   -0.4130 C   0  0  0  0  0  0  0  0  0  0  0  0
   28.7120   49.6380   -8.4690 N   0  0  0  0  0  0  0  0  0  0  0  0
   29.4520   49.2300   -6.4720 C   0  0  0  0  0  0  0  0  0  0  0  0
   38.9510   41.4820   -1.9670 C   0  0  0  0  0  0  0  0  0  0  0  0
   38.4260   42.5300    0.2820 C   0  0  0  0  0  0  0  0  0  0  0  0
   28.3740   50.7440   -7.7840 N   0  0  0  0  0  0  0  0  0  0  0  0
   28.8200   50.5270   -6.5360 C   0  0  0  0  0  0  0  0  0  0  0  0
   30.0360   48.6530   -5.3410 C   0  0  0  0  0  0  0  0  0  0  0  0
   39.5150   42.0010   -0.6460 C   0  0  0  0  0  0  0  0  0  0  0  0
   28.7420   51.3520   -5.4010 C   0  0  0  0  0  0  0  0  0  0  0  0
   29.9410   49.5050   -4.2160 C   0  0  0  0  0  0  0  0  0  0  0  0
   29.3230   50.7930   -4.2430 C   0  0  0  0  0  0  0  0  0  0  0  0
  1  2  1  0
  2  3  2  3
  2  4  1  0
  4  5  1  0
  3  6  1  0
  5  7  1  0
  6  8  1  0
  7  9  2  0
  7 10  1  0
  8 11  1  0
 10 12  1  0
 11 13  1  0
 12 14  1  0
 12 15  1  0
 13 16  1  0
 13 17  2  0
 14 18  1  0
 15 19  1  0
 16 20  1  0
 17 21  1  0
 20 21  2  0
 17 22  1  0
 18 23  1  0
 19 23  1  0
 21 24  1  0
 22 25  2  0
 24 26  2  0
 25 26  1  0
M  END
