mac-x0441-mac-x0148
     RDKit          3D

 34 39  0  0  0  0  0  0  0  0999 V2000
   33.4180   45.2970   -7.8130 O   0  0  0  0  0  0  0  0  0  0  0  0
   32.4370   44.5930   -7.2280 C   0  0  0  0  0  0  0  0  0  0  0  0
   31.7290   45.1310   -6.3110 N   0  0  0  0  0  0  0  0  0  0  0  0
   32.0840   46.5160   -5.9870 C   0  0  2  0  0  0  0  0  0  0  0  0
   33.3960   46.4760   -5.2030 C   0  0  0  0  0  0  0  0  0  0  0  0
   30.9910   47.2140   -5.2640 N   0  0  0  0  0  0  0  0  0  0  0  0
   31.2150   47.7360   -3.8910 C   0  0  1  0  0  0  0  0  0  0  0  0
   33.1490   45.9940   -3.7720 C   0  0  1  0  0  0  0  0  0  0  0  0
   29.9520   47.7740   -6.0310 C   0  0  0  0  0  0  0  0  0  0  0  0
   34.4060   45.5420   -3.1520 N   0  0  0  0  0  0  0  0  0  0  0  0
   29.9760   47.6820   -2.9940 C   0  0  0  0  0  0  0  0  0  0  0  0
   32.3330   47.0800   -3.0630 C   0  0  2  0  0  0  0  0  0  0  0  0
   29.1760   46.9890   -6.8700 N   0  0  0  0  0  0  0  0  0  0  0  0
   29.6280   49.0830   -6.0200 C   0  0  0  0  0  0  0  0  0  0  0  0
   34.4190   44.2510   -2.7230 N   0  0  0  0  0  0  0  0  0  0  0  0
   35.6030   46.1620   -2.9070 C   0  0  0  0  0  0  0  0  0  0  0  0
   31.5920   46.5440   -1.8380 C   0  0  0  0  0  0  0  0  0  0  0  0
   30.4380   47.3640   -1.6730 O   0  0  0  0  0  0  0  0  0  0  0  0
   28.1620   47.5100   -7.6290 C   0  0  0  0  0  0  0  0  0  0  0  0
   28.5120   49.5790   -6.8680 C   0  0  0  0  0  0  0  0  0  0  0  0
   30.0840   50.2720   -5.3650 C   0  0  0  0  0  0  0  0  0  0  0  0
   35.6410   44.0450   -2.1980 C   0  0  0  0  0  0  0  0  0  0  0  0
   36.4150   45.2240   -2.2960 C   0  0  0  0  0  0  0  0  0  0  0  0
   36.0260   47.5610   -3.2080 C   0  0  0  0  0  0  0  0  0  0  0  0
   27.7920   48.7480   -7.6730 N   0  0  0  0  0  0  0  0  0  0  0  0
   28.3250   50.8660   -6.7440 N   0  0  0  0  0  0  0  0  0  0  0  0
   29.2940   51.2570   -5.8250 C   0  0  0  0  0  0  0  0  0  0  0  0
   36.0730   42.7280   -1.6050 C   0  0  0  0  0  0  0  0  0  0  0  0
   37.8150   45.4910   -1.8600 C   0  0  0  0  0  0  0  0  0  0  0  0
   37.3220   47.9130   -2.4530 C   0  0  0  0  0  0  0  0  0  0  0  0
   37.0920   42.1680   -2.3190 F   0  0  0  0  0  0  0  0  0  0  0  0
   36.5150   42.8290   -0.3240 F   0  0  0  0  0  0  0  0  0  0  0  0
   35.0650   41.8160   -1.6030 F   0  0  0  0  0  0  0  0  0  0  0  0
   38.3560   46.7780   -2.5070 C   0  0  0  0  0  0  0  0  0  0  0  0
  1  2  1  0
  2  3  2  3
  4  3  1  1
  4  5  1  0
  4  6  1  0
  6  7  1  0
  5  8  1  0
  6  9  1  0
  8 10  1  1
  7 11  1  1
  7 12  1  0
  8 12  1  0
  9 13  1  0
  9 14  2  0
 10 15  1  0
 10 16  1  0
 12 17  1  1
 11 18  1  0
 17 18  1  0
 13 19  1  0
 14 20  1  0
 14 21  1  0
 15 22  2  0
 16 23  2  0
 22 23  1  0
 16 24  1  0
 19 25  2  0
 20 25  1  0
 20 26  2  0
 21 27  2  0
 26 27  1  0
 22 28  1  0
 23 29  1  0
 24 30  1  0
 28 31  1  0
 28 32  1  0
 28 33  1  0
 29 34  1  0
 30 34  1  0
M  END
