mac-x0564-mac-x0546
     RDKit          3D

 28 32  0  0  0  0  0  0  0  0999 V2000
   31.7910   46.7410   -6.3730 N   0  0  0  0  0  0  0  0  0  0  0  0
   31.9410   45.4760   -6.1960 C   0  0  0  0  0  0  0  0  0  0  0  0
   32.1420   44.6600   -4.9290 C   0  0  0  0  0  0  0  0  0  0  0  0
   31.8320   47.5080   -5.2230 C   0  0  0  0  0  0  0  0  0  0  0  0
   31.9190   44.7190   -7.3080 O   0  0  0  0  0  0  0  0  0  0  0  0
   30.9820   48.5620   -4.9550 C   0  0  0  0  0  0  0  0  0  0  0  0
   32.7750   47.1800   -4.3270 N   0  0  0  0  0  0  0  0  0  0  0  0
   31.1270   49.2470   -3.7610 C   0  0  0  0  0  0  0  0  0  0  0  0
   32.8400   47.9020   -3.1990 C   0  0  0  0  0  0  0  0  0  0  0  0
   29.9600   49.0840   -5.6920 O   0  0  0  0  0  0  0  0  0  0  0  0
   30.9120   44.4740   -4.1010 C   0  0  0  0  0  0  0  0  0  0  0  0
   32.0670   48.9380   -2.8380 N   0  0  0  0  0  0  0  0  0  0  0  0
   29.4520   50.1200   -4.9570 C   0  0  0  0  0  0  0  0  0  0  0  0
   30.1390   50.2550   -3.7540 C   0  0  0  0  0  0  0  0  0  0  0  0
   30.1310   45.5770   -3.4430 C   0  0  2  0  0  0  0  0  0  0  0  0
   30.3190   43.3010   -3.8340 C   0  0  0  0  0  0  0  0  0  0  0  0
   29.7530   51.2730   -2.8640 C   0  0  0  0  0  0  0  0  0  0  0  0
   28.3900   50.9380   -5.3370 C   0  0  0  0  0  0  0  0  0  0  0  0
   30.6810   46.3790   -2.3020 C   0  0  0  0  0  0  0  0  0  0  0  0
   29.0740   44.6680   -2.8360 C   0  0  0  0  0  0  0  0  0  0  0  0
   29.1920   43.3940   -3.0590 N   0  0  0  0  0  0  0  0  0  0  0  0
   28.6890   52.1090   -3.2190 C   0  0  0  0  0  0  0  0  0  0  0  0
   28.0220   51.9450   -4.4360 C   0  0  0  0  0  0  0  0  0  0  0  0
   29.8670   46.7400   -1.2800 C   0  0  0  0  0  0  0  0  0  0  0  0
   28.0200   45.3150   -2.0440 C   0  0  0  0  0  0  0  0  0  0  0  0
   30.1920   47.4730   -0.1620 O   0  0  0  0  0  0  0  0  0  0  0  0
   28.4650   46.3350   -1.2930 C   0  0  0  0  0  0  0  0  0  0  0  0
   30.5690   48.8320   -0.3640 C   0  0  0  0  0  0  0  0  0  0  0  0
  1  2  2  3
  2  3  1  0
  1  4  1  0
  2  5  1  0
  4  6  1  0
  4  7  2  0
  6  8  2  0
  7  9  1  0
  6 10  1  0
  3 11  1  0
  8 12  1  0
  9 12  2  0
 10 13  1  0
  8 14  1  0
 13 14  2  0
 11 15  1  0
 11 16  2  0
 14 17  1  0
 13 18  1  0
 15 19  1  1
 15 20  1  0
 16 21  1  0
 20 21  2  0
 17 22  2  0
 18 23  2  0
 22 23  1  0
 19 24  2  0
 20 25  1  0
 24 26  1  0
 24 27  1  0
 25 27  2  0
 26 28  1  0
M  END
