mac-x0319-mac-x0572
     RDKit          3D

 27 29  0  0  0  0  0  0  0  0999 V2000
   33.9030   47.2280   -6.7630 O   0  0  0  0  0  0  0  0  0  0  0  0
   32.7810   47.6130   -6.1220 C   0  0  0  0  0  0  0  0  0  0  0  0
   32.1320   48.5860   -6.6500 N   0  0  0  0  0  0  0  0  0  0  0  0
   31.9860   46.3510   -5.8910 C   0  0  0  0  0  0  0  0  0  0  0  0
   32.0170   49.7900   -5.8250 C   0  0  0  0  0  0  0  0  0  0  0  0
   31.0240   46.4740   -4.7360 C   0  0  0  0  0  0  0  0  0  0  0  0
   30.7900   50.6030   -6.2570 C   0  0  0  0  0  0  0  0  0  0  0  0
   29.7960   45.7970   -4.7780 C   0  0  0  0  0  0  0  0  0  0  0  0
   31.3320   47.2550   -3.6150 C   0  0  0  0  0  0  0  0  0  0  0  0
   29.4770   50.2590   -5.4780 C   0  0  0  0  0  0  0  0  0  0  0  0
   28.9010   45.9030   -3.7200 C   0  0  0  0  0  0  0  0  0  0  0  0
   30.4270   47.3570   -2.5560 C   0  0  0  0  0  0  0  0  0  0  0  0
   27.7030   45.2520   -3.7420 O   0  0  0  0  0  0  0  0  0  0  0  0
   29.2090   46.6790   -2.6110 C   0  0  0  0  0  0  0  0  0  0  0  0
   29.6670   49.1400   -4.5100 C   0  0  0  0  0  0  0  0  0  0  0  0
   29.4920   48.7130   -5.8400 C   0  0  0  0  0  0  0  0  0  0  0  0
   29.6540   50.1930   -3.7380 C   0  0  0  0  0  0  0  0  0  0  0  0
   29.3130   51.4380   -4.5210 C   0  0  1  0  0  0  0  0  0  0  0  0
   29.2550   49.7520   -6.6760 C   0  0  0  0  0  0  0  0  0  0  0  0
   30.0990   52.6970   -4.2640 C   0  0  0  0  0  0  0  0  0  0  0  0
   29.2500   51.1770   -6.0690 C   0  0  0  0  0  0  0  0  0  0  0  0
   30.9960   52.8730   -3.4370 O   0  0  0  0  0  0  0  0  0  0  0  0
   29.6780   53.8110   -5.1490 C   0  0  0  0  0  0  0  0  0  0  0  0
   29.2140   52.1930   -6.9100 N   0  0  0  0  0  0  0  0  0  0  0  0
   29.7280   55.0980   -4.6490 O   0  0  0  0  0  0  0  0  0  0  0  0
   29.2620   53.4880   -6.3950 C   0  0  0  0  0  0  0  0  0  0  0  0
   28.8080   54.5490   -7.3640 C   0  0  0  0  0  0  0  0  0  0  0  0
  1  2  1  0
  2  3  2  3
  2  4  1  0
  3  5  1  0
  4  6  1  0
  5  7  1  0
  6  8  2  0
  6  9  1  0
  7 10  1  0
  8 11  1  0
  9 12  2  0
 11 13  1  0
 11 14  2  0
 12 14  1  0
 10 15  1  0
 15 16  1  0
 15 17  2  0
 18 17  1  1
 16 19  2  0
 18 20  1  0
 18 21  1  0
 19 21  1  0
 20 22  2  0
 20 23  1  0
 21 24  2  0
 23 25  1  0
 23 26  2  0
 24 26  1  0
 26 27  1  0
M  END
