mac-x0337-mac-x0333
     RDKit          3D

 19 21  0  0  0  0  0  0  0  0999 V2000
   34.9830   52.3910   -4.5180 C   0  0  0  0  0  0  0  0  0  0  0  0
   33.8070   51.6930   -5.1300 C   0  0  0  0  0  0  0  0  0  0  0  0
   32.7590   52.4220   -5.6970 C   0  0  0  0  0  0  0  0  0  0  0  0
   33.7440   50.2960   -5.1470 C   0  0  0  0  0  0  0  0  0  0  0  0
   32.6500   49.6410   -5.7290 C   0  0  0  0  0  0  0  0  0  0  0  0
   31.6670   51.7630   -6.2790 C   0  0  0  0  0  0  0  0  0  0  0  0
   31.6010   50.3590   -6.3080 C   0  0  0  0  0  0  0  0  0  0  0  0
   30.2450   49.3840   -7.0610 S   0  0  0  0  0  0  0  0  0  0  0  0
   29.2890   49.1960   -5.6750 N   0  0  0  0  0  0  0  0  0  0  0  0
   29.4450   50.7420   -7.6170 N   0  0  0  0  0  0  0  0  0  0  0  0
   29.4180   50.2770   -4.9230 C   0  0  0  0  0  0  0  0  0  0  0  0
   29.9650   50.3160   -3.6280 C   0  0  0  0  0  0  0  0  0  0  0  0
   28.9770   51.4780   -5.5000 C   0  0  0  0  0  0  0  0  0  0  0  0
   30.0810   51.5120   -2.9190 C   0  0  0  0  0  0  0  0  0  0  0  0
   29.0990   52.6410   -4.7990 C   0  0  0  0  0  0  0  0  0  0  0  0
   29.6380   52.6570   -3.5420 C   0  0  0  0  0  0  0  0  0  0  0  0
   28.7270   53.8770   -5.2280 O   0  0  0  0  0  0  0  0  0  0  0  0
   29.6690   53.9160   -3.0290 O   0  0  0  0  0  0  0  0  0  0  0  0
   29.4090   54.6570   -4.2380 C   0  0  0  0  0  0  0  0  0  0  0  0
  1  2  1  0
  2  3  2  0
  2  4  1  0
  4  5  2  0
  3  6  1  0
  5  7  1  0
  6  7  2  0
  7  8  1  0
  8  9  2  3
  8 10  1  0
  9 11  1  0
 11 12  2  0
 11 13  1  0
 12 14  1  0
 13 15  2  0
 14 16  2  0
 15 16  1  0
 15 17  1  0
 16 18  1  0
 17 19  1  0
 18 19  1  0
M  END
