mac-x0344-mac-x0116
     RDKit          3D

 29 32  0  0  0  0  0  0  0  0999 V2000
   31.3600   43.9730   -4.3920 O   0  0  0  0  0  0  0  0  0  0  0  0
   31.8750   45.0340   -5.0400 C   0  0  0  0  0  0  0  0  0  0  0  0
   31.1720   45.8830   -5.7080 N   0  0  0  0  0  0  0  0  0  0  0  0
   33.3910   45.1040   -4.8860 C   0  0  0  0  0  0  0  0  0  0  0  0
   34.0410   45.0670   -5.9290 O   0  0  0  0  0  0  0  0  0  0  0  0
   33.9970   45.1960   -3.6550 N   0  0  0  0  0  0  0  0  0  0  0  0
   31.9180   46.9690   -6.3460 C   0  0  0  0  0  0  0  0  0  0  0  0
   35.1750   45.8450   -3.2250 C   0  0  0  0  0  0  0  0  0  0  0  0
   31.0720   48.0970   -6.7210 N   0  0  0  0  0  0  0  0  0  0  0  0
   36.2610   45.2000   -2.6320 C   0  0  0  0  0  0  0  0  0  0  0  0
   35.2390   47.2340   -3.4160 C   0  0  0  0  0  0  0  0  0  0  0  0
   30.5480   49.0480   -5.8850 C   0  0  0  0  0  0  0  0  0  0  0  0
   30.6600   48.3960   -7.9940 C   0  0  0  0  0  0  0  0  0  0  0  0
   37.3910   45.9280   -2.2360 C   0  0  0  0  0  0  0  0  0  0  0  0
   36.3670   47.9600   -3.0210 C   0  0  0  0  0  0  0  0  0  0  0  0
   30.6890   49.1500   -4.5520 N   0  0  0  0  0  0  0  0  0  0  0  0
   29.8340   49.8960   -6.7160 C   0  0  0  0  0  0  0  0  0  0  0  0
   29.9100   49.4760   -8.0320 N   0  0  0  0  0  0  0  0  0  0  0  0
   37.4440   47.3050   -2.4300 C   0  0  0  0  0  0  0  0  0  0  0  0
   30.0270   50.2240   -4.0780 C   0  0  0  0  0  0  0  0  0  0  0  0
   29.1830   50.9930   -6.1120 C   0  0  0  0  0  0  0  0  0  0  0  0
   28.4430   51.9100   -6.8690 N   0  0  0  0  0  0  0  0  0  0  0  0
   29.3000   51.1310   -4.7650 N   0  0  0  0  0  0  0  0  0  0  0  0
   28.7160   53.3190   -6.5930 C   0  0  0  0  0  0  0  0  0  0  0  0
   30.0050   53.8680   -7.1230 C   0  0  0  0  0  0  0  0  0  0  0  0
   30.9190   54.2750   -6.1920 O   0  0  0  0  0  0  0  0  0  0  0  0
   30.5130   54.0710   -8.3900 C   0  0  0  0  0  0  0  0  0  0  0  0
   31.8020   54.6300   -8.2270 C   0  0  0  0  0  0  0  0  0  0  0  0
   32.0020   54.7340   -6.8710 C   0  0  0  0  0  0  0  0  0  0  0  0
  1  2  1  0
  2  3  2  3
  2  4  1  0
  4  5  2  0
  4  6  1  0
  3  7  1  0
  6  8  1  0
  7  9  1  0
  8 10  2  0
  8 11  1  0
  9 12  1  0
  9 13  1  0
 10 14  1  0
 11 15  2  0
 12 16  2  0
 12 17  1  0
 13 18  2  0
 17 18  1  0
 14 19  2  0
 15 19  1  0
 16 20  1  0
 17 21  2  0
 21 22  1  0
 20 23  2  0
 21 23  1  0
 22 24  1  0
 24 25  1  0
 25 26  1  0
 25 27  2  0
 27 28  1  0
 26 29  1  0
 28 29  2  0
M  END
