mac-x0282-mac-x0439
     RDKit          3D

 23 26  0  0  0  0  0  0  0  0999 V2000
   31.1360   46.9670   -1.8050 Cl  0  0  0  0  0  0  0  0  0  0  0  0
   29.8240   45.8780   -2.0440 C   0  0  0  0  0  0  0  0  0  0  0  0
   29.1750   45.8160   -3.3880 C   0  0  1  0  0  0  0  0  0  0  0  0
   29.3750   45.0920   -1.0460 C   0  0  0  0  0  0  0  0  0  0  0  0
   29.9450   45.8890   -4.6590 C   0  0  0  0  0  0  0  0  0  0  0  0
   28.7030   44.3820   -3.5760 C   0  0  0  0  0  0  0  0  0  0  0  0
   28.2610   44.1770   -1.2670 C   0  0  0  0  0  0  0  0  0  0  0  0
   29.8220   44.7310   -5.3250 C   0  0  0  0  0  0  0  0  0  0  0  0
   29.0600   43.7800   -4.6720 N   0  0  0  0  0  0  0  0  0  0  0  0
   27.8890   43.7930   -2.5010 C   0  0  0  0  0  0  0  0  0  0  0  0
   30.4280   44.4280   -6.6530 C   0  0  0  0  0  0  0  0  0  0  0  0
   29.9710   43.2260   -7.0850 O   0  0  0  0  0  0  0  0  0  0  0  0
   31.2540   45.1330   -7.3480 N   0  0  0  0  0  0  0  0  0  0  0  0
   31.7050   46.4130   -6.7990 C   0  0  0  0  0  0  0  0  0  0  0  0
   30.6730   47.5130   -6.9160 C   0  0  0  0  0  0  0  0  0  0  0  0
   30.5490   48.4700   -5.8990 C   0  0  0  0  0  0  0  0  0  0  0  0
   29.8190   47.6150   -8.0190 C   0  0  0  0  0  0  0  0  0  0  0  0
   29.5840   49.4750   -6.0470 C   0  0  0  0  0  0  0  0  0  0  0  0
   28.8670   48.5670   -8.2120 N   0  0  0  0  0  0  0  0  0  0  0  0
   29.1540   50.5900   -5.2770 C   0  0  0  0  0  0  0  0  0  0  0  0
   28.8070   49.4510   -7.1980 C   0  0  0  0  0  0  0  0  0  0  0  0
   28.1410   51.2110   -5.9760 C   0  0  0  0  0  0  0  0  0  0  0  0
   27.9410   50.5090   -7.1390 N   0  0  0  0  0  0  0  0  0  0  0  0
  1  2  1  0
  2  3  1  0
  2  4  2  0
  3  5  1  6
  3  6  1  0
  4  7  1  0
  5  8  2  0
  6  9  2  0
  8  9  1  0
  6 10  1  0
  7 10  2  0
  8 11  1  0
 11 12  1  0
 11 13  2  3
 13 14  1  0
 14 15  1  0
 15 16  2  0
 15 17  1  0
 16 18  1  0
 17 19  2  0
 18 20  1  0
 18 21  2  0
 19 21  1  0
 20 22  2  0
 21 23  1  0
 22 23  1  0
M  END
