mac-x0346-mac-x0455
     RDKit          3D

 24 25  0  0  0  0  0  0  0  0999 V2000
   29.1170   55.1380   -5.2930 O   0  0  0  0  0  0  0  0  0  0  0  0
   30.1180   54.4560   -4.5640 N   0  0  0  0  0  0  0  0  0  0  0  0
   29.7540   53.2670   -3.9850 C   0  0  0  0  0  0  0  0  0  0  0  0
   29.8780   53.1000   -2.7720 O   0  0  0  0  0  0  0  0  0  0  0  0
   29.2100   52.1790   -4.8620 C   0  0  0  0  0  0  0  0  0  0  0  0
   29.2040   50.8170   -4.5130 C   0  0  0  0  0  0  0  0  0  0  0  0
   28.6740   52.5670   -6.1070 C   0  0  0  0  0  0  0  0  0  0  0  0
   29.7280   50.4430   -3.3020 O   0  0  0  0  0  0  0  0  0  0  0  0
   28.6640   49.8820   -5.4070 C   0  0  0  0  0  0  0  0  0  0  0  0
   28.1430   51.6240   -6.9860 C   0  0  0  0  0  0  0  0  0  0  0  0
   29.9260   49.0350   -3.1210 C   0  0  0  0  0  0  0  0  0  0  0  0
   28.1380   50.2800   -6.6350 C   0  0  0  0  0  0  0  0  0  0  0  0
   30.6790   48.4460   -4.3230 C   0  0  0  0  0  0  0  0  0  0  0  0
   31.0590   46.9600   -4.1630 C   0  0  1  0  0  0  0  0  0  0  0  0
   30.2220   46.3750   -3.1290 O   0  0  0  0  0  0  0  0  0  0  0  0
   30.6670   46.1660   -5.4430 C   0  0  0  0  0  0  0  0  0  0  0  0
   32.5250   46.7500   -3.8060 C   0  0  0  0  0  0  0  0  0  0  0  0
   29.6260   45.5440   -5.6020 O   0  0  0  0  0  0  0  0  0  0  0  0
   31.6270   46.2290   -6.4070 O   0  0  0  0  0  0  0  0  0  0  0  0
   33.4050   47.8330   -3.6240 C   0  0  0  0  0  0  0  0  0  0  0  0
   33.0380   45.4510   -3.6450 C   0  0  0  0  0  0  0  0  0  0  0  0
   34.7470   47.6240   -3.2960 C   0  0  0  0  0  0  0  0  0  0  0  0
   34.3800   45.2450   -3.3170 C   0  0  0  0  0  0  0  0  0  0  0  0
   35.2330   46.3290   -3.1430 C   0  0  0  0  0  0  0  0  0  0  0  0
  1  2  1  0
  2  3  1  0
  3  4  2  0
  3  5  1  0
  5  6  2  0
  5  7  1  0
  6  8  1  0
  6  9  1  0
  7 10  2  0
  8 11  1  0
  9 12  2  0
 10 12  1  0
 11 13  1  0
 13 14  1  0
 14 15  1  1
 14 16  1  0
 14 17  1  0
 16 18  2  0
 16 19  1  0
 17 20  2  0
 17 21  1  0
 20 22  1  0
 21 23  2  0
 22 24  2  0
 23 24  1  0
M  END
