mac-x0472-mac-x0373
     RDKit          3D

 31 34  0  0  0  0  0  0  0  0999 V2000
   32.5000   49.1010   -4.1530 O   0  0  0  0  0  0  0  0  0  0  0  0
   31.2310   50.0950   -4.4880 S   0  0  0  0  0  0  0  0  0  0  0  0
   31.2540   48.4070   -3.9500 C   0  0  0  0  0  0  0  0  0  0  0  0
   32.3280   51.3710   -4.8830 C   0  0  0  0  0  0  0  0  0  0  0  0
   29.4910   50.0940   -4.5010 C   0  0  0  0  0  0  0  0  0  0  0  0
   33.6040   51.0700   -5.3580 C   0  0  0  0  0  0  0  0  0  0  0  0
   31.9280   52.6980   -4.7240 C   0  0  0  0  0  0  0  0  0  0  0  0
   28.8100   49.9430   -3.2850 C   0  0  0  0  0  0  0  0  0  0  0  0
   28.7720   50.2460   -5.7040 C   0  0  0  0  0  0  0  0  0  0  0  0
   32.5810   47.7740   -3.7290 C   0  0  0  0  0  0  0  0  0  0  0  0
   30.0930   47.4440   -3.6600 C   0  0  0  0  0  0  0  0  0  0  0  0
   34.4860   52.1020   -5.6780 C   0  0  0  0  0  0  0  0  0  0  0  0
   32.8130   53.7290   -5.0450 C   0  0  0  0  0  0  0  0  0  0  0  0
   29.4120   50.4140   -7.0120 C   0  0  0  0  0  0  0  0  0  0  0  0
   27.4170   49.9370   -3.2500 C   0  0  0  0  0  0  0  0  0  0  0  0
   27.3650   50.2370   -5.6410 C   0  0  0  0  0  0  0  0  0  0  0  0
   33.1970   47.0850   -4.7800 C   0  0  0  0  0  0  0  0  0  0  0  0
   33.2000   47.8710   -2.4760 C   0  0  0  0  0  0  0  0  0  0  0  0
   29.3860   46.9590   -4.9160 C   0  0  0  0  0  0  0  0  0  0  0  0
   34.0910   53.4310   -5.5220 C   0  0  0  0  0  0  0  0  0  0  0  0
   29.1190   49.7130   -8.0930 N   0  0  0  0  0  0  0  0  0  0  0  0
   30.6470   51.5890   -7.2650 S   0  0  0  0  0  0  0  0  0  0  0  0
   26.6940   50.0840   -4.4270 C   0  0  0  0  0  0  0  0  0  0  0  0
   34.4420   46.4920   -4.5730 C   0  0  0  0  0  0  0  0  0  0  0  0
   34.4450   47.2730   -2.2800 C   0  0  0  0  0  0  0  0  0  0  0  0
   29.0970   45.4740   -4.8410 C   0  0  0  0  0  0  0  0  0  0  0  0
   30.7150   51.0550   -8.8920 C   0  0  0  0  0  0  0  0  0  0  0  0
   29.8760   50.0850   -9.1870 N   0  0  0  0  0  0  0  0  0  0  0  0
   35.0640   46.5860   -3.3250 C   0  0  0  0  0  0  0  0  0  0  0  0
   29.3140   44.8280   -6.0130 O   0  0  0  0  0  0  0  0  0  0  0  0
   28.7050   44.8920   -3.8390 O   0  0  0  0  0  0  0  0  0  0  0  0
  1  2  2  0
  2  3  2  0
  2  4  1  0
  2  5  1  0
  4  6  2  0
  4  7  1  0
  5  8  2  0
  5  9  1  0
  3 10  1  0
  3 11  1  0
  6 12  1  0
  7 13  2  0
  9 14  1  0
  8 15  1  0
  9 16  2  0
 10 17  2  0
 10 18  1  0
 11 19  1  0
 12 20  2  0
 13 20  1  0
 14 21  2  0
 14 22  1  0
 15 23  2  0
 16 23  1  0
 17 24  1  0
 18 25  2  0
 19 26  1  0
 22 27  1  0
 21 28  1  0
 27 28  2  0
 24 29  2  0
 25 29  1  0
 26 30  1  0
 26 31  2  0
M  END
