mac-x0360-mac-x0361
     RDKit          3D

 20 21  0  0  0  0  0  0  0  0999 V2000
   32.6510   55.4710   -7.5030 Cl  0  0  0  0  0  0  0  0  0  0  0  0
   32.6580   53.8550   -6.9120 C   0  0  0  0  0  0  0  0  0  0  0  0
   33.8490   53.2900   -6.4570 C   0  0  0  0  0  0  0  0  0  0  0  0
   31.4720   53.1280   -6.8950 C   0  0  0  0  0  0  0  0  0  0  0  0
   31.4920   51.8200   -6.4100 C   0  0  0  0  0  0  0  0  0  0  0  0
   33.8510   51.9800   -5.9780 C   0  0  0  0  0  0  0  0  0  0  0  0
   35.3220   51.2860   -5.4170 Cl  0  0  0  0  0  0  0  0  0  0  0  0
   29.9900   50.8890   -6.3690 S   0  0  0  0  0  0  0  0  0  0  0  0
   32.6760   51.2350   -5.9510 C   0  0  0  0  0  0  0  0  0  0  0  0
   30.3690   49.5460   -6.7560 O   0  0  0  0  0  0  0  0  0  0  0  0
   28.9180   51.5700   -7.0610 O   0  0  0  0  0  0  0  0  0  0  0  0
   29.5710   50.7790   -4.6660 C   0  0  0  0  0  0  0  0  0  0  0  0
   29.1810   51.8770   -3.8960 C   0  0  0  0  0  0  0  0  0  0  0  0
   29.6620   49.5020   -4.0970 C   0  0  0  0  0  0  0  0  0  0  0  0
   29.0590   53.2570   -4.4260 C   0  0  0  0  0  0  0  0  0  0  0  0
   29.3670   49.3130   -2.7530 C   0  0  0  0  0  0  0  0  0  0  0  0
   28.8850   51.6730   -2.5390 C   0  0  0  0  0  0  0  0  0  0  0  0
   28.3140   53.4240   -5.5600 N   0  0  0  0  0  0  0  0  0  0  0  0
   29.5940   54.2020   -3.8690 O   0  0  0  0  0  0  0  0  0  0  0  0
   28.9800   50.3980   -1.9730 C   0  0  0  0  0  0  0  0  0  0  0  0
  1  2  1  0
  2  3  2  0
  2  4  1  0
  4  5  2  0
  3  6  1  0
  6  7  1  0
  8  5  1  0
  5  9  1  0
  6  9  2  0
  8 10  2  0
  8 11  2  0
  8 12  1  0
 12 13  2  0
 12 14  1  0
 13 15  1  0
 14 16  2  0
 13 17  1  0
 15 18  1  0
 15 19  2  0
 16 20  1  0
 17 20  2  0
M  END
