mac-x0373-mac-x0341
     RDKit          3D

 22 24  0  0  0  0  0  0  0  0999 V2000
   31.2470   46.6820   -6.9660 O   0  0  0  0  0  0  0  0  0  0  0  0
   30.2670   46.6240   -6.0250 C   0  0  0  0  0  0  0  0  0  0  0  0
   29.3020   45.8910   -6.1830 O   0  0  0  0  0  0  0  0  0  0  0  0
   30.5140   47.5220   -4.8050 C   0  0  1  0  0  0  0  0  0  0  0  0
   31.9650   47.5830   -4.3100 C   0  0  0  0  0  0  0  0  0  0  0  0
   30.0260   48.9720   -4.8720 C   0  0  0  0  0  0  0  0  0  0  0  0
   32.6000   46.5420   -3.6140 C   0  0  0  0  0  0  0  0  0  0  0  0
   32.7120   48.7560   -4.5630 C   0  0  0  0  0  0  0  0  0  0  0  0
   29.9280   49.6190   -3.6450 C   0  0  0  0  0  0  0  0  0  0  0  0
   29.6920   49.6900   -6.0740 C   0  0  0  0  0  0  0  0  0  0  0  0
   33.9290   46.6660   -3.1890 C   0  0  0  0  0  0  0  0  0  0  0  0
   34.0350   48.8780   -4.1390 C   0  0  0  0  0  0  0  0  0  0  0  0
   29.5410   50.9300   -3.5720 C   0  0  0  0  0  0  0  0  0  0  0  0
   29.2890   51.0570   -5.9970 C   0  0  0  0  0  0  0  0  0  0  0  0
   34.6440   47.8340   -3.4520 C   0  0  0  0  0  0  0  0  0  0  0  0
   29.2440   51.6200   -4.7270 C   0  0  0  0  0  0  0  0  0  0  0  0
   28.9580   51.8510   -7.1470 N   0  0  0  0  0  0  0  0  0  0  0  0
   28.6680   53.1250   -6.9580 C   0  0  0  0  0  0  0  0  0  0  0  0
   28.8850   53.0130   -4.5840 C   0  0  0  0  0  0  0  0  0  0  0  0
   28.3510   53.9570   -7.9850 N   0  0  0  0  0  0  0  0  0  0  0  0
   28.8330   53.5160   -3.4780 O   0  0  0  0  0  0  0  0  0  0  0  0
   28.6560   53.7040   -5.7320 N   0  0  0  0  0  0  0  0  0  0  0  0
  1  2  1  0
  2  3  2  0
  4  2  1  6
  4  5  1  0
  4  6  1  0
  5  7  2  0
  5  8  1  0
  6  9  2  0
  6 10  1  0
  7 11  1  0
  8 12  2  0
  9 13  1  0
 10 14  2  0
 11 15  2  0
 12 15  1  0
 13 16  2  0
 14 16  1  0
 14 17  1  0
 17 18  2  0
 16 19  1  0
 18 20  1  0
 19 21  2  0
 18 22  1  0
 19 22  1  0
M  END
