mac-x0138-mac-x0319
     RDKit          3D

 25 27  0  0  0  0  0  0  0  0999 V2000
   30.0610   47.7230   -3.5910 C   0  0  0  0  0  0  0  0  0  0  0  0
   29.6640   48.8990   -4.3060 N   0  0  0  0  0  0  0  0  0  0  0  0
   29.3490   50.1070   -3.7570 C   0  0  0  0  0  0  0  0  0  0  0  0
   29.5360   49.0010   -5.6530 C   0  0  0  0  0  0  0  0  0  0  0  0
   29.0210   50.9870   -4.6820 N   0  0  0  0  0  0  0  0  0  0  0  0
   29.1360   50.3000   -5.8750 C   0  0  0  0  0  0  0  0  0  0  0  0
   29.7490   48.0570   -6.5700 N   0  0  0  0  0  0  0  0  0  0  0  0
   28.9330   50.6580   -7.2110 C   0  0  0  0  0  0  0  0  0  0  0  0
   29.5380   48.4820   -7.8190 C   0  0  0  0  0  0  0  0  0  0  0  0
   28.5270   51.9330   -7.5980 N   0  0  0  0  0  0  0  0  0  0  0  0
   29.7720   47.5070   -8.7790 N   0  0  0  0  0  0  0  0  0  0  0  0
   29.1420   49.7280   -8.1750 N   0  0  0  0  0  0  0  0  0  0  0  0
   31.1380   46.9750   -8.7760 C   0  0  0  0  0  0  0  0  0  0  0  0
   31.2240   45.4560   -8.5120 C   0  0  0  0  0  0  0  0  0  0  0  0
   31.5300   45.1710   -7.1010 N   0  0  0  0  0  0  0  0  0  0  0  0
   32.7110   45.3270   -6.6160 C   0  0  0  0  0  0  0  0  0  0  0  0
   33.7800   45.7620   -7.3140 O   0  0  0  0  0  0  0  0  0  0  0  0
   33.0550   45.0320   -5.1750 C   0  0  0  0  0  0  0  0  0  0  0  0
   31.9170   45.0950   -4.1680 C   0  0  0  0  0  0  0  0  0  0  0  0
   30.7180   44.3750   -4.3140 C   0  0  0  0  0  0  0  0  0  0  0  0
   32.0760   45.9110   -3.0340 C   0  0  0  0  0  0  0  0  0  0  0  0
   29.7170   44.4820   -3.3440 C   0  0  0  0  0  0  0  0  0  0  0  0
   31.0660   46.0070   -2.0720 C   0  0  0  0  0  0  0  0  0  0  0  0
   28.5400   43.7970   -3.4530 O   0  0  0  0  0  0  0  0  0  0  0  0
   29.8850   45.2920   -2.2270 C   0  0  0  0  0  0  0  0  0  0  0  0
  1  2  1  0
  2  3  1  0
  2  4  1  0
  3  5  2  0
  4  6  2  0
  5  6  1  0
  4  7  1  0
  6  8  1  0
  7  9  2  0
  8 10  1  0
  9 11  1  0
  8 12  2  0
  9 12  1  0
 11 13  1  0
 13 14  1  0
 14 15  1  0
 15 16  2  3
 16 17  1  0
 16 18  1  0
 18 19  1  0
 19 20  2  0
 19 21  1  0
 20 22  1  0
 21 23  2  0
 22 24  1  0
 22 25  2  0
 23 25  1  0
M  END
