mac-x0333-mac-x0588
     RDKit          3D

 19 22  0  0  0  0  0  0  0  0999 V2000
   29.7920   48.0590   -3.8850 O   0  0  0  0  0  0  0  0  0  0  0  0
   29.1240   49.2660   -4.3990 C   0  0  2  0  0  0  0  0  0  0  0  0
   29.2290   49.4260   -5.9940 C   0  0  2  0  0  0  0  0  0  0  0  0
   28.9620   46.9490   -3.4760 C   0  0  2  0  0  0  0  0  0  0  0  0
   29.7410   50.4330   -3.5530 C   0  0  0  0  0  0  0  0  0  0  0  0
   28.4670   47.1160   -2.1430 O   0  0  0  0  0  0  0  0  0  0  0  0
   29.7350   45.6300   -3.4140 C   0  0  0  0  0  0  0  0  0  0  0  0
   29.9800   51.7420   -4.3090 C   0  0  1  0  0  0  0  0  0  0  0  0
   29.3570   50.9090   -6.5030 C   0  0  0  0  0  0  0  0  0  0  0  0
   28.0940   48.8510   -6.7770 N   0  0  0  0  0  0  0  0  0  0  0  0
   30.3890   48.5360   -6.4990 C   0  0  0  0  0  0  0  0  0  0  0  0
   28.8610   44.7960   -2.5020 C   0  0  0  0  0  0  0  0  0  0  0  0
   28.3440   45.8300   -1.5220 C   0  0  0  0  0  0  0  0  0  0  0  0
   29.0240   51.9200   -5.4320 C   0  0  2  0  0  0  0  0  0  0  0  0
   29.7920   52.9430   -3.5640 O   0  0  0  0  0  0  0  0  0  0  0  0
   29.7810   47.3540   -7.1280 N   0  0  0  0  0  0  0  0  0  0  0  0
   28.5910   47.8860   -7.7300 C   0  0  0  0  0  0  0  0  0  0  0  0
   29.2060   53.2870   -5.8080 O   0  0  0  0  0  0  0  0  0  0  0  0
   29.5590   53.9320   -4.5760 C   0  0  0  0  0  0  0  0  0  0  0  0
  2  1  1  1
  2  3  1  0
  4  1  1  1
  2  5  1  0
  4  6  1  0
  4  7  1  0
  8  5  1  1
  3  9  1  1
  3 10  1  0
  3 11  1  0
  7 12  1  0
  6 13  1  0
 12 13  1  0
  8 14  1  0
 14  9  1  6
  8 15  1  0
 11 16  1  0
 10 17  1  0
 16 17  1  0
 14 18  1  0
 15 19  1  0
 18 19  1  0
M  END
