mac-x0404-mac-x0392
     RDKit          3D

 24 26  0  0  0  0  0  0  0  0999 V2000
   31.5810   46.3730   -6.2450 O   0  0  0  0  0  0  0  0  0  0  0  0
   32.6420   45.5570   -5.9940 C   0  0  0  0  0  0  0  0  0  0  0  0
   33.6220   45.3570   -6.6980 O   0  0  0  0  0  0  0  0  0  0  0  0
   31.7710   47.7070   -6.1430 C   0  0  0  0  0  0  0  0  0  0  0  0
   32.4590   44.8740   -4.6430 C   0  0  0  0  0  0  0  0  0  0  0  0
   32.8220   48.3190   -6.0710 O   0  0  0  0  0  0  0  0  0  0  0  0
   30.4520   48.4060   -6.1340 C   0  0  0  0  0  0  0  0  0  0  0  0
   31.1110   44.9910   -4.1910 O   0  0  0  0  0  0  0  0  0  0  0  0
   29.5100   48.3460   -7.1750 C   0  0  0  0  0  0  0  0  0  0  0  0
   30.1780   49.1650   -4.9840 C   0  0  0  0  0  0  0  0  0  0  0  0
   29.6800   47.6180   -8.3660 N   0  0  0  0  0  0  0  0  0  0  0  0
   30.8590   45.8600   -3.1520 C   0  0  0  0  0  0  0  0  0  0  0  0
   28.9770   49.8430   -4.9050 C   0  0  0  0  0  0  0  0  0  0  0  0
   28.3340   49.0760   -6.9740 C   0  0  0  0  0  0  0  0  0  0  0  0
   29.6230   45.6890   -2.4760 C   0  0  0  0  0  0  0  0  0  0  0  0
   31.7420   46.8700   -2.7530 C   0  0  0  0  0  0  0  0  0  0  0  0
   28.0450   49.8170   -5.8770 N   0  0  0  0  0  0  0  0  0  0  0  0
   29.3030   46.5540   -1.3980 C   0  0  0  0  0  0  0  0  0  0  0  0
   31.4140   47.7140   -1.6900 C   0  0  0  0  0  0  0  0  0  0  0  0
   28.6830   44.6940   -2.8220 C   0  0  0  0  0  0  0  0  0  0  0  0
   30.2060   47.5560   -1.0200 C   0  0  0  0  0  0  0  0  0  0  0  0
   28.0860   46.4010   -0.7160 C   0  0  0  0  0  0  0  0  0  0  0  0
   27.4750   44.5550   -2.1330 C   0  0  0  0  0  0  0  0  0  0  0  0
   27.1780   45.4090   -1.0810 C   0  0  0  0  0  0  0  0  0  0  0  0
  1  2  1  0
  2  3  2  0
  1  4  1  0
  2  5  1  0
  4  6  2  0
  4  7  1  0
  5  8  1  0
  7  9  2  0
  7 10  1  0
  9 11  1  0
  8 12  1  0
 10 13  2  0
  9 14  1  0
 12 15  1  0
 12 16  2  0
 13 17  1  0
 14 17  2  0
 15 18  2  0
 16 19  1  0
 15 20  1  0
 18 21  1  0
 19 21  2  0
 18 22  1  0
 20 23  2  0
 22 24  2  0
 23 24  1  0
M  END
