mac-x0190-mac-x0138
     RDKit          3D

 23 26  0  0  0  0  0  0  0  0999 V2000
   29.0200   57.5340   -5.9470 O   0  0  0  0  0  0  0  0  0  0  0  0
   30.1330   56.6640   -5.7750 C   0  0  0  0  0  0  0  0  0  0  0  0
   29.6150   55.3790   -5.2470 C   0  0  0  0  0  0  0  0  0  0  0  0
   28.8890   55.3140   -4.0820 N   0  0  0  0  0  0  0  0  0  0  0  0
   29.7590   54.1830   -5.7740 N   0  0  0  0  0  0  0  0  0  0  0  0
   28.5510   54.0040   -3.8500 C   0  0  0  0  0  0  0  0  0  0  0  0
   29.1060   53.3120   -4.9220 C   0  0  0  0  0  0  0  0  0  0  0  0
   27.8330   53.3880   -2.8290 C   0  0  0  0  0  0  0  0  0  0  0  0
   28.9590   51.9010   -5.0260 C   0  0  0  0  0  0  0  0  0  0  0  0
   29.5280   51.2280   -6.1150 N   0  0  0  0  0  0  0  0  0  0  0  0
   27.6840   52.0040   -2.9260 C   0  0  0  0  0  0  0  0  0  0  0  0
   28.2330   51.2810   -3.9940 C   0  0  0  0  0  0  0  0  0  0  0  0
   29.5280   49.8900   -6.5400 C   0  0  0  0  0  0  0  0  0  0  0  0
   30.0850   48.8810   -5.7300 C   0  0  0  0  0  0  0  0  0  0  0  0
   29.0010   49.4980   -7.7390 N   0  0  0  0  0  0  0  0  0  0  0  0
   30.6900   48.9080   -4.4860 N   0  0  0  0  0  0  0  0  0  0  0  0
   30.0450   47.5880   -6.2250 C   0  0  0  0  0  0  0  0  0  0  0  0
   29.0300   48.2040   -8.0990 C   0  0  0  0  0  0  0  0  0  0  0  0
   28.4780   47.8960   -9.3280 N   0  0  0  0  0  0  0  0  0  0  0  0
   30.6370   46.8250   -5.2600 N   0  0  0  0  0  0  0  0  0  0  0  0
   31.0080   47.6540   -4.2380 C   0  0  0  0  0  0  0  0  0  0  0  0
   29.5360   47.1810   -7.3960 N   0  0  0  0  0  0  0  0  0  0  0  0
   30.8340   45.4000   -5.3120 C   0  0  0  0  0  0  0  0  0  0  0  0
  1  2  1  0
  2  3  1  0
  3  4  1  0
  3  5  2  0
  4  6  1  0
  5  7  1  0
  6  7  2  0
  6  8  1  0
  7  9  1  0
  9 10  1  0
  8 11  2  0
  9 12  2  0
 11 12  1  0
 10 13  1  0
 13 14  1  0
 13 15  2  0
 14 16  1  0
 14 17  2  0
 15 18  1  0
 18 19  1  0
 17 20  1  0
 16 21  2  0
 20 21  1  0
 17 22  1  0
 18 22  2  0
 20 23  1  0
M  END
