mac-x0131-mac-x0509
     RDKit          3D

 30 34  0  0  0  0  0  0  0  0999 V2000
   31.1960   48.8760   -2.4690 C   0  0  0  0  0  0  0  0  0  0  0  0
   30.4900   48.8930   -3.7820 C   0  0  0  0  0  0  0  0  0  0  0  0
   29.8990   49.9630   -4.4550 C   0  0  0  0  0  0  0  0  0  0  0  0
   30.3180   47.7650   -4.5630 N   0  0  0  0  0  0  0  0  0  0  0  0
   29.8420   51.3750   -3.9920 C   0  0  0  0  0  0  0  0  0  0  0  0
   30.7770   46.4120   -4.2520 C   0  0  0  0  0  0  0  0  0  0  0  0
   29.3570   49.4490   -5.6800 C   0  0  0  0  0  0  0  0  0  0  0  0
   29.6340   48.0900   -5.7120 C   0  0  0  0  0  0  0  0  0  0  0  0
   28.6560   49.9680   -6.7850 C   0  0  0  0  0  0  0  0  0  0  0  0
   29.2960   47.2290   -6.6910 N   0  0  0  0  0  0  0  0  0  0  0  0
   32.2260   46.2590   -4.5420 C   0  0  0  0  0  0  0  0  0  0  0  0
   28.2930   51.3020   -6.9280 N   0  0  0  0  0  0  0  0  0  0  0  0
   28.2990   49.1410   -7.7860 N   0  0  0  0  0  0  0  0  0  0  0  0
   28.6330   47.8410   -7.6850 C   0  0  0  0  0  0  0  0  0  0  0  0
   33.1200   45.2180   -4.3840 C   0  0  0  0  0  0  0  0  0  0  0  0
   32.8650   47.3380   -5.0780 O   0  0  0  0  0  0  0  0  0  0  0  0
   34.1700   46.9910   -5.2650 C   0  0  0  0  0  0  0  0  0  0  0  0
   34.3730   45.6900   -4.8510 C   0  0  0  0  0  0  0  0  0  0  0  0
   35.0420   48.0490   -5.8510 C   0  0  0  0  0  0  0  0  0  0  0  0
   36.5190   47.6540   -5.9020 C   0  0  0  0  0  0  0  0  0  0  0  0
   37.0180   47.4590   -4.5410 N   0  0  0  0  0  0  0  0  0  0  0  0
   37.4620   46.2990   -4.2200 C   0  0  0  0  0  0  0  0  0  0  0  0
   37.9840   46.0490   -2.7880 C   0  0  0  0  0  0  0  0  0  0  0  0
   37.5820   45.1240   -4.9360 N   0  0  0  0  0  0  0  0  0  0  0  0
   37.8970   44.5480   -2.7330 C   0  0  0  0  0  0  0  0  0  0  0  0
   37.6600   44.0640   -4.0320 C   0  0  0  0  0  0  0  0  0  0  0  0
   38.0160   43.6950   -1.6530 C   0  0  0  0  0  0  0  0  0  0  0  0
   37.5360   42.7120   -4.2750 C   0  0  0  0  0  0  0  0  0  0  0  0
   37.8920   42.3240   -1.8910 C   0  0  0  0  0  0  0  0  0  0  0  0
   37.6540   41.8370   -3.1900 C   0  0  0  0  0  0  0  0  0  0  0  0
  1  2  1  0
  2  3  2  0
  2  4  1  0
  3  5  1  0
  4  6  1  0
  3  7  1  0
  4  8  1  0
  7  8  2  0
  7  9  1  0
  8 10  1  0
  6 11  1  0
  9 12  1  0
  9 13  2  0
 10 14  2  0
 13 14  1  0
 11 15  2  0
 11 16  1  0
 16 17  1  0
 15 18  1  0
 17 18  2  0
 17 19  1  0
 19 20  1  0
 20 21  1  0
 21 22  2  3
 22 23  1  0
 22 24  1  0
 23 25  1  0
 24 26  1  0
 25 26  2  0
 25 27  1  0
 26 28  1  0
 27 29  2  0
 28 30  2  0
 29 30  1  0
M  END
