mac-x0303-mac-x0132
     RDKit          3D

 14 15  0  0  0  0  0  0  0  0999 V2000
   30.4640   56.1970   -6.7590 N   0  0  0  0  0  0  0  0  0  0  0  0
   29.1470   55.9170   -5.7390 S   0  0  0  0  0  0  0  0  0  0  0  0
   27.9330   56.0430   -6.5110 O   0  0  0  0  0  0  0  0  0  0  0  0
   29.3940   56.7060   -4.5550 O   0  0  0  0  0  0  0  0  0  0  0  0
   29.2330   54.2320   -5.2590 C   0  0  0  0  0  0  0  0  0  0  0  0
   29.5630   53.8230   -4.0370 N   0  0  0  0  0  0  0  0  0  0  0  0
   28.9720   53.1660   -6.0890 N   0  0  0  0  0  0  0  0  0  0  0  0
   28.5830   53.1510   -7.4630 N   0  0  0  0  0  0  0  0  0  0  0  0
   29.5100   52.4510   -4.1030 C   0  0  0  0  0  0  0  0  0  0  0  0
   29.1450   52.0180   -5.3700 C   0  0  0  0  0  0  0  0  0  0  0  0
   29.7650   51.5000   -3.1040 C   0  0  0  0  0  0  0  0  0  0  0  0
   29.0150   50.6660   -5.7110 C   0  0  0  0  0  0  0  0  0  0  0  0
   29.6410   50.1410   -3.4210 C   0  0  0  0  0  0  0  0  0  0  0  0
   29.2710   49.7340   -4.7040 C   0  0  0  0  0  0  0  0  0  0  0  0
  2  1  1  0
  2  3  2  0
  2  4  2  0
  2  5  1  0
  5  6  2  0
  5  7  1  0
  7  8  1  0
  6  9  1  0
  7 10  1  0
  9 10  2  0
  9 11  1  0
 10 12  1  0
 11 13  2  0
 12 14  2  0
 13 14  1  0
M  END
