mac-x0346-mac-x1493
     RDKit          3D

 18 19  0  0  0  0  0  0  0  0999 V2000
   29.3730   55.4100   -4.6460 O   0  0  0  0  0  0  0  0  0  0  0  0
   28.8950   54.6360   -3.5770 N   0  0  0  0  0  0  0  0  0  0  0  0
   29.1350   53.2930   -3.4450 C   0  0  0  0  0  0  0  0  0  0  0  0
   29.1400   52.8410   -2.2950 O   0  0  0  0  0  0  0  0  0  0  0  0
   29.4090   52.4260   -4.7150 C   0  0  1  0  0  0  0  0  0  0  0  0
   29.7210   50.9660   -4.3090 C   0  0  0  0  0  0  0  0  0  0  0  0
   28.1400   52.4960   -5.6740 C   0  0  2  0  0  0  0  0  0  0  0  0
   30.6000   53.0520   -5.4150 C   0  0  0  0  0  0  0  0  0  0  0  0
   30.3930   50.7580   -3.1000 O   0  0  0  0  0  0  0  0  0  0  0  0
   29.3690   49.9110   -5.0800 C   0  0  0  0  0  0  0  0  0  0  0  0
   28.0890   51.3350   -6.6410 C   0  0  0  0  0  0  0  0  0  0  0  0
   30.4630   54.0300   -6.3250 C   0  0  0  0  0  0  0  0  0  0  0  0
   28.0690   53.8230   -6.4100 C   0  0  0  0  0  0  0  0  0  0  0  0
   29.6740   48.4830   -4.7070 C   0  0  0  0  0  0  0  0  0  0  0  0
   28.6640   50.1540   -6.3390 C   0  0  0  0  0  0  0  0  0  0  0  0
   29.1670   54.5270   -6.7000 C   0  0  0  0  0  0  0  0  0  0  0  0
   29.5530   47.5860   -5.7030 O   0  0  0  0  0  0  0  0  0  0  0  0
   30.0170   48.1490   -3.5800 O   0  0  0  0  0  0  0  0  0  0  0  0
  1  2  1  0
  2  3  1  0
  3  4  2  0
  5  3  1  1
  5  6  1  0
  5  7  1  0
  5  8  1  0
  6  9  1  0
  6 10  2  0
  7 11  1  6
  8 12  2  0
  7 13  1  0
 10 14  1  0
 10 15  1  0
 11 15  2  0
 12 16  1  0
 13 16  2  0
 14 17  1  0
 14 18  2  0
M  END
