mac-x0337-mac-x0271
     RDKit          3D

 22 24  0  0  0  0  0  0  0  0999 V2000
   35.2610   52.7390   -5.5630 C   0  0  0  0  0  0  0  0  0  0  0  0
   34.0730   51.8350   -5.4160 C   0  0  0  0  0  0  0  0  0  0  0  0
   32.8000   52.2650   -5.8180 C   0  0  0  0  0  0  0  0  0  0  0  0
   34.2260   50.5510   -4.8740 C   0  0  0  0  0  0  0  0  0  0  0  0
   33.1260   49.7060   -4.7340 C   0  0  0  0  0  0  0  0  0  0  0  0
   31.6950   51.4240   -5.6810 C   0  0  0  0  0  0  0  0  0  0  0  0
   31.8650   50.1460   -5.1380 C   0  0  0  0  0  0  0  0  0  0  0  0
   30.4830   49.0640   -4.9520 S   0  0  2  0  0  0  0  0  0  0  0  0
   29.4090   49.7910   -4.1490 N   0  0  0  0  0  0  0  0  0  0  0  0
   30.9520   47.7120   -4.7710 O   0  0  0  0  0  0  0  0  0  0  0  0
   29.6780   48.9420   -6.4220 N   0  0  0  0  0  0  0  0  0  0  0  0
   29.0730   51.1370   -4.5860 C   0  0  0  0  0  0  0  0  0  0  0  0
   29.5310   52.2460   -3.8800 C   0  0  0  0  0  0  0  0  0  0  0  0
   28.2890   51.2970   -5.7260 C   0  0  0  0  0  0  0  0  0  0  0  0
   29.1870   53.5120   -4.3440 C   0  0  0  0  0  0  0  0  0  0  0  0
   27.9510   52.5710   -6.1800 C   0  0  0  0  0  0  0  0  0  0  0  0
   28.4050   53.6930   -5.4820 C   0  0  0  0  0  0  0  0  0  0  0  0
   29.6630   54.6220   -3.6140 O   0  0  0  0  0  0  0  0  0  0  0  0
   28.0820   55.0390   -5.9150 C   0  0  0  0  0  0  0  0  0  0  0  0
   29.4700   55.9150   -4.0780 C   0  0  0  0  0  0  0  0  0  0  0  0
   29.9990   56.8880   -3.5500 O   0  0  0  0  0  0  0  0  0  0  0  0
   28.5910   56.0800   -5.2450 C   0  0  0  0  0  0  0  0  0  0  0  0
  1  2  1  0
  2  3  2  0
  2  4  1  0
  4  5  2  0
  3  6  1  0
  5  7  1  0
  6  7  2  0
  7  8  1  0
  8  9  2  0
  8 10  2  0
  8 11  1  6
  9 12  1  0
 12 13  2  0
 12 14  1  0
 13 15  1  0
 14 16  2  0
 15 17  2  0
 16 17  1  0
 15 18  1  0
 17 19  1  0
 18 20  1  0
 20 21  2  0
 19 22  2  0
 20 22  1  0
M  END
