mac-x0303-mac-x0255
     RDKit          3D

 28 31  0  0  0  0  0  0  0  0999 V2000
   30.0170   55.9000   -6.7610 N   0  0  0  0  0  0  0  0  0  0  0  0
   28.7050   55.4330   -5.7910 S   0  0  0  0  0  0  0  0  0  0  0  0
   27.5820   55.3640   -6.6940 O   0  0  0  0  0  0  0  0  0  0  0  0
   28.7640   56.3060   -4.6430 O   0  0  0  0  0  0  0  0  0  0  0  0
   29.0460   53.7940   -5.2370 C   0  0  0  0  0  0  0  0  0  0  0  0
   29.9190   53.5510   -4.2060 N   0  0  0  0  0  0  0  0  0  0  0  0
   28.5420   52.6600   -5.7010 N   0  0  0  0  0  0  0  0  0  0  0  0
   29.9840   52.2000   -3.9990 C   0  0  0  0  0  0  0  0  0  0  0  0
   29.1140   51.6670   -4.9420 C   0  0  0  0  0  0  0  0  0  0  0  0
   30.7030   51.4220   -3.0890 C   0  0  0  0  0  0  0  0  0  0  0  0
   28.9410   50.2760   -5.0030 C   0  0  0  0  0  0  0  0  0  0  0  0
   30.5260   50.0300   -3.1560 C   0  0  0  0  0  0  0  0  0  0  0  0
   29.6530   49.4700   -4.1040 C   0  0  0  0  0  0  0  0  0  0  0  0
   31.2840   49.1380   -2.1960 C   0  0  0  0  0  0  0  0  0  0  0  0
   30.3740   48.2820   -1.3060 C   0  0  0  0  0  0  0  0  0  0  0  0
   29.5540   47.2760   -2.0810 C   0  0  0  0  0  0  0  0  0  0  0  0
   30.0930   46.4110   -3.0700 C   0  0  0  0  0  0  0  0  0  0  0  0
   28.1720   47.1780   -1.8210 C   0  0  0  0  0  0  0  0  0  0  0  0
   29.2970   45.4940   -3.7640 C   0  0  0  0  0  0  0  0  0  0  0  0
   31.7370   46.3030   -3.6010 S   0  0  0  0  0  0  0  0  0  0  0  0
   27.3660   46.2760   -2.4980 C   0  0  0  0  0  0  0  0  0  0  0  0
   31.4000   45.0690   -4.7270 C   0  0  0  0  0  0  0  0  0  0  0  0
   30.0640   44.7340   -4.7100 C   0  0  0  0  0  0  0  0  0  0  0  0
   27.9160   45.4360   -3.4640 C   0  0  0  0  0  0  0  0  0  0  0  0
   32.4950   44.4930   -5.5750 C   0  0  0  0  0  0  0  0  0  0  0  0
   32.7500   45.3130   -6.8280 C   0  0  0  0  0  0  0  0  0  0  0  0
   31.9050   44.9870   -7.8420 O   0  0  0  0  0  0  0  0  0  0  0  0
   33.6030   46.1760   -6.9690 O   0  0  0  0  0  0  0  0  0  0  0  0
  2  1  1  0
  2  3  2  0
  2  4  2  0
  2  5  1  0
  5  6  1  0
  5  7  2  0
  6  8  1  0
  7  9  1  0
  8  9  2  0
  8 10  1  0
  9 11  1  0
 10 12  2  0
 11 13  2  0
 12 13  1  0
 12 14  1  0
 14 15  1  0
 15 16  1  0
 16 17  1  0
 16 18  2  0
 17 19  2  0
 17 20  1  0
 18 21  1  0
 20 22  1  0
 19 23  1  0
 22 23  2  0
 19 24  1  0
 21 24  2  0
 22 25  1  0
 25 26  1  0
 26 27  1  0
 26 28  2  0
M  END
