mac-x0404-mac-x0361
     RDKit          3D

 25 27  0  0  0  0  0  0  0  0999 V2000
   31.8640   44.4720   -7.0740 O   0  0  0  0  0  0  0  0  0  0  0  0
   32.8470   44.7660   -6.1880 C   0  0  0  0  0  0  0  0  0  0  0  0
   33.9500   45.1610   -6.5380 O   0  0  0  0  0  0  0  0  0  0  0  0
   32.4400   44.5570   -4.7350 C   0  0  0  0  0  0  0  0  0  0  0  0
   31.0520   44.8840   -4.5840 O   0  0  0  0  0  0  0  0  0  0  0  0
   30.7180   45.8220   -3.6300 C   0  0  0  0  0  0  0  0  0  0  0  0
   29.6630   45.4680   -2.7410 C   0  0  0  0  0  0  0  0  0  0  0  0
   31.3510   47.0620   -3.5040 C   0  0  0  0  0  0  0  0  0  0  0  0
   29.2710   46.3900   -1.7360 C   0  0  0  0  0  0  0  0  0  0  0  0
   30.9480   47.9520   -2.5090 C   0  0  0  0  0  0  0  0  0  0  0  0
   28.9770   44.2340   -2.8050 C   0  0  0  0  0  0  0  0  0  0  0  0
   31.5350   49.1830   -2.3450 O   0  0  0  0  0  0  0  0  0  0  0  0
   29.9200   47.6240   -1.6330 C   0  0  0  0  0  0  0  0  0  0  0  0
   28.2320   46.0630   -0.8490 C   0  0  0  0  0  0  0  0  0  0  0  0
   27.9470   43.9250   -1.9150 C   0  0  0  0  0  0  0  0  0  0  0  0
   27.5730   44.8370   -0.9380 C   0  0  0  0  0  0  0  0  0  0  0  0
   30.9250   50.2380   -2.9820 C   0  0  0  0  0  0  0  0  0  0  0  0
   30.6400   50.0770   -4.3370 C   0  0  0  0  0  0  0  0  0  0  0  0
   30.5920   51.4250   -2.3260 C   0  0  0  0  0  0  0  0  0  0  0  0
   30.0200   51.1090   -5.0440 C   0  0  0  0  0  0  0  0  0  0  0  0
   29.9700   52.4590   -3.0320 C   0  0  0  0  0  0  0  0  0  0  0  0
   29.6810   52.3050   -4.3960 C   0  0  0  0  0  0  0  0  0  0  0  0
   29.0230   53.3760   -5.1900 C   0  0  0  0  0  0  0  0  0  0  0  0
   28.3590   53.0090   -6.3290 N   0  0  0  0  0  0  0  0  0  0  0  0
   29.0660   54.5510   -4.8450 O   0  0  0  0  0  0  0  0  0  0  0  0
  1  2  1  0
  2  3  2  0
  2  4  1  0
  4  5  1  0
  5  6  1  0
  6  7  2  0
  6  8  1  0
  7  9  1  0
  8 10  2  0
  7 11  1  0
 10 12  1  0
  9 13  2  0
 10 13  1  0
  9 14  1  0
 11 15  2  0
 14 16  2  0
 15 16  1  0
 12 17  1  0
 17 18  2  0
 17 19  1  0
 18 20  1  0
 19 21  2  0
 20 22  2  0
 21 22  1  0
 22 23  1  0
 23 24  1  0
 23 25  2  0
M  END
