mac-x0576-mac-x0337
     RDKit          3D

 23 25  0  0  0  0  0  0  0  0999 V2000
   29.3730   47.9130   -9.3170 N   0  0  0  0  0  0  0  0  0  0  0  0
   28.7570   48.3880   -8.1170 C   0  0  2  0  0  0  0  0  0  0  0  0
   28.4410   49.7930   -8.2840 N   0  0  0  0  0  0  0  0  0  0  0  0
   29.5530   48.1270   -6.9220 N   0  0  0  0  0  0  0  0  0  0  0  0
   29.7880   49.0880   -5.9090 C   0  0  0  0  0  0  0  0  0  0  0  0
   29.4440   50.6820   -7.7760 C   0  0  2  0  0  0  0  0  0  0  0  0
   30.2090   48.8660   -4.7450 N   0  0  0  0  0  0  0  0  0  0  0  0
   29.5080   50.5190   -6.2680 C   0  0  1  0  0  0  0  0  0  0  0  0
   29.0330   52.0460   -8.0400 N   0  0  0  0  0  0  0  0  0  0  0  0
   30.6060   49.5110   -3.3680 S   0  0  0  0  0  0  0  0  0  0  0  0
   28.3490   52.8160   -7.0590 C   0  0  0  0  0  0  0  0  0  0  0  0
   28.1630   50.8320   -5.7800 N   0  0  0  0  0  0  0  0  0  0  0  0
   28.0530   54.0410   -7.2520 O   0  0  0  0  0  0  0  0  0  0  0  0
   30.9090   48.1280   -2.7930 O   0  0  0  0  0  0  0  0  0  0  0  0
   29.2790   50.3970   -3.3260 N   0  0  0  0  0  0  0  0  0  0  0  0
   27.9270   52.2550   -5.7410 C   0  0  0  0  0  0  0  0  0  0  0  0
   32.0250   50.3450   -4.2750 C   0  0  0  0  0  0  0  0  0  0  0  0
   32.9150   49.5720   -4.9080 C   0  0  0  0  0  0  0  0  0  0  0  0
   32.0620   51.7020   -4.2300 C   0  0  0  0  0  0  0  0  0  0  0  0
   33.9590   50.2280   -5.5700 C   0  0  0  0  0  0  0  0  0  0  0  0
   33.0950   52.3370   -4.8860 C   0  0  0  0  0  0  0  0  0  0  0  0
   34.0540   51.6250   -5.5630 C   0  0  0  0  0  0  0  0  0  0  0  0
   35.1730   52.3030   -6.2740 C   0  0  0  0  0  0  0  0  0  0  0  0
  2  1  1  6
  2  3  1  0
  2  4  1  0
  4  5  1  0
  6  3  1  1
  5  7  2  3
  5  8  1  0
  6  8  1  0
  6  9  1  0
  7 10  1  0
  9 11  1  0
  8 12  1  1
 11 13  2  0
 10 14  2  0
 10 15  1  0
 11 16  1  0
 12 16  1  0
 10 17  1  0
 17 18  2  0
 17 19  1  0
 18 20  1  0
 19 21  2  0
 20 22  2  0
 21 22  1  0
 22 23  1  0
M  END
