mac-x0231
     RDKit          3D

 15 16  0  0  0  0  0  0  0  0999 V2000
   34.1040   45.5830   -6.5770 O   0  0  0  0  0  0  0  0  0  0  0  0
   32.9840   45.1800   -6.2840 C   0  0  0  0  0  0  0  0  0  0  0  0
   31.9490   45.5020   -6.9050 O   0  0  0  0  0  0  0  0  0  0  0  0
   32.9560   44.2510   -5.0930 C   0  0  0  0  0  0  0  0  0  0  0  0
   31.6560   44.4390   -4.3680 C   0  0  0  0  0  0  0  0  0  0  0  0
   30.6100   43.5060   -4.5260 N   0  0  0  0  0  0  0  0  0  0  0  0
   29.4230   43.7680   -3.8380 N   0  0  0  0  0  0  0  0  0  0  0  0
   29.2030   44.8990   -2.9560 C   0  0  0  0  0  0  0  0  0  0  0  0
   28.2010   44.9900   -2.4030 O   0  0  0  0  0  0  0  0  0  0  0  0
   30.3550   45.8860   -2.7570 C   0  0  0  0  0  0  0  0  0  0  0  0
   30.2570   47.0210   -1.9510 C   0  0  0  0  0  0  0  0  0  0  0  0
   31.3370   47.8900   -1.8200 C   0  0  0  0  0  0  0  0  0  0  0  0
   32.5130   47.6530   -2.5230 C   0  0  0  0  0  0  0  0  0  0  0  0
   32.5850   46.5240   -3.3350 C   0  0  0  0  0  0  0  0  0  0  0  0
   31.4990   45.6460   -3.4470 C   0  0  0  0  0  0  0  0  0  0  0  0
  1  2  1  0
  2  3  2  0
  2  4  1  0
  4  5  1  0
  5  6  2  0
  6  7  1  0
  7  8  1  0
  8  9  2  0
  8 10  1  0
 10 11  1  0
 11 12  2  0
 12 13  1  0
 13 14  2  0
  5 15  1  0
 10 15  2  0
 14 15  1  0
M  END
