mac-x0138-mac-x0337
     RDKit          3D

 22 24  0  0  0  0  0  0  0  0999 V2000
   30.1900   46.7130   -4.1240 C   0  0  0  0  0  0  0  0  0  0  0  0
   29.2870   47.6910   -4.7340 N   0  0  0  0  0  0  0  0  0  0  0  0
   29.3120   48.8460   -3.9000 C   0  0  0  0  0  0  0  0  0  0  0  0
   29.9000   48.0680   -5.9910 C   0  0  2  0  0  0  0  0  0  0  0  0
   29.4190   50.0030   -4.7770 N   0  0  0  0  0  0  0  0  0  0  0  0
   29.5170   49.5080   -6.1140 C   0  0  2  0  0  0  0  0  0  0  0  0
   29.3880   47.2810   -7.0500 N   0  0  0  0  0  0  0  0  0  0  0  0
   28.3800   49.7800   -7.0040 C   0  0  1  0  0  0  0  0  0  0  0  0
   29.2540   47.9520   -8.2780 C   0  0  1  0  0  0  0  0  0  0  0  0
   29.9880   51.2740   -4.4430 S   0  0  0  0  0  0  0  0  0  0  0  0
   28.3260   51.2260   -7.2890 N   0  0  0  0  0  0  0  0  0  0  0  0
   28.6970   47.0310   -9.2760 N   0  0  0  0  0  0  0  0  0  0  0  0
   28.4400   49.1240   -8.2740 N   0  0  0  0  0  0  0  0  0  0  0  0
   29.7660   51.8090   -5.9080 O   0  0  0  0  0  0  0  0  0  0  0  0
   29.2060   52.6990   -3.9140 N   0  0  0  0  0  0  0  0  0  0  0  0
   31.7360   51.5930   -4.8160 C   0  0  0  0  0  0  0  0  0  0  0  0
   32.5930   50.5330   -4.7770 C   0  0  0  0  0  0  0  0  0  0  0  0
   32.1630   52.8240   -5.1200 C   0  0  0  0  0  0  0  0  0  0  0  0
   33.9110   50.6930   -5.0450 C   0  0  0  0  0  0  0  0  0  0  0  0
   33.4930   53.0200   -5.3980 C   0  0  0  0  0  0  0  0  0  0  0  0
   34.3770   51.9510   -5.3600 C   0  0  0  0  0  0  0  0  0  0  0  0
   35.8240   52.1060   -5.6480 C   0  0  0  0  0  0  0  0  0  0  0  0
  1  2  1  0
  2  3  1  0
  2  4  1  0
  3  5  1  0
  4  6  1  0
  6  5  1  1
  4  7  1  6
  6  8  1  0
  7  9  1  0
  5 10  1  0
  8 11  1  6
  9 12  1  6
  8 13  1  0
  9 13  1  0
 10 14  2  0
 10 15  1  0
 10 16  1  0
 16 17  2  0
 16 18  1  0
 17 19  1  0
 18 20  2  0
 19 21  2  0
 20 21  1  0
 21 22  1  0
M  END
