mac-x0380-mac-x0415
     RDKit          3D

 29 32  0  0  0  0  0  0  0  0999 V2000
   29.1020   48.2850   -5.0770 O   0  0  0  0  0  0  0  0  0  0  0  0
   29.2690   49.2230   -4.1350 C   0  0  0  0  0  0  0  0  0  0  0  0
   29.6970   48.9530   -2.9760 N   0  0  0  0  0  0  0  0  0  0  0  0
   28.8810   50.5340   -4.6920 C   0  0  0  0  0  0  0  0  0  0  0  0
   29.9840   49.7160   -1.7850 C   0  0  0  0  0  0  0  0  0  0  0  0
   29.0180   51.7580   -4.0210 C   0  0  0  0  0  0  0  0  0  0  0  0
   28.3450   50.5130   -5.9830 C   0  0  0  0  0  0  0  0  0  0  0  0
   30.4360   48.7850   -0.7920 O   0  0  0  0  0  0  0  0  0  0  0  0
   28.6150   52.9430   -4.6560 C   0  0  0  0  0  0  0  0  0  0  0  0
   27.9460   51.6860   -6.6120 C   0  0  0  0  0  0  0  0  0  0  0  0
   28.0800   52.9040   -5.9480 C   0  0  0  0  0  0  0  0  0  0  0  0
   28.7950   54.4900   -3.7980 S   0  0  0  0  0  0  0  0  0  0  0  0
   30.2250   47.5480   -1.3810 C   0  0  0  0  0  0  0  0  0  0  0  0
   27.6690   54.0640   -6.6150 N   0  0  0  0  0  0  0  0  0  0  0  0
   29.1110   55.5350   -5.2360 C   0  0  0  0  0  0  0  0  0  0  0  0
   29.3070   46.6280   -0.7040 C   0  0  0  0  0  0  0  0  0  0  0  0
   30.8210   47.1920   -2.5520 C   0  0  0  0  0  0  0  0  0  0  0  0
   28.1320   55.3270   -6.3690 C   0  0  0  0  0  0  0  0  0  0  0  0
   30.4930   45.9000   -3.1030 C   0  0  0  0  0  0  0  0  0  0  0  0
   28.7640   45.5830   -1.3730 C   0  0  0  0  0  0  0  0  0  0  0  0
   27.7450   56.2640   -7.0720 O   0  0  0  0  0  0  0  0  0  0  0  0
   31.1920   45.0550   -3.8630 C   0  0  0  0  0  0  0  0  0  0  0  0
   29.1110   45.4020   -2.8170 C   0  0  2  0  0  0  0  0  0  0  0  0
   32.5440   45.0520   -4.4760 C   0  0  0  0  0  0  0  0  0  0  0  0
   30.2340   43.9420   -3.9840 C   0  0  0  0  0  0  0  0  0  0  0  0
   29.0720   44.0470   -3.4000 N   0  0  0  0  0  0  0  0  0  0  0  0
   32.5980   45.8390   -5.7770 C   0  0  0  0  0  0  0  0  0  0  0  0
   33.7210   46.5740   -5.9460 O   0  0  0  0  0  0  0  0  0  0  0  0
   31.7170   45.8280   -6.6260 O   0  0  0  0  0  0  0  0  0  0  0  0
  1  2  1  0
  2  3  2  3
  2  4  1  0
  3  5  1  0
  4  6  2  0
  4  7  1  0
  5  8  1  0
  6  9  1  0
  7 10  2  0
  9 11  2  0
 10 11  1  0
  9 12  1  0
  8 13  1  0
 11 14  1  0
 12 15  1  0
 13 16  1  0
 13 17  2  0
 14 18  1  0
 15 18  1  0
 17 19  1  0
 16 20  2  0
 18 21  2  0
 19 22  2  0
 19 23  1  0
 23 20  1  1
 22 24  1  0
 22 25  1  0
 23 26  1  0
 25 26  2  0
 24 27  1  0
 27 28  1  0
 27 29  2  0
M  END
