mac-x0358-mac-x0373
     RDKit          3D

 26 28  0  0  0  0  0  0  0  0999 V2000
   31.9010   46.2390   -6.2130 O   0  0  0  0  0  0  0  0  0  0  0  0
   32.4150   45.0720   -5.7380 C   0  0  0  0  0  0  0  0  0  0  0  0
   33.3190   44.4060   -6.2270 O   0  0  0  0  0  0  0  0  0  0  0  0
   30.6960   46.6740   -5.7660 C   0  0  0  0  0  0  0  0  0  0  0  0
   31.7250   44.6330   -4.4600 C   0  0  0  0  0  0  0  0  0  0  0  0
   29.6030   46.2510   -6.1260 O   0  0  0  0  0  0  0  0  0  0  0  0
   30.8490   47.7960   -4.7160 C   0  0  0  0  0  0  0  0  0  0  0  0
   31.9420   45.5610   -3.2830 C   0  0  0  0  0  0  0  0  0  0  0  0
   32.2840   48.2510   -4.4050 C   0  0  0  0  0  0  0  0  0  0  0  0
   29.9200   48.9890   -4.9200 C   0  0  0  0  0  0  0  0  0  0  0  0
   33.2110   45.8880   -2.7700 C   0  0  0  0  0  0  0  0  0  0  0  0
   30.8150   46.1280   -2.6620 C   0  0  0  0  0  0  0  0  0  0  0  0
   33.3810   47.3920   -4.5950 C   0  0  0  0  0  0  0  0  0  0  0  0
   32.5380   49.5450   -3.9180 C   0  0  0  0  0  0  0  0  0  0  0  0
   29.4610   49.7630   -3.8420 C   0  0  0  0  0  0  0  0  0  0  0  0
   29.5070   49.3340   -6.2180 C   0  0  0  0  0  0  0  0  0  0  0  0
   34.3830   45.3980   -3.2800 O   0  0  0  0  0  0  0  0  0  0  0  0
   33.3410   46.7530   -1.6840 C   0  0  0  0  0  0  0  0  0  0  0  0
   30.9490   46.9940   -1.5760 C   0  0  0  0  0  0  0  0  0  0  0  0
   34.6800   47.8100   -4.3050 C   0  0  0  0  0  0  0  0  0  0  0  0
   33.8380   49.9600   -3.6310 C   0  0  0  0  0  0  0  0  0  0  0  0
   28.6140   50.8510   -4.0570 C   0  0  0  0  0  0  0  0  0  0  0  0
   28.6590   50.4240   -6.4300 C   0  0  0  0  0  0  0  0  0  0  0  0
   32.2120   47.3080   -1.0860 C   0  0  0  0  0  0  0  0  0  0  0  0
   34.9070   49.0930   -3.8230 C   0  0  0  0  0  0  0  0  0  0  0  0
   28.2130   51.1820   -5.3500 C   0  0  0  0  0  0  0  0  0  0  0  0
  1  2  1  0
  2  3  2  0
  1  4  1  0
  2  5  1  0
  4  6  2  0
  4  7  1  0
  5  8  1  0
  7  9  1  0
  7 10  1  0
  8 11  2  0
  8 12  1  0
  9 13  2  0
  9 14  1  0
 10 15  2  0
 10 16  1  0
 11 17  1  0
 11 18  1  0
 12 19  2  0
 13 20  1  0
 14 21  2  0
 15 22  1  0
 16 23  2  0
 18 24  2  0
 19 24  1  0
 20 25  2  0
 21 25  1  0
 22 26  2  0
 23 26  1  0
M  END
