mac-x0346-mac-x0345
     RDKit          3D

 12 12  0  0  0  0  0  0  0  0999 V2000
   29.8740   55.3700   -5.1520 O   0  0  0  0  0  0  0  0  0  0  0  0
   29.0440   54.4550   -4.4690 N   0  0  0  0  0  0  0  0  0  0  0  0
   29.5570   53.2200   -4.1420 C   0  0  0  0  0  0  0  0  0  0  0  0
   30.3220   53.0870   -3.1940 O   0  0  0  0  0  0  0  0  0  0  0  0
   29.1660   52.0420   -4.9530 C   0  0  0  0  0  0  0  0  0  0  0  0
   29.3220   50.7510   -4.4160 C   0  0  0  0  0  0  0  0  0  0  0  0
   28.6400   52.1810   -6.2490 C   0  0  0  0  0  0  0  0  0  0  0  0
   29.8290   50.5850   -3.1560 O   0  0  0  0  0  0  0  0  0  0  0  0
   28.3660   53.8490   -7.1140 Br  0  0  0  0  0  0  0  0  0  0  0  0
   28.9640   49.6210   -5.1510 C   0  0  0  0  0  0  0  0  0  0  0  0
   28.2820   51.0410   -6.9830 C   0  0  0  0  0  0  0  0  0  0  0  0
   28.4440   49.7670   -6.4340 C   0  0  0  0  0  0  0  0  0  0  0  0
  1  2  1  0
  2  3  1  0
  3  4  2  0
  3  5  1  0
  5  6  2  0
  5  7  1  0
  6  8  1  0
  7  9  1  0
  6 10  1  0
  7 11  2  0
 10 12  2  0
 11 12  1  0
M  END
