mac-x0228-mac-x0193
     RDKit          3D

 28 30  0  0  0  0  0  0  0  0999 V2000
   29.4260   47.6220   -5.1270 O   0  0  0  0  0  0  0  0  0  0  0  0
   30.5010   48.2170   -4.5910 C   0  0  0  0  0  0  0  0  0  0  0  0
   31.5610   47.5110   -4.4260 N   0  0  0  0  0  0  0  0  0  0  0  0
   30.2170   49.6250   -4.2940 C   0  0  0  0  0  0  0  0  0  0  0  0
   31.5540   46.1020   -4.8280 C   0  0  0  0  0  0  0  0  0  0  0  0
   29.9310   50.5090   -5.3430 C   0  0  0  0  0  0  0  0  0  0  0  0
   30.2380   50.0610   -2.9560 C   0  0  0  0  0  0  0  0  0  0  0  0
   32.4870   45.2950   -3.9150 C   0  0  0  0  0  0  0  0  0  0  0  0
   29.6700   51.8290   -5.0210 C   0  0  0  0  0  0  0  0  0  0  0  0
   29.9700   51.3990   -2.6530 C   0  0  0  0  0  0  0  0  0  0  0  0
   33.8020   44.9160   -4.6150 C   0  0  2  0  0  0  0  0  0  0  0  0
   29.6920   52.2570   -3.7020 C   0  0  0  0  0  0  0  0  0  0  0  0
   29.3430   52.9740   -5.9050 C   0  0  0  0  0  0  0  0  0  0  0  0
   33.5430   44.3610   -6.0230 C   0  0  0  0  0  0  0  0  0  0  0  0
   34.5060   43.8710   -3.8730 N   0  0  0  0  0  0  0  0  0  0  0  0
   29.4130   53.5890   -3.5560 O   0  0  0  0  0  0  0  0  0  0  0  0
   29.5410   54.1120   -4.9040 C   0  0  0  0  0  0  0  0  0  0  0  0
   34.1770   45.0290   -7.0190 O   0  0  0  0  0  0  0  0  0  0  0  0
   32.8260   43.3890   -6.2440 O   0  0  0  0  0  0  0  0  0  0  0  0
   34.8050   44.0560   -2.5430 C   0  0  0  0  0  0  0  0  0  0  0  0
   34.0300   43.7660   -1.6370 O   0  0  0  0  0  0  0  0  0  0  0  0
   36.0530   44.5950   -2.3540 N   0  0  0  0  0  0  0  0  0  0  0  0
   37.1770   43.7950   -1.8840 C   0  0  0  0  0  0  0  0  0  0  0  0
   37.3500   42.5100   -2.7000 C   0  0  0  0  0  0  0  0  0  0  0  0
   37.0160   43.4700   -0.3890 C   0  0  0  0  0  0  0  0  0  0  0  0
   38.4940   41.6380   -2.1670 C   0  0  0  0  0  0  0  0  0  0  0  0
   38.1070   42.5510    0.1590 C   0  0  0  0  0  0  0  0  0  0  0  0
   39.1420   42.1800   -0.8920 C   0  0  0  0  0  0  0  0  0  0  0  0
  1  2  1  0
  2  3  2  3
  2  4  1  0
  3  5  1  0
  4  6  2  0
  4  7  1  0
  5  8  1  0
  6  9  1  0
  7 10  2  0
 11  8  1  1
  9 12  2  0
 10 12  1  0
  9 13  1  0
 11 14  1  0
 11 15  1  0
 12 16  1  0
 13 17  1  0
 16 17  1  0
 14 18  1  0
 14 19  2  0
 15 20  1  0
 20 21  2  0
 20 22  1  0
 22 23  1  0
 23 24  1  0
 23 25  1  0
 24 26  1  0
 25 27  1  0
 26 28  1  0
 27 28  1  0
M  END
