mac-x0344-mac-x0404
     RDKit          3D

 22 24  0  0  0  0  0  0  0  0999 V2000
   31.6720   44.6620   -4.0510 O   0  0  0  0  0  0  0  0  0  0  0  0
   32.1470   45.1780   -5.2320 C   0  0  0  0  0  0  0  0  0  0  0  0
   31.6120   45.2020   -6.3330 O   0  0  0  0  0  0  0  0  0  0  0  0
   31.2190   45.6430   -3.1440 C   0  0  0  0  0  0  0  0  0  0  0  0
   33.5610   45.7890   -5.0460 C   0  0  0  0  0  0  0  0  0  0  0  0
   29.9700   45.4920   -2.4870 C   0  0  0  0  0  0  0  0  0  0  0  0
   32.0320   46.7590   -2.9120 C   0  0  0  0  0  0  0  0  0  0  0  0
   34.0490   46.4610   -5.9420 O   0  0  0  0  0  0  0  0  0  0  0  0
   34.1350   45.4860   -3.8200 N   0  0  0  0  0  0  0  0  0  0  0  0
   29.5700   46.5050   -1.5800 C   0  0  0  0  0  0  0  0  0  0  0  0
   31.6220   47.7400   -2.0200 C   0  0  0  0  0  0  0  0  0  0  0  0
   29.1060   44.3930   -2.6850 C   0  0  0  0  0  0  0  0  0  0  0  0
   35.2550   46.1160   -3.2330 C   0  0  0  0  0  0  0  0  0  0  0  0
   30.4020   47.6140   -1.3600 C   0  0  0  0  0  0  0  0  0  0  0  0
   28.3440   46.3950   -0.9080 C   0  0  0  0  0  0  0  0  0  0  0  0
   27.8860   44.3000   -2.0060 C   0  0  0  0  0  0  0  0  0  0  0  0
   36.2490   45.4330   -2.5290 C   0  0  0  0  0  0  0  0  0  0  0  0
   35.3630   47.5060   -3.3750 C   0  0  0  0  0  0  0  0  0  0  0  0
   27.5070   45.3010   -1.1190 C   0  0  0  0  0  0  0  0  0  0  0  0
   37.3330   46.1280   -1.9790 C   0  0  0  0  0  0  0  0  0  0  0  0
   36.4460   48.2000   -2.8260 C   0  0  0  0  0  0  0  0  0  0  0  0
   37.4320   47.5080   -2.1270 C   0  0  0  0  0  0  0  0  0  0  0  0
  1  2  1  0
  2  3  2  0
  1  4  1  0
  2  5  1  0
  4  6  1  0
  4  7  2  0
  5  8  2  0
  5  9  1  0
  6 10  2  0
  7 11  1  0
  6 12  1  0
  9 13  1  0
 10 14  1  0
 11 14  2  0
 10 15  1  0
 12 16  2  0
 13 17  2  0
 13 18  1  0
 15 19  2  0
 16 19  1  0
 17 20  1  0
 18 21  2  0
 20 22  2  0
 21 22  1  0
M  END
