mac-x0123-mac-x0357
     RDKit          3D

 25 28  0  0  0  0  0  0  0  0999 V2000
   28.4620   51.7010   -7.3430 N   0  0  0  0  0  0  0  0  0  0  0  0
   28.9730   52.2110   -6.1580 C   0  0  0  0  0  0  0  0  0  0  0  0
   28.9860   53.5090   -5.8410 C   0  0  0  0  0  0  0  0  0  0  0  0
   29.5330   51.3100   -5.2170 N   0  0  0  0  0  0  0  0  0  0  0  0
   30.0650   51.7340   -3.9900 C   0  0  0  0  0  0  0  0  0  0  0  0
   29.5700   53.8820   -4.5200 C   0  0  0  0  0  0  0  0  0  0  0  0
   28.5320   54.7500   -6.5220 C   0  0  0  0  0  0  0  0  0  0  0  0
   29.6540   49.9570   -5.3390 N   0  0  0  0  0  0  0  0  0  0  0  0
   30.0710   53.0680   -3.6340 N   0  0  0  0  0  0  0  0  0  0  0  0
   29.4920   55.3710   -4.3550 C   0  0  0  0  0  0  0  0  0  0  0  0
   29.3410   55.8340   -5.8100 C   0  0  0  0  0  0  0  0  0  0  0  0
   30.5170   50.6660   -3.3390 N   0  0  0  0  0  0  0  0  0  0  0  0
   30.2580   49.6120   -4.1930 C   0  0  0  0  0  0  0  0  0  0  0  0
   30.6060   48.1580   -3.9360 C   0  0  0  0  0  0  0  0  0  0  0  0
   30.6230   47.3410   -5.1820 N   0  0  0  0  0  0  0  0  0  0  0  0
   31.5060   46.4380   -5.5030 C   0  0  0  0  0  0  0  0  0  0  0  0
   31.4880   45.7280   -6.6490 O   0  0  0  0  0  0  0  0  0  0  0  0
   32.6840   46.0320   -4.6820 C   0  0  0  0  0  0  0  0  0  0  0  0
   32.9610   44.6690   -4.3840 C   0  0  0  0  0  0  0  0  0  0  0  0
   33.5280   47.0440   -4.2060 C   0  0  0  0  0  0  0  0  0  0  0  0
   32.0820   43.5550   -4.8820 C   0  0  0  0  0  0  0  0  0  0  0  0
   34.6470   46.7350   -3.4330 C   0  0  0  0  0  0  0  0  0  0  0  0
   34.0970   44.3930   -3.6010 C   0  0  0  0  0  0  0  0  0  0  0  0
   34.4640   43.1220   -3.2490 O   0  0  0  0  0  0  0  0  0  0  0  0
   34.9290   45.4080   -3.1310 C   0  0  0  0  0  0  0  0  0  0  0  0
  1  2  1  0
  2  3  2  0
  2  4  1  0
  4  5  1  0
  3  6  1  0
  3  7  1  0
  4  8  1  0
  5  9  1  0
  6  9  2  0
  6 10  1  0
  7 11  1  0
 10 11  1  0
  5 12  2  0
  8 13  2  0
 12 13  1  0
 13 14  1  0
 14 15  1  0
 15 16  2  3
 16 17  1  0
 16 18  1  0
 18 19  2  0
 18 20  1  0
 19 21  1  0
 20 22  2  0
 19 23  1  0
 23 24  1  0
 22 25  1  0
 23 25  2  0
M  END
