mac-x0213-mac-x0193
     RDKit          3D

 24 26  0  0  0  0  0  0  0  0999 V2000
   33.1400   46.3660   -6.0090 O   0  0  0  0  0  0  0  0  0  0  0  0
   31.7960   46.2470   -5.9070 C   0  0  0  0  0  0  0  0  0  0  0  0
   31.0150   46.3540   -6.8410 O   0  0  0  0  0  0  0  0  0  0  0  0
   33.8540   45.1230   -6.1230 C   0  0  0  0  0  0  0  0  0  0  0  0
   33.6370   44.2010   -4.9180 C   0  0  0  0  0  0  0  0  0  0  0  0
   31.4300   45.9400   -4.4670 C   0  0  0  0  0  0  0  0  0  0  0  0
   34.4320   44.6090   -3.7710 N   0  0  0  0  0  0  0  0  0  0  0  0
   31.0640   47.2240   -3.7020 C   0  0  0  0  0  0  0  0  0  0  0  0
   30.2170   44.9960   -4.3830 C   0  0  0  0  0  0  0  0  0  0  0  0
   34.8870   43.6420   -2.9210 C   0  0  0  0  0  0  0  0  0  0  0  0
   30.0210   46.7260   -2.7530 C   0  0  0  0  0  0  0  0  0  0  0  0
   29.5420   45.4710   -3.1390 C   0  0  0  0  0  0  0  0  0  0  0  0
   34.3000   42.5920   -2.7000 O   0  0  0  0  0  0  0  0  0  0  0  0
   36.0810   43.9940   -2.3520 N   0  0  0  0  0  0  0  0  0  0  0  0
   29.5370   47.3590   -1.6230 C   0  0  0  0  0  0  0  0  0  0  0  0
   28.5660   44.8220   -2.4020 C   0  0  0  0  0  0  0  0  0  0  0  0
   28.5520   46.7130   -0.8730 C   0  0  0  0  0  0  0  0  0  0  0  0
   28.0700   45.4530   -1.2610 C   0  0  0  0  0  0  0  0  0  0  0  0
   36.9080   42.9910   -1.7060 C   0  0  0  0  0  0  0  0  0  0  0  0
   38.0240   42.4900   -2.6410 C   0  0  0  0  0  0  0  0  0  0  0  0
   37.4790   43.5150   -0.3890 C   0  0  0  0  0  0  0  0  0  0  0  0
   38.9630   41.4820   -1.9810 C   0  0  0  0  0  0  0  0  0  0  0  0
   38.4340   42.5220    0.2750 C   0  0  0  0  0  0  0  0  0  0  0  0
   39.5240   41.9940   -0.6620 C   0  0  0  0  0  0  0  0  0  0  0  0
  1  2  1  0
  2  3  2  0
  1  4  1  0
  4  5  1  0
  2  6  1  0
  5  7  1  0
  6  8  1  0
  6  9  1  0
  7 10  1  0
  8 11  1  0
  9 12  1  0
 11 12  2  0
 10 13  2  0
 10 14  1  0
 11 15  1  0
 12 16  1  0
 15 17  2  0
 16 18  2  0
 17 18  1  0
 14 19  1  0
 19 20  1  0
 19 21  1  0
 20 22  1  0
 21 23  1  0
 22 24  1  0
 23 24  1  0
M  END
