mac-x0345-mac-x0137
     RDKit          3D

 25 28  0  0  0  0  0  0  0  0999 V2000
   29.4050   55.2180   -5.9380 C   0  0  0  0  0  0  0  0  0  0  0  0
   28.7840   54.4000   -4.8450 C   0  0  0  0  0  0  0  0  0  0  0  0
   28.7050   55.0070   -3.6280 N   0  0  0  0  0  0  0  0  0  0  0  0
   28.3160   53.1070   -5.0610 C   0  0  0  0  0  0  0  0  0  0  0  0
   28.3810   52.4690   -6.2770 O   0  0  0  0  0  0  0  0  0  0  0  0
   27.7500   52.4140   -3.9910 C   0  0  0  0  0  0  0  0  0  0  0  0
   28.1570   54.3220   -2.6100 C   0  0  0  0  0  0  0  0  0  0  0  0
   28.0970   54.9770   -1.3820 N   0  0  0  0  0  0  0  0  0  0  0  0
   27.6710   53.0330   -2.7470 C   0  0  0  0  0  0  0  0  0  0  0  0
   29.0690   51.2460   -6.1500 N   0  0  0  0  0  0  0  0  0  0  0  0
   28.6860   50.0620   -6.7400 C   0  0  0  0  0  0  0  0  0  0  0  0
   30.2160   51.0580   -5.4200 C   0  0  0  0  0  0  0  0  0  0  0  0
   27.6060   49.8820   -7.5250 N   0  0  0  0  0  0  0  0  0  0  0  0
   29.6150   49.0900   -6.3770 C   0  0  0  0  0  0  0  0  0  0  0  0
   30.5770   49.7350   -5.5420 C   0  0  0  0  0  0  0  0  0  0  0  0
   27.5070   48.6150   -7.9440 C   0  0  0  0  0  0  0  0  0  0  0  0
   29.4150   47.7820   -6.8770 C   0  0  0  0  0  0  0  0  0  0  0  0
   30.2670   46.7010   -6.5980 N   0  0  0  0  0  0  0  0  0  0  0  0
   28.3290   47.5830   -7.6720 N   0  0  0  0  0  0  0  0  0  0  0  0
   30.1750   46.0900   -5.2540 C   0  0  0  0  0  0  0  0  0  0  0  0
   31.5360   46.6680   -7.3320 C   0  0  0  0  0  0  0  0  0  0  0  0
   31.4050   46.3140   -4.3570 C   0  0  2  0  0  0  0  0  0  0  0  0
   32.6600   47.1390   -6.4160 C   0  0  0  0  0  0  0  0  0  0  0  0
   31.2790   47.4920   -3.6860 F   0  0  0  0  0  0  0  0  0  0  0  0
   32.7210   46.3280   -5.1250 C   0  0  0  0  0  0  0  0  0  0  0  0
  1  2  1  0
  2  3  2  0
  2  4  1  0
  4  5  1  0
  4  6  2  0
  3  7  1  0
  7  8  1  0
  6  9  1  0
  7  9  2  0
  5 10  1  0
 10 11  1  0
 10 12  1  0
 11 13  2  0
 11 14  1  0
 12 15  2  0
 14 15  1  0
 13 16  1  0
 14 17  2  0
 17 18  1  0
 16 19  2  0
 17 19  1  0
 18 20  1  0
 18 21  1  0
 20 22  1  0
 21 23  1  0
 22 24  1  6
 22 25  1  0
 23 25  1  0
M  END
