mac-x0263-mac-x0148
     RDKit          3D

 31 36  0  0  0  0  0  0  0  0999 V2000
   27.9740   59.9970   -6.4230 O   0  0  0  0  0  0  0  0  0  0  0  0
   26.8690   59.2400   -6.2960 C   0  0  0  0  0  0  0  0  0  0  0  0
   25.7730   59.6740   -6.6100 O   0  0  0  0  0  0  0  0  0  0  0  0
   27.1440   57.8710   -5.7460 C   0  0  0  0  0  0  0  0  0  0  0  0
   27.8420   56.9790   -6.7520 C   0  0  0  0  0  0  0  0  0  0  0  0
   27.9880   55.5800   -6.2620 C   0  0  0  0  0  0  0  0  0  0  0  0
   29.1520   55.1510   -5.7000 N   0  0  0  0  0  0  0  0  0  0  0  0
   27.0830   54.5990   -6.2960 N   0  0  0  0  0  0  0  0  0  0  0  0
   28.9710   53.8590   -5.3830 C   0  0  0  0  0  0  0  0  0  0  0  0
   27.7070   53.5140   -5.7340 C   0  0  0  0  0  0  0  0  0  0  0  0
   29.9280   53.0570   -4.8190 C   0  0  0  0  0  0  0  0  0  0  0  0
   27.2100   52.1150   -5.4850 C   0  0  0  0  0  0  0  0  0  0  0  0
   29.6910   51.7620   -4.9670 C   0  0  0  0  0  0  0  0  0  0  0  0
   28.4600   51.1540   -5.6250 C   0  0  2  0  0  0  0  0  0  0  0  0
   28.5010   50.8540   -7.0650 N   0  0  0  0  0  0  0  0  0  0  0  0
   28.5790   49.7780   -4.8910 C   0  0  0  0  0  0  0  0  0  0  0  0
   29.0560   49.5760   -7.1820 C   0  0  0  0  0  0  0  0  0  0  0  0
   29.1920   48.9230   -5.9700 C   0  0  0  0  0  0  0  0  0  0  0  0
   29.4170   49.0970   -8.3530 N   0  0  0  0  0  0  0  0  0  0  0  0
   29.8320   47.6880   -5.9940 C   0  0  0  0  0  0  0  0  0  0  0  0
   30.1340   46.9270   -4.8530 N   0  0  0  0  0  0  0  0  0  0  0  0
   30.2040   47.1860   -7.1760 N   0  0  0  0  0  0  0  0  0  0  0  0
   29.9710   47.8960   -8.2870 C   0  0  0  0  0  0  0  0  0  0  0  0
   30.7900   47.6550   -3.7150 C   0  0  1  0  0  0  0  0  0  0  0  0
   30.9150   45.7570   -5.3110 C   0  0  0  0  0  0  0  0  0  0  0  0
   30.0710   47.7440   -2.3830 C   0  0  0  0  0  0  0  0  0  0  0  0
   32.2470   47.3160   -3.3050 C   0  0  1  0  0  0  0  0  0  0  0  0
   32.4200   46.0290   -5.3420 C   0  0  0  0  0  0  0  0  0  0  0  0
   32.2680   47.3350   -1.7950 C   0  0  0  0  0  0  0  0  0  0  0  0
   31.0720   48.0030   -1.3820 O   0  0  0  0  0  0  0  0  0  0  0  0
   32.9190   46.1080   -3.9270 C   0  0  0  0  0  0  0  0  0  0  0  0
  1  2  1  0
  2  3  2  0
  2  4  1  0
  4  5  1  0
  5  6  1  0
  6  7  1  0
  6  8  2  0
  7  9  1  0
  8 10  1  0
  9 10  2  0
  9 11  1  0
 10 12  1  0
 11 13  2  0
 14 12  1  6
 14 13  1  0
 14 15  1  0
 14 16  1  0
 15 17  1  0
 16 18  1  0
 17 18  2  0
 17 19  1  0
 18 20  1  0
 20 21  1  0
 20 22  2  0
 19 23  2  0
 22 23  1  0
 21 24  1  0
 21 25  1  0
 24 26  1  1
 24 27  1  0
 25 28  1  0
 27 29  1  1
 26 30  1  0
 29 30  1  0
 27 31  1  0
 28 31  1  0
M  END
