mac-x0333-mac-x0360
     RDKit          3D

 21 23  0  0  0  0  0  0  0  0999 V2000
   29.6760   49.4620   -4.8310 O   0  0  0  0  0  0  0  0  0  0  0  0
   30.8150   49.0920   -5.9400 S   0  0  0  0  0  0  0  0  0  0  0  0
   31.6680   48.0430   -5.4170 O   0  0  0  0  0  0  0  0  0  0  0  0
   29.2410   50.7510   -4.8090 C   0  0  0  0  0  0  0  0  0  0  0  0
   30.1560   48.9320   -7.2250 O   0  0  0  0  0  0  0  0  0  0  0  0
   29.6870   51.5770   -3.7750 C   0  0  0  0  0  0  0  0  0  0  0  0
   28.3730   51.2290   -5.8040 C   0  0  0  0  0  0  0  0  0  0  0  0
   31.7930   50.5800   -6.0590 C   0  0  0  0  0  0  0  0  0  0  0  0
   29.2380   52.8780   -3.7760 C   0  0  0  0  0  0  0  0  0  0  0  0
   27.9370   52.5520   -5.7770 C   0  0  0  0  0  0  0  0  0  0  0  0
   32.9760   50.6810   -5.3240 C   0  0  0  0  0  0  0  0  0  0  0  0
   31.3650   51.6320   -6.8820 C   0  0  0  0  0  0  0  0  0  0  0  0
   28.3890   53.3510   -4.7500 C   0  0  0  0  0  0  0  0  0  0  0  0
   29.5530   53.8340   -2.8610 O   0  0  0  0  0  0  0  0  0  0  0  0
   33.7340   51.8450   -5.4160 C   0  0  0  0  0  0  0  0  0  0  0  0
   32.1430   52.7890   -6.9590 C   0  0  0  0  0  0  0  0  0  0  0  0
   31.6440   54.0980   -7.9610 Cl  0  0  0  0  0  0  0  0  0  0  0  0
   35.1920   51.9840   -4.5130 Cl  0  0  0  0  0  0  0  0  0  0  0  0
   28.0720   54.6580   -4.5610 O   0  0  0  0  0  0  0  0  0  0  0  0
   29.0080   55.0000   -3.5190 C   0  0  0  0  0  0  0  0  0  0  0  0
   33.3260   52.9020   -6.2310 C   0  0  0  0  0  0  0  0  0  0  0  0
  2  1  1  0
  2  3  2  0
  1  4  1  0
  2  5  2  0
  4  6  2  0
  4  7  1  0
  2  8  1  0
  6  9  1  0
  7 10  2  0
  8 11  2  0
  8 12  1  0
  9 13  2  0
 10 13  1  0
  9 14  1  0
 11 15  1  0
 12 16  2  0
 16 17  1  0
 15 18  1  0
 13 19  1  0
 14 20  1  0
 19 20  1  0
 15 21  2  0
 16 21  1  0
M  END
