mac-x0348-mac-x1493
     RDKit          3D

 29 32  0  0  0  0  0  0  0  0999 V2000
   27.7800   44.0650   -0.8870 C   0  0  0  0  0  0  0  0  0  0  0  0
   28.6970   45.0250   -1.4590 N   0  0  0  0  0  0  0  0  0  0  0  0
   29.1820   44.9760   -2.7390 C   0  0  0  0  0  0  0  0  0  0  0  0
   29.2070   46.1210   -0.7980 C   0  0  0  0  0  0  0  0  0  0  0  0
   30.0260   46.0540   -2.9330 C   0  0  0  0  0  0  0  0  0  0  0  0
   30.0470   46.7850   -1.7000 C   0  0  0  0  0  0  0  0  0  0  0  0
   29.0050   46.5850    0.5120 C   0  0  0  0  0  0  0  0  0  0  0  0
   30.7840   46.4040   -4.2020 C   0  0  1  0  0  0  0  0  0  0  0  0
   30.7040   47.9570   -1.2670 C   0  0  0  0  0  0  0  0  0  0  0  0
   29.6690   47.7470    0.9110 C   0  0  0  0  0  0  0  0  0  0  0  0
   31.6960   45.2350   -4.6190 C   0  0  0  0  0  0  0  0  0  0  0  0
   29.8320   46.8770   -5.3220 C   0  0  0  0  0  0  0  0  0  0  0  0
   30.5090   48.4260    0.0340 C   0  0  0  0  0  0  0  0  0  0  0  0
   32.4760   45.5100   -5.8740 C   0  0  0  0  0  0  0  0  0  0  0  0
   29.8500   48.3110   -5.4260 O   0  0  0  0  0  0  0  0  0  0  0  0
   32.1000   45.2870   -7.0130 O   0  0  0  0  0  0  0  0  0  0  0  0
   33.6900   46.0430   -5.6470 O   0  0  0  0  0  0  0  0  0  0  0  0
   28.9100   48.9500   -4.6890 C   0  0  0  0  0  0  0  0  0  0  0  0
   28.0130   48.4240   -4.0520 O   0  0  0  0  0  0  0  0  0  0  0  0
   29.1080   50.4050   -4.7640 C   0  0  0  0  0  0  0  0  0  0  0  0
   28.6440   51.1820   -5.8210 C   0  0  0  0  0  0  0  0  0  0  0  0
   29.7860   51.0460   -3.7360 C   0  0  0  0  0  0  0  0  0  0  0  0
   28.8670   52.5630   -5.8220 C   0  0  0  0  0  0  0  0  0  0  0  0
   30.0210   52.3830   -3.7060 N   0  0  0  0  0  0  0  0  0  0  0  0
   29.5680   53.1270   -4.7310 C   0  0  0  0  0  0  0  0  0  0  0  0
   28.4140   53.3800   -6.8710 C   0  0  0  0  0  0  0  0  0  0  0  0
   29.7880   54.4970   -4.7330 C   0  0  0  0  0  0  0  0  0  0  0  0
   28.6490   54.7520   -6.8460 C   0  0  0  0  0  0  0  0  0  0  0  0
   29.3380   55.3110   -5.7750 C   0  0  0  0  0  0  0  0  0  0  0  0
  1  2  1  0
  2  3  1  0
  2  4  1  0
  3  5  2  0
  4  6  2  0
  5  6  1  0
  4  7  1  0
  5  8  1  0
  6  9  1  0
  7 10  2  0
  8 11  1  6
  8 12  1  0
  9 13  2  0
 10 13  1  0
 11 14  1  0
 12 15  1  0
 14 16  2  0
 14 17  1  0
 15 18  1  0
 18 19  2  0
 18 20  1  0
 20 21  2  0
 20 22  1  0
 21 23  1  0
 22 24  2  0
 23 25  2  0
 24 25  1  0
 23 26  1  0
 25 27  1  0
 26 28  2  0
 27 29  2  0
 28 29  1  0
M  END
