mac-x0412-mac-x0568
     RDKit          3D

 15 16  0  0  0  0  0  0  0  0999 V2000
   29.4440   54.6650   -3.7590 O   0  0  0  0  0  0  0  0  0  0  0  0
   29.3480   53.7030   -4.5160 C   0  0  0  0  0  0  0  0  0  0  0  0
   29.0660   53.8090   -5.8800 N   0  0  0  0  0  0  0  0  0  0  0  0
   29.5410   52.3230   -3.9810 C   0  0  0  0  0  0  0  0  0  0  0  0
   29.1180   55.1230   -6.4990 C   0  0  0  0  0  0  0  0  0  0  0  0
   29.4520   51.2200   -4.8400 C   0  0  0  0  0  0  0  0  0  0  0  0
   28.9930   52.6990   -6.7090 C   0  0  0  0  0  0  0  0  0  0  0  0
   29.8100   52.1460   -2.6160 C   0  0  0  0  0  0  0  0  0  0  0  0
   29.1700   51.4430   -6.2610 C   0  0  0  0  0  0  0  0  0  0  0  0
   29.6390   49.9350   -4.3040 C   0  0  0  0  0  0  0  0  0  0  0  0
   29.9920   50.8630   -2.1010 C   0  0  0  0  0  0  0  0  0  0  0  0
   29.0640   50.3670   -7.2840 C   0  0  0  0  0  0  0  0  0  0  0  0
   29.9060   49.7600   -2.9460 C   0  0  0  0  0  0  0  0  0  0  0  0
   29.8200   49.4060   -7.3150 O   0  0  0  0  0  0  0  0  0  0  0  0
   28.0610   50.5150   -8.1900 N   0  0  0  0  0  0  0  0  0  0  0  0
  1  2  2  0
  2  3  1  0
  2  4  1  0
  3  5  1  0
  4  6  2  0
  3  7  1  0
  4  8  1  0
  6  9  1  0
  7  9  2  0
  6 10  1  0
  8 11  2  0
  9 12  1  0
 10 13  2  0
 11 13  1  0
 12 14  2  0
 12 15  1  0
M  END
