mac-x0373-mac-x0319
     RDKit          3D

 26 28  0  0  0  0  0  0  0  0999 V2000
   32.0730   46.3500   -6.5440 N   0  0  0  0  0  0  0  0  0  0  0  0
   30.8680   46.6540   -5.9590 C   0  0  0  0  0  0  0  0  0  0  0  0
   29.7990   46.1770   -6.3490 O   0  0  0  0  0  0  0  0  0  0  0  0
   32.7780   45.3190   -6.2000 C   0  0  0  0  0  0  0  0  0  0  0  0
   30.9210   47.6450   -4.7760 C   0  0  0  0  0  0  0  0  0  0  0  0
   33.9610   45.0090   -6.7650 O   0  0  0  0  0  0  0  0  0  0  0  0
   32.3790   44.3230   -5.1270 C   0  0  0  0  0  0  0  0  0  0  0  0
   32.3320   48.0510   -4.3380 C   0  0  0  0  0  0  0  0  0  0  0  0
   29.9900   48.8480   -4.9230 C   0  0  0  0  0  0  0  0  0  0  0  0
   31.3890   44.8370   -4.1010 C   0  0  0  0  0  0  0  0  0  0  0  0
   33.3530   47.0900   -4.2210 C   0  0  0  0  0  0  0  0  0  0  0  0
   32.6470   49.3850   -4.0410 C   0  0  0  0  0  0  0  0  0  0  0  0
   29.6400   49.5750   -3.7730 C   0  0  0  0  0  0  0  0  0  0  0  0
   29.4690   49.2670   -6.1580 C   0  0  0  0  0  0  0  0  0  0  0  0
   30.0180   44.5950   -4.2680 C   0  0  0  0  0  0  0  0  0  0  0  0
   31.8120   45.5540   -2.9660 C   0  0  0  0  0  0  0  0  0  0  0  0
   34.6380   47.4530   -3.8190 C   0  0  0  0  0  0  0  0  0  0  0  0
   33.9330   49.7460   -3.6410 C   0  0  0  0  0  0  0  0  0  0  0  0
   28.7980   50.6830   -3.8540 C   0  0  0  0  0  0  0  0  0  0  0  0
   28.6270   50.3750   -6.2380 C   0  0  0  0  0  0  0  0  0  0  0  0
   29.1040   45.0610   -3.3270 C   0  0  0  0  0  0  0  0  0  0  0  0
   30.8860   46.0200   -2.0300 C   0  0  0  0  0  0  0  0  0  0  0  0
   27.7830   44.7930   -3.5390 O   0  0  0  0  0  0  0  0  0  0  0  0
   34.9280   48.7790   -3.5290 C   0  0  0  0  0  0  0  0  0  0  0  0
   28.2900   51.0840   -5.0860 C   0  0  0  0  0  0  0  0  0  0  0  0
   29.5260   45.7740   -2.2100 C   0  0  0  0  0  0  0  0  0  0  0  0
  1  2  1  0
  2  3  2  0
  1  4  2  3
  2  5  1  0
  4  6  1  0
  4  7  1  0
  5  8  1  0
  5  9  1  0
  7 10  1  0
  8 11  2  0
  8 12  1  0
  9 13  2  0
  9 14  1  0
 10 15  2  0
 10 16  1  0
 11 17  1  0
 12 18  2  0
 13 19  1  0
 14 20  2  0
 15 21  1  0
 16 22  2  0
 21 23  1  0
 17 24  2  0
 18 24  1  0
 19 25  2  0
 20 25  1  0
 21 26  2  0
 22 26  1  0
M  END
