mac-x0161-mac-x0347
     RDKit          3D

 33 37  0  0  0  0  0  0  0  0999 V2000
   26.0190   51.6330   -4.0760 N   0  0  0  0  0  0  0  0  0  0  0  0
   26.4590   50.2600   -3.9420 C   0  0  1  0  0  0  0  0  0  0  0  0
   26.8900   49.5620   -5.2520 C   0  0  2  0  0  0  0  0  0  0  0  0
   27.5430   50.3350   -2.9990 N   0  0  0  0  0  0  0  0  0  0  0  0
   28.4830   49.2320   -3.1380 C   0  0  0  0  0  0  0  0  0  0  0  0
   28.3890   49.7980   -5.5070 C   0  0  1  0  0  0  0  0  0  0  0  0
   26.2850   49.9690   -6.5400 N   0  0  0  0  0  0  0  0  0  0  0  0
   29.2300   49.2620   -4.4180 N   0  0  0  0  0  0  0  0  0  0  0  0
   28.4780   49.0920   -6.7810 N   0  0  0  0  0  0  0  0  0  0  0  0
   27.2970   49.5360   -7.5160 C   0  0  0  0  0  0  0  0  0  0  0  0
   30.2310   48.0890   -4.6630 C   0  0  1  0  0  0  0  0  0  0  0  0
   31.6830   48.3340   -4.1940 C   0  0  0  0  0  0  0  0  0  0  0  0
   29.7700   46.6770   -4.2230 C   0  0  0  0  0  0  0  0  0  0  0  0
   32.4340   49.4450   -3.8210 C   0  0  0  0  0  0  0  0  0  0  0  0
   32.4970   47.2320   -4.0930 O   0  0  0  0  0  0  0  0  0  0  0  0
   29.8090   46.5000   -5.5740 C   0  0  0  0  0  0  0  0  0  0  0  0
   29.9760   47.5040   -3.2260 N   0  0  0  0  0  0  0  0  0  0  0  0
   29.4730   45.3100   -6.4020 C   0  0  0  0  0  0  0  0  0  0  0  0
   33.7670   47.6020   -3.6600 N   0  0  0  0  0  0  0  0  0  0  0  0
   33.6980   48.9260   -3.5070 C   0  0  0  0  0  0  0  0  0  0  0  0
   30.2620   47.6890   -6.1580 C   0  0  0  0  0  0  0  0  0  0  0  0
   30.4200   48.6530   -3.8550 C   0  0  0  0  0  0  0  0  0  0  0  0
   34.7640   49.6500   -3.0880 O   0  0  0  0  0  0  0  0  0  0  0  0
   28.8070   44.3560   -5.7300 O   0  0  0  0  0  0  0  0  0  0  0  0
   29.7530   45.1570   -7.5780 O   0  0  0  0  0  0  0  0  0  0  0  0
   30.5860   48.8070   -5.3000 C   0  0  0  0  0  0  0  0  0  0  0  0
   35.4180   49.1200   -1.9390 C   0  0  0  0  0  0  0  0  0  0  0  0
   31.0760   50.0760   -5.9000 C   0  0  0  0  0  0  0  0  0  0  0  0
   31.7640   50.0720   -7.1280 C   0  0  0  0  0  0  0  0  0  0  0  0
   30.8760   51.3200   -5.2700 C   0  0  0  0  0  0  0  0  0  0  0  0
   32.2320   51.2580   -7.7010 C   0  0  0  0  0  0  0  0  0  0  0  0
   31.3440   52.5070   -5.8440 C   0  0  0  0  0  0  0  0  0  0  0  0
   32.0220   52.4740   -7.0590 C   0  0  0  0  0  0  0  0  0  0  0  0
  2  1  1  6
  2  3  1  0
  2  4  1  0
  4  5  1  0
  3  6  1  0
  3  7  1  6
  5  8  1  0
  6  8  1  0
  6  9  1  6
  7 10  1  0
  9 10  1  0
  8 11  1  0
 11 12  1  1
 11 13  1  0
 12 14  2  0
 12 15  1  0
 13 16  2  0
 13 17  1  0
 16 18  1  0
 15 19  1  0
 14 20  1  0
 19 20  2  0
 16 21  1  0
 17 22  2  0
 20 23  1  0
 18 24  1  0
 18 25  2  0
 21 26  2  0
 22 26  1  0
 23 27  1  0
 26 28  1  0
 28 29  2  0
 28 30  1  0
 29 31  1  0
 30 32  2  0
 31 33  2  0
 32 33  1  0
M  END
