mac-x0282-mac-x0345
     RDKit          3D

 20 22  0  0  0  0  0  0  0  0999 V2000
   28.7920   54.5560   -5.2570 C   0  0  0  0  0  0  0  0  0  0  0  0
   28.6910   53.1830   -4.6530 C   0  0  0  0  0  0  0  0  0  0  0  0
   29.1840   53.0510   -3.3890 N   0  0  0  0  0  0  0  0  0  0  0  0
   28.1210   52.1260   -5.3740 C   0  0  0  0  0  0  0  0  0  0  0  0
   27.6690   52.4130   -6.6330 O   0  0  0  0  0  0  0  0  0  0  0  0
   28.0660   50.8840   -4.7470 C   0  0  0  0  0  0  0  0  0  0  0  0
   29.1160   51.8410   -2.8170 C   0  0  0  0  0  0  0  0  0  0  0  0
   29.6270   51.7330   -1.5260 N   0  0  0  0  0  0  0  0  0  0  0  0
   26.9950   51.4020   -7.4030 C   0  0  0  0  0  0  0  0  0  0  0  0
   28.5700   50.7410   -3.4530 C   0  0  0  0  0  0  0  0  0  0  0  0
   27.8690   50.8180   -8.5250 C   0  0  0  0  0  0  0  0  0  0  0  0
   28.5160   49.5720   -8.1010 N   0  0  0  0  0  0  0  0  0  0  0  0
   29.7680   49.6960   -7.5150 C   0  0  0  0  0  0  0  0  0  0  0  0
   27.7460   48.4720   -7.7190 C   0  0  0  0  0  0  0  0  0  0  0  0
   30.2200   48.7300   -6.4630 C   0  0  0  0  0  0  0  0  0  0  0  0
   30.7070   50.5870   -7.7350 N   0  0  0  0  0  0  0  0  0  0  0  0
   28.1330   47.5760   -6.7880 C   0  0  0  0  0  0  0  0  0  0  0  0
   31.7300   50.2600   -6.8540 C   0  0  0  0  0  0  0  0  0  0  0  0
   31.5060   49.1920   -6.0760 C   0  0  0  0  0  0  0  0  0  0  0  0
   29.4200   47.7210   -6.1250 C   0  0  0  0  0  0  0  0  0  0  0  0
  1  2  1  0
  2  3  2  0
  2  4  1  0
  4  5  1  0
  4  6  2  0
  3  7  1  0
  7  8  1  0
  5  9  1  0
  6 10  1  0
  7 10  2  0
  9 11  1  0
 11 12  1  0
 12 13  1  0
 12 14  1  0
 13 15  1  0
 13 16  2  0
 14 17  2  0
 16 18  1  0
 15 19  1  0
 18 19  2  0
 15 20  2  0
 17 20  1  0
M  END
