mac-x0306-mac-x0555
     RDKit          3D

 11 12  0  0  0  0  0  0  0  0999 V2000
   29.4210   55.7610   -4.9740 C   0  0  0  0  0  0  0  0  0  0  0  0
   28.8910   55.4980   -6.2130 C   0  0  0  0  0  0  0  0  0  0  0  0
   28.8310   54.1360   -6.2850 N   0  0  0  0  0  0  0  0  0  0  0  0
   29.6800   54.5960   -4.3040 N   0  0  0  0  0  0  0  0  0  0  0  0
   29.3200   53.6110   -5.1050 C   0  0  0  0  0  0  0  0  0  0  0  0
   29.4250   52.1830   -4.7890 C   0  0  0  0  0  0  0  0  0  0  0  0
   29.7810   51.7150   -3.5210 C   0  0  0  0  0  0  0  0  0  0  0  0
   29.1650   51.2410   -5.7870 C   0  0  0  0  0  0  0  0  0  0  0  0
   29.8610   50.3450   -3.3100 C   0  0  0  0  0  0  0  0  0  0  0  0
   29.2710   49.8930   -5.4820 C   0  0  0  0  0  0  0  0  0  0  0  0
   29.6140   49.4250   -4.2620 N   0  0  0  0  0  0  0  0  0  0  0  0
  1  2  2  0
  2  3  1  0
  1  4  1  0
  3  5  1  0
  4  5  2  0
  5  6  1  0
  6  7  2  0
  6  8  1  0
  7  9  1  0
  8 10  2  0
  9 11  2  0
 10 11  1  0
M  END
