mac-x0179-mac-x0137
     RDKit          3D

 31 35  0  0  0  0  0  0  0  0999 V2000
   32.5000   45.1130   -5.3520 O   0  0  0  0  0  0  0  0  0  0  0  0
   32.7730   46.3580   -4.7310 C   0  0  0  0  0  0  0  0  0  0  0  0
   34.0260   46.7620   -5.2830 O   0  0  0  0  0  0  0  0  0  0  0  0
   32.9940   46.2050   -3.1910 C   0  0  0  0  0  0  0  0  0  0  0  0
   31.6960   47.3820   -5.1940 C   0  0  1  0  0  0  0  0  0  0  0  0
   34.3710   46.1300   -2.7290 N   0  0  0  0  0  0  0  0  0  0  0  0
   30.3490   46.7290   -5.5490 C   0  0  0  0  0  0  0  0  0  0  0  0
   31.5080   48.5620   -4.2210 C   0  0  0  0  0  0  0  0  0  0  0  0
   34.9520   44.9750   -2.2710 C   0  0  0  0  0  0  0  0  0  0  0  0
   35.0510   47.2290   -2.2650 C   0  0  0  0  0  0  0  0  0  0  0  0
   30.3330   48.3180   -3.2810 C   0  0  1  0  0  0  0  0  0  0  0  0
   29.2410   47.6980   -5.4300 N   0  0  0  0  0  0  0  0  0  0  0  0
   34.5270   43.8360   -2.3220 O   0  0  0  0  0  0  0  0  0  0  0  0
   34.7160   48.3970   -2.3190 O   0  0  0  0  0  0  0  0  0  0  0  0
   30.2430   49.3630   -2.4030 F   0  0  0  0  0  0  0  0  0  0  0  0
   36.2300   45.3570   -1.6730 C   0  0  0  0  0  0  0  0  0  0  0  0
   36.2910   46.7370   -1.6700 C   0  0  0  0  0  0  0  0  0  0  0  0
   29.0160   48.1940   -4.0480 C   0  0  0  0  0  0  0  0  0  0  0  0
   28.7650   48.4390   -6.5160 C   0  0  0  0  0  0  0  0  0  0  0  0
   37.2560   44.5770   -1.1750 C   0  0  0  0  0  0  0  0  0  0  0  0
   37.3800   47.4230   -1.1680 C   0  0  0  0  0  0  0  0  0  0  0  0
   28.2390   47.7640   -7.6010 N   0  0  0  0  0  0  0  0  0  0  0  0
   28.7630   49.7830   -6.6270 C   0  0  0  0  0  0  0  0  0  0  0  0
   38.3710   45.2470   -0.6590 C   0  0  0  0  0  0  0  0  0  0  0  0
   38.4320   46.6570   -0.6560 C   0  0  0  0  0  0  0  0  0  0  0  0
   27.7520   48.4040   -8.7040 C   0  0  0  0  0  0  0  0  0  0  0  0
   28.2160   50.4180   -7.8560 C   0  0  0  0  0  0  0  0  0  0  0  0
   29.1670   50.9070   -5.8420 C   0  0  0  0  0  0  0  0  0  0  0  0
   27.7120   49.6830   -8.8890 N   0  0  0  0  0  0  0  0  0  0  0  0
   28.2790   51.7230   -7.8130 N   0  0  0  0  0  0  0  0  0  0  0  0
   28.8600   51.9890   -6.5810 C   0  0  0  0  0  0  0  0  0  0  0  0
  2  1  1  0
  2  3  1  0
  2  4  1  0
  5  2  1  1
  4  6  1  0
  5  7  1  0
  5  8  1  0
  6  9  1  0
  6 10  1  0
  8 11  1  0
  7 12  1  0
  9 13  2  0
 10 14  2  0
 11 15  1  1
  9 16  1  0
 10 17  1  0
 16 17  2  0
 11 18  1  0
 12 18  1  0
 12 19  1  0
 16 20  1  0
 17 21  1  0
 19 22  1  0
 19 23  2  0
 20 24  2  0
 21 25  2  0
 24 25  1  0
 22 26  1  0
 23 27  1  0
 23 28  1  0
 26 29  2  0
 27 29  1  0
 27 30  2  0
 28 31  2  0
 30 31  1  0
M  END
