mac-x0345-mac-x0116
     RDKit          3D

 24 27  0  0  0  0  0  0  0  0999 V2000
   30.0040   54.5490   -4.9680 C   0  0  0  0  0  0  0  0  0  0  0  0
   29.4200   53.4380   -4.1440 C   0  0  0  0  0  0  0  0  0  0  0  0
   29.0590   53.7870   -2.8800 N   0  0  0  0  0  0  0  0  0  0  0  0
   29.2620   52.1270   -4.6430 C   0  0  0  0  0  0  0  0  0  0  0  0
   29.6290   51.7050   -5.9460 N   0  0  0  0  0  0  0  0  0  0  0  0
   28.7090   51.1830   -3.7760 C   0  0  0  0  0  0  0  0  0  0  0  0
   28.5330   52.8460   -2.0810 C   0  0  0  0  0  0  0  0  0  0  0  0
   28.1790   53.2450   -0.8000 N   0  0  0  0  0  0  0  0  0  0  0  0
   29.3960   52.7160   -7.0020 C   0  0  0  0  0  0  0  0  0  0  0  0
   28.3400   51.5410   -2.4840 C   0  0  0  0  0  0  0  0  0  0  0  0
   29.9620   50.3520   -6.1440 C   0  0  0  0  0  0  0  0  0  0  0  0
   30.5770   53.5560   -7.3830 C   0  0  0  0  0  0  0  0  0  0  0  0
   30.8900   49.7380   -5.3030 N   0  0  0  0  0  0  0  0  0  0  0  0
   29.4570   49.5360   -7.0980 C   0  0  0  0  0  0  0  0  0  0  0  0
   31.7890   53.1770   -6.8680 O   0  0  0  0  0  0  0  0  0  0  0  0
   30.7390   54.6790   -8.1690 C   0  0  0  0  0  0  0  0  0  0  0  0
   31.2530   48.4290   -5.4140 C   0  0  0  0  0  0  0  0  0  0  0  0
   29.9100   48.1360   -7.1590 C   0  0  0  0  0  0  0  0  0  0  0  0
   28.5510   49.6910   -8.1170 N   0  0  0  0  0  0  0  0  0  0  0  0
   32.1170   55.0020   -8.1320 C   0  0  0  0  0  0  0  0  0  0  0  0
   32.7120   54.0590   -7.3280 C   0  0  0  0  0  0  0  0  0  0  0  0
   30.8160   47.5980   -6.2990 N   0  0  0  0  0  0  0  0  0  0  0  0
   29.3190   47.5200   -8.1340 N   0  0  0  0  0  0  0  0  0  0  0  0
   28.5140   48.5100   -8.6710 C   0  0  0  0  0  0  0  0  0  0  0  0
  1  2  1  0
  2  3  2  0
  2  4  1  0
  4  5  1  0
  4  6  2  0
  3  7  1  0
  7  8  1  0
  5  9  1  0
  6 10  1  0
  7 10  2  0
  5 11  1  0
  9 12  1  0
 11 13  1  0
 11 14  2  0
 12 15  1  0
 12 16  2  0
 13 17  1  0
 14 18  1  0
 14 19  1  0
 16 20  1  0
 15 21  1  0
 20 21  2  0
 17 22  2  0
 18 22  1  0
 18 23  2  0
 19 24  2  0
 23 24  1  0
M  END
