mac-x0148-mac-x0226
     RDKit          3D

 32 37  0  0  0  0  0  0  0  0999 V2000
   32.8850   44.8380   -7.1040 O   0  0  0  0  0  0  0  0  0  0  0  0
   33.5240   45.6620   -6.1450 C   0  0  0  0  0  0  0  0  0  0  0  0
   34.6180   46.2470   -6.8370 O   0  0  0  0  0  0  0  0  0  0  0  0
   32.5570   46.7750   -5.7020 C   0  0  2  0  0  0  0  0  0  0  0  0
   34.0040   44.8720   -4.9720 C   0  0  0  0  0  0  0  0  0  0  0  0
   33.0210   47.5220   -4.4280 C   0  0  0  0  0  0  0  0  0  0  0  0
   31.1150   46.2430   -5.5370 C   0  0  0  0  0  0  0  0  0  0  0  0
   33.5890   43.6020   -4.5300 C   0  0  0  0  0  0  0  0  0  0  0  0
   34.9680   45.2300   -4.0530 C   0  0  0  0  0  0  0  0  0  0  0  0
   31.9720   47.3100   -3.3590 C   0  0  1  0  0  0  0  0  0  0  0  0
   30.2010   47.3090   -5.0440 N   0  0  0  0  0  0  0  0  0  0  0  0
   34.2300   43.1980   -3.4340 N   0  0  0  0  0  0  0  0  0  0  0  0
   35.0840   44.2120   -3.1400 N   0  0  0  0  0  0  0  0  0  0  0  0
   32.1550   47.9290   -1.9970 C   0  0  0  0  0  0  0  0  0  0  0  0
   30.6650   47.9310   -3.7890 C   0  0  1  0  0  0  0  0  0  0  0  0
   29.4660   48.0230   -5.9920 C   0  0  0  0  0  0  0  0  0  0  0  0
   35.9520   44.1590   -2.0200 C   0  0  0  0  0  0  0  0  0  0  0  0
   30.8250   47.9380   -1.4310 O   0  0  0  0  0  0  0  0  0  0  0  0
   29.8820   47.6950   -2.5070 C   0  0  0  0  0  0  0  0  0  0  0  0
   28.9360   47.3690   -7.0890 N   0  0  0  0  0  0  0  0  0  0  0  0
   29.2150   49.3460   -5.9440 C   0  0  0  0  0  0  0  0  0  0  0  0
   36.7030   45.2960   -1.6890 C   0  0  0  0  0  0  0  0  0  0  0  0
   36.0720   43.0000   -1.2430 C   0  0  0  0  0  0  0  0  0  0  0  0
   28.2220   48.0140   -8.0580 C   0  0  0  0  0  0  0  0  0  0  0  0
   28.4270   49.9850   -7.0280 C   0  0  0  0  0  0  0  0  0  0  0  0
   29.5090   50.4450   -5.0750 C   0  0  0  0  0  0  0  0  0  0  0  0
   37.5650   45.2740   -0.5930 C   0  0  0  0  0  0  0  0  0  0  0  0
   36.9380   42.9860   -0.1460 C   0  0  0  0  0  0  0  0  0  0  0  0
   27.9440   49.2730   -8.0890 N   0  0  0  0  0  0  0  0  0  0  0  0
   28.2690   51.2680   -6.8420 N   0  0  0  0  0  0  0  0  0  0  0  0
   28.9360   51.5150   -5.6500 C   0  0  0  0  0  0  0  0  0  0  0  0
   37.6830   44.1200    0.1770 C   0  0  0  0  0  0  0  0  0  0  0  0
  2  1  1  0
  2  3  1  0
  4  2  1  1
  2  5  1  0
  4  6  1  0
  4  7  1  0
  5  8  1  0
  5  9  2  0
 10  6  1  6
  7 11  1  0
  8 12  2  0
  9 13  1  0
 12 13  1  0
 10 14  1  0
 10 15  1  0
 11 15  1  0
 11 16  1  0
 13 17  1  0
 14 18  1  0
 15 19  1  1
 18 19  1  0
 16 20  1  0
 16 21  2  0
 17 22  2  0
 17 23  1  0
 20 24  1  0
 21 25  1  0
 21 26  1  0
 22 27  1  0
 23 28  2  0
 24 29  2  0
 25 29  1  0
 25 30  2  0
 26 31  2  0
 30 31  1  0
 27 32  2  0
 28 32  1  0
M  END
