mac-x0328-mac-x0402
     RDKit          3D

 14 15  0  0  0  0  0  0  0  0999 V2000
   30.6270   47.6900   -3.8950 O   0  0  0  0  0  0  0  0  0  0  0  0
   30.1100   48.4190   -4.9110 C   0  0  0  0  0  0  0  0  0  0  0  0
   29.8450   47.8730   -5.9580 O   0  0  0  0  0  0  0  0  0  0  0  0
   29.9430   49.8570   -4.5340 C   0  0  0  0  0  0  0  0  0  0  0  0
   29.5130   50.9130   -5.4200 C   0  0  0  0  0  0  0  0  0  0  0  0
   30.2340   50.2140   -3.1980 C   0  0  0  0  0  0  0  0  0  0  0  0
   29.4000   52.2240   -4.9360 C   0  0  0  0  0  0  0  0  0  0  0  0
   30.1170   51.5190   -2.7390 C   0  0  0  0  0  0  0  0  0  0  0  0
   29.0450   51.0170   -7.1010 S   0  0  0  0  0  0  0  0  0  0  0  0
   29.7030   52.5120   -3.6070 C   0  0  0  0  0  0  0  0  0  0  0  0
   28.7650   52.7090   -6.9710 C   0  0  0  0  0  0  0  0  0  0  0  0
   28.9830   53.2070   -5.8090 N   0  0  0  0  0  0  0  0  0  0  0  0
   29.5790   53.8110   -3.1790 O   0  0  0  0  0  0  0  0  0  0  0  0
   28.3480   53.4830   -7.9900 N   0  0  0  0  0  0  0  0  0  0  0  0
  1  2  1  0
  2  3  2  0
  2  4  1  0
  4  5  2  0
  4  6  1  0
  5  7  1  0
  6  8  2  0
  5  9  1  0
  7 10  2  0
  8 10  1  0
  9 11  1  0
  7 12  1  0
 11 12  2  0
 10 13  1  0
 11 14  1  0
M  END
