mac-x0472-mac-x0204
     RDKit          3D

 25 27  0  0  0  0  0  0  0  0999 V2000
   30.1170   51.5730   -3.0660 O   0  0  0  0  0  0  0  0  0  0  0  0
   30.9540   50.4890   -3.5380 S   0  0  1  0  0  0  0  0  0  0  0  0
   31.4320   49.3220   -2.6530 N   0  0  0  0  0  0  0  0  0  0  0  0
   30.0180   49.6910   -4.6830 N   0  0  0  0  0  0  0  0  0  0  0  0
   32.3560   51.1830   -4.3800 C   0  0  0  0  0  0  0  0  0  0  0  0
   29.4470   50.3230   -5.7340 C   0  0  0  0  0  0  0  0  0  0  0  0
   33.4920   50.3990   -4.5990 C   0  0  0  0  0  0  0  0  0  0  0  0
   32.3030   52.5110   -4.8150 C   0  0  0  0  0  0  0  0  0  0  0  0
   31.3300   47.9680   -3.1970 C   0  0  0  0  0  0  0  0  0  0  0  0
   28.8370   49.6630   -6.7050 N   0  0  0  0  0  0  0  0  0  0  0  0
   29.4110   52.0360   -5.9880 S   0  0  0  0  0  0  0  0  0  0  0  0
   34.5870   50.9550   -5.2630 C   0  0  0  0  0  0  0  0  0  0  0  0
   33.4020   53.0580   -5.4770 C   0  0  0  0  0  0  0  0  0  0  0  0
   30.3810   47.1040   -2.6400 C   0  0  0  0  0  0  0  0  0  0  0  0
   32.1490   47.6130   -4.2010 N   0  0  0  0  0  0  0  0  0  0  0  0
   29.5650   47.5030   -1.6140 O   0  0  0  0  0  0  0  0  0  0  0  0
   28.5490   51.7450   -7.4360 C   0  0  0  0  0  0  0  0  0  0  0  0
   28.3180   50.4790   -7.6900 N   0  0  0  0  0  0  0  0  0  0  0  0
   34.5400   52.2810   -5.7000 C   0  0  0  0  0  0  0  0  0  0  0  0
   30.2550   45.8110   -3.1310 C   0  0  0  0  0  0  0  0  0  0  0  0
   32.0140   46.3450   -4.6700 C   0  0  0  0  0  0  0  0  0  0  0  0
   31.0960   45.4190   -4.1770 C   0  0  0  0  0  0  0  0  0  0  0  0
   31.0610   44.0750   -4.7820 C   0  0  0  0  0  0  0  0  0  0  0  0
   32.0500   43.8410   -5.6700 O   0  0  0  0  0  0  0  0  0  0  0  0
   30.2050   43.2540   -4.5000 O   0  0  0  0  0  0  0  0  0  0  0  0
  1  2  2  0
  2  3  2  0
  2  4  1  6
  2  5  1  0
  4  6  1  0
  5  7  2  0
  5  8  1  0
  3  9  1  0
  6 10  2  0
  6 11  1  0
  7 12  1  0
  8 13  2  0
  9 14  2  0
  9 15  1  0
 14 16  1  0
 11 17  1  0
 10 18  1  0
 17 18  2  0
 12 19  2  0
 13 19  1  0
 14 20  1  0
 15 21  2  0
 20 22  2  0
 21 22  1  0
 22 23  1  0
 23 24  1  0
 23 25  2  0
M  END
