mac-x0453-mac-x0358
     RDKit          3D

 20 21  0  0  0  0  0  0  0  0999 V2000
   29.5880   54.6720   -6.8470 N   0  0  0  0  0  0  0  0  0  0  0  0
   30.0210   53.4020   -6.2450 C   0  0  0  0  0  0  0  0  0  0  0  0
   28.8600   52.6710   -5.5630 C   0  0  0  0  0  0  0  0  0  0  0  0
   29.2110   51.2860   -5.1120 C   0  0  0  0  0  0  0  0  0  0  0  0
   29.5790   50.2000   -5.8740 C   0  0  0  0  0  0  0  0  0  0  0  0
   29.1960   50.9390   -3.7720 N   0  0  0  0  0  0  0  0  0  0  0  0
   29.7810   49.1870   -4.9840 N   0  0  0  0  0  0  0  0  0  0  0  0
   29.5390   49.6580   -3.7150 C   0  0  0  0  0  0  0  0  0  0  0  0
   29.6780   48.7610   -2.5010 C   0  0  0  0  0  0  0  0  0  0  0  0
   30.9750   47.9870   -2.5910 C   0  0  0  0  0  0  0  0  0  0  0  0
   32.0810   48.3680   -1.8280 C   0  0  0  0  0  0  0  0  0  0  0  0
   31.0850   46.8920   -3.4670 C   0  0  0  0  0  0  0  0  0  0  0  0
   32.2880   46.1880   -3.6070 C   0  0  0  0  0  0  0  0  0  0  0  0
   33.2790   47.6770   -1.9550 C   0  0  0  0  0  0  0  0  0  0  0  0
   32.3580   45.0330   -4.5760 C   0  0  0  0  0  0  0  0  0  0  0  0
   33.3760   46.6100   -2.8410 C   0  0  0  0  0  0  0  0  0  0  0  0
   32.6810   45.4650   -5.9850 C   0  0  0  0  0  0  0  0  0  0  0  0
   34.5900   46.0000   -2.9240 O   0  0  0  0  0  0  0  0  0  0  0  0
   31.6900   45.2060   -6.8600 O   0  0  0  0  0  0  0  0  0  0  0  0
   33.7110   46.0050   -6.3620 O   0  0  0  0  0  0  0  0  0  0  0  0
  1  2  1  0
  2  3  1  0
  3  4  1  0
  4  5  2  0
  4  6  1  0
  5  7  1  0
  6  8  2  0
  7  8  1  0
  8  9  1  0
  9 10  1  0
 10 11  2  0
 10 12  1  0
 12 13  2  0
 11 14  1  0
 13 15  1  0
 13 16  1  0
 14 16  2  0
 15 17  1  0
 16 18  1  0
 17 19  1  0
 17 20  2  0
M  END
