mac-x0132-mac-x0190
     RDKit          3D

 13 14  0  0  0  0  0  0  0  0999 V2000
   28.4080   52.4340   -7.2590 N   0  0  0  0  0  0  0  0  0  0  0  0
   28.8980   52.8930   -6.0270 C   0  0  0  0  0  0  0  0  0  0  0  0
   29.0180   54.2210   -5.9100 N   0  0  0  0  0  0  0  0  0  0  0  0
   29.2370   52.0040   -5.0000 C   0  0  0  0  0  0  0  0  0  0  0  0
   29.7110   52.5990   -3.8250 C   0  0  0  0  0  0  0  0  0  0  0  0
   29.4870   54.6870   -4.7400 C   0  0  0  0  0  0  0  0  0  0  0  0
   29.1310   50.5920   -5.0810 C   0  0  0  0  0  0  0  0  0  0  0  0
   29.6230   56.1920   -4.6230 C   0  0  0  0  0  0  0  0  0  0  0  0
   29.8370   53.9270   -3.6880 N   0  0  0  0  0  0  0  0  0  0  0  0
   30.0660   51.7730   -2.7630 C   0  0  0  0  0  0  0  0  0  0  0  0
   29.4930   49.7870   -4.0050 C   0  0  0  0  0  0  0  0  0  0  0  0
   28.6690   56.8850   -5.4360 O   0  0  0  0  0  0  0  0  0  0  0  0
   29.9640   50.3810   -2.8390 C   0  0  0  0  0  0  0  0  0  0  0  0
  1  2  1  0
  2  3  2  0
  2  4  1  0
  4  5  2  0
  3  6  1  0
  4  7  1  0
  6  8  1  0
  5  9  1  0
  6  9  2  0
  5 10  1  0
  7 11  2  0
  8 12  1  0
 10 13  2  0
 11 13  1  0
M  END
