mac-x0341-mac-x0132
     RDKit          3D

 16 18  0  0  0  0  0  0  0  0999 V2000
   28.1110   54.4260   -7.3140 N   0  0  0  0  0  0  0  0  0  0  0  0
   29.0830   53.5160   -6.8030 C   0  0  2  0  0  0  0  0  0  0  0  0
   28.7420   52.2520   -7.3980 N   0  0  0  0  0  0  0  0  0  0  0  0
   28.8910   53.5550   -5.3950 N   0  0  0  0  0  0  0  0  0  0  0  0
   29.6920   52.5340   -4.7210 C   0  0  2  0  0  0  0  0  0  0  0  0
   28.3520   51.2400   -6.3940 C   0  0  2  0  0  0  0  0  0  0  0  0
   31.0310   52.8280   -4.9960 O   0  0  0  0  0  0  0  0  0  0  0  0
   29.3530   51.0610   -5.1870 C   0  0  1  0  0  0  0  0  0  0  0  0
   28.0090   49.8940   -6.9940 C   0  0  0  0  0  0  0  0  0  0  0  0
   29.6390   52.7830   -3.2370 C   0  0  0  0  0  0  0  0  0  0  0  0
   28.9490   48.9320   -7.0390 C   0  0  0  0  0  0  0  0  0  0  0  0
   30.5040   50.1960   -5.6700 C   0  0  0  0  0  0  0  0  0  0  0  0
   29.2880   51.8510   -2.3440 C   0  0  0  0  0  0  0  0  0  0  0  0
   28.9120   50.1450   -4.0240 C   0  0  0  0  0  0  0  0  0  0  0  0
   30.2770   49.1950   -6.5320 C   0  0  0  0  0  0  0  0  0  0  0  0
   28.9070   50.5280   -2.7460 C   0  0  0  0  0  0  0  0  0  0  0  0
  2  1  1  6
  2  3  1  0
  2  4  1  0
  4  5  1  0
  3  6  1  0
  5  7  1  6
  5  8  1  0
  6  8  1  0
  6  9  1  6
  5 10  1  0
  9 11  2  0
  8 12  1  6
 10 13  2  0
  8 14  1  0
 11 15  1  0
 12 15  2  0
 13 16  1  0
 14 16  2  0
M  END
