mac-x0138-mac-x0373
     RDKit          3D

 21 23  0  0  0  0  0  0  0  0999 V2000
   31.1170   47.3030   -4.9930 C   0  0  1  0  0  0  0  0  0  0  0  0
   30.4300   46.0180   -5.3860 C   0  0  0  0  0  0  0  0  0  0  0  0
   31.0360   45.3600   -6.4010 O   0  0  0  0  0  0  0  0  0  0  0  0
   30.3620   48.5170   -5.0140 N   0  0  0  0  0  0  0  0  0  0  0  0
   32.3980   47.4060   -4.2090 C   0  0  0  0  0  0  0  0  0  0  0  0
   29.4050   45.5940   -4.8770 O   0  0  0  0  0  0  0  0  0  0  0  0
   30.1560   49.4740   -4.0520 C   0  0  0  0  0  0  0  0  0  0  0  0
   29.7320   48.8820   -6.1240 C   0  0  0  0  0  0  0  0  0  0  0  0
   32.9280   46.4240   -3.3670 C   0  0  0  0  0  0  0  0  0  0  0  0
   33.1030   48.6170   -4.3820 C   0  0  0  0  0  0  0  0  0  0  0  0
   29.4150   50.4590   -4.5360 N   0  0  0  0  0  0  0  0  0  0  0  0
   29.1580   50.0860   -5.8470 C   0  0  0  0  0  0  0  0  0  0  0  0
   29.7160   48.1660   -7.2530 N   0  0  0  0  0  0  0  0  0  0  0  0
   34.1430   46.6580   -2.7180 C   0  0  0  0  0  0  0  0  0  0  0  0
   34.3080   48.8450   -3.7360 C   0  0  0  0  0  0  0  0  0  0  0  0
   28.4670   50.6520   -6.9240 C   0  0  0  0  0  0  0  0  0  0  0  0
   29.0240   48.7810   -8.2070 C   0  0  0  0  0  0  0  0  0  0  0  0
   34.8280   47.8610   -2.9030 C   0  0  0  0  0  0  0  0  0  0  0  0
   27.8340   51.8780   -6.8530 N   0  0  0  0  0  0  0  0  0  0  0  0
   28.9360   48.1140   -9.4150 N   0  0  0  0  0  0  0  0  0  0  0  0
   28.4130   49.9710   -8.1000 N   0  0  0  0  0  0  0  0  0  0  0  0
  1  2  1  1
  2  3  1  0
  1  4  1  0
  1  5  1  0
  2  6  2  0
  4  7  1  0
  4  8  1  0
  5  9  2  0
  5 10  1  0
  7 11  2  0
  8 12  2  0
 11 12  1  0
  8 13  1  0
  9 14  1  0
 10 15  2  0
 12 16  1  0
 13 17  2  0
 14 18  2  0
 15 18  1  0
 16 19  1  0
 17 20  1  0
 16 21  2  0
 17 21  1  0
M  END
