mac-x0360-mac-x0138
     RDKit          3D

 22 24  0  0  0  0  0  0  0  0999 V2000
   32.1260   55.1440   -7.3490 Cl  0  0  0  0  0  0  0  0  0  0  0  0
   32.2730   53.6440   -6.4550 C   0  0  0  0  0  0  0  0  0  0  0  0
   33.5150   53.0550   -6.4000 C   0  0  0  0  0  0  0  0  0  0  0  0
   31.1690   53.1000   -5.8350 C   0  0  0  0  0  0  0  0  0  0  0  0
   31.2920   51.9280   -5.1280 C   0  0  0  0  0  0  0  0  0  0  0  0
   33.6370   51.8830   -5.6990 C   0  0  0  0  0  0  0  0  0  0  0  0
   35.2000   51.1130   -5.6040 Cl  0  0  0  0  0  0  0  0  0  0  0  0
   29.8760   51.3360   -4.3630 S   0  0  0  0  0  0  0  0  0  0  0  0
   32.5430   51.3540   -5.0900 C   0  0  0  0  0  0  0  0  0  0  0  0
   30.2080   50.6940   -2.7900 N   0  0  0  0  0  0  0  0  0  0  0  0
   28.4360   51.6320   -4.8250 O   0  0  0  0  0  0  0  0  0  0  0  0
   29.8870   50.0090   -4.8530 N   0  0  0  0  0  0  0  0  0  0  0  0
   29.9800   48.8640   -3.9730 C   0  0  0  0  0  0  0  0  0  0  0  0
   29.0130   49.5440   -5.8570 C   0  0  2  0  0  0  0  0  0  0  0  0
   30.2410   47.8460   -4.9210 N   0  0  0  0  0  0  0  0  0  0  0  0
   29.3150   48.0610   -5.9740 C   0  0  2  0  0  0  0  0  0  0  0  0
   28.9640   50.2650   -7.1150 C   0  0  0  0  0  0  0  0  0  0  0  0
   30.0930   46.5680   -4.2630 C   0  0  0  0  0  0  0  0  0  0  0  0
   28.5040   49.3900   -8.1940 N   0  0  0  0  0  0  0  0  0  0  0  0
   29.8650   47.6260   -7.2150 N   0  0  0  0  0  0  0  0  0  0  0  0
   29.4630   48.3350   -8.4000 C   0  0  1  0  0  0  0  0  0  0  0  0
   28.8450   47.4000   -9.3180 N   0  0  0  0  0  0  0  0  0  0  0  0
  1  2  1  0
  2  3  2  0
  2  4  1  0
  4  5  2  0
  3  6  1  0
  6  7  1  0
  5  8  1  0
  5  9  1  0
  6  9  2  0
  8 10  1  0
  8 11  2  0
  8 12  1  0
 12 13  1  0
 12 14  1  0
 13 15  1  0
 14 16  1  0
 15 16  1  0
 14 17  1  6
 15 18  1  0
 17 19  1  0
 16 20  1  6
 19 21  1  0
 20 21  1  0
 21 22  1  6
M  END
