mac-x0305-mac-x0328
     RDKit          3D

 13 13  0  0  0  0  0  0  0  0999 V2000
   31.2380   47.4260   -7.3040 O   0  0  0  0  0  0  0  0  0  0  0  0
   30.6170   47.4760   -6.1040 C   0  0  0  0  0  0  0  0  0  0  0  0
   30.5290   46.4680   -5.3020 N   0  0  0  0  0  0  0  0  0  0  0  0
   30.0550   48.8260   -5.8300 C   0  0  0  0  0  0  0  0  0  0  0  0
   28.9570   49.3130   -6.5410 C   0  0  0  0  0  0  0  0  0  0  0  0
   30.6990   49.5190   -4.8430 N   0  0  0  0  0  0  0  0  0  0  0  0
   29.8190   46.7400   -4.0600 C   0  0  0  0  0  0  0  0  0  0  0  0
   28.3090   48.6250   -7.5300 O   0  0  0  0  0  0  0  0  0  0  0  0
   28.4800   50.5830   -6.2310 C   0  0  0  0  0  0  0  0  0  0  0  0
   30.2020   50.7490   -4.5710 C   0  0  0  0  0  0  0  0  0  0  0  0
   29.8030   45.6140   -3.2000 O   0  0  0  0  0  0  0  0  0  0  0  0
   29.1130   51.3090   -5.2310 C   0  0  0  0  0  0  0  0  0  0  0  0
   28.6980   52.5560   -4.8770 O   0  0  0  0  0  0  0  0  0  0  0  0
  1  2  1  0
  2  3  2  3
  2  4  1  0
  4  5  2  0
  4  6  1  0
  3  7  1  0
  5  8  1  0
  5  9  1  0
  6 10  2  0
  7 11  1  0
  9 12  2  0
 10 12  1  0
 12 13  1  0
M  END
