mac-x0441-mac-x0380
     RDKit          3D

 34 37  0  0  0  0  0  0  0  0999 V2000
   34.3300   45.2170   -6.1570 O   0  0  0  0  0  0  0  0  0  0  0  0
   33.0490   45.2830   -5.7580 C   0  0  0  0  0  0  0  0  0  0  0  0
   32.0590   45.3910   -6.5710 N   0  0  0  0  0  0  0  0  0  0  0  0
   32.8630   45.2240   -4.2680 C   0  0  0  0  0  0  0  0  0  0  0  0
   30.6840   45.4680   -6.0920 C   0  0  0  0  0  0  0  0  0  0  0  0
   34.1060   44.9660   -3.5620 N   0  0  0  0  0  0  0  0  0  0  0  0
   30.1210   46.8280   -6.5070 C   0  0  0  0  0  0  0  0  0  0  0  0
   34.3320   43.7400   -3.0370 N   0  0  0  0  0  0  0  0  0  0  0  0
   35.1430   45.8250   -3.3320 C   0  0  0  0  0  0  0  0  0  0  0  0
   30.4330   47.9150   -5.4830 C   0  0  0  0  0  0  0  0  0  0  0  0
   35.5480   43.8200   -2.4520 C   0  0  0  0  0  0  0  0  0  0  0  0
   36.0900   45.1240   -2.6230 C   0  0  0  0  0  0  0  0  0  0  0  0
   35.2490   47.2470   -3.7570 C   0  0  0  0  0  0  0  0  0  0  0  0
   36.1940   42.6650   -1.7350 C   0  0  0  0  0  0  0  0  0  0  0  0
   29.3100   48.1470   -4.6210 O   0  0  0  0  0  0  0  0  0  0  0  0
   37.3840   45.7150   -2.1760 C   0  0  0  0  0  0  0  0  0  0  0  0
   36.3290   47.9390   -2.9010 C   0  0  0  0  0  0  0  0  0  0  0  0
   37.2690   42.1780   -2.4180 F   0  0  0  0  0  0  0  0  0  0  0  0
   36.6320   42.9770   -0.4860 F   0  0  0  0  0  0  0  0  0  0  0  0
   35.3310   41.6200   -1.5860 F   0  0  0  0  0  0  0  0  0  0  0  0
   29.3630   49.2620   -3.8500 C   0  0  0  0  0  0  0  0  0  0  0  0
   37.6180   47.1020   -2.8150 C   0  0  0  0  0  0  0  0  0  0  0  0
   29.7170   49.3060   -2.6830 O   0  0  0  0  0  0  0  0  0  0  0  0
   28.9210   50.4620   -4.6170 C   0  0  0  0  0  0  0  0  0  0  0  0
   29.0230   51.7140   -3.9920 C   0  0  0  0  0  0  0  0  0  0  0  0
   28.4130   50.3850   -5.9200 C   0  0  0  0  0  0  0  0  0  0  0  0
   28.6220   52.8780   -4.6630 C   0  0  0  0  0  0  0  0  0  0  0  0
   28.0140   51.5470   -6.5920 C   0  0  0  0  0  0  0  0  0  0  0  0
   28.1180   52.7950   -5.9640 C   0  0  0  0  0  0  0  0  0  0  0  0
   28.7730   54.4410   -3.8310 S   0  0  0  0  0  0  0  0  0  0  0  0
   27.7110   53.9410   -6.6690 N   0  0  0  0  0  0  0  0  0  0  0  0
   29.0930   55.4690   -5.2800 C   0  0  0  0  0  0  0  0  0  0  0  0
   28.1260   55.2240   -6.4170 C   0  0  0  0  0  0  0  0  0  0  0  0
   27.7050   56.1500   -7.1140 O   0  0  0  0  0  0  0  0  0  0  0  0
  1  2  1  0
  2  3  2  3
  2  4  1  0
  3  5  1  0
  4  6  1  0
  5  7  1  0
  6  8  1  0
  6  9  1  0
  7 10  1  0
  8 11  2  0
  9 12  2  0
 11 12  1  0
  9 13  1  0
 11 14  1  0
 10 15  1  0
 12 16  1  0
 13 17  1  0
 14 18  1  0
 14 19  1  0
 14 20  1  0
 15 21  1  0
 16 22  1  0
 17 22  1  0
 21 23  2  0
 21 24  1  0
 24 25  2  0
 24 26  1  0
 25 27  1  0
 26 28  2  0
 27 29  2  0
 28 29  1  0
 27 30  1  0
 29 31  1  0
 30 32  1  0
 31 33  1  0
 32 33  1  0
 33 34  2  0
M  END
