mac-x0124-mac-x0131
     RDKit          3D

 18 20  0  0  0  0  0  0  0  0999 V2000
   30.4070   46.3110   -4.5330 C   0  0  0  0  0  0  0  0  0  0  0  0
   30.0090   47.6840   -4.8150 N   0  0  0  0  0  0  0  0  0  0  0  0
   30.1760   48.7770   -3.9810 C   0  0  0  0  0  0  0  0  0  0  0  0
   31.8800   46.1550   -4.6090 C   0  0  0  0  0  0  0  0  0  0  0  0
   29.4000   48.0800   -5.9840 C   0  0  0  0  0  0  0  0  0  0  0  0
   32.7090   45.2150   -5.1880 C   0  0  0  0  0  0  0  0  0  0  0  0
   32.6280   47.1160   -3.9930 O   0  0  0  0  0  0  0  0  0  0  0  0
   30.8100   48.6660   -2.6360 C   0  0  0  0  0  0  0  0  0  0  0  0
   29.6600   49.8910   -4.6400 C   0  0  0  0  0  0  0  0  0  0  0  0
   29.1700   49.4440   -5.9110 C   0  0  0  0  0  0  0  0  0  0  0  0
   29.0900   47.2680   -7.0120 N   0  0  0  0  0  0  0  0  0  0  0  0
   33.9310   46.7870   -4.1810 C   0  0  0  0  0  0  0  0  0  0  0  0
   34.0340   45.6270   -4.9090 C   0  0  0  0  0  0  0  0  0  0  0  0
   29.6210   51.2920   -4.1300 C   0  0  0  0  0  0  0  0  0  0  0  0
   28.5470   50.0290   -7.0310 C   0  0  0  0  0  0  0  0  0  0  0  0
   28.5030   47.9390   -8.0140 C   0  0  0  0  0  0  0  0  0  0  0  0
   28.2380   51.3790   -7.1370 N   0  0  0  0  0  0  0  0  0  0  0  0
   28.2180   49.2520   -8.0830 N   0  0  0  0  0  0  0  0  0  0  0  0
  1  2  1  0
  2  3  1  0
  1  4  1  0
  2  5  1  0
  4  6  2  0
  4  7  1  0
  3  8  1  0
  3  9  2  0
  5 10  2  0
  9 10  1  0
  5 11  1  0
  7 12  1  0
  6 13  1  0
 12 13  2  0
  9 14  1  0
 10 15  1  0
 11 16  2  0
 15 17  1  0
 15 18  2  0
 16 18  1  0
M  END
