mac-x0303-mac-x0348
     RDKit          3D

 30 33  0  0  0  0  0  0  0  0999 V2000
   30.5140   56.2760   -6.7710 N   0  0  0  0  0  0  0  0  0  0  0  0
   29.2000   56.0080   -5.7480 S   0  0  0  0  0  0  0  0  0  0  0  0
   28.0210   56.2390   -6.5470 O   0  0  0  0  0  0  0  0  0  0  0  0
   29.4750   56.7340   -4.5300 O   0  0  0  0  0  0  0  0  0  0  0  0
   29.2170   54.2980   -5.3210 C   0  0  0  0  0  0  0  0  0  0  0  0
   29.5030   53.8730   -4.0490 N   0  0  0  0  0  0  0  0  0  0  0  0
   28.9720   53.2730   -6.1210 N   0  0  0  0  0  0  0  0  0  0  0  0
   29.4320   52.5070   -4.0310 C   0  0  0  0  0  0  0  0  0  0  0  0
   29.0990   52.1600   -5.3340 C   0  0  0  0  0  0  0  0  0  0  0  0
   29.6240   51.5780   -3.0160 C   0  0  0  0  0  0  0  0  0  0  0  0
   28.9430   50.8030   -5.6620 C   0  0  0  0  0  0  0  0  0  0  0  0
   29.4620   50.2340   -3.3620 C   0  0  0  0  0  0  0  0  0  0  0  0
   29.1260   49.8320   -4.6610 C   0  0  0  0  0  0  0  0  0  0  0  0
   28.9590   48.3690   -4.9930 C   0  0  0  0  0  0  0  0  0  0  0  0
   30.2780   47.6050   -5.1080 C   0  0  0  0  0  0  0  0  0  0  0  0
   30.3180   46.1550   -4.5640 C   0  0  1  0  0  0  0  0  0  0  0  0
   31.7620   45.6480   -4.5870 C   0  0  0  0  0  0  0  0  0  0  0  0
   29.6460   46.0400   -3.2040 C   0  0  0  0  0  0  0  0  0  0  0  0
   32.3640   45.9900   -5.9290 C   0  0  0  0  0  0  0  0  0  0  0  0
   28.7530   45.0510   -2.8270 C   0  0  0  0  0  0  0  0  0  0  0  0
   29.7910   46.9100   -2.0680 C   0  0  0  0  0  0  0  0  0  0  0  0
   31.8270   45.8800   -7.0160 O   0  0  0  0  0  0  0  0  0  0  0  0
   33.6210   46.4640   -5.8350 O   0  0  0  0  0  0  0  0  0  0  0  0
   28.3570   45.2810   -1.5410 N   0  0  0  0  0  0  0  0  0  0  0  0
   28.9740   46.4150   -1.0470 C   0  0  0  0  0  0  0  0  0  0  0  0
   30.5430   48.0760   -1.8190 C   0  0  0  0  0  0  0  0  0  0  0  0
   27.4230   44.4480   -0.8150 C   0  0  0  0  0  0  0  0  0  0  0  0
   30.4580   48.7100   -0.5710 C   0  0  0  0  0  0  0  0  0  0  0  0
   28.8810   47.0430    0.2090 C   0  0  0  0  0  0  0  0  0  0  0  0
   29.6370   48.1960    0.4240 C   0  0  0  0  0  0  0  0  0  0  0  0
  2  1  1  0
  2  3  2  0
  2  4  2  0
  2  5  1  0
  5  6  1  0
  5  7  2  0
  6  8  1  0
  7  9  1  0
  8  9  2  0
  8 10  1  0
  9 11  1  0
 10 12  2  0
 11 13  2  0
 12 13  1  0
 13 14  1  0
 14 15  1  0
 16 15  1  1
 16 17  1  0
 16 18  1  0
 17 19  1  0
 18 20  2  0
 18 21  1  0
 19 22  2  0
 19 23  1  0
 20 24  1  0
 21 25  2  0
 24 25  1  0
 21 26  1  0
 24 27  1  0
 26 28  2  0
 25 29  1  0
 28 30  1  0
 29 30  2  0
M  END
