mac-x0380-mac-x0411
     RDKit          3D

 29 31  0  0  0  0  0  0  0  0999 V2000
   29.0050   48.4400   -4.1140 O   0  0  0  0  0  0  0  0  0  0  0  0
   29.5960   49.5760   -3.7130 C   0  0  0  0  0  0  0  0  0  0  0  0
   30.4660   49.5000   -2.7780 N   0  0  0  0  0  0  0  0  0  0  0  0
   29.0810   50.7110   -4.4790 C   0  0  0  0  0  0  0  0  0  0  0  0
   30.7800   48.1950   -2.1950 C   0  0  0  0  0  0  0  0  0  0  0  0
   29.1590   52.0000   -3.9390 C   0  0  0  0  0  0  0  0  0  0  0  0
   28.5180   50.5030   -5.7410 C   0  0  0  0  0  0  0  0  0  0  0  0
   32.2910   48.0560   -2.0130 C   0  0  0  0  0  0  0  0  0  0  0  0
   28.6690   53.0890   -4.6670 C   0  0  0  0  0  0  0  0  0  0  0  0
   28.0310   51.5880   -6.4660 C   0  0  0  0  0  0  0  0  0  0  0  0
   32.9540   47.2450   -3.1330 C   0  0  0  0  0  0  0  0  0  0  0  0
   28.1030   52.8800   -5.9350 C   0  0  0  0  0  0  0  0  0  0  0  0
   28.7880   54.7110   -3.9450 S   0  0  0  0  0  0  0  0  0  0  0  0
   27.5980   53.9340   -6.7080 N   0  0  0  0  0  0  0  0  0  0  0  0
   28.8000   55.7110   -5.4480 C   0  0  0  0  0  0  0  0  0  0  0  0
   34.4400   47.0300   -2.9170 C   0  0  0  0  0  0  0  0  0  0  0  0
   27.8140   55.2670   -6.5040 C   0  0  0  0  0  0  0  0  0  0  0  0
   35.1160   45.9040   -3.4310 C   0  0  0  0  0  0  0  0  0  0  0  0
   35.1710   47.9810   -2.1810 C   0  0  0  0  0  0  0  0  0  0  0  0
   27.1940   56.0850   -7.1910 O   0  0  0  0  0  0  0  0  0  0  0  0
   34.3860   44.9810   -4.1510 O   0  0  0  0  0  0  0  0  0  0  0  0
   36.5390   47.8180   -1.9600 C   0  0  0  0  0  0  0  0  0  0  0  0
   36.4970   45.7450   -3.2030 C   0  0  0  0  0  0  0  0  0  0  0  0
   37.3900   44.3920   -3.8000 Cl  0  0  0  0  0  0  0  0  0  0  0  0
   33.9260   45.4910   -5.4060 C   0  0  0  0  0  0  0  0  0  0  0  0
   37.2010   46.7050   -2.4680 C   0  0  0  0  0  0  0  0  0  0  0  0
   33.2950   44.3850   -6.2410 C   0  0  0  0  0  0  0  0  0  0  0  0
   32.2430   43.8050   -5.6170 O   0  0  0  0  0  0  0  0  0  0  0  0
   33.6260   43.9980   -7.3520 O   0  0  0  0  0  0  0  0  0  0  0  0
  1  2  1  0
  2  3  2  3
  2  4  1  0
  3  5  1  0
  4  6  2  0
  4  7  1  0
  5  8  1  0
  6  9  1  0
  7 10  2  0
  8 11  1  0
  9 12  2  0
 10 12  1  0
  9 13  1  0
 12 14  1  0
 13 15  1  0
 11 16  1  0
 14 17  1  0
 15 17  1  0
 16 18  2  0
 16 19  1  0
 17 20  2  0
 18 21  1  0
 19 22  2  0
 18 23  1  0
 23 24  1  0
 21 25  1  0
 22 26  1  0
 23 26  2  0
 25 27  1  0
 27 28  1  0
 27 29  2  0
M  END
