mac-x0178-mac-x0411
     RDKit          3D

 24 25  0  0  0  0  0  0  0  0999 V2000
   28.1930   45.1010   -0.3810 N   0  0  0  0  0  0  0  0  0  0  0  0
   28.5770   46.6960   -0.7590 S   0  0  0  0  0  0  0  0  0  0  0  0
   29.4430   47.2000    0.2780 O   0  0  0  0  0  0  0  0  0  0  0  0
   27.3280   47.3270   -1.1100 O   0  0  0  0  0  0  0  0  0  0  0  0
   29.5380   46.4960   -2.2410 C   0  0  0  0  0  0  0  0  0  0  0  0
   29.5190   45.2860   -2.9310 C   0  0  0  0  0  0  0  0  0  0  0  0
   30.3100   47.5670   -2.7000 C   0  0  0  0  0  0  0  0  0  0  0  0
   30.2870   45.1450   -4.0910 C   0  0  0  0  0  0  0  0  0  0  0  0
   31.0750   47.4220   -3.8630 C   0  0  0  0  0  0  0  0  0  0  0  0
   31.0710   46.2100   -4.5610 C   0  0  0  0  0  0  0  0  0  0  0  0
   31.8730   45.9860   -5.7870 C   0  0  0  0  0  0  0  0  0  0  0  0
   31.4590   46.2400   -6.9130 O   0  0  0  0  0  0  0  0  0  0  0  0
   33.2590   45.4090   -5.6380 C   0  0  0  0  0  0  0  0  0  0  0  0
   34.0680   45.5130   -6.5530 O   0  0  0  0  0  0  0  0  0  0  0  0
   33.4780   44.7200   -4.2850 C   0  0  0  0  0  0  0  0  0  0  0  0
   34.7900   44.5620   -3.7370 O   0  0  0  0  0  0  0  0  0  0  0  0
   35.5040   45.6960   -3.4170 C   0  0  0  0  0  0  0  0  0  0  0  0
   34.9430   46.9080   -2.9680 C   0  0  0  0  0  0  0  0  0  0  0  0
   36.9000   45.6220   -3.5490 C   0  0  0  0  0  0  0  0  0  0  0  0
   37.6650   44.1650   -4.0880 Cl  0  0  0  0  0  0  0  0  0  0  0  0
   33.2560   47.1490   -2.7440 Cl  0  0  0  0  0  0  0  0  0  0  0  0
   35.7610   48.0000   -2.6730 C   0  0  0  0  0  0  0  0  0  0  0  0
   37.7130   46.7160   -3.2540 C   0  0  0  0  0  0  0  0  0  0  0  0
   37.1430   47.9100   -2.8150 C   0  0  0  0  0  0  0  0  0  0  0  0
  2  1  1  0
  2  3  2  0
  2  4  2  0
  2  5  1  0
  5  6  2  0
  5  7  1  0
  6  8  1  0
  7  9  2  0
  8 10  2  0
  9 10  1  0
 10 11  1  0
 11 12  2  0
 11 13  1  0
 13 14  2  0
 13 15  1  0
 15 16  1  0
 16 17  1  0
 17 18  2  0
 17 19  1  0
 19 20  1  0
 18 21  1  0
 18 22  1  0
 19 23  2  0
 22 24  2  0
 23 24  1  0
M  END
