mac-x0392-mac-x0116
     RDKit          3D

 21 23  0  0  0  0  0  0  0  0999 V2000
   29.2550   48.2630   -9.4930 N   0  0  0  0  0  0  0  0  0  0  0  0
   28.6550   49.1770   -8.5080 C   0  0  0  0  0  0  0  0  0  0  0  0
   29.1850   49.0170   -7.0510 C   0  0  1  0  0  0  0  0  0  0  0  0
   29.1860   50.3620   -6.3790 N   0  0  0  0  0  0  0  0  0  0  0  0
   28.3320   48.0690   -6.1920 C   0  0  2  0  0  0  0  0  0  0  0  0
   29.5460   51.4990   -7.1490 N   0  0  0  0  0  0  0  0  0  0  0  0
   28.7230   48.1520   -4.7150 C   0  0  1  0  0  0  0  0  0  0  0  0
   28.6770   50.5410   -5.0830 C   0  0  0  0  0  0  0  0  0  0  0  0
   28.2990   46.5610   -6.3400 C   0  0  0  0  0  0  0  0  0  0  0  0
   30.1780   47.7060   -4.4280 C   0  0  0  0  0  0  0  0  0  0  0  0
   29.8410   52.6670   -6.3060 C   0  0  0  0  0  0  0  0  0  0  0  0
   28.4300   49.5270   -4.2290 C   0  0  0  0  0  0  0  0  0  0  0  0
   27.7780   47.1110   -4.2110 N   0  0  0  0  0  0  0  0  0  0  0  0
   27.9510   46.0760   -5.1270 C   0  0  0  0  0  0  0  0  0  0  0  0
   31.0140   48.3400   -3.7940 O   0  0  0  0  0  0  0  0  0  0  0  0
   30.5160   46.5000   -4.9320 O   0  0  0  0  0  0  0  0  0  0  0  0
   30.9060   53.4940   -6.9370 C   0  0  0  0  0  0  0  0  0  0  0  0
   32.0950   53.5730   -6.2690 O   0  0  0  0  0  0  0  0  0  0  0  0
   30.9700   54.2380   -8.0980 C   0  0  0  0  0  0  0  0  0  0  0  0
   32.2680   54.8020   -8.1410 C   0  0  0  0  0  0  0  0  0  0  0  0
   32.9130   54.3670   -7.0070 C   0  0  0  0  0  0  0  0  0  0  0  0
  1  2  1  0
  3  2  1  6
  3  4  1  0
  3  5  1  0
  4  6  1  0
  5  7  1  0
  4  8  1  0
  5  9  1  6
  7 10  1  6
  6 11  1  0
  7 12  1  0
  8 12  2  0
  7 13  1  0
  9 14  2  0
 13 14  1  0
 10 15  2  0
 10 16  1  0
 11 17  1  0
 17 18  1  0
 17 19  2  0
 19 20  1  0
 18 21  1  0
 20 21  2  0
M  END
