mac-x0190-mac-x0277
     RDKit          3D

 25 27  0  0  0  0  0  0  0  0999 V2000
   28.6030   56.8270   -5.4660 O   0  0  0  0  0  0  0  0  0  0  0  0
   29.8040   56.2260   -4.9990 C   0  0  0  0  0  0  0  0  0  0  0  0
   29.5840   54.7620   -4.9840 C   0  0  0  0  0  0  0  0  0  0  0  0
   29.7760   54.0210   -3.8490 N   0  0  0  0  0  0  0  0  0  0  0  0
   29.1960   53.9950   -5.9880 N   0  0  0  0  0  0  0  0  0  0  0  0
   29.5000   52.7150   -4.1350 C   0  0  0  0  0  0  0  0  0  0  0  0
   29.1400   52.7210   -5.4760 C   0  0  0  0  0  0  0  0  0  0  0  0
   29.5330   51.5630   -3.3540 C   0  0  0  0  0  0  0  0  0  0  0  0
   28.7900   51.5110   -6.0970 C   0  0  0  0  0  0  0  0  0  0  0  0
   29.1810   50.3560   -3.9780 C   0  0  0  0  0  0  0  0  0  0  0  0
   28.8150   50.3360   -5.3340 C   0  0  0  0  0  0  0  0  0  0  0  0
   29.2000   49.0780   -3.1760 C   0  0  0  0  0  0  0  0  0  0  0  0
   29.7920   49.3130   -1.7820 C   0  0  0  0  0  0  0  0  0  0  0  0
   30.2190   48.0160   -1.0940 C   0  0  0  0  0  0  0  0  0  0  0  0
   30.0270   46.8050   -1.9770 C   0  0  0  0  0  0  0  0  0  0  0  0
   31.0680   46.4540   -2.8520 C   0  0  0  0  0  0  0  0  0  0  0  0
   28.8680   46.0200   -1.9690 C   0  0  0  0  0  0  0  0  0  0  0  0
   27.5310   46.3680   -0.9320 Cl  0  0  0  0  0  0  0  0  0  0  0  0
   30.9640   45.3460   -3.7050 C   0  0  0  0  0  0  0  0  0  0  0  0
   28.7550   44.9150   -2.8140 C   0  0  0  0  0  0  0  0  0  0  0  0
   32.1020   44.9990   -4.6360 C   0  0  0  0  0  0  0  0  0  0  0  0
   29.7970   44.5770   -3.6790 C   0  0  0  0  0  0  0  0  0  0  0  0
   32.2190   45.9330   -5.8170 C   0  0  0  0  0  0  0  0  0  0  0  0
   33.3850   46.6160   -5.8050 O   0  0  0  0  0  0  0  0  0  0  0  0
   31.4190   46.1140   -6.7190 O   0  0  0  0  0  0  0  0  0  0  0  0
  1  2  1  0
  2  3  1  0
  3  4  1  0
  3  5  2  0
  4  6  1  0
  5  7  1  0
  6  7  2  0
  6  8  1  0
  7  9  1  0
  8 10  2  0
  9 11  2  0
 10 11  1  0
 10 12  1  0
 12 13  1  0
 13 14  1  0
 14 15  1  0
 15 16  2  0
 15 17  1  0
 17 18  1  0
 16 19  1  0
 17 20  2  0
 19 21  1  0
 19 22  2  0
 20 22  1  0
 21 23  1  0
 23 24  1  0
 23 25  2  0
M  END
