mac-x0555-mac-x0255
     RDKit          3D

 26 29  0  0  0  0  0  0  0  0999 V2000
   29.1520   54.3430   -7.3000 N   0  0  0  0  0  0  0  0  0  0  0  0
   29.3140   53.6370   -6.1020 C   0  0  0  0  0  0  0  0  0  0  0  0
   29.6650   54.2580   -4.9100 C   0  0  0  0  0  0  0  0  0  0  0  0
   29.1300   52.2580   -6.0530 C   0  0  0  0  0  0  0  0  0  0  0  0
   29.2940   51.5600   -4.8470 C   0  0  0  0  0  0  0  0  0  0  0  0
   29.8350   53.6260   -3.7230 N   0  0  0  0  0  0  0  0  0  0  0  0
   29.6500   52.2950   -3.6960 C   0  0  0  0  0  0  0  0  0  0  0  0
   29.1120   50.1690   -4.7670 C   0  0  0  0  0  0  0  0  0  0  0  0
   29.8120   51.6100   -2.5020 C   0  0  0  0  0  0  0  0  0  0  0  0
   29.2800   49.5060   -3.5550 C   0  0  0  0  0  0  0  0  0  0  0  0
   29.6330   50.2210   -2.4070 C   0  0  0  0  0  0  0  0  0  0  0  0
   29.8210   49.5230   -1.0810 C   0  0  0  0  0  0  0  0  0  0  0  0
   30.4990   48.1520   -1.1970 C   0  0  0  0  0  0  0  0  0  0  0  0
   29.6840   47.1510   -1.9880 C   0  0  0  0  0  0  0  0  0  0  0  0
   30.1960   46.3880   -3.0730 C   0  0  0  0  0  0  0  0  0  0  0  0
   28.3340   46.9570   -1.6410 C   0  0  0  0  0  0  0  0  0  0  0  0
   29.3990   45.4780   -3.7750 C   0  0  0  0  0  0  0  0  0  0  0  0
   31.7990   46.4140   -3.7210 S   0  0  0  0  0  0  0  0  0  0  0  0
   27.5280   46.0590   -2.3230 C   0  0  0  0  0  0  0  0  0  0  0  0
   31.4460   45.2410   -4.9060 C   0  0  0  0  0  0  0  0  0  0  0  0
   30.1350   44.8290   -4.8240 C   0  0  0  0  0  0  0  0  0  0  0  0
   28.0490   45.3210   -3.3850 C   0  0  0  0  0  0  0  0  0  0  0  0
   32.5080   44.7890   -5.8660 C   0  0  0  0  0  0  0  0  0  0  0  0
   32.6740   45.7500   -7.0220 C   0  0  0  0  0  0  0  0  0  0  0  0
   31.9540   45.3650   -8.1010 O   0  0  0  0  0  0  0  0  0  0  0  0
   33.3460   46.7660   -7.0790 O   0  0  0  0  0  0  0  0  0  0  0  0
  1  2  1  0
  2  3  2  0
  2  4  1  0
  4  5  2  0
  3  6  1  0
  5  7  1  0
  6  7  2  0
  5  8  1  0
  7  9  1  0
  8 10  2  0
  9 11  2  0
 10 11  1  0
 11 12  1  0
 12 13  1  0
 13 14  1  0
 14 15  1  0
 14 16  2  0
 15 17  2  0
 15 18  1  0
 16 19  1  0
 18 20  1  0
 17 21  1  0
 20 21  2  0
 17 22  1  0
 19 22  2  0
 20 23  1  0
 23 24  1  0
 24 25  1  0
 24 26  2  0
M  END
