mac-x0358-mac-x0453
     RDKit          3D

 20 21  0  0  0  0  0  0  0  0999 V2000
   31.6980   45.2170   -6.8550 O   0  0  0  0  0  0  0  0  0  0  0  0
   32.6860   45.4700   -5.9730 C   0  0  0  0  0  0  0  0  0  0  0  0
   33.7080   46.0220   -6.3570 O   0  0  0  0  0  0  0  0  0  0  0  0
   32.4010   45.0350   -4.5560 C   0  0  0  0  0  0  0  0  0  0  0  0
   32.2940   46.1910   -3.5940 C   0  0  0  0  0  0  0  0  0  0  0  0
   33.3830   46.6010   -2.8240 C   0  0  0  0  0  0  0  0  0  0  0  0
   31.0900   46.8920   -3.4670 C   0  0  0  0  0  0  0  0  0  0  0  0
   34.5600   45.9330   -2.9650 O   0  0  0  0  0  0  0  0  0  0  0  0
   33.2870   47.6680   -1.9340 C   0  0  0  0  0  0  0  0  0  0  0  0
   30.9810   47.9830   -2.5910 C   0  0  0  0  0  0  0  0  0  0  0  0
   29.6860   48.7630   -2.5080 C   0  0  0  0  0  0  0  0  0  0  0  0
   32.0830   48.3570   -1.8190 C   0  0  0  0  0  0  0  0  0  0  0  0
   29.5410   49.6540   -3.7270 C   0  0  0  0  0  0  0  0  0  0  0  0
   29.7620   49.1890   -5.0030 N   0  0  0  0  0  0  0  0  0  0  0  0
   29.2030   50.9380   -3.7740 N   0  0  0  0  0  0  0  0  0  0  0  0
   29.2040   51.2940   -5.1140 C   0  0  0  0  0  0  0  0  0  0  0  0
   29.5550   50.2100   -5.8840 C   0  0  0  0  0  0  0  0  0  0  0  0
   28.8580   52.6820   -5.5620 C   0  0  0  0  0  0  0  0  0  0  0  0
   30.0130   53.4250   -6.2510 C   0  0  0  0  0  0  0  0  0  0  0  0
   29.5820   54.6910   -6.8580 N   0  0  0  0  0  0  0  0  0  0  0  0
  1  2  1  0
  2  3  2  0
  2  4  1  0
  4  5  1  0
  5  6  2  0
  5  7  1  0
  6  8  1  0
  6  9  1  0
  7 10  2  0
 10 11  1  0
  9 12  2  0
 10 12  1  0
 11 13  1  0
 13 14  1  0
 13 15  2  0
 15 16  1  0
 14 17  1  0
 16 17  2  0
 16 18  1  0
 18 19  1  0
 19 20  1  0
M  END
