mac-x0380-mac-x0587
     RDKit          3D

 27 29  0  0  0  0  0  0  0  0999 V2000
   29.0960   50.0340   -3.1230 C   0  0  0  0  0  0  0  0  0  0  0  0
   28.7300   51.1040   -4.0900 C   0  0  0  0  0  0  0  0  0  0  0  0
   28.1870   50.8690   -5.3710 C   0  0  0  0  0  0  0  0  0  0  0  0
   30.2460   49.8420   -2.7520 O   0  0  0  0  0  0  0  0  0  0  0  0
   28.9460   52.4150   -3.6640 C   0  0  0  0  0  0  0  0  0  0  0  0
   28.6340   53.4910   -4.4890 C   0  0  0  0  0  0  0  0  0  0  0  0
   27.8810   51.9630   -6.1890 C   0  0  0  0  0  0  0  0  0  0  0  0
   27.9350   49.4850   -5.8710 C   0  0  2  0  0  0  0  0  0  0  0  0
   28.0990   53.2660   -5.7580 C   0  0  0  0  0  0  0  0  0  0  0  0
   28.9330   55.1270   -3.8790 S   0  0  0  0  0  0  0  0  0  0  0  0
   28.1790   48.4740   -4.7520 C   0  0  0  0  0  0  0  0  0  0  0  0
   28.8970   49.0870   -6.8620 N   0  0  0  0  0  0  0  0  0  0  0  0
   27.7650   54.3060   -6.6290 N   0  0  0  0  0  0  0  0  0  0  0  0
   29.2170   55.9370   -5.4640 C   0  0  0  0  0  0  0  0  0  0  0  0
   29.5880   48.2570   -4.9250 N   0  0  0  0  0  0  0  0  0  0  0  0
   29.7930   48.2060   -6.2930 C   0  0  0  0  0  0  0  0  0  0  0  0
   28.1810   55.6000   -6.5090 C   0  0  0  0  0  0  0  0  0  0  0  0
   30.5760   47.5270   -6.9170 O   0  0  0  0  0  0  0  0  0  0  0  0
   30.4450   47.6340   -3.9350 C   0  0  0  0  0  0  0  0  0  0  0  0
   27.7040   56.4610   -7.2470 O   0  0  0  0  0  0  0  0  0  0  0  0
   30.6770   46.1170   -4.0910 C   0  0  2  0  0  0  0  0  0  0  0  0
   29.6560   45.3090   -3.2840 C   0  0  0  0  0  0  0  0  0  0  0  0
   32.3700   45.5300   -3.6420 S   0  0  0  0  0  0  0  0  0  0  0  0
   33.3790   46.4160   -4.8800 C   0  0  0  0  0  0  0  0  0  0  0  0
   33.4470   45.6850   -6.1910 C   0  0  0  0  0  0  0  0  0  0  0  0
   34.4440   45.6040   -6.8930 O   0  0  0  0  0  0  0  0  0  0  0  0
   32.2840   45.1050   -6.5480 O   0  0  0  0  0  0  0  0  0  0  0  0
  1  2  1  0
  2  3  2  0
  1  4  2  0
  2  5  1  0
  5  6  2  0
  3  7  1  0
  8  3  1  1
  6  9  1  0
  7  9  2  0
  6 10  1  0
  8 11  1  0
  8 12  1  0
  9 13  1  0
 10 14  1  0
 11 15  1  0
 12 16  1  0
 15 16  1  0
 13 17  1  0
 14 17  1  0
 16 18  2  0
 15 19  1  0
 17 20  2  0
 19 21  1  0
 21 22  1  1
 21 23  1  0
 23 24  1  0
 24 25  1  0
 25 26  2  0
 25 27  1  0
M  END
