mac-x0305-mac-x0302
     RDKit          3D

 22 23  0  0  0  0  0  0  0  0999 V2000
   29.4430   45.9060   -7.0790 O   0  0  0  0  0  0  0  0  0  0  0  0
   29.8400   46.8290   -6.1270 C   0  0  0  0  0  0  0  0  0  0  0  0
   30.8900   46.6360   -5.2910 C   0  0  0  0  0  0  0  0  0  0  0  0
   29.0090   48.0490   -6.1070 C   0  0  0  0  0  0  0  0  0  0  0  0
   31.6290   45.4560   -5.3640 O   0  0  0  0  0  0  0  0  0  0  0  0
   31.3520   47.6220   -4.2450 C   0  0  0  0  0  0  0  0  0  0  0  0
   28.9470   48.9330   -7.1910 C   0  0  0  0  0  0  0  0  0  0  0  0
   28.3070   48.2510   -4.9560 N   0  0  0  0  0  0  0  0  0  0  0  0
   29.6590   48.7120   -8.3420 O   0  0  0  0  0  0  0  0  0  0  0  0
   30.2330   48.4130   -3.7840 N   0  0  0  0  0  0  0  0  0  0  0  0
   28.1380   50.0630   -7.0910 C   0  0  0  0  0  0  0  0  0  0  0  0
   27.5330   49.3550   -4.8920 C   0  0  0  0  0  0  0  0  0  0  0  0
   30.4590   49.6240   -3.1590 C   0  0  0  0  0  0  0  0  0  0  0  0
   27.4170   50.2800   -5.9180 C   0  0  0  0  0  0  0  0  0  0  0  0
   30.8630   49.7000   -1.9990 O   0  0  0  0  0  0  0  0  0  0  0  0
   30.2030   50.8580   -3.9520 C   0  0  0  0  0  0  0  0  0  0  0  0
   29.6520   52.0100   -3.3760 C   0  0  0  0  0  0  0  0  0  0  0  0
   30.5300   50.8540   -5.3120 C   0  0  0  0  0  0  0  0  0  0  0  0
   29.4370   53.1370   -4.1700 C   0  0  0  0  0  0  0  0  0  0  0  0
   30.3100   51.9880   -6.0950 C   0  0  0  0  0  0  0  0  0  0  0  0
   28.9000   54.2360   -3.5690 O   0  0  0  0  0  0  0  0  0  0  0  0
   29.7610   53.1360   -5.5230 C   0  0  0  0  0  0  0  0  0  0  0  0
  1  2  1  0
  2  3  2  3
  2  4  1  0
  3  5  1  0
  3  6  1  0
  4  7  2  0
  4  8  1  0
  7  9  1  0
  6 10  1  0
  7 11  1  0
  8 12  2  0
 10 13  1  0
 11 14  2  0
 12 14  1  0
 13 15  2  0
 13 16  1  0
 16 17  2  0
 16 18  1  0
 17 19  1  0
 18 20  2  0
 19 21  1  0
 19 22  2  0
 20 22  1  0
M  END
