mac-x0392-mac-x0441
     RDKit          3D

 28 30  0  0  0  0  0  0  0  0999 V2000
   29.0320   47.6140   -8.1880 N   0  0  0  0  0  0  0  0  0  0  0  0
   29.1180   48.7050   -7.3050 C   0  0  0  0  0  0  0  0  0  0  0  0
   28.9830   50.0100   -7.7760 C   0  0  0  0  0  0  0  0  0  0  0  0
   29.3380   48.5690   -5.9220 C   0  0  0  0  0  0  0  0  0  0  0  0
   29.4940   47.2160   -5.3250 C   0  0  0  0  0  0  0  0  0  0  0  0
   29.4090   49.7070   -5.1050 C   0  0  0  0  0  0  0  0  0  0  0  0
   29.0480   51.1240   -7.0090 N   0  0  0  0  0  0  0  0  0  0  0  0
   29.2270   46.9500   -4.1620 O   0  0  0  0  0  0  0  0  0  0  0  0
   29.9650   46.3490   -6.2520 O   0  0  0  0  0  0  0  0  0  0  0  0
   29.2600   50.9480   -5.6910 C   0  0  0  0  0  0  0  0  0  0  0  0
   30.6480   45.2130   -5.7090 C   0  0  0  0  0  0  0  0  0  0  0  0
   31.9750   44.9590   -6.2650 N   0  0  0  0  0  0  0  0  0  0  0  0
   32.9980   45.0010   -5.4870 C   0  0  0  0  0  0  0  0  0  0  0  0
   34.1970   44.7600   -6.0640 O   0  0  0  0  0  0  0  0  0  0  0  0
   33.0160   45.2930   -4.0000 C   0  0  0  0  0  0  0  0  0  0  0  0
   34.2930   45.0050   -3.3620 N   0  0  0  0  0  0  0  0  0  0  0  0
   34.5170   43.7540   -2.8850 N   0  0  0  0  0  0  0  0  0  0  0  0
   35.3480   45.8430   -3.1600 C   0  0  0  0  0  0  0  0  0  0  0  0
   35.7650   43.8030   -2.3570 C   0  0  0  0  0  0  0  0  0  0  0  0
   36.3170   45.1030   -2.5140 C   0  0  0  0  0  0  0  0  0  0  0  0
   35.4580   47.2750   -3.5490 C   0  0  0  0  0  0  0  0  0  0  0  0
   36.4350   42.6170   -1.7030 C   0  0  0  0  0  0  0  0  0  0  0  0
   37.6370   45.6640   -2.1110 C   0  0  0  0  0  0  0  0  0  0  0  0
   36.6560   47.9200   -2.8220 C   0  0  0  0  0  0  0  0  0  0  0  0
   37.5080   42.1520   -2.3930 F   0  0  0  0  0  0  0  0  0  0  0  0
   36.8780   42.9190   -0.4490 F   0  0  0  0  0  0  0  0  0  0  0  0
   35.5760   41.5690   -1.5600 F   0  0  0  0  0  0  0  0  0  0  0  0
   37.8990   47.0100   -2.8190 C   0  0  0  0  0  0  0  0  0  0  0  0
  1  2  1  0
  2  3  2  0
  2  4  1  0
  4  5  1  0
  4  6  2  0
  3  7  1  0
  5  8  2  0
  5  9  1  0
  6 10  1  0
  7 10  2  0
  9 11  1  0
 11 12  1  0
 12 13  2  3
 13 14  1  0
 13 15  1  0
 15 16  1  0
 16 17  1  0
 16 18  1  0
 17 19  2  0
 18 20  2  0
 19 20  1  0
 18 21  1  0
 19 22  1  0
 20 23  1  0
 21 24  1  0
 22 25  1  0
 22 26  1  0
 22 27  1  0
 23 28  1  0
 24 28  1  0
M  END
