mac-x0361-mac-x0213
     RDKit          3D

 22 24  0  0  0  0  0  0  0  0999 V2000
   28.8140   53.9060   -5.9180 N   0  0  0  0  0  0  0  0  0  0  0  0
   29.4710   53.5240   -4.7760 C   0  0  0  0  0  0  0  0  0  0  0  0
   29.8670   54.3590   -3.9780 O   0  0  0  0  0  0  0  0  0  0  0  0
   29.6740   52.0600   -4.5760 C   0  0  0  0  0  0  0  0  0  0  0  0
   29.5530   51.2790   -5.7180 C   0  0  0  0  0  0  0  0  0  0  0  0
   29.9700   51.4490   -3.3400 C   0  0  0  0  0  0  0  0  0  0  0  0
   29.7180   49.9080   -5.6540 C   0  0  0  0  0  0  0  0  0  0  0  0
   30.1380   50.0460   -3.2780 C   0  0  0  0  0  0  0  0  0  0  0  0
   30.0070   49.2920   -4.4550 C   0  0  0  0  0  0  0  0  0  0  0  0
   30.1430   47.9330   -4.4970 O   0  0  0  0  0  0  0  0  0  0  0  0
   31.0120   47.2420   -3.6150 C   0  0  2  0  0  0  0  0  0  0  0  0
   31.5060   45.9430   -4.3090 C   0  0  2  0  0  0  0  0  0  0  0  0
   30.0330   46.6850   -2.6280 C   0  0  0  0  0  0  0  0  0  0  0  0
   32.0240   46.1930   -5.7010 C   0  0  0  0  0  0  0  0  0  0  0  0
   29.6250   45.4010   -3.0060 C   0  0  0  0  0  0  0  0  0  0  0  0
   30.3090   44.9740   -4.2700 C   0  0  0  0  0  0  0  0  0  0  0  0
   29.5400   47.2910   -1.4880 C   0  0  0  0  0  0  0  0  0  0  0  0
   33.3010   46.6100   -5.7640 O   0  0  0  0  0  0  0  0  0  0  0  0
   31.3860   46.0390   -6.7340 O   0  0  0  0  0  0  0  0  0  0  0  0
   28.6150   46.5890   -0.7200 C   0  0  0  0  0  0  0  0  0  0  0  0
   28.7090   44.6970   -2.2510 C   0  0  0  0  0  0  0  0  0  0  0  0
   28.2010   45.3020   -1.0990 C   0  0  0  0  0  0  0  0  0  0  0  0
  1  2  1  0
  2  3  2  0
  2  4  1  0
  4  5  2  0
  4  6  1  0
  5  7  1  0
  6  8  2  0
  7  9  2  0
  8  9  1  0
  9 10  1  0
 11 10  1  6
 11 12  1  0
 11 13  1  0
 12 14  1  6
 13 15  2  0
 12 16  1  0
 15 16  1  0
 13 17  1  0
 14 18  1  0
 14 19  2  0
 17 20  2  0
 15 21  1  0
 20 22  1  0
 21 22  2  0
M  END
