mac-x0301-mac-x0587
     RDKit          3D

 18 19  0  0  0  0  0  0  0  0999 V2000
   29.8220   45.8500   -4.6000 O   0  0  0  0  0  0  0  0  0  0  0  0
   30.4920   47.0120   -4.0840 C   0  0  2  0  0  0  0  0  0  0  0  0
   31.8560   46.8170   -4.4150 O   0  0  0  0  0  0  0  0  0  0  0  0
   30.0640   46.9670   -2.5950 C   0  0  0  0  0  0  0  0  0  0  0  0
   29.9370   48.2220   -4.8250 C   0  0  0  0  0  0  0  0  0  0  0  0
   32.1540   46.7500   -5.8080 C   0  0  0  0  0  0  0  0  0  0  0  0
   30.6050   47.5870   -1.6790 O   0  0  0  0  0  0  0  0  0  0  0  0
   29.3710   48.1630   -6.0940 C   0  0  0  0  0  0  0  0  0  0  0  0
   29.9760   49.5020   -4.2300 C   0  0  0  0  0  0  0  0  0  0  0  0
   33.4150   45.9470   -6.0960 C   0  0  0  0  0  0  0  0  0  0  0  0
   28.8760   49.2870   -6.7340 C   0  0  0  0  0  0  0  0  0  0  0  0
   29.4710   50.6410   -4.8860 C   0  0  0  0  0  0  0  0  0  0  0  0
   29.2170   47.0510   -6.8670 O   0  0  0  0  0  0  0  0  0  0  0  0
   34.5600   46.2860   -5.8290 O   0  0  0  0  0  0  0  0  0  0  0  0
   33.1900   44.7650   -6.7050 O   0  0  0  0  0  0  0  0  0  0  0  0
   28.9120   50.5370   -6.1560 C   0  0  0  0  0  0  0  0  0  0  0  0
   28.3660   49.0090   -7.9650 O   0  0  0  0  0  0  0  0  0  0  0  0
   28.7260   47.6220   -8.0970 C   0  0  0  0  0  0  0  0  0  0  0  0
  2  1  1  6
  2  3  1  0
  2  4  1  0
  2  5  1  0
  3  6  1  0
  4  7  2  0
  5  8  2  0
  5  9  1  0
  6 10  1  0
  8 11  1  0
  9 12  2  0
  8 13  1  0
 10 14  2  0
 10 15  1  0
 11 16  2  0
 12 16  1  0
 11 17  1  0
 13 18  1  0
 17 18  1  0
M  END
