mac-x0565-mac-x0319
     RDKit          3D

 22 24  0  0  0  0  0  0  0  0999 V2000
   29.0960   53.3730   -4.9740 O   0  0  0  0  0  0  0  0  0  0  0  0
   29.5720   52.9060   -3.7990 C   0  0  0  0  0  0  0  0  0  0  0  0
   29.8390   53.6230   -2.8510 O   0  0  0  0  0  0  0  0  0  0  0  0
   29.7400   51.4320   -3.7750 C   0  0  0  0  0  0  0  0  0  0  0  0
   29.2040   50.6230   -4.7800 C   0  0  0  0  0  0  0  0  0  0  0  0
   30.4580   50.8640   -2.7040 C   0  0  0  0  0  0  0  0  0  0  0  0
   29.4090   49.2600   -4.6810 C   0  0  0  0  0  0  0  0  0  0  0  0
   30.6500   49.4780   -2.6300 C   0  0  0  0  0  0  0  0  0  0  0  0
   30.1170   48.6840   -3.6330 C   0  0  0  0  0  0  0  0  0  0  0  0
   28.9420   48.3570   -5.5960 O   0  0  0  0  0  0  0  0  0  0  0  0
   30.1600   47.1930   -3.8180 C   0  0  2  0  0  0  0  0  0  0  0  0
   29.0590   47.0840   -4.9070 C   0  0  0  0  0  0  0  0  0  0  0  0
   29.8000   46.4160   -2.5360 C   0  0  0  0  0  0  0  0  0  0  0  0
   31.5580   46.7750   -4.3500 C   0  0  0  0  0  0  0  0  0  0  0  0
   32.0430   45.4220   -3.7860 C   0  0  2  0  0  0  0  0  0  0  0  0
   29.7920   44.8980   -2.7210 C   0  0  1  0  0  0  0  0  0  0  0  0
   33.1960   44.8050   -4.6110 C   0  0  0  0  0  0  0  0  0  0  0  0
   28.5010   44.4870   -3.1590 O   0  0  0  0  0  0  0  0  0  0  0  0
   30.8560   44.4440   -3.7200 C   0  0  0  0  0  0  0  0  0  0  0  0
   33.3370   45.3600   -6.0160 C   0  0  0  0  0  0  0  0  0  0  0  0
   34.2960   46.3100   -6.1030 O   0  0  0  0  0  0  0  0  0  0  0  0
   32.6780   45.0110   -6.9830 O   0  0  0  0  0  0  0  0  0  0  0  0
  1  2  1  0
  2  3  2  0
  2  4  1  0
  4  5  2  0
  4  6  1  0
  5  7  1  0
  6  8  2  0
  7  9  2  0
  8  9  1  0
  7 10  1  0
  9 11  1  0
 10 12  1  0
 11 12  1  6
 11 13  1  0
 11 14  1  0
 14 15  1  0
 13 16  1  0
 15 17  1  6
 16 18  1  6
 15 19  1  0
 16 19  1  0
 17 20  1  0
 20 21  1  0
 20 22  2  0
M  END
