mac-x0360-mac-x0590
     RDKit          3D

 28 31  0  0  0  0  0  0  0  0999 V2000
   32.9700   55.5700   -7.5990 Cl  0  0  0  0  0  0  0  0  0  0  0  0
   32.6990   54.1350   -6.6890 C   0  0  0  0  0  0  0  0  0  0  0  0
   33.7790   53.3260   -6.3370 C   0  0  0  0  0  0  0  0  0  0  0  0
   31.3990   53.8000   -6.3120 C   0  0  0  0  0  0  0  0  0  0  0  0
   31.1980   52.6350   -5.5750 C   0  0  0  0  0  0  0  0  0  0  0  0
   33.5520   52.1630   -5.5970 C   0  0  0  0  0  0  0  0  0  0  0  0
   34.8780   51.1600   -5.1600 Cl  0  0  0  0  0  0  0  0  0  0  0  0
   29.5460   52.2090   -5.0980 S   0  0  1  0  0  0  0  0  0  0  0  0
   32.2630   51.8090   -5.2100 C   0  0  0  0  0  0  0  0  0  0  0  0
   28.9060   53.4200   -4.6250 O   0  0  0  0  0  0  0  0  0  0  0  0
   29.0080   51.2910   -6.2100 N   0  0  0  0  0  0  0  0  0  0  0  0
   28.0200   50.2380   -5.8590 C   0  0  2  0  0  0  0  0  0  0  0  0
   27.9000   50.0950   -4.4190 N   0  0  0  0  0  0  0  0  0  0  0  0
   28.3680   48.8790   -6.5150 C   0  0  2  0  0  0  0  0  0  0  0  0
   29.0490   49.4390   -3.7820 C   0  0  0  0  0  0  0  0  0  0  0  0
   29.5620   48.3100   -5.8130 C   0  0  1  0  0  0  0  0  0  0  0  0
   28.8360   48.8460   -7.9300 N   0  0  0  0  0  0  0  0  0  0  0  0
   29.4250   48.1510   -4.3840 N   0  0  0  0  0  0  0  0  0  0  0  0
   29.7650   47.1000   -6.5920 N   0  0  0  0  0  0  0  0  0  0  0  0
   29.6360   47.6090   -7.9680 C   0  0  0  0  0  0  0  0  0  0  0  0
   30.6340   47.6230   -3.7230 C   0  0  0  0  0  0  0  0  0  0  0  0
   31.3420   46.5180   -4.5220 C   0  0  0  0  0  0  0  0  0  0  0  0
   32.2670   45.5570   -3.7590 C   0  0  0  0  0  0  0  0  0  0  0  0
   33.5170   45.0920   -4.5450 C   0  0  2  0  0  0  0  0  0  0  0  0
   33.2330   44.9690   -6.0470 C   0  0  0  0  0  0  0  0  0  0  0  0
   33.9510   43.6730   -4.2370 C   0  0  0  0  0  0  0  0  0  0  0  0
   33.0480   42.8420   -5.1250 C   0  0  0  0  0  0  0  0  0  0  0  0
   32.8120   43.6210   -6.3030 O   0  0  0  0  0  0  0  0  0  0  0  0
  1  2  1  0
  2  3  2  0
  2  4  1  0
  4  5  2  0
  3  6  1  0
  6  7  1  0
  8  5  1  6
  5  9  1  0
  6  9  2  0
  8 10  2  0
  8 11  2  0
 12 11  1  1
 12 13  1  0
 12 14  1  0
 13 15  1  0
 14 16  1  0
 14 17  1  6
 15 18  1  0
 16 18  1  0
 16 19  1  6
 17 20  1  0
 19 20  1  0
 18 21  1  0
 21 22  1  0
 22 23  1  0
 24 23  1  1
 24 25  1  0
 24 26  1  0
 26 27  1  0
 25 28  1  0
 27 28  1  0
M  END
