mac-x0347-mac-x0357
     RDKit          3D

 23 25  0  0  0  0  0  0  0  0999 V2000
   31.2300   45.1080   -5.1660 O   0  0  0  0  0  0  0  0  0  0  0  0
   30.7650   46.1520   -5.9030 C   0  0  0  0  0  0  0  0  0  0  0  0
   30.5870   46.1840   -7.1100 O   0  0  0  0  0  0  0  0  0  0  0  0
   32.4850   45.2960   -4.5580 C   0  0  0  0  0  0  0  0  0  0  0  0
   30.4990   47.2930   -5.0070 C   0  0  0  0  0  0  0  0  0  0  0  0
   33.1170   44.1350   -4.1640 C   0  0  0  0  0  0  0  0  0  0  0  0
   33.0700   46.5630   -4.3540 C   0  0  0  0  0  0  0  0  0  0  0  0
   32.4570   42.8150   -4.4120 C   0  0  0  0  0  0  0  0  0  0  0  0
   30.2180   48.5250   -5.5820 C   0  0  0  0  0  0  0  0  0  0  0  0
   30.5170   47.2080   -3.6180 C   0  0  0  0  0  0  0  0  0  0  0  0
   34.3190   46.6380   -3.7270 C   0  0  0  0  0  0  0  0  0  0  0  0
   34.3540   44.2290   -3.5400 C   0  0  0  0  0  0  0  0  0  0  0  0
   34.9630   43.0730   -3.1490 O   0  0  0  0  0  0  0  0  0  0  0  0
   29.9640   49.6420   -4.7870 C   0  0  0  0  0  0  0  0  0  0  0  0
   30.2750   48.2640   -2.7990 N   0  0  0  0  0  0  0  0  0  0  0  0
   34.9630   45.4680   -3.3150 C   0  0  0  0  0  0  0  0  0  0  0  0
   30.0070   49.4470   -3.4040 C   0  0  0  0  0  0  0  0  0  0  0  0
   29.6700   50.9360   -5.4010 C   0  0  0  0  0  0  0  0  0  0  0  0
   28.7000   51.0490   -6.4100 C   0  0  0  0  0  0  0  0  0  0  0  0
   30.3480   52.1010   -5.0050 C   0  0  0  0  0  0  0  0  0  0  0  0
   28.4160   52.2790   -7.0030 C   0  0  0  0  0  0  0  0  0  0  0  0
   30.0650   53.3330   -5.5970 C   0  0  0  0  0  0  0  0  0  0  0  0
   29.1000   53.4210   -6.5960 C   0  0  0  0  0  0  0  0  0  0  0  0
  1  2  1  0
  2  3  2  0
  1  4  1  0
  2  5  1  0
  4  6  2  0
  4  7  1  0
  6  8  1  0
  5  9  2  0
  5 10  1  0
  7 11  2  0
  6 12  1  0
 12 13  1  0
  9 14  1  0
 10 15  2  0
 11 16  1  0
 12 16  2  0
 14 17  2  0
 15 17  1  0
 14 18  1  0
 18 19  2  0
 18 20  1  0
 19 21  1  0
 20 22  2  0
 21 23  2  0
 22 23  1  0
M  END
