mac-x0354-mac-x0565
     RDKit          3D

 29 32  0  0  0  0  0  0  0  0999 V2000
   35.2790   43.5560   -1.6330 C   0  0  0  0  0  0  0  0  0  0  0  0
   34.5910   43.7800   -2.8850 N   0  0  0  0  0  0  0  0  0  0  0  0
   33.6570   42.8990   -3.2810 N   0  0  0  0  0  0  0  0  0  0  0  0
   34.7730   44.8230   -3.7670 C   0  0  0  0  0  0  0  0  0  0  0  0
   33.2300   43.3870   -4.4470 C   0  0  0  0  0  0  0  0  0  0  0  0
   33.8830   44.5860   -4.8160 C   0  0  0  0  0  0  0  0  0  0  0  0
   35.7290   45.9090   -3.5590 C   0  0  0  0  0  0  0  0  0  0  0  0
   33.6950   45.3980   -6.0070 C   0  0  0  0  0  0  0  0  0  0  0  0
   37.1070   45.6520   -3.5210 C   0  0  0  0  0  0  0  0  0  0  0  0
   35.2730   47.2210   -3.3960 C   0  0  0  0  0  0  0  0  0  0  0  0
   32.6690   46.0090   -6.4510 N   0  0  0  0  0  0  0  0  0  0  0  0
   34.7850   45.5480   -6.7830 O   0  0  0  0  0  0  0  0  0  0  0  0
   38.0110   46.6980   -3.3220 C   0  0  0  0  0  0  0  0  0  0  0  0
   36.1780   48.2650   -3.1970 C   0  0  0  0  0  0  0  0  0  0  0  0
   31.3590   46.0630   -5.8200 C   0  0  0  0  0  0  0  0  0  0  0  0
   37.5470   48.0000   -3.1610 C   0  0  0  0  0  0  0  0  0  0  0  0
   30.8540   47.5270   -5.8740 C   0  0  0  0  0  0  0  0  0  0  0  0
   29.7240   47.8340   -4.9630 N   0  0  0  0  0  0  0  0  0  0  0  0
   29.8310   49.0810   -4.2870 C   0  0  0  0  0  0  0  0  0  0  0  0
   29.7320   46.9760   -3.7550 C   0  0  0  0  0  0  0  0  0  0  0  0
   29.5450   50.3560   -4.7530 C   0  0  0  0  0  0  0  0  0  0  0  0
   30.2840   48.9160   -2.9870 C   0  0  0  0  0  0  0  0  0  0  0  0
   30.5070   47.6000   -2.7080 O   0  0  0  0  0  0  0  0  0  0  0  0
   29.7240   51.4500   -3.8890 C   0  0  0  0  0  0  0  0  0  0  0  0
   30.4730   49.9660   -2.1130 C   0  0  0  0  0  0  0  0  0  0  0  0
   29.4320   52.8380   -4.3310 C   0  0  0  0  0  0  0  0  0  0  0  0
   30.1860   51.2530   -2.5740 C   0  0  0  0  0  0  0  0  0  0  0  0
   28.9070   52.9200   -5.5740 O   0  0  0  0  0  0  0  0  0  0  0  0
   29.6430   53.8150   -3.6310 O   0  0  0  0  0  0  0  0  0  0  0  0
  1  2  1  0
  2  3  1  0
  2  4  1  0
  3  5  2  0
  4  6  2  0
  5  6  1  0
  4  7  1  0
  6  8  1  0
  7  9  2  0
  7 10  1  0
  8 11  2  3
  8 12  1  0
  9 13  1  0
 10 14  2  0
 11 15  1  0
 13 16  2  0
 14 16  1  0
 15 17  1  0
 17 18  1  0
 18 19  1  0
 18 20  1  0
 19 21  2  0
 19 22  1  0
 20 23  1  0
 22 23  1  0
 21 24  1  0
 22 25  2  0
 24 26  1  0
 24 27  2  0
 25 27  1  0
 26 28  1  0
 26 29  2  0
M  END
