mac-x0115-mac-x0341
     RDKit          3D

 24 26  0  0  0  0  0  0  0  0999 V2000
   27.9510   45.8100   -1.9050 C   0  0  0  0  0  0  0  0  0  0  0  0
   28.8840   44.6370   -2.1910 C   0  0  0  0  0  0  0  0  0  0  0  0
   28.1950   43.6030   -3.0760 C   0  0  0  0  0  0  0  0  0  0  0  0
   30.0680   45.1000   -2.8570 O   0  0  0  0  0  0  0  0  0  0  0  0
   30.2090   44.7400   -4.2360 C   0  0  0  0  0  0  0  0  0  0  0  0
   31.1340   45.7680   -4.9210 C   0  0  0  0  0  0  0  0  0  0  0  0
   30.5570   46.4550   -6.1090 N   0  0  0  0  0  0  0  0  0  0  0  0
   30.1220   45.6640   -7.1840 C   0  0  0  0  0  0  0  0  0  0  0  0
   29.8600   47.7580   -5.8770 C   0  0  2  0  0  0  0  0  0  0  0  0
   30.5800   44.0800   -7.5220 S   0  0  0  0  0  0  0  0  0  0  0  0
   29.2170   46.2140   -8.0640 N   0  0  0  0  0  0  0  0  0  0  0  0
   29.4230   48.4410   -7.1240 C   0  0  1  0  0  0  0  0  0  0  0  0
   30.5260   49.0450   -5.2780 C   0  0  0  0  0  0  0  0  0  0  0  0
   28.8160   47.5240   -8.1470 C   0  0  0  0  0  0  0  0  0  0  0  0
   28.5890   49.5130   -6.5330 N   0  0  0  0  0  0  0  0  0  0  0  0
   29.6870   50.2690   -5.8690 C   0  0  1  0  0  0  0  0  0  0  0  0
   28.0410   47.9010   -9.0180 O   0  0  0  0  0  0  0  0  0  0  0  0
   29.3030   51.4530   -4.8890 C   0  0  0  0  0  0  0  0  0  0  0  0
   30.3090   51.1110   -6.9960 C   0  0  0  0  0  0  0  0  0  0  0  0
   29.1930   51.3650   -3.6690 O   0  0  0  0  0  0  0  0  0  0  0  0
   29.1200   52.7120   -5.4670 N   0  0  0  0  0  0  0  0  0  0  0  0
   29.2950   51.9860   -7.6600 N   0  0  0  0  0  0  0  0  0  0  0  0
   28.5580   52.8170   -6.7560 C   0  0  2  0  0  0  0  0  0  0  0  0
   28.7740   54.1550   -7.2040 N   0  0  0  0  0  0  0  0  0  0  0  0
  1  2  1  0
  2  3  1  0
  2  4  1  0
  4  5  1  0
  5  6  1  0
  6  7  1  0
  7  8  1  0
  7  9  1  0
  8 10  2  0
  8 11  1  0
  9 12  1  0
  9 13  1  6
 11 14  1  0
 12 14  1  0
 12 15  1  1
 16 13  1  1
 15 16  1  0
 14 17  2  0
 16 18  1  0
 16 19  1  0
 18 20  2  0
 18 21  1  0
 19 22  1  0
 21 23  1  0
 22 23  1  0
 23 24  1  6
M  END
