mac-x0206-mac-x0255
     RDKit          3D

 25 27  0  0  0  0  0  0  0  0999 V2000
   29.2090   49.8780   -5.7400 N   0  0  0  0  0  0  0  0  0  0  0  0
   29.6060   50.7930   -4.7940 C   0  0  0  0  0  0  0  0  0  0  0  0
   30.1890   50.4910   -3.6750 N   0  0  0  0  0  0  0  0  0  0  0  0
   29.3600   52.2590   -5.0990 C   0  0  0  0  0  0  0  0  0  0  0  0
   30.5050   49.0850   -3.3530 C   0  0  0  0  0  0  0  0  0  0  0  0
   29.7460   53.2740   -4.2090 C   0  0  0  0  0  0  0  0  0  0  0  0
   28.7370   52.6300   -6.3030 C   0  0  0  0  0  0  0  0  0  0  0  0
   30.3580   53.0140   -3.0150 O   0  0  0  0  0  0  0  0  0  0  0  0
   29.8190   48.5380   -2.0880 C   0  0  0  0  0  0  0  0  0  0  0  0
   29.5220   54.6180   -4.5100 C   0  0  0  0  0  0  0  0  0  0  0  0
   28.5140   53.9790   -6.6040 C   0  0  0  0  0  0  0  0  0  0  0  0
   28.9060   54.9710   -5.7080 C   0  0  0  0  0  0  0  0  0  0  0  0
   29.3910   47.0840   -2.2590 C   0  0  0  0  0  0  0  0  0  0  0  0
   30.0510   46.1520   -3.1100 C   0  0  0  0  0  0  0  0  0  0  0  0
   28.2700   46.6140   -1.5440 C   0  0  0  0  0  0  0  0  0  0  0  0
   29.6100   44.8300   -3.2460 C   0  0  0  0  0  0  0  0  0  0  0  0
   31.4420   46.4180   -4.1010 S   0  0  0  0  0  0  0  0  0  0  0  0
   27.8210   45.3050   -1.6650 C   0  0  0  0  0  0  0  0  0  0  0  0
   31.4540   44.8260   -4.7000 C   0  0  0  0  0  0  0  0  0  0  0  0
   30.4270   44.0870   -4.1640 C   0  0  0  0  0  0  0  0  0  0  0  0
   28.4800   44.4160   -2.5080 C   0  0  0  0  0  0  0  0  0  0  0  0
   32.5020   44.3990   -5.6830 C   0  0  0  0  0  0  0  0  0  0  0  0
   32.6420   45.3860   -6.8200 C   0  0  0  0  0  0  0  0  0  0  0  0
   31.5260   45.4490   -7.5810 O   0  0  0  0  0  0  0  0  0  0  0  0
   33.6000   46.0810   -7.1010 O   0  0  0  0  0  0  0  0  0  0  0  0
  1  2  1  0
  2  3  2  3
  2  4  1  0
  3  5  1  0
  4  6  2  0
  4  7  1  0
  6  8  1  0
  5  9  1  0
  6 10  1  0
  7 11  2  0
 10 12  2  0
 11 12  1  0
  9 13  1  0
 13 14  1  0
 13 15  2  0
 14 16  2  0
 14 17  1  0
 15 18  1  0
 17 19  1  0
 16 20  1  0
 19 20  2  0
 16 21  1  0
 18 21  2  0
 19 22  1  0
 22 23  1  0
 23 24  1  0
 23 25  2  0
M  END
