mac-x0404-mac-x0223
     RDKit          3D

 18 19  0  0  0  0  0  0  0  0999 V2000
   32.2410   45.3890   -6.9430 O   0  0  0  0  0  0  0  0  0  0  0  0
   33.2050   45.4770   -6.0040 C   0  0  0  0  0  0  0  0  0  0  0  0
   34.3740   45.6280   -6.3360 O   0  0  0  0  0  0  0  0  0  0  0  0
   32.7090   45.3770   -4.5710 C   0  0  0  0  0  0  0  0  0  0  0  0
   31.2910   45.2300   -4.5170 O   0  0  0  0  0  0  0  0  0  0  0  0
   30.6220   45.8120   -3.4640 C   0  0  0  0  0  0  0  0  0  0  0  0
   29.6560   44.9920   -2.8120 C   0  0  0  0  0  0  0  0  0  0  0  0
   30.8400   47.1220   -3.0280 C   0  0  0  0  0  0  0  0  0  0  0  0
   28.9160   45.5110   -1.7160 C   0  0  0  0  0  0  0  0  0  0  0  0
   30.1110   47.6190   -1.9570 C   0  0  0  0  0  0  0  0  0  0  0  0
   29.3970   43.6640   -3.2140 C   0  0  0  0  0  0  0  0  0  0  0  0
   30.3490   48.9070   -1.5530 O   0  0  0  0  0  0  0  0  0  0  0  0
   29.1610   46.8360   -1.3040 C   0  0  0  0  0  0  0  0  0  0  0  0
   27.9610   44.6890   -1.0770 C   0  0  0  0  0  0  0  0  0  0  0  0
   28.4470   42.8660   -2.5680 C   0  0  0  0  0  0  0  0  0  0  0  0
   28.4780   47.3980   -0.2500 O   0  0  0  0  0  0  0  0  0  0  0  0
   27.7300   43.3810   -1.4990 C   0  0  0  0  0  0  0  0  0  0  0  0
   27.0820   47.4600   -0.5650 C   0  0  0  0  0  0  0  0  0  0  0  0
  1  2  1  0
  2  3  2  0
  2  4  1  0
  4  5  1  0
  5  6  1  0
  6  7  2  0
  6  8  1  0
  7  9  1  0
  8 10  2  0
  7 11  1  0
 10 12  1  0
  9 13  2  0
 10 13  1  0
  9 14  1  0
 11 15  2  0
 13 16  1  0
 14 17  2  0
 15 17  1  0
 16 18  1  0
M  END
