mac-x0348-mac-x0576
     RDKit          3D

 27 30  0  0  0  0  0  0  0  0999 V2000
   27.4300   44.5610   -1.3290 C   0  0  0  0  0  0  0  0  0  0  0  0
   28.3680   45.5360   -1.8470 N   0  0  0  0  0  0  0  0  0  0  0  0
   28.8480   45.5650   -3.1400 C   0  0  0  0  0  0  0  0  0  0  0  0
   28.9150   46.5740   -1.1210 C   0  0  0  0  0  0  0  0  0  0  0  0
   29.7300   46.6440   -3.2630 C   0  0  0  0  0  0  0  0  0  0  0  0
   29.7630   47.2690   -1.9850 C   0  0  0  0  0  0  0  0  0  0  0  0
   28.7440   46.9670    0.2180 C   0  0  0  0  0  0  0  0  0  0  0  0
   30.5370   47.0930   -4.4910 C   0  0  1  0  0  0  0  0  0  0  0  0
   30.4620   48.3870   -1.4950 C   0  0  0  0  0  0  0  0  0  0  0  0
   29.4510   48.0840    0.6750 C   0  0  0  0  0  0  0  0  0  0  0  0
   31.3640   45.8690   -4.9310 C   0  0  0  0  0  0  0  0  0  0  0  0
   30.3000   48.7850   -0.1710 C   0  0  0  0  0  0  0  0  0  0  0  0
   29.9020   48.0130   -5.6170 C   0  0  0  0  0  0  0  0  0  0  0  0
   32.2150   46.1260   -6.1340 C   0  0  0  0  0  0  0  0  0  0  0  0
   29.5990   47.4130   -6.8290 N   0  0  0  0  0  0  0  0  0  0  0  0
   29.6500   49.3830   -5.5190 C   0  0  0  0  0  0  0  0  0  0  0  0
   31.8450   45.9750   -7.2830 O   0  0  0  0  0  0  0  0  0  0  0  0
   33.4610   46.5400   -5.8460 O   0  0  0  0  0  0  0  0  0  0  0  0
   29.1160   48.1010   -7.8990 C   0  0  0  0  0  0  0  0  0  0  0  0
   29.0940   50.0840   -6.7790 C   0  0  0  0  0  0  0  0  0  0  0  0
   29.8790   50.1660   -4.3960 N   0  0  0  0  0  0  0  0  0  0  0  0
   28.9240   47.3330   -8.9930 N   0  0  0  0  0  0  0  0  0  0  0  0
   28.8590   49.3600   -7.9170 N   0  0  0  0  0  0  0  0  0  0  0  0
   28.8370   51.3520   -6.8840 N   0  0  0  0  0  0  0  0  0  0  0  0
   29.6150   51.4420   -4.5090 C   0  0  0  0  0  0  0  0  0  0  0  0
   29.0930   52.0940   -5.7680 C   0  0  0  0  0  0  0  0  0  0  0  0
   28.9300   53.3130   -5.7110 O   0  0  0  0  0  0  0  0  0  0  0  0
  1  2  1  0
  2  3  1  0
  2  4  1  0
  3  5  2  0
  4  6  2  0
  5  6  1  0
  4  7  1  0
  5  8  1  0
  6  9  1  0
  7 10  2  0
  8 11  1  6
  9 12  2  0
 10 12  1  0
  8 13  1  0
 11 14  1  0
 13 15  1  0
 13 16  2  0
 14 17  2  0
 14 18  1  0
 15 19  1  0
 16 20  1  0
 16 21  1  0
 19 22  1  0
 19 23  2  0
 20 23  1  0
 20 24  2  0
 21 25  2  0
 24 26  1  0
 25 26  1  0
 26 27  2  0
M  END
