mac-x0588-mac-x0123
     RDKit          3D

 27 32  0  0  0  0  0  0  0  0999 V2000
   29.6590   46.7870   -4.5950 C   0  0  0  0  0  0  0  0  0  0  0  0
   28.8930   47.5510   -5.5700 N   0  0  0  0  0  0  0  0  0  0  0  0
   27.6600   48.2020   -5.1970 C   0  0  0  0  0  0  0  0  0  0  0  0
   28.8830   45.7940   -3.7010 C   0  0  2  0  0  0  0  0  0  0  0  0
   29.6230   48.0880   -6.7000 C   0  0  2  0  0  0  0  0  0  0  0  0
   28.4670   46.4550   -2.4850 O   0  0  0  0  0  0  0  0  0  0  0  0
   29.6740   44.5810   -3.2400 C   0  0  0  0  0  0  0  0  0  0  0  0
   27.8280   49.6390   -5.0070 N   0  0  0  0  0  0  0  0  0  0  0  0
   29.6830   49.6230   -6.7130 C   0  0  2  0  0  0  0  0  0  0  0  0
   28.9020   47.7310   -7.9280 N   0  0  0  0  0  0  0  0  0  0  0  0
   28.9050   44.1750   -2.0050 C   0  0  0  0  0  0  0  0  0  0  0  0
   28.5390   45.5150   -1.4050 C   0  0  0  0  0  0  0  0  0  0  0  0
   29.1900   50.1020   -5.3210 C   0  0  1  0  0  0  0  0  0  0  0  0
   28.9340   50.0620   -7.9090 N   0  0  0  0  0  0  0  0  0  0  0  0
   28.9460   48.9040   -8.7800 C   0  0  0  0  0  0  0  0  0  0  0  0
   29.5090   51.5490   -4.9410 C   0  0  0  0  0  0  0  0  0  0  0  0
   30.2340   51.6800   -3.7390 N   0  0  0  0  0  0  0  0  0  0  0  0
   29.1980   52.7010   -5.5800 C   0  0  0  0  0  0  0  0  0  0  0  0
   30.6220   52.9270   -3.2110 C   0  0  0  0  0  0  0  0  0  0  0  0
   29.6540   53.9750   -4.9310 C   0  0  0  0  0  0  0  0  0  0  0  0
   28.4800   53.0890   -6.8270 C   0  0  0  0  0  0  0  0  0  0  0  0
   30.6750   50.6970   -2.9050 N   0  0  0  0  0  0  0  0  0  0  0  0
   30.3180   54.1030   -3.8300 N   0  0  0  0  0  0  0  0  0  0  0  0
   29.2270   55.1580   -5.7430 C   0  0  0  0  0  0  0  0  0  0  0  0
   28.9720   54.5150   -7.1020 C   0  0  0  0  0  0  0  0  0  0  0  0
   31.2830   52.7340   -2.0900 N   0  0  0  0  0  0  0  0  0  0  0  0
   31.2880   51.3860   -1.9480 C   0  0  0  0  0  0  0  0  0  0  0  0
  1  2  1  0
  2  3  1  0
  4  1  1  6
  2  5  1  0
  4  6  1  0
  4  7  1  0
  3  8  1  0
  5  9  1  0
  5 10  1  6
  7 11  1  0
  6 12  1  0
 11 12  1  0
  8 13  1  0
  9 13  1  0
  9 14  1  6
 10 15  1  0
 14 15  1  0
 13 16  1  6
 16 17  1  0
 16 18  2  0
 17 19  1  0
 18 20  1  0
 18 21  1  0
 17 22  1  0
 19 23  1  0
 20 23  2  0
 20 24  1  0
 21 25  1  0
 24 25  1  0
 19 26  2  0
 22 27  2  0
 26 27  1  0
M  END
