mac-x0206-mac-x0415
     RDKit          3D

 26 28  0  0  0  0  0  0  0  0999 V2000
   29.2040   49.9630   -5.5510 N   0  0  0  0  0  0  0  0  0  0  0  0
   29.4890   51.0010   -4.6840 C   0  0  0  0  0  0  0  0  0  0  0  0
   29.9210   50.8980   -3.4770 N   0  0  0  0  0  0  0  0  0  0  0  0
   29.3040   52.4260   -5.1320 C   0  0  0  0  0  0  0  0  0  0  0  0
   30.1690   49.6060   -2.8670 C   0  0  0  0  0  0  0  0  0  0  0  0
   29.7250   53.4860   -4.3240 C   0  0  0  0  0  0  0  0  0  0  0  0
   28.7060   52.7110   -6.3700 C   0  0  0  0  0  0  0  0  0  0  0  0
   30.3140   53.2400   -3.1050 O   0  0  0  0  0  0  0  0  0  0  0  0
   30.5600   49.7970   -1.3950 C   0  0  0  0  0  0  0  0  0  0  0  0
   29.5570   54.8090   -4.7380 C   0  0  0  0  0  0  0  0  0  0  0  0
   28.5360   54.0350   -6.7860 C   0  0  0  0  0  0  0  0  0  0  0  0
   30.5290   48.5700   -0.6700 O   0  0  0  0  0  0  0  0  0  0  0  0
   28.9610   55.0800   -5.9710 C   0  0  0  0  0  0  0  0  0  0  0  0
   30.2860   47.4300   -1.4000 C   0  0  0  0  0  0  0  0  0  0  0  0
   29.3080   46.5360   -0.7700 C   0  0  0  0  0  0  0  0  0  0  0  0
   30.8510   47.0940   -2.5880 C   0  0  0  0  0  0  0  0  0  0  0  0
   30.4390   45.8510   -3.1770 C   0  0  0  0  0  0  0  0  0  0  0  0
   28.7040   45.5520   -1.4790 C   0  0  0  0  0  0  0  0  0  0  0  0
   31.1210   45.0150   -3.9530 C   0  0  0  0  0  0  0  0  0  0  0  0
   29.0440   45.4050   -2.9220 C   0  0  2  0  0  0  0  0  0  0  0  0
   32.4860   45.0270   -4.5210 C   0  0  0  0  0  0  0  0  0  0  0  0
   30.1290   43.9430   -4.1240 C   0  0  0  0  0  0  0  0  0  0  0  0
   28.9610   44.0680   -3.5490 N   0  0  0  0  0  0  0  0  0  0  0  0
   32.5440   45.8720   -5.7870 C   0  0  0  0  0  0  0  0  0  0  0  0
   33.6920   46.5860   -5.9270 O   0  0  0  0  0  0  0  0  0  0  0  0
   31.6600   45.9390   -6.6400 O   0  0  0  0  0  0  0  0  0  0  0  0
  1  2  1  0
  2  3  2  3
  2  4  1  0
  3  5  1  0
  4  6  2  0
  4  7  1  0
  6  8  1  0
  5  9  1  0
  6 10  1  0
  7 11  2  0
  9 12  1  0
 10 13  2  0
 11 13  1  0
 12 14  1  0
 14 15  1  0
 14 16  2  0
 16 17  1  0
 15 18  2  0
 17 19  2  0
 17 20  1  0
 20 18  1  1
 19 21  1  0
 19 22  1  0
 20 23  1  0
 22 23  2  0
 21 24  1  0
 24 25  1  0
 24 26  2  0
M  END
