mac-x0360-mac-x0277
     RDKit          3D

 26 27  0  0  0  0  0  0  0  0999 V2000
   32.0950   55.3880   -7.0970 Cl  0  0  0  0  0  0  0  0  0  0  0  0
   32.2250   53.7890   -6.4810 C   0  0  0  0  0  0  0  0  0  0  0  0
   33.4610   53.3170   -6.0360 C   0  0  0  0  0  0  0  0  0  0  0  0
   31.0950   52.9770   -6.4280 C   0  0  0  0  0  0  0  0  0  0  0  0
   31.2090   51.6780   -5.9240 C   0  0  0  0  0  0  0  0  0  0  0  0
   33.5610   52.0220   -5.5360 C   0  0  0  0  0  0  0  0  0  0  0  0
   35.0880   51.4460   -4.9870 Cl  0  0  0  0  0  0  0  0  0  0  0  0
   29.7660   50.6420   -5.8630 S   0  0  0  0  0  0  0  0  0  0  0  0
   32.4420   51.1910   -5.4730 C   0  0  0  0  0  0  0  0  0  0  0  0
   30.4040   49.0950   -5.9740 N   0  0  0  0  0  0  0  0  0  0  0  0
   29.1570   50.8150   -4.5640 O   0  0  0  0  0  0  0  0  0  0  0  0
   29.0200   50.8460   -7.0810 O   0  0  0  0  0  0  0  0  0  0  0  0
   31.5750   48.8450   -6.8250 C   0  0  0  0  0  0  0  0  0  0  0  0
   31.5080   47.4510   -7.4710 C   0  0  0  0  0  0  0  0  0  0  0  0
   31.1770   46.4620   -6.4480 N   0  0  0  0  0  0  0  0  0  0  0  0
   32.0920   45.9430   -5.7140 C   0  0  0  0  0  0  0  0  0  0  0  0
   33.3490   46.3540   -5.9530 O   0  0  0  0  0  0  0  0  0  0  0  0
   31.9940   44.9340   -4.6040 C   0  0  0  0  0  0  0  0  0  0  0  0
   30.9040   45.2550   -3.6040 C   0  0  0  0  0  0  0  0  0  0  0  0
   31.0590   46.2940   -2.6740 C   0  0  0  0  0  0  0  0  0  0  0  0
   29.7120   44.5120   -3.5980 C   0  0  0  0  0  0  0  0  0  0  0  0
   30.0440   46.5900   -1.7560 C   0  0  0  0  0  0  0  0  0  0  0  0
   28.7010   44.8080   -2.6820 C   0  0  0  0  0  0  0  0  0  0  0  0
   30.3180   47.8870   -0.6470 Cl  0  0  0  0  0  0  0  0  0  0  0  0
   28.8620   45.8450   -1.7620 C   0  0  0  0  0  0  0  0  0  0  0  0
   27.5670   46.1520   -0.6650 Cl  0  0  0  0  0  0  0  0  0  0  0  0
  1  2  1  0
  2  3  2  0
  2  4  1  0
  4  5  2  0
  3  6  1  0
  6  7  1  0
  5  8  1  0
  5  9  1  0
  6  9  2  0
  8 10  1  0
  8 11  2  0
  8 12  2  0
 10 13  1  0
 13 14  1  0
 14 15  1  0
 15 16  2  3
 16 17  1  0
 16 18  1  0
 18 19  1  0
 19 20  2  0
 19 21  1  0
 20 22  1  0
 21 23  2  0
 22 24  1  0
 22 25  2  0
 23 25  1  0
 25 26  1  0
M  END
