mac-x0584-mac-x0453
     RDKit          3D

 21 24  0  0  0  0  0  0  0  0999 V2000
   29.7420   54.9640   -6.5300 N   0  0  0  0  0  0  0  0  0  0  0  0
   30.1380   53.5760   -6.2660 C   0  0  0  0  0  0  0  0  0  0  0  0
   29.0340   52.7900   -5.5470 C   0  0  0  0  0  0  0  0  0  0  0  0
   29.0590   51.3310   -5.8940 C   0  0  0  0  0  0  0  0  0  0  0  0
   28.6270   50.9200   -7.1560 N   0  0  0  0  0  0  0  0  0  0  0  0
   29.4720   50.3330   -5.0840 C   0  0  0  0  0  0  0  0  0  0  0  0
   28.7720   49.6210   -7.1380 C   0  0  0  0  0  0  0  0  0  0  0  0
   29.3090   49.1330   -5.8440 C   0  0  0  0  0  0  0  0  0  0  0  0
   28.4740   48.7710   -8.1670 N   0  0  0  0  0  0  0  0  0  0  0  0
   29.5140   47.8160   -5.6670 C   0  0  0  0  0  0  0  0  0  0  0  0
   30.0080   47.2130   -4.5190 N   0  0  0  0  0  0  0  0  0  0  0  0
   29.1890   47.0150   -6.7450 N   0  0  0  0  0  0  0  0  0  0  0  0
   28.6990   47.5230   -7.9140 C   0  0  0  0  0  0  0  0  0  0  0  0
   31.4350   46.9330   -4.2700 C   0  0  2  0  0  0  0  0  0  0  0  0
   29.2700   47.3040   -3.2480 C   0  0  0  0  0  0  0  0  0  0  0  0
   31.9690   45.9350   -5.3120 C   0  0  0  0  0  0  0  0  0  0  0  0
   31.4600   46.4730   -2.8110 C   0  0  0  0  0  0  0  0  0  0  0  0
   30.3310   47.2490   -2.1570 C   0  0  0  0  0  0  0  0  0  0  0  0
   32.5030   44.5280   -4.9220 C   0  0  0  0  0  0  0  0  0  0  0  0
   33.3470   46.2000   -5.9730 C   0  0  0  0  0  0  0  0  0  0  0  0
   33.9330   45.0530   -5.1260 C   0  0  0  0  0  0  0  0  0  0  0  0
  1  2  1  0
  2  3  1  0
  3  4  1  0
  4  5  1  0
  4  6  2  0
  5  7  2  0
  6  8  1  0
  7  8  1  0
  7  9  1  0
  8 10  2  0
 10 11  1  0
 10 12  1  0
  9 13  2  0
 12 13  1  0
 11 14  1  0
 11 15  1  0
 14 16  1  6
 14 17  1  0
 15 18  1  0
 17 18  1  0
 16 19  1  0
 16 20  1  0
 19 21  1  0
 20 21  1  0
M  END
