mac-x0137-mac-x0212
     RDKit          3D

 30 33  0  0  0  0  0  0  0  0999 V2000
   33.1440   47.6900   -3.7870 F   0  0  0  0  0  0  0  0  0  0  0  0
   32.1580   46.9940   -4.4100 C   0  0  2  0  0  0  0  0  0  0  0  0
   32.7300   46.2930   -5.6200 C   0  0  0  0  0  0  0  0  0  0  0  0
   31.0470   47.9710   -4.8360 C   0  0  2  0  0  0  0  0  0  0  0  0
   30.4810   48.8130   -3.6340 C   0  0  0  0  0  0  0  0  0  0  0  0
   29.9400   47.3090   -5.6620 N   0  0  0  0  0  0  0  0  0  0  0  0
   31.5980   45.6500   -6.4090 C   0  0  0  0  0  0  0  0  0  0  0  0
   31.5230   49.0310   -2.6800 O   0  0  0  0  0  0  0  0  0  0  0  0
   29.5530   48.0110   -2.9150 O   0  0  0  0  0  0  0  0  0  0  0  0
   30.2170   45.8750   -5.7810 C   0  0  0  0  0  0  0  0  0  0  0  0
   29.2660   48.0520   -6.6730 C   0  0  0  0  0  0  0  0  0  0  0  0
   29.9060   50.1550   -4.0270 C   0  0  0  0  0  0  0  0  0  0  0  0
   29.5570   47.7380   -8.0000 N   0  0  0  0  0  0  0  0  0  0  0  0
   28.3510   49.0430   -6.5340 C   0  0  0  0  0  0  0  0  0  0  0  0
   30.1590   50.6670   -5.3120 C   0  0  0  0  0  0  0  0  0  0  0  0
   29.1210   50.9080   -3.1430 C   0  0  0  0  0  0  0  0  0  0  0  0
   28.9810   48.3640   -9.0690 C   0  0  0  0  0  0  0  0  0  0  0  0
   27.7660   49.6860   -7.7570 C   0  0  0  0  0  0  0  0  0  0  0  0
   27.6850   49.7590   -5.4880 C   0  0  0  0  0  0  0  0  0  0  0  0
   29.6380   51.8990   -5.7030 C   0  0  0  0  0  0  0  0  0  0  0  0
   28.6000   52.1420   -3.5330 C   0  0  0  0  0  0  0  0  0  0  0  0
   28.1090   49.3110   -9.0160 N   0  0  0  0  0  0  0  0  0  0  0  0
   26.9010   50.6320   -7.4720 N   0  0  0  0  0  0  0  0  0  0  0  0
   26.8770   50.6500   -6.0950 C   0  0  0  0  0  0  0  0  0  0  0  0
   28.8590   52.6310   -4.8110 C   0  0  0  0  0  0  0  0  0  0  0  0
   28.3290   53.8850   -5.2110 N   0  0  0  0  0  0  0  0  0  0  0  0
   29.4360   55.1540   -5.3410 S   0  0  0  0  0  0  0  0  0  0  0  0
   30.7010   54.4280   -6.3650 C   0  0  0  0  0  0  0  0  0  0  0  0
   28.8370   56.2670   -6.0410 O   0  0  0  0  0  0  0  0  0  0  0  0
   29.9880   55.3010   -4.0150 O   0  0  0  0  0  0  0  0  0  0  0  0
  2  1  1  6
  2  3  1  0
  2  4  1  0
  4  5  1  1
  4  6  1  0
  3  7  1  0
  5  8  1  0
  5  9  1  0
  6 10  1  0
  7 10  1  0
  6 11  1  0
  5 12  1  0
 11 13  1  0
 11 14  2  0
 12 15  2  0
 12 16  1  0
 13 17  1  0
 14 18  1  0
 14 19  1  0
 15 20  1  0
 16 21  2  0
 17 22  2  0
 18 22  1  0
 18 23  2  0
 19 24  2  0
 23 24  1  0
 20 25  2  0
 21 25  1  0
 25 26  1  0
 27 26  1  0
 27 28  1  0
 27 29  2  0
 27 30  2  0
M  END
