mac-x0132-mac-x0138
     RDKit          3D

 22 25  0  0  0  0  0  0  0  0999 V2000
   29.4060   51.6840   -6.7350 N   0  0  0  0  0  0  0  0  0  0  0  0
   29.5100   52.5360   -5.6010 C   0  0  0  0  0  0  0  0  0  0  0  0
   30.3540   53.5870   -5.6660 N   0  0  0  0  0  0  0  0  0  0  0  0
   29.4130   50.2740   -6.8000 C   0  0  0  0  0  0  0  0  0  0  0  0
   28.7380   52.2780   -4.4420 C   0  0  0  0  0  0  0  0  0  0  0  0
   30.4630   49.5200   -6.2390 C   0  0  0  0  0  0  0  0  0  0  0  0
   28.4070   49.5820   -7.4090 N   0  0  0  0  0  0  0  0  0  0  0  0
   28.9170   53.1830   -3.3840 C   0  0  0  0  0  0  0  0  0  0  0  0
   30.4310   54.3750   -4.5910 C   0  0  0  0  0  0  0  0  0  0  0  0
   27.8250   51.2010   -4.2790 C   0  0  0  0  0  0  0  0  0  0  0  0
   31.6140   49.8780   -5.5650 N   0  0  0  0  0  0  0  0  0  0  0  0
   30.3740   48.1420   -6.3590 C   0  0  0  0  0  0  0  0  0  0  0  0
   28.4460   48.2390   -7.4540 C   0  0  0  0  0  0  0  0  0  0  0  0
   27.3860   47.6240   -8.0910 N   0  0  0  0  0  0  0  0  0  0  0  0
   29.7560   54.2250   -3.4500 N   0  0  0  0  0  0  0  0  0  0  0  0
   28.1950   52.9980   -2.2120 C   0  0  0  0  0  0  0  0  0  0  0  0
   27.1120   51.0360   -3.0900 C   0  0  0  0  0  0  0  0  0  0  0  0
   31.4960   47.6620   -5.7410 N   0  0  0  0  0  0  0  0  0  0  0  0
   32.2070   48.7370   -5.2810 C   0  0  0  0  0  0  0  0  0  0  0  0
   29.3970   47.4400   -6.9510 N   0  0  0  0  0  0  0  0  0  0  0  0
   31.8530   46.2760   -5.6060 C   0  0  0  0  0  0  0  0  0  0  0  0
   27.2990   51.9400   -2.0530 C   0  0  0  0  0  0  0  0  0  0  0  0
  1  2  1  0
  2  3  2  0
  1  4  1  0
  2  5  1  0
  4  6  1  0
  4  7  2  0
  5  8  2  0
  3  9  1  0
  5 10  1  0
  6 11  1  0
  6 12  2  0
  7 13  1  0
 13 14  1  0
  8 15  1  0
  9 15  2  0
  8 16  1  0
 10 17  2  0
 12 18  1  0
 11 19  2  0
 18 19  1  0
 12 20  1  0
 13 20  2  0
 18 21  1  0
 16 22  2  0
 17 22  1  0
M  END
