mac-x0361-mac-x0433
     RDKit          3D

 12 12  0  0  0  0  0  0  0  0999 V2000
   28.3520   53.5430   -5.7290 N   0  0  0  0  0  0  0  0  0  0  0  0
   29.4150   53.2540   -4.9180 C   0  0  0  0  0  0  0  0  0  0  0  0
   30.1740   54.1330   -4.5230 O   0  0  0  0  0  0  0  0  0  0  0  0
   29.6040   51.8270   -4.5400 C   0  0  0  0  0  0  0  0  0  0  0  0
   29.4960   50.7910   -5.4970 C   0  0  0  0  0  0  0  0  0  0  0  0
   29.8970   51.5310   -3.1850 C   0  0  0  0  0  0  0  0  0  0  0  0
   29.1880   51.0420   -6.9480 C   0  0  0  0  0  0  0  0  0  0  0  0
   30.0140   52.5340   -2.1960 N   0  0  0  0  0  0  0  0  0  0  0  0
   29.6850   49.4640   -5.0780 C   0  0  0  0  0  0  0  0  0  0  0  0
   30.0790   50.1950   -2.8050 C   0  0  0  0  0  0  0  0  0  0  0  0
   29.9720   49.1780   -3.7480 C   0  0  0  0  0  0  0  0  0  0  0  0
   30.1440   47.8690   -3.4070 O   0  0  0  0  0  0  0  0  0  0  0  0
  1  2  1  0
  2  3  2  0
  2  4  1  0
  4  5  2  0
  4  6  1  0
  5  7  1  0
  6  8  1  0
  5  9  1  0
  6 10  2  0
  9 11  2  0
 10 11  1  0
 11 12  1  0
M  END
