mac-x0411-mac-x0576
     RDKit          3D

 28 30  0  0  0  0  0  0  0  0999 V2000
   37.2570   44.0320   -3.1780 Cl  0  0  0  0  0  0  0  0  0  0  0  0
   36.4880   45.5890   -3.1510 C   0  0  0  0  0  0  0  0  0  0  0  0
   35.1130   45.7280   -3.4310 C   0  0  0  0  0  0  0  0  0  0  0  0
   37.2860   46.6910   -2.8430 C   0  0  0  0  0  0  0  0  0  0  0  0
   34.4300   44.5550   -3.7220 O   0  0  0  0  0  0  0  0  0  0  0  0
   34.5110   47.0280   -3.4050 C   0  0  0  0  0  0  0  0  0  0  0  0
   36.7140   47.9600   -2.8110 C   0  0  0  0  0  0  0  0  0  0  0  0
   33.0510   47.3970   -3.6930 C   0  0  0  0  0  0  0  0  0  0  0  0
   33.1950   44.7250   -4.4170 C   0  0  0  0  0  0  0  0  0  0  0  0
   35.3550   48.1200   -3.0870 C   0  0  0  0  0  0  0  0  0  0  0  0
   33.4370   45.0130   -5.8900 C   0  0  0  0  0  0  0  0  0  0  0  0
   31.9190   46.4820   -3.1890 C   0  0  0  0  0  0  0  0  0  0  0  0
   32.2960   44.8830   -6.6080 O   0  0  0  0  0  0  0  0  0  0  0  0
   34.4790   45.3290   -6.4530 O   0  0  0  0  0  0  0  0  0  0  0  0
   30.7310   46.4360   -4.1740 C   0  0  0  0  0  0  0  0  0  0  0  0
   30.0930   47.7380   -4.3370 N   0  0  0  0  0  0  0  0  0  0  0  0
   29.6190   48.3060   -5.4150 C   0  0  0  0  0  0  0  0  0  0  0  0
   29.7000   47.6110   -6.6170 N   0  0  0  0  0  0  0  0  0  0  0  0
   28.9810   49.7110   -5.4220 C   0  0  2  0  0  0  0  0  0  0  0  0
   29.0370   48.1450   -7.7690 C   0  0  2  0  0  0  0  0  0  0  0  0
   28.7260   50.2720   -6.8650 C   0  0  2  0  0  0  0  0  0  0  0  0
   29.7350   50.6470   -4.5600 N   0  0  0  0  0  0  0  0  0  0  0  0
   29.3630   47.5980   -9.0610 N   0  0  0  0  0  0  0  0  0  0  0  0
   29.2230   49.5450   -8.0060 N   0  0  0  0  0  0  0  0  0  0  0  0
   29.1500   51.6390   -7.0370 N   0  0  0  0  0  0  0  0  0  0  0  0
   29.1460   51.9950   -4.6080 C   0  0  0  0  0  0  0  0  0  0  0  0
   29.1090   52.5540   -6.0270 C   0  0  0  0  0  0  0  0  0  0  0  0
   29.0380   53.7600   -6.2560 O   0  0  0  0  0  0  0  0  0  0  0  0
  1  2  1  0
  2  3  2  0
  2  4  1  0
  3  5  1  0
  3  6  1  0
  4  7  2  0
  6  8  1  0
  5  9  1  0
  6 10  2  0
  7 10  1  0
  9 11  1  0
  8 12  1  0
 11 13  1  0
 11 14  2  0
 12 15  1  0
 15 16  1  0
 16 17  2  3
 17 18  1  0
 17 19  1  0
 18 20  1  0
 19 21  1  0
 19 22  1  6
 20 23  1  6
 20 24  1  0
 21 24  1  6
 21 25  1  0
 22 26  1  0
 25 27  1  0
 26 27  1  0
 27 28  2  0
M  END
