mac-x0284-mac-x0337
     RDKit          3D

 21 22  0  0  0  0  0  0  0  0999 V2000
   28.5530   50.3960   -5.8480 C   0  0  0  0  0  0  0  0  0  0  0  0
   29.4240   51.8390   -5.4640 S   0  0  0  0  0  0  0  0  0  0  0  0
   29.0520   52.1240   -4.1000 O   0  0  0  0  0  0  0  0  0  0  0  0
   29.2150   49.5200   -4.9170 C   0  0  0  0  0  0  0  0  0  0  0  0
   29.1620   52.6860   -6.5810 O   0  0  0  0  0  0  0  0  0  0  0  0
   29.5120   48.2730   -5.3500 C   0  0  0  0  0  0  0  0  0  0  0  0
   29.5480   49.9510   -3.6260 C   0  0  0  0  0  0  0  0  0  0  0  0
   31.2050   51.5950   -5.4200 C   0  0  0  0  0  0  0  0  0  0  0  0
   30.1580   47.3990   -4.5200 C   0  0  0  0  0  0  0  0  0  0  0  0
   30.2010   49.0840   -2.7740 C   0  0  0  0  0  0  0  0  0  0  0  0
   31.8890   50.3700   -5.3110 C   0  0  0  0  0  0  0  0  0  0  0  0
   31.9160   52.7840   -5.5030 C   0  0  0  0  0  0  0  0  0  0  0  0
   30.4340   46.0730   -5.0860 C   0  0  0  0  0  0  0  0  0  0  0  0
   30.5100   47.8010   -3.2240 C   0  0  0  0  0  0  0  0  0  0  0  0
   33.3000   50.3800   -5.2890 C   0  0  0  0  0  0  0  0  0  0  0  0
   33.3010   52.7850   -5.4820 C   0  0  0  0  0  0  0  0  0  0  0  0
   31.1540   46.9560   -2.3770 O   0  0  0  0  0  0  0  0  0  0  0  0
   30.2120   45.6980   -6.2200 O   0  0  0  0  0  0  0  0  0  0  0  0
   30.9870   45.2500   -4.1810 O   0  0  0  0  0  0  0  0  0  0  0  0
   34.0090   51.5930   -5.3760 C   0  0  0  0  0  0  0  0  0  0  0  0
   35.5090   51.6390   -5.3550 C   0  0  0  0  0  0  0  0  0  0  0  0
  2  1  1  0
  2  3  2  0
  1  4  1  0
  2  5  2  0
  4  6  2  0
  4  7  1  0
  2  8  1  0
  6  9  1  0
  7 10  2  0
  8 11  2  0
  8 12  1  0
  9 13  1  0
  9 14  2  0
 10 14  1  0
 11 15  1  0
 12 16  2  0
 14 17  1  0
 13 18  2  0
 13 19  1  0
 15 20  2  0
 16 20  1  0
 20 21  1  0
M  END
