mac-x0123-mac-x0346
     RDKit          3D

 18 20  0  0  0  0  0  0  0  0999 V2000
   27.1980   52.2350   -6.7170 N   0  0  0  0  0  0  0  0  0  0  0  0
   28.6430   52.0130   -6.6160 C   0  0  1  0  0  0  0  0  0  0  0  0
   29.4350   53.3340   -6.6940 C   0  0  2  0  0  0  0  0  0  0  0  0
   28.8790   51.2780   -5.3720 N   0  0  0  0  0  0  0  0  0  0  0  0
   28.7340   52.1270   -4.1870 C   0  0  2  0  0  0  0  0  0  0  0  0
   29.1760   54.1910   -5.4350 C   0  0  2  0  0  0  0  0  0  0  0  0
   29.0330   54.2260   -7.8340 C   0  0  0  0  0  0  0  0  0  0  0  0
   30.2420   50.6840   -5.3320 N   0  0  0  0  0  0  0  0  0  0  0  0
   28.3390   53.4970   -4.4490 N   0  0  0  0  0  0  0  0  0  0  0  0
   28.4960   55.4870   -5.9270 C   0  0  0  0  0  0  0  0  0  0  0  0
   28.5260   55.3890   -7.4170 C   0  0  0  0  0  0  0  0  0  0  0  0
   30.0090   52.0980   -3.5450 N   0  0  0  0  0  0  0  0  0  0  0  0
   30.8120   51.0430   -4.0470 C   0  0  1  0  0  0  0  0  0  0  0  0
   30.3900   52.7470   -2.4050 C   0  0  0  0  0  0  0  0  0  0  0  0
   30.7090   49.9360   -3.1850 O   0  0  0  0  0  0  0  0  0  0  0  0
   31.5970   53.4130   -2.4380 N   0  0  0  0  0  0  0  0  0  0  0  0
   29.7010   52.7460   -1.3810 O   0  0  0  0  0  0  0  0  0  0  0  0
   31.7540   54.3650   -1.3890 O   0  0  0  0  0  0  0  0  0  0  0  0
  2  1  1  1
  2  3  1  0
  2  4  1  0
  4  5  1  0
  3  6  1  0
  3  7  1  6
  4  8  1  0
  5  9  1  6
  6  9  1  0
  6 10  1  6
  7 11  2  0
 10 11  1  0
  5 12  1  0
  8 13  1  0
 12 13  1  0
 12 14  1  0
 13 15  1  1
 14 16  1  0
 14 17  2  0
 16 18  1  0
M  END
