mac-x0282-mac-x0301
     RDKit          3D

 12 13  0  0  0  0  0  0  0  0999 V2000
   30.2240   46.6420   -3.9230 O   0  0  0  0  0  0  0  0  0  0  0  0
   30.3940   47.9800   -3.8430 C   0  0  0  0  0  0  0  0  0  0  0  0
   30.9960   48.4460   -2.8840 O   0  0  0  0  0  0  0  0  0  0  0  0
   29.8270   48.7440   -4.9410 C   0  0  0  0  0  0  0  0  0  0  0  0
   29.5320   50.1030   -4.8750 C   0  0  0  0  0  0  0  0  0  0  0  0
   29.4610   48.3140   -6.2570 C   0  0  0  0  0  0  0  0  0  0  0  0
   28.9640   49.4240   -6.9320 C   0  0  0  0  0  0  0  0  0  0  0  0
   29.0140   50.4930   -6.0830 N   0  0  0  0  0  0  0  0  0  0  0  0
   29.4910   47.1020   -6.9700 C   0  0  0  0  0  0  0  0  0  0  0  0
   29.0250   47.1050   -8.2870 C   0  0  0  0  0  0  0  0  0  0  0  0
   28.5050   49.4880   -8.1930 N   0  0  0  0  0  0  0  0  0  0  0  0
   28.5560   48.2940   -8.8310 C   0  0  0  0  0  0  0  0  0  0  0  0
  1  2  1  0
  2  3  2  0
  2  4  1  0
  4  5  2  0
  4  6  1  0
  6  7  2  0
  5  8  1  0
  7  8  1  0
  6  9  1  0
  9 10  2  0
  7 11  1  0
 10 12  1  0
 11 12  2  0
M  END
