mac-x0396-mac-x0224
     RDKit          3D

 20 21  0  0  0  0  0  0  0  0999 V2000
   28.9840   50.5760   -5.9940 N   0  0  0  0  0  0  0  0  0  0  0  0
   28.1630   51.5730   -5.4360 C   0  0  0  0  0  0  0  0  0  0  0  0
   26.9410   51.4580   -5.3210 O   0  0  0  0  0  0  0  0  0  0  0  0
   29.4280   50.8000   -7.3690 C   0  0  0  0  0  0  0  0  0  0  0  0
   29.6880   49.5800   -5.2400 C   0  0  0  0  0  0  0  0  0  0  0  0
   28.7630   52.8400   -4.9560 C   0  0  0  0  0  0  0  0  0  0  0  0
   29.7980   48.2630   -5.7170 C   0  0  0  0  0  0  0  0  0  0  0  0
   30.2840   49.8820   -4.0080 C   0  0  0  0  0  0  0  0  0  0  0  0
   28.5650   53.2210   -3.6330 C   0  0  0  0  0  0  0  0  0  0  0  0
   29.5220   53.6760   -5.7760 C   0  0  0  0  0  0  0  0  0  0  0  0
   30.4830   47.2680   -4.9900 C   0  0  0  0  0  0  0  0  0  0  0  0
   30.9680   48.9040   -3.2760 C   0  0  0  0  0  0  0  0  0  0  0  0
   30.5400   45.9100   -5.5870 C   0  0  0  0  0  0  0  0  0  0  0  0
   29.0700   54.3630   -3.0970 N   0  0  0  0  0  0  0  0  0  0  0  0
   30.0510   54.8500   -5.2500 C   0  0  0  0  0  0  0  0  0  0  0  0
   31.0650   47.6060   -3.7650 C   0  0  0  0  0  0  0  0  0  0  0  0
   31.7540   46.7230   -2.9780 O   0  0  0  0  0  0  0  0  0  0  0  0
   30.5270   45.6450   -6.7750 O   0  0  0  0  0  0  0  0  0  0  0  0
   30.6150   44.9290   -4.6630 O   0  0  0  0  0  0  0  0  0  0  0  0
   29.8000   55.1500   -3.9170 C   0  0  0  0  0  0  0  0  0  0  0  0
  1  2  1  0
  2  3  2  0
  1  4  1  0
  1  5  1  0
  2  6  1  0
  5  7  2  0
  5  8  1  0
  6  9  2  0
  6 10  1  0
  7 11  1  0
  8 12  2  0
 11 13  1  0
  9 14  1  0
 10 15  2  0
 11 16  2  0
 12 16  1  0
 16 17  1  0
 13 18  2  0
 13 19  1  0
 14 20  2  0
 15 20  1  0
M  END
