mac-x0587-mac-x0223
     RDKit          3D

 24 25  0  0  0  0  0  0  0  0999 V2000
   29.2730   45.7980   -5.2340 C   0  0  0  0  0  0  0  0  0  0  0  0
   30.5680   46.5630   -5.0120 C   0  0  2  0  0  0  0  0  0  0  0  0
   31.7320   45.6020   -4.1400 S   0  0  1  0  0  0  0  0  0  0  0  0
   30.4260   47.9680   -4.3680 C   0  0  0  0  0  0  0  0  0  0  0  0
   33.3630   46.0570   -4.6060 C   0  0  0  0  0  0  0  0  0  0  0  0
   31.1040   48.2490   -3.3720 O   0  0  0  0  0  0  0  0  0  0  0  0
   29.5690   48.8770   -4.8820 N   0  0  0  0  0  0  0  0  0  0  0  0
   30.8470   46.0960   -2.7960 C   0  0  0  0  0  0  0  0  0  0  0  0
   33.6210   45.8490   -6.0720 C   0  0  0  0  0  0  0  0  0  0  0  0
   29.3740   50.2350   -4.4190 C   0  0  0  0  0  0  0  0  0  0  0  0
   29.1400   48.7750   -6.2020 C   0  0  0  0  0  0  0  0  0  0  0  0
   31.2030   47.0850   -1.9180 C   0  0  0  0  0  0  0  0  0  0  0  0
   29.6500   45.3990   -2.7200 C   0  0  0  0  0  0  0  0  0  0  0  0
   34.6720   45.9320   -6.6820 O   0  0  0  0  0  0  0  0  0  0  0  0
   32.4860   45.5270   -6.7350 O   0  0  0  0  0  0  0  0  0  0  0  0
   29.0680   47.7890   -6.9090 O   0  0  0  0  0  0  0  0  0  0  0  0
   29.1660   51.0350   -5.6890 C   0  0  0  0  0  0  0  0  0  0  0  0
   28.7780   50.0440   -6.6470 N   0  0  0  0  0  0  0  0  0  0  0  0
   28.7460   45.7070   -1.7430 C   0  0  0  0  0  0  0  0  0  0  0  0
   30.2940   47.4100   -0.9250 C   0  0  0  0  0  0  0  0  0  0  0  0
   27.5310   45.1050   -1.5650 O   0  0  0  0  0  0  0  0  0  0  0  0
   29.0790   46.7270   -0.8550 C   0  0  0  0  0  0  0  0  0  0  0  0
   27.4120   43.7860   -2.0880 C   0  0  0  0  0  0  0  0  0  0  0  0
   28.2020   47.0870    0.1200 O   0  0  0  0  0  0  0  0  0  0  0  0
  2  1  1  1
  2  3  1  0
  2  4  1  0
  3  5  1  1
  4  6  2  0
  4  7  1  0
  3  8  1  0
  5  9  1  0
  7 10  1  0
  7 11  1  0
  8 12  2  0
  8 13  1  0
  9 14  2  0
  9 15  1  0
 11 16  2  0
 10 17  1  0
 11 18  1  0
 17 18  1  0
 13 19  2  0
 12 20  1  0
 19 21  1  0
 19 22  1  0
 20 22  2  0
 21 23  1  0
 22 24  1  0
M  END
