mac-x0373-mac-x0148
     RDKit          3D

 30 34  0  0  0  0  0  0  0  0999 V2000
   32.5380   48.5430   -8.3590 O   0  0  0  0  0  0  0  0  0  0  0  0
   32.1940   47.9110   -7.2190 C   0  0  0  0  0  0  0  0  0  0  0  0
   31.9260   46.7160   -7.2810 O   0  0  0  0  0  0  0  0  0  0  0  0
   32.1880   48.7740   -5.9590 C   0  0  2  0  0  0  0  0  0  0  0  0
   33.2580   48.4070   -4.9320 C   0  0  0  0  0  0  0  0  0  0  0  0
   30.8040   49.2960   -5.3650 C   0  0  1  0  0  0  0  0  0  0  0  0
   33.9730   47.2000   -4.9380 C   0  0  0  0  0  0  0  0  0  0  0  0
   33.5430   49.3350   -3.9130 C   0  0  0  0  0  0  0  0  0  0  0  0
   30.8200   50.8220   -5.5690 C   0  0  0  0  0  0  0  0  0  0  0  0
   29.3970   48.7160   -5.8380 C   0  0  1  0  0  0  0  0  0  0  0  0
   34.9370   46.9330   -3.9610 C   0  0  0  0  0  0  0  0  0  0  0  0
   34.5040   49.0690   -2.9390 C   0  0  0  0  0  0  0  0  0  0  0  0
   29.7240   51.5560   -5.3280 C   0  0  0  0  0  0  0  0  0  0  0  0
   28.3300   49.5960   -5.0940 C   0  0  0  0  0  0  0  0  0  0  0  0
   29.1180   48.9630   -7.3640 C   0  0  0  0  0  0  0  0  0  0  0  0
   29.1760   47.1500   -5.6090 C   0  0  1  0  0  0  0  0  0  0  0  0
   35.2030   47.8670   -2.9620 C   0  0  0  0  0  0  0  0  0  0  0  0
   28.5190   50.9090   -4.8760 C   0  0  0  0  0  0  0  0  0  0  0  0
   29.4160   46.4150   -4.3430 N   0  0  0  0  0  0  0  0  0  0  0  0
   27.7570   46.8210   -5.9120 N   0  0  0  0  0  0  0  0  0  0  0  0
   28.0580   48.0940   -7.8980 N   0  0  0  0  0  0  0  0  0  0  0  0
   29.8820   47.0820   -3.1170 C   0  0  1  0  0  0  0  0  0  0  0  0
   30.0890   45.1220   -4.5920 C   0  0  0  0  0  0  0  0  0  0  0  0
   27.1270   47.7200   -6.8610 C   0  0  0  0  0  0  0  0  0  0  0  0
   29.4540   46.4560   -1.7860 C   0  0  0  0  0  0  0  0  0  0  0  0
   31.4030   47.1350   -2.8900 C   0  0  1  0  0  0  0  0  0  0  0  0
   31.6090   45.2490   -4.5090 C   0  0  0  0  0  0  0  0  0  0  0  0
   31.4930   47.5150   -1.4280 C   0  0  0  0  0  0  0  0  0  0  0  0
   30.3870   46.8840   -0.7730 O   0  0  0  0  0  0  0  0  0  0  0  0
   32.0710   45.7910   -3.1670 C   0  0  0  0  0  0  0  0  0  0  0  0
  1  2  1  0
  2  3  2  0
  4  2  1  1
  4  5  1  0
  4  6  1  0
  5  7  2  0
  5  8  1  0
  6  9  1  6
  6 10  1  0
  7 11  1  0
  8 12  2  0
  9 13  2  0
 10 14  1  1
 10 15  1  0
 10 16  1  0
 11 17  2  0
 12 17  1  0
 13 18  1  0
 14 18  2  0
 16 19  1  1
 16 20  1  0
 15 21  1  0
 19 22  1  0
 19 23  1  0
 20 24  1  0
 21 24  1  0
 22 25  1  1
 22 26  1  0
 23 27  1  0
 26 28  1  1
 25 29  1  0
 28 29  1  0
 26 30  1  0
 27 30  1  0
M  END
