mac-x0385-mac-x0213
     RDKit          3D

 22 24  0  0  0  0  0  0  0  0999 V2000
   29.2060   51.9400   -2.7140 C   0  0  0  0  0  0  0  0  0  0  0  0
   29.1380   50.8600   -3.7370 C   0  0  0  0  0  0  0  0  0  0  0  0
   29.5470   49.5730   -3.4570 C   0  0  0  0  0  0  0  0  0  0  0  0
   28.6710   51.0550   -5.0250 C   0  0  0  0  0  0  0  0  0  0  0  0
   28.2240   52.3090   -5.4540 N   0  0  0  0  0  0  0  0  0  0  0  0
   28.6140   50.0830   -5.9440 N   0  0  0  0  0  0  0  0  0  0  0  0
   29.5090   48.5670   -4.3420 N   0  0  0  0  0  0  0  0  0  0  0  0
   29.0400   48.8620   -5.5640 C   0  0  0  0  0  0  0  0  0  0  0  0
   28.9840   47.7520   -6.5790 C   0  0  0  0  0  0  0  0  0  0  0  0
   29.6180   46.4550   -6.0770 C   0  0  0  0  0  0  0  0  0  0  0  0
   30.9930   46.2980   -6.5430 N   0  0  0  0  0  0  0  0  0  0  0  0
   31.9560   45.8630   -5.8170 C   0  0  0  0  0  0  0  0  0  0  0  0
   33.2230   45.7230   -6.2500 O   0  0  0  0  0  0  0  0  0  0  0  0
   31.8090   45.4500   -4.3660 C   0  0  0  0  0  0  0  0  0  0  0  0
   31.5980   46.6560   -3.4300 C   0  0  0  0  0  0  0  0  0  0  0  0
   30.6280   44.4730   -4.1970 C   0  0  0  0  0  0  0  0  0  0  0  0
   30.3630   46.2970   -2.6650 C   0  0  0  0  0  0  0  0  0  0  0  0
   29.8220   45.0820   -3.0910 C   0  0  0  0  0  0  0  0  0  0  0  0
   29.7650   47.0240   -1.6460 C   0  0  0  0  0  0  0  0  0  0  0  0
   28.6720   44.5690   -2.5090 C   0  0  0  0  0  0  0  0  0  0  0  0
   28.6080   46.5150   -1.0540 C   0  0  0  0  0  0  0  0  0  0  0  0
   28.0650   45.2950   -1.4830 C   0  0  0  0  0  0  0  0  0  0  0  0
  1  2  1  0
  2  3  2  0
  2  4  1  0
  4  5  1  0
  4  6  2  0
  3  7  1  0
  6  8  1  0
  7  8  2  0
  8  9  1  0
  9 10  1  0
 10 11  1  0
 11 12  2  3
 12 13  1  0
 12 14  1  0
 14 15  1  0
 14 16  1  0
 15 17  1  0
 16 18  1  0
 17 18  2  0
 17 19  1  0
 18 20  1  0
 19 21  2  0
 20 22  2  0
 21 22  1  0
M  END
