mac-x0306-mac-x0124
     RDKit          3D

 20 23  0  0  0  0  0  0  0  0999 V2000
   31.7530   49.0130   -5.2200 C   0  0  0  0  0  0  0  0  0  0  0  0
   30.5790   48.1950   -4.9380 N   0  0  0  0  0  0  0  0  0  0  0  0
   29.8200   48.6750   -3.7640 C   0  0  0  0  0  0  0  0  0  0  0  0
   29.5420   48.2930   -5.9770 C   0  0  1  0  0  0  0  0  0  0  0  0
   28.5650   49.3940   -4.1390 N   0  0  0  0  0  0  0  0  0  0  0  0
   28.7740   49.5860   -5.6070 C   0  0  1  0  0  0  0  0  0  0  0  0
   30.1400   48.3250   -7.2920 N   0  0  0  0  0  0  0  0  0  0  0  0
   28.2340   50.4920   -3.3660 C   0  0  0  0  0  0  0  0  0  0  0  0
   29.4760   50.9420   -5.8620 C   0  0  0  0  0  0  0  0  0  0  0  0
   27.5090   49.4040   -6.5140 C   0  0  2  0  0  0  0  0  0  0  0  0
   29.1820   48.8310   -8.2590 C   0  0  0  0  0  0  0  0  0  0  0  0
   26.4260   48.6160   -5.9420 N   0  0  0  0  0  0  0  0  0  0  0  0
   28.3050   51.7650   -3.7820 C   0  0  0  0  0  0  0  0  0  0  0  0
   28.7640   52.1250   -5.1760 C   0  0  1  0  0  0  0  0  0  0  0  0
   27.8000   48.7410   -7.7810 N   0  0  0  0  0  0  0  0  0  0  0  0
   29.6310   53.3640   -5.2370 C   0  0  0  0  0  0  0  0  0  0  0  0
   29.7230   54.1510   -6.3630 N   0  0  0  0  0  0  0  0  0  0  0  0
   30.3880   53.8470   -4.2710 N   0  0  0  0  0  0  0  0  0  0  0  0
   30.9780   54.9710   -4.7890 C   0  0  0  0  0  0  0  0  0  0  0  0
   30.5810   55.1790   -6.0850 C   0  0  0  0  0  0  0  0  0  0  0  0
  1  2  1  0
  2  3  1  0
  2  4  1  0
  3  5  1  0
  4  6  1  0
  5  6  1  0
  4  7  1  6
  5  8  1  0
  6  9  1  1
  6 10  1  0
  7 11  1  0
 10 12  1  1
  8 13  2  0
  9 14  1  0
 13 14  1  0
 10 15  1  0
 11 15  1  0
 14 16  1  1
 16 17  1  0
 16 18  2  0
 18 19  1  0
 17 20  1  0
 19 20  2  0
M  END
