mac-x0321-mac-x0132
     RDKit          3D

 15 16  0  0  0  0  0  0  0  0999 V2000
   29.6910   52.4300   -7.3260 Cl  0  0  0  0  0  0  0  0  0  0  0  0
   29.5830   51.8660   -5.5830 C   0  0  2  0  0  0  0  0  0  0  0  0
   29.7430   50.3250   -5.6720 C   0  0  0  0  0  0  0  0  0  0  0  0
   28.2840   52.4390   -4.9510 C   0  0  1  0  0  0  0  0  0  0  0  0
   30.7520   52.5450   -4.8160 C   0  0  0  0  0  0  0  0  0  0  0  0
   29.4790   49.5180   -4.3880 C   0  0  1  0  0  0  0  0  0  0  0  0
   28.0710   52.1600   -3.4450 C   0  0  0  0  0  0  0  0  0  0  0  0
   30.3990   53.8610   -4.2550 N   0  0  0  0  0  0  0  0  0  0  0  0
   28.1920   53.8960   -5.2040 N   0  0  0  0  0  0  0  0  0  0  0  0
   30.3190   48.2370   -4.4350 C   0  0  0  0  0  0  0  0  0  0  0  0
   29.1850   51.4330   -2.7470 C   0  0  0  0  0  0  0  0  0  0  0  0
   29.7930   50.3060   -3.1380 C   0  0  0  0  0  0  0  0  0  0  0  0
   29.4650   54.5980   -5.0800 C   0  0  0  0  0  0  0  0  0  0  0  0
   29.6640   47.2240   -5.0450 O   0  0  0  0  0  0  0  0  0  0  0  0
   31.4460   48.0560   -4.0080 O   0  0  0  0  0  0  0  0  0  0  0  0
  2  1  1  6
  2  3  1  0
  2  4  1  0
  2  5  1  0
  3  6  1  0
  4  7  1  1
  5  8  1  0
  4  9  1  0
  6 10  1  6
  7 11  1  0
  6 12  1  0
 11 12  2  0
  8 13  1  0
  9 13  1  0
 10 14  1  0
 10 15  2  0
M  END
