mac-x0572-mac-x0282
     RDKit          3D

 18 20  0  0  0  0  0  0  0  0999 V2000
   28.8780   56.0600   -6.9940 C   0  0  0  0  0  0  0  0  0  0  0  0
   29.4380   54.6790   -6.6400 C   0  0  2  0  0  0  0  0  0  0  0  0
   28.4460   53.6840   -7.1100 N   0  0  0  0  0  0  0  0  0  0  0  0
   30.0040   54.6490   -5.1880 C   0  0  1  0  0  0  0  0  0  0  0  0
   29.6200   55.7880   -4.4200 O   0  0  0  0  0  0  0  0  0  0  0  0
   29.6500   53.3900   -4.4040 C   0  0  0  0  0  0  0  0  0  0  0  0
   28.3760   52.3940   -6.4060 C   0  0  2  0  0  0  0  0  0  0  0  0
   30.3040   53.1130   -3.3910 O   0  0  0  0  0  0  0  0  0  0  0  0
   28.4760   52.5230   -4.8760 C   0  0  1  0  0  0  0  0  0  0  0  0
   29.3180   51.3070   -6.9570 C   0  0  0  0  0  0  0  0  0  0  0  0
   29.1230   49.9050   -6.3260 C   0  0  1  0  0  0  0  0  0  0  0  0
   28.4200   51.1580   -4.2310 C   0  0  0  0  0  0  0  0  0  0  0  0
   28.6900   50.0080   -4.8830 C   0  0  0  0  0  0  0  0  0  0  0  0
   28.1330   49.1570   -7.1290 N   0  0  0  0  0  0  0  0  0  0  0  0
   30.3890   49.0860   -6.2520 C   0  0  0  0  0  0  0  0  0  0  0  0
   30.4990   47.8170   -6.6750 C   0  0  0  0  0  0  0  0  0  0  0  0
   28.2600   47.8310   -7.4760 C   0  0  0  0  0  0  0  0  0  0  0  0
   29.3780   47.1410   -7.2690 C   0  0  0  0  0  0  0  0  0  0  0  0
  2  1  1  1
  2  3  1  0
  2  4  1  0
  4  5  1  1
  4  6  1  0
  3  7  1  0
  6  8  2  0
  6  9  1  0
  7  9  1  0
  7 10  1  6
 11 10  1  6
  9 12  1  1
 11 13  1  0
 12 13  2  0
 11 14  1  0
 11 15  1  0
 15 16  2  0
 14 17  1  0
 16 18  1  0
 17 18  2  0
M  END
