mac-x0123-mac-x0565
     RDKit          3D

 20 23  0  0  0  0  0  0  0  0999 V2000
   29.1000   51.7980   -8.0000 N   0  0  0  0  0  0  0  0  0  0  0  0
   29.2930   52.3740   -6.7460 C   0  0  0  0  0  0  0  0  0  0  0  0
   29.2770   53.7510   -6.5340 C   0  0  0  0  0  0  0  0  0  0  0  0
   29.5140   51.6010   -5.6170 C   0  0  0  0  0  0  0  0  0  0  0  0
   29.6920   52.2250   -4.4010 C   0  0  0  0  0  0  0  0  0  0  0  0
   29.4780   54.2710   -5.2450 C   0  0  0  0  0  0  0  0  0  0  0  0
   29.0630   54.8610   -7.5120 C   0  0  0  0  0  0  0  0  0  0  0  0
   29.5820   50.1800   -5.5270 N   0  0  0  0  0  0  0  0  0  0  0  0
   29.6910   53.5430   -4.1450 N   0  0  0  0  0  0  0  0  0  0  0  0
   29.4200   55.7710   -5.2500 C   0  0  0  0  0  0  0  0  0  0  0  0
   29.6190   56.0690   -6.7370 C   0  0  0  0  0  0  0  0  0  0  0  0
   29.8640   51.2730   -3.4420 N   0  0  0  0  0  0  0  0  0  0  0  0
   29.9540   49.9690   -4.1030 C   0  0  2  0  0  0  0  0  0  0  0  0
   29.2950   51.4580   -2.2380 C   0  0  0  0  0  0  0  0  0  0  0  0
   31.2990   49.2370   -3.9840 C   0  0  0  0  0  0  0  0  0  0  0  0
   28.9810   49.0600   -3.6090 O   0  0  0  0  0  0  0  0  0  0  0  0
   27.9470   51.3580   -2.2490 O   0  0  0  0  0  0  0  0  0  0  0  0
   29.9050   51.7260   -1.2150 O   0  0  0  0  0  0  0  0  0  0  0  0
   30.9930   47.9170   -3.4900 O   0  0  0  0  0  0  0  0  0  0  0  0
   29.5980   47.7840   -3.7240 C   0  0  0  0  0  0  0  0  0  0  0  0
  1  2  1  0
  2  3  2  0
  2  4  1  0
  4  5  2  0
  3  6  1  0
  3  7  1  0
  4  8  1  0
  5  9  1  0
  6  9  2  0
  6 10  1  0
  7 11  1  0
 10 11  1  0
  5 12  1  0
  8 13  1  0
 12 13  1  0
 12 14  1  0
 13 15  1  6
 13 16  1  0
 14 17  1  0
 14 18  2  0
 15 19  1  0
 16 20  1  0
 19 20  1  0
M  END
