mac-x0338-mac-x0302
     RDKit          3D

 16 16  0  0  0  0  0  0  0  0999 V2000
   28.5900   51.8920   -7.6580 N   0  0  0  0  0  0  0  0  0  0  0  0
   28.9200   52.4940   -6.4750 C   0  0  0  0  0  0  0  0  0  0  0  0
   28.8890   53.7110   -6.3300 O   0  0  0  0  0  0  0  0  0  0  0  0
   29.3140   51.5980   -5.3530 C   0  0  0  0  0  0  0  0  0  0  0  0
   29.2540   50.2500   -5.6030 N   0  0  0  0  0  0  0  0  0  0  0  0
   29.7130   52.1390   -4.1260 C   0  0  0  0  0  0  0  0  0  0  0  0
   29.7740   53.4910   -3.8690 O   0  0  0  0  0  0  0  0  0  0  0  0
   29.6070   49.4550   -4.5680 C   0  0  0  0  0  0  0  0  0  0  0  0
   30.0720   51.3490   -3.0930 N   0  0  0  0  0  0  0  0  0  0  0  0
   30.0070   50.0250   -3.3390 C   0  0  0  0  0  0  0  0  0  0  0  0
   29.5660   48.0400   -4.7040 N   0  0  0  0  0  0  0  0  0  0  0  0
   30.3520   49.2040   -2.3020 O   0  0  0  0  0  0  0  0  0  0  0  0
   30.7400   47.2540   -4.2850 C   0  0  0  0  0  0  0  0  0  0  0  0
   30.9500   46.0530   -5.2100 C   0  0  0  0  0  0  0  0  0  0  0  0
   30.9690   44.8670   -4.5590 O   0  0  0  0  0  0  0  0  0  0  0  0
   31.0890   46.0750   -6.4210 O   0  0  0  0  0  0  0  0  0  0  0  0
  1  2  1  0
  2  3  2  0
  2  4  1  0
  4  5  2  0
  4  6  1  0
  6  7  1  0
  5  8  1  0
  6  9  2  0
  8 10  2  0
  9 10  1  0
  8 11  1  0
 10 12  1  0
 11 13  1  0
 13 14  1  0
 14 15  1  0
 14 16  2  0
M  END
