mac-x0437-mac-x0231
     RDKit          3D

 25 28  0  0  0  0  0  0  0  0999 V2000
   31.5740   44.8620   -7.1260 O   0  0  0  0  0  0  0  0  0  0  0  0
   32.7030   44.8170   -6.4170 C   0  0  0  0  0  0  0  0  0  0  0  0
   33.7800   44.6760   -6.9780 O   0  0  0  0  0  0  0  0  0  0  0  0
   32.5560   44.9880   -4.9370 C   0  0  2  0  0  0  0  0  0  0  0  0
   33.6630   44.5180   -4.0510 C   0  0  0  0  0  0  0  0  0  0  0  0
   31.2150   44.8810   -4.2490 C   0  0  1  0  0  0  0  0  0  0  0  0
   34.5670   45.5270   -3.6280 N   0  0  0  0  0  0  0  0  0  0  0  0
   30.6800   46.2870   -3.9790 C   0  0  1  0  0  0  0  0  0  0  0  0
   30.1590   43.9990   -4.7170 N   0  0  0  0  0  0  0  0  0  0  0  0
   34.4540   46.8900   -3.7480 C   0  0  0  0  0  0  0  0  0  0  0  0
   35.7250   45.2450   -3.0250 C   0  0  0  0  0  0  0  0  0  0  0  0
   29.5730   46.2620   -2.9190 C   0  0  1  0  0  0  0  0  0  0  0  0
   29.1640   43.9030   -3.7380 N   0  0  0  0  0  0  0  0  0  0  0  0
   31.8420   47.2160   -3.6410 C   0  0  0  0  0  0  0  0  0  0  0  0
   35.5000   47.5020   -3.2500 N   0  0  0  0  0  0  0  0  0  0  0  0
   36.3020   46.4820   -2.8010 C   0  0  0  0  0  0  0  0  0  0  0  0
   36.3030   44.0320   -2.6710 C   0  0  0  0  0  0  0  0  0  0  0  0
   28.8720   44.8980   -2.8080 C   0  0  0  0  0  0  0  0  0  0  0  0
   30.0160   46.7430   -1.5500 C   0  0  0  0  0  0  0  0  0  0  0  0
   32.0510   47.7270   -2.4270 C   0  0  0  0  0  0  0  0  0  0  0  0
   28.0500   44.6740   -1.9280 O   0  0  0  0  0  0  0  0  0  0  0  0
   37.5510   46.5270   -2.1830 C   0  0  0  0  0  0  0  0  0  0  0  0
   37.5450   44.0940   -2.0560 C   0  0  0  0  0  0  0  0  0  0  0  0
   31.1620   47.4190   -1.3440 C   0  0  0  0  0  0  0  0  0  0  0  0
   38.1630   45.3200   -1.8160 C   0  0  0  0  0  0  0  0  0  0  0  0
  1  2  1  0
  2  3  2  0
  2  4  1  0
  4  5  1  1
  4  6  1  0
  5  7  1  0
  6  8  1  0
  6  9  1  6
  7 10  1  0
  7 11  1  0
  8 12  1  0
  9 13  1  0
  8 14  1  1
 10 15  2  0
 11 16  2  0
 15 16  1  0
 11 17  1  0
 12 18  1  0
 13 18  1  0
 12 19  1  1
 14 20  2  0
 18 21  2  0
 16 22  1  0
 17 23  2  0
 19 24  2  0
 20 24  1  0
 22 25  2  0
 23 25  1  0
M  END
