mac-x0347-mac-x0303
     RDKit          3D

 24 26  0  0  0  0  0  0  0  0999 V2000
   30.4570   44.9990   -5.4710 O   0  0  0  0  0  0  0  0  0  0  0  0
   30.6370   46.1980   -6.0590 C   0  0  0  0  0  0  0  0  0  0  0  0
   30.7270   46.2980   -7.2680 O   0  0  0  0  0  0  0  0  0  0  0  0
   30.7150   47.3040   -5.0860 C   0  0  0  0  0  0  0  0  0  0  0  0
   30.2690   48.6030   -5.4120 C   0  0  0  0  0  0  0  0  0  0  0  0
   31.2290   47.0870   -3.8190 C   0  0  0  0  0  0  0  0  0  0  0  0
   30.3550   49.6380   -4.4490 C   0  0  0  0  0  0  0  0  0  0  0  0
   31.3330   48.0420   -2.8750 N   0  0  0  0  0  0  0  0  0  0  0  0
   30.8970   49.2740   -3.2120 C   0  0  0  0  0  0  0  0  0  0  0  0
   29.8900   51.1130   -4.6120 C   0  0  2  0  0  0  0  0  0  0  0  0
   30.9120   52.1600   -5.0880 C   0  0  0  0  0  0  0  0  0  0  0  0
   29.5210   51.2850   -3.1620 C   0  0  0  0  0  0  0  0  0  0  0  0
   28.5060   51.1390   -5.2670 C   0  0  0  0  0  0  0  0  0  0  0  0
   27.8380   52.0700   -5.9510 C   0  0  0  0  0  0  0  0  0  0  0  0
   30.7170   53.3440   -5.7070 C   0  0  0  0  0  0  0  0  0  0  0  0
   28.5270   50.5150   -2.6980 C   0  0  0  0  0  0  0  0  0  0  0  0
   27.8750   49.9070   -4.9500 C   0  0  0  0  0  0  0  0  0  0  0  0
   28.2580   53.4140   -6.2290 C   0  0  0  0  0  0  0  0  0  0  0  0
   29.4660   53.9740   -6.1090 C   0  0  0  0  0  0  0  0  0  0  0  0
   27.8910   49.6010   -3.6330 C   0  0  0  0  0  0  0  0  0  0  0  0
   29.4750   55.7040   -6.4550 S   0  0  0  0  0  0  0  0  0  0  0  0
   30.8320   56.0290   -7.4030 N   0  0  0  0  0  0  0  0  0  0  0  0
   28.3530   56.0500   -7.2970 O   0  0  0  0  0  0  0  0  0  0  0  0
   29.7090   56.4460   -5.2300 O   0  0  0  0  0  0  0  0  0  0  0  0
  1  2  1  0
  2  3  2  0
  2  4  1  0
  4  5  2  0
  4  6  1  0
  5  7  1  0
  6  8  2  0
  7  9  2  0
  8  9  1  0
 10  7  1  1
 10 11  1  0
 10 12  1  0
 10 13  1  0
 13 14  2  0
 11 15  2  0
 12 16  2  0
 13 17  1  0
 14 18  1  0
 15 19  1  0
 18 19  2  0
 16 20  1  0
 17 20  2  0
 19 21  1  0
 21 22  1  0
 21 23  2  0
 21 24  2  0
M  END
