mac-x0402-mac-x0358
     RDKit          3D

 23 25  0  0  0  0  0  0  0  0999 V2000
   28.5610   47.7160   -4.2270 Cl  0  0  0  0  0  0  0  0  0  0  0  0
   28.9590   49.3870   -4.4300 C   0  0  0  0  0  0  0  0  0  0  0  0
   29.8030   50.0700   -3.5400 C   0  0  0  0  0  0  0  0  0  0  0  0
   28.3900   50.0250   -5.5380 C   0  0  0  0  0  0  0  0  0  0  0  0
   30.4350   49.4050   -2.3370 C   0  0  0  0  0  0  0  0  0  0  0  0
   28.6810   51.3830   -5.7470 C   0  0  0  0  0  0  0  0  0  0  0  0
   30.0730   51.4350   -3.7810 C   0  0  0  0  0  0  0  0  0  0  0  0
   29.5110   52.0990   -4.8890 C   0  0  0  0  0  0  0  0  0  0  0  0
   28.1400   52.4280   -7.0010 S   0  0  0  0  0  0  0  0  0  0  0  0
   31.2900   48.2170   -2.7120 C   0  0  0  0  0  0  0  0  0  0  0  0
   29.0340   53.7190   -6.3130 C   0  0  0  0  0  0  0  0  0  0  0  0
   29.7010   53.4280   -5.2260 N   0  0  0  0  0  0  0  0  0  0  0  0
   32.6170   48.3890   -3.1300 C   0  0  0  0  0  0  0  0  0  0  0  0
   30.7660   46.9210   -2.6510 C   0  0  0  0  0  0  0  0  0  0  0  0
   29.0340   54.9380   -6.8700 N   0  0  0  0  0  0  0  0  0  0  0  0
   33.3940   47.2840   -3.4820 C   0  0  0  0  0  0  0  0  0  0  0  0
   31.5450   45.8180   -3.0050 C   0  0  0  0  0  0  0  0  0  0  0  0
   34.6860   47.4570   -3.8900 O   0  0  0  0  0  0  0  0  0  0  0  0
   32.8700   45.9840   -3.4270 C   0  0  0  0  0  0  0  0  0  0  0  0
   33.7090   44.7880   -3.8140 C   0  0  0  0  0  0  0  0  0  0  0  0
   33.5660   44.3850   -5.2630 C   0  0  0  0  0  0  0  0  0  0  0  0
   32.4770   43.6110   -5.4750 O   0  0  0  0  0  0  0  0  0  0  0  0
   34.2910   44.6640   -6.2060 O   0  0  0  0  0  0  0  0  0  0  0  0
  1  2  1  0
  2  3  2  0
  2  4  1  0
  3  5  1  0
  4  6  2  0
  3  7  1  0
  6  8  1  0
  7  8  2  0
  6  9  1  0
  5 10  1  0
  9 11  1  0
  8 12  1  0
 11 12  2  0
 10 13  2  0
 10 14  1  0
 11 15  1  0
 13 16  1  0
 14 17  2  0
 16 18  1  0
 16 19  2  0
 17 19  1  0
 19 20  1  0
 20 21  1  0
 21 22  1  0
 21 23  2  0
M  END
