mac-x0433-mac-x0496
     RDKit          3D

 20 21  0  0  0  0  0  0  0  0999 V2000
   28.6460   50.5400   -6.7830 C   0  0  0  0  0  0  0  0  0  0  0  0
   29.0010   51.4160   -5.6200 C   0  0  0  0  0  0  0  0  0  0  0  0
   29.0260   52.7860   -5.7320 C   0  0  0  0  0  0  0  0  0  0  0  0
   29.2870   50.7900   -4.4740 N   0  0  0  0  0  0  0  0  0  0  0  0
   29.6060   51.5280   -3.4140 C   0  0  0  0  0  0  0  0  0  0  0  0
   29.3670   53.4500   -4.5730 C   0  0  0  0  0  0  0  0  0  0  0  0
   29.4350   54.9320   -4.5090 C   0  0  0  0  0  0  0  0  0  0  0  0
   29.8710   50.7350   -2.3290 N   0  0  0  0  0  0  0  0  0  0  0  0
   29.6630   52.8490   -3.4020 N   0  0  0  0  0  0  0  0  0  0  0  0
   29.2280   55.6190   -5.6770 N   0  0  0  0  0  0  0  0  0  0  0  0
   29.6540   55.4680   -3.4370 O   0  0  0  0  0  0  0  0  0  0  0  0
   29.8040   49.3720   -2.4480 C   0  0  0  0  0  0  0  0  0  0  0  0
   29.2710   57.0650   -5.6530 C   0  0  0  0  0  0  0  0  0  0  0  0
   29.7210   48.6790   -3.4610 O   0  0  0  0  0  0  0  0  0  0  0  0
   27.9080   57.6190   -5.4610 C   0  0  0  0  0  0  0  0  0  0  0  0
   27.6660   58.3210   -4.3110 O   0  0  0  0  0  0  0  0  0  0  0  0
   26.8610   57.5410   -6.2480 N   0  0  0  0  0  0  0  0  0  0  0  0
   25.9150   58.2370   -5.5480 C   0  0  0  0  0  0  0  0  0  0  0  0
   26.3300   58.7330   -4.3740 N   0  0  0  0  0  0  0  0  0  0  0  0
   24.5430   58.4220   -6.0570 C   0  0  0  0  0  0  0  0  0  0  0  0
  1  2  1  0
  2  3  2  0
  2  4  1  0
  4  5  2  0
  3  6  1  0
  6  7  1  0
  5  8  1  0
  5  9  1  0
  6  9  2  0
  7 10  1  0
  7 11  2  0
  8 12  1  0
 10 13  1  0
 12 14  2  0
 13 15  1  0
 15 16  1  0
 15 17  2  0
 17 18  1  0
 16 19  1  0
 18 19  2  0
 18 20  1  0
M  END
