mac-x0283-mac-x0159
     RDKit          3D

 21 24  0  0  0  0  0  0  0  0999 V2000
   29.0450   54.1830   -6.6590 N   0  0  0  0  0  0  0  0  0  0  0  0
   29.2040   53.4520   -5.5370 C   0  0  0  0  0  0  0  0  0  0  0  0
   29.4090   53.9660   -4.3190 N   0  0  0  0  0  0  0  0  0  0  0  0
   29.1760   52.0350   -5.4980 C   0  0  0  0  0  0  0  0  0  0  0  0
   29.5120   52.8720   -3.4570 O   0  0  0  0  0  0  0  0  0  0  0  0
   29.3640   51.7310   -4.1810 C   0  0  0  0  0  0  0  0  0  0  0  0
   28.9940   50.9870   -6.5400 C   0  0  0  0  0  0  0  0  0  0  0  0
   29.4070   50.3700   -3.5730 C   0  0  0  0  0  0  0  0  0  0  0  0
   29.2910   49.4700   -6.0970 C   0  0  1  0  0  0  0  0  0  0  0  0
   29.9630   49.3590   -4.6440 C   0  0  2  0  0  0  0  0  0  0  0  0
   28.0460   48.6730   -6.3560 N   0  0  0  0  0  0  0  0  0  0  0  0
   30.2340   48.8270   -7.1250 C   0  0  0  0  0  0  0  0  0  0  0  0
   30.4330   47.9310   -4.0940 C   0  0  0  0  0  0  0  0  0  0  0  0
   29.7280   47.4760   -7.3530 N   0  0  0  0  0  0  0  0  0  0  0  0
   28.3190   47.7140   -7.4220 C   0  0  0  0  0  0  0  0  0  0  0  0
   29.5600   46.8550   -3.4260 C   0  0  0  0  0  0  0  0  0  0  0  0
   29.0790   45.6890   -4.0200 C   0  0  0  0  0  0  0  0  0  0  0  0
   29.1890   46.9740   -2.0890 N   0  0  0  0  0  0  0  0  0  0  0  0
   28.4620   45.9400   -1.7010 C   0  0  0  0  0  0  0  0  0  0  0  0
   28.1680   44.7530   -2.9020 S   0  0  0  0  0  0  0  0  0  0  0  0
   27.9100   45.7630   -0.3280 C   0  0  0  0  0  0  0  0  0  0  0  0
  1  2  1  0
  2  3  2  0
  2  4  1  0
  3  5  1  0
  4  6  2  0
  5  6  1  0
  4  7  1  0
  6  8  1  0
  9  7  1  6
  8 10  1  0
  9 10  1  0
  9 11  1  0
  9 12  1  0
 10 13  1  1
 12 14  1  0
 11 15  1  0
 14 15  1  0
 13 16  1  0
 16 17  2  0
 16 18  1  0
 18 19  2  0
 17 20  1  0
 19 20  1  0
 19 21  1  0
M  END
