mac-x0188-mac-x0360
     RDKit          3D

 26 28  0  0  0  0  0  0  0  0999 V2000
   31.8000   44.0090   -3.9960 C   0  0  0  0  0  0  0  0  0  0  0  0
   31.6450   45.4700   -3.7920 C   0  0  0  0  0  0  0  0  0  0  0  0
   32.1980   46.2340   -2.8910 O   0  0  0  0  0  0  0  0  0  0  0  0
   30.8320   46.2740   -4.5920 C   0  0  0  0  0  0  0  0  0  0  0  0
   30.0450   45.7920   -5.7060 C   0  0  0  0  0  0  0  0  0  0  0  0
   31.8080   47.4410   -3.0530 N   0  0  0  0  0  0  0  0  0  0  0  0
   30.9390   47.5510   -4.1130 C   0  0  0  0  0  0  0  0  0  0  0  0
   28.8570   45.4290   -5.4980 O   0  0  0  0  0  0  0  0  0  0  0  0
   30.5100   45.6840   -7.0130 O   0  0  0  0  0  0  0  0  0  0  0  0
   30.3420   48.8140   -4.5190 C   0  0  0  0  0  0  0  0  0  0  0  0
   31.0440   50.0620   -4.2130 C   0  0  0  0  0  0  0  0  0  0  0  0
   29.1390   48.9610   -5.1790 C   0  0  0  0  0  0  0  0  0  0  0  0
   30.5260   51.3700   -4.5700 C   0  0  0  0  0  0  0  0  0  0  0  0
   28.8670   50.2240   -5.3980 C   0  0  0  0  0  0  0  0  0  0  0  0
   29.3220   51.4520   -5.2270 C   0  0  0  0  0  0  0  0  0  0  0  0
   30.4170   50.3790   -4.6220 S   0  0  0  0  0  0  0  0  0  0  0  0
   31.0840   49.5150   -5.7660 N   0  0  0  0  0  0  0  0  0  0  0  0
   29.7840   51.2500   -3.6290 O   0  0  0  0  0  0  0  0  0  0  0  0
   31.4090   51.7170   -5.2570 C   0  0  0  0  0  0  0  0  0  0  0  0
   32.4350   52.1650   -4.4330 C   0  0  0  0  0  0  0  0  0  0  0  0
   31.1930   52.2820   -6.4910 C   0  0  0  0  0  0  0  0  0  0  0  0
   33.2510   53.1910   -4.8550 C   0  0  0  0  0  0  0  0  0  0  0  0
   32.0130   53.3140   -6.9090 C   0  0  0  0  0  0  0  0  0  0  0  0
   31.7630   54.0550   -8.4670 Cl  0  0  0  0  0  0  0  0  0  0  0  0
   34.5430   53.7620   -3.8350 Cl  0  0  0  0  0  0  0  0  0  0  0  0
   33.0360   53.7700   -6.1040 C   0  0  0  0  0  0  0  0  0  0  0  0
  1  2  1  0
  2  3  1  0
  2  4  2  0
  4  5  1  0
  3  6  1  0
  4  7  1  0
  6  7  2  0
  5  8  2  0
  5  9  1  0
  7 10  1  0
 10 11  2  0
 10 12  1  0
 11 13  1  0
 12 14  2  0
 13 15  2  0
 14 15  1  0
 14 16  1  0
 16 17  1  0
 16 18  2  0
 16 19  1  0
 19 20  2  0
 19 21  1  0
 20 22  1  0
 21 23  2  0
 23 24  1  0
 22 25  1  0
 22 26  2  0
 23 26  1  0
M  END
