mac-x0193-mac-x0148
     RDKit          3D

 32 36  0  0  0  0  0  0  0  0999 V2000
   33.9840   45.1900   -6.6250 O   0  0  0  0  0  0  0  0  0  0  0  0
   32.7590   45.2000   -5.8990 C   0  0  0  0  0  0  0  0  0  0  0  0
   31.8350   44.5550   -6.7700 O   0  0  0  0  0  0  0  0  0  0  0  0
   33.0470   44.3720   -4.6000 C   0  0  0  0  0  0  0  0  0  0  0  0
   32.3450   46.7120   -5.7080 C   0  0  2  0  0  0  0  0  0  0  0  0
   34.4110   44.4470   -4.0510 N   0  0  0  0  0  0  0  0  0  0  0  0
   33.4310   47.4500   -4.9260 C   0  0  0  0  0  0  0  0  0  0  0  0
   30.9710   47.0280   -5.0700 N   0  0  0  0  0  0  0  0  0  0  0  0
   34.8200   43.5820   -3.0630 C   0  0  0  0  0  0  0  0  0  0  0  0
   31.1900   47.6190   -3.7170 C   0  0  1  0  0  0  0  0  0  0  0  0
   33.5780   46.9000   -3.5200 C   0  0  0  0  0  0  0  0  0  0  0  0
   30.1020   47.7050   -5.9700 C   0  0  0  0  0  0  0  0  0  0  0  0
   34.1760   42.5910   -2.7460 O   0  0  0  0  0  0  0  0  0  0  0  0
   36.0110   43.9510   -2.4850 N   0  0  0  0  0  0  0  0  0  0  0  0
   30.0660   47.6480   -2.7010 C   0  0  0  0  0  0  0  0  0  0  0  0
   32.2140   46.8550   -2.8900 C   0  0  1  0  0  0  0  0  0  0  0  0
   29.6210   47.0350   -7.0820 N   0  0  0  0  0  0  0  0  0  0  0  0
   29.6820   48.9940   -5.8870 C   0  0  0  0  0  0  0  0  0  0  0  0
   36.8480   42.9730   -1.7890 C   0  0  0  0  0  0  0  0  0  0  0  0
   32.1020   47.5320   -1.5510 C   0  0  0  0  0  0  0  0  0  0  0  0
   30.7190   47.9110   -1.4320 O   0  0  0  0  0  0  0  0  0  0  0  0
   28.8280   47.6080   -8.0330 C   0  0  0  0  0  0  0  0  0  0  0  0
   28.7990   49.5580   -6.9510 C   0  0  0  0  0  0  0  0  0  0  0  0
   29.8380   50.1120   -5.0050 C   0  0  0  0  0  0  0  0  0  0  0  0
   37.9670   42.4810   -2.7060 C   0  0  0  0  0  0  0  0  0  0  0  0
   37.4130   43.5320   -0.4700 C   0  0  0  0  0  0  0  0  0  0  0  0
   28.3930   48.8240   -8.0280 N   0  0  0  0  0  0  0  0  0  0  0  0
   28.4850   50.8080   -6.7390 N   0  0  0  0  0  0  0  0  0  0  0  0
   29.1280   51.1160   -5.5520 C   0  0  0  0  0  0  0  0  0  0  0  0
   38.9290   41.5220   -1.9970 C   0  0  0  0  0  0  0  0  0  0  0  0
   38.3620   42.5690    0.2500 C   0  0  0  0  0  0  0  0  0  0  0  0
   39.4670   42.0510   -0.6640 C   0  0  0  0  0  0  0  0  0  0  0  0
  2  1  1  0
  2  3  1  0
  2  4  1  0
  5  2  1  1
  4  6  1  0
  5  7  1  0
  5  8  1  0
  6  9  1  0
  8 10  1  0
  7 11  1  0
  8 12  1  0
  9 13  2  0
  9 14  1  0
 10 15  1  1
 10 16  1  0
 16 11  1  6
 12 17  1  0
 12 18  2  0
 14 19  1  0
 16 20  1  0
 15 21  1  0
 20 21  1  0
 17 22  1  0
 18 23  1  0
 18 24  1  0
 19 25  1  0
 19 26  1  0
 22 27  2  0
 23 27  1  0
 23 28  2  0
 24 29  2  0
 28 29  1  0
 25 30  1  0
 26 31  1  0
 30 32  1  0
 31 32  1  0
M  END
