mac-x0347-mac-x0402
     RDKit          3D

 22 24  0  0  0  0  0  0  0  0999 V2000
   31.0450   44.9440   -4.4990 O   0  0  0  0  0  0  0  0  0  0  0  0
   31.3380   45.9760   -5.3180 C   0  0  0  0  0  0  0  0  0  0  0  0
   31.4300   45.8560   -6.5300 O   0  0  0  0  0  0  0  0  0  0  0  0
   31.5310   47.2710   -4.6290 C   0  0  0  0  0  0  0  0  0  0  0  0
   30.9960   48.4520   -5.1210 C   0  0  0  0  0  0  0  0  0  0  0  0
   32.2640   47.3400   -3.4500 C   0  0  0  0  0  0  0  0  0  0  0  0
   31.1990   49.6590   -4.4390 C   0  0  0  0  0  0  0  0  0  0  0  0
   32.4810   48.4990   -2.7630 N   0  0  0  0  0  0  0  0  0  0  0  0
   31.9440   49.6390   -3.2720 C   0  0  0  0  0  0  0  0  0  0  0  0
   30.5640   50.8420   -5.0330 C   0  0  0  0  0  0  0  0  0  0  0  0
   31.2670   51.7730   -5.8930 C   0  0  0  0  0  0  0  0  0  0  0  0
   29.2940   50.8320   -4.6930 C   0  0  0  0  0  0  0  0  0  0  0  0
   28.1240   51.7100   -5.1100 C   0  0  1  0  0  0  0  0  0  0  0  0
   30.7840   52.8160   -6.5810 C   0  0  0  0  0  0  0  0  0  0  0  0
   28.8930   49.7770   -3.7860 C   0  0  0  0  0  0  0  0  0  0  0  0
   28.3230   52.8690   -6.0730 C   0  0  0  0  0  0  0  0  0  0  0  0
   29.4270   53.3330   -6.6870 C   0  0  0  0  0  0  0  0  0  0  0  0
   27.7990   49.1120   -4.0280 C   0  0  0  0  0  0  0  0  0  0  0  0
   27.1650   50.7000   -5.7130 C   0  0  0  0  0  0  0  0  0  0  0  0
   29.3080   54.4200   -7.5220 N   0  0  0  0  0  0  0  0  0  0  0  0
   27.0430   49.4610   -5.1810 C   0  0  0  0  0  0  0  0  0  0  0  0
   26.0150   48.2560   -5.8250 Cl  0  0  0  0  0  0  0  0  0  0  0  0
  1  2  1  0
  2  3  2  0
  2  4  1  0
  4  5  2  0
  4  6  1  0
  5  7  1  0
  6  8  2  0
  7  9  2  0
  8  9  1  0
  7 10  1  0
 10 11  1  0
 10 12  2  0
 12 13  1  0
 11 14  2  0
 12 15  1  0
 13 16  1  6
 14 17  1  0
 16 17  2  0
 15 18  2  0
 13 19  1  0
 17 20  1  0
 18 21  1  0
 19 21  2  0
 21 22  1  0
M  END
