mac-x0182-mac-x0148
     RDKit          3D

 30 35  0  0  0  0  0  0  0  0999 V2000
   35.2670   43.1260   -3.1520 O   0  0  0  0  0  0  0  0  0  0  0  0
   35.3980   44.2360   -3.6390 C   0  0  0  0  0  0  0  0  0  0  0  0
   35.0140   44.5980   -4.9100 N   0  0  0  0  0  0  0  0  0  0  0  0
   36.0040   45.3790   -2.9190 C   0  0  0  0  0  0  0  0  0  0  0  0
   35.0100   46.2720   -5.0790 S   0  0  2  0  0  0  0  0  0  0  0  0
   35.8660   46.5790   -3.6030 C   0  0  0  0  0  0  0  0  0  0  0  0
   36.6560   45.3430   -1.6980 C   0  0  0  0  0  0  0  0  0  0  0  0
   33.5480   46.6770   -4.9030 N   0  0  0  0  0  0  0  0  0  0  0  0
   35.8750   46.5260   -6.2060 O   0  0  0  0  0  0  0  0  0  0  0  0
   36.3510   47.7810   -3.1340 C   0  0  0  0  0  0  0  0  0  0  0  0
   37.1610   46.5440   -1.1920 C   0  0  0  0  0  0  0  0  0  0  0  0
   37.0110   47.7540   -1.9010 C   0  0  0  0  0  0  0  0  0  0  0  0
   32.5200   45.6170   -4.8090 C   0  0  1  0  0  0  0  0  0  0  0  0
   32.1760   45.3410   -3.3480 C   0  0  0  0  0  0  0  0  0  0  0  0
   31.2530   46.0140   -5.5760 C   0  0  0  0  0  0  0  0  0  0  0  0
   31.3180   46.4140   -2.6870 C   0  0  1  0  0  0  0  0  0  0  0  0
   30.6160   47.2440   -5.0450 N   0  0  0  0  0  0  0  0  0  0  0  0
   32.1260   47.3440   -1.7880 C   0  0  0  0  0  0  0  0  0  0  0  0
   30.4520   47.3440   -3.5610 C   0  0  2  0  0  0  0  0  0  0  0  0
   29.7340   47.9290   -5.9060 C   0  0  0  0  0  0  0  0  0  0  0  0
   31.3960   48.5610   -1.7280 O   0  0  0  0  0  0  0  0  0  0  0  0
   30.8600   48.7360   -3.0390 C   0  0  0  0  0  0  0  0  0  0  0  0
   28.9950   47.2120   -6.8320 N   0  0  0  0  0  0  0  0  0  0  0  0
   29.5230   49.2650   -5.9280 C   0  0  0  0  0  0  0  0  0  0  0  0
   28.1240   47.8080   -7.7050 C   0  0  0  0  0  0  0  0  0  0  0  0
   28.5550   49.8430   -6.9020 C   0  0  0  0  0  0  0  0  0  0  0  0
   29.9910   50.4250   -5.2320 C   0  0  0  0  0  0  0  0  0  0  0  0
   27.8670   49.0670   -7.7890 N   0  0  0  0  0  0  0  0  0  0  0  0
   28.4570   51.1420   -6.8040 N   0  0  0  0  0  0  0  0  0  0  0  0
   29.3390   51.4630   -5.7820 C   0  0  0  0  0  0  0  0  0  0  0  0
  1  2  2  0
  2  3  1  0
  2  4  1  0
  5  3  1  1
  4  6  2  0
  5  6  1  0
  4  7  1  0
  5  8  2  0
  5  9  2  0
  6 10  1  0
  7 11  2  0
 10 12  2  0
 11 12  1  0
 13  8  1  1
 13 14  1  0
 13 15  1  0
 16 14  1  6
 15 17  1  0
 16 18  1  0
 16 19  1  0
 17 19  1  0
 17 20  1  0
 18 21  1  0
 19 22  1  1
 21 22  1  0
 20 23  1  0
 20 24  2  0
 23 25  1  0
 24 26  1  0
 24 27  1  0
 25 28  2  0
 26 28  1  0
 26 29  2  0
 27 30  2  0
 29 30  1  0
M  END
