mac-x0142-mac-x0301
     RDKit          3D

 20 23  0  0  0  0  0  0  0  0999 V2000
   29.3450   47.6980   -2.4830 O   0  0  0  0  0  0  0  0  0  0  0  0
   29.9690   48.7140   -3.1120 C   0  0  0  0  0  0  0  0  0  0  0  0
   30.9750   49.2320   -2.6500 O   0  0  0  0  0  0  0  0  0  0  0  0
   29.3540   49.1360   -4.3720 C   0  0  0  0  0  0  0  0  0  0  0  0
   29.4450   48.6070   -5.6960 C   0  0  0  0  0  0  0  0  0  0  0  0
   28.5190   50.1930   -4.4690 C   0  0  0  0  0  0  0  0  0  0  0  0
   28.5410   49.4940   -6.4730 C   0  0  0  0  0  0  0  0  0  0  0  0
   30.0900   47.6160   -6.3290 C   0  0  0  0  0  0  0  0  0  0  0  0
   28.0110   50.4360   -5.7430 N   0  0  0  0  0  0  0  0  0  0  0  0
   30.9790   46.7530   -5.6660 N   0  0  0  0  0  0  0  0  0  0  0  0
   29.8400   47.4930   -7.6810 N   0  0  0  0  0  0  0  0  0  0  0  0
   28.3240   49.3100   -7.8100 N   0  0  0  0  0  0  0  0  0  0  0  0
   32.0450   47.4150   -4.8420 C   0  0  0  0  0  0  0  0  0  0  0  0
   30.4880   45.4810   -5.0940 C   0  0  0  0  0  0  0  0  0  0  0  0
   28.9780   48.3290   -8.3360 C   0  0  0  0  0  0  0  0  0  0  0  0
   31.7010   44.6790   -4.6770 C   0  0  0  0  0  0  0  0  0  0  0  0
   32.2320   46.7890   -3.4600 C   0  0  0  0  0  0  0  0  0  0  0  0
   31.6380   43.1670   -4.7360 C   0  0  0  0  0  0  0  0  0  0  0  0
   32.4440   43.9150   -5.7560 C   0  0  0  0  0  0  0  0  0  0  0  0
   32.5150   45.2980   -3.5590 C   0  0  0  0  0  0  0  0  0  0  0  0
  1  2  1  0
  2  3  2  0
  2  4  1  0
  4  5  1  0
  4  6  2  0
  5  7  1  0
  5  8  2  0
  6  9  1  0
  7  9  2  0
  8 10  1  0
  8 11  1  0
  7 12  1  0
 10 13  1  0
 10 14  1  0
 11 15  1  0
 12 15  2  0
 16 14  1  0
 13 17  1  0
 16 18  1  0
 16 19  1  0
 18 19  1  0
 16 20  1  0
 17 20  1  0
M  END
