mac-x0411-mac-x0212
     RDKit          3D

 26 27  0  0  0  0  0  0  0  0999 V2000
   36.9820   44.2870   -3.4410 Cl  0  0  0  0  0  0  0  0  0  0  0  0
   36.1470   45.8010   -3.3390 C   0  0  0  0  0  0  0  0  0  0  0  0
   34.7350   45.9160   -3.2800 C   0  0  0  0  0  0  0  0  0  0  0  0
   36.9510   46.9400   -3.3120 C   0  0  0  0  0  0  0  0  0  0  0  0
   33.9180   44.8220   -3.2940 O   0  0  0  0  0  0  0  0  0  0  0  0
   34.1050   47.2160   -3.1880 C   0  0  0  0  0  0  0  0  0  0  0  0
   36.3670   48.1980   -3.2270 C   0  0  0  0  0  0  0  0  0  0  0  0
   32.5580   47.4650   -3.0820 C   0  0  0  0  0  0  0  0  0  0  0  0
   33.0080   44.6370   -4.3650 C   0  0  0  0  0  0  0  0  0  0  0  0
   34.9710   48.3350   -3.1670 C   0  0  0  0  0  0  0  0  0  0  0  0
   33.2420   45.0480   -5.8200 C   0  0  0  0  0  0  0  0  0  0  0  0
   31.6040   47.6790   -4.3040 C   0  0  0  0  0  0  0  0  0  0  0  0
   32.1230   45.1230   -6.5630 O   0  0  0  0  0  0  0  0  0  0  0  0
   34.3230   45.2980   -6.3330 O   0  0  0  0  0  0  0  0  0  0  0  0
   31.4460   46.7810   -5.1310 O   0  0  0  0  0  0  0  0  0  0  0  0
   30.7900   48.9560   -4.5470 C   0  0  0  0  0  0  0  0  0  0  0  0
   30.4290   49.2530   -5.8810 C   0  0  0  0  0  0  0  0  0  0  0  0
   30.3720   49.8590   -3.5510 C   0  0  0  0  0  0  0  0  0  0  0  0
   29.6930   50.4040   -6.2110 C   0  0  0  0  0  0  0  0  0  0  0  0
   29.6330   51.0170   -3.8850 C   0  0  0  0  0  0  0  0  0  0  0  0
   29.2960   51.2920   -5.2160 C   0  0  0  0  0  0  0  0  0  0  0  0
   28.5580   52.4770   -5.5260 N   0  0  0  0  0  0  0  0  0  0  0  0
   29.3180   53.9820   -5.3710 S   0  0  0  0  0  0  0  0  0  0  0  0
   30.7490   53.8080   -6.4190 C   0  0  0  0  0  0  0  0  0  0  0  0
   28.4460   54.9530   -5.9990 O   0  0  0  0  0  0  0  0  0  0  0  0
   29.7710   54.1610   -4.0110 O   0  0  0  0  0  0  0  0  0  0  0  0
  1  2  1  0
  2  3  2  0
  2  4  1  0
  3  5  1  0
  3  6  1  0
  4  7  2  0
  6  8  1  0
  5  9  1  0
  6 10  2  0
  7 10  1  0
  9 11  1  0
  8 12  1  0
 11 13  1  0
 11 14  2  0
 12 15  2  0
 12 16  1  0
 16 17  2  0
 16 18  1  0
 17 19  1  0
 18 20  2  0
 19 21  2  0
 20 21  1  0
 21 22  1  0
 23 22  1  0
 23 24  1  0
 23 25  2  0
 23 26  2  0
M  END
