mac-x0284-mac-x0576
     RDKit          3D

 23 25  0  0  0  0  0  0  0  0999 V2000
   27.1800   51.0960   -3.0610 C   0  0  0  0  0  0  0  0  0  0  0  0
   28.2770   50.0820   -2.9250 C   0  0  0  0  0  0  0  0  0  0  0  0
   28.9130   49.8750   -1.6990 C   0  0  0  0  0  0  0  0  0  0  0  0
   28.6790   49.3260   -4.0310 C   0  0  0  0  0  0  0  0  0  0  0  0
   29.7070   48.3600   -3.9540 C   0  0  0  0  0  0  0  0  0  0  0  0
   29.9310   48.9290   -1.5860 C   0  0  0  0  0  0  0  0  0  0  0  0
   30.0810   47.5800   -5.2250 C   0  0  0  0  0  0  0  0  0  0  0  0
   30.3230   48.1810   -2.7030 C   0  0  0  0  0  0  0  0  0  0  0  0
   31.3270   47.2590   -2.5620 O   0  0  0  0  0  0  0  0  0  0  0  0
   29.4310   46.3210   -5.1570 O   0  0  0  0  0  0  0  0  0  0  0  0
   31.4690   47.2570   -5.3150 O   0  0  0  0  0  0  0  0  0  0  0  0
   29.7600   48.4150   -6.4810 C   0  0  0  0  0  0  0  0  0  0  0  0
   29.2860   47.7000   -7.5780 N   0  0  0  0  0  0  0  0  0  0  0  0
   29.8940   49.7590   -6.6020 C   0  0  0  0  0  0  0  0  0  0  0  0
   29.2090   48.2660   -8.8040 C   0  0  0  0  0  0  0  0  0  0  0  0
   29.5000   50.3600   -7.9500 C   0  0  0  0  0  0  0  0  0  0  0  0
   30.3530   50.5830   -5.5930 N   0  0  0  0  0  0  0  0  0  0  0  0
   29.0160   47.3820   -9.8090 N   0  0  0  0  0  0  0  0  0  0  0  0
   29.3040   49.5340   -9.0340 N   0  0  0  0  0  0  0  0  0  0  0  0
   29.3300   51.6270   -8.1540 N   0  0  0  0  0  0  0  0  0  0  0  0
   30.1820   51.8500   -5.8020 C   0  0  0  0  0  0  0  0  0  0  0  0
   29.5340   52.4130   -7.0470 C   0  0  0  0  0  0  0  0  0  0  0  0
   29.2170   53.5950   -6.9800 O   0  0  0  0  0  0  0  0  0  0  0  0
  1  2  1  0
  2  3  2  0
  2  4  1  0
  4  5  2  0
  3  6  1  0
  5  7  1  0
  5  8  1  0
  6  8  2  0
  8  9  1  0
  7 10  1  0
  7 11  1  0
  7 12  1  0
 12 13  1  0
 12 14  2  0
 13 15  1  0
 14 16  1  0
 14 17  1  0
 15 18  1  0
 15 19  2  0
 16 19  1  0
 16 20  2  0
 17 21  2  0
 20 22  1  0
 21 22  1  0
 22 23  2  0
M  END
