mac-x0510-mac-x0277
     RDKit          3D

 25 27  0  0  0  0  0  0  0  0999 V2000
   28.7750   53.3500   -6.0140 O   0  0  0  0  0  0  0  0  0  0  0  0
   28.7540   52.1240   -6.0480 C   0  0  0  0  0  0  0  0  0  0  0  0
   28.7860   51.3710   -4.9060 N   0  0  0  0  0  0  0  0  0  0  0  0
   28.7070   51.4080   -7.2180 N   0  0  0  0  0  0  0  0  0  0  0  0
   28.8010   50.0450   -7.1810 C   0  0  0  0  0  0  0  0  0  0  0  0
   29.3850   50.1500   -4.8380 C   0  0  0  0  0  0  0  0  0  0  0  0
   30.0350   49.9680   -3.7630 N   0  0  0  0  0  0  0  0  0  0  0  0
   29.1340   49.3920   -6.0210 C   0  0  0  0  0  0  0  0  0  0  0  0
   28.5900   49.2050   -8.2280 N   0  0  0  0  0  0  0  0  0  0  0  0
   30.8050   48.8280   -3.3580 C   0  0  0  0  0  0  0  0  0  0  0  0
   29.1260   48.0720   -6.3760 N   0  0  0  0  0  0  0  0  0  0  0  0
   28.7940   48.0090   -7.7100 C   0  0  0  0  0  0  0  0  0  0  0  0
   30.9990   48.9640   -1.8390 C   0  0  0  0  0  0  0  0  0  0  0  0
   30.3250   47.8310   -1.0650 C   0  0  0  0  0  0  0  0  0  0  0  0
   30.0640   46.6420   -1.9450 C   0  0  0  0  0  0  0  0  0  0  0  0
   31.1020   46.2600   -2.8120 C   0  0  0  0  0  0  0  0  0  0  0  0
   28.8750   45.9130   -1.9600 C   0  0  0  0  0  0  0  0  0  0  0  0
   27.5440   46.3080   -0.9350 Cl  0  0  0  0  0  0  0  0  0  0  0  0
   30.9770   45.1780   -3.6860 C   0  0  0  0  0  0  0  0  0  0  0  0
   28.7340   44.8250   -2.8270 C   0  0  0  0  0  0  0  0  0  0  0  0
   32.1230   44.8070   -4.6010 C   0  0  0  0  0  0  0  0  0  0  0  0
   29.7770   44.4580   -3.6860 C   0  0  0  0  0  0  0  0  0  0  0  0
   32.3010   45.7670   -5.7550 C   0  0  0  0  0  0  0  0  0  0  0  0
   33.4350   46.4930   -5.6690 O   0  0  0  0  0  0  0  0  0  0  0  0
   31.5290   45.9000   -6.6930 O   0  0  0  0  0  0  0  0  0  0  0  0
  1  2  2  0
  2  3  1  0
  2  4  1  0
  4  5  1  0
  3  6  1  0
  6  7  2  3
  5  8  2  0
  6  8  1  0
  5  9  1  0
  7 10  1  0
  8 11  1  0
  9 12  2  0
 11 12  1  0
 10 13  1  0
 13 14  1  0
 14 15  1  0
 15 16  2  0
 15 17  1  0
 17 18  1  0
 16 19  1  0
 17 20  2  0
 19 21  1  0
 19 22  2  0
 20 22  1  0
 21 23  1  0
 23 24  1  0
 23 25  2  0
M  END
