mac-x0394-mac-x0402
     RDKit          3D

 21 23  0  0  0  0  0  0  0  0999 V2000
   24.1100   49.8330   -3.7520 Cl  0  0  0  0  0  0  0  0  0  0  0  0
   24.9530   51.2640   -4.1920 C   0  0  0  0  0  0  0  0  0  0  0  0
   25.2510   52.2210   -3.2280 C   0  0  0  0  0  0  0  0  0  0  0  0
   25.3260   51.4560   -5.5220 C   0  0  0  0  0  0  0  0  0  0  0  0
   26.0030   52.6230   -5.9040 C   0  0  0  0  0  0  0  0  0  0  0  0
   25.9280   53.3760   -3.6010 C   0  0  0  0  0  0  0  0  0  0  0  0
   26.3010   54.5770   -2.4270 Cl  0  0  0  0  0  0  0  0  0  0  0  0
   26.3870   52.8600   -7.3550 C   0  0  0  0  0  0  0  0  0  0  0  0
   26.3060   53.5790   -4.9260 C   0  0  0  0  0  0  0  0  0  0  0  0
   27.8410   53.1230   -7.5900 C   0  0  0  0  0  0  0  0  0  0  0  0
   28.2660   53.9030   -8.4210 O   0  0  0  0  0  0  0  0  0  0  0  0
   28.5630   52.2930   -6.7180 C   0  0  0  0  0  0  0  0  0  0  0  0
   28.9150   52.6310   -5.5010 N   0  0  0  0  0  0  0  0  0  0  0  0
   28.9410   50.7380   -7.2620 S   0  0  0  0  0  0  0  0  0  0  0  0
   29.5010   51.5420   -4.9170 C   0  0  0  0  0  0  0  0  0  0  0  0
   29.5950   50.4110   -5.7320 C   0  0  0  0  0  0  0  0  0  0  0  0
   29.9890   51.4650   -3.6030 C   0  0  0  0  0  0  0  0  0  0  0  0
   30.1420   49.2160   -5.3040 C   0  0  0  0  0  0  0  0  0  0  0  0
   30.5410   50.2630   -3.1550 C   0  0  0  0  0  0  0  0  0  0  0  0
   30.6080   49.1590   -4.0020 C   0  0  0  0  0  0  0  0  0  0  0  0
   31.2770   47.6760   -3.4480 Cl  0  0  0  0  0  0  0  0  0  0  0  0
  1  2  1  0
  2  3  2  0
  2  4  1  0
  4  5  2  0
  3  6  1  0
  6  7  1  0
  5  8  1  0
  5  9  1  0
  6  9  2  0
  8 10  1  0
 10 11  2  0
 10 12  1  0
 12 13  2  0
 12 14  1  0
 13 15  1  0
 14 16  1  0
 15 16  2  0
 15 17  1  0
 16 18  1  0
 17 19  2  0
 18 20  2  0
 19 20  1  0
 20 21  1  0
M  END
