mac-x0338-mac-x0354
     RDKit          3D

 27 29  0  0  0  0  0  0  0  0999 V2000
   28.5540   51.7440   -7.6210 N   0  0  0  0  0  0  0  0  0  0  0  0
   28.8960   52.3540   -6.4410 C   0  0  0  0  0  0  0  0  0  0  0  0
   28.8290   53.5690   -6.3060 O   0  0  0  0  0  0  0  0  0  0  0  0
   29.3510   51.4460   -5.3440 C   0  0  0  0  0  0  0  0  0  0  0  0
   29.2760   50.0910   -5.5460 N   0  0  0  0  0  0  0  0  0  0  0  0
   29.8300   51.9990   -4.1700 C   0  0  0  0  0  0  0  0  0  0  0  0
   29.7040   49.3160   -4.5040 C   0  0  0  0  0  0  0  0  0  0  0  0
   30.2600   51.2380   -3.1330 N   0  0  0  0  0  0  0  0  0  0  0  0
   29.6500   47.8010   -4.6220 C   0  0  0  0  0  0  0  0  0  0  0  0
   30.1830   49.8990   -3.3300 C   0  0  0  0  0  0  0  0  0  0  0  0
   30.4050   47.1750   -5.8080 C   0  0  0  0  0  0  0  0  0  0  0  0
   31.2900   45.9530   -5.4830 C   0  0  0  0  0  0  0  0  0  0  0  0
   32.4980   46.0120   -6.2890 N   0  0  0  0  0  0  0  0  0  0  0  0
   33.6060   45.4470   -5.9830 C   0  0  0  0  0  0  0  0  0  0  0  0
   34.6790   45.5890   -6.7840 O   0  0  0  0  0  0  0  0  0  0  0  0
   33.8240   44.6370   -4.7970 C   0  0  0  0  0  0  0  0  0  0  0  0
   33.1630   43.4400   -4.4270 C   0  0  0  0  0  0  0  0  0  0  0  0
   34.7370   44.8530   -3.7640 C   0  0  0  0  0  0  0  0  0  0  0  0
   34.5600   43.8010   -2.8890 N   0  0  0  0  0  0  0  0  0  0  0  0
   33.6050   42.9320   -3.2760 N   0  0  0  0  0  0  0  0  0  0  0  0
   35.7160   45.9190   -3.5530 C   0  0  0  0  0  0  0  0  0  0  0  0
   35.2740   43.5590   -1.6570 C   0  0  0  0  0  0  0  0  0  0  0  0
   37.0880   45.6550   -3.5140 C   0  0  0  0  0  0  0  0  0  0  0  0
   35.2760   47.2400   -3.3850 C   0  0  0  0  0  0  0  0  0  0  0  0
   38.0050   46.6890   -3.3120 C   0  0  0  0  0  0  0  0  0  0  0  0
   36.1920   48.2740   -3.1830 C   0  0  0  0  0  0  0  0  0  0  0  0
   37.5570   47.9980   -3.1480 C   0  0  0  0  0  0  0  0  0  0  0  0
  1  2  1  0
  2  3  2  0
  2  4  1  0
  4  5  2  0
  4  6  1  0
  5  7  1  0
  6  8  2  0
  7  9  1  0
  7 10  2  0
  8 10  1  0
  9 11  1  0
 11 12  1  0
 12 13  1  0
 13 14  2  3
 14 15  1  0
 14 16  1  0
 16 17  1  0
 16 18  2  0
 18 19  1  0
 17 20  2  0
 19 20  1  0
 18 21  1  0
 19 22  1  0
 21 23  2  0
 21 24  1  0
 23 25  1  0
 24 26  2  0
 25 27  2  0
 26 27  1  0
M  END
