mac-x0231-mac-x0451
     RDKit          3D

 28 31  0  0  0  0  0  0  0  0999 V2000
   34.0560   45.3600   -6.5580 O   0  0  0  0  0  0  0  0  0  0  0  0
   32.8400   44.9080   -6.1780 C   0  0  0  0  0  0  0  0  0  0  0  0
   31.8820   45.0970   -7.0070 N   0  0  0  0  0  0  0  0  0  0  0  0
   32.8300   44.2530   -4.8260 C   0  0  0  0  0  0  0  0  0  0  0  0
   32.0780   45.7670   -8.2910 C   0  0  0  0  0  0  0  0  0  0  0  0
   31.6330   44.5290   -3.9290 C   0  0  0  0  0  0  0  0  0  0  0  0
   31.1660   47.0030   -8.3670 C   0  0  0  0  0  0  0  0  0  0  0  0
   31.4570   45.8480   -3.2580 C   0  0  0  0  0  0  0  0  0  0  0  0
   30.7860   43.5490   -3.7850 N   0  0  0  0  0  0  0  0  0  0  0  0
   30.4690   47.2470   -7.1350 O   0  0  0  0  0  0  0  0  0  0  0  0
   30.2860   46.0300   -2.5170 C   0  0  0  0  0  0  0  0  0  0  0  0
   29.7000   43.7380   -2.9890 N   0  0  0  0  0  0  0  0  0  0  0  0
   32.3850   46.8960   -3.3290 C   0  0  0  0  0  0  0  0  0  0  0  0
   29.3070   44.9320   -2.4370 C   0  0  0  0  0  0  0  0  0  0  0  0
   30.0350   47.2400   -1.8540 C   0  0  0  0  0  0  0  0  0  0  0  0
   32.1360   48.1030   -2.6670 C   0  0  0  0  0  0  0  0  0  0  0  0
   30.1660   48.5330   -6.7780 C   0  0  0  0  0  0  0  0  0  0  0  0
   28.2100   45.0810   -1.9100 O   0  0  0  0  0  0  0  0  0  0  0  0
   30.9650   48.2760   -1.9310 C   0  0  0  0  0  0  0  0  0  0  0  0
   30.2900   48.7980   -5.4120 C   0  0  0  0  0  0  0  0  0  0  0  0
   29.7610   49.5440   -7.6520 C   0  0  0  0  0  0  0  0  0  0  0  0
   29.4860   50.8180   -7.1220 C   0  0  0  0  0  0  0  0  0  0  0  0
   30.0130   50.0690   -4.8920 C   0  0  0  0  0  0  0  0  0  0  0  0
   29.6030   51.0980   -5.7610 C   0  0  0  0  0  0  0  0  0  0  0  0
   28.9760   52.2450   -7.9410 S   0  0  0  0  0  0  0  0  0  0  0  0
   28.9540   53.0930   -6.4540 C   0  0  0  0  0  0  0  0  0  0  0  0
   29.2960   52.4010   -5.3970 N   0  0  0  0  0  0  0  0  0  0  0  0
   28.6070   54.3900   -6.3930 N   0  0  0  0  0  0  0  0  0  0  0  0
  1  2  1  0
  2  3  2  3
  2  4  1  0
  3  5  1  0
  4  6  1  0
  5  7  1  0
  6  8  1  0
  6  9  2  0
  7 10  1  0
  8 11  2  0
  9 12  1  0
  8 13  1  0
 11 14  1  0
 12 14  1  0
 11 15  1  0
 13 16  2  0
 10 17  1  0
 14 18  2  0
 15 19  2  0
 16 19  1  0
 17 20  2  0
 17 21  1  0
 21 22  2  0
 20 23  1  0
 22 24  1  0
 23 24  2  0
 22 25  1  0
 25 26  1  0
 24 27  1  0
 26 27  2  0
 26 28  1  0
M  END
