mac-x0354-mac-x0417
     RDKit          3D

 16 17  0  0  0  0  0  0  0  0999 V2000
   35.7200   43.2860   -1.7860 C   0  0  0  0  0  0  0  0  0  0  0  0
   34.8340   43.5910   -2.8850 N   0  0  0  0  0  0  0  0  0  0  0  0
   33.8920   42.6930   -3.2360 N   0  0  0  0  0  0  0  0  0  0  0  0
   34.8260   44.7310   -3.6540 C   0  0  0  0  0  0  0  0  0  0  0  0
   33.2630   43.2800   -4.2530 C   0  0  0  0  0  0  0  0  0  0  0  0
   33.7940   44.5530   -4.5610 C   0  0  0  0  0  0  0  0  0  0  0  0
   35.7490   45.8490   -3.4790 C   0  0  0  0  0  0  0  0  0  0  0  0
   33.3110   45.4720   -5.6270 C   0  0  0  0  0  0  0  0  0  0  0  0
   37.1300   45.6320   -3.4680 C   0  0  0  0  0  0  0  0  0  0  0  0
   35.2550   47.1510   -3.3230 C   0  0  0  0  0  0  0  0  0  0  0  0
   32.5000   44.8630   -6.6110 O   0  0  0  0  0  0  0  0  0  0  0  0
   34.3770   46.0900   -6.3310 O   0  0  0  0  0  0  0  0  0  0  0  0
   32.4860   46.5370   -4.9240 C   0  0  0  0  0  0  0  0  0  0  0  0
   38.0090   46.7070   -3.3050 C   0  0  0  0  0  0  0  0  0  0  0  0
   36.1360   48.2230   -3.1600 C   0  0  0  0  0  0  0  0  0  0  0  0
   37.5100   47.9990   -3.1520 C   0  0  0  0  0  0  0  0  0  0  0  0
  1  2  1  0
  2  3  1  0
  2  4  1  0
  3  5  2  0
  4  6  2  0
  5  6  1  0
  4  7  1  0
  6  8  1  0
  7  9  2  0
  7 10  1  0
  8 11  1  0
  8 12  1  0
  8 13  1  0
  9 14  1  0
 10 15  2  0
 14 16  2  0
 15 16  1  0
M  END
