mac-x0228-mac-x0341
     RDKit          3D

 19 21  0  0  0  0  0  0  0  0999 V2000
   30.8850   47.1850   -4.7220 O   0  0  0  0  0  0  0  0  0  0  0  0
   30.9840   47.8900   -3.5750 C   0  0  0  0  0  0  0  0  0  0  0  0
   31.3320   47.4050   -2.5120 O   0  0  0  0  0  0  0  0  0  0  0  0
   30.6240   49.3200   -3.7290 C   0  0  0  0  0  0  0  0  0  0  0  0
   29.8600   49.7560   -4.8220 C   0  0  0  0  0  0  0  0  0  0  0  0
   31.0680   50.2360   -2.7550 C   0  0  0  0  0  0  0  0  0  0  0  0
   29.5470   51.1070   -4.9250 C   0  0  0  0  0  0  0  0  0  0  0  0
   30.7550   51.5920   -2.8630 C   0  0  0  0  0  0  0  0  0  0  0  0
   29.9970   51.9920   -3.9530 C   0  0  0  0  0  0  0  0  0  0  0  0
   28.7350   51.7880   -6.0150 C   0  0  2  0  0  0  0  0  0  0  0  0
   29.5440   53.3370   -4.2810 C   0  0  0  0  0  0  0  0  0  0  0  0
   28.6640   53.2970   -5.5320 C   0  0  1  0  0  0  0  0  0  0  0  0
   27.3350   51.1210   -6.1620 C   0  0  0  0  0  0  0  0  0  0  0  0
   29.5160   51.6390   -7.3220 C   0  0  0  0  0  0  0  0  0  0  0  0
   29.1590   54.3390   -6.4600 N   0  0  0  0  0  0  0  0  0  0  0  0
   29.8410   54.3260   -3.6350 O   0  0  0  0  0  0  0  0  0  0  0  0
   29.3060   50.6080   -8.1570 C   0  0  0  0  0  0  0  0  0  0  0  0
   27.3860   49.8130   -6.9150 C   0  0  0  0  0  0  0  0  0  0  0  0
   28.3210   49.5960   -7.8510 C   0  0  0  0  0  0  0  0  0  0  0  0
  1  2  1  0
  2  3  2  0
  2  4  1  0
  4  5  2  0
  4  6  1  0
  5  7  1  0
  6  8  2  0
  7  9  2  0
  8  9  1  0
  7 10  1  0
  9 11  1  0
 10 12  1  0
 11 12  1  0
 10 13  1  6
 10 14  1  0
 12 15  1  6
 11 16  2  0
 14 17  2  0
 13 18  1  0
 17 19  1  0
 18 19  2  0
M  END
