mac-x0453-mac-x0360
     RDKit          3D

 19 20  0  0  0  0  0  0  0  0999 V2000
   28.3680   54.0180   -5.4200 N   0  0  0  0  0  0  0  0  0  0  0  0
   28.0670   52.6790   -5.9290 C   0  0  0  0  0  0  0  0  0  0  0  0
   29.2280   51.7270   -5.6470 C   0  0  0  0  0  0  0  0  0  0  0  0
   30.3010   51.0840   -6.8860 S   0  0  1  0  0  0  0  0  0  0  0  0
   28.9310   50.7960   -4.5520 C   0  0  0  0  0  0  0  0  0  0  0  0
   30.8170   49.4910   -6.7920 N   0  0  0  0  0  0  0  0  0  0  0  0
   29.8400   51.6130   -8.3640 O   0  0  0  0  0  0  0  0  0  0  0  0
   28.9280   49.4140   -4.5560 C   0  0  0  0  0  0  0  0  0  0  0  0
   28.5930   51.2450   -3.2880 N   0  0  0  0  0  0  0  0  0  0  0  0
   31.7960   51.9470   -6.6780 C   0  0  0  0  0  0  0  0  0  0  0  0
   28.5850   49.0370   -3.2840 N   0  0  0  0  0  0  0  0  0  0  0  0
   28.3940   50.1740   -2.5570 C   0  0  0  0  0  0  0  0  0  0  0  0
   32.7330   51.4430   -5.7720 C   0  0  0  0  0  0  0  0  0  0  0  0
   32.0530   53.1120   -7.3990 C   0  0  0  0  0  0  0  0  0  0  0  0
   33.9380   52.1230   -5.5930 C   0  0  0  0  0  0  0  0  0  0  0  0
   33.2630   53.7770   -7.2050 C   0  0  0  0  0  0  0  0  0  0  0  0
   33.5970   55.2180   -8.0870 Cl  0  0  0  0  0  0  0  0  0  0  0  0
   35.1050   51.5160   -4.4820 Cl  0  0  0  0  0  0  0  0  0  0  0  0
   34.2100   53.2900   -6.3050 C   0  0  0  0  0  0  0  0  0  0  0  0
  1  2  1  0
  2  3  1  0
  3  4  2  0
  3  5  1  0
  4  6  1  6
  4  7  2  0
  5  8  2  0
  5  9  1  0
  4 10  1  0
  8 11  1  0
  9 12  2  0
 11 12  1  0
 10 13  2  0
 10 14  1  0
 13 15  1  0
 14 16  2  0
 16 17  1  0
 15 18  1  0
 15 19  2  0
 16 19  1  0
M  END
