mac-x0379-mac-x0417
     RDKit          3D

 23 25  0  0  0  0  0  0  0  0999 V2000
   28.6590   51.9560   -5.5140 C   0  0  0  0  0  0  0  0  0  0  0  0
   29.3890   50.8630   -4.8160 C   0  0  0  0  0  0  0  0  0  0  0  0
   30.1380   51.0320   -3.7500 N   0  0  0  0  0  0  0  0  0  0  0  0
   29.2860   49.2540   -5.3900 S   0  0  0  0  0  0  0  0  0  0  0  0
   30.6630   49.8150   -3.3630 C   0  0  0  0  0  0  0  0  0  0  0  0
   30.3160   48.7130   -4.1310 C   0  0  0  0  0  0  0  0  0  0  0  0
   30.7330   47.3490   -3.9320 C   0  0  0  0  0  0  0  0  0  0  0  0
   31.6440   46.5940   -4.4270 N   0  0  0  0  0  0  0  0  0  0  0  0
   29.9670   46.7430   -2.9970 O   0  0  0  0  0  0  0  0  0  0  0  0
   31.8540   45.2060   -4.0310 C   0  0  0  0  0  0  0  0  0  0  0  0
   33.1340   44.6330   -4.6730 C   0  0  1  0  0  0  0  0  0  0  0  0
   33.4480   45.3180   -6.0010 C   0  0  0  0  0  0  0  0  0  0  0  0
   34.2990   44.6400   -3.7230 C   0  0  0  0  0  0  0  0  0  0  0  0
   32.8450   44.7840   -7.0960 O   0  0  0  0  0  0  0  0  0  0  0  0
   34.1920   46.2850   -6.1100 O   0  0  0  0  0  0  0  0  0  0  0  0
   34.7260   43.4770   -3.1950 N   0  0  0  0  0  0  0  0  0  0  0  0
   35.0820   45.7330   -3.2500 C   0  0  0  0  0  0  0  0  0  0  0  0
   35.7940   43.7990   -2.3710 O   0  0  0  0  0  0  0  0  0  0  0  0
   36.0040   45.1400   -2.4030 C   0  0  0  0  0  0  0  0  0  0  0  0
   35.1280   47.1300   -3.4260 C   0  0  0  0  0  0  0  0  0  0  0  0
   36.9870   45.8310   -1.7030 C   0  0  0  0  0  0  0  0  0  0  0  0
   36.1110   47.8570   -2.7320 C   0  0  0  0  0  0  0  0  0  0  0  0
   37.0220   47.2180   -1.8870 C   0  0  0  0  0  0  0  0  0  0  0  0
  1  2  1  0
  2  3  2  0
  2  4  1  0
  3  5  1  0
  4  6  1  0
  5  6  2  0
  6  7  1  0
  7  8  2  3
  7  9  1  0
  8 10  1  0
 11 10  1  1
 11 12  1  0
 11 13  1  0
 12 14  1  0
 12 15  2  0
 13 16  2  0
 13 17  1  0
 16 18  1  0
 17 19  2  0
 18 19  1  0
 17 20  1  0
 19 21  1  0
 20 22  2  0
 21 23  2  0
 22 23  1  0
M  END
