mac-x0319-mac-x0415
     RDKit          3D

 16 17  0  0  0  0  0  0  0  0999 V2000
   34.1960   46.0210   -6.9890 O   0  0  0  0  0  0  0  0  0  0  0  0
   33.0370   45.6950   -6.3820 C   0  0  0  0  0  0  0  0  0  0  0  0
   31.9540   45.8310   -6.9400 O   0  0  0  0  0  0  0  0  0  0  0  0
   33.1890   45.1560   -4.9750 C   0  0  0  0  0  0  0  0  0  0  0  0
   32.1090   45.5990   -4.0570 C   0  0  0  0  0  0  0  0  0  0  0  0
   30.8380   44.9180   -4.0080 C   0  0  0  0  0  0  0  0  0  0  0  0
   32.1020   46.6440   -3.1940 C   0  0  0  0  0  0  0  0  0  0  0  0
   30.8190   46.6140   -2.5160 C   0  0  0  0  0  0  0  0  0  0  0  0
   30.0600   45.5280   -3.1170 C   0  0  0  0  0  0  0  0  0  0  0  0
   28.6550   45.2750   -2.7360 C   0  0  2  0  0  0  0  0  0  0  0  0
   30.3080   47.3580   -1.5050 C   0  0  0  0  0  0  0  0  0  0  0  0
   28.4330   43.8840   -2.5400 O   0  0  0  0  0  0  0  0  0  0  0  0
   31.1780   48.7830   -0.6620 Br  0  0  0  0  0  0  0  0  0  0  0  0
   27.8150   45.7260   -3.9000 C   0  0  0  0  0  0  0  0  0  0  0  0
   28.2230   46.0740   -1.5380 C   0  0  0  0  0  0  0  0  0  0  0  0
   28.9820   47.0390   -0.9920 C   0  0  0  0  0  0  0  0  0  0  0  0
  1  2  1  0
  2  3  2  0
  2  4  1  0
  4  5  1  0
  5  6  1  0
  5  7  2  0
  7  8  1  0
  6  9  2  0
  8  9  1  0
  9 10  1  0
  8 11  2  0
 10 12  1  0
 11 13  1  0
 10 14  1  6
 10 15  1  0
 11 16  1  0
 15 16  2  0
M  END
