mac-x0138-mac-x0263
     RDKit          3D

 25 28  0  0  0  0  0  0  0  0999 V2000
   30.8820   46.6790   -4.6840 C   0  0  0  0  0  0  0  0  0  0  0  0
   30.3100   47.9830   -4.8310 N   0  0  0  0  0  0  0  0  0  0  0  0
   30.1790   48.8980   -3.8310 C   0  0  0  0  0  0  0  0  0  0  0  0
   29.8000   48.5370   -5.9830 C   0  0  0  0  0  0  0  0  0  0  0  0
   29.6180   49.9860   -4.2630 N   0  0  0  0  0  0  0  0  0  0  0  0
   29.3690   49.7740   -5.6090 C   0  0  0  0  0  0  0  0  0  0  0  0
   29.7170   48.0160   -7.2120 N   0  0  0  0  0  0  0  0  0  0  0  0
   28.7720   50.5910   -6.5650 C   0  0  0  0  0  0  0  0  0  0  0  0
   29.1390   48.8700   -8.0930 C   0  0  0  0  0  0  0  0  0  0  0  0
   29.0250   48.3810   -9.3810 N   0  0  0  0  0  0  0  0  0  0  0  0
   28.6560   50.1340   -7.8590 N   0  0  0  0  0  0  0  0  0  0  0  0
   28.3460   51.8120   -5.8930 C   0  0  0  0  0  0  0  0  0  0  0  0
   28.3200   53.2620   -6.0730 C   0  0  0  0  0  0  0  0  0  0  0  0
   27.8270   51.3170   -4.6930 C   0  0  0  0  0  0  0  0  0  0  0  0
   27.7860   53.9650   -4.9690 C   0  0  0  0  0  0  0  0  0  0  0  0
   28.6860   54.2180   -7.0440 N   0  0  0  0  0  0  0  0  0  0  0  0
   27.3250   52.0680   -3.6820 C   0  0  0  0  0  0  0  0  0  0  0  0
   28.3660   55.4120   -6.5060 C   0  0  0  0  0  0  0  0  0  0  0  0
   27.8420   55.2680   -5.2820 N   0  0  0  0  0  0  0  0  0  0  0  0
   27.3000   53.4240   -3.7990 C   0  0  0  0  0  0  0  0  0  0  0  0
   28.4760   56.8210   -7.0050 C   0  0  0  0  0  0  0  0  0  0  0  0
   27.6990   57.7220   -6.0220 C   0  0  0  0  0  0  0  0  0  0  0  0
   27.1940   59.0350   -6.5720 C   0  0  0  0  0  0  0  0  0  0  0  0
   28.1790   59.9410   -6.7050 O   0  0  0  0  0  0  0  0  0  0  0  0
   26.0420   59.3240   -6.8670 O   0  0  0  0  0  0  0  0  0  0  0  0
  1  2  1  0
  2  3  1  0
  2  4  1  0
  3  5  2  0
  4  6  2  0
  5  6  1  0
  4  7  1  0
  6  8  1  0
  7  9  2  0
  9 10  1  0
  8 11  2  0
  9 11  1  0
  8 12  1  0
 12 13  1  0
 12 14  2  0
 13 15  2  0
 13 16  1  0
 14 17  1  0
 16 18  2  0
 15 19  1  0
 18 19  1  0
 15 20  1  0
 17 20  2  0
 18 21  1  0
 21 22  1  0
 22 23  1  0
 23 24  1  0
 23 25  2  0
M  END
