mac-x0411-mac-x0346
     RDKit          3D

 27 28  0  0  0  0  0  0  0  0999 V2000
   37.2060   44.1250   -3.5130 Cl  0  0  0  0  0  0  0  0  0  0  0  0
   36.5280   45.6880   -3.2290 C   0  0  0  0  0  0  0  0  0  0  0  0
   35.1680   45.9640   -3.4760 C   0  0  0  0  0  0  0  0  0  0  0  0
   37.3680   46.6870   -2.7430 C   0  0  0  0  0  0  0  0  0  0  0  0
   34.3310   44.9810   -3.9600 O   0  0  0  0  0  0  0  0  0  0  0  0
   34.6500   47.2550   -3.2300 C   0  0  0  0  0  0  0  0  0  0  0  0
   36.8660   47.9620   -2.4980 C   0  0  0  0  0  0  0  0  0  0  0  0
   33.2000   47.6140   -3.4720 C   0  0  0  0  0  0  0  0  0  0  0  0
   33.4870   45.4820   -5.0150 C   0  0  0  0  0  0  0  0  0  0  0  0
   35.5210   48.2430   -2.7380 C   0  0  0  0  0  0  0  0  0  0  0  0
   33.2740   44.3770   -6.0390 C   0  0  0  0  0  0  0  0  0  0  0  0
   32.8600   49.0250   -2.9930 C   0  0  0  0  0  0  0  0  0  0  0  0
   31.9740   44.0050   -6.1640 O   0  0  0  0  0  0  0  0  0  0  0  0
   34.1680   43.8620   -6.6950 O   0  0  0  0  0  0  0  0  0  0  0  0
   31.5440   49.5560   -3.5660 C   0  0  0  0  0  0  0  0  0  0  0  0
   30.3930   49.6610   -2.5650 C   0  0  0  0  0  0  0  0  0  0  0  0
   29.4290   50.6520   -2.9340 O   0  0  0  0  0  0  0  0  0  0  0  0
   29.1280   50.8170   -4.2610 C   0  0  0  0  0  0  0  0  0  0  0  0
   29.1910   52.1190   -4.8010 C   0  0  0  0  0  0  0  0  0  0  0  0
   28.7620   49.7490   -5.0950 C   0  0  0  0  0  0  0  0  0  0  0  0
   29.5680   53.3460   -4.0230 C   0  0  0  0  0  0  0  0  0  0  0  0
   28.4610   49.9630   -6.4420 C   0  0  0  0  0  0  0  0  0  0  0  0
   28.8850   52.3180   -6.1620 C   0  0  0  0  0  0  0  0  0  0  0  0
   30.1240   54.3970   -4.7080 N   0  0  0  0  0  0  0  0  0  0  0  0
   29.3920   53.4120   -2.8060 O   0  0  0  0  0  0  0  0  0  0  0  0
   28.5220   51.2450   -6.9760 C   0  0  0  0  0  0  0  0  0  0  0  0
   29.2790   55.5060   -4.9490 O   0  0  0  0  0  0  0  0  0  0  0  0
  1  2  1  0
  2  3  2  0
  2  4  1  0
  3  5  1  0
  3  6  1  0
  4  7  2  0
  6  8  1  0
  5  9  1  0
  6 10  2  0
  7 10  1  0
  9 11  1  0
  8 12  1  0
 11 13  1  0
 11 14  2  0
 12 15  1  0
 15 16  1  0
 16 17  1  0
 17 18  1  0
 18 19  2  0
 18 20  1  0
 19 21  1  0
 20 22  2  0
 19 23  1  0
 21 24  1  0
 21 25  2  0
 22 26  1  0
 23 26  2  0
 24 27  1  0
M  END
