mac-x0510-mac-x0411
     RDKit          3D

 26 28  0  0  0  0  0  0  0  0999 V2000
   28.9430   53.0910   -5.5470 O   0  0  0  0  0  0  0  0  0  0  0  0
   29.0570   51.8830   -5.7560 C   0  0  0  0  0  0  0  0  0  0  0  0
   29.4730   51.0160   -4.7460 N   0  0  0  0  0  0  0  0  0  0  0  0
   28.7850   51.3300   -6.9840 N   0  0  0  0  0  0  0  0  0  0  0  0
   28.7700   49.9780   -7.1350 C   0  0  0  0  0  0  0  0  0  0  0  0
   29.7630   49.6730   -4.9340 C   0  0  0  0  0  0  0  0  0  0  0  0
   30.4350   48.8640   -4.1850 N   0  0  0  0  0  0  0  0  0  0  0  0
   29.2390   49.1710   -6.1460 C   0  0  0  0  0  0  0  0  0  0  0  0
   28.3260   49.2800   -8.2080 N   0  0  0  0  0  0  0  0  0  0  0  0
   31.0810   49.2170   -2.9230 C   0  0  0  0  0  0  0  0  0  0  0  0
   29.0760   47.9020   -6.6160 N   0  0  0  0  0  0  0  0  0  0  0  0
   28.5230   48.0180   -7.8660 C   0  0  0  0  0  0  0  0  0  0  0  0
   32.5920   48.8990   -3.0270 C   0  0  0  0  0  0  0  0  0  0  0  0
   32.9320   47.4080   -3.2850 C   0  0  0  0  0  0  0  0  0  0  0  0
   34.4360   47.1210   -3.2140 C   0  0  0  0  0  0  0  0  0  0  0  0
   35.0320   45.8220   -3.3190 C   0  0  0  0  0  0  0  0  0  0  0  0
   35.2970   48.2200   -3.0280 C   0  0  0  0  0  0  0  0  0  0  0  0
   34.2750   44.6730   -3.4980 O   0  0  0  0  0  0  0  0  0  0  0  0
   36.6820   48.0620   -2.9480 C   0  0  0  0  0  0  0  0  0  0  0  0
   36.4340   45.6840   -3.2340 C   0  0  0  0  0  0  0  0  0  0  0  0
   37.2100   44.1430   -3.3510 Cl  0  0  0  0  0  0  0  0  0  0  0  0
   33.0660   44.8170   -4.2460 C   0  0  0  0  0  0  0  0  0  0  0  0
   37.2490   46.7970   -3.0500 C   0  0  0  0  0  0  0  0  0  0  0  0
   33.3020   45.1110   -5.7260 C   0  0  0  0  0  0  0  0  0  0  0  0
   32.1590   45.0420   -6.4560 O   0  0  0  0  0  0  0  0  0  0  0  0
   34.3670   45.3820   -6.2630 O   0  0  0  0  0  0  0  0  0  0  0  0
  1  2  2  0
  2  3  1  0
  2  4  1  0
  4  5  1  0
  3  6  1  0
  6  7  2  3
  5  8  2  0
  6  8  1  0
  5  9  1  0
  7 10  1  0
  8 11  1  0
  9 12  2  0
 11 12  1  0
 10 13  1  0
 13 14  1  0
 14 15  1  0
 15 16  2  0
 15 17  1  0
 16 18  1  0
 17 19  2  0
 16 20  1  0
 20 21  1  0
 18 22  1  0
 19 23  1  0
 20 23  2  0
 22 24  1  0
 24 25  1  0
 24 26  2  0
M  END
