mac-x0333-mac-x0345
     RDKit          3D

 13 14  0  0  0  0  0  0  0  0999 V2000
   29.4960   48.8610   -4.5790 O   0  0  0  0  0  0  0  0  0  0  0  0
   29.4650   50.2330   -4.7140 C   0  0  0  0  0  0  0  0  0  0  0  0
   29.0620   50.8500   -5.9240 C   0  0  0  0  0  0  0  0  0  0  0  0
   29.8500   50.9910   -3.5970 C   0  0  0  0  0  0  0  0  0  0  0  0
   30.2480   50.3840   -2.3950 N   0  0  0  0  0  0  0  0  0  0  0  0
   28.5520   49.7470   -7.3900 Br  0  0  0  0  0  0  0  0  0  0  0  0
   29.8140   52.3680   -3.7440 C   0  0  0  0  0  0  0  0  0  0  0  0
   29.0360   52.2520   -6.0390 C   0  0  0  0  0  0  0  0  0  0  0  0
   28.6180   52.9640   -7.2880 C   0  0  0  0  0  0  0  0  0  0  0  0
   29.4210   52.9710   -4.9200 C   0  0  0  0  0  0  0  0  0  0  0  0
   30.1460   53.2780   -2.7830 O   0  0  0  0  0  0  0  0  0  0  0  0
   29.4620   54.3330   -4.8290 O   0  0  0  0  0  0  0  0  0  0  0  0
   30.0370   54.5060   -3.5210 C   0  0  0  0  0  0  0  0  0  0  0  0
  1  2  1  0
  2  3  2  0
  2  4  1  0
  4  5  1  0
  3  6  1  0
  4  7  2  0
  3  8  1  0
  8  9  1  0
  7 10  1  0
  8 10  2  0
  7 11  1  0
 10 12  1  0
 11 13  1  0
 12 13  1  0
M  END
