mac-x0358-mac-x0182
     RDKit          3D

 21 24  0  0  0  0  0  0  0  0999 V2000
   31.6620   44.7980   -6.8530 O   0  0  0  0  0  0  0  0  0  0  0  0
   32.3010   45.1630   -5.7150 C   0  0  0  0  0  0  0  0  0  0  0  0
   33.5170   45.4960   -5.8300 N   0  0  0  0  0  0  0  0  0  0  0  0
   31.4400   45.1110   -4.5030 C   0  0  0  0  0  0  0  0  0  0  0  0
   31.6380   46.0520   -3.3450 C   0  0  0  0  0  0  0  0  0  0  0  0
   34.1890   45.9220   -4.6500 N   0  0  1  0  0  0  0  0  0  0  0  0
   33.6710   47.1140   -4.0710 O   0  0  0  0  0  0  0  0  0  0  0  0
   32.6810   46.9580   -3.1810 C   0  0  0  0  0  0  0  0  0  0  0  0
   30.6720   46.0080   -2.3370 C   0  0  0  0  0  0  0  0  0  0  0  0
   34.8080   44.9110   -3.7020 C   0  0  0  0  0  0  0  0  0  0  0  0
   35.5980   46.7110   -5.3300 S   0  0  0  0  0  0  0  0  0  0  0  0
   34.4170   43.7580   -3.5600 O   0  0  0  0  0  0  0  0  0  0  0  0
   32.7750   47.7910   -2.0650 C   0  0  0  0  0  0  0  0  0  0  0  0
   30.7510   46.8360   -1.2180 C   0  0  0  0  0  0  0  0  0  0  0  0
   36.4150   46.5800   -3.7860 C   0  0  0  0  0  0  0  0  0  0  0  0
   35.9130   45.5560   -2.9940 C   0  0  0  0  0  0  0  0  0  0  0  0
   31.8050   47.7300   -1.0820 C   0  0  0  0  0  0  0  0  0  0  0  0
   37.4510   47.3700   -3.3490 C   0  0  0  0  0  0  0  0  0  0  0  0
   36.4350   45.2720   -1.7460 C   0  0  0  0  0  0  0  0  0  0  0  0
   37.9940   47.1130   -2.0970 C   0  0  0  0  0  0  0  0  0  0  0  0
   37.4940   46.0690   -1.3010 C   0  0  0  0  0  0  0  0  0  0  0  0
  1  2  1  0
  2  3  2  0
  2  4  1  0
  4  5  1  0
  6  3  1  6
  6  7  1  0
  5  8  2  0
  7  8  1  0
  5  9  1  0
  6 10  1  0
  6 11  1  0
 10 12  2  0
  8 13  1  0
  9 14  2  0
 11 15  1  0
 10 16  1  0
 15 16  2  0
 13 17  2  0
 14 17  1  0
 15 18  1  0
 16 19  1  0
 18 20  2  0
 19 21  2  0
 20 21  1  0
M  CHG  1   6   1
M  END
