mac-x0148-mac-x0358
     RDKit          3D

 23 26  0  0  0  0  0  0  0  0999 V2000
   32.0340   43.3080   -5.8060 O   0  0  0  0  0  0  0  0  0  0  0  0
   32.9360   44.0880   -5.1850 C   0  0  0  0  0  0  0  0  0  0  0  0
   34.0720   44.1700   -5.6270 O   0  0  0  0  0  0  0  0  0  0  0  0
   32.4120   44.8000   -3.9590 C   0  0  0  0  0  0  0  0  0  0  0  0
   32.4560   46.3670   -4.0110 C   0  0  2  0  0  0  0  0  0  0  0  0
   32.7250   46.9460   -2.6140 C   0  0  2  0  0  0  0  0  0  0  0  0
   31.0490   46.9720   -4.2900 C   0  0  1  0  0  0  0  0  0  0  0  0
   33.4270   46.8010   -5.1280 C   0  0  0  0  0  0  0  0  0  0  0  0
   33.6510   46.1570   -1.8860 O   0  0  0  0  0  0  0  0  0  0  0  0
   31.4700   46.8810   -1.9420 O   0  0  0  0  0  0  0  0  0  0  0  0
   30.4880   47.3090   -2.9030 C   0  0  0  0  0  0  0  0  0  0  0  0
   33.5690   48.3280   -5.1870 C   0  0  0  0  0  0  0  0  0  0  0  0
   31.1050   48.0610   -5.2870 N   0  0  0  0  0  0  0  0  0  0  0  0
   32.2140   49.0270   -5.0920 C   0  0  0  0  0  0  0  0  0  0  0  0
   30.0400   48.4010   -6.1260 C   0  0  0  0  0  0  0  0  0  0  0  0
   29.5650   47.5350   -7.0960 N   0  0  0  0  0  0  0  0  0  0  0  0
   29.4050   49.5820   -6.0600 C   0  0  0  0  0  0  0  0  0  0  0  0
   28.5290   47.8640   -7.9240 C   0  0  0  0  0  0  0  0  0  0  0  0
   28.2880   49.8790   -6.9870 C   0  0  0  0  0  0  0  0  0  0  0  0
   29.5020   50.7720   -5.2730 C   0  0  0  0  0  0  0  0  0  0  0  0
   27.8710   48.9770   -7.9230 N   0  0  0  0  0  0  0  0  0  0  0  0
   27.7840   51.0680   -6.7910 N   0  0  0  0  0  0  0  0  0  0  0  0
   28.5420   51.5830   -5.7460 C   0  0  0  0  0  0  0  0  0  0  0  0
  1  2  1  0
  2  3  2  0
  2  4  1  0
  5  4  1  1
  5  6  1  0
  5  7  1  0
  5  8  1  0
  6  9  1  1
  6 10  1  0
  7 11  1  1
 10 11  1  0
  8 12  1  0
  7 13  1  0
 12 14  1  0
 13 14  1  0
 13 15  1  0
 15 16  1  0
 15 17  2  0
 16 18  1  0
 17 19  1  0
 17 20  1  0
 18 21  2  0
 19 21  1  0
 19 22  2  0
 20 23  2  0
 22 23  1  0
M  END
