mac-x0451-mac-x0412
     RDKit          3D

 12 13  0  0  0  0  0  0  0  0999 V2000
   28.7030   54.2780   -7.9060 N   0  0  0  0  0  0  0  0  0  0  0  0
   29.0270   52.9900   -7.2360 C   0  0  0  0  0  0  0  0  0  0  0  0
   29.3900   52.7960   -5.8050 N   0  0  0  0  0  0  0  0  0  0  0  0
   29.0060   51.5200   -8.1210 S   0  0  0  0  0  0  0  0  0  0  0  0
   29.4440   53.8100   -5.0260 O   0  0  0  0  0  0  0  0  0  0  0  0
   29.6250   51.4940   -5.5100 C   0  0  0  0  0  0  0  0  0  0  0  0
   29.4610   50.6770   -6.6500 C   0  0  0  0  0  0  0  0  0  0  0  0
   29.9870   50.9670   -4.2630 C   0  0  0  0  0  0  0  0  0  0  0  0
   29.6680   49.2860   -6.5240 C   0  0  0  0  0  0  0  0  0  0  0  0
   30.1870   49.5910   -4.1620 C   0  0  0  0  0  0  0  0  0  0  0  0
   30.0270   48.7740   -5.2750 C   0  0  0  0  0  0  0  0  0  0  0  0
   30.2250   47.4540   -5.1420 F   0  0  0  0  0  0  0  0  0  0  0  0
  1  2  1  0
  2  3  2  0
  2  4  1  0
  3  5  1  0
  3  6  1  0
  4  7  1  0
  6  7  2  0
  6  8  1  0
  7  9  1  0
  8 10  2  0
  9 11  2  0
 10 11  1  0
 11 12  1  0
M  CHG  2   3   1   5  -1
M  END
