mac-x0163-mac-x0361
     RDKit          3D

 27 30  0  0  0  0  0  0  0  0999 V2000
   26.7530   48.6070   -5.1300 Cl  0  0  0  0  0  0  0  0  0  0  0  0
   27.9220   48.3010   -6.3690 C   0  0  0  0  0  0  0  0  0  0  0  0
   27.8770   49.0090   -7.5720 C   0  0  0  0  0  0  0  0  0  0  0  0
   28.9480   47.3530   -6.2380 C   0  0  0  0  0  0  0  0  0  0  0  0
   26.9040   49.9830   -7.8270 N   0  0  0  0  0  0  0  0  0  0  0  0
   29.8320   47.1500   -7.2370 N   0  0  0  0  0  0  0  0  0  0  0  0
   28.7500   48.8150   -8.5690 N   0  0  0  0  0  0  0  0  0  0  0  0
   29.0810   46.5800   -5.0580 N   0  0  0  0  0  0  0  0  0  0  0  0
   29.6890   47.8890   -8.3480 C   0  0  0  0  0  0  0  0  0  0  0  0
   29.8660   45.3370   -5.1690 C   0  0  0  0  0  0  0  0  0  0  0  0
   29.1810   47.3610   -3.7990 C   0  0  0  0  0  0  0  0  0  0  0  0
   31.3240   45.5370   -4.6990 C   0  0  0  0  0  0  0  0  0  0  0  0
   30.6200   47.4090   -3.1910 C   0  0  2  0  0  0  0  0  0  0  0  0
   31.3740   48.4110   -3.8890 O   0  0  0  0  0  0  0  0  0  0  0  0
   32.2760   44.3230   -4.9580 C   0  0  0  0  0  0  0  0  0  0  0  0
   32.2220   46.3210   -5.7070 C   0  0  0  0  0  0  0  0  0  0  0  0
   31.3610   46.0670   -3.2710 C   0  0  0  0  0  0  0  0  0  0  0  0
   30.9500   49.7070   -3.8900 C   0  0  0  0  0  0  0  0  0  0  0  0
   33.3570   45.3310   -5.3920 C   0  0  0  0  0  0  0  0  0  0  0  0
   31.4300   50.4650   -4.9630 C   0  0  0  0  0  0  0  0  0  0  0  0
   30.1140   50.3110   -2.9520 C   0  0  0  0  0  0  0  0  0  0  0  0
   31.0810   51.8110   -5.1010 C   0  0  0  0  0  0  0  0  0  0  0  0
   29.7610   51.6620   -3.0840 C   0  0  0  0  0  0  0  0  0  0  0  0
   30.2440   52.4160   -4.1600 C   0  0  0  0  0  0  0  0  0  0  0  0
   29.8950   53.8530   -4.3400 C   0  0  0  0  0  0  0  0  0  0  0  0
   29.5790   54.2740   -5.6040 N   0  0  0  0  0  0  0  0  0  0  0  0
   29.8870   54.6390   -3.4010 O   0  0  0  0  0  0  0  0  0  0  0  0
  1  2  1  0
  2  3  2  0
  2  4  1  0
  3  5  1  0
  4  6  2  0
  3  7  1  0
  4  8  1  0
  6  9  1  0
  7  9  2  0
  8 10  1  0
  8 11  1  0
 12 10  1  0
 11 13  1  0
 13 14  1  6
 12 15  1  0
 12 16  1  0
 12 17  1  0
 13 17  1  0
 14 18  1  0
 15 19  1  0
 16 19  1  0
 18 20  2  0
 18 21  1  0
 20 22  1  0
 21 23  2  0
 22 24  2  0
 23 24  1  0
 24 25  1  0
 25 26  1  0
 25 27  2  0
M  END
