mac-x0302-mac-x0584
     RDKit          3D

 28 31  0  0  0  0  0  0  0  0999 V2000
   34.3370   47.5290   -7.7900 O   0  0  0  0  0  0  0  0  0  0  0  0
   33.9350   48.6540   -7.1630 C   0  0  0  0  0  0  0  0  0  0  0  0
   34.3680   49.7450   -7.5060 O   0  0  0  0  0  0  0  0  0  0  0  0
   32.9370   48.3890   -6.0530 C   0  0  0  0  0  0  0  0  0  0  0  0
   32.2320   49.6130   -5.6910 N   0  0  0  0  0  0  0  0  0  0  0  0
   31.5740   49.7130   -4.4900 C   0  0  0  0  0  0  0  0  0  0  0  0
   32.0980   49.3030   -3.4540 O   0  0  0  0  0  0  0  0  0  0  0  0
   30.1800   50.3690   -4.4660 C   0  0  1  0  0  0  0  0  0  0  0  0
   30.2230   51.8710   -4.8050 C   0  0  0  0  0  0  0  0  0  0  0  0
   29.0160   49.5910   -5.2250 C   0  0  1  0  0  0  0  0  0  0  0  0
   28.9170   52.5560   -4.4230 C   0  0  1  0  0  0  0  0  0  0  0  0
   27.8000   50.5260   -5.3450 C   0  0  0  0  0  0  0  0  0  0  0  0
   29.4420   49.2730   -6.7090 C   0  0  0  0  0  0  0  0  0  0  0  0
   28.6430   48.1750   -4.6060 C   0  0  2  0  0  0  0  0  0  0  0  0
   28.8920   53.8810   -4.9350 O   0  0  0  0  0  0  0  0  0  0  0  0
   27.7560   51.8220   -4.9950 C   0  0  0  0  0  0  0  0  0  0  0  0
   29.7100   47.3850   -3.9640 N   0  0  0  0  0  0  0  0  0  0  0  0
   27.8040   47.3370   -5.4640 N   0  0  0  0  0  0  0  0  0  0  0  0
   28.4810   48.4470   -7.4610 N   0  0  0  0  0  0  0  0  0  0  0  0
   29.7690   45.9040   -4.1060 C   0  0  1  0  0  0  0  0  0  0  0  0
   29.7060   47.5830   -2.5010 C   0  0  0  0  0  0  0  0  0  0  0  0
   28.2720   47.1720   -6.8230 C   0  0  0  0  0  0  0  0  0  0  0  0
   31.1240   45.2480   -3.8240 C   0  0  0  0  0  0  0  0  0  0  0  0
   28.7530   45.4560   -3.0330 C   0  0  0  0  0  0  0  0  0  0  0  0
   28.6940   46.5740   -2.0110 C   0  0  0  0  0  0  0  0  0  0  0  0
   31.1500   43.6980   -3.5830 C   0  0  0  0  0  0  0  0  0  0  0  0
   32.0250   44.9340   -5.0620 C   0  0  0  0  0  0  0  0  0  0  0  0
   32.4810   43.6540   -4.3440 C   0  0  0  0  0  0  0  0  0  0  0  0
  1  2  1  0
  2  3  2  0
  2  4  1  0
  4  5  1  0
  5  6  1  0
  6  7  2  0
  8  6  1  6
  8  9  1  0
  8 10  1  0
  9 11  1  0
 10 12  1  6
 10 13  1  0
 10 14  1  0
 11 15  1  6
 11 16  1  0
 12 16  2  0
 14 17  1  6
 14 18  1  0
 13 19  1  0
 17 20  1  0
 17 21  1  0
 18 22  1  0
 19 22  1  0
 20 23  1  1
 20 24  1  0
 21 25  1  0
 24 25  1  0
 23 26  1  0
 23 27  1  0
 26 28  1  0
 27 28  1  0
M  END
