mac-x0182-mac-x0282
     RDKit          3D

 23 26  0  0  0  0  0  0  0  0999 V2000
   34.4010   43.3600   -2.7410 O   0  0  0  0  0  0  0  0  0  0  0  0
   34.5310   44.4680   -3.2380 C   0  0  0  0  0  0  0  0  0  0  0  0
   33.6820   45.0320   -4.1540 N   0  0  0  0  0  0  0  0  0  0  0  0
   35.6540   45.3810   -2.9030 C   0  0  0  0  0  0  0  0  0  0  0  0
   34.1020   46.6240   -4.4890 S   0  0  2  0  0  0  0  0  0  0  0  0
   35.5470   46.6160   -3.5280 C   0  0  0  0  0  0  0  0  0  0  0  0
   36.7300   45.1130   -2.0690 C   0  0  0  0  0  0  0  0  0  0  0  0
   33.0240   47.4370   -3.7800 N   0  0  0  0  0  0  0  0  0  0  0  0
   34.4650   46.6440   -5.8850 O   0  0  0  0  0  0  0  0  0  0  0  0
   36.4710   47.6280   -3.3690 C   0  0  0  0  0  0  0  0  0  0  0  0
   37.6870   46.1170   -1.8860 C   0  0  0  0  0  0  0  0  0  0  0  0
   32.0260   48.1690   -4.5840 C   0  0  0  0  0  0  0  0  0  0  0  0
   37.5610   47.3660   -2.5300 C   0  0  0  0  0  0  0  0  0  0  0  0
   30.7650   47.3200   -4.8390 C   0  0  0  0  0  0  0  0  0  0  0  0
   29.9560   47.8960   -5.9820 C   0  0  0  0  0  0  0  0  0  0  0  0
   29.4770   49.2200   -5.9860 C   0  0  0  0  0  0  0  0  0  0  0  0
   29.6490   47.1190   -7.1130 C   0  0  0  0  0  0  0  0  0  0  0  0
   29.5380   50.3240   -5.0930 C   0  0  0  0  0  0  0  0  0  0  0  0
   28.7550   49.6470   -7.0960 C   0  0  0  0  0  0  0  0  0  0  0  0
   28.9140   47.6710   -8.1540 C   0  0  0  0  0  0  0  0  0  0  0  0
   28.8650   51.3770   -5.6750 C   0  0  0  0  0  0  0  0  0  0  0  0
   28.3940   50.9520   -6.8900 N   0  0  0  0  0  0  0  0  0  0  0  0
   28.4450   48.9400   -8.1940 N   0  0  0  0  0  0  0  0  0  0  0  0
  1  2  2  0
  2  3  1  0
  2  4  1  0
  5  3  1  6
  4  6  2  0
  5  6  1  0
  4  7  1  0
  5  8  2  0
  5  9  2  0
  6 10  1  0
  7 11  2  0
  8 12  1  0
 10 13  2  0
 11 13  1  0
 12 14  1  0
 14 15  1  0
 15 16  1  0
 15 17  2  0
 16 18  1  0
 16 19  2  0
 17 20  1  0
 18 21  2  0
 19 22  1  0
 21 22  1  0
 19 23  1  0
 20 23  2  0
M  END
