mac-x0396-mac-x0178
     RDKit          3D

 23 24  0  0  0  0  0  0  0  0999 V2000
   29.2070   50.2550   -6.5330 N   0  0  0  0  0  0  0  0  0  0  0  0
   29.8690   50.7040   -5.4180 C   0  0  0  0  0  0  0  0  0  0  0  0
   30.7410   49.9520   -4.8130 N   0  0  0  0  0  0  0  0  0  0  0  0
   29.6130   52.0810   -4.9640 C   0  0  0  0  0  0  0  0  0  0  0  0
   31.1910   48.6170   -5.2000 C   0  0  0  0  0  0  0  0  0  0  0  0
   29.8330   52.4130   -3.6390 C   0  0  0  0  0  0  0  0  0  0  0  0
   29.1740   53.0580   -5.8500 C   0  0  0  0  0  0  0  0  0  0  0  0
   29.6460   53.6600   -3.1470 N   0  0  0  0  0  0  0  0  0  0  0  0
   28.9750   54.3500   -5.3700 C   0  0  0  0  0  0  0  0  0  0  0  0
   30.7730   47.4620   -4.3090 C   0  0  0  0  0  0  0  0  0  0  0  0
   29.2230   54.5970   -4.0260 C   0  0  0  0  0  0  0  0  0  0  0  0
   31.0250   46.1660   -4.7640 C   0  0  0  0  0  0  0  0  0  0  0  0
   30.1360   47.6280   -3.0600 C   0  0  0  0  0  0  0  0  0  0  0  0
   31.7100   45.9360   -6.0530 C   0  0  0  0  0  0  0  0  0  0  0  0
   29.7580   46.5000   -2.3130 C   0  0  0  0  0  0  0  0  0  0  0  0
   30.6440   45.0470   -4.0220 C   0  0  0  0  0  0  0  0  0  0  0  0
   28.9450   46.6820   -0.7420 S   0  0  0  0  0  0  0  0  0  0  0  0
   31.1580   45.5740   -7.0740 O   0  0  0  0  0  0  0  0  0  0  0  0
   33.0360   46.1830   -5.9540 O   0  0  0  0  0  0  0  0  0  0  0  0
   30.0050   45.2140   -2.7960 C   0  0  0  0  0  0  0  0  0  0  0  0
   28.5220   45.0930   -0.3710 N   0  0  0  0  0  0  0  0  0  0  0  0
   29.9110   47.1180    0.2360 O   0  0  0  0  0  0  0  0  0  0  0  0
   27.6930   47.3680   -0.9590 O   0  0  0  0  0  0  0  0  0  0  0  0
  1  2  1  0
  2  3  2  3
  2  4  1  0
  3  5  1  0
  4  6  2  0
  4  7  1  0
  6  8  1  0
  7  9  2  0
  5 10  1  0
  8 11  2  0
  9 11  1  0
 10 12  2  0
 10 13  1  0
 12 14  1  0
 13 15  2  0
 12 16  1  0
 15 17  1  0
 14 18  2  0
 14 19  1  0
 15 20  1  0
 16 20  2  0
 17 21  1  0
 17 22  2  0
 17 23  2  0
M  END
