mac-x0139-mac-x0358
     RDKit          3D

 24 26  0  0  0  0  0  0  0  0999 V2000
   29.9940   47.4190   -4.3250 C   0  0  0  0  0  0  0  0  0  0  0  0
   29.7660   46.7170   -5.5930 N   0  0  0  0  0  0  0  0  0  0  0  0
   30.4390   45.4060   -5.7140 C   0  0  0  0  0  0  0  0  0  0  0  0
   29.3440   47.4560   -6.7050 C   0  0  0  0  0  0  0  0  0  0  0  0
   31.9650   45.5250   -5.7080 C   0  0  2  0  0  0  0  0  0  0  0  0
   29.2810   48.8100   -6.7060 C   0  0  0  0  0  0  0  0  0  0  0  0
   28.9800   46.7160   -7.8400 N   0  0  0  0  0  0  0  0  0  0  0  0
   32.5260   44.8970   -6.9590 C   0  0  0  0  0  0  0  0  0  0  0  0
   32.5770   44.9590   -4.4300 C   0  0  0  0  0  0  0  0  0  0  0  0
   28.8140   49.4750   -7.9450 C   0  0  0  0  0  0  0  0  0  0  0  0
   28.5880   47.3500   -8.8960 C   0  0  0  0  0  0  0  0  0  0  0  0
   29.5370   49.9040   -5.8250 C   0  0  0  0  0  0  0  0  0  0  0  0
   31.8800   44.4080   -7.8720 O   0  0  0  0  0  0  0  0  0  0  0  0
   33.8710   44.9140   -7.0300 O   0  0  0  0  0  0  0  0  0  0  0  0
   28.4910   48.6980   -9.0030 N   0  0  0  0  0  0  0  0  0  0  0  0
   28.7790   50.7730   -7.8220 N   0  0  0  0  0  0  0  0  0  0  0  0
   29.2230   51.0030   -6.5290 C   0  0  0  0  0  0  0  0  0  0  0  0
   32.3810   45.9590   -3.3190 C   0  0  0  0  0  0  0  0  0  0  0  0
   33.3460   46.9170   -3.0060 C   0  0  0  0  0  0  0  0  0  0  0  0
   31.1880   45.9360   -2.5760 C   0  0  0  0  0  0  0  0  0  0  0  0
   34.5100   46.9430   -3.7240 O   0  0  0  0  0  0  0  0  0  0  0  0
   33.1380   47.8370   -1.9840 C   0  0  0  0  0  0  0  0  0  0  0  0
   30.9750   46.8540   -1.5520 C   0  0  0  0  0  0  0  0  0  0  0  0
   31.9470   47.8050   -1.2530 C   0  0  0  0  0  0  0  0  0  0  0  0
  1  2  1  0
  2  3  1  0
  2  4  1  0
  5  3  1  1
  4  6  2  0
  4  7  1  0
  5  8  1  0
  5  9  1  0
  6 10  1  0
  7 11  2  0
  6 12  1  0
  8 13  2  0
  8 14  1  0
 10 15  1  0
 11 15  1  0
 10 16  2  0
 12 17  2  0
 16 17  1  0
  9 18  1  0
 18 19  2  0
 18 20  1  0
 19 21  1  0
 19 22  1  0
 20 23  2  0
 22 24  2  0
 23 24  1  0
M  END
