mac-x0565-mac-x0417
     RDKit          3D

 26 29  0  0  0  0  0  0  0  0999 V2000
   28.5520   53.0490   -5.0810 O   0  0  0  0  0  0  0  0  0  0  0  0
   29.1200   52.8190   -3.8780 C   0  0  0  0  0  0  0  0  0  0  0  0
   29.1330   53.6270   -2.9670 O   0  0  0  0  0  0  0  0  0  0  0  0
   29.7340   51.4710   -3.7850 C   0  0  0  0  0  0  0  0  0  0  0  0
   29.1840   50.4370   -4.5430 C   0  0  0  0  0  0  0  0  0  0  0  0
   30.8450   51.2400   -2.9490 C   0  0  0  0  0  0  0  0  0  0  0  0
   29.7740   49.1950   -4.4390 C   0  0  0  0  0  0  0  0  0  0  0  0
   31.4180   49.9600   -2.8710 C   0  0  0  0  0  0  0  0  0  0  0  0
   30.8720   48.9370   -3.6270 C   0  0  0  0  0  0  0  0  0  0  0  0
   29.3660   48.0730   -5.1050 O   0  0  0  0  0  0  0  0  0  0  0  0
   31.2580   47.6110   -3.7230 N   0  0  0  0  0  0  0  0  0  0  0  0
   30.1250   47.0280   -4.4490 C   0  0  0  0  0  0  0  0  0  0  0  0
   32.6450   47.2300   -4.0260 C   0  0  0  0  0  0  0  0  0  0  0  0
   32.9630   45.7180   -4.0640 C   0  0  1  0  0  0  0  0  0  0  0  0
   33.0770   45.2490   -5.5100 C   0  0  0  0  0  0  0  0  0  0  0  0
   34.2110   45.3310   -3.3320 C   0  0  0  0  0  0  0  0  0  0  0  0
   32.1290   44.3450   -5.8690 O   0  0  0  0  0  0  0  0  0  0  0  0
   33.9280   45.6250   -6.3030 O   0  0  0  0  0  0  0  0  0  0  0  0
   34.3660   44.0540   -2.9440 N   0  0  0  0  0  0  0  0  0  0  0  0
   35.3300   46.1250   -2.9510 C   0  0  0  0  0  0  0  0  0  0  0  0
   35.5930   43.9990   -2.3000 O   0  0  0  0  0  0  0  0  0  0  0  0
   36.1660   45.2300   -2.3050 C   0  0  0  0  0  0  0  0  0  0  0  0
   35.7400   47.4690   -3.0650 C   0  0  0  0  0  0  0  0  0  0  0  0
   37.4000   45.5630   -1.7530 C   0  0  0  0  0  0  0  0  0  0  0  0
   36.9780   47.8370   -2.5190 C   0  0  0  0  0  0  0  0  0  0  0  0
   37.7920   46.9000   -1.8740 C   0  0  0  0  0  0  0  0  0  0  0  0
  1  2  1  0
  2  3  2  0
  2  4  1  0
  4  5  2  0
  4  6  1  0
  5  7  1  0
  6  8  2  0
  7  9  2  0
  8  9  1  0
  7 10  1  0
  9 11  1  0
 10 12  1  0
 11 12  1  0
 11 13  1  0
 14 13  1  6
 14 15  1  0
 14 16  1  0
 15 17  1  0
 15 18  2  0
 16 19  2  0
 16 20  1  0
 19 21  1  0
 20 22  2  0
 21 22  1  0
 20 23  1  0
 22 24  1  0
 23 25  2  0
 24 26  2  0
 25 26  1  0
M  END
