mac-x0411-mac-x0231
     RDKit          3D

 24 26  0  0  0  0  0  0  0  0999 V2000
   37.0210   43.9830   -2.8840 Cl  0  0  0  0  0  0  0  0  0  0  0  0
   36.3810   45.5590   -3.1800 C   0  0  0  0  0  0  0  0  0  0  0  0
   35.0350   45.7550   -3.5600 C   0  0  0  0  0  0  0  0  0  0  0  0
   37.2550   46.6420   -3.0290 C   0  0  0  0  0  0  0  0  0  0  0  0
   34.2550   44.6070   -3.6650 O   0  0  0  0  0  0  0  0  0  0  0  0
   34.6010   47.0800   -3.7890 C   0  0  0  0  0  0  0  0  0  0  0  0
   36.8090   47.9360   -3.2510 C   0  0  0  0  0  0  0  0  0  0  0  0
   32.9950   47.5040   -4.2670 Cl  0  0  0  0  0  0  0  0  0  0  0  0
   33.2130   44.4460   -4.6820 C   0  0  2  0  0  0  0  0  0  0  0  0
   35.4860   48.1540   -3.6310 C   0  0  0  0  0  0  0  0  0  0  0  0
   33.5420   45.2330   -5.9440 C   0  0  0  0  0  0  0  0  0  0  0  0
   31.8000   44.7540   -4.0850 C   0  0  2  0  0  0  0  0  0  0  0  0
   32.4800   45.3310   -6.7760 O   0  0  0  0  0  0  0  0  0  0  0  0
   34.6010   45.7400   -6.2670 O   0  0  0  0  0  0  0  0  0  0  0  0
   31.7210   45.1300   -2.5830 C   0  0  2  0  0  0  0  0  0  0  0  0
   30.7670   43.7360   -4.3870 N   0  0  0  0  0  0  0  0  0  0  0  0
   30.2910   45.5220   -2.1340 C   0  0  2  0  0  0  0  0  0  0  0  0
   29.4670   44.1180   -4.0270 N   0  0  0  0  0  0  0  0  0  0  0  0
   32.7470   46.1780   -2.1650 C   0  0  0  0  0  0  0  0  0  0  0  0
   29.1520   44.8900   -2.9340 C   0  0  0  0  0  0  0  0  0  0  0  0
   30.0560   47.0150   -2.0380 C   0  0  0  0  0  0  0  0  0  0  0  0
   32.4240   47.4440   -1.8570 C   0  0  0  0  0  0  0  0  0  0  0  0
   27.9700   45.0500   -2.6200 O   0  0  0  0  0  0  0  0  0  0  0  0
   31.0600   47.8940   -1.9090 C   0  0  0  0  0  0  0  0  0  0  0  0
  1  2  1  0
  2  3  2  0
  2  4  1  0
  3  5  1  0
  3  6  1  0
  4  7  2  0
  6  8  1  0
  9  5  1  1
  6 10  2  0
  7 10  1  0
  9 11  1  0
  9 12  1  0
 11 13  1  0
 11 14  2  0
 12 15  1  0
 12 16  1  1
 15 17  1  0
 16 18  1  0
 15 19  1  6
 17 20  1  0
 18 20  1  0
 17 21  1  6
 19 22  2  0
 20 23  2  0
 21 24  2  0
 22 24  1  0
M  END
