mac-x0441-mac-x0590
     RDKit          3D

 35 40  0  0  0  0  0  0  0  0999 V2000
   34.0490   43.3690   -7.9440 O   0  0  0  0  0  0  0  0  0  0  0  0
   34.0670   43.5450   -6.5090 C   0  0  1  0  0  0  0  0  0  0  0  0
   33.5970   44.9030   -6.0320 C   0  0  2  0  0  0  0  0  0  0  0  0
   32.6410   43.2780   -5.9890 C   0  0  0  0  0  0  0  0  0  0  0  0
   31.4600   43.8300   -5.9620 N   0  0  0  0  0  0  0  0  0  0  0  0
   33.3530   44.7830   -4.5450 C   0  0  2  0  0  0  0  0  0  0  0  0
   32.3490   44.5010   -6.6650 N   0  0  0  0  0  0  0  0  0  0  0  0
   34.4520   44.8610   -3.5670 N   0  0  0  0  0  0  0  0  0  0  0  0
   33.0920   43.2370   -4.9240 C   0  0  0  0  0  0  0  0  0  0  0  0
   32.9720   43.2160   -6.5210 C   0  0  0  0  0  0  0  0  0  0  0  0
   31.9690   45.4310   -4.0970 C   0  0  0  0  0  0  0  0  0  0  0  0
   34.7210   43.7500   -2.8310 N   0  0  0  0  0  0  0  0  0  0  0  0
   35.3150   45.8830   -3.2230 C   0  0  0  0  0  0  0  0  0  0  0  0
   31.3020   46.6580   -4.7660 C   0  0  0  0  0  0  0  0  0  0  0  0
   35.7490   44.0520   -2.0230 C   0  0  0  0  0  0  0  0  0  0  0  0
   36.1530   45.3880   -2.2380 C   0  0  0  0  0  0  0  0  0  0  0  0
   35.4030   47.2730   -3.7520 C   0  0  0  0  0  0  0  0  0  0  0  0
   29.9050   47.1290   -4.3290 C   0  0  0  0  0  0  0  0  0  0  0  0
   36.3290   43.0510   -1.0530 C   0  0  0  0  0  0  0  0  0  0  0  0
   37.2390   46.1770   -1.5890 C   0  0  0  0  0  0  0  0  0  0  0  0
   36.2230   48.1640   -2.7960 C   0  0  0  0  0  0  0  0  0  0  0  0
   29.4610   48.4620   -4.7730 N   0  0  0  0  0  0  0  0  0  0  0  0
   37.4810   42.4790   -1.5000 F   0  0  0  0  0  0  0  0  0  0  0  0
   36.6190   43.6210    0.1510 F   0  0  0  0  0  0  0  0  0  0  0  0
   35.4710   42.0270   -0.7880 F   0  0  0  0  0  0  0  0  0  0  0  0
   37.5250   47.4720   -2.3640 C   0  0  0  0  0  0  0  0  0  0  0  0
   30.1200   49.5050   -3.9850 C   0  0  0  0  0  0  0  0  0  0  0  0
   29.6000   48.7100   -6.2130 C   0  0  2  0  0  0  0  0  0  0  0  0
   29.5960   50.8260   -4.2640 N   0  0  0  0  0  0  0  0  0  0  0  0
   29.2320   50.1320   -6.6520 C   0  0  2  0  0  0  0  0  0  0  0  0
   28.7210   47.8600   -7.0360 N   0  0  0  0  0  0  0  0  0  0  0  0
   29.7010   51.2140   -5.6380 C   0  0  1  0  0  0  0  0  0  0  0  0
   27.7760   50.0210   -6.9130 N   0  0  0  0  0  0  0  0  0  0  0  0
   27.6800   48.7320   -7.5870 C   0  0  0  0  0  0  0  0  0  0  0  0
   28.8970   52.4230   -5.7030 N   0  0  0  0  0  0  0  0  0  0  0  0
  2  1  1  6
  2  3  1  0
  2  4  1  0
  4  5  2  0
  3  6  1  0
  3  7  1  6
  5  7  1  0
  6  8  1  0
  6  9  1  0
  7 10  1  0
  9 10  1  0
  6 11  1  1
  8 12  1  0
  8 13  1  0
 11 14  1  0
 12 15  2  0
 13 16  2  0
 15 16  1  0
 13 17  1  0
 14 18  1  0
 15 19  1  0
 16 20  1  0
 17 21  1  0
 18 22  1  0
 19 23  1  0
 19 24  1  0
 19 25  1  0
 20 26  1  0
 21 26  1  0
 22 27  1  0
 22 28  1  0
 27 29  1  0
 28 30  1  0
 28 31  1  6
 29 32  1  0
 30 32  1  0
 30 33  1  1
 31 34  1  0
 33 34  1  0
 32 35  1  1
M  END
