mac-x0587-mac-x0411
     RDKit          3D

 23 25  0  0  0  0  0  0  0  0999 V2000
   30.1830   45.7980   -5.7960 C   0  0  0  0  0  0  0  0  0  0  0  0
   31.0750   46.6590   -4.9230 C   0  0  2  0  0  0  0  0  0  0  0  0
   32.3370   45.7770   -4.0280 S   0  0  1  0  0  0  0  0  0  0  0  0
   30.4350   47.6880   -3.9770 C   0  0  0  0  0  0  0  0  0  0  0  0
   33.4330   44.9540   -5.1680 C   0  0  2  0  0  0  0  0  0  0  0  0
   29.9260   47.2540   -2.9350 O   0  0  0  0  0  0  0  0  0  0  0  0
   30.4230   49.0230   -4.2850 N   0  0  0  0  0  0  0  0  0  0  0  0
   33.5770   46.8570   -3.5460 C   0  0  0  0  0  0  0  0  0  0  0  0
   33.1450   43.4620   -5.3470 C   0  0  0  0  0  0  0  0  0  0  0  0
   34.7960   45.2590   -4.8040 O   0  0  0  0  0  0  0  0  0  0  0  0
   30.8360   50.1480   -3.4640 C   0  0  0  0  0  0  0  0  0  0  0  0
   29.6830   49.5230   -5.3770 C   0  0  0  0  0  0  0  0  0  0  0  0
   34.7950   46.4150   -4.0510 C   0  0  0  0  0  0  0  0  0  0  0  0
   33.4220   47.9920   -2.7780 C   0  0  0  0  0  0  0  0  0  0  0  0
   33.5740   42.7720   -6.2600 O   0  0  0  0  0  0  0  0  0  0  0  0
   32.3460   42.9300   -4.3850 O   0  0  0  0  0  0  0  0  0  0  0  0
   29.0820   48.9200   -6.2490 O   0  0  0  0  0  0  0  0  0  0  0  0
   30.7070   51.3460   -4.3860 C   0  0  0  0  0  0  0  0  0  0  0  0
   29.7290   50.9140   -5.3330 N   0  0  0  0  0  0  0  0  0  0  0  0
   34.5720   48.7290   -2.5020 C   0  0  0  0  0  0  0  0  0  0  0  0
   35.9370   47.1540   -3.7720 C   0  0  0  0  0  0  0  0  0  0  0  0
   37.4820   46.6810   -4.3580 Cl  0  0  0  0  0  0  0  0  0  0  0  0
   35.8220   48.3150   -2.9940 C   0  0  0  0  0  0  0  0  0  0  0  0
  2  1  1  1
  2  3  1  0
  2  4  1  0
  3  5  1  0
  4  6  2  0
  4  7  1  0
  3  8  1  6
  5  9  1  1
  5 10  1  0
  7 11  1  0
  7 12  1  0
  8 13  2  0
 10 13  1  0
  8 14  1  0
  9 15  2  0
  9 16  1  0
 12 17  2  0
 11 18  1  0
 12 19  1  0
 18 19  1  0
 14 20  2  0
 13 21  1  0
 21 22  1  0
 20 23  1  0
 21 23  2  0
M  END
