mac-x0451-mac-x0338
     RDKit          3D

 15 17  0  0  0  0  0  0  0  0999 V2000
   29.0200   53.4620   -6.8580 N   0  0  0  0  0  0  0  0  0  0  0  0
   28.5670   52.2760   -6.1700 C   0  0  1  0  0  0  0  0  0  0  0  0
   27.9150   51.4950   -7.1890 N   0  0  0  0  0  0  0  0  0  0  0  0
   30.2670   53.3280   -7.6080 C   0  0  0  0  0  0  0  0  0  0  0  0
   31.3960   52.7530   -6.7480 C   0  0  1  0  0  0  0  0  0  0  0  0
   29.6570   51.5140   -5.3670 C   0  0  2  0  0  0  0  0  0  0  0  0
   30.9760   51.3860   -6.1970 C   0  0  1  0  0  0  0  0  0  0  0  0
   29.2140   50.1430   -4.8330 C   0  0  0  0  0  0  0  0  0  0  0  0
   32.7050   52.7700   -7.4820 C   0  0  0  0  0  0  0  0  0  0  0  0
   30.8690   50.3360   -7.3240 C   0  0  2  0  0  0  0  0  0  0  0  0
   33.3530   51.3830   -8.3060 S   0  0  0  0  0  0  0  0  0  0  0  0
   30.1830   49.0460   -5.2530 C   0  0  1  0  0  0  0  0  0  0  0  0
   29.6580   47.8540   -4.8450 F   0  0  0  0  0  0  0  0  0  0  0  0
   30.4180   48.9830   -6.7580 C   0  0  0  0  0  0  0  0  0  0  0  0
   32.1580   50.1350   -8.0740 C   0  0  0  0  0  0  0  0  0  0  0  0
  1  2  1  0
  2  3  1  6
  1  4  1  0
  5  4  1  6
  2  6  1  0
  7  5  1  6
  6  7  1  0
  6  8  1  6
  5  9  1  0
  7 10  1  0
  9 11  2  0
  8 12  1  0
 12 13  1  6
 10 14  1  1
 12 14  1  0
 10 15  1  0
 11 15  2  0
M  END
