mac-x0555-mac-x0404
     RDKit          3D

 27 30  0  0  0  0  0  0  0  0999 V2000
   28.9860   55.8520   -6.4680 N   0  0  0  0  0  0  0  0  0  0  0  0
   29.1770   54.8280   -5.5330 C   0  0  0  0  0  0  0  0  0  0  0  0
   29.6990   55.0610   -4.2650 C   0  0  0  0  0  0  0  0  0  0  0  0
   28.8450   53.5110   -5.8340 C   0  0  0  0  0  0  0  0  0  0  0  0
   29.0410   52.4930   -4.8870 C   0  0  0  0  0  0  0  0  0  0  0  0
   29.9040   54.1100   -3.3210 N   0  0  0  0  0  0  0  0  0  0  0  0
   29.5780   52.8430   -3.6320 C   0  0  0  0  0  0  0  0  0  0  0  0
   28.7140   51.1560   -5.1680 C   0  0  0  0  0  0  0  0  0  0  0  0
   29.7720   51.8360   -2.6940 C   0  0  0  0  0  0  0  0  0  0  0  0
   28.9180   50.1660   -4.2100 C   0  0  0  0  0  0  0  0  0  0  0  0
   29.4510   50.4930   -2.9590 C   0  0  0  0  0  0  0  0  0  0  0  0
   29.6670   49.4000   -1.9390 C   0  0  0  0  0  0  0  0  0  0  0  0
   30.0590   48.0620   -2.5380 C   0  0  0  0  0  0  0  0  0  0  0  0
   29.4240   46.8340   -2.1900 C   0  0  0  0  0  0  0  0  0  0  0  0
   31.1040   48.0720   -3.4810 C   0  0  0  0  0  0  0  0  0  0  0  0
   29.8610   45.6330   -2.8110 C   0  0  0  0  0  0  0  0  0  0  0  0
   31.5280   46.8970   -4.0840 C   0  0  0  0  0  0  0  0  0  0  0  0
   28.3690   46.7400   -1.2520 C   0  0  0  0  0  0  0  0  0  0  0  0
   30.9130   45.6940   -3.7540 C   0  0  0  0  0  0  0  0  0  0  0  0
   27.7660   45.5220   -0.9340 C   0  0  0  0  0  0  0  0  0  0  0  0
   29.2370   44.4120   -2.4730 C   0  0  0  0  0  0  0  0  0  0  0  0
   31.3630   44.5490   -4.3780 O   0  0  0  0  0  0  0  0  0  0  0  0
   28.2010   44.3560   -1.5460 C   0  0  0  0  0  0  0  0  0  0  0  0
   32.7780   44.3930   -4.2250 C   0  0  0  0  0  0  0  0  0  0  0  0
   33.4980   44.1740   -5.5480 C   0  0  0  0  0  0  0  0  0  0  0  0
   32.7190   43.5460   -6.4600 O   0  0  0  0  0  0  0  0  0  0  0  0
   34.6400   44.4880   -5.8460 O   0  0  0  0  0  0  0  0  0  0  0  0
  1  2  1  0
  2  3  2  0
  2  4  1  0
  4  5  2  0
  3  6  1  0
  5  7  1  0
  6  7  2  0
  5  8  1  0
  7  9  1  0
  8 10  2  0
  9 11  2  0
 10 11  1  0
 11 12  1  0
 12 13  1  0
 13 14  1  0
 13 15  2  0
 14 16  2  0
 15 17  1  0
 14 18  1  0
 16 19  1  0
 17 19  2  0
 18 20  2  0
 16 21  1  0
 19 22  1  0
 20 23  1  0
 21 23  2  0
 22 24  1  0
 24 25  1  0
 25 26  1  0
 25 27  2  0
M  END
