mac-x0124-mac-x0375
     RDKit          3D

 24 26  0  0  0  0  0  0  0  0999 V2000
   28.9210   46.0440   -4.3470 C   0  0  0  0  0  0  0  0  0  0  0  0
   29.3310   47.2820   -4.9730 N   0  0  0  0  0  0  0  0  0  0  0  0
   30.5050   47.9740   -4.7190 C   0  0  0  0  0  0  0  0  0  0  0  0
   28.5920   47.9480   -5.9250 C   0  0  0  0  0  0  0  0  0  0  0  0
   31.5560   47.5420   -3.7340 C   0  0  0  0  0  0  0  0  0  0  0  0
   30.4920   49.0950   -5.5340 C   0  0  0  0  0  0  0  0  0  0  0  0
   29.2930   49.0850   -6.2950 C   0  0  0  0  0  0  0  0  0  0  0  0
   27.3990   47.5600   -6.4110 N   0  0  0  0  0  0  0  0  0  0  0  0
   32.2180   46.2040   -4.0720 C   0  0  0  0  0  0  0  0  0  0  0  0
   28.6990   49.9070   -7.2640 C   0  0  0  0  0  0  0  0  0  0  0  0
   26.9320   48.4230   -7.3290 C   0  0  0  0  0  0  0  0  0  0  0  0
   29.2740   51.0800   -7.7310 N   0  0  0  0  0  0  0  0  0  0  0  0
   32.2360   45.9970   -5.4970 O   0  0  0  0  0  0  0  0  0  0  0  0
   27.5040   49.5570   -7.7750 N   0  0  0  0  0  0  0  0  0  0  0  0
   33.4400   45.5870   -6.0160 C   0  0  0  0  0  0  0  0  0  0  0  0
   33.9150   46.0060   -7.0630 O   0  0  0  0  0  0  0  0  0  0  0  0
   34.0790   44.5420   -5.1010 C   0  0  0  0  0  0  0  0  0  0  0  0
   35.4290   44.7950   -4.7370 O   0  0  0  0  0  0  0  0  0  0  0  0
   35.6980   45.8090   -3.8600 C   0  0  0  0  0  0  0  0  0  0  0  0
   36.4130   45.4160   -2.7240 C   0  0  0  0  0  0  0  0  0  0  0  0
   35.3320   47.1510   -4.0000 C   0  0  0  0  0  0  0  0  0  0  0  0
   36.7600   46.3440   -1.7400 C   0  0  0  0  0  0  0  0  0  0  0  0
   35.6790   48.0810   -3.0150 C   0  0  0  0  0  0  0  0  0  0  0  0
   36.3920   47.6790   -1.8860 C   0  0  0  0  0  0  0  0  0  0  0  0
  1  2  1  0
  2  3  1  0
  2  4  1  0
  3  5  1  0
  3  6  2  0
  4  7  2  0
  6  7  1  0
  4  8  1  0
  5  9  1  0
  7 10  1  0
  8 11  2  0
 10 12  1  0
  9 13  1  0
 10 14  2  0
 11 14  1  0
 13 15  1  0
 15 16  2  0
 15 17  1  0
 17 18  1  0
 18 19  1  0
 19 20  2  0
 19 21  1  0
 20 22  1  0
 21 23  2  0
 22 24  2  0
 23 24  1  0
M  END
