mac-x0385-mac-x0439
     RDKit          3D

 24 26  0  0  0  0  0  0  0  0999 V2000
   29.4190   51.5810   -2.7020 C   0  0  0  0  0  0  0  0  0  0  0  0
   29.3140   50.5120   -3.7380 C   0  0  0  0  0  0  0  0  0  0  0  0
   29.7100   49.2200   -3.4860 C   0  0  0  0  0  0  0  0  0  0  0  0
   28.8190   50.7350   -5.0080 C   0  0  0  0  0  0  0  0  0  0  0  0
   28.3780   51.9990   -5.4010 N   0  0  0  0  0  0  0  0  0  0  0  0
   28.7240   49.7770   -5.9410 N   0  0  0  0  0  0  0  0  0  0  0  0
   29.6360   48.2270   -4.3860 N   0  0  0  0  0  0  0  0  0  0  0  0
   29.1400   48.5410   -5.5970 C   0  0  0  0  0  0  0  0  0  0  0  0
   29.0430   47.4400   -6.6320 C   0  0  0  0  0  0  0  0  0  0  0  0
   30.2150   47.3460   -7.6330 C   0  0  0  0  0  0  0  0  0  0  0  0
   31.4620   46.5810   -7.1550 C   0  0  0  0  0  0  0  0  0  0  0  0
   31.3930   45.1370   -7.3970 N   0  0  0  0  0  0  0  0  0  0  0  0
   30.7980   44.3730   -6.5690 C   0  0  0  0  0  0  0  0  0  0  0  0
   30.8010   43.0690   -6.9170 O   0  0  0  0  0  0  0  0  0  0  0  0
   30.0760   44.6220   -5.2900 C   0  0  0  0  0  0  0  0  0  0  0  0
   30.1740   45.7870   -4.6330 C   0  0  0  0  0  0  0  0  0  0  0  0
   29.2440   43.7120   -4.6630 N   0  0  0  0  0  0  0  0  0  0  0  0
   29.2890   45.7820   -3.4440 C   0  0  1  0  0  0  0  0  0  0  0  0
   28.8160   44.3520   -3.6140 C   0  0  0  0  0  0  0  0  0  0  0  0
   29.7450   45.9830   -2.0450 C   0  0  0  0  0  0  0  0  0  0  0  0
   27.9000   43.8300   -2.5840 C   0  0  0  0  0  0  0  0  0  0  0  0
   30.9930   47.1280   -1.7270 Cl  0  0  0  0  0  0  0  0  0  0  0  0
   29.1650   45.2820   -1.0550 C   0  0  0  0  0  0  0  0  0  0  0  0
   28.1100   44.3190   -1.3490 C   0  0  0  0  0  0  0  0  0  0  0  0
  1  2  1  0
  2  3  2  0
  2  4  1  0
  4  5  1  0
  4  6  2  0
  3  7  1  0
  6  8  1  0
  7  8  2  0
  8  9  1  0
  9 10  1  0
 10 11  1  0
 11 12  1  0
 12 13  2  3
 13 14  1  0
 13 15  1  0
 15 16  2  0
 15 17  1  0
 18 16  1  6
 17 19  2  0
 18 19  1  0
 18 20  1  0
 19 21  1  0
 20 22  1  0
 20 23  2  0
 21 24  2  0
 23 24  1  0
M  END
