mac-x0509-mac-x0522
     RDKit          3D

 24 27  0  0  0  0  0  0  0  0999 V2000
   37.7960   47.5220   -5.4160 O   0  0  0  0  0  0  0  0  0  0  0  0
   37.5620   46.4900   -4.8100 C   0  0  0  0  0  0  0  0  0  0  0  0
   37.7130   46.2560   -3.3010 C   0  0  0  0  0  0  0  0  0  0  0  0
   37.1050   45.3020   -5.3710 N   0  0  0  0  0  0  0  0  0  0  0  0
   37.4810   44.7810   -3.1920 C   0  0  0  0  0  0  0  0  0  0  0  0
   37.1270   44.2740   -4.4400 C   0  0  0  0  0  0  0  0  0  0  0  0
   37.5720   43.9460   -2.0910 C   0  0  0  0  0  0  0  0  0  0  0  0
   36.8520   42.9410   -4.6490 C   0  0  0  0  0  0  0  0  0  0  0  0
   37.2990   42.5830   -2.2670 C   0  0  0  0  0  0  0  0  0  0  0  0
   36.9430   42.0900   -3.5400 C   0  0  0  0  0  0  0  0  0  0  0  0
   37.3790   41.7000   -1.1790 N   0  0  0  0  0  0  0  0  0  0  0  0
   38.2500   40.7140   -1.1630 C   0  0  0  0  0  0  0  0  0  0  0  0
   39.0640   40.6000   -2.2650 N   0  0  0  0  0  0  0  0  0  0  0  0
   38.3640   39.7590   -0.0260 C   0  0  0  0  0  0  0  0  0  0  0  0
   40.1360   41.3120   -2.6720 C   0  0  0  0  0  0  0  0  0  0  0  0
   39.2080   38.6500   -0.1410 C   0  0  0  0  0  0  0  0  0  0  0  0
   37.6280   39.9830    1.1390 C   0  0  0  0  0  0  0  0  0  0  0  0
   41.0760   40.9250   -3.5090 N   0  0  0  0  0  0  0  0  0  0  0  0
   40.3520   42.9190   -2.0620 S   0  0  0  0  0  0  0  0  0  0  0  0
   39.3110   37.7560    0.9260 C   0  0  0  0  0  0  0  0  0  0  0  0
   37.7380   39.0860    2.2010 C   0  0  0  0  0  0  0  0  0  0  0  0
   41.7840   43.0820   -2.9840 C   0  0  0  0  0  0  0  0  0  0  0  0
   42.0110   41.9230   -3.6890 C   0  0  0  0  0  0  0  0  0  0  0  0
   38.5780   37.9740    2.0940 C   0  0  0  0  0  0  0  0  0  0  0  0
  1  2  2  0
  2  3  1  0
  2  4  1  0
  3  5  1  0
  4  6  1  0
  5  6  2  0
  5  7  1  0
  6  8  1  0
  7  9  2  0
  8 10  2  0
  9 10  1  0
  9 11  1  0
 11 12  2  3
 12 13  1  0
 12 14  1  0
 13 15  1  0
 14 16  2  0
 14 17  1  0
 15 18  2  0
 15 19  1  0
 16 20  1  0
 17 21  2  0
 19 22  1  0
 18 23  1  0
 22 23  2  0
 20 24  2  0
 21 24  1  0
M  END
