mac-x0124-mac-x0139
     RDKit          3D

 20 22  0  0  0  0  0  0  0  0999 V2000
   30.7090   46.7830   -4.7250 C   0  0  1  0  0  0  0  0  0  0  0  0
   30.4110   46.1670   -3.3650 C   0  0  0  0  0  0  0  0  0  0  0  0
   30.5930   45.7450   -5.8480 C   0  0  0  0  0  0  0  0  0  0  0  0
   29.8850   47.9790   -4.9430 N   0  0  0  0  0  0  0  0  0  0  0  0
   31.7210   44.7140   -5.7880 C   0  0  0  0  0  0  0  0  0  0  0  0
   29.8050   48.9640   -3.9710 C   0  0  0  0  0  0  0  0  0  0  0  0
   28.5260   47.8940   -5.5220 C   0  0  1  0  0  0  0  0  0  0  0  0
   32.5310   44.7260   -7.0530 C   0  0  0  0  0  0  0  0  0  0  0  0
   28.8240   49.8410   -4.2210 C   0  0  0  0  0  0  0  0  0  0  0  0
   28.1620   49.4240   -5.5090 C   0  0  1  0  0  0  0  0  0  0  0  0
   28.1610   47.1960   -6.7540 N   0  0  0  0  0  0  0  0  0  0  0  0
   32.1300   44.4320   -8.1650 O   0  0  0  0  0  0  0  0  0  0  0  0
   33.8090   45.1030   -6.8610 O   0  0  0  0  0  0  0  0  0  0  0  0
   28.5450   50.1340   -6.8270 C   0  0  2  0  0  0  0  0  0  0  0  0
   28.6220   47.9390   -7.9260 C   0  0  0  0  0  0  0  0  0  0  0  0
   27.3640   50.7860   -7.4010 N   0  0  0  0  0  0  0  0  0  0  0  0
   29.2780   49.2130   -7.7130 N   0  0  0  0  0  0  0  0  0  0  0  0
   29.6610   51.2240   -6.6000 C   0  0  0  0  0  0  0  0  0  0  0  0
   30.6120   49.2760   -7.3820 C   0  0  0  0  0  0  0  0  0  0  0  0
   30.9100   50.4080   -6.7360 C   0  0  0  0  0  0  0  0  0  0  0  0
  1  2  1  1
  1  3  1  0
  1  4  1  0
  3  5  1  0
  4  6  1  0
  4  7  1  0
  5  8  1  0
  6  9  2  0
  7 10  1  0
 10  9  1  1
  7 11  1  6
  8 12  2  0
  8 13  1  0
 10 14  1  0
 11 15  1  0
 14 16  1  6
 14 17  1  0
 15 17  1  0
 14 18  1  0
 17 19  1  0
 18 20  1  0
 19 20  2  0
M  END
