mac-x0123-mac-x0338
     RDKit          3D

 15 18  0  0  0  0  0  0  0  0999 V2000
   28.4100   51.9080   -6.9260 N   0  0  0  0  0  0  0  0  0  0  0  0
   29.3450   50.8990   -6.6800 C   0  0  0  0  0  0  0  0  0  0  0  0
   30.0120   50.3340   -7.5280 O   0  0  0  0  0  0  0  0  0  0  0  0
   28.2380   52.7230   -5.7550 C   0  0  1  0  0  0  0  0  0  0  0  0
   28.6120   51.7460   -4.6970 N   0  0  0  0  0  0  0  0  0  0  0  0
   29.0750   54.0190   -5.7780 C   0  0  2  0  0  0  0  0  0  0  0  0
   29.3370   50.6930   -5.2940 N   0  0  0  0  0  0  0  0  0  0  0  0
   29.4200   52.1620   -3.5280 C   0  0  2  0  0  0  0  0  0  0  0  0
   29.4640   54.3400   -4.3190 C   0  0  1  0  0  0  0  0  0  0  0  0
   28.5040   55.3440   -6.1970 C   0  0  0  0  0  0  0  0  0  0  0  0
   30.5460   50.4830   -4.5200 C   0  0  0  0  0  0  0  0  0  0  0  0
   30.3010   53.2740   -3.7700 N   0  0  0  0  0  0  0  0  0  0  0  0
   29.9640   55.7830   -4.3890 C   0  0  0  0  0  0  0  0  0  0  0  0
   29.0030   56.3220   -5.4230 C   0  0  0  0  0  0  0  0  0  0  0  0
   30.1240   50.9510   -3.1780 N   0  0  0  0  0  0  0  0  0  0  0  0
  1  2  1  0
  2  3  2  0
  4  1  1  6
  4  5  1  0
  4  6  1  0
  2  7  1  0
  5  7  1  0
  5  8  1  0
  6  9  1  0
  6 10  1  1
  7 11  1  0
  8 12  1  6
  9 12  1  0
  9 13  1  6
 10 14  2  0
 13 14  1  0
  8 15  1  0
 11 15  1  0
M  END
