mac-x0496-mac-x0584
     RDKit          3D

 33 37  0  0  0  0  0  0  0  0999 V2000
   24.6030   58.6710   -6.1450 C   0  0  0  0  0  0  0  0  0  0  0  0
   25.9200   58.3230   -5.5800 C   0  0  0  0  0  0  0  0  0  0  0  0
   26.3970   58.8810   -4.4600 N   0  0  0  0  0  0  0  0  0  0  0  0
   26.7480   57.3970   -6.1670 N   0  0  0  0  0  0  0  0  0  0  0  0
   27.6420   58.2660   -4.3020 O   0  0  0  0  0  0  0  0  0  0  0  0
   27.7830   57.4010   -5.3490 C   0  0  0  0  0  0  0  0  0  0  0  0
   29.0400   56.6090   -5.4180 C   0  0  0  0  0  0  0  0  0  0  0  0
   28.7230   55.2570   -5.8580 N   0  0  0  0  0  0  0  0  0  0  0  0
   28.7130   54.2180   -4.9430 C   0  0  0  0  0  0  0  0  0  0  0  0
   28.4240   54.3900   -3.7600 O   0  0  0  0  0  0  0  0  0  0  0  0
   29.1080   52.8520   -5.5370 C   0  0  2  0  0  0  0  0  0  0  0  0
   27.8830   51.9960   -5.7500 C   0  0  0  0  0  0  0  0  0  0  0  0
   30.1370   52.1660   -4.6290 C   0  0  0  0  0  0  0  0  0  0  0  0
   27.9500   50.6590   -5.8380 C   0  0  0  0  0  0  0  0  0  0  0  0
   29.9820   50.6260   -4.5020 C   0  0  1  0  0  0  0  0  0  0  0  0
   29.4680   50.3040   -3.1080 C   0  0  0  0  0  0  0  0  0  0  0  0
   29.2720   49.8870   -5.7240 C   0  0  2  0  0  0  0  0  0  0  0  0
   28.5740   49.5120   -2.8470 O   0  0  0  0  0  0  0  0  0  0  0  0
   30.0820   50.9650   -2.1070 O   0  0  0  0  0  0  0  0  0  0  0  0
   30.0000   50.0370   -7.0790 C   0  0  0  0  0  0  0  0  0  0  0  0
   29.2670   48.3110   -5.3650 C   0  0  2  0  0  0  0  0  0  0  0  0
   30.4440   47.4950   -4.9330 N   0  0  0  0  0  0  0  0  0  0  0  0
   28.7680   47.5620   -6.5310 N   0  0  0  0  0  0  0  0  0  0  0  0
   29.4300   49.1790   -8.1160 N   0  0  0  0  0  0  0  0  0  0  0  0
   30.5040   46.0240   -4.9620 C   0  0  1  0  0  0  0  0  0  0  0  0
   30.9700   47.8990   -3.6060 C   0  0  0  0  0  0  0  0  0  0  0  0
   29.5220   47.7880   -7.7450 C   0  0  0  0  0  0  0  0  0  0  0  0
   31.8330   45.5870   -5.6410 C   0  0  0  0  0  0  0  0  0  0  0  0
   30.4910   45.5530   -3.4980 C   0  0  0  0  0  0  0  0  0  0  0  0
   30.5310   46.8130   -2.6480 C   0  0  0  0  0  0  0  0  0  0  0  0
   32.3760   44.1760   -5.2580 C   0  0  0  0  0  0  0  0  0  0  0  0
   33.1570   46.1450   -5.0440 C   0  0  0  0  0  0  0  0  0  0  0  0
   33.7960   44.7740   -5.3160 C   0  0  0  0  0  0  0  0  0  0  0  0
  1  2  1  0
  2  3  2  0
  2  4  1  0
  3  5  1  0
  4  6  2  0
  5  6  1  0
  6  7  1  0
  7  8  1  0
  8  9  1  0
  9 10  2  0
 11  9  1  1
 11 12  1  0
 11 13  1  0
 12 14  2  0
 13 15  1  0
 15 16  1  1
 17 14  1  6
 15 17  1  0
 16 18  2  0
 16 19  1  0
 17 20  1  0
 17 21  1  0
 21 22  1  6
 21 23  1  0
 20 24  1  0
 22 25  1  0
 22 26  1  0
 23 27  1  0
 24 27  1  0
 25 28  1  1
 25 29  1  0
 26 30  1  0
 29 30  1  0
 28 31  1  0
 28 32  1  0
 31 33  1  0
 32 33  1  0
M  END
