mac-x0271-mac-x0588
     RDKit          3D

 27 31  0  0  0  0  0  0  0  0999 V2000
   33.4190   53.3640   -3.6800 O   0  0  0  0  0  0  0  0  0  0  0  0
   32.1470   53.0360   -4.0350 C   0  0  0  0  0  0  0  0  0  0  0  0
   31.7600   51.7080   -4.2240 C   0  0  0  0  0  0  0  0  0  0  0  0
   31.2380   54.0630   -4.2050 C   0  0  0  0  0  0  0  0  0  0  0  0
   29.9340   53.7450   -4.5660 C   0  0  0  0  0  0  0  0  0  0  0  0
   30.4340   51.3670   -4.5910 C   0  0  0  0  0  0  0  0  0  0  0  0
   29.5000   52.4230   -4.7640 C   0  0  0  0  0  0  0  0  0  0  0  0
   29.0590   54.8440   -4.7230 O   0  0  0  0  0  0  0  0  0  0  0  0
   30.0810   49.8830   -4.7790 C   0  0  1  0  0  0  0  0  0  0  0  0
   28.0940   52.2480   -5.1410 C   0  0  0  0  0  0  0  0  0  0  0  0
   27.8010   54.6860   -5.2770 C   0  0  0  0  0  0  0  0  0  0  0  0
   29.1250   49.3540   -3.7740 N   0  0  0  0  0  0  0  0  0  0  0  0
   29.5830   49.5530   -6.2010 C   0  0  2  0  0  0  0  0  0  0  0  0
   27.1220   55.6310   -5.6590 O   0  0  0  0  0  0  0  0  0  0  0  0
   27.3110   53.3080   -5.3760 C   0  0  0  0  0  0  0  0  0  0  0  0
   28.1030   48.4690   -4.3200 C   0  0  0  0  0  0  0  0  0  0  0  0
   29.5030   48.0370   -6.2600 C   0  0  1  0  0  0  0  0  0  0  0  0
   30.4040   49.8160   -7.3900 N   0  0  0  0  0  0  0  0  0  0  0  0
   28.6890   47.4750   -5.2040 N   0  0  0  0  0  0  0  0  0  0  0  0
   29.0660   47.8770   -7.6350 N   0  0  0  0  0  0  0  0  0  0  0  0
   29.8540   48.8700   -8.3680 C   0  0  0  0  0  0  0  0  0  0  0  0
   29.0900   46.2270   -4.5640 C   0  0  0  0  0  0  0  0  0  0  0  0
   28.0590   45.4520   -3.7200 C   0  0  2  0  0  0  0  0  0  0  0  0
   28.1350   45.8680   -2.3360 O   0  0  0  0  0  0  0  0  0  0  0  0
   28.2170   43.9390   -3.6970 C   0  0  0  0  0  0  0  0  0  0  0  0
   27.5280   43.5790   -2.4060 C   0  0  0  0  0  0  0  0  0  0  0  0
   27.9410   44.7190   -1.5000 C   0  0  0  0  0  0  0  0  0  0  0  0
  1  2  1  0
  2  3  2  0
  2  4  1  0
  4  5  2  0
  3  6  1  0
  5  7  1  0
  6  7  2  0
  5  8  1  0
  9  6  1  6
  7 10  1  0
  8 11  1  0
  9 12  1  0
  9 13  1  0
 11 14  2  0
 10 15  2  0
 11 15  1  0
 12 16  1  0
 13 17  1  0
 13 18  1  6
 16 19  1  0
 17 19  1  0
 17 20  1  6
 18 21  1  0
 20 21  1  0
 19 22  1  0
 23 22  1  6
 23 24  1  0
 23 25  1  0
 25 26  1  0
 24 27  1  0
 26 27  1  0
M  END
