mac-x0357-mac-x0284
     RDKit          3D

 19 20  0  0  0  0  0  0  0  0999 V2000
   32.4370   43.5340   -4.5620 C   0  0  0  0  0  0  0  0  0  0  0  0
   33.0020   44.9140   -4.3820 C   0  0  0  0  0  0  0  0  0  0  0  0
   34.1960   45.1260   -3.6740 C   0  0  0  0  0  0  0  0  0  0  0  0
   32.3580   46.0520   -4.9160 C   0  0  0  0  0  0  0  0  0  0  0  0
   34.9150   44.1060   -3.1100 O   0  0  0  0  0  0  0  0  0  0  0  0
   31.1000   45.9410   -5.6760 C   0  0  0  0  0  0  0  0  0  0  0  0
   32.8920   47.3390   -4.7430 C   0  0  0  0  0  0  0  0  0  0  0  0
   34.7300   46.4040   -3.4990 C   0  0  0  0  0  0  0  0  0  0  0  0
   30.0310   46.6620   -5.6740 N   0  0  0  0  0  0  0  0  0  0  0  0
   31.1310   44.8790   -6.5010 O   0  0  0  0  0  0  0  0  0  0  0  0
   34.0770   47.5120   -4.0350 C   0  0  0  0  0  0  0  0  0  0  0  0
   29.9670   47.7820   -4.8260 C   0  0  0  0  0  0  0  0  0  0  0  0
   30.0730   49.0500   -5.4090 C   0  0  0  0  0  0  0  0  0  0  0  0
   29.8000   47.6940   -3.4330 C   0  0  0  0  0  0  0  0  0  0  0  0
   29.6870   46.4660   -2.8360 O   0  0  0  0  0  0  0  0  0  0  0  0
   30.0190   50.2130   -4.6310 C   0  0  0  0  0  0  0  0  0  0  0  0
   29.7450   48.8450   -2.6480 C   0  0  0  0  0  0  0  0  0  0  0  0
   30.1370   51.5630   -5.2770 C   0  0  0  0  0  0  0  0  0  0  0  0
   29.8550   50.1010   -3.2470 C   0  0  0  0  0  0  0  0  0  0  0  0
  1  2  1  0
  2  3  2  0
  2  4  1  0
  3  5  1  0
  4  6  1  0
  4  7  2  0
  3  8  1  0
  6  9  2  3
  6 10  1  0
  7 11  1  0
  8 11  2  0
  9 12  1  0
 12 13  2  0
 12 14  1  0
 14 15  1  0
 13 16  1  0
 14 17  2  0
 16 18  1  0
 16 19  2  0
 17 19  1  0
M  END
