mac-x0354-mac-x0302
     RDKit          3D

 28 30  0  0  0  0  0  0  0  0999 V2000
   35.5400   43.4360   -1.7580 C   0  0  0  0  0  0  0  0  0  0  0  0
   34.7210   43.7180   -2.9140 N   0  0  0  0  0  0  0  0  0  0  0  0
   33.7760   42.8310   -3.2790 N   0  0  0  0  0  0  0  0  0  0  0  0
   34.7840   44.8280   -3.7290 C   0  0  0  0  0  0  0  0  0  0  0  0
   33.2200   43.3910   -4.3540 C   0  0  0  0  0  0  0  0  0  0  0  0
   33.7970   44.6400   -4.6930 C   0  0  0  0  0  0  0  0  0  0  0  0
   35.7310   45.9220   -3.5300 C   0  0  0  0  0  0  0  0  0  0  0  0
   33.4300   45.5100   -5.7940 C   0  0  0  0  0  0  0  0  0  0  0  0
   37.1080   45.6700   -3.4990 C   0  0  0  0  0  0  0  0  0  0  0  0
   35.2700   47.2330   -3.3650 C   0  0  0  0  0  0  0  0  0  0  0  0
   32.2520   46.0030   -5.8860 N   0  0  0  0  0  0  0  0  0  0  0  0
   34.4140   45.7490   -6.6830 O   0  0  0  0  0  0  0  0  0  0  0  0
   38.0100   46.7180   -3.3120 C   0  0  0  0  0  0  0  0  0  0  0  0
   36.1740   48.2780   -3.1770 C   0  0  0  0  0  0  0  0  0  0  0  0
   31.2390   45.7170   -4.8690 C   0  0  2  0  0  0  0  0  0  0  0  0
   37.5430   48.0210   -3.1500 C   0  0  0  0  0  0  0  0  0  0  0  0
   30.0360   45.1180   -5.3330 O   0  0  0  0  0  0  0  0  0  0  0  0
   30.9890   46.9870   -3.9840 C   0  0  0  0  0  0  0  0  0  0  0  0
   30.2280   48.0920   -4.5850 N   0  0  0  0  0  0  0  0  0  0  0  0
   29.9070   49.1940   -3.8050 C   0  0  0  0  0  0  0  0  0  0  0  0
   29.9160   49.1360   -2.5760 O   0  0  0  0  0  0  0  0  0  0  0  0
   29.5500   50.4750   -4.4840 C   0  0  0  0  0  0  0  0  0  0  0  0
   29.7110   51.7110   -3.8450 C   0  0  0  0  0  0  0  0  0  0  0  0
   29.0380   50.4350   -5.7880 C   0  0  0  0  0  0  0  0  0  0  0  0
   29.3660   52.8850   -4.5110 C   0  0  0  0  0  0  0  0  0  0  0  0
   28.6940   51.6210   -6.4460 C   0  0  0  0  0  0  0  0  0  0  0  0
   29.5410   54.0670   -3.8510 O   0  0  0  0  0  0  0  0  0  0  0  0
   28.8580   52.8500   -5.8070 C   0  0  0  0  0  0  0  0  0  0  0  0
  1  2  1  0
  2  3  1  0
  2  4  1  0
  3  5  2  0
  4  6  2  0
  5  6  1  0
  4  7  1  0
  6  8  1  0
  7  9  2  0
  7 10  1  0
  8 11  2  3
  8 12  1  0
  9 13  1  0
 10 14  2  0
 11 15  1  0
 13 16  2  0
 14 16  1  0
 15 17  1  6
 15 18  1  0
 18 19  1  0
 19 20  1  0
 20 21  2  0
 20 22  1  0
 22 23  2  0
 22 24  1  0
 23 25  1  0
 24 26  2  0
 25 27  1  0
 25 28  2  0
 26 28  1  0
M  END
