mac-x0277-mac-x0590
     RDKit          3D

 29 32  0  0  0  0  0  0  0  0999 V2000
   27.4620   44.7380   -0.3080 Cl  0  0  0  0  0  0  0  0  0  0  0  0
   28.6600   44.9790   -1.5270 C   0  0  0  0  0  0  0  0  0  0  0  0
   29.6390   45.9660   -1.4390 C   0  0  0  0  0  0  0  0  0  0  0  0
   28.6320   44.1440   -2.6430 C   0  0  0  0  0  0  0  0  0  0  0  0
   29.7460   47.0450   -0.0930 Cl  0  0  0  0  0  0  0  0  0  0  0  0
   30.5810   46.1080   -2.4680 C   0  0  0  0  0  0  0  0  0  0  0  0
   29.5780   44.2940   -3.6640 C   0  0  0  0  0  0  0  0  0  0  0  0
   30.5790   45.2780   -3.6100 C   0  0  0  0  0  0  0  0  0  0  0  0
   31.6390   45.4490   -4.7490 C   0  0  1  0  0  0  0  0  0  0  0  0
   31.1820   44.7630   -6.0900 C   0  0  0  0  0  0  0  0  0  0  0  0
   31.7660   46.9820   -5.1850 C   0  0  0  0  0  0  0  0  0  0  0  0
   32.9750   44.7720   -4.2850 C   0  0  1  0  0  0  0  0  0  0  0  0
   32.1090   44.7620   -7.0840 O   0  0  0  0  0  0  0  0  0  0  0  0
   30.0940   44.2440   -6.2930 O   0  0  0  0  0  0  0  0  0  0  0  0
   30.9040   47.5790   -6.3280 C   0  0  0  0  0  0  0  0  0  0  0  0
   34.1980   44.9630   -5.1920 C   0  0  0  0  0  0  0  0  0  0  0  0
   33.5970   45.1760   -2.9550 C   0  0  0  0  0  0  0  0  0  0  0  0
   30.2210   48.8520   -6.0590 N   0  0  0  0  0  0  0  0  0  0  0  0
   34.9610   44.5140   -3.0380 C   0  0  0  0  0  0  0  0  0  0  0  0
   35.3190   44.4920   -4.4270 O   0  0  0  0  0  0  0  0  0  0  0  0
   31.0640   49.8280   -5.3780 C   0  0  0  0  0  0  0  0  0  0  0  0
   29.6010   49.4880   -7.2280 C   0  0  2  0  0  0  0  0  0  0  0  0
   30.2360   50.8080   -4.7140 N   0  0  0  0  0  0  0  0  0  0  0  0
   28.9520   50.8570   -6.9320 C   0  0  2  0  0  0  0  0  0  0  0  0
   28.5120   48.6910   -7.8140 N   0  0  0  0  0  0  0  0  0  0  0  0
   29.0670   51.2550   -5.4340 C   0  0  2  0  0  0  0  0  0  0  0  0
   27.5670   50.7140   -7.4420 N   0  0  0  0  0  0  0  0  0  0  0  0
   27.6690   49.6810   -8.4490 C   0  0  0  0  0  0  0  0  0  0  0  0
   29.1280   52.6970   -5.2370 N   0  0  0  0  0  0  0  0  0  0  0  0
  1  2  1  0
  2  3  2  0
  2  4  1  0
  3  5  1  0
  3  6  1  0
  4  7  2  0
  6  8  2  0
  7  8  1  0
  8  9  1  0
  9 10  1  0
  9 11  1  6
  9 12  1  0
 10 13  1  0
 10 14  2  0
 11 15  1  0
 12 16  1  6
 12 17  1  0
 15 18  1  0
 17 19  1  0
 16 20  1  0
 19 20  1  0
 18 21  1  0
 18 22  1  0
 21 23  1  0
 22 24  1  0
 22 25  1  1
 23 26  1  0
 24 26  1  0
 24 27  1  1
 25 28  1  0
 27 28  1  0
 26 29  1  6
M  END
