mac-x0496-mac-x0226
     RDKit          3D

 36 39  0  0  0  0  0  0  0  0999 V2000
   24.6830   58.7950   -6.2670 C   0  0  0  0  0  0  0  0  0  0  0  0
   25.9270   58.3690   -5.5980 C   0  0  0  0  0  0  0  0  0  0  0  0
   26.2760   58.7970   -4.3770 N   0  0  0  0  0  0  0  0  0  0  0  0
   26.8140   57.5000   -6.1810 N   0  0  0  0  0  0  0  0  0  0  0  0
   27.4930   58.1580   -4.1450 O   0  0  0  0  0  0  0  0  0  0  0  0
   27.7490   57.4030   -5.2540 C   0  0  0  0  0  0  0  0  0  0  0  0
   29.0050   56.6130   -5.2480 C   0  0  0  0  0  0  0  0  0  0  0  0
   28.6990   55.2030   -5.4180 N   0  0  0  0  0  0  0  0  0  0  0  0
   29.6220   54.2370   -5.0850 C   0  0  0  0  0  0  0  0  0  0  0  0
   30.7330   54.4920   -4.6300 O   0  0  0  0  0  0  0  0  0  0  0  0
   29.2020   52.8280   -5.3040 C   0  0  0  0  0  0  0  0  0  0  0  0
   28.8030   52.4480   -6.5910 C   0  0  0  0  0  0  0  0  0  0  0  0
   29.1930   51.8840   -4.2680 C   0  0  0  0  0  0  0  0  0  0  0  0
   28.3950   51.1380   -6.8490 C   0  0  0  0  0  0  0  0  0  0  0  0
   28.7820   50.5680   -4.5270 C   0  0  0  0  0  0  0  0  0  0  0  0
   28.7740   49.5780   -3.4210 C   0  0  0  0  0  0  0  0  0  0  0  0
   28.3830   50.1970   -5.8180 C   0  0  0  0  0  0  0  0  0  0  0  0
   28.8240   48.2950   -3.5570 N   0  0  0  0  0  0  0  0  0  0  0  0
   28.7110   50.1560   -2.2040 O   0  0  0  0  0  0  0  0  0  0  0  0
   28.8940   47.7210   -4.9060 C   0  0  0  0  0  0  0  0  0  0  0  0
   30.2510   48.0670   -5.5220 C   0  0  0  0  0  0  0  0  0  0  0  0
   31.2950   47.0110   -5.1890 C   0  0  0  0  0  0  0  0  0  0  0  0
   31.8520   46.4440   -6.3890 O   0  0  0  0  0  0  0  0  0  0  0  0
   33.1900   46.1900   -6.3710 C   0  0  0  0  0  0  0  0  0  0  0  0
   33.9860   46.5710   -7.2220 O   0  0  0  0  0  0  0  0  0  0  0  0
   33.5810   45.4070   -5.2170 C   0  0  0  0  0  0  0  0  0  0  0  0
   32.9980   44.2430   -4.6830 C   0  0  0  0  0  0  0  0  0  0  0  0
   34.6460   45.6550   -4.3770 C   0  0  0  0  0  0  0  0  0  0  0  0
   33.6330   43.7940   -3.6020 N   0  0  0  0  0  0  0  0  0  0  0  0
   34.6580   44.6710   -3.4100 N   0  0  0  0  0  0  0  0  0  0  0  0
   35.5670   44.5120   -2.3310 C   0  0  0  0  0  0  0  0  0  0  0  0
   36.4000   45.5830   -1.9640 C   0  0  0  0  0  0  0  0  0  0  0  0
   35.6520   43.3050   -1.6180 C   0  0  0  0  0  0  0  0  0  0  0  0
   37.3010   45.4490   -0.9070 C   0  0  0  0  0  0  0  0  0  0  0  0
   36.5570   43.1800   -0.5610 C   0  0  0  0  0  0  0  0  0  0  0  0
   37.3800   44.2480   -0.2060 C   0  0  0  0  0  0  0  0  0  0  0  0
  1  2  1  0
  2  3  2  0
  2  4  1  0
  3  5  1  0
  4  6  2  0
  5  6  1  0
  6  7  1  0
  7  8  1  0
  8  9  1  0
  9 10  2  0
  9 11  1  0
 11 12  2  0
 11 13  1  0
 12 14  1  0
 13 15  2  0
 15 16  1  0
 14 17  2  0
 15 17  1  0
 16 18  2  3
 16 19  1  0
 18 20  1  0
 20 21  1  0
 21 22  1  0
 22 23  1  0
 23 24  1  0
 24 25  2  0
 24 26  1  0
 26 27  1  0
 26 28  2  0
 27 29  2  0
 28 30  1  0
 29 30  1  0
 30 31  1  0
 31 32  2  0
 31 33  1  0
 32 34  1  0
 33 35  2  0
 34 36  2  0
 35 36  1  0
M  END
