mac-x0510-mac-x0123
     RDKit          3D

 23 27  0  0  0  0  0  0  0  0999 V2000
   25.0510   49.1890   -4.7550 O   0  0  0  0  0  0  0  0  0  0  0  0
   26.1540   49.1550   -5.3070 C   0  0  0  0  0  0  0  0  0  0  0  0
   27.2820   49.6680   -4.6840 N   0  0  0  0  0  0  0  0  0  0  0  0
   26.3240   48.6050   -6.5600 N   0  0  0  0  0  0  0  0  0  0  0  0
   27.5890   48.4170   -7.0390 C   0  0  0  0  0  0  0  0  0  0  0  0
   28.5010   49.8840   -5.3100 C   0  0  0  0  0  0  0  0  0  0  0  0
   28.6360   49.0390   -6.4280 C   0  0  0  0  0  0  0  0  0  0  0  0
   27.9790   47.6570   -8.0920 N   0  0  0  0  0  0  0  0  0  0  0  0
   29.4010   50.7980   -4.8680 C   0  0  0  0  0  0  0  0  0  0  0  0
   29.7410   48.6540   -7.1270 N   0  0  0  0  0  0  0  0  0  0  0  0
   29.2910   47.8180   -8.1260 C   0  0  0  0  0  0  0  0  0  0  0  0
   29.1900   51.5990   -3.7500 N   0  0  0  0  0  0  0  0  0  0  0  0
   30.6440   51.0780   -5.4460 N   0  0  0  0  0  0  0  0  0  0  0  0
   31.2630   52.2510   -4.8100 N   0  0  0  0  0  0  0  0  0  0  0  0
   30.2980   52.5340   -3.6710 C   0  0  1  0  0  0  0  0  0  0  0  0
   31.5340   53.2920   -5.8330 C   0  0  1  0  0  0  0  0  0  0  0  0
   29.9580   53.9300   -3.4070 N   0  0  0  0  0  0  0  0  0  0  0  0
   30.7600   52.9990   -7.0500 N   0  0  0  0  0  0  0  0  0  0  0  0
   29.9290   54.6810   -4.6470 C   0  0  2  0  0  0  0  0  0  0  0  0
   31.2960   54.7060   -5.3050 C   0  0  2  0  0  0  0  0  0  0  0  0
   31.1170   55.8470   -6.2670 C   0  0  0  0  0  0  0  0  0  0  0  0
   29.5560   56.1710   -4.5500 C   0  0  0  0  0  0  0  0  0  0  0  0
   30.1440   56.6690   -5.8360 C   0  0  0  0  0  0  0  0  0  0  0  0
  1  2  2  0
  2  3  1  0
  2  4  1  0
  4  5  1  0
  3  6  1  0
  5  7  2  0
  6  7  1  0
  5  8  1  0
  6  9  2  3
  7 10  1  0
  8 11  2  0
 10 11  1  0
  9 12  1  0
  9 13  1  0
 13 14  1  0
 15 12  1  6
 14 15  1  0
 14 16  1  0
 15 17  1  0
 16 18  1  6
 17 19  1  0
 16 20  1  0
 19 20  1  0
 20 21  1  6
 19 22  1  1
 21 23  2  0
 22 23  1  0
M  END
