mac-x0360-mac-x0193
     RDKit          3D

 29 30  0  0  0  0  0  0  0  0999 V2000
   32.0260   55.2420   -6.9880 Cl  0  0  0  0  0  0  0  0  0  0  0  0
   32.1740   53.6300   -6.4020 C   0  0  0  0  0  0  0  0  0  0  0  0
   33.4350   53.1230   -6.0890 C   0  0  0  0  0  0  0  0  0  0  0  0
   31.0350   52.8430   -6.2450 C   0  0  0  0  0  0  0  0  0  0  0  0
   31.1630   51.5360   -5.7680 C   0  0  0  0  0  0  0  0  0  0  0  0
   33.5510   51.8180   -5.6150 C   0  0  0  0  0  0  0  0  0  0  0  0
   35.1150   51.2030   -5.2320 Cl  0  0  0  0  0  0  0  0  0  0  0  0
   29.7020   50.5410   -5.5690 S   0  0  0  0  0  0  0  0  0  0  0  0
   32.4240   51.0110   -5.4490 C   0  0  0  0  0  0  0  0  0  0  0  0
   30.2770   49.1040   -4.9170 N   0  0  0  0  0  0  0  0  0  0  0  0
   28.9120   51.1710   -4.5350 O   0  0  0  0  0  0  0  0  0  0  0  0
   29.1440   50.2620   -6.8720 O   0  0  0  0  0  0  0  0  0  0  0  0
   30.9280   48.1070   -5.7770 C   0  0  0  0  0  0  0  0  0  0  0  0
   30.0110   46.8950   -5.9780 C   0  0  0  0  0  0  0  0  0  0  0  0
   30.7570   45.5570   -5.8940 C   0  0  0  0  0  0  0  0  0  0  0  0
   32.0950   45.7130   -6.4700 N   0  0  0  0  0  0  0  0  0  0  0  0
   33.0870   45.2710   -5.7830 C   0  0  0  0  0  0  0  0  0  0  0  0
   34.3000   45.4500   -6.3380 O   0  0  0  0  0  0  0  0  0  0  0  0
   33.1380   44.5760   -4.4330 C   0  0  0  0  0  0  0  0  0  0  0  0
   34.4730   44.6620   -3.8660 N   0  0  0  0  0  0  0  0  0  0  0  0
   34.8990   43.6830   -3.0020 C   0  0  0  0  0  0  0  0  0  0  0  0
   34.2940   42.6420   -2.7950 O   0  0  0  0  0  0  0  0  0  0  0  0
   36.0870   44.0250   -2.4060 N   0  0  0  0  0  0  0  0  0  0  0  0
   36.8990   43.0100   -1.7410 C   0  0  0  0  0  0  0  0  0  0  0  0
   38.0030   42.5100   -2.6860 C   0  0  0  0  0  0  0  0  0  0  0  0
   37.4540   43.5440   -0.4090 C   0  0  0  0  0  0  0  0  0  0  0  0
   38.9090   41.4890   -2.0120 C   0  0  0  0  0  0  0  0  0  0  0  0
   38.3680   42.5280    0.2690 C   0  0  0  0  0  0  0  0  0  0  0  0
   39.4520   42.0080   -0.6780 C   0  0  0  0  0  0  0  0  0  0  0  0
  1  2  1  0
  2  3  2  0
  2  4  1  0
  4  5  2  0
  3  6  1  0
  6  7  1  0
  5  8  1  0
  5  9  1  0
  6  9  2  0
  8 10  1  0
  8 11  2  0
  8 12  2  0
 10 13  1  0
 13 14  1  0
 14 15  1  0
 15 16  1  0
 16 17  2  3
 17 18  1  0
 17 19  1  0
 19 20  1  0
 20 21  1  0
 21 22  2  0
 21 23  1  0
 23 24  1  0
 24 25  1  0
 24 26  1  0
 25 27  1  0
 26 28  1  0
 27 29  1  0
 28 29  1  0
M  END
