mac-x0568-mac-x0124
     RDKit          3D

 21 23  0  0  0  0  0  0  0  0999 V2000
   29.3530   55.7270   -4.3900 C   0  0  0  0  0  0  0  0  0  0  0  0
   29.8550   54.3970   -4.8660 C   0  0  0  0  0  0  0  0  0  0  0  0
   29.8450   54.0900   -6.2270 C   0  0  0  0  0  0  0  0  0  0  0  0
   30.3080   53.5300   -3.9330 N   0  0  0  0  0  0  0  0  0  0  0  0
   30.7630   52.3230   -4.3600 C   0  0  0  0  0  0  0  0  0  0  0  0
   30.3190   52.8440   -6.6430 C   0  0  0  0  0  0  0  0  0  0  0  0
   30.7900   51.9350   -5.6960 C   0  0  0  0  0  0  0  0  0  0  0  0
   31.3120   50.5910   -6.0400 C   0  0  0  0  0  0  0  0  0  0  0  0
   32.3310   50.1840   -5.4910 O   0  0  0  0  0  0  0  0  0  0  0  0
   30.5830   49.8820   -6.9920 N   0  0  0  0  0  0  0  0  0  0  0  0
   30.0710   48.6030   -6.6710 N   0  0  0  0  0  0  0  0  0  0  0  0
   29.2470   48.5880   -5.4500 C   0  0  2  0  0  0  0  0  0  0  0  0
   29.4190   47.9780   -7.8140 C   0  0  0  0  0  0  0  0  0  0  0  0
   29.0380   47.3900   -4.5700 N   0  0  0  0  0  0  0  0  0  0  0  0
   27.7740   49.0630   -5.7300 C   0  0  2  0  0  0  0  0  0  0  0  0
   28.2200   48.7350   -8.1480 N   0  0  0  0  0  0  0  0  0  0  0  0
   30.1460   47.0010   -3.7050 C   0  0  0  0  0  0  0  0  0  0  0  0
   27.7710   47.4910   -4.0110 C   0  0  0  0  0  0  0  0  0  0  0  0
   27.0040   48.4070   -4.6060 C   0  0  0  0  0  0  0  0  0  0  0  0
   27.2670   48.5440   -7.0860 C   0  0  2  0  0  0  0  0  0  0  0  0
   26.0850   49.2460   -7.5510 N   0  0  0  0  0  0  0  0  0  0  0  0
  1  2  1  0
  2  3  2  0
  2  4  1  0
  4  5  2  0
  3  6  1  0
  5  7  1  0
  6  7  2  0
  7  8  1  0
  8  9  2  0
  8 10  1  0
 10 11  1  0
 12 11  1  6
 11 13  1  0
 12 14  1  0
 12 15  1  0
 13 16  1  0
 14 17  1  0
 14 18  1  0
 15 19  1  1
 18 19  2  0
 15 20  1  0
 16 20  1  0
 20 21  1  6
M  END
