mac-x0283-mac-x0305
     RDKit          3D

 14 15  0  0  0  0  0  0  0  0999 V2000
   28.5930   53.7510   -7.1350 N   0  0  0  0  0  0  0  0  0  0  0  0
   28.9900   53.2920   -5.9240 C   0  0  0  0  0  0  0  0  0  0  0  0
   29.1190   54.0850   -4.8540 N   0  0  0  0  0  0  0  0  0  0  0  0
   29.3200   51.9190   -5.6320 C   0  0  0  0  0  0  0  0  0  0  0  0
   29.5330   53.2650   -3.8250 O   0  0  0  0  0  0  0  0  0  0  0  0
   29.6520   51.9920   -4.2830 C   0  0  0  0  0  0  0  0  0  0  0  0
   29.3950   50.6260   -6.2860 C   0  0  0  0  0  0  0  0  0  0  0  0
   29.0860   50.4230   -7.6260 O   0  0  0  0  0  0  0  0  0  0  0  0
   30.0490   50.9080   -3.5200 C   0  0  0  0  0  0  0  0  0  0  0  0
   29.8160   49.4910   -5.5260 C   0  0  0  0  0  0  0  0  0  0  0  0
   29.9930   48.0500   -6.0180 C   0  0  0  0  0  0  0  0  0  0  0  0
   30.1240   49.6700   -4.1680 C   0  0  0  0  0  0  0  0  0  0  0  0
   30.3230   47.8770   -7.3180 O   0  0  0  0  0  0  0  0  0  0  0  0
   29.8760   47.0790   -5.2720 O   0  0  0  0  0  0  0  0  0  0  0  0
  1  2  1  0
  2  3  2  0
  2  4  1  0
  3  5  1  0
  4  6  2  0
  5  6  1  0
  4  7  1  0
  7  8  1  0
  6  9  1  0
  7 10  2  0
 10 11  1  0
  9 12  2  0
 10 12  1  0
 11 13  1  0
 11 14  2  0
M  END
