mac-x0179-mac-x0415
     RDKit          3D

 26 29  0  0  0  0  0  0  0  0999 V2000
   31.7150   46.3090   -5.6660 N   0  0  0  0  0  0  0  0  0  0  0  0
   32.4960   45.3490   -4.7860 C   0  0  1  0  0  0  0  0  0  0  0  0
   33.0700   44.2360   -5.4720 O   0  0  0  0  0  0  0  0  0  0  0  0
   31.7380   45.9860   -6.8600 O   0  0  0  0  0  0  0  0  0  0  0  0
   33.6580   46.2180   -4.2020 C   0  0  0  0  0  0  0  0  0  0  0  0
   31.4900   44.8310   -3.7150 C   0  0  2  0  0  0  0  0  0  0  0  0
   34.0070   46.1060   -2.7940 N   0  0  0  0  0  0  0  0  0  0  0  0
   30.3690   43.9100   -4.2600 C   0  0  0  0  0  0  0  0  0  0  0  0
   30.5910   45.9000   -3.0760 C   0  0  1  0  0  0  0  0  0  0  0  0
   34.6110   45.0060   -2.2220 C   0  0  0  0  0  0  0  0  0  0  0  0
   34.4970   47.2280   -2.1930 C   0  0  0  0  0  0  0  0  0  0  0  0
   29.1800   44.1150   -3.3950 N   0  0  0  0  0  0  0  0  0  0  0  0
   29.6180   45.0120   -2.3340 C   0  0  2  0  0  0  0  0  0  0  0  0
   31.1190   46.9780   -2.1380 C   0  0  0  0  0  0  0  0  0  0  0  0
   34.2370   43.8500   -2.1700 O   0  0  0  0  0  0  0  0  0  0  0  0
   33.9850   48.3280   -2.1370 O   0  0  0  0  0  0  0  0  0  0  0  0
   35.8660   45.4950   -1.6440 C   0  0  0  0  0  0  0  0  0  0  0  0
   35.7910   46.8720   -1.6310 C   0  0  0  0  0  0  0  0  0  0  0  0
   28.5150   45.8130   -1.7230 C   0  0  0  0  0  0  0  0  0  0  0  0
   29.9690   47.8640   -1.6440 C   0  0  2  0  0  0  0  0  0  0  0  0
   30.5030   48.7540    0.0130 Br  0  0  0  0  0  0  0  0  0  0  0  0
   36.9750   44.8190   -1.1710 C   0  0  0  0  0  0  0  0  0  0  0  0
   36.8150   47.6630   -1.1520 C   0  0  0  0  0  0  0  0  0  0  0  0
   28.6760   47.1140   -1.4030 C   0  0  0  0  0  0  0  0  0  0  0  0
   38.0300   45.5990   -0.6760 C   0  0  0  0  0  0  0  0  0  0  0  0
   37.9500   47.0080   -0.6690 C   0  0  0  0  0  0  0  0  0  0  0  0
  2  1  1  0
  2  3  1  6
  1  4  2  0
  2  5  1  0
  2  6  1  0
  5  7  1  0
  6  8  1  6
  6  9  1  0
  7 10  1  0
  7 11  1  0
  8 12  1  0
  9 13  1  0
 12 13  1  0
  9 14  1  1
 10 15  2  0
 11 16  2  0
 10 17  1  0
 11 18  1  0
 17 18  2  0
 13 19  1  6
 14 20  1  0
 20 21  1  1
 17 22  1  0
 18 23  1  0
 19 24  2  0
 20 24  1  0
 22 25  2  0
 23 26  2  0
 25 26  1  0
M  END
