mac-x0358-mac-x0224
     RDKit          3D

 21 22  0  0  0  0  0  0  0  0999 V2000
   31.9490   46.6100   -5.8220 N   0  0  0  0  0  0  0  0  0  0  0  0
   32.5140   45.3590   -5.9090 C   0  0  0  0  0  0  0  0  0  0  0  0
   32.7120   44.7800   -6.9770 O   0  0  0  0  0  0  0  0  0  0  0  0
   30.8520   46.8020   -5.1490 C   0  0  0  0  0  0  0  0  0  0  0  0
   32.8870   44.7360   -4.5740 C   0  0  0  0  0  0  0  0  0  0  0  0
   30.0950   48.0510   -4.9330 C   0  0  0  0  0  0  0  0  0  0  0  0
   32.7410   45.6700   -3.3930 C   0  0  0  0  0  0  0  0  0  0  0  0
   29.8450   48.9060   -6.0090 C   0  0  0  0  0  0  0  0  0  0  0  0
   29.6260   48.3860   -3.6580 C   0  0  0  0  0  0  0  0  0  0  0  0
   29.8240   47.6120   -2.5530 O   0  0  0  0  0  0  0  0  0  0  0  0
   33.7080   46.6400   -3.0930 C   0  0  0  0  0  0  0  0  0  0  0  0
   31.6120   45.5750   -2.5640 C   0  0  0  0  0  0  0  0  0  0  0  0
   29.1310   50.0920   -5.8150 C   0  0  0  0  0  0  0  0  0  0  0  0
   28.9170   49.5660   -3.4610 C   0  0  0  0  0  0  0  0  0  0  0  0
   34.8140   46.7450   -3.8890 O   0  0  0  0  0  0  0  0  0  0  0  0
   28.8090   51.1800   -7.1870 S   0  0  0  0  0  0  0  0  0  0  0  0
   33.5580   47.4940   -2.0010 C   0  0  0  0  0  0  0  0  0  0  0  0
   31.4600   46.4280   -1.4680 C   0  0  0  0  0  0  0  0  0  0  0  0
   28.6700   50.4180   -4.5360 C   0  0  0  0  0  0  0  0  0  0  0  0
   28.7460   52.7540   -6.2850 C   0  0  0  0  0  0  0  0  0  0  0  0
   32.4290   47.3870   -1.1870 C   0  0  0  0  0  0  0  0  0  0  0  0
  1  2  1  0
  2  3  2  0
  1  4  2  3
  2  5  1  0
  4  6  1  0
  5  7  1  0
  6  8  2  0
  6  9  1  0
  9 10  1  0
  7 11  2  0
  7 12  1  0
  8 13  1  0
  9 14  2  0
 11 15  1  0
 13 16  1  0
 11 17  1  0
 12 18  2  0
 13 19  2  0
 14 19  1  0
 16 20  1  0
 17 21  2  0
 18 21  1  0
M  END
