mac-x0365-mac-x0361
     RDKit          3D

 13 13  0  0  0  0  0  0  0  0999 V2000
   29.6710   47.4620   -5.7560 O   0  0  0  0  0  0  0  0  0  0  0  0
   30.0490   48.0660   -4.6180 C   0  0  0  0  0  0  0  0  0  0  0  0
   30.5180   47.4370   -3.6910 O   0  0  0  0  0  0  0  0  0  0  0  0
   29.8380   49.5340   -4.6340 C   0  0  0  0  0  0  0  0  0  0  0  0
   30.0260   50.3100   -3.4840 C   0  0  0  0  0  0  0  0  0  0  0  0
   29.4470   50.1450   -5.8290 C   0  0  0  0  0  0  0  0  0  0  0  0
   29.8260   51.6890   -3.5380 C   0  0  0  0  0  0  0  0  0  0  0  0
   29.2480   51.5270   -5.8790 C   0  0  0  0  0  0  0  0  0  0  0  0
   30.0190   52.3940   -2.4120 F   0  0  0  0  0  0  0  0  0  0  0  0
   29.4400   52.3030   -4.7320 C   0  0  0  0  0  0  0  0  0  0  0  0
   29.2340   53.7590   -4.8090 C   0  0  0  0  0  0  0  0  0  0  0  0
   28.5790   54.2020   -5.9270 N   0  0  0  0  0  0  0  0  0  0  0  0
   29.6240   54.5340   -3.9530 O   0  0  0  0  0  0  0  0  0  0  0  0
  1  2  1  0
  2  3  2  0
  2  4  1  0
  4  5  2  0
  4  6  1  0
  5  7  1  0
  6  8  2  0
  7  9  1  0
  7 10  2  0
  8 10  1  0
 10 11  1  0
 11 12  1  0
 11 13  2  0
M  END
