mac-x0124-mac-x0223
     RDKit          3D

 25 27  0  0  0  0  0  0  0  0999 V2000
   30.0100   46.0080   -6.1010 C   0  0  0  0  0  0  0  0  0  0  0  0
   29.8980   47.4490   -6.1120 N   0  0  0  0  0  0  0  0  0  0  0  0
   30.7450   48.3330   -5.4790 C   0  0  0  0  0  0  0  0  0  0  0  0
   28.9170   48.1390   -6.7710 C   0  0  0  0  0  0  0  0  0  0  0  0
   31.9260   47.9080   -4.6810 C   0  0  0  0  0  0  0  0  0  0  0  0
   30.2770   49.6080   -5.7410 C   0  0  0  0  0  0  0  0  0  0  0  0
   29.1230   49.4920   -6.5590 C   0  0  0  0  0  0  0  0  0  0  0  0
   27.9270   47.5880   -7.4930 N   0  0  0  0  0  0  0  0  0  0  0  0
   32.2420   46.6080   -5.1920 O   0  0  0  0  0  0  0  0  0  0  0  0
   28.2160   50.3730   -7.1570 C   0  0  0  0  0  0  0  0  0  0  0  0
   27.1250   48.5260   -8.0180 C   0  0  0  0  0  0  0  0  0  0  0  0
   28.2920   51.7580   -7.0370 N   0  0  0  0  0  0  0  0  0  0  0  0
   33.0910   45.8700   -4.4310 C   0  0  0  0  0  0  0  0  0  0  0  0
   27.2090   49.8650   -7.8950 N   0  0  0  0  0  0  0  0  0  0  0  0
   32.3130   44.8800   -3.5860 C   0  0  0  0  0  0  0  0  0  0  0  0
   34.3100   45.9820   -4.4260 O   0  0  0  0  0  0  0  0  0  0  0  0
   31.1770   45.5500   -2.8400 C   0  0  0  0  0  0  0  0  0  0  0  0
   31.3960   46.7390   -2.1320 C   0  0  0  0  0  0  0  0  0  0  0  0
   29.8880   44.9840   -2.8500 C   0  0  0  0  0  0  0  0  0  0  0  0
   28.8330   45.5950   -2.1630 C   0  0  0  0  0  0  0  0  0  0  0  0
   30.3500   47.3580   -1.4470 C   0  0  0  0  0  0  0  0  0  0  0  0
   27.5480   45.1190   -2.1120 O   0  0  0  0  0  0  0  0  0  0  0  0
   29.0800   46.7840   -1.4660 C   0  0  0  0  0  0  0  0  0  0  0  0
   27.3770   43.7110   -2.1800 C   0  0  0  0  0  0  0  0  0  0  0  0
   28.0510   47.3900   -0.7930 O   0  0  0  0  0  0  0  0  0  0  0  0
  1  2  1  0
  2  3  1  0
  2  4  1  0
  3  5  1  0
  3  6  2  0
  4  7  2  0
  6  7  1  0
  4  8  1  0
  5  9  1  0
  7 10  1  0
  8 11  2  0
 10 12  1  0
  9 13  1  0
 10 14  2  0
 11 14  1  0
 13 15  1  0
 13 16  2  0
 15 17  1  0
 17 18  2  0
 17 19  1  0
 19 20  2  0
 18 21  1  0
 20 22  1  0
 20 23  1  0
 21 23  2  0
 22 24  1  0
 23 25  1  0
M  END
