mac-x0213-mac-x1493
     RDKit          3D

 25 28  0  0  0  0  0  0  0  0999 V2000
   33.2140   45.9690   -6.1360 O   0  0  0  0  0  0  0  0  0  0  0  0
   31.9880   45.5490   -5.7370 C   0  0  0  0  0  0  0  0  0  0  0  0
   31.2770   44.8850   -6.4770 O   0  0  0  0  0  0  0  0  0  0  0  0
   31.6450   45.9900   -4.3250 C   0  0  1  0  0  0  0  0  0  0  0  0
   30.3020   46.7590   -4.2580 C   0  0  2  0  0  0  0  0  0  0  0  0
   31.5130   44.7350   -3.4370 C   0  0  0  0  0  0  0  0  0  0  0  0
   30.4590   48.2200   -4.2360 N   0  0  0  0  0  0  0  0  0  0  0  0
   29.6290   46.1600   -3.0570 C   0  0  0  0  0  0  0  0  0  0  0  0
   30.3070   45.0290   -2.6000 C   0  0  0  0  0  0  0  0  0  0  0  0
   29.5930   49.0860   -4.5950 C   0  0  0  0  0  0  0  0  0  0  0  0
   28.4800   46.6080   -2.4180 C   0  0  0  0  0  0  0  0  0  0  0  0
   29.8540   44.3190   -1.5000 C   0  0  0  0  0  0  0  0  0  0  0  0
   28.4100   48.6390   -5.0420 O   0  0  0  0  0  0  0  0  0  0  0  0
   28.0150   45.8980   -1.3060 C   0  0  0  0  0  0  0  0  0  0  0  0
   28.7010   44.7600   -0.8510 C   0  0  0  0  0  0  0  0  0  0  0  0
   29.5940   50.5400   -4.6320 C   0  0  0  0  0  0  0  0  0  0  0  0
   29.0750   51.2480   -5.7080 C   0  0  0  0  0  0  0  0  0  0  0  0
   30.1260   51.2460   -3.5680 C   0  0  0  0  0  0  0  0  0  0  0  0
   29.1030   52.6480   -5.6850 C   0  0  0  0  0  0  0  0  0  0  0  0
   30.1710   52.5970   -3.5100 N   0  0  0  0  0  0  0  0  0  0  0  0
   29.6660   53.2860   -4.5540 C   0  0  0  0  0  0  0  0  0  0  0  0
   28.5910   53.4090   -6.7460 C   0  0  0  0  0  0  0  0  0  0  0  0
   29.6930   54.6740   -4.5320 C   0  0  0  0  0  0  0  0  0  0  0  0
   28.6300   54.8010   -6.6970 C   0  0  0  0  0  0  0  0  0  0  0  0
   29.1820   55.4340   -5.5900 C   0  0  0  0  0  0  0  0  0  0  0  0
  1  2  1  0
  2  3  2  0
  4  2  1  6
  4  5  1  0
  4  6  1  0
  5  7  1  1
  5  8  1  0
  6  9  1  0
  8  9  2  0
  7 10  2  3
  8 11  1  0
  9 12  1  0
 10 13  1  0
 11 14  2  0
 12 15  2  0
 14 15  1  0
 10 16  1  0
 16 17  2  0
 16 18  1  0
 17 19  1  0
 18 20  2  0
 19 21  2  0
 20 21  1  0
 19 22  1  0
 21 23  1  0
 22 24  2  0
 23 25  2  0
 24 25  1  0
M  END
