mac-x0163-mac-x0357
     RDKit          3D

 28 31  0  0  0  0  0  0  0  0999 V2000
   29.2640   51.0240   -4.6050 Cl  0  0  0  0  0  0  0  0  0  0  0  0
   28.8530   49.9640   -5.9150 C   0  0  0  0  0  0  0  0  0  0  0  0
   28.4260   50.5020   -7.1310 C   0  0  0  0  0  0  0  0  0  0  0  0
   28.9270   48.5680   -5.8230 C   0  0  0  0  0  0  0  0  0  0  0  0
   28.3210   51.8970   -7.3240 N   0  0  0  0  0  0  0  0  0  0  0  0
   28.5920   47.7990   -6.8840 N   0  0  0  0  0  0  0  0  0  0  0  0
   28.0930   49.7400   -8.1810 N   0  0  0  0  0  0  0  0  0  0  0  0
   29.3470   47.9350   -4.6310 N   0  0  0  0  0  0  0  0  0  0  0  0
   28.1930   48.4210   -8.0020 C   0  0  0  0  0  0  0  0  0  0  0  0
   30.7230   48.2650   -4.2310 C   0  0  0  0  0  0  0  0  0  0  0  0
   29.0140   46.4950   -4.4890 C   0  0  0  0  0  0  0  0  0  0  0  0
   31.1790   47.4580   -2.9980 C   0  0  0  0  0  0  0  0  0  0  0  0
   30.2410   45.5470   -4.3840 C   0  0  1  0  0  0  0  0  0  0  0  0
   30.9750   45.5480   -5.6750 N   0  0  0  0  0  0  0  0  0  0  0  0
   32.4960   47.9610   -2.3160 C   0  0  0  0  0  0  0  0  0  0  0  0
   30.4610   47.9160   -1.6860 C   0  0  0  0  0  0  0  0  0  0  0  0
   31.1670   45.9390   -3.2270 C   0  0  0  0  0  0  0  0  0  0  0  0
   32.2510   45.4610   -5.7510 C   0  0  0  0  0  0  0  0  0  0  0  0
   31.8030   47.7720   -0.9540 C   0  0  0  0  0  0  0  0  0  0  0  0
   32.8020   45.4690   -6.9740 O   0  0  0  0  0  0  0  0  0  0  0  0
   33.3060   45.3470   -4.7380 C   0  0  0  0  0  0  0  0  0  0  0  0
   33.5420   44.1310   -4.0650 C   0  0  0  0  0  0  0  0  0  0  0  0
   34.0610   46.4970   -4.4760 C   0  0  0  0  0  0  0  0  0  0  0  0
   32.7240   42.9050   -4.3590 C   0  0  0  0  0  0  0  0  0  0  0  0
   35.0770   46.4530   -3.5260 C   0  0  0  0  0  0  0  0  0  0  0  0
   34.5710   44.1220   -3.1160 C   0  0  0  0  0  0  0  0  0  0  0  0
   34.9040   43.0090   -2.3930 O   0  0  0  0  0  0  0  0  0  0  0  0
   35.3310   45.2650   -2.8460 C   0  0  0  0  0  0  0  0  0  0  0  0
  1  2  1  0
  2  3  2  0
  2  4  1  0
  3  5  1  0
  4  6  2  0
  3  7  1  0
  4  8  1  0
  6  9  1  0
  7  9  2  0
  8 10  1  0
  8 11  1  0
 12 10  1  0
 11 13  1  0
 13 14  1  6
 12 15  1  0
 12 16  1  0
 12 17  1  0
 13 17  1  0
 14 18  2  3
 15 19  1  0
 16 19  1  0
 18 20  1  0
 18 21  1  0
 21 22  2  0
 21 23  1  0
 22 24  1  0
 23 25  2  0
 22 26  1  0
 26 27  1  0
 25 28  1  0
 26 28  2  0
M  END
