mac-x0394-mac-x0396
     RDKit          3D

 20 21  0  0  0  0  0  0  0  0999 V2000
   23.5820   49.9180   -4.1680 Cl  0  0  0  0  0  0  0  0  0  0  0  0
   24.7210   51.1970   -4.3220 C   0  0  0  0  0  0  0  0  0  0  0  0
   24.6020   52.3140   -3.4970 C   0  0  0  0  0  0  0  0  0  0  0  0
   25.7510   51.1030   -5.2700 C   0  0  0  0  0  0  0  0  0  0  0  0
   26.6760   52.1530   -5.3880 C   0  0  0  0  0  0  0  0  0  0  0  0
   25.5210   53.3470   -3.6200 C   0  0  0  0  0  0  0  0  0  0  0  0
   25.4020   54.7390   -2.6140 Cl  0  0  0  0  0  0  0  0  0  0  0  0
   27.8410   52.1750   -6.3580 C   0  0  2  0  0  0  0  0  0  0  0  0
   26.5440   53.2690   -4.5520 C   0  0  0  0  0  0  0  0  0  0  0  0
   27.6360   51.8390   -7.8140 C   0  0  0  0  0  0  0  0  0  0  0  0
   29.0480   51.5630   -5.6860 C   0  0  0  0  0  0  0  0  0  0  0  0
   28.7130   52.2090   -8.5470 O   0  0  0  0  0  0  0  0  0  0  0  0
   26.6750   51.3290   -8.3550 O   0  0  0  0  0  0  0  0  0  0  0  0
   29.4570   50.4010   -5.7950 O   0  0  0  0  0  0  0  0  0  0  0  0
   29.6980   52.5530   -4.8230 C   0  0  0  0  0  0  0  0  0  0  0  0
   30.1870   52.3460   -3.5490 C   0  0  0  0  0  0  0  0  0  0  0  0
   29.8060   53.8320   -5.3700 C   0  0  0  0  0  0  0  0  0  0  0  0
   30.7610   53.3280   -2.8130 N   0  0  0  0  0  0  0  0  0  0  0  0
   30.3840   54.8520   -4.6430 C   0  0  0  0  0  0  0  0  0  0  0  0
   30.8430   54.5550   -3.3760 C   0  0  0  0  0  0  0  0  0  0  0  0
  1  2  1  0
  2  3  2  0
  2  4  1  0
  4  5  2  0
  3  6  1  0
  6  7  1  0
  5  8  1  0
  5  9  1  0
  6  9  2  0
  8 10  1  6
  8 11  1  0
 10 12  1  0
 10 13  2  0
 11 14  2  0
 11 15  1  0
 15 16  2  0
 15 17  1  0
 16 18  1  0
 17 19  2  0
 18 20  2  0
 19 20  1  0
M  END
