mac-x0321-mac-x0142
     RDKit          3D

 23 26  0  0  0  0  0  0  0  0999 V2000
   30.9850   50.4310   -7.1320 Cl  0  0  0  0  0  0  0  0  0  0  0  0
   29.8240   50.5710   -5.7720 C   0  0  1  0  0  0  0  0  0  0  0  0
   29.1270   49.2180   -5.3640 C   0  0  1  0  0  0  0  0  0  0  0  0
   30.4660   51.4010   -4.6890 C   0  0  0  0  0  0  0  0  0  0  0  0
   29.1190   49.0100   -3.7800 C   0  0  2  0  0  0  0  0  0  0  0  0
   30.1510   51.2840   -3.4020 C   0  0  0  0  0  0  0  0  0  0  0  0
   27.6620   49.3220   -5.9320 C   0  0  0  0  0  0  0  0  0  0  0  0
   29.7210   47.8870   -6.0190 C   0  0  2  0  0  0  0  0  0  0  0  0
   28.0330   48.0770   -3.2480 C   0  0  0  0  0  0  0  0  0  0  0  0
   29.1290   50.3020   -2.9440 C   0  0  0  0  0  0  0  0  0  0  0  0
   31.0510   47.4150   -5.6010 N   0  0  0  0  0  0  0  0  0  0  0  0
   29.5910   47.8860   -7.4700 N   0  0  0  0  0  0  0  0  0  0  0  0
   27.6110   49.2690   -7.3850 N   0  0  0  0  0  0  0  0  0  0  0  0
   26.7510   48.4330   -3.4710 O   0  0  0  0  0  0  0  0  0  0  0  0
   28.2990   47.0500   -2.6300 O   0  0  0  0  0  0  0  0  0  0  0  0
   31.9920   48.3440   -4.9590 C   0  0  0  0  0  0  0  0  0  0  0  0
   31.0610   46.0750   -4.9970 C   0  0  0  0  0  0  0  0  0  0  0  0
   28.2130   48.0560   -7.9040 C   0  0  0  0  0  0  0  0  0  0  0  0
   32.4630   45.5580   -4.7730 C   0  0  0  0  0  0  0  0  0  0  0  0
   32.6540   47.8060   -3.6850 C   0  0  0  0  0  0  0  0  0  0  0  0
   32.6400   44.0620   -4.5740 C   0  0  0  0  0  0  0  0  0  0  0  0
   33.1070   44.7000   -5.8450 C   0  0  0  0  0  0  0  0  0  0  0  0
   33.3610   46.4850   -3.9770 C   0  0  0  0  0  0  0  0  0  0  0  0
  2  1  1  6
  2  3  1  0
  2  4  1  0
  3  5  1  0
  4  6  2  0
  3  7  1  6
  3  8  1  0
  5  9  1  6
  5 10  1  0
  6 10  1  0
  8 11  1  6
  8 12  1  0
  7 13  1  0
  9 14  1  0
  9 15  2  0
 11 16  1  0
 11 17  1  0
 12 18  1  0
 13 18  1  0
 19 17  1  0
 16 20  1  0
 19 21  1  0
 19 22  1  0
 21 22  1  0
 19 23  1  0
 20 23  1  0
M  END
