mac-x0190-mac-x0373
     RDKit          3D

 21 23  0  0  0  0  0  0  0  0999 V2000
   28.7400   56.5490   -5.3490 O   0  0  0  0  0  0  0  0  0  0  0  0
   29.3740   55.8550   -4.2770 C   0  0  0  0  0  0  0  0  0  0  0  0
   29.3690   54.4040   -4.6120 C   0  0  0  0  0  0  0  0  0  0  0  0
   30.2450   53.5130   -4.0300 N   0  0  0  0  0  0  0  0  0  0  0  0
   28.5810   53.7840   -5.4650 N   0  0  0  0  0  0  0  0  0  0  0  0
   30.0130   52.2560   -4.5570 C   0  0  0  0  0  0  0  0  0  0  0  0
   28.9680   52.4630   -5.4410 C   0  0  0  0  0  0  0  0  0  0  0  0
   30.6130   50.9830   -4.3540 C   0  0  0  0  0  0  0  0  0  0  0  0
   28.4660   51.3750   -6.1610 C   0  0  0  0  0  0  0  0  0  0  0  0
   30.1220   49.8680   -5.1220 C   0  0  0  0  0  0  0  0  0  0  0  0
   29.0440   50.1040   -5.9960 C   0  0  0  0  0  0  0  0  0  0  0  0
   30.7740   48.4250   -5.0540 C   0  0  2  0  0  0  0  0  0  0  0  0
   30.0550   47.1440   -5.5050 C   0  0  0  0  0  0  0  0  0  0  0  0
   32.1070   48.2150   -4.3340 C   0  0  0  0  0  0  0  0  0  0  0  0
   30.6990   46.5120   -6.5160 O   0  0  0  0  0  0  0  0  0  0  0  0
   29.0260   46.6480   -5.0750 O   0  0  0  0  0  0  0  0  0  0  0  0
   32.3990   47.0180   -3.6420 C   0  0  0  0  0  0  0  0  0  0  0  0
   33.0820   49.2140   -4.3660 C   0  0  0  0  0  0  0  0  0  0  0  0
   33.6380   46.8450   -3.0130 C   0  0  0  0  0  0  0  0  0  0  0  0
   34.3120   49.0400   -3.7400 C   0  0  0  0  0  0  0  0  0  0  0  0
   34.5930   47.8570   -3.0640 C   0  0  0  0  0  0  0  0  0  0  0  0
  1  2  1  0
  2  3  1  0
  3  4  1  0
  3  5  2  0
  4  6  1  0
  5  7  1  0
  6  7  2  0
  6  8  1  0
  7  9  1  0
  8 10  2  0
  9 11  2  0
 10 11  1  0
 10 12  1  0
 12 13  1  1
 12 14  1  0
 13 15  1  0
 13 16  2  0
 14 17  2  0
 14 18  1  0
 17 19  1  0
 18 20  2  0
 19 21  2  0
 20 21  1  0
M  END
