mac-x0138-mac-x0411
     RDKit          3D

 26 28  0  0  0  0  0  0  0  0999 V2000
   30.1550   46.5350   -4.4150 C   0  0  0  0  0  0  0  0  0  0  0  0
   30.2750   47.9150   -4.8130 N   0  0  0  0  0  0  0  0  0  0  0  0
   31.0850   48.8770   -4.2400 C   0  0  0  0  0  0  0  0  0  0  0  0
   29.5910   48.4950   -5.8450 C   0  0  0  0  0  0  0  0  0  0  0  0
   32.0030   48.6220   -3.0770 C   0  0  0  0  0  0  0  0  0  0  0  0
   30.9380   50.0400   -4.8590 N   0  0  0  0  0  0  0  0  0  0  0  0
   30.0150   49.8120   -5.8550 C   0  0  0  0  0  0  0  0  0  0  0  0
   28.7050   47.9250   -6.6710 N   0  0  0  0  0  0  0  0  0  0  0  0
   32.6640   47.2350   -3.1500 C   0  0  0  0  0  0  0  0  0  0  0  0
   29.4460   50.6340   -6.8420 C   0  0  0  0  0  0  0  0  0  0  0  0
   28.2280   48.7920   -7.5750 C   0  0  0  0  0  0  0  0  0  0  0  0
   29.7660   51.9810   -6.9830 N   0  0  0  0  0  0  0  0  0  0  0  0
   27.3100   48.3010   -8.4810 N   0  0  0  0  0  0  0  0  0  0  0  0
   28.5500   50.0950   -7.6960 N   0  0  0  0  0  0  0  0  0  0  0  0
   34.1780   47.2140   -2.9840 C   0  0  0  0  0  0  0  0  0  0  0  0
   34.9600   46.0810   -3.3090 C   0  0  0  0  0  0  0  0  0  0  0  0
   34.8300   48.3590   -2.4890 C   0  0  0  0  0  0  0  0  0  0  0  0
   34.3280   44.9560   -3.7980 O   0  0  0  0  0  0  0  0  0  0  0  0
   36.2160   48.3810   -2.3190 C   0  0  0  0  0  0  0  0  0  0  0  0
   36.3600   46.1140   -3.1320 C   0  0  0  0  0  0  0  0  0  0  0  0
   37.3710   44.7660   -3.5060 Cl  0  0  0  0  0  0  0  0  0  0  0  0
   33.5090   45.2190   -4.9410 C   0  0  0  0  0  0  0  0  0  0  0  0
   36.9750   47.2630   -2.6390 C   0  0  0  0  0  0  0  0  0  0  0  0
   33.7570   44.2210   -6.0700 C   0  0  0  0  0  0  0  0  0  0  0  0
   32.7260   43.3520   -6.2390 O   0  0  0  0  0  0  0  0  0  0  0  0
   34.7530   44.1730   -6.7770 O   0  0  0  0  0  0  0  0  0  0  0  0
  1  2  1  0
  2  3  1  0
  2  4  1  0
  3  5  1  0
  3  6  2  0
  4  7  2  0
  6  7  1  0
  4  8  1  0
  5  9  1  0
  7 10  1  0
  8 11  2  0
 10 12  1  0
 11 13  1  0
 10 14  2  0
 11 14  1  0
  9 15  1  0
 15 16  2  0
 15 17  1  0
 16 18  1  0
 17 19  2  0
 16 20  1  0
 20 21  1  0
 18 22  1  0
 19 23  1  0
 20 23  2  0
 22 24  1  0
 24 25  1  0
 24 26  2  0
M  END
