mac-x0365-mac-x0451
     RDKit          3D

 15 16  0  0  0  0  0  0  0  0999 V2000
   29.5750   47.7900   -6.1570 O   0  0  0  0  0  0  0  0  0  0  0  0
   29.9860   48.3500   -5.0060 C   0  0  0  0  0  0  0  0  0  0  0  0
   30.5030   47.6900   -4.1150 O   0  0  0  0  0  0  0  0  0  0  0  0
   29.7870   49.8190   -4.8500 C   0  0  0  0  0  0  0  0  0  0  0  0
   29.9360   50.2730   -3.5220 C   0  0  0  0  0  0  0  0  0  0  0  0
   29.4740   50.8010   -5.8570 C   0  0  0  0  0  0  0  0  0  0  0  0
   29.7890   51.6090   -3.1920 C   0  0  0  0  0  0  0  0  0  0  0  0
   29.3330   52.1460   -5.4800 C   0  0  0  0  0  0  0  0  0  0  0  0
   29.1970   50.7850   -7.5820 S   0  0  0  0  0  0  0  0  0  0  0  0
   29.9420   51.9980   -1.9210 F   0  0  0  0  0  0  0  0  0  0  0  0
   29.4890   52.5380   -4.1570 C   0  0  0  0  0  0  0  0  0  0  0  0
   28.9420   52.4910   -7.5970 C   0  0  0  0  0  0  0  0  0  0  0  0
   29.0400   53.0660   -6.4550 N   0  0  0  0  0  0  0  0  0  0  0  0
   29.3430   53.8640   -3.8310 O   0  0  0  0  0  0  0  0  0  0  0  0
   28.6630   53.1950   -8.7060 N   0  0  0  0  0  0  0  0  0  0  0  0
  1  2  1  0
  2  3  2  0
  2  4  1  0
  4  5  2  0
  4  6  1  0
  5  7  1  0
  6  8  2  0
  6  9  1  0
  7 10  1  0
  7 11  2  0
  8 11  1  0
  9 12  1  0
  8 13  1  0
 12 13  2  0
 11 14  1  0
 12 15  1  0
M  END
