mac-x0392-mac-x0375
     RDKit          3D

 22 23  0  0  0  0  0  0  0  0999 V2000
   29.1220   47.3580   -7.8370 N   0  0  0  0  0  0  0  0  0  0  0  0
   29.1590   48.5770   -7.1310 C   0  0  0  0  0  0  0  0  0  0  0  0
   28.9790   49.7830   -7.8060 C   0  0  0  0  0  0  0  0  0  0  0  0
   29.3720   48.6650   -5.7440 C   0  0  0  0  0  0  0  0  0  0  0  0
   29.5760   47.4330   -4.9310 C   0  0  0  0  0  0  0  0  0  0  0  0
   29.3930   49.9240   -5.1190 C   0  0  0  0  0  0  0  0  0  0  0  0
   28.9950   51.0100   -7.2280 N   0  0  0  0  0  0  0  0  0  0  0  0
   29.3350   47.3640   -3.7350 O   0  0  0  0  0  0  0  0  0  0  0  0
   30.0540   46.4260   -5.7020 O   0  0  0  0  0  0  0  0  0  0  0  0
   29.2020   51.0490   -5.8990 C   0  0  0  0  0  0  0  0  0  0  0  0
   31.2080   45.7760   -5.1570 C   0  0  0  0  0  0  0  0  0  0  0  0
   31.8610   44.9910   -6.1530 O   0  0  0  0  0  0  0  0  0  0  0  0
   33.2010   44.8440   -5.9270 C   0  0  0  0  0  0  0  0  0  0  0  0
   34.0600   44.9530   -6.7920 O   0  0  0  0  0  0  0  0  0  0  0  0
   33.4340   44.5250   -4.4530 C   0  0  0  0  0  0  0  0  0  0  0  0
   34.7960   44.3870   -4.0660 O   0  0  0  0  0  0  0  0  0  0  0  0
   35.5140   45.4840   -3.6610 C   0  0  0  0  0  0  0  0  0  0  0  0
   36.8780   45.4990   -3.3610 C   0  0  0  0  0  0  0  0  0  0  0  0
   34.7870   46.6770   -3.5490 C   0  0  0  0  0  0  0  0  0  0  0  0
   37.5020   46.6840   -2.9560 C   0  0  0  0  0  0  0  0  0  0  0  0
   35.4080   47.8600   -3.1440 C   0  0  0  0  0  0  0  0  0  0  0  0
   36.7680   47.8630   -2.8470 C   0  0  0  0  0  0  0  0  0  0  0  0
  1  2  1  0
  2  3  2  0
  2  4  1  0
  4  5  1  0
  4  6  2  0
  3  7  1  0
  5  8  2  0
  5  9  1  0
  6 10  1  0
  7 10  2  0
  9 11  1  0
 11 12  1  0
 12 13  1  0
 13 14  2  0
 13 15  1  0
 15 16  1  0
 16 17  1  0
 17 18  2  0
 17 19  1  0
 18 20  1  0
 19 21  2  0
 20 22  2  0
 21 22  1  0
M  END
