mac-x0385-mac-x0193
     RDKit          3D

 25 26  0  0  0  0  0  0  0  0999 V2000
   29.5370   51.5770   -2.7010 C   0  0  0  0  0  0  0  0  0  0  0  0
   29.3550   50.4590   -3.6730 C   0  0  0  0  0  0  0  0  0  0  0  0
   29.7120   49.1660   -3.3650 C   0  0  0  0  0  0  0  0  0  0  0  0
   28.8220   50.6390   -4.9370 C   0  0  0  0  0  0  0  0  0  0  0  0
   28.4170   51.8970   -5.3810 N   0  0  0  0  0  0  0  0  0  0  0  0
   28.6570   49.6340   -5.8110 N   0  0  0  0  0  0  0  0  0  0  0  0
   29.5670   48.1260   -4.2050 N   0  0  0  0  0  0  0  0  0  0  0  0
   29.0390   48.4050   -5.4080 C   0  0  0  0  0  0  0  0  0  0  0  0
   28.8580   47.2580   -6.3670 C   0  0  0  0  0  0  0  0  0  0  0  0
   30.1960   46.7870   -6.9400 C   0  0  0  0  0  0  0  0  0  0  0  0
   30.8840   45.7050   -6.0980 C   0  0  0  0  0  0  0  0  0  0  0  0
   32.2670   45.6670   -6.5400 N   0  0  0  0  0  0  0  0  0  0  0  0
   33.2640   45.2070   -5.8710 C   0  0  0  0  0  0  0  0  0  0  0  0
   34.5160   45.2340   -6.3450 O   0  0  0  0  0  0  0  0  0  0  0  0
   33.1770   44.5890   -4.4790 C   0  0  0  0  0  0  0  0  0  0  0  0
   34.5030   44.6990   -3.8650 N   0  0  0  0  0  0  0  0  0  0  0  0
   34.9810   43.7490   -2.9830 C   0  0  0  0  0  0  0  0  0  0  0  0
   34.5250   42.6210   -2.8520 O   0  0  0  0  0  0  0  0  0  0  0  0
   36.0450   44.2720   -2.2710 N   0  0  0  0  0  0  0  0  0  0  0  0
   37.2250   43.5320   -1.8070 C   0  0  0  0  0  0  0  0  0  0  0  0
   37.5200   42.2840   -2.6540 C   0  0  0  0  0  0  0  0  0  0  0  0
   37.1200   43.2410   -0.3010 C   0  0  0  0  0  0  0  0  0  0  0  0
   38.7130   41.4940   -2.1140 C   0  0  0  0  0  0  0  0  0  0  0  0
   38.3300   42.4730    0.2280 C   0  0  0  0  0  0  0  0  0  0  0  0
   39.3360   42.1480   -0.8770 C   0  0  0  0  0  0  0  0  0  0  0  0
  1  2  1  0
  2  3  2  0
  2  4  1  0
  4  5  1  0
  4  6  2  0
  3  7  1  0
  6  8  1  0
  7  8  2  0
  8  9  1  0
  9 10  1  0
 10 11  1  0
 11 12  1  0
 12 13  2  3
 13 14  1  0
 13 15  1  0
 15 16  1  0
 16 17  1  0
 17 18  2  0
 17 19  1  0
 19 20  1  0
 20 21  1  0
 20 22  1  0
 21 23  1  0
 22 24  1  0
 23 25  1  0
 24 25  1  0
M  END
