mac-x0115-mac-x0379
     RDKit          3D

 19 21  0  0  0  0  0  0  0  0999 V2000
   28.3620   46.2380   -1.1280 C   0  0  0  0  0  0  0  0  0  0  0  0
   29.1490   45.2250   -1.9640 C   0  0  0  0  0  0  0  0  0  0  0  0
   28.4630   43.8530   -1.8760 C   0  0  0  0  0  0  0  0  0  0  0  0
   29.3710   45.7580   -3.3790 C   0  0  0  0  0  0  0  0  0  0  0  0
   29.4220   44.7100   -4.4730 C   0  0  0  0  0  0  0  0  0  0  0  0
   29.5190   47.0690   -3.6650 C   0  0  0  0  0  0  0  0  0  0  0  0
   30.6820   44.8080   -5.3390 C   0  0  0  0  0  0  0  0  0  0  0  0
   29.7320   47.6160   -4.9770 C   0  0  0  0  0  0  0  0  0  0  0  0
   30.6720   45.8280   -6.4070 N   0  0  0  0  0  0  0  0  0  0  0  0
   30.2130   47.1030   -6.1150 C   0  0  0  0  0  0  0  0  0  0  0  0
   29.4190   49.0100   -5.3850 C   0  0  0  0  0  0  0  0  0  0  0  0
   28.8290   49.9900   -4.4140 C   0  0  0  0  0  0  0  0  0  0  0  0
   30.5250   45.3940   -7.7450 C   0  0  0  0  0  0  0  0  0  0  0  0
   30.2280   48.1210   -7.2060 C   0  0  2  0  0  0  0  0  0  0  0  0
   29.6650   49.3510   -6.6200 N   0  0  0  0  0  0  0  0  0  0  0  0
   31.1720   44.0100   -8.4420 S   0  0  0  0  0  0  0  0  0  0  0  0
   29.7620   46.2050   -8.5710 N   0  0  0  0  0  0  0  0  0  0  0  0
   29.4700   47.5420   -8.3740 C   0  0  0  0  0  0  0  0  0  0  0  0
   28.6770   48.1370   -9.1010 O   0  0  0  0  0  0  0  0  0  0  0  0
  1  2  1  0
  2  3  1  0
  2  4  1  0
  4  5  1  0
  4  6  2  0
  5  7  1  0
  6  8  1  0
  7  9  1  0
  8 10  2  0
  9 10  1  0
  8 11  1  0
 11 12  1  0
  9 13  1  0
 10 14  1  0
 11 15  2  0
 14 15  1  1
 13 16  2  0
 13 17  1  0
 14 18  1  0
 17 18  1  0
 18 19  2  0
M  END
