mac-x0451-mac-x0204
     RDKit          3D

 20 22  0  0  0  0  0  0  0  0999 V2000
   28.4510   53.9910   -8.2290 N   0  0  0  0  0  0  0  0  0  0  0  0
   28.8240   52.8640   -7.6000 C   0  0  0  0  0  0  0  0  0  0  0  0
   29.0360   52.8080   -6.3130 N   0  0  0  0  0  0  0  0  0  0  0  0
   29.0530   51.3980   -8.4590 S   0  0  0  0  0  0  0  0  0  0  0  0
   29.4080   51.5240   -5.9490 C   0  0  0  0  0  0  0  0  0  0  0  0
   29.4730   50.5990   -6.9910 C   0  0  0  0  0  0  0  0  0  0  0  0
   29.7160   51.0900   -4.6450 C   0  0  0  0  0  0  0  0  0  0  0  0
   29.8330   49.2550   -6.7810 C   0  0  0  0  0  0  0  0  0  0  0  0
   30.0760   49.7530   -4.4220 C   0  0  0  0  0  0  0  0  0  0  0  0
   30.1400   48.8240   -5.4730 C   0  0  0  0  0  0  0  0  0  0  0  0
   30.5410   47.3700   -5.1880 C   0  0  0  0  0  0  0  0  0  0  0  0
   31.4240   46.8900   -6.1890 O   0  0  0  0  0  0  0  0  0  0  0  0
   29.3870   46.5510   -5.3120 O   0  0  0  0  0  0  0  0  0  0  0  0
   31.1870   47.2060   -3.8260 C   0  0  0  0  0  0  0  0  0  0  0  0
   30.4170   47.2100   -2.6510 C   0  0  0  0  0  0  0  0  0  0  0  0
   32.5630   47.0420   -3.6740 C   0  0  0  0  0  0  0  0  0  0  0  0
   31.0330   47.0520   -1.4170 C   0  0  0  0  0  0  0  0  0  0  0  0
   33.1910   46.8860   -2.4810 N   0  0  0  0  0  0  0  0  0  0  0  0
   30.2560   47.0600   -0.3010 O   0  0  0  0  0  0  0  0  0  0  0  0
   32.4100   46.8950   -1.3790 C   0  0  0  0  0  0  0  0  0  0  0  0
  1  2  1  0
  2  3  2  0
  2  4  1  0
  3  5  1  0
  4  6  1  0
  5  6  2  0
  5  7  1  0
  6  8  1  0
  7  9  2  0
  8 10  2  0
  9 10  1  0
 10 11  1  0
 11 12  1  0
 11 13  1  0
 11 14  1  0
 14 15  2  0
 14 16  1  0
 15 17  1  0
 16 18  2  0
 17 19  1  0
 17 20  2  0
 18 20  1  0
M  END
