mac-x0148-mac-x0142
     RDKit          3D

 20 24  0  0  0  0  0  0  0  0999 V2000
   31.7440   46.5370   -1.9620 C   0  0  0  0  0  0  0  0  0  0  0  0
   30.5050   47.2600   -1.8930 O   0  0  0  0  0  0  0  0  0  0  0  0
   30.1080   47.5410   -3.2390 C   0  0  0  0  0  0  0  0  0  0  0  0
   32.3870   46.7760   -3.3340 C   0  0  2  0  0  0  0  0  0  0  0  0
   31.3990   47.7160   -4.0270 C   0  0  1  0  0  0  0  0  0  0  0  0
   32.6250   45.5330   -4.1920 C   0  0  0  0  0  0  0  0  0  0  0  0
   33.2010   45.8770   -5.5510 C   0  0  0  0  0  0  0  0  0  0  0  0
   31.2730   47.4650   -5.4830 N   0  0  0  0  0  0  0  0  0  0  0  0
   32.9740   44.1790   -3.5990 C   0  0  0  0  0  0  0  0  0  0  0  0
   31.5980   44.4200   -4.1480 C   0  0  0  0  0  0  0  0  0  0  0  0
   32.5390   47.1190   -6.1590 C   0  0  0  0  0  0  0  0  0  0  0  0
   30.2010   48.0410   -6.1870 C   0  0  0  0  0  0  0  0  0  0  0  0
   29.5410   47.2830   -7.1410 N   0  0  0  0  0  0  0  0  0  0  0  0
   29.7260   49.2920   -6.0340 C   0  0  0  0  0  0  0  0  0  0  0  0
   28.4890   47.7640   -7.8690 C   0  0  0  0  0  0  0  0  0  0  0  0
   28.5800   49.7550   -6.8610 C   0  0  0  0  0  0  0  0  0  0  0  0
   30.0190   50.4420   -5.2340 C   0  0  0  0  0  0  0  0  0  0  0  0
   27.9770   48.9460   -7.7820 N   0  0  0  0  0  0  0  0  0  0  0  0
   28.2390   50.9880   -6.6000 N   0  0  0  0  0  0  0  0  0  0  0  0
   29.1300   51.3750   -5.6110 C   0  0  0  0  0  0  0  0  0  0  0  0
  1  2  1  0
  2  3  1  0
  4  1  1  1
  5  3  1  1
  4  5  1  0
  4  6  1  0
  6  7  1  0
  5  8  1  0
  6  9  1  0
  6 10  1  0
  9 10  1  0
  7 11  1  0
  8 11  1  0
  8 12  1  0
 12 13  1  0
 12 14  2  0
 13 15  1  0
 14 16  1  0
 14 17  1  0
 15 18  2  0
 16 18  1  0
 16 19  2  0
 17 20  2  0
 19 20  1  0
M  END
