mac-x0255-mac-x0365
     RDKit          3D

 24 26  0  0  0  0  0  0  0  0999 V2000
   32.2380   44.5420   -7.0210 O   0  0  0  0  0  0  0  0  0  0  0  0
   33.0750   45.2760   -6.2520 C   0  0  0  0  0  0  0  0  0  0  0  0
   34.2020   44.8620   -6.0260 O   0  0  0  0  0  0  0  0  0  0  0  0
   32.4330   46.5630   -5.7790 C   0  0  0  0  0  0  0  0  0  0  0  0
   31.4910   46.3630   -4.6260 C   0  0  0  0  0  0  0  0  0  0  0  0
   30.1160   46.4490   -4.6150 C   0  0  0  0  0  0  0  0  0  0  0  0
   32.0870   45.9750   -3.0730 S   0  0  0  0  0  0  0  0  0  0  0  0
   29.3950   46.7570   -5.7730 N   0  0  0  0  0  0  0  0  0  0  0  0
   29.5190   46.1980   -3.3300 C   0  0  0  0  0  0  0  0  0  0  0  0
   30.5070   45.9220   -2.3810 C   0  0  0  0  0  0  0  0  0  0  0  0
   29.0870   47.9890   -6.0220 C   0  0  0  0  0  0  0  0  0  0  0  0
   28.1670   46.1870   -2.9030 C   0  0  0  0  0  0  0  0  0  0  0  0
   30.1790   45.6430   -1.0400 C   0  0  0  0  0  0  0  0  0  0  0  0
   28.3960   48.1870   -7.1550 O   0  0  0  0  0  0  0  0  0  0  0  0
   27.8380   45.9120   -1.5740 C   0  0  0  0  0  0  0  0  0  0  0  0
   28.8370   45.6430   -0.6530 C   0  0  0  0  0  0  0  0  0  0  0  0
   29.2970   49.3040   -5.3700 C   0  0  0  0  0  0  0  0  0  0  0  0
   29.6620   49.3910   -4.0170 C   0  0  0  0  0  0  0  0  0  0  0  0
   29.1280   50.4790   -6.1140 C   0  0  0  0  0  0  0  0  0  0  0  0
   29.8480   50.6490   -3.4390 C   0  0  0  0  0  0  0  0  0  0  0  0
   29.3170   51.7320   -5.5260 C   0  0  0  0  0  0  0  0  0  0  0  0
   30.1970   50.7360   -2.1450 F   0  0  0  0  0  0  0  0  0  0  0  0
   29.6760   51.8110   -4.1870 C   0  0  0  0  0  0  0  0  0  0  0  0
   29.8650   53.0220   -3.5840 O   0  0  0  0  0  0  0  0  0  0  0  0
  1  2  1  0
  2  3  2  0
  2  4  1  0
  4  5  1  0
  5  6  2  0
  5  7  1  0
  6  8  1  0
  6  9  1  0
  7 10  1  0
  9 10  2  0
  8 11  2  3
  9 12  1  0
 10 13  1  0
 11 14  1  0
 12 15  2  0
 13 16  2  0
 15 16  1  0
 11 17  1  0
 17 18  2  0
 17 19  1  0
 18 20  1  0
 19 21  2  0
 20 22  1  0
 20 23  2  0
 21 23  1  0
 23 24  1  0
M  END
