mac-x0223-mac-x0441
     RDKit          3D

 26 28  0  0  0  0  0  0  0  0999 V2000
   27.9570   43.5150   -2.2420 C   0  0  0  0  0  0  0  0  0  0  0  0
   27.8410   44.9270   -2.2220 O   0  0  0  0  0  0  0  0  0  0  0  0
   28.9820   45.6730   -2.4060 C   0  0  0  0  0  0  0  0  0  0  0  0
   28.9710   46.9190   -1.7690 C   0  0  0  0  0  0  0  0  0  0  0  0
   30.1220   45.2930   -3.1620 C   0  0  0  0  0  0  0  0  0  0  0  0
   27.8830   47.3020   -1.0360 O   0  0  0  0  0  0  0  0  0  0  0  0
   30.0510   47.7810   -1.8690 C   0  0  0  0  0  0  0  0  0  0  0  0
   31.2370   46.1770   -3.2670 C   0  0  0  0  0  0  0  0  0  0  0  0
   32.5430   45.9100   -4.0520 C   0  0  2  0  0  0  0  0  0  0  0  0
   31.1600   47.4070   -2.6070 C   0  0  0  0  0  0  0  0  0  0  0  0
   32.4420   45.7410   -5.5910 C   0  0  0  0  0  0  0  0  0  0  0  0
   33.7470   45.3080   -3.3390 N   0  0  0  0  0  0  0  0  0  0  0  0
   33.3630   45.9220   -6.3680 O   0  0  0  0  0  0  0  0  0  0  0  0
   31.2080   45.4030   -6.0630 O   0  0  0  0  0  0  0  0  0  0  0  0
   33.9560   43.8750   -3.0640 N   0  0  0  0  0  0  0  0  0  0  0  0
   35.0950   45.8160   -3.5340 C   0  0  2  0  0  0  0  0  0  0  0  0
   35.0740   43.9300   -2.0370 C   0  0  2  0  0  0  0  0  0  0  0  0
   35.7080   45.3300   -2.2320 C   0  0  1  0  0  0  0  0  0  0  0  0
   35.3280   47.3010   -3.5730 C   0  0  0  0  0  0  0  0  0  0  0  0
   36.0460   42.7450   -1.8820 C   0  0  0  0  0  0  0  0  0  0  0  0
   37.1880   45.5940   -2.2600 C   0  0  0  0  0  0  0  0  0  0  0  0
   36.5370   47.7560   -3.1710 C   0  0  0  0  0  0  0  0  0  0  0  0
   36.9530   42.6290   -2.8770 F   0  0  0  0  0  0  0  0  0  0  0  0
   36.7340   42.8400   -0.7210 F   0  0  0  0  0  0  0  0  0  0  0  0
   35.3540   41.5800   -1.8260 F   0  0  0  0  0  0  0  0  0  0  0  0
   37.5620   46.8110   -2.7280 C   0  0  0  0  0  0  0  0  0  0  0  0
  1  2  1  0
  2  3  1  0
  3  4  2  0
  3  5  1  0
  4  6  1  0
  4  7  1  0
  5  8  2  0
  8  9  1  0
  7 10  2  0
  8 10  1  0
  9 11  1  6
  9 12  1  0
 11 13  2  0
 11 14  1  0
 12 15  1  0
 12 16  1  0
 15 17  1  0
 16 18  1  0
 17 18  1  0
 16 19  1  1
 17 20  1  6
 18 21  1  6
 19 22  2  0
 20 23  1  0
 20 24  1  0
 20 25  1  0
 21 26  2  0
 22 26  1  0
M  END
