mac-x0341-mac-x0283
     RDKit          3D

 12 13  0  0  0  0  0  0  0  0999 V2000
   28.3650   54.8030   -7.5150 N   0  0  0  0  0  0  0  0  0  0  0  0
   28.6500   53.6250   -6.8980 C   0  0  0  0  0  0  0  0  0  0  0  0
   28.5130   52.5030   -7.5340 N   0  0  0  0  0  0  0  0  0  0  0  0
   29.0800   53.7010   -5.6050 N   0  0  0  0  0  0  0  0  0  0  0  0
   29.4090   52.5990   -4.8540 C   0  0  0  0  0  0  0  0  0  0  0  0
   28.8220   51.3110   -6.8520 C   0  0  0  0  0  0  0  0  0  0  0  0
   29.7990   52.6890   -3.6930 O   0  0  0  0  0  0  0  0  0  0  0  0
   29.2690   51.2980   -5.5270 C   0  0  0  0  0  0  0  0  0  0  0  0
   28.6800   50.0870   -7.5160 C   0  0  0  0  0  0  0  0  0  0  0  0
   28.9800   48.8830   -6.8640 C   0  0  0  0  0  0  0  0  0  0  0  0
   29.5700   50.1030   -4.8680 C   0  0  0  0  0  0  0  0  0  0  0  0
   29.4220   48.8930   -5.5450 C   0  0  0  0  0  0  0  0  0  0  0  0
  1  2  1  0
  2  3  2  0
  2  4  1  0
  4  5  1  0
  3  6  1  0
  5  7  2  0
  5  8  1  0
  6  8  2  0
  6  9  1  0
  9 10  2  0
  8 11  1  0
 10 12  1  0
 11 12  2  0
M  END
