mac-x0159-mac-x0360
     RDKit          3D

 28 31  0  0  0  0  0  0  0  0999 V2000
   30.0380   50.5200   -5.9190 N   0  0  0  0  0  0  0  0  0  0  0  0
   30.1220   51.7990   -5.1080 S   0  0  2  0  0  0  0  0  0  0  0  0
   30.2900   51.1220   -3.5820 N   0  0  0  0  0  0  0  0  0  0  0  0
   28.7290   49.9070   -6.1450 C   0  0  2  0  0  0  0  0  0  0  0  0
   29.0880   52.7930   -4.9450 O   0  0  0  0  0  0  0  0  0  0  0  0
   28.3040   49.4140   -4.8590 N   0  0  0  0  0  0  0  0  0  0  0  0
   28.8160   48.7570   -7.1960 C   0  0  1  0  0  0  0  0  0  0  0  0
   31.6220   52.6010   -5.5520 C   0  0  0  0  0  0  0  0  0  0  0  0
   29.1520   48.3600   -4.3480 C   0  0  0  0  0  0  0  0  0  0  0  0
   29.5790   47.5730   -6.5700 C   0  0  1  0  0  0  0  0  0  0  0  0
   27.5360   48.1470   -7.6800 N   0  0  0  0  0  0  0  0  0  0  0  0
   32.8360   51.9440   -5.3380 C   0  0  0  0  0  0  0  0  0  0  0  0
   31.5830   53.8780   -6.1120 C   0  0  0  0  0  0  0  0  0  0  0  0
   29.1420   47.2000   -5.2250 N   0  0  0  0  0  0  0  0  0  0  0  0
   29.1880   46.5100   -7.4870 N   0  0  0  0  0  0  0  0  0  0  0  0
   27.7570   46.7060   -7.6280 C   0  0  0  0  0  0  0  0  0  0  0  0
   34.0240   52.5800   -5.6920 C   0  0  0  0  0  0  0  0  0  0  0  0
   32.7800   54.4970   -6.4590 C   0  0  0  0  0  0  0  0  0  0  0  0
   29.9300   46.0800   -4.6550 C   0  0  0  0  0  0  0  0  0  0  0  0
   32.7470   56.0730   -7.1520 Cl  0  0  0  0  0  0  0  0  0  0  0  0
   35.5280   51.7830   -5.4350 Cl  0  0  0  0  0  0  0  0  0  0  0  0
   34.0040   53.8580   -6.2540 C   0  0  0  0  0  0  0  0  0  0  0  0
   29.2860   45.3310   -3.5110 C   0  0  0  0  0  0  0  0  0  0  0  0
   28.6460   44.1090   -3.6110 C   0  0  0  0  0  0  0  0  0  0  0  0
   29.3010   45.8570   -2.2230 N   0  0  0  0  0  0  0  0  0  0  0  0
   28.6870   45.0500   -1.3890 C   0  0  0  0  0  0  0  0  0  0  0  0
   28.0550   43.6120   -2.0830 S   0  0  0  0  0  0  0  0  0  0  0  0
   28.5250   45.3170    0.0650 C   0  0  0  0  0  0  0  0  0  0  0  0
  1  2  2  0
  2  3  1  1
  4  1  1  1
  2  5  2  0
  4  6  1  0
  4  7  1  0
  2  8  1  0
  6  9  1  0
  7 10  1  0
  7 11  1  1
  8 12  2  0
  8 13  1  0
  9 14  1  0
 10 14  1  0
 10 15  1  6
 11 16  1  0
 15 16  1  0
 12 17  1  0
 13 18  2  0
 14 19  1  0
 18 20  1  0
 17 21  1  0
 17 22  2  0
 18 22  1  0
 19 23  1  0
 23 24  2  0
 23 25  1  0
 25 26  2  0
 24 27  1  0
 26 27  1  0
 26 28  1  0
M  END
