mac-x0271-mac-x0116
     RDKit          3D

 23 26  0  0  0  0  0  0  0  0999 V2000
   30.2050   49.1830   -3.5230 O   0  0  0  0  0  0  0  0  0  0  0  0
   30.4070   50.3770   -4.3000 C   0  0  1  0  0  0  0  0  0  0  0  0
   29.7050   50.2850   -5.7110 C   0  0  2  0  0  0  0  0  0  0  0  0
   29.9810   51.5850   -3.4280 C   0  0  0  0  0  0  0  0  0  0  0  0
   29.4480   52.7790   -4.1730 C   0  0  0  0  0  0  0  0  0  0  0  0
   29.7840   51.7000   -6.4100 C   0  0  1  0  0  0  0  0  0  0  0  0
   28.2830   49.7020   -5.6230 C   0  0  0  0  0  0  0  0  0  0  0  0
   30.3790   49.2890   -6.6190 N   0  0  0  0  0  0  0  0  0  0  0  0
   28.9890   51.8260   -7.6490 N   0  0  0  0  0  0  0  0  0  0  0  0
   29.3460   52.8380   -5.5020 C   0  0  0  0  0  0  0  0  0  0  0  0
   29.0530   53.8740   -3.3590 O   0  0  0  0  0  0  0  0  0  0  0  0
   28.3830   48.3240   -6.1200 N   0  0  0  0  0  0  0  0  0  0  0  0
   29.3780   48.3920   -7.1480 C   0  0  0  0  0  0  0  0  0  0  0  0
   29.5740   52.7960   -8.5930 C   0  0  0  0  0  0  0  0  0  0  0  0
   28.8050   54.0460   -6.0940 C   0  0  0  0  0  0  0  0  0  0  0  0
   28.9490   55.1180   -3.9220 C   0  0  0  0  0  0  0  0  0  0  0  0
   29.1170   56.1620   -3.3020 O   0  0  0  0  0  0  0  0  0  0  0  0
   28.6130   55.1370   -5.3530 C   0  0  0  0  0  0  0  0  0  0  0  0
   30.6630   53.6050   -7.9640 C   0  0  0  0  0  0  0  0  0  0  0  0
   31.7780   52.9380   -7.5440 O   0  0  0  0  0  0  0  0  0  0  0  0
   30.8030   54.9530   -7.7070 C   0  0  0  0  0  0  0  0  0  0  0  0
   32.0690   55.1130   -7.0940 C   0  0  0  0  0  0  0  0  0  0  0  0
   32.6220   53.8600   -7.0160 C   0  0  0  0  0  0  0  0  0  0  0  0
  2  1  1  1
  2  3  1  0
  2  4  1  0
  4  5  1  0
  3  6  1  0
  3  7  1  1
  3  8  1  0
  6  9  1  6
  5 10  2  0
  6 10  1  0
  5 11  1  0
  7 12  1  0
  8 13  1  0
 12 13  1  0
  9 14  1  0
 10 15  1  0
 11 16  1  0
 16 17  2  0
 15 18  2  0
 16 18  1  0
 14 19  1  0
 19 20  1  0
 19 21  2  0
 21 22  1  0
 20 23  1  0
 22 23  2  0
M  END
