mac-x0123-mac-x0302
     RDKit          3D

 20 22  0  0  0  0  0  0  0  0999 V2000
   29.1590   52.4790   -8.1140 N   0  0  0  0  0  0  0  0  0  0  0  0
   29.2470   51.9870   -6.7370 C   0  0  2  0  0  0  0  0  0  0  0  0
   28.3810   52.7230   -5.6930 C   0  0  1  0  0  0  0  0  0  0  0  0
   30.6580   52.0140   -6.4040 N   0  0  0  0  0  0  0  0  0  0  0  0
   30.9950   51.6800   -5.0140 C   0  0  1  0  0  0  0  0  0  0  0  0
   28.6470   52.2010   -4.2770 C   0  0  1  0  0  0  0  0  0  0  0  0
   28.6990   54.1970   -5.5690 C   0  0  0  0  0  0  0  0  0  0  0  0
   31.4760   51.2120   -7.3100 N   0  0  0  0  0  0  0  0  0  0  0  0
   29.8760   51.4270   -4.1120 N   0  0  0  0  0  0  0  0  0  0  0  0
   28.4920   53.4330   -3.3570 C   0  0  0  0  0  0  0  0  0  0  0  0
   28.7570   54.5780   -4.2880 C   0  0  0  0  0  0  0  0  0  0  0  0
   31.7620   50.4330   -5.1630 N   0  0  0  0  0  0  0  0  0  0  0  0
   32.4540   50.6000   -6.4330 C   0  0  0  0  0  0  0  0  0  0  0  0
   29.8090   50.3420   -3.2340 C   0  0  0  0  0  0  0  0  0  0  0  0
   29.5970   49.1070   -3.8160 N   0  0  0  0  0  0  0  0  0  0  0  0
   29.9220   50.4430   -2.0160 O   0  0  0  0  0  0  0  0  0  0  0  0
   29.5850   47.8990   -2.9820 C   0  0  0  0  0  0  0  0  0  0  0  0
   29.3810   46.6070   -3.7770 C   0  0  0  0  0  0  0  0  0  0  0  0
   30.2810   45.6380   -3.4860 O   0  0  0  0  0  0  0  0  0  0  0  0
   28.4890   46.4460   -4.6010 O   0  0  0  0  0  0  0  0  0  0  0  0
  2  1  1  6
  2  3  1  0
  2  4  1  0
  4  5  1  0
  3  6  1  0
  3  7  1  1
  4  8  1  0
  5  9  1  0
  6  9  1  0
  6 10  1  1
  7 11  2  0
 10 11  1  0
  5 12  1  6
  8 13  1  0
 12 13  1  0
  9 14  1  0
 14 15  1  0
 14 16  2  0
 15 17  1  0
 17 18  1  0
 18 19  1  0
 18 20  2  0
M  END
