mac-x0223-mac-x0565
     RDKit          3D

 24 26  0  0  0  0  0  0  0  0999 V2000
   27.4910   43.4350   -2.2150 C   0  0  0  0  0  0  0  0  0  0  0  0
   28.8390   43.8050   -1.9690 O   0  0  0  0  0  0  0  0  0  0  0  0
   29.1660   45.1200   -2.4470 C   0  0  1  0  0  0  0  0  0  0  0  0
   28.9770   46.0610   -1.2450 C   0  0  2  0  0  0  0  0  0  0  0  0
   30.6130   45.1930   -2.9990 C   0  0  0  0  0  0  0  0  0  0  0  0
   27.6460   45.9760   -0.7430 O   0  0  0  0  0  0  0  0  0  0  0  0
   29.2640   47.4940   -1.6360 C   0  0  0  0  0  0  0  0  0  0  0  0
   31.0990   46.6570   -3.1300 C   0  0  1  0  0  0  0  0  0  0  0  0
   32.1610   46.9090   -4.2360 C   0  0  0  0  0  0  0  0  0  0  0  0
   29.8750   47.6140   -3.0520 C   0  0  2  0  0  0  0  0  0  0  0  0
   32.3170   45.9690   -5.4130 C   0  0  0  0  0  0  0  0  0  0  0  0
   30.0290   49.1020   -3.2290 C   0  0  0  0  0  0  0  0  0  0  0  0
   28.8130   47.4010   -4.1580 C   0  0  0  0  0  0  0  0  0  0  0  0
   33.3530   45.6180   -5.9470 O   0  0  0  0  0  0  0  0  0  0  0  0
   31.1330   45.5220   -5.8730 O   0  0  0  0  0  0  0  0  0  0  0  0
   29.5040   49.4640   -4.4640 C   0  0  0  0  0  0  0  0  0  0  0  0
   30.5620   50.0640   -2.3870 C   0  0  0  0  0  0  0  0  0  0  0  0
   29.0190   48.4070   -5.1830 O   0  0  0  0  0  0  0  0  0  0  0  0
   29.4740   50.7630   -4.9110 C   0  0  0  0  0  0  0  0  0  0  0  0
   30.5460   51.3970   -2.8130 C   0  0  0  0  0  0  0  0  0  0  0  0
   30.0000   51.7430   -4.0670 C   0  0  0  0  0  0  0  0  0  0  0  0
   29.9940   53.1680   -4.4670 C   0  0  0  0  0  0  0  0  0  0  0  0
   29.5270   53.3700   -5.7150 O   0  0  0  0  0  0  0  0  0  0  0  0
   30.3690   54.0660   -3.7340 O   0  0  0  0  0  0  0  0  0  0  0  0
  1  2  1  0
  3  2  1  1
  3  4  1  0
  3  5  1  0
  4  6  1  6
  4  7  1  0
  5  8  1  0
  8  9  1  6
 10  7  1  1
  8 10  1  0
  9 11  1  0
 10 12  1  0
 10 13  1  0
 11 14  2  0
 11 15  1  0
 12 16  2  0
 12 17  1  0
 13 18  1  0
 16 18  1  0
 16 19  1  0
 17 20  2  0
 19 21  2  0
 20 21  1  0
 21 22  1  0
 22 23  1  0
 22 24  2  0
M  END
