mac-x0132-mac-x0588
     RDKit          3D

 26 30  0  0  0  0  0  0  0  0999 V2000
   28.9400   50.9070   -5.9050 N   0  0  0  0  0  0  0  0  0  0  0  0
   29.1010   52.1920   -5.3440 C   0  0  0  0  0  0  0  0  0  0  0  0
   29.3750   53.2320   -6.1610 N   0  0  0  0  0  0  0  0  0  0  0  0
   30.1100   50.2300   -6.4650 C   0  0  1  0  0  0  0  0  0  0  0  0
   28.9710   52.3600   -3.9480 C   0  0  0  0  0  0  0  0  0  0  0  0
   31.1610   49.7630   -5.5430 N   0  0  0  0  0  0  0  0  0  0  0  0
   29.6300   49.0270   -7.3500 C   0  0  1  0  0  0  0  0  0  0  0  0
   29.1430   53.6690   -3.4720 C   0  0  0  0  0  0  0  0  0  0  0  0
   29.5160   54.4300   -5.5810 C   0  0  0  0  0  0  0  0  0  0  0  0
   28.6840   51.3200   -3.0240 C   0  0  0  0  0  0  0  0  0  0  0  0
   31.3910   48.3250   -5.6200 C   0  0  0  0  0  0  0  0  0  0  0  0
   29.1420   47.9350   -6.4200 C   0  0  2  0  0  0  0  0  0  0  0  0
   28.4800   49.1120   -8.2690 N   0  0  0  0  0  0  0  0  0  0  0  0
   29.4130   54.7030   -4.2760 N   0  0  0  0  0  0  0  0  0  0  0  0
   29.0290   53.9060   -2.1060 C   0  0  0  0  0  0  0  0  0  0  0  0
   28.5740   51.5830   -1.6590 C   0  0  0  0  0  0  0  0  0  0  0  0
   30.1500   47.5830   -5.4470 N   0  0  0  0  0  0  0  0  0  0  0  0
   28.6780   46.9260   -7.3650 N   0  0  0  0  0  0  0  0  0  0  0  0
   28.0350   47.7280   -8.4140 C   0  0  0  0  0  0  0  0  0  0  0  0
   30.2530   46.2440   -4.8780 C   0  0  0  0  0  0  0  0  0  0  0  0
   28.7470   52.8790   -1.1980 C   0  0  0  0  0  0  0  0  0  0  0  0
   29.2280   45.7900   -3.8110 C   0  0  2  0  0  0  0  0  0  0  0  0
   29.7180   46.1330   -2.4970 O   0  0  0  0  0  0  0  0  0  0  0  0
   28.9430   44.2970   -3.7430 C   0  0  0  0  0  0  0  0  0  0  0  0
   28.4350   44.1450   -2.3310 C   0  0  0  0  0  0  0  0  0  0  0  0
   29.3040   45.1210   -1.5680 C   0  0  0  0  0  0  0  0  0  0  0  0
  1  2  1  0
  2  3  2  0
  4  1  1  1
  2  5  1  0
  4  6  1  0
  4  7  1  0
  5  8  2  0
  3  9  1  0
  5 10  1  0
  6 11  1  0
  7 12  1  0
  7 13  1  6
  8 14  1  0
  9 14  2  0
  8 15  1  0
 10 16  2  0
 11 17  1  0
 12 17  1  0
 12 18  1  6
 13 19  1  0
 18 19  1  0
 17 20  1  0
 15 21  2  0
 16 21  1  0
 22 20  1  6
 22 23  1  0
 22 24  1  0
 24 25  1  0
 23 26  1  0
 25 26  1  0
M  END
