mac-x0138-mac-x0161
     RDKit          3D

 18 20  0  0  0  0  0  0  0  0999 V2000
   27.5050   51.4590   -6.8590 N   0  0  0  0  0  0  0  0  0  0  0  0
   28.3600   50.3660   -6.8520 C   0  0  0  0  0  0  0  0  0  0  0  0
   29.1640   50.0380   -5.7550 C   0  0  0  0  0  0  0  0  0  0  0  0
   28.4160   49.5890   -7.9560 N   0  0  0  0  0  0  0  0  0  0  0  0
   29.3200   50.6170   -4.5170 N   0  0  0  0  0  0  0  0  0  0  0  0
   29.9770   48.9320   -5.9010 C   0  0  0  0  0  0  0  0  0  0  0  0
   29.2420   48.5300   -7.9720 C   0  0  0  0  0  0  0  0  0  0  0  0
   29.2460   47.7720   -9.1270 N   0  0  0  0  0  0  0  0  0  0  0  0
   30.6740   48.8370   -4.7150 N   0  0  0  0  0  0  0  0  0  0  0  0
   30.2280   49.8760   -3.9250 C   0  0  0  0  0  0  0  0  0  0  0  0
   30.0560   48.1380   -6.9870 N   0  0  0  0  0  0  0  0  0  0  0  0
   31.6450   47.9030   -4.3930 C   0  0  0  0  0  0  0  0  0  0  0  0
   32.6520   48.0810   -3.4730 C   0  0  0  0  0  0  0  0  0  0  0  0
   31.7730   46.6610   -4.9470 O   0  0  0  0  0  0  0  0  0  0  0  0
   32.8750   46.0240   -4.3970 N   0  0  0  0  0  0  0  0  0  0  0  0
   33.3820   46.8940   -3.5250 C   0  0  0  0  0  0  0  0  0  0  0  0
   34.4810   46.6320   -2.7870 O   0  0  0  0  0  0  0  0  0  0  0  0
   35.0940   47.7900   -2.2250 C   0  0  0  0  0  0  0  0  0  0  0  0
  1  2  1  0
  2  3  2  0
  2  4  1  0
  3  5  1  0
  3  6  1  0
  4  7  2  0
  7  8  1  0
  6  9  1  0
  5 10  2  0
  9 10  1  0
  6 11  2  0
  7 11  1  0
  9 12  1  0
 12 13  2  0
 12 14  1  0
 14 15  1  0
 13 16  1  0
 15 16  2  0
 16 17  1  0
 17 18  1  0
M  END
