mac-x0159-mac-x0433
     RDKit          3D

 25 28  0  0  0  0  0  0  0  0999 V2000
   28.6210   51.1950   -5.7570 N   0  0  0  0  0  0  0  0  0  0  0  0
   29.6130   50.1300   -5.9980 C   0  0  2  0  0  0  0  0  0  0  0  0
   28.8700   48.9940   -6.7750 C   0  0  2  0  0  0  0  0  0  0  0  0
   28.9470   52.2550   -4.8900 C   0  0  0  0  0  0  0  0  0  0  0  0
   30.2790   49.5280   -4.8430 N   0  0  0  0  0  0  0  0  0  0  0  0
   29.0070   52.0750   -3.5650 N   0  0  0  0  0  0  0  0  0  0  0  0
   29.2010   53.4950   -5.4490 C   0  0  0  0  0  0  0  0  0  0  0  0
   29.5350   48.4800   -4.1540 C   0  0  0  0  0  0  0  0  0  0  0  0
   29.5380   47.6900   -6.3900 C   0  0  1  0  0  0  0  0  0  0  0  0
   28.9600   48.9710   -8.2550 N   0  0  0  0  0  0  0  0  0  0  0  0
   29.3200   53.1230   -2.7990 C   0  0  0  0  0  0  0  0  0  0  0  0
   29.5160   54.5260   -4.5810 C   0  0  0  0  0  0  0  0  0  0  0  0
   29.8030   55.8990   -5.1110 C   0  0  0  0  0  0  0  0  0  0  0  0
   29.3790   52.9150   -1.4360 N   0  0  0  0  0  0  0  0  0  0  0  0
   29.3140   47.3160   -5.0090 N   0  0  0  0  0  0  0  0  0  0  0  0
   28.8590   46.8100   -7.3220 N   0  0  0  0  0  0  0  0  0  0  0  0
   28.8460   47.5450   -8.5760 C   0  0  0  0  0  0  0  0  0  0  0  0
   29.5780   54.3510   -3.2510 N   0  0  0  0  0  0  0  0  0  0  0  0
   30.1460   46.1650   -4.6150 C   0  0  0  0  0  0  0  0  0  0  0  0
   29.4960   45.3670   -3.5150 C   0  0  0  0  0  0  0  0  0  0  0  0
   29.0190   44.0690   -3.5980 C   0  0  0  0  0  0  0  0  0  0  0  0
   29.3320   45.9530   -2.2640 N   0  0  0  0  0  0  0  0  0  0  0  0
   28.7490   45.1160   -1.4340 C   0  0  0  0  0  0  0  0  0  0  0  0
   28.3610   43.5770   -2.0930 S   0  0  0  0  0  0  0  0  0  0  0  0
   28.4260   45.4230   -0.0170 C   0  0  0  0  0  0  0  0  0  0  0  0
  2  1  1  1
  2  3  1  0
  1  4  1  0
  2  5  1  0
  4  6  2  0
  4  7  1  0
  5  8  1  0
  3  9  1  0
  3 10  1  6
  6 11  1  0
  7 12  2  0
 12 13  1  0
 11 14  1  0
  8 15  1  0
  9 15  1  0
  9 16  1  6
 10 17  1  0
 16 17  1  0
 11 18  2  0
 12 18  1  0
 15 19  1  0
 19 20  1  0
 20 21  2  0
 20 22  1  0
 22 23  2  0
 21 24  1  0
 23 24  1  0
 23 25  1  0
M  END
