mac-x0223-mac-x0206
     RDKit          3D

 26 27  0  0  0  0  0  0  0  0999 V2000
   27.4610   43.4330   -2.1660 C   0  0  0  0  0  0  0  0  0  0  0  0
   27.6090   44.8420   -2.0220 O   0  0  0  0  0  0  0  0  0  0  0  0
   28.8480   45.3580   -2.3050 C   0  0  0  0  0  0  0  0  0  0  0  0
   29.1790   46.5210   -1.6030 C   0  0  0  0  0  0  0  0  0  0  0  0
   29.7750   44.8300   -3.2050 C   0  0  0  0  0  0  0  0  0  0  0  0
   28.2910   47.0620   -0.7120 O   0  0  0  0  0  0  0  0  0  0  0  0
   30.3990   47.1590   -1.7840 C   0  0  0  0  0  0  0  0  0  0  0  0
   31.0200   45.4610   -3.4030 C   0  0  0  0  0  0  0  0  0  0  0  0
   32.0150   44.8770   -4.3800 C   0  0  0  0  0  0  0  0  0  0  0  0
   31.3220   46.6270   -2.6860 C   0  0  0  0  0  0  0  0  0  0  0  0
   32.2770   45.8050   -5.5450 C   0  0  0  0  0  0  0  0  0  0  0  0
   33.3650   46.3100   -5.7910 O   0  0  0  0  0  0  0  0  0  0  0  0
   31.1350   45.9880   -6.2700 O   0  0  0  0  0  0  0  0  0  0  0  0
   30.9680   47.2870   -6.8660 C   0  0  0  0  0  0  0  0  0  0  0  0
   30.1500   48.1450   -5.9060 C   0  0  0  0  0  0  0  0  0  0  0  0
   29.6340   49.4350   -6.5360 C   0  0  0  0  0  0  0  0  0  0  0  0
   28.9260   50.3250   -5.6330 N   0  0  0  0  0  0  0  0  0  0  0  0
   29.4210   51.3290   -4.8350 C   0  0  0  0  0  0  0  0  0  0  0  0
   29.9810   51.0600   -3.7760 O   0  0  0  0  0  0  0  0  0  0  0  0
   29.2840   52.7380   -5.2420 C   0  0  0  0  0  0  0  0  0  0  0  0
   29.7010   53.7990   -4.4330 C   0  0  0  0  0  0  0  0  0  0  0  0
   28.7100   52.9950   -6.4930 C   0  0  0  0  0  0  0  0  0  0  0  0
   30.2630   53.5600   -3.2090 O   0  0  0  0  0  0  0  0  0  0  0  0
   29.5460   55.1150   -4.8730 C   0  0  0  0  0  0  0  0  0  0  0  0
   28.5550   54.3100   -6.9310 C   0  0  0  0  0  0  0  0  0  0  0  0
   28.9730   55.3680   -6.1220 C   0  0  0  0  0  0  0  0  0  0  0  0
  1  2  1  0
  2  3  1  0
  3  4  2  0
  3  5  1  0
  4  6  1  0
  4  7  1  0
  5  8  2  0
  8  9  1  0
  7 10  2  0
  8 10  1  0
  9 11  1  0
 11 12  2  0
 11 13  1  0
 13 14  1  0
 14 15  1  0
 15 16  1  0
 16 17  1  0
 17 18  1  0
 18 19  2  0
 18 20  1  0
 20 21  2  0
 20 22  1  0
 21 23  1  0
 21 24  1  0
 22 25  2  0
 24 26  2  0
 25 26  1  0
M  END
