mac-x0433-mac-x0190
     RDKit          3D

 16 18  0  0  0  0  0  0  0  0999 V2000
   27.8430   51.3100   -6.0630 C   0  0  0  0  0  0  0  0  0  0  0  0
   29.1270   51.5960   -5.2920 C   0  0  1  0  0  0  0  0  0  0  0  0
   29.9850   52.8100   -5.7570 C   0  0  2  0  0  0  0  0  0  0  0  0
   28.8420   51.6780   -3.8570 N   0  0  0  0  0  0  0  0  0  0  0  0
   30.0540   51.4620   -3.1430 C   0  0  2  0  0  0  0  0  0  0  0  0
   30.8560   53.3170   -4.5490 C   0  0  2  0  0  0  0  0  0  0  0  0
   29.3630   54.0450   -6.3250 N   0  0  0  0  0  0  0  0  0  0  0  0
   29.7000   51.2850   -1.7730 N   0  0  0  0  0  0  0  0  0  0  0  0
   31.0050   52.5440   -3.2790 N   0  0  0  0  0  0  0  0  0  0  0  0
   30.2920   54.7000   -4.2860 C   0  0  2  0  0  0  0  0  0  0  0  0
   27.9200   54.1420   -6.3420 C   0  0  0  0  0  0  0  0  0  0  0  0
   29.9820   55.2040   -5.6800 C   0  0  0  0  0  0  0  0  0  0  0  0
   27.4790   55.4850   -6.4250 O   0  0  0  0  0  0  0  0  0  0  0  0
   31.2860   55.4820   -3.4560 C   0  0  0  0  0  0  0  0  0  0  0  0
   31.1370   53.4300   -2.1200 C   0  0  0  0  0  0  0  0  0  0  0  0
   31.9300   54.6270   -2.4610 N   0  0  0  0  0  0  0  0  0  0  0  0
  2  1  1  6
  2  3  1  0
  2  4  1  0
  4  5  1  0
  3  6  1  0
  3  7  1  1
  5  8  1  1
  5  9  1  0
  6  9  1  1
  6 10  1  0
  7 11  1  0
  7 12  1  0
 10 12  1  6
 11 13  1  0
 10 14  1  0
  9 15  1  0
 14 16  1  0
 15 16  1  0
M  END
