mac-x0572-mac-x0402
     RDKit          3D

 19 21  0  0  0  0  0  0  0  0999 V2000
   29.3180   56.5660   -6.7190 C   0  0  0  0  0  0  0  0  0  0  0  0
   29.5920   55.0970   -6.3860 C   0  0  2  0  0  0  0  0  0  0  0  0
   28.4560   54.2890   -6.8610 N   0  0  0  0  0  0  0  0  0  0  0  0
   29.8250   54.9180   -4.8830 C   0  0  1  0  0  0  0  0  0  0  0  0
   28.9440   55.7720   -4.1460 O   0  0  0  0  0  0  0  0  0  0  0  0
   29.5550   53.4700   -4.5080 C   0  0  0  0  0  0  0  0  0  0  0  0
   28.7290   52.8460   -6.8040 C   0  0  1  0  0  0  0  0  0  0  0  0
   29.2900   53.1730   -3.3360 O   0  0  0  0  0  0  0  0  0  0  0  0
   29.6210   52.4220   -5.6080 C   0  0  2  0  0  0  0  0  0  0  0  0
   27.4020   52.1290   -6.8210 C   0  0  0  0  0  0  0  0  0  0  0  0
   27.0400   51.1890   -5.9360 C   0  0  0  0  0  0  0  0  0  0  0  0
   29.4460   50.9310   -5.1520 C   0  0  2  0  0  0  0  0  0  0  0  0
   27.9330   50.7470   -4.8180 C   0  0  0  0  0  0  0  0  0  0  0  0
   30.3160   50.5230   -3.9250 C   0  0  0  0  0  0  0  0  0  0  0  0
   29.7610   49.9910   -6.3060 C   0  0  0  0  0  0  0  0  0  0  0  0
   30.2180   49.0200   -3.6210 C   0  0  2  0  0  0  0  0  0  0  0  0
   30.2780   48.7640   -6.1560 C   0  0  0  0  0  0  0  0  0  0  0  0
   31.2640   48.6100   -2.2260 Cl  0  0  0  0  0  0  0  0  0  0  0  0
   30.6160   48.1530   -4.8250 C   0  0  0  0  0  0  0  0  0  0  0  0
  2  1  1  1
  2  3  1  0
  2  4  1  0
  4  5  1  1
  4  6  1  0
  3  7  1  0
  6  8  2  0
  9  6  1  1
  7  9  1  0
  7 10  1  1
 10 11  2  0
  9 12  1  0
 11 13  1  0
 12 13  1  1
 12 14  1  0
 12 15  1  0
 14 16  1  0
 15 17  2  0
 16 18  1  1
 16 19  1  0
 17 19  1  0
M  END
