mac-x0379-mac-x0354
     RDKit          3D

 26 28  0  0  0  0  0  0  0  0999 V2000
   29.0750   52.3930   -5.2430 C   0  0  0  0  0  0  0  0  0  0  0  0
   29.3820   51.0540   -4.6720 C   0  0  0  0  0  0  0  0  0  0  0  0
   29.9950   50.8580   -3.5230 N   0  0  0  0  0  0  0  0  0  0  0  0
   28.9340   49.6320   -5.5250 S   0  0  0  0  0  0  0  0  0  0  0  0
   30.1220   49.5000   -3.2940 C   0  0  0  0  0  0  0  0  0  0  0  0
   29.6060   48.6730   -4.2710 C   0  0  0  0  0  0  0  0  0  0  0  0
   29.5710   47.2330   -4.3470 C   0  0  0  0  0  0  0  0  0  0  0  0
   29.1870   46.4700   -3.4700 O   0  0  0  0  0  0  0  0  0  0  0  0
   30.0360   46.8340   -5.5670 O   0  0  0  0  0  0  0  0  0  0  0  0
   30.1390   45.4140   -5.7710 C   0  0  0  0  0  0  0  0  0  0  0  0
   31.5070   44.8900   -5.3330 C   0  0  0  0  0  0  0  0  0  0  0  0
   32.5510   45.2700   -6.2910 N   0  0  0  0  0  0  0  0  0  0  0  0
   33.7650   44.9480   -6.0110 C   0  0  0  0  0  0  0  0  0  0  0  0
   34.7950   45.2530   -6.8330 O   0  0  0  0  0  0  0  0  0  0  0  0
   34.0880   44.2300   -4.7920 C   0  0  0  0  0  0  0  0  0  0  0  0
   33.6020   42.9680   -4.3720 C   0  0  0  0  0  0  0  0  0  0  0  0
   34.9460   44.6150   -3.7610 C   0  0  0  0  0  0  0  0  0  0  0  0
   34.9030   43.5890   -2.8440 N   0  0  0  0  0  0  0  0  0  0  0  0
   34.0910   42.5780   -3.1990 N   0  0  0  0  0  0  0  0  0  0  0  0
   35.7640   45.8120   -3.5700 C   0  0  0  0  0  0  0  0  0  0  0  0
   35.6210   43.5090   -1.5910 C   0  0  0  0  0  0  0  0  0  0  0  0
   37.1630   45.7180   -3.6110 C   0  0  0  0  0  0  0  0  0  0  0  0
   35.1680   47.0570   -3.3450 C   0  0  0  0  0  0  0  0  0  0  0  0
   37.9490   46.8540   -3.4290 C   0  0  0  0  0  0  0  0  0  0  0  0
   35.9570   48.1950   -3.1620 C   0  0  0  0  0  0  0  0  0  0  0  0
   37.3480   48.0930   -3.2050 C   0  0  0  0  0  0  0  0  0  0  0  0
  1  2  1  0
  2  3  2  0
  2  4  1  0
  3  5  1  0
  4  6  1  0
  5  6  2  0
  6  7  1  0
  7  8  2  0
  7  9  1  0
  9 10  1  0
 10 11  1  0
 11 12  1  0
 12 13  2  3
 13 14  1  0
 13 15  1  0
 15 16  1  0
 15 17  2  0
 17 18  1  0
 16 19  2  0
 18 19  1  0
 17 20  1  0
 18 21  1  0
 20 22  2  0
 20 23  1  0
 22 24  1  0
 23 25  2  0
 24 26  2  0
 25 26  1  0
M  END
