mac-x0565-mac-x0572
     RDKit          3D

 23 26  0  0  0  0  0  0  0  0999 V2000
   29.1850   53.5600   -2.5400 O   0  0  0  0  0  0  0  0  0  0  0  0
   29.9980   52.9150   -3.5280 C   0  0  1  0  0  0  0  0  0  0  0  0
   30.1820   51.4270   -3.2320 C   0  0  0  0  0  0  0  0  0  0  0  0
   29.4240   53.1970   -4.9130 C   0  0  0  0  0  0  0  0  0  0  0  0
   30.7360   50.5740   -4.2080 C   0  0  0  0  0  0  0  0  0  0  0  0
   29.7990   50.8770   -1.9820 C   0  0  0  0  0  0  0  0  0  0  0  0
   29.6480   54.4520   -5.5080 C   0  0  0  0  0  0  0  0  0  0  0  0
   28.6620   52.2260   -5.6320 C   0  0  0  0  0  0  0  0  0  0  0  0
   30.8810   49.2350   -3.9110 C   0  0  0  0  0  0  0  0  0  0  0  0
   29.9610   49.5150   -1.7090 C   0  0  0  0  0  0  0  0  0  0  0  0
   30.3760   55.3820   -4.8160 O   0  0  0  0  0  0  0  0  0  0  0  0
   29.1250   54.7120   -6.7740 C   0  0  0  0  0  0  0  0  0  0  0  0
   28.1830   52.5940   -6.9100 C   0  0  0  0  0  0  0  0  0  0  0  0
   28.3480   50.9200   -5.1680 C   0  0  0  0  0  0  0  0  0  0  0  0
   30.5030   48.7210   -2.6910 C   0  0  0  0  0  0  0  0  0  0  0  0
   31.3920   48.2800   -4.7330 O   0  0  0  0  0  0  0  0  0  0  0  0
   29.3190   56.0250   -7.4690 C   0  0  0  0  0  0  0  0  0  0  0  0
   28.4070   53.7970   -7.4600 N   0  0  0  0  0  0  0  0  0  0  0  0
   27.4420   51.6840   -7.6490 C   0  0  0  0  0  0  0  0  0  0  0  0
   27.6010   50.0240   -5.9290 C   0  0  0  0  0  0  0  0  0  0  0  0
   30.7300   47.3810   -2.6030 O   0  0  0  0  0  0  0  0  0  0  0  0
   31.0730   47.0950   -3.9740 C   0  0  0  0  0  0  0  0  0  0  0  0
   27.1460   50.4090   -7.1770 C   0  0  0  0  0  0  0  0  0  0  0  0
  2  1  1  1
  2  3  1  0
  2  4  1  0
  3  5  2  0
  3  6  1  0
  4  7  2  0
  4  8  1  0
  5  9  1  0
  6 10  2  0
  7 11  1  0
  7 12  1  0
  8 13  2  0
  8 14  1  0
  9 15  2  0
 10 15  1  0
  9 16  1  0
 12 17  1  0
 12 18  2  0
 13 18  1  0
 13 19  1  0
 14 20  2  0
 15 21  1  0
 16 22  1  0
 21 22  1  0
 19 23  2  0
 20 23  1  0
M  END
