mac-x0358-mac-x0159
     RDKit          3D

 29 32  0  0  0  0  0  0  0  0999 V2000
   33.0430   45.0460   -7.0220 O   0  0  0  0  0  0  0  0  0  0  0  0
   33.4270   45.3780   -5.7670 C   0  0  0  0  0  0  0  0  0  0  0  0
   34.5850   45.7090   -5.5770 O   0  0  0  0  0  0  0  0  0  0  0  0
   32.2830   45.2720   -4.7600 C   0  0  2  0  0  0  0  0  0  0  0  0
   30.9710   45.8360   -5.3370 C   0  0  0  0  0  0  0  0  0  0  0  0
   32.5170   45.9880   -3.4220 C   0  0  0  0  0  0  0  0  0  0  0  0
   30.1870   46.8450   -4.4540 C   0  0  1  0  0  0  0  0  0  0  0  0
   33.5600   46.8960   -3.1780 C   0  0  0  0  0  0  0  0  0  0  0  0
   31.6170   45.7220   -2.3740 C   0  0  0  0  0  0  0  0  0  0  0  0
   34.4530   47.1760   -4.1700 O   0  0  0  0  0  0  0  0  0  0  0  0
   33.6960   47.5190   -1.9350 C   0  0  0  0  0  0  0  0  0  0  0  0
   31.7490   46.3430   -1.1340 C   0  0  0  0  0  0  0  0  0  0  0  0
   29.6890   48.1360   -4.9830 N   0  0  0  0  0  0  0  0  0  0  0  0
   29.2070   46.1470   -3.5110 C   0  0  0  0  0  0  0  0  0  0  0  0
   32.7880   47.2420   -0.9140 C   0  0  0  0  0  0  0  0  0  0  0  0
   29.2620   49.1450   -4.0110 C   0  0  0  0  0  0  0  0  0  0  0  0
   28.7910   48.0860   -6.1120 C   0  0  1  0  0  0  0  0  0  0  0  0
   28.4720   45.0200   -3.8340 C   0  0  0  0  0  0  0  0  0  0  0  0
   28.9920   46.6090   -2.2150 N   0  0  0  0  0  0  0  0  0  0  0  0
   29.1750   50.4640   -4.6470 N   0  0  0  0  0  0  0  0  0  0  0  0
   28.8140   49.4390   -6.8060 C   0  0  2  0  0  0  0  0  0  0  0  0
   29.2310   47.2410   -7.2190 N   0  0  0  0  0  0  0  0  0  0  0  0
   28.1220   45.8410   -1.5960 C   0  0  0  0  0  0  0  0  0  0  0  0
   27.5050   44.5300   -2.5130 S   0  0  0  0  0  0  0  0  0  0  0  0
   27.6680   46.0460   -0.1950 C   0  0  0  0  0  0  0  0  0  0  0  0
   28.2800   50.4540   -5.7840 C   0  0  2  0  0  0  0  0  0  0  0  0
   28.1020   49.1680   -8.0620 N   0  0  0  0  0  0  0  0  0  0  0  0
   28.5490   47.8060   -8.3890 C   0  0  0  0  0  0  0  0  0  0  0  0
   28.3100   51.8140   -6.2740 N   0  0  0  0  0  0  0  0  0  0  0  0
  1  2  1  0
  2  3  2  0
  2  4  1  0
  4  5  1  6
  4  6  1  0
  7  5  1  6
  6  8  2  0
  6  9  1  0
  8 10  1  0
  8 11  1  0
  9 12  2  0
  7 13  1  0
  7 14  1  0
 11 15  2  0
 12 15  1  0
 13 16  1  0
 13 17  1  0
 14 18  2  0
 14 19  1  0
 16 20  1  0
 17 21  1  0
 17 22  1  6
 19 23  2  0
 18 24  1  0
 23 24  1  0
 23 25  1  0
 20 26  1  0
 21 26  1  0
 21 27  1  6
 22 28  1  0
 27 28  1  0
 26 29  1  6
M  END
