mac-x0124-mac-x0415
     RDKit          3D

 26 29  0  0  0  0  0  0  0  0999 V2000
   29.6680   45.9990   -6.3600 C   0  0  0  0  0  0  0  0  0  0  0  0
   29.7220   47.4350   -6.1960 N   0  0  0  0  0  0  0  0  0  0  0  0
   30.6620   48.1370   -5.4560 C   0  0  0  0  0  0  0  0  0  0  0  0
   28.8280   48.3070   -6.7660 C   0  0  0  0  0  0  0  0  0  0  0  0
   31.7850   47.5050   -4.7000 C   0  0  0  0  0  0  0  0  0  0  0  0
   30.3380   49.4780   -5.5710 C   0  0  0  0  0  0  0  0  0  0  0  0
   29.1850   49.5970   -6.3940 C   0  0  0  0  0  0  0  0  0  0  0  0
   27.7860   47.9680   -7.5490 N   0  0  0  0  0  0  0  0  0  0  0  0
   32.4680   46.5460   -5.5600 N   0  0  0  0  0  0  0  0  0  0  0  0
   28.3860   50.6390   -6.8810 C   0  0  0  0  0  0  0  0  0  0  0  0
   27.0980   49.0490   -7.9510 C   0  0  0  0  0  0  0  0  0  0  0  0
   28.6160   51.9800   -6.5970 N   0  0  0  0  0  0  0  0  0  0  0  0
   33.0230   45.5330   -5.0030 C   0  0  0  0  0  0  0  0  0  0  0  0
   27.3330   50.3460   -7.6670 N   0  0  0  0  0  0  0  0  0  0  0  0
   33.6440   44.6740   -5.8280 O   0  0  0  0  0  0  0  0  0  0  0  0
   33.1100   45.1260   -3.5520 C   0  0  0  0  0  0  0  0  0  0  0  0
   31.7550   44.8440   -3.0210 C   0  0  0  0  0  0  0  0  0  0  0  0
   30.9520   43.6520   -3.3420 C   0  0  0  0  0  0  0  0  0  0  0  0
   30.9230   45.4880   -2.2030 C   0  0  0  0  0  0  0  0  0  0  0  0
   29.7650   43.5300   -2.8120 N   0  0  0  0  0  0  0  0  0  0  0  0
   29.6450   44.7420   -1.9840 C   0  0  2  0  0  0  0  0  0  0  0  0
   31.0370   46.7460   -1.5200 C   0  0  0  0  0  0  0  0  0  0  0  0
   28.5090   45.6640   -2.2930 C   0  0  0  0  0  0  0  0  0  0  0  0
   29.9080   47.4840   -1.4300 C   0  0  0  0  0  0  0  0  0  0  0  0
   29.8690   49.1440   -0.5770 Br  0  0  0  0  0  0  0  0  0  0  0  0
   28.6570   46.9800   -2.0190 C   0  0  0  0  0  0  0  0  0  0  0  0
  1  2  1  0
  2  3  1  0
  2  4  1  0
  3  5  1  0
  3  6  2  0
  4  7  2  0
  6  7  1  0
  4  8  1  0
  5  9  1  0
  7 10  1  0
  8 11  2  0
 10 12  1  0
  9 13  2  3
 10 14  2  0
 11 14  1  0
 13 15  1  0
 13 16  1  0
 16 17  1  0
 17 18  1  0
 17 19  2  0
 18 20  2  0
 19 21  1  0
 20 21  1  0
 19 22  1  0
 21 23  1  6
 22 24  2  0
 24 25  1  0
 23 26  2  0
 24 26  1  0
M  END
