mac-x0451-mac-x0365
     RDKit          3D

 15 16  0  0  0  0  0  0  0  0999 V2000
   28.5280   54.1920   -8.1110 N   0  0  0  0  0  0  0  0  0  0  0  0
   29.0900   53.1530   -7.4600 C   0  0  0  0  0  0  0  0  0  0  0  0
   29.5390   53.2140   -6.2460 N   0  0  0  0  0  0  0  0  0  0  0  0
   29.2060   51.6360   -8.3330 S   0  0  0  0  0  0  0  0  0  0  0  0
   30.0910   51.8760   -5.8630 C   0  0  2  0  0  0  0  0  0  0  0  0
   29.5720   50.8710   -6.8430 C   0  0  0  0  0  0  0  0  0  0  0  0
   29.7630   51.4510   -4.4030 C   0  0  2  0  0  0  0  0  0  0  0  0
   29.4300   49.5700   -6.5510 C   0  0  0  0  0  0  0  0  0  0  0  0
   28.4260   51.7920   -4.0800 O   0  0  0  0  0  0  0  0  0  0  0  0
   30.5280   52.1390   -3.5170 F   0  0  0  0  0  0  0  0  0  0  0  0
   29.9520   49.9710   -4.2030 C   0  0  0  0  0  0  0  0  0  0  0  0
   29.7930   49.1030   -5.2230 C   0  0  0  0  0  0  0  0  0  0  0  0
   29.9620   47.7200   -5.0790 O   0  0  0  0  0  0  0  0  0  0  0  0
   30.0680   47.3030   -3.7810 C   0  0  0  0  0  0  0  0  0  0  0  0
   30.9890   46.6990   -3.2550 O   0  0  0  0  0  0  0  0  0  0  0  0
  1  2  1  0
  2  3  2  0
  2  4  1  0
  5  3  1  6
  4  6  1  0
  5  6  1  0
  5  7  1  0
  6  8  2  0
  7  9  1  1
  7 10  1  0
  7 11  1  0
  8 12  1  0
 11 12  2  0
 12 13  1  0
 13 14  1  0
 14 15  2  0
M  END
