mac-x0137-mac-x0142
     RDKit          3D

 18 21  0  0  0  0  0  0  0  0999 V2000
   31.6670   49.7720   -3.4050 F   0  0  0  0  0  0  0  0  0  0  0  0
   31.2510   48.5160   -3.0600 C   0  0  2  0  0  0  0  0  0  0  0  0
   32.3790   47.5370   -3.3620 C   0  0  0  0  0  0  0  0  0  0  0  0
   29.9500   48.1780   -3.8100 C   0  0  0  0  0  0  0  0  0  0  0  0
   30.1580   47.9480   -5.2530 N   0  0  0  0  0  0  0  0  0  0  0  0
   32.5830   47.3730   -4.8700 C   0  0  0  0  0  0  0  0  0  0  0  0
   31.2790   47.0230   -5.5730 C   0  0  0  0  0  0  0  0  0  0  0  0
   29.2360   48.3610   -6.2140 C   0  0  0  0  0  0  0  0  0  0  0  0
   28.6360   47.4200   -7.0440 N   0  0  0  0  0  0  0  0  0  0  0  0
   28.8470   49.6310   -6.4330 C   0  0  0  0  0  0  0  0  0  0  0  0
   31.0560   45.5790   -5.9760 C   0  0  0  0  0  0  0  0  0  0  0  0
   31.4020   46.5820   -7.0270 C   0  0  0  0  0  0  0  0  0  0  0  0
   27.7270   47.7610   -8.0070 C   0  0  0  0  0  0  0  0  0  0  0  0
   27.8510   49.9310   -7.4950 C   0  0  0  0  0  0  0  0  0  0  0  0
   29.1340   50.9220   -5.8940 C   0  0  0  0  0  0  0  0  0  0  0  0
   27.3070   48.9530   -8.2740 N   0  0  0  0  0  0  0  0  0  0  0  0
   27.5810   51.2070   -7.5800 N   0  0  0  0  0  0  0  0  0  0  0  0
   28.3740   51.7800   -6.5950 C   0  0  0  0  0  0  0  0  0  0  0  0
  2  1  1  6
  2  3  1  0
  2  4  1  0
  4  5  1  0
  3  6  1  0
  7  5  1  0
  6  7  1  0
  5  8  1  0
  8  9  1  0
  8 10  2  0
  7 11  1  0
  7 12  1  0
 11 12  1  0
  9 13  1  0
 10 14  1  0
 10 15  1  0
 13 16  2  0
 14 16  1  0
 14 17  2  0
 15 18  2  0
 17 18  1  0
M  END
