mac-x0338-mac-x0396
     RDKit          3D

 17 18  0  0  0  0  0  0  0  0999 V2000
   28.3220   51.6100   -6.6760 N   0  0  0  0  0  0  0  0  0  0  0  0
   29.6800   51.3910   -6.7400 C   0  0  0  0  0  0  0  0  0  0  0  0
   30.3490   51.8710   -7.6540 O   0  0  0  0  0  0  0  0  0  0  0  0
   27.7200   51.9600   -5.4820 C   0  0  0  0  0  0  0  0  0  0  0  0
   26.8020   51.3490   -4.9490 O   0  0  0  0  0  0  0  0  0  0  0  0
   30.3030   50.5600   -5.6710 C   0  0  0  0  0  0  0  0  0  0  0  0
   28.2670   53.1820   -4.8320 C   0  0  0  0  0  0  0  0  0  0  0  0
   30.0930   49.2110   -5.7120 N   0  0  0  0  0  0  0  0  0  0  0  0
   31.0640   51.1630   -4.6790 C   0  0  0  0  0  0  0  0  0  0  0  0
   28.3520   53.2290   -3.4450 C   0  0  0  0  0  0  0  0  0  0  0  0
   28.7030   54.2960   -5.5500 C   0  0  0  0  0  0  0  0  0  0  0  0
   30.6790   48.5140   -4.7130 C   0  0  0  0  0  0  0  0  0  0  0  0
   31.6500   50.4550   -3.6790 N   0  0  0  0  0  0  0  0  0  0  0  0
   28.8350   54.2940   -2.7550 N   0  0  0  0  0  0  0  0  0  0  0  0
   29.2030   55.3990   -4.8640 C   0  0  0  0  0  0  0  0  0  0  0  0
   31.4390   49.1200   -3.7210 C   0  0  0  0  0  0  0  0  0  0  0  0
   29.2500   55.3540   -3.4810 C   0  0  0  0  0  0  0  0  0  0  0  0
  1  2  1  0
  2  3  2  0
  1  4  1  0
  4  5  2  0
  2  6  1  0
  4  7  1  0
  6  8  2  0
  6  9  1  0
  7 10  2  0
  7 11  1  0
  8 12  1  0
  9 13  2  0
 10 14  1  0
 11 15  2  0
 12 16  2  0
 13 16  1  0
 14 17  2  0
 15 17  1  0
M  END
