mac-x0190-mac-x0301
     RDKit          3D

 21 24  0  0  0  0  0  0  0  0999 V2000
   28.5170   56.8360   -5.6590 O   0  0  0  0  0  0  0  0  0  0  0  0
   29.2720   56.2820   -4.5930 C   0  0  0  0  0  0  0  0  0  0  0  0
   29.2910   54.8130   -4.7880 C   0  0  0  0  0  0  0  0  0  0  0  0
   29.6880   53.9720   -3.7840 N   0  0  0  0  0  0  0  0  0  0  0  0
   28.9610   54.1370   -5.8720 N   0  0  0  0  0  0  0  0  0  0  0  0
   29.6230   52.6890   -4.2510 C   0  0  0  0  0  0  0  0  0  0  0  0
   29.1680   52.8170   -5.5550 C   0  0  0  0  0  0  0  0  0  0  0  0
   29.9210   51.4660   -3.6610 C   0  0  0  0  0  0  0  0  0  0  0  0
   28.9920   51.6690   -6.3390 C   0  0  0  0  0  0  0  0  0  0  0  0
   29.7670   50.3150   -4.4530 C   0  0  0  0  0  0  0  0  0  0  0  0
   29.3020   50.4120   -5.7910 C   0  0  0  0  0  0  0  0  0  0  0  0
   29.1820   49.2260   -6.5250 C   0  0  0  0  0  0  0  0  0  0  0  0
   30.0860   49.0510   -3.9320 C   0  0  0  0  0  0  0  0  0  0  0  0
   29.9720   47.8810   -4.6970 C   0  0  0  0  0  0  0  0  0  0  0  0
   29.5110   47.9950   -5.9990 C   0  0  0  0  0  0  0  0  0  0  0  0
   28.7460   49.1330   -7.8210 O   0  0  0  0  0  0  0  0  0  0  0  0
   30.3740   46.6240   -4.0350 C   0  0  0  0  0  0  0  0  0  0  0  0
   29.3270   46.9980   -6.9110 O   0  0  0  0  0  0  0  0  0  0  0  0
   28.9470   47.7340   -8.0820 C   0  0  0  0  0  0  0  0  0  0  0  0
   30.0540   45.5060   -4.6990 O   0  0  0  0  0  0  0  0  0  0  0  0
   30.9680   46.5700   -2.9710 O   0  0  0  0  0  0  0  0  0  0  0  0
  1  2  1  0
  2  3  1  0
  3  4  1  0
  3  5  2  0
  4  6  1  0
  5  7  1  0
  6  7  2  0
  6  8  1  0
  7  9  1  0
  8 10  2  0
  9 11  2  0
 10 11  1  0
 11 12  1  0
 10 13  1  0
 13 14  2  0
 12 15  2  0
 14 15  1  0
 12 16  1  0
 14 17  1  0
 15 18  1  0
 16 19  1  0
 18 19  1  0
 17 20  1  0
 17 21  2  0
M  END
