mac-x0412-mac-x0124
     RDKit          3D

 21 24  0  0  0  0  0  0  0  0999 V2000
   28.3470   54.7220   -4.3820 O   0  0  0  0  0  0  0  0  0  0  0  0
   28.7500   53.8620   -5.1600 C   0  0  0  0  0  0  0  0  0  0  0  0
   28.0570   53.5800   -6.3300 N   0  0  0  0  0  0  0  0  0  0  0  0
   30.0440   53.0580   -4.8750 C   0  0  2  0  0  0  0  0  0  0  0  0
   29.9190   51.6320   -5.3980 C   0  0  0  0  0  0  0  0  0  0  0  0
   28.1930   52.4030   -6.8540 C   0  0  0  0  0  0  0  0  0  0  0  0
   30.3870   53.0620   -3.3990 C   0  0  0  0  0  0  0  0  0  0  0  0
   29.0320   51.2940   -6.3380 C   0  0  0  0  0  0  0  0  0  0  0  0
   30.8270   50.6630   -4.7960 C   0  0  0  0  0  0  0  0  0  0  0  0
   30.9840   52.0160   -2.8030 C   0  0  0  0  0  0  0  0  0  0  0  0
   31.3230   50.8470   -3.5710 C   0  0  0  0  0  0  0  0  0  0  0  0
   28.8930   49.9280   -6.8220 C   0  0  0  0  0  0  0  0  0  0  0  0
   29.0140   48.8900   -5.8980 C   0  0  0  0  0  0  0  0  0  0  0  0
   28.6630   49.6630   -8.1270 N   0  0  0  0  0  0  0  0  0  0  0  0
   29.2440   48.7670   -4.4960 C   0  0  0  0  0  0  0  0  0  0  0  0
   28.8910   47.6070   -6.4000 C   0  0  0  0  0  0  0  0  0  0  0  0
   28.5620   48.3620   -8.4760 C   0  0  0  0  0  0  0  0  0  0  0  0
   29.0430   46.7310   -5.3520 N   0  0  0  0  0  0  0  0  0  0  0  0
   29.2580   47.4260   -4.1900 C   0  0  0  0  0  0  0  0  0  0  0  0
   28.6630   47.2760   -7.6840 N   0  0  0  0  0  0  0  0  0  0  0  0
   28.9840   45.2940   -5.4660 C   0  0  0  0  0  0  0  0  0  0  0  0
  1  2  2  0
  2  3  1  0
  2  4  1  0
  4  5  1  0
  3  6  2  0
  4  7  1  1
  5  8  2  0
  6  8  1  0
  5  9  1  0
  7 10  2  0
  9 11  2  0
 10 11  1  0
  8 12  1  0
 12 13  1  0
 12 14  2  0
 13 15  1  0
 13 16  2  0
 14 17  1  0
 16 18  1  0
 15 19  2  0
 18 19  1  0
 16 20  1  0
 17 20  2  0
 18 21  1  0
M  END
