mac-x1493-mac-x0455
     RDKit          3D

 22 24  0  0  0  0  0  0  0  0999 V2000
   29.5330   47.7470   -5.6550 C   0  0  0  0  0  0  0  0  0  0  0  0
   30.2070   48.6300   -4.6050 C   0  0  0  0  0  0  0  0  0  0  0  0
   31.0170   48.1570   -3.7130 N   0  0  0  0  0  0  0  0  0  0  0  0
   28.4630   47.1950   -5.5020 O   0  0  0  0  0  0  0  0  0  0  0  0
   30.2660   47.6460   -6.7670 O   0  0  0  0  0  0  0  0  0  0  0  0
   29.9150   50.0890   -4.6200 C   0  0  0  0  0  0  0  0  0  0  0  0
   31.3090   46.7220   -3.6990 C   0  0  0  0  0  0  0  0  0  0  0  0
   29.3350   50.6920   -5.7380 C   0  0  0  0  0  0  0  0  0  0  0  0
   30.2020   50.9070   -3.5360 C   0  0  0  0  0  0  0  0  0  0  0  0
   29.0660   52.0720   -5.7350 C   0  0  0  0  0  0  0  0  0  0  0  0
   29.9560   52.2410   -3.4990 N   0  0  0  0  0  0  0  0  0  0  0  0
   32.7790   46.4920   -3.4440 C   0  0  0  0  0  0  0  0  0  0  0  0
   29.3990   52.8130   -4.5800 C   0  0  0  0  0  0  0  0  0  0  0  0
   28.4840   52.7100   -6.8440 C   0  0  0  0  0  0  0  0  0  0  0  0
   33.6580   47.5760   -3.3100 C   0  0  0  0  0  0  0  0  0  0  0  0
   33.2900   45.1880   -3.3380 C   0  0  0  0  0  0  0  0  0  0  0  0
   29.1350   54.1760   -4.5780 C   0  0  0  0  0  0  0  0  0  0  0  0
   28.2290   54.0820   -6.8130 C   0  0  0  0  0  0  0  0  0  0  0  0
   35.0160   47.3650   -3.0750 C   0  0  0  0  0  0  0  0  0  0  0  0
   34.6490   44.9790   -3.1030 C   0  0  0  0  0  0  0  0  0  0  0  0
   28.5560   54.8140   -5.6780 C   0  0  0  0  0  0  0  0  0  0  0  0
   35.5130   46.0650   -2.9710 C   0  0  0  0  0  0  0  0  0  0  0  0
  1  2  1  0
  2  3  2  3
  1  4  2  0
  1  5  1  0
  2  6  1  0
  3  7  1  0
  6  8  2  0
  6  9  1  0
  8 10  1  0
  9 11  2  0
  7 12  1  0
 10 13  2  0
 11 13  1  0
 10 14  1  0
 12 15  2  0
 12 16  1  0
 13 17  1  0
 14 18  2  0
 15 19  1  0
 16 20  2  0
 17 21  2  0
 18 21  1  0
 19 22  2  0
 20 22  1  0
M  END
