mac-x0123-mac-x0131
     RDKit          3D

 25 29  0  0  0  0  0  0  0  0999 V2000
   28.5980   51.1300   -6.4330 N   0  0  0  0  0  0  0  0  0  0  0  0
   29.4830   52.1470   -5.8820 C   0  0  1  0  0  0  0  0  0  0  0  0
   28.7050   53.4330   -5.5300 C   0  0  1  0  0  0  0  0  0  0  0  0
   29.2500   49.8810   -6.6970 C   0  0  1  0  0  0  0  0  0  0  0  0
   30.4490   51.8810   -4.6680 C   0  0  1  0  0  0  0  0  0  0  0  0
   29.8560   48.9770   -5.5810 C   0  0  1  0  0  0  0  0  0  0  0  0
   28.4130   49.1720   -7.6370 N   0  0  0  0  0  0  0  0  0  0  0  0
   30.4760   53.1190   -3.8790 N   0  0  0  0  0  0  0  0  0  0  0  0
   29.3530   53.9900   -4.2550 C   0  0  1  0  0  0  0  0  0  0  0  0
   28.8430   54.5510   -6.5310 C   0  0  0  0  0  0  0  0  0  0  0  0
   30.4080   50.7730   -3.6910 N   0  0  0  0  0  0  0  0  0  0  0  0
   30.1800   49.3170   -4.0580 C   0  0  1  0  0  0  0  0  0  0  0  0
   28.9380   47.9010   -8.0710 C   0  0  0  0  0  0  0  0  0  0  0  0
   29.1040   47.6410   -5.6790 C   0  0  0  0  0  0  0  0  0  0  0  0
   28.8930   48.9480   -3.2530 C   0  0  0  0  0  0  0  0  0  0  0  0
   29.6070   51.2580   -2.5750 C   0  0  0  0  0  0  0  0  0  0  0  0
   31.1470   48.2360   -3.3650 C   0  0  0  0  0  0  0  0  0  0  0  0
   29.7380   55.4560   -4.5600 C   0  0  0  0  0  0  0  0  0  0  0  0
   29.3990   55.6450   -6.0030 C   0  0  0  0  0  0  0  0  0  0  0  0
   29.3360   47.0330   -6.9850 N   0  0  0  0  0  0  0  0  0  0  0  0
   32.0710   47.3180   -4.1460 C   0  0  0  0  0  0  0  0  0  0  0  0
   31.9620   46.1240   -4.8520 C   0  0  0  0  0  0  0  0  0  0  0  0
   33.3630   47.7350   -4.1780 O   0  0  0  0  0  0  0  0  0  0  0  0
   34.0790   46.8300   -4.8880 C   0  0  0  0  0  0  0  0  0  0  0  0
   33.2680   45.8170   -5.3280 C   0  0  0  0  0  0  0  0  0  0  0  0
  2  1  1  1
  2  3  1  0
  4  1  1  1
  2  5  1  0
  4  6  1  0
  4  7  1  0
  5  8  1  1
  3  9  1  0
  8  9  1  0
  3 10  1  6
  5 11  1  0
  6 12  1  0
 11 12  1  0
  7 13  1  0
  6 14  1  1
 12 15  1  1
 11 16  1  0
 12 17  1  0
  9 18  1  6
 10 19  2  0
 18 19  1  0
 13 20  1  0
 14 20  1  0
 17 21  1  0
 21 22  2  0
 21 23  1  0
 23 24  1  0
 22 25  1  0
 24 25  2  0
M  END
