mac-x0338-mac-x0337
     RDKit          3D

 19 20  0  0  0  0  0  0  0  0999 V2000
   27.6230   51.6410   -6.5900 N   0  0  0  0  0  0  0  0  0  0  0  0
   28.9920   51.6310   -6.0310 C   0  0  2  0  0  0  0  0  0  0  0  0
   29.4070   52.9970   -6.2140 O   0  0  0  0  0  0  0  0  0  0  0  0
   30.2510   50.4150   -6.8600 S   0  0  0  0  0  0  0  0  0  0  0  0
   29.0620   51.2460   -4.5500 C   0  0  0  0  0  0  0  0  0  0  0  0
   30.0790   49.0530   -6.3850 O   0  0  0  0  0  0  0  0  0  0  0  0
   30.2450   50.6720   -8.2940 O   0  0  0  0  0  0  0  0  0  0  0  0
   28.8000   49.9540   -4.1980 N   0  0  0  0  0  0  0  0  0  0  0  0
   29.3870   52.1750   -3.5580 C   0  0  0  0  0  0  0  0  0  0  0  0
   31.8410   50.9650   -6.2600 C   0  0  0  0  0  0  0  0  0  0  0  0
   28.8750   49.6460   -2.8860 C   0  0  0  0  0  0  0  0  0  0  0  0
   29.4610   51.8710   -2.2400 N   0  0  0  0  0  0  0  0  0  0  0  0
   32.7310   50.0330   -5.7220 C   0  0  0  0  0  0  0  0  0  0  0  0
   32.1860   52.3180   -6.3310 C   0  0  0  0  0  0  0  0  0  0  0  0
   29.1980   50.5840   -1.9250 C   0  0  0  0  0  0  0  0  0  0  0  0
   33.9750   50.4580   -5.2520 C   0  0  0  0  0  0  0  0  0  0  0  0
   33.4320   52.7360   -5.8590 C   0  0  0  0  0  0  0  0  0  0  0  0
   34.3330   51.8100   -5.3170 C   0  0  0  0  0  0  0  0  0  0  0  0
   35.6730   52.2640   -4.8110 C   0  0  0  0  0  0  0  0  0  0  0  0
  2  1  1  6
  2  3  1  0
  2  4  1  0
  2  5  1  0
  4  6  2  0
  4  7  2  0
  5  8  2  0
  5  9  1  0
  4 10  1  0
  8 11  1  0
  9 12  2  0
 10 13  2  0
 10 14  1  0
 11 15  2  0
 12 15  1  0
 13 16  1  0
 14 17  2  0
 16 18  2  0
 17 18  1  0
 18 19  1  0
M  END
