mac-x0213-mac-x0179
     RDKit          3D

 25 28  0  0  0  0  0  0  0  0999 V2000
   32.7310   46.7720   -5.8700 N   0  0  0  0  0  0  0  0  0  0  0  0
   31.6700   45.8910   -5.9070 C   0  0  0  0  0  0  0  0  0  0  0  0
   31.2530   45.3640   -6.9340 O   0  0  0  0  0  0  0  0  0  0  0  0
   33.6670   46.5520   -4.9960 C   0  0  0  0  0  0  0  0  0  0  0  0
   33.6500   45.3830   -4.0250 C   0  0  0  0  0  0  0  0  0  0  0  0
   31.0560   45.6390   -4.5300 C   0  0  0  0  0  0  0  0  0  0  0  0
   31.0270   46.9040   -3.6480 C   0  0  0  0  0  0  0  0  0  0  0  0
   29.5960   45.1670   -4.6210 C   0  0  0  0  0  0  0  0  0  0  0  0
   34.2930   45.7120   -2.7760 N   0  0  0  0  0  0  0  0  0  0  0  0
   29.9080   46.5600   -2.7150 C   0  0  0  0  0  0  0  0  0  0  0  0
   29.0930   45.5700   -3.2690 C   0  0  0  0  0  0  0  0  0  0  0  0
   34.8970   44.7750   -1.9890 C   0  0  0  0  0  0  0  0  0  0  0  0
   34.7270   46.9670   -2.4550 C   0  0  0  0  0  0  0  0  0  0  0  0
   34.5590   43.6340   -1.7420 O   0  0  0  0  0  0  0  0  0  0  0  0
   34.2180   48.0480   -2.6780 O   0  0  0  0  0  0  0  0  0  0  0  0
   29.6420   47.0910   -1.4660 C   0  0  0  0  0  0  0  0  0  0  0  0
   27.9910   45.0850   -2.5850 C   0  0  0  0  0  0  0  0  0  0  0  0
   36.0980   45.4240   -1.4600 C   0  0  0  0  0  0  0  0  0  0  0  0
   35.9920   46.7740   -1.7480 C   0  0  0  0  0  0  0  0  0  0  0  0
   28.5310   46.6130   -0.7670 C   0  0  0  0  0  0  0  0  0  0  0  0
   27.7120   45.6150   -1.3240 C   0  0  0  0  0  0  0  0  0  0  0  0
   37.1850   44.9010   -0.7930 C   0  0  0  0  0  0  0  0  0  0  0  0
   36.9680   47.6790   -1.3840 C   0  0  0  0  0  0  0  0  0  0  0  0
   38.1900   45.7960   -0.4100 C   0  0  0  0  0  0  0  0  0  0  0  0
   38.0820   47.1730   -0.7040 C   0  0  0  0  0  0  0  0  0  0  0  0
  1  2  1  0
  2  3  2  0
  1  4  2  3
  4  5  1  0
  2  6  1  0
  6  7  1  0
  6  8  1  0
  5  9  1  0
  7 10  1  0
  8 11  1  0
 10 11  2  0
  9 12  1  0
  9 13  1  0
 12 14  2  0
 13 15  2  0
 10 16  1  0
 11 17  1  0
 12 18  1  0
 13 19  1  0
 18 19  2  0
 16 20  2  0
 17 21  2  0
 20 21  1  0
 18 22  1  0
 19 23  1  0
 22 24  2  0
 23 25  2  0
 24 25  1  0
M  END
