mac-x0161-mac-x0255
     RDKit          3D

 31 35  0  0  0  0  0  0  0  0999 V2000
   28.0070   52.8830   -5.5380 N   0  0  0  0  0  0  0  0  0  0  0  0
   27.9340   51.6030   -4.8660 C   0  0  1  0  0  0  0  0  0  0  0  0
   27.5120   50.4140   -5.7590 C   0  0  2  0  0  0  0  0  0  0  0  0
   29.2720   51.4120   -4.3400 N   0  0  0  0  0  0  0  0  0  0  0  0
   29.4040   50.1700   -3.5680 C   0  0  0  0  0  0  0  0  0  0  0  0
   28.6360   49.4000   -5.7020 C   0  0  1  0  0  0  0  0  0  0  0  0
   27.3490   50.5950   -7.2170 N   0  0  0  0  0  0  0  0  0  0  0  0
   29.0040   48.9840   -4.3530 N   0  0  0  0  0  0  0  0  0  0  0  0
   28.1530   48.4280   -6.6750 N   0  0  0  0  0  0  0  0  0  0  0  0
   27.6530   49.2660   -7.7650 C   0  0  0  0  0  0  0  0  0  0  0  0
   29.9750   47.8580   -4.3060 C   0  0  1  0  0  0  0  0  0  0  0  0
   31.4100   48.1640   -3.9620 C   0  0  0  0  0  0  0  0  0  0  0  0
   29.5780   46.6220   -3.4940 C   0  0  0  0  0  0  0  0  0  0  0  0
   32.1830   48.0930   -2.8270 C   0  0  0  0  0  0  0  0  0  0  0  0
   32.1810   48.6150   -4.9960 O   0  0  0  0  0  0  0  0  0  0  0  0
   30.1800   45.3990   -3.8220 C   0  0  0  0  0  0  0  0  0  0  0  0
   28.6420   46.6180   -2.4300 C   0  0  0  0  0  0  0  0  0  0  0  0
   33.4730   48.8430   -4.5500 N   0  0  0  0  0  0  0  0  0  0  0  0
   33.4480   48.5240   -3.2540 C   0  0  0  0  0  0  0  0  0  0  0  0
   29.9020   44.2080   -3.1650 C   0  0  0  0  0  0  0  0  0  0  0  0
   31.3410   45.1760   -5.0730 S   0  0  0  0  0  0  0  0  0  0  0  0
   28.3390   45.4440   -1.7480 C   0  0  0  0  0  0  0  0  0  0  0  0
   34.5500   48.6200   -2.4800 O   0  0  0  0  0  0  0  0  0  0  0  0
   31.4880   43.5210   -4.7670 C   0  0  0  0  0  0  0  0  0  0  0  0
   30.6690   43.1240   -3.7250 C   0  0  0  0  0  0  0  0  0  0  0  0
   28.9600   44.2420   -2.1080 C   0  0  0  0  0  0  0  0  0  0  0  0
   34.6660   47.6000   -1.4970 C   0  0  0  0  0  0  0  0  0  0  0  0
   32.4340   42.7280   -5.6170 C   0  0  0  0  0  0  0  0  0  0  0  0
   32.9420   43.5750   -6.7670 C   0  0  0  0  0  0  0  0  0  0  0  0
   31.9700   43.8390   -7.6710 O   0  0  0  0  0  0  0  0  0  0  0  0
   34.0650   44.0160   -6.9510 O   0  0  0  0  0  0  0  0  0  0  0  0
  2  1  1  6
  2  3  1  0
  2  4  1  0
  4  5  1  0
  3  6  1  0
  3  7  1  6
  5  8  1  0
  6  8  1  0
  6  9  1  6
  7 10  1  0
  9 10  1  0
  8 11  1  0
 11 12  1  1
 11 13  1  0
 12 14  2  0
 12 15  1  0
 13 16  1  0
 13 17  2  0
 15 18  1  0
 14 19  1  0
 18 19  2  0
 16 20  2  0
 16 21  1  0
 17 22  1  0
 19 23  1  0
 21 24  1  0
 20 25  1  0
 24 25  2  0
 20 26  1  0
 22 26  2  0
 23 27  1  0
 24 28  1  0
 28 29  1  0
 29 30  1  0
 29 31  2  0
M  END
