mac-x0303-mac-x0271
     RDKit          3D

 14 15  0  0  0  0  0  0  0  0999 V2000
   30.4410   56.3590   -6.7360 N   0  0  0  0  0  0  0  0  0  0  0  0
   29.1450   56.0330   -5.7110 S   0  0  0  0  0  0  0  0  0  0  0  0
   27.9180   56.1770   -6.4550 O   0  0  0  0  0  0  0  0  0  0  0  0
   29.3880   56.7130   -4.4600 O   0  0  0  0  0  0  0  0  0  0  0  0
   29.2420   54.3120   -5.3320 C   0  0  0  0  0  0  0  0  0  0  0  0
   29.6130   53.8410   -4.1010 N   0  0  0  0  0  0  0  0  0  0  0  0
   28.9760   53.3270   -6.1730 N   0  0  0  0  0  0  0  0  0  0  0  0
   29.5850   52.4690   -4.1520 C   0  0  0  0  0  0  0  0  0  0  0  0
   29.1850   52.1780   -5.4520 C   0  0  0  0  0  0  0  0  0  0  0  0
   29.8690   51.4860   -3.2040 C   0  0  0  0  0  0  0  0  0  0  0  0
   29.0520   50.8380   -5.8470 C   0  0  0  0  0  0  0  0  0  0  0  0
   29.7310   50.1640   -3.6230 C   0  0  0  0  0  0  0  0  0  0  0  0
   29.3300   49.8310   -4.9150 C   0  0  0  0  0  0  0  0  0  0  0  0
   30.0090   49.1950   -2.7070 O   0  0  0  0  0  0  0  0  0  0  0  0
  2  1  1  0
  2  3  2  0
  2  4  2  0
  2  5  1  0
  5  6  1  0
  5  7  2  0
  6  8  1  0
  7  9  1  0
  8  9  2  0
  8 10  1  0
  9 11  1  0
 10 12  2  0
 11 13  2  0
 12 13  1  0
 12 14  1  0
M  END
