mac-x0365-mac-x0193
     RDKit          3D

 27 28  0  0  0  0  0  0  0  0999 V2000
   29.2800   47.7880   -5.9920 O   0  0  0  0  0  0  0  0  0  0  0  0
   29.7290   48.1730   -4.7920 C   0  0  0  0  0  0  0  0  0  0  0  0
   30.1010   47.2430   -4.0060 N   0  0  0  0  0  0  0  0  0  0  0  0
   29.6550   49.6310   -4.6860 C   0  0  0  0  0  0  0  0  0  0  0  0
   29.9460   45.8670   -4.5210 C   0  0  0  0  0  0  0  0  0  0  0  0
   29.9270   50.2600   -3.4710 C   0  0  0  0  0  0  0  0  0  0  0  0
   29.2950   50.3730   -5.8210 C   0  0  0  0  0  0  0  0  0  0  0  0
   31.2790   45.1280   -4.6530 C   0  0  0  0  0  0  0  0  0  0  0  0
   29.8320   51.6430   -3.4050 C   0  0  0  0  0  0  0  0  0  0  0  0
   29.2040   51.7640   -5.7390 C   0  0  0  0  0  0  0  0  0  0  0  0
   30.0850   52.2800   -2.2530 F   0  0  0  0  0  0  0  0  0  0  0  0
   32.0790   45.6800   -5.7580 N   0  0  0  0  0  0  0  0  0  0  0  0
   29.4730   52.3910   -4.5270 C   0  0  0  0  0  0  0  0  0  0  0  0
   29.3780   53.7520   -4.4570 O   0  0  0  0  0  0  0  0  0  0  0  0
   33.2550   45.1750   -5.8120 C   0  0  0  0  0  0  0  0  0  0  0  0
   34.1740   45.5430   -6.7240 O   0  0  0  0  0  0  0  0  0  0  0  0
   33.6820   44.1080   -4.8240 C   0  0  0  0  0  0  0  0  0  0  0  0
   34.5180   44.6100   -3.7440 N   0  0  0  0  0  0  0  0  0  0  0  0
   35.1050   43.7340   -2.8730 C   0  0  0  0  0  0  0  0  0  0  0  0
   34.6770   42.6040   -2.6730 O   0  0  0  0  0  0  0  0  0  0  0  0
   36.2060   44.2900   -2.2710 N   0  0  0  0  0  0  0  0  0  0  0  0
   37.3500   43.5260   -1.7710 C   0  0  0  0  0  0  0  0  0  0  0  0
   37.6340   42.2840   -2.6290 C   0  0  0  0  0  0  0  0  0  0  0  0
   37.1890   43.2170   -0.2740 C   0  0  0  0  0  0  0  0  0  0  0  0
   38.7860   41.4580   -2.0620 C   0  0  0  0  0  0  0  0  0  0  0  0
   38.3740   42.4330    0.2810 C   0  0  0  0  0  0  0  0  0  0  0  0
   39.3950   42.0930   -0.8060 C   0  0  0  0  0  0  0  0  0  0  0  0
  1  2  1  0
  2  3  2  3
  2  4  1  0
  3  5  1  0
  4  6  2  0
  4  7  1  0
  5  8  1  0
  6  9  1  0
  7 10  2  0
  9 11  1  0
  8 12  1  0
  9 13  2  0
 10 13  1  0
 13 14  1  0
 12 15  2  3
 15 16  1  0
 15 17  1  0
 17 18  1  0
 18 19  1  0
 19 20  2  0
 19 21  1  0
 21 22  1  0
 22 23  1  0
 22 24  1  0
 23 25  1  0
 24 26  1  0
 25 27  1  0
 26 27  1  0
M  END
