mac-x0193-mac-x0564
     RDKit          3D

 29 32  0  0  0  0  0  0  0  0999 V2000
   33.8090   45.7120   -6.2890 O   0  0  0  0  0  0  0  0  0  0  0  0
   32.9420   44.7720   -5.8140 C   0  0  0  0  0  0  0  0  0  0  0  0
   31.7890   44.6370   -6.3720 N   0  0  0  0  0  0  0  0  0  0  0  0
   33.4520   43.9580   -4.6320 C   0  0  0  0  0  0  0  0  0  0  0  0
   34.6390   44.4540   -3.9740 N   0  0  0  0  0  0  0  0  0  0  0  0
   31.3050   45.4330   -7.4820 C   0  0  0  0  0  0  0  0  0  0  0  0
   35.1590   43.7000   -2.9540 C   0  0  0  0  0  0  0  0  0  0  0  0
   30.8490   46.7240   -7.0000 N   0  0  0  0  0  0  0  0  0  0  0  0
   34.6970   42.6150   -2.6210 O   0  0  0  0  0  0  0  0  0  0  0  0
   36.2410   44.3270   -2.3730 N   0  0  0  0  0  0  0  0  0  0  0  0
   30.6290   46.8610   -5.7330 C   0  0  0  0  0  0  0  0  0  0  0  0
   37.3630   43.5480   -1.8370 C   0  0  0  0  0  0  0  0  0  0  0  0
   30.2420   48.1250   -5.1830 C   0  0  0  0  0  0  0  0  0  0  0  0
   30.7670   45.8580   -4.7740 N   0  0  0  0  0  0  0  0  0  0  0  0
   37.6300   42.2610   -2.6270 C   0  0  0  0  0  0  0  0  0  0  0  0
   37.1530   43.2400   -0.3500 C   0  0  0  0  0  0  0  0  0  0  0  0
   30.4020   48.4330   -3.8580 C   0  0  0  0  0  0  0  0  0  0  0  0
   30.9040   46.2320   -3.5350 C   0  0  0  0  0  0  0  0  0  0  0  0
   29.6980   49.1680   -5.8650 O   0  0  0  0  0  0  0  0  0  0  0  0
   38.8040   41.4780   -2.0390 C   0  0  0  0  0  0  0  0  0  0  0  0
   38.3340   42.4760    0.2450 C   0  0  0  0  0  0  0  0  0  0  0  0
   30.9270   47.5150   -3.0250 N   0  0  0  0  0  0  0  0  0  0  0  0
   29.5220   50.1630   -4.9380 C   0  0  0  0  0  0  0  0  0  0  0  0
   29.9490   49.7470   -3.6690 C   0  0  0  0  0  0  0  0  0  0  0  0
   39.3950   42.1490   -0.8020 C   0  0  0  0  0  0  0  0  0  0  0  0
   29.8460   50.6440   -2.5930 C   0  0  0  0  0  0  0  0  0  0  0  0
   28.9950   51.4240   -5.1980 C   0  0  0  0  0  0  0  0  0  0  0  0
   29.3200   51.9180   -2.8340 C   0  0  0  0  0  0  0  0  0  0  0  0
   28.9010   52.3030   -4.1130 C   0  0  0  0  0  0  0  0  0  0  0  0
  1  2  1  0
  2  3  2  3
  2  4  1  0
  4  5  1  0
  3  6  1  0
  5  7  1  0
  6  8  1  0
  7  9  2  0
  7 10  1  0
  8 11  2  3
 10 12  1  0
 11 13  1  0
 11 14  1  0
 12 15  1  0
 12 16  1  0
 13 17  2  0
 14 18  2  0
 13 19  1  0
 15 20  1  0
 16 21  1  0
 17 22  1  0
 18 22  1  0
 19 23  1  0
 17 24  1  0
 23 24  2  0
 20 25  1  0
 21 25  1  0
 24 26  1  0
 23 27  1  0
 26 28  2  0
 27 29  2  0
 28 29  1  0
M  END
