mac-x0564-mac-x0472
     RDKit          3D

 28 32  0  0  0  0  0  0  0  0999 V2000
   29.9680   46.6000   -7.2080 O   0  0  0  0  0  0  0  0  0  0  0  0
   30.1860   46.8990   -6.0440 C   0  0  0  0  0  0  0  0  0  0  0  0
   30.7050   45.9990   -5.1440 N   0  0  0  0  0  0  0  0  0  0  0  0
   29.9070   48.2490   -5.5110 C   0  0  0  0  0  0  0  0  0  0  0  0
   30.2940   48.4800   -4.1240 C   0  0  0  0  0  0  0  0  0  0  0  0
   30.9750   46.3300   -3.9270 C   0  0  0  0  0  0  0  0  0  0  0  0
   29.3690   49.4050   -5.9680 C   0  0  0  0  0  0  0  0  0  0  0  0
   30.7980   47.5630   -3.3670 N   0  0  0  0  0  0  0  0  0  0  0  0
   29.3960   50.4020   -4.9220 C   0  0  0  0  0  0  0  0  0  0  0  0
   29.9790   49.8720   -3.8100 C   0  0  0  0  0  0  0  0  0  0  0  0
   28.8650   49.7240   -7.2260 C   0  0  0  0  0  0  0  0  0  0  0  0
   30.1640   50.6300   -2.6960 C   0  0  0  0  0  0  0  0  0  0  0  0
   28.9450   51.7200   -4.9330 C   0  0  0  0  0  0  0  0  0  0  0  0
   28.7800   48.9750   -8.2950 N   0  0  0  0  0  0  0  0  0  0  0  0
   28.2630   51.3310   -7.4470 S   0  0  0  0  0  0  0  0  0  0  0  0
   29.7270   51.9510   -2.6680 C   0  0  0  0  0  0  0  0  0  0  0  0
   29.1080   52.5000   -3.7920 C   0  0  0  0  0  0  0  0  0  0  0  0
   27.9140   50.8950   -9.0480 C   0  0  0  0  0  0  0  0  0  0  0  0
   28.2270   49.6590   -9.3580 N   0  0  0  0  0  0  0  0  0  0  0  0
   30.8250   50.0220   -1.6060 N   0  0  0  0  0  0  0  0  0  0  0  0
   32.0510   49.2840   -2.1720 S   0  0  0  0  0  0  0  0  0  0  0  0
   33.1810   48.8140   -1.4190 O   0  0  0  0  0  0  0  0  0  0  0  0
   32.6930   50.2090   -3.5640 C   0  0  0  0  0  0  0  0  0  0  0  0
   33.4590   49.5360   -4.5210 C   0  0  0  0  0  0  0  0  0  0  0  0
   32.4420   51.5850   -3.6960 C   0  0  0  0  0  0  0  0  0  0  0  0
   33.9750   50.2390   -5.6060 C   0  0  0  0  0  0  0  0  0  0  0  0
   32.9630   52.2770   -4.7880 C   0  0  0  0  0  0  0  0  0  0  0  0
   33.7310   51.6070   -5.7420 C   0  0  0  0  0  0  0  0  0  0  0  0
  1  2  2  0
  2  3  1  0
  2  4  1  0
  4  5  1  0
  3  6  2  0
  4  7  2  0
  5  8  2  0
  6  8  1  0
  7  9  1  0
  5 10  1  0
  9 10  2  0
  7 11  1  0
 10 12  1  0
  9 13  1  0
 11 14  2  0
 11 15  1  0
 12 16  2  0
 13 17  2  0
 16 17  1  0
 15 18  1  0
 14 19  1  0
 18 19  2  0
 12 20  1  0
 20 21  2  0
 21 22  2  0
 21 23  1  0
 23 24  2  0
 23 25  1  0
 24 26  1  0
 25 27  2  0
 26 28  2  0
 27 28  1  0
M  END
