mac-x0163-mac-x0303
     RDKit          3D

 30 34  0  0  0  0  0  0  0  0999 V2000
   31.1890   49.2080   -4.7820 Cl  0  0  0  0  0  0  0  0  0  0  0  0
   30.1900   48.5310   -6.0330 C   0  0  0  0  0  0  0  0  0  0  0  0
   29.2760   49.3360   -6.7280 C   0  0  0  0  0  0  0  0  0  0  0  0
   30.2610   47.1750   -6.3820 C   0  0  0  0  0  0  0  0  0  0  0  0
   29.1770   50.7100   -6.3950 N   0  0  0  0  0  0  0  0  0  0  0  0
   29.4740   46.6720   -7.3570 N   0  0  0  0  0  0  0  0  0  0  0  0
   28.4960   48.8230   -7.7010 N   0  0  0  0  0  0  0  0  0  0  0  0
   31.1570   46.3030   -5.7190 N   0  0  0  0  0  0  0  0  0  0  0  0
   28.6360   47.5200   -7.9640 C   0  0  0  0  0  0  0  0  0  0  0  0
   31.1650   44.9180   -6.2390 C   0  0  0  0  0  0  0  0  0  0  0  0
   31.0470   46.3970   -4.2590 C   0  0  0  0  0  0  0  0  0  0  0  0
   28.9350   51.3290   -5.1580 C   0  0  0  0  0  0  0  0  0  0  0  0
   32.2780   44.0730   -5.5690 C   0  0  0  0  0  0  0  0  0  0  0  0
   30.9730   44.9910   -3.6490 C   0  0  0  0  0  0  0  0  0  0  0  0
   28.9570   52.7440   -5.0510 C   0  0  0  0  0  0  0  0  0  0  0  0
   28.6620   50.6170   -3.9750 C   0  0  0  0  0  0  0  0  0  0  0  0
   32.4490   42.6440   -6.1790 C   0  0  0  0  0  0  0  0  0  0  0  0
   33.7280   44.3550   -6.0930 C   0  0  0  0  0  0  0  0  0  0  0  0
   32.1470   44.0930   -4.0490 C   0  0  0  0  0  0  0  0  0  0  0  0
   28.7170   53.3590   -3.8240 C   0  0  0  0  0  0  0  0  0  0  0  0
   29.1940   53.6870   -6.0380 N   0  0  0  0  0  0  0  0  0  0  0  0
   28.4250   51.2650   -2.7560 C   0  0  0  0  0  0  0  0  0  0  0  0
   29.1010   54.8570   -5.4200 C   0  0  0  0  0  0  0  0  0  0  0  0
   28.8160   54.7010   -4.0900 N   0  0  0  0  0  0  0  0  0  0  0  0
   28.4470   52.6560   -2.6530 C   0  0  0  0  0  0  0  0  0  0  0  0
   33.5220   43.2230   -7.1170 C   0  0  0  0  0  0  0  0  0  0  0  0
   29.3100   56.4410   -6.1690 S   0  0  0  0  0  0  0  0  0  0  0  0
   30.7370   56.3670   -7.0600 N   0  0  0  0  0  0  0  0  0  0  0  0
   28.1920   56.5770   -7.0720 O   0  0  0  0  0  0  0  0  0  0  0  0
   29.5420   57.3570   -5.0770 O   0  0  0  0  0  0  0  0  0  0  0  0
  1  2  1  0
  2  3  2  0
  2  4  1  0
  3  5  1  0
  4  6  2  0
  3  7  1  0
  4  8  1  0
  6  9  1  0
  7  9  2  0
  8 10  1  0
  8 11  1  0
  5 12  1  0
 13 10  1  0
 11 14  1  0
 12 15  1  0
 12 16  2  0
 13 17  1  0
 13 18  1  0
 13 19  1  0
 14 19  1  0
 15 20  2  0
 15 21  1  0
 16 22  1  0
 21 23  2  0
 20 24  1  0
 23 24  1  0
 20 25  1  0
 22 25  2  0
 17 26  1  0
 18 26  1  0
 23 27  1  0
 27 28  1  0
 27 29  2  0
 27 30  2  0
M  END
