mac-x0398-mac-x0555
     RDKit          3D

 15 16  0  0  0  0  0  0  0  0999 V2000
   28.1770   54.2010   -6.9540 N   0  0  0  0  0  0  0  0  0  0  0  0
   28.6830   53.7860   -5.6340 C   0  0  2  0  0  0  0  0  0  0  0  0
   27.5300   53.6570   -4.6420 C   0  0  0  0  0  0  0  0  0  0  0  0
   29.6320   54.8040   -5.0980 C   0  0  0  0  0  0  0  0  0  0  0  0
   29.4190   52.4440   -5.6720 C   0  0  1  0  0  0  0  0  0  0  0  0
   29.8610   52.0500   -4.2370 C   0  0  1  0  0  0  0  0  0  0  0  0
   28.7550   51.1940   -6.1680 C   0  0  0  0  0  0  0  0  0  0  0  0
   30.5860   54.4190   -4.2270 C   0  0  0  0  0  0  0  0  0  0  0  0
   28.8240   52.0750   -3.2800 O   0  0  0  0  0  0  0  0  0  0  0  0
   30.3040   50.5810   -4.5010 C   0  0  2  0  0  0  0  0  0  0  0  0
   29.2620   50.1480   -5.5180 C   0  0  0  0  0  0  0  0  0  0  0  0
   30.7500   53.1130   -3.7930 N   0  0  0  0  0  0  0  0  0  0  0  0
   30.2720   49.5740   -3.3670 C   0  0  0  0  0  0  0  0  0  0  0  0
   30.4160   49.7930   -2.1760 O   0  0  0  0  0  0  0  0  0  0  0  0
   30.0540   48.2990   -3.7680 O   0  0  0  0  0  0  0  0  0  0  0  0
  2  1  1  0
  2  3  1  1
  2  4  1  0
  2  5  1  0
  5  6  1  0
  5  7  1  1
  4  8  2  0
  6  9  1  1
  6 10  1  0
  7 11  2  0
 10 11  1  0
  6 12  1  0
  8 12  1  0
 10 13  1  1
 13 14  2  0
 13 15  1  0
M  END
