mac-x0302-mac-x0546
     RDKit          3D

 28 30  0  0  0  0  0  0  0  0999 V2000
   30.6040   46.0900   -7.2740 O   0  0  0  0  0  0  0  0  0  0  0  0
   30.8790   47.0060   -6.3200 C   0  0  0  0  0  0  0  0  0  0  0  0
   31.7180   46.6750   -5.4040 N   0  0  0  0  0  0  0  0  0  0  0  0
   30.1230   48.3210   -6.4970 C   0  0  0  0  0  0  0  0  0  0  0  0
   30.2480   49.2060   -5.3420 N   0  0  0  0  0  0  0  0  0  0  0  0
   32.3240   45.3530   -5.4250 C   0  0  2  0  0  0  0  0  0  0  0  0
   29.1450   49.9320   -4.9220 C   0  0  0  0  0  0  0  0  0  0  0  0
   32.6640   44.9570   -3.9710 C   0  0  0  0  0  0  0  0  0  0  0  0
   33.5190   45.3470   -6.1940 O   0  0  0  0  0  0  0  0  0  0  0  0
   28.2730   49.4490   -4.2080 O   0  0  0  0  0  0  0  0  0  0  0  0
   29.0520   51.3480   -5.3740 C   0  0  0  0  0  0  0  0  0  0  0  0
   31.5070   44.4310   -3.1780 C   0  0  0  0  0  0  0  0  0  0  0  0
   29.4050   52.4220   -4.5490 C   0  0  0  0  0  0  0  0  0  0  0  0
   28.5920   51.5990   -6.6750 C   0  0  0  0  0  0  0  0  0  0  0  0
   31.3670   44.6160   -1.7020 C   0  0  1  0  0  0  0  0  0  0  0  0
   30.4520   43.7330   -3.6300 C   0  0  0  0  0  0  0  0  0  0  0  0
   29.2950   53.7260   -5.0300 C   0  0  0  0  0  0  0  0  0  0  0  0
   28.4850   52.9120   -7.1460 C   0  0  0  0  0  0  0  0  0  0  0  0
   31.1850   45.9760   -1.1070 C   0  0  0  0  0  0  0  0  0  0  0  0
   30.0390   43.8920   -1.5740 C   0  0  0  0  0  0  0  0  0  0  0  0
   29.5400   43.3910   -2.6610 N   0  0  0  0  0  0  0  0  0  0  0  0
   29.6500   54.7400   -4.1900 O   0  0  0  0  0  0  0  0  0  0  0  0
   28.8390   53.9780   -6.3200 C   0  0  0  0  0  0  0  0  0  0  0  0
   30.3430   46.1280   -0.0600 C   0  0  0  0  0  0  0  0  0  0  0  0
   29.4430   43.8400   -0.2340 C   0  0  0  0  0  0  0  0  0  0  0  0
   30.0520   47.2910    0.6150 O   0  0  0  0  0  0  0  0  0  0  0  0
   29.6210   44.9720    0.4720 C   0  0  0  0  0  0  0  0  0  0  0  0
   30.6850   48.4840    0.1640 C   0  0  0  0  0  0  0  0  0  0  0  0
  1  2  1  0
  2  3  2  3
  2  4  1  0
  4  5  1  0
  3  6  1  0
  5  7  1  0
  6  8  1  0
  6  9  1  6
  7 10  2  0
  7 11  1  0
  8 12  1  0
 11 13  2  0
 11 14  1  0
 12 15  1  0
 12 16  2  0
 13 17  1  0
 14 18  2  0
 15 19  1  6
 15 20  1  0
 16 21  1  0
 20 21  2  0
 17 22  1  0
 17 23  2  0
 18 23  1  0
 19 24  2  0
 20 25  1  0
 24 26  1  0
 24 27  1  0
 25 27  2  0
 26 28  1  0
M  END
