mac-x0348-mac-x0584
     RDKit          3D

 33 38  0  0  0  0  0  0  0  0999 V2000
   27.9310   43.7480   -0.3220 C   0  0  0  0  0  0  0  0  0  0  0  0
   28.3860   44.6650   -1.3400 N   0  0  0  0  0  0  0  0  0  0  0  0
   28.6380   44.3210   -2.6410 C   0  0  0  0  0  0  0  0  0  0  0  0
   28.6260   46.0070   -1.1440 C   0  0  0  0  0  0  0  0  0  0  0  0
   29.0510   45.4480   -3.3220 C   0  0  0  0  0  0  0  0  0  0  0  0
   29.0430   46.5270   -2.3710 C   0  0  0  0  0  0  0  0  0  0  0  0
   28.5120   46.8020    0.0100 C   0  0  0  0  0  0  0  0  0  0  0  0
   29.4330   45.5060   -4.7790 C   0  0  0  0  0  0  0  0  0  0  0  0
   29.3530   47.9020   -2.4420 C   0  0  0  0  0  0  0  0  0  0  0  0
   28.8290   48.1590   -0.0920 C   0  0  0  0  0  0  0  0  0  0  0  0
   30.5860   44.5240   -5.0520 C   0  0  0  0  0  0  0  0  0  0  0  0
   29.2440   48.7040   -1.3000 C   0  0  0  0  0  0  0  0  0  0  0  0
   31.4720   44.7740   -6.2780 C   0  0  0  0  0  0  0  0  0  0  0  0
   31.8700   43.5500   -6.8590 O   0  0  0  0  0  0  0  0  0  0  0  0
   30.7370   45.4220   -7.2900 O   0  0  0  0  0  0  0  0  0  0  0  0
   32.7230   45.5730   -5.9370 C   0  0  2  0  0  0  0  0  0  0  0  0
   33.9610   44.7680   -5.4600 C   0  0  0  0  0  0  0  0  0  0  0  0
   32.9240   46.4700   -4.6460 C   0  0  2  0  0  0  0  0  0  0  0  0
   33.5870   45.1880   -4.0340 C   0  0  0  0  0  0  0  0  0  0  0  0
   31.7270   47.0840   -3.8870 C   0  0  1  0  0  0  0  0  0  0  0  0
   32.0590   47.2770   -2.3910 C   0  0  0  0  0  0  0  0  0  0  0  0
   31.4390   48.4500   -4.3970 N   0  0  0  0  0  0  0  0  0  0  0  0
   31.6160   49.4350   -3.3120 C   0  0  0  0  0  0  0  0  0  0  0  0
   32.4500   48.7350   -2.2560 C   0  0  0  0  0  0  0  0  0  0  0  0
   30.5480   48.7740   -5.4330 C   0  0  0  0  0  0  0  0  0  0  0  0
   30.5550   47.9790   -6.5730 N   0  0  0  0  0  0  0  0  0  0  0  0
   29.6650   49.7870   -5.4670 C   0  0  0  0  0  0  0  0  0  0  0  0
   29.7250   48.1950   -7.6360 C   0  0  0  0  0  0  0  0  0  0  0  0
   28.7980   49.9740   -6.6650 C   0  0  0  0  0  0  0  0  0  0  0  0
   29.2550   50.8610   -4.6160 C   0  0  0  0  0  0  0  0  0  0  0  0
   28.8540   49.1400   -7.7460 N   0  0  0  0  0  0  0  0  0  0  0  0
   28.0050   51.0050   -6.5560 N   0  0  0  0  0  0  0  0  0  0  0  0
   28.3060   51.5190   -5.3020 C   0  0  0  0  0  0  0  0  0  0  0  0
  1  2  1  0
  2  3  1  0
  2  4  1  0
  3  5  2  0
  4  6  2  0
  5  6  1  0
  4  7  1  0
  5  8  1  0
  6  9  1  0
  7 10  2  0
  8 11  1  0
  9 12  2  0
 10 12  1  0
 11 13  1  0
 13 14  1  0
 13 15  1  0
 16 13  1  1
 16 17  1  0
 16 18  1  0
 17 19  1  0
 18 19  1  1
 18 20  1  0
 20 21  1  1
 20 22  1  0
 22 23  1  0
 21 24  1  0
 23 24  1  0
 22 25  1  0
 25 26  1  0
 25 27  2  0
 26 28  1  0
 27 29  1  0
 27 30  1  0
 28 31  2  0
 29 31  1  0
 29 32  2  0
 30 33  2  0
 32 33  1  0
M  END
