mac-x0328-mac-x0433
     RDKit          3D

 12 12  0  0  0  0  0  0  0  0999 V2000
   30.7970   47.6140   -3.5320 O   0  0  0  0  0  0  0  0  0  0  0  0
   30.1580   48.1420   -4.5900 C   0  0  0  0  0  0  0  0  0  0  0  0
   29.8300   47.4470   -5.5340 O   0  0  0  0  0  0  0  0  0  0  0  0
   29.9150   49.6020   -4.4640 C   0  0  0  0  0  0  0  0  0  0  0  0
   29.4450   50.4200   -5.5120 C   0  0  0  0  0  0  0  0  0  0  0  0
   30.1870   50.1560   -3.1990 C   0  0  0  0  0  0  0  0  0  0  0  0
   29.1370   49.8940   -6.8860 C   0  0  0  0  0  0  0  0  0  0  0  0
   29.2550   51.7920   -5.2630 C   0  0  0  0  0  0  0  0  0  0  0  0
   29.9970   51.5180   -2.9600 C   0  0  0  0  0  0  0  0  0  0  0  0
   30.2690   52.0670   -1.6950 N   0  0  0  0  0  0  0  0  0  0  0  0
   29.5300   52.3270   -4.0030 C   0  0  0  0  0  0  0  0  0  0  0  0
   29.3470   53.6620   -3.7540 O   0  0  0  0  0  0  0  0  0  0  0  0
  1  2  1  0
  2  3  2  0
  2  4  1  0
  4  5  2  0
  4  6  1  0
  5  7  1  0
  5  8  1  0
  6  9  2  0
  9 10  1  0
  8 11  2  0
  9 11  1  0
 11 12  1  0
M  END
