mac-x0396-mac-x0116
     RDKit          3D

 23 26  0  0  0  0  0  0  0  0999 V2000
   29.5040   51.5620   -4.6300 C   0  0  0  0  0  0  0  0  0  0  0  0
   29.6030   50.4000   -4.0970 N   0  0  0  0  0  0  0  0  0  0  0  0
   29.4420   49.6570   -5.1690 C   0  0  0  0  0  0  0  0  0  0  0  0
   29.5470   52.8950   -4.1070 C   0  0  0  0  0  0  0  0  0  0  0  0
   29.6580   53.1270   -2.7570 C   0  0  0  0  0  0  0  0  0  0  0  0
   29.4710   53.9580   -5.0080 C   0  0  0  0  0  0  0  0  0  0  0  0
   29.6990   54.3710   -2.2410 N   0  0  0  0  0  0  0  0  0  0  0  0
   29.5130   55.2440   -4.4870 C   0  0  0  0  0  0  0  0  0  0  0  0
   29.3610   53.7780   -6.4970 C   0  0  0  0  0  0  0  0  0  0  0  0
   28.6760   50.3030   -6.0930 N   0  0  0  0  0  0  0  0  0  0  0  0
   29.9820   48.4960   -5.2940 N   0  0  0  0  0  0  0  0  0  0  0  0
   29.6230   55.3980   -3.1170 C   0  0  0  0  0  0  0  0  0  0  0  0
   30.6810   54.0270   -7.1240 C   0  0  0  0  0  0  0  0  0  0  0  0
   29.7350   47.9510   -6.5180 C   0  0  0  0  0  0  0  0  0  0  0  0
   28.5060   49.8280   -7.3310 C   0  0  0  0  0  0  0  0  0  0  0  0
   31.7650   53.5600   -6.4400 O   0  0  0  0  0  0  0  0  0  0  0  0
   31.0870   54.6510   -8.2810 C   0  0  0  0  0  0  0  0  0  0  0  0
   29.0110   48.6490   -7.5930 C   0  0  0  0  0  0  0  0  0  0  0  0
   30.0880   46.7880   -6.9500 N   0  0  0  0  0  0  0  0  0  0  0  0
   32.5010   54.5600   -8.3020 C   0  0  0  0  0  0  0  0  0  0  0  0
   32.8630   53.8870   -7.1600 C   0  0  0  0  0  0  0  0  0  0  0  0
   29.0140   47.8670   -8.6920 N   0  0  0  0  0  0  0  0  0  0  0  0
   29.6280   46.8000   -8.2620 C   0  0  0  0  0  0  0  0  0  0  0  0
  1  2  2  3
  2  3  1  0
  1  4  1  0
  4  5  2  0
  4  6  1  0
  5  7  1  0
  6  8  2  0
  6  9  1  0
  3 10  1  0
  3 11  2  0
  7 12  2  0
  8 12  1  0
  9 13  1  0
 11 14  1  0
 10 15  1  0
 13 16  1  0
 13 17  2  0
 14 18  1  0
 15 18  2  0
 14 19  2  0
 17 20  1  0
 16 21  1  0
 20 21  2  0
 18 22  1  0
 19 23  1  0
 22 23  2  0
M  END
