mac-x0223-mac-x0138
     RDKit          3D

 25 27  0  0  0  0  0  0  0  0999 V2000
   27.3860   43.4640   -1.7530 C   0  0  0  0  0  0  0  0  0  0  0  0
   28.2090   44.4310   -1.1190 O   0  0  0  0  0  0  0  0  0  0  0  0
   29.0210   45.1940   -1.9140 C   0  0  0  0  0  0  0  0  0  0  0  0
   28.5530   46.4680   -2.2330 C   0  0  0  0  0  0  0  0  0  0  0  0
   30.2620   44.7950   -2.4200 C   0  0  0  0  0  0  0  0  0  0  0  0
   27.3390   46.8740   -1.7430 O   0  0  0  0  0  0  0  0  0  0  0  0
   29.3000   47.3280   -3.0370 C   0  0  0  0  0  0  0  0  0  0  0  0
   31.0430   45.6450   -3.2380 C   0  0  0  0  0  0  0  0  0  0  0  0
   32.3800   45.1000   -3.7260 C   0  0  0  0  0  0  0  0  0  0  0  0
   30.5560   46.9400   -3.5570 C   0  0  0  0  0  0  0  0  0  0  0  0
   32.4290   44.6930   -5.1820 C   0  0  0  0  0  0  0  0  0  0  0  0
   31.3270   47.9180   -4.4280 C   0  0  0  0  0  0  0  0  0  0  0  0
   33.2240   45.0700   -6.0270 O   0  0  0  0  0  0  0  0  0  0  0  0
   31.4640   43.8090   -5.5100 O   0  0  0  0  0  0  0  0  0  0  0  0
   30.5680   49.1120   -4.7880 N   0  0  0  0  0  0  0  0  0  0  0  0
   30.4090   50.2330   -4.0150 C   0  0  0  0  0  0  0  0  0  0  0  0
   29.8870   49.3180   -5.9570 C   0  0  0  0  0  0  0  0  0  0  0  0
   29.6670   51.1430   -4.6160 N   0  0  0  0  0  0  0  0  0  0  0  0
   29.3380   50.5810   -5.8320 C   0  0  0  0  0  0  0  0  0  0  0  0
   29.7690   48.4880   -7.0060 N   0  0  0  0  0  0  0  0  0  0  0  0
   28.5780   51.0370   -6.9160 C   0  0  0  0  0  0  0  0  0  0  0  0
   29.0240   49.0190   -7.9870 C   0  0  0  0  0  0  0  0  0  0  0  0
   27.9620   52.2830   -6.9410 N   0  0  0  0  0  0  0  0  0  0  0  0
   28.8400   48.2440   -9.1140 N   0  0  0  0  0  0  0  0  0  0  0  0
   28.4340   50.2280   -7.9930 N   0  0  0  0  0  0  0  0  0  0  0  0
  1  2  1  0
  2  3  1  0
  3  4  2  0
  3  5  1  0
  4  6  1  0
  4  7  1  0
  5  8  2  0
  8  9  1  0
  7 10  2  0
  8 10  1  0
  9 11  1  0
 10 12  1  0
 11 13  2  0
 11 14  1  0
 12 15  1  0
 15 16  1  0
 15 17  1  0
 16 18  2  0
 17 19  2  0
 18 19  1  0
 17 20  1  0
 19 21  1  0
 20 22  2  0
 21 23  1  0
 22 24  1  0
 21 25  2  0
 22 25  1  0
M  END
