mac-x0137
     RDKit          3D

 16 18  0  0  0  0  0  0  0  0999 V2000
   31.3490   48.4850   -3.5680 C   0  0  2  0  0  0  0  0  0  0  0  0
   32.4320   47.7030   -4.1200 C   0  0  0  0  0  0  0  0  0  0  0  0
   32.2040   47.1880   -5.4320 C   0  0  0  0  0  0  0  0  0  0  0  0
   30.7440   46.9030   -5.5810 C   0  0  0  0  0  0  0  0  0  0  0  0
   29.8440   48.1030   -5.3820 N   0  0  0  0  0  0  0  0  0  0  0  0
   29.8800   48.3250   -3.9530 C   0  0  0  0  0  0  0  0  0  0  0  0
   29.0750   48.7320   -6.3880 C   0  0  0  0  0  0  0  0  0  0  0  0
   28.8620   48.0100   -7.4670 N   0  0  0  0  0  0  0  0  0  0  0  0
   28.2950   48.4920   -8.4860 C   0  0  0  0  0  0  0  0  0  0  0  0
   27.7900   49.6400   -8.5170 N   0  0  0  0  0  0  0  0  0  0  0  0
   27.9480   50.4330   -7.4890 C   0  0  0  0  0  0  0  0  0  0  0  0
   27.5260   51.6530   -7.2840 N   0  0  0  0  0  0  0  0  0  0  0  0
   27.8040   52.0290   -6.0390 C   0  0  0  0  0  0  0  0  0  0  0  0
   28.4720   51.0540   -5.4440 C   0  0  0  0  0  0  0  0  0  0  0  0
   28.5400   50.0150   -6.3560 C   0  0  0  0  0  0  0  0  0  0  0  0
   31.4530   49.7010   -3.9600 F   0  0  0  0  0  0  0  0  0  0  0  0
  1  2  1  0
  2  3  1  0
  3  4  1  0
  4  5  1  0
  1  6  1  0
  5  6  1  0
  5  7  1  0
  7  8  2  0
  8  9  1  0
  9 10  2  0
 10 11  1  0
 11 12  1  0
 12 13  1  0
 13 14  2  0
  7 15  1  0
 11 15  2  0
 14 15  1  0
  1 16  1  6
M  END
