mac-x0417-mac-x0360
     RDKit          3D

 28 30  0  0  0  0  0  0  0  0999 V2000
   32.0500   45.3820   -6.2990 O   0  0  0  0  0  0  0  0  0  0  0  0
   33.1830   45.4310   -5.5690 C   0  0  0  0  0  0  0  0  0  0  0  0
   34.2540   45.5090   -6.1540 O   0  0  0  0  0  0  0  0  0  0  0  0
   32.9760   45.3750   -4.0560 C   0  0  2  0  0  0  0  0  0  0  0  0
   32.2580   46.6090   -3.4500 C   0  0  0  0  0  0  0  0  0  0  0  0
   34.2870   45.0840   -3.3750 C   0  0  0  0  0  0  0  0  0  0  0  0
   32.2280   47.8340   -4.3750 C   0  0  0  0  0  0  0  0  0  0  0  0
   34.5930   43.8360   -2.9830 N   0  0  0  0  0  0  0  0  0  0  0  0
   35.3320   45.9930   -3.0550 C   0  0  0  0  0  0  0  0  0  0  0  0
   31.1770   48.8610   -3.9390 C   0  0  0  0  0  0  0  0  0  0  0  0
   35.8480   43.9170   -2.3990 O   0  0  0  0  0  0  0  0  0  0  0  0
   36.2880   45.2010   -2.4430 C   0  0  0  0  0  0  0  0  0  0  0  0
   35.5890   47.3670   -3.2040 C   0  0  0  0  0  0  0  0  0  0  0  0
   30.2420   49.0580   -5.0420 N   0  0  0  0  0  0  0  0  0  0  0  0
   37.5070   45.6740   -1.9570 C   0  0  0  0  0  0  0  0  0  0  0  0
   36.8050   47.8750   -2.7260 C   0  0  0  0  0  0  0  0  0  0  0  0
   29.7110   50.5630   -5.5480 S   0  0  0  0  0  0  0  0  0  0  0  0
   37.7450   47.0410   -2.1140 C   0  0  0  0  0  0  0  0  0  0  0  0
   28.9800   51.1420   -4.4450 O   0  0  0  0  0  0  0  0  0  0  0  0
   29.0940   50.3940   -6.8430 O   0  0  0  0  0  0  0  0  0  0  0  0
   31.1890   51.5350   -5.7550 C   0  0  0  0  0  0  0  0  0  0  0  0
   32.4550   51.0150   -5.4670 C   0  0  0  0  0  0  0  0  0  0  0  0
   31.0440   52.8480   -6.2180 C   0  0  0  0  0  0  0  0  0  0  0  0
   33.5760   51.8280   -5.6450 C   0  0  0  0  0  0  0  0  0  0  0  0
   32.1780   53.6390   -6.3900 C   0  0  0  0  0  0  0  0  0  0  0  0
   32.0120   55.2560   -6.9620 Cl  0  0  0  0  0  0  0  0  0  0  0  0
   35.1450   51.2150   -5.2970 Cl  0  0  0  0  0  0  0  0  0  0  0  0
   33.4440   53.1360   -6.1060 C   0  0  0  0  0  0  0  0  0  0  0  0
  1  2  1  0
  2  3  2  0
  2  4  1  0
  4  5  1  1
  4  6  1  0
  5  7  1  0
  6  8  2  0
  6  9  1  0
  7 10  1  0
  8 11  1  0
  9 12  2  0
 11 12  1  0
  9 13  1  0
 10 14  1  0
 12 15  1  0
 13 16  2  0
 17 14  1  0
 15 18  2  0
 16 18  1  0
 17 19  2  0
 17 20  2  0
 17 21  1  0
 21 22  2  0
 21 23  1  0
 22 24  1  0
 23 25  2  0
 25 26  1  0
 24 27  1  0
 24 28  2  0
 25 28  1  0
M  END
