mac-x1493-mac-x0360
     RDKit          3D

 24 26  0  0  0  0  0  0  0  0999 V2000
   28.5770   48.4940   -4.5920 O   0  0  0  0  0  0  0  0  0  0  0  0
   29.7900   49.2600   -4.6380 C   0  0  0  0  0  0  0  0  0  0  0  0
   30.6560   48.7130   -3.6290 O   0  0  0  0  0  0  0  0  0  0  0  0
   30.5330   49.3410   -6.3700 S   0  0  0  0  0  0  0  0  0  0  0  0
   29.5450   50.7170   -4.3540 C   0  0  0  0  0  0  0  0  0  0  0  0
   29.4790   49.6030   -7.3330 O   0  0  0  0  0  0  0  0  0  0  0  0
   31.3750   48.1720   -6.5380 O   0  0  0  0  0  0  0  0  0  0  0  0
   29.1060   51.5560   -5.3790 C   0  0  0  0  0  0  0  0  0  0  0  0
   29.7390   51.2970   -3.1090 C   0  0  0  0  0  0  0  0  0  0  0  0
   31.6150   50.7620   -6.3240 C   0  0  0  0  0  0  0  0  0  0  0  0
   28.8860   52.9080   -5.1490 C   0  0  0  0  0  0  0  0  0  0  0  0
   29.5320   52.6110   -2.8420 N   0  0  0  0  0  0  0  0  0  0  0  0
   32.8530   50.6580   -5.6840 C   0  0  0  0  0  0  0  0  0  0  0  0
   31.2200   51.9670   -6.9270 C   0  0  0  0  0  0  0  0  0  0  0  0
   29.1140   53.4010   -3.8530 C   0  0  0  0  0  0  0  0  0  0  0  0
   28.4510   53.7540   -6.1800 C   0  0  0  0  0  0  0  0  0  0  0  0
   33.6960   51.7670   -5.6490 C   0  0  0  0  0  0  0  0  0  0  0  0
   32.0830   53.0650   -6.8770 C   0  0  0  0  0  0  0  0  0  0  0  0
   31.6230   54.5550   -7.6080 Cl  0  0  0  0  0  0  0  0  0  0  0  0
   35.2220   51.6500   -4.8630 Cl  0  0  0  0  0  0  0  0  0  0  0  0
   28.8960   54.7530   -3.6300 C   0  0  0  0  0  0  0  0  0  0  0  0
   28.2390   55.1040   -5.9310 C   0  0  0  0  0  0  0  0  0  0  0  0
   33.3190   52.9700   -6.2400 C   0  0  0  0  0  0  0  0  0  0  0  0
   28.4620   55.6040   -4.6530 C   0  0  0  0  0  0  0  0  0  0  0  0
  2  1  1  0
  2  3  1  0
  2  4  1  0
  2  5  1  0
  4  6  2  0
  4  7  2  0
  5  8  2  0
  5  9  1  0
  4 10  1  0
  8 11  1  0
  9 12  2  0
 10 13  2  0
 10 14  1  0
 11 15  2  0
 12 15  1  0
 11 16  1  0
 13 17  1  0
 14 18  2  0
 18 19  1  0
 17 20  1  0
 15 21  1  0
 16 22  2  0
 17 23  2  0
 18 23  1  0
 21 24  2  0
 22 24  1  0
M  END
