mac-x0588-mac-x0358
     RDKit          3D

 28 31  0  0  0  0  0  0  0  0999 V2000
   27.5050   51.2780   -5.5870 N   0  0  0  0  0  0  0  0  0  0  0  0
   28.6660   50.5910   -6.1280 C   0  0  2  0  0  0  0  0  0  0  0  0
   28.3290   49.2740   -6.8450 C   0  0  2  0  0  0  0  0  0  0  0  0
   29.5030   50.3590   -4.9670 N   0  0  0  0  0  0  0  0  0  0  0  0
   29.3940   48.9920   -4.4400 C   0  0  0  0  0  0  0  0  0  0  0  0
   29.5850   48.4290   -6.7590 C   0  0  1  0  0  0  0  0  0  0  0  0
   28.1460   49.3470   -8.3060 N   0  0  0  0  0  0  0  0  0  0  0  0
   29.9000   47.9980   -5.3920 N   0  0  0  0  0  0  0  0  0  0  0  0
   29.2070   47.3460   -7.6560 N   0  0  0  0  0  0  0  0  0  0  0  0
   28.6650   48.0760   -8.8080 C   0  0  0  0  0  0  0  0  0  0  0  0
   29.5360   46.5710   -5.1140 C   0  0  1  0  0  0  0  0  0  0  0  0
   30.7510   45.5850   -5.0050 C   0  0  0  0  0  0  0  0  0  0  0  0
   28.5920   46.4810   -3.8570 C   0  0  2  0  0  0  0  0  0  0  0  0
   32.1680   46.1730   -4.7540 C   0  0  2  0  0  0  0  0  0  0  0  0
   29.2350   47.0130   -2.6800 O   0  0  0  0  0  0  0  0  0  0  0  0
   28.1950   45.0590   -3.4660 C   0  0  0  0  0  0  0  0  0  0  0  0
   33.1670   45.2900   -5.5000 C   0  0  0  0  0  0  0  0  0  0  0  0
   27.8390   45.2080   -2.0090 C   0  0  0  0  0  0  0  0  0  0  0  0
   28.8510   46.2280   -1.5400 C   0  0  0  0  0  0  0  0  0  0  0  0
   32.5290   46.3310   -3.2730 C   0  0  0  0  0  0  0  0  0  0  0  0
   32.9490   43.9680   -5.3250 O   0  0  0  0  0  0  0  0  0  0  0  0
   34.0980   45.6620   -6.2040 O   0  0  0  0  0  0  0  0  0  0  0  0
   33.5310   47.1920   -2.7860 C   0  0  0  0  0  0  0  0  0  0  0  0
   31.8210   45.5690   -2.3210 C   0  0  0  0  0  0  0  0  0  0  0  0
   34.2910   47.9830   -3.6030 O   0  0  0  0  0  0  0  0  0  0  0  0
   33.8130   47.2920   -1.4230 C   0  0  0  0  0  0  0  0  0  0  0  0
   32.1010   45.6670   -0.9540 C   0  0  0  0  0  0  0  0  0  0  0  0
   33.0960   46.5280   -0.5060 C   0  0  0  0  0  0  0  0  0  0  0  0
  2  1  1  1
  2  3  1  0
  2  4  1  0
  4  5  1  0
  3  6  1  0
  3  7  1  6
  5  8  1  0
  6  8  1  0
  6  9  1  6
  7 10  1  0
  9 10  1  0
  8 11  1  0
 11 12  1  1
 11 13  1  0
 14 12  1  1
 13 15  1  0
 13 16  1  1
 14 17  1  0
 16 18  1  0
 15 19  1  0
 18 19  1  0
 14 20  1  0
 17 21  1  0
 17 22  2  0
 20 23  2  0
 20 24  1  0
 23 25  1  0
 23 26  1  0
 24 27  2  0
 26 28  2  0
 27 28  1  0
M  END
