mac-x0231-mac-x0305
     RDKit          3D

 24 26  0  0  0  0  0  0  0  0999 V2000
   34.1330   45.5180   -5.6020 O   0  0  0  0  0  0  0  0  0  0  0  0
   32.8870   45.8290   -6.0160 C   0  0  0  0  0  0  0  0  0  0  0  0
   32.5440   46.9750   -6.5100 N   0  0  0  0  0  0  0  0  0  0  0  0
   31.9380   44.6780   -5.8390 C   0  0  0  0  0  0  0  0  0  0  0  0
   31.2570   47.2410   -6.9200 C   0  0  0  0  0  0  0  0  0  0  0  0
   31.0800   44.6890   -4.5810 C   0  0  0  0  0  0  0  0  0  0  0  0
   30.7050   46.6370   -7.8420 O   0  0  0  0  0  0  0  0  0  0  0  0
   31.1030   45.8330   -3.6150 C   0  0  0  0  0  0  0  0  0  0  0  0
   30.3180   43.6420   -4.4030 N   0  0  0  0  0  0  0  0  0  0  0  0
   30.5260   48.3360   -6.1800 C   0  0  0  0  0  0  0  0  0  0  0  0
   30.1300   45.8240   -2.6160 C   0  0  0  0  0  0  0  0  0  0  0  0
   29.5270   43.6100   -3.3030 N   0  0  0  0  0  0  0  0  0  0  0  0
   32.0250   46.8920   -3.6500 C   0  0  0  0  0  0  0  0  0  0  0  0
   29.1490   48.5500   -6.3070 C   0  0  0  0  0  0  0  0  0  0  0  0
   31.3150   49.1050   -5.3720 N   0  0  0  0  0  0  0  0  0  0  0  0
   28.3510   47.7870   -7.1140 O   0  0  0  0  0  0  0  0  0  0  0  0
   29.1670   44.7150   -2.5740 C   0  0  0  0  0  0  0  0  0  0  0  0
   30.0630   46.8490   -1.6630 C   0  0  0  0  0  0  0  0  0  0  0  0
   31.9590   47.9150   -2.7010 C   0  0  0  0  0  0  0  0  0  0  0  0
   28.5710   49.5860   -5.5770 C   0  0  0  0  0  0  0  0  0  0  0  0
   30.7190   50.0980   -4.6820 C   0  0  0  0  0  0  0  0  0  0  0  0
   28.1250   44.7820   -1.9350 O   0  0  0  0  0  0  0  0  0  0  0  0
   30.9790   47.8960   -1.7060 C   0  0  0  0  0  0  0  0  0  0  0  0
   29.3650   50.3740   -4.7510 C   0  0  0  0  0  0  0  0  0  0  0  0
  1  2  1  0
  2  3  2  3
  2  4  1  0
  3  5  1  0
  4  6  1  0
  5  7  2  0
  6  8  1  0
  6  9  2  0
  5 10  1  0
  8 11  2  0
  9 12  1  0
  8 13  1  0
 10 14  2  0
 10 15  1  0
 14 16  1  0
 11 17  1  0
 12 17  1  0
 11 18  1  0
 13 19  2  0
 14 20  1  0
 15 21  2  0
 17 22  2  0
 18 23  2  0
 19 23  1  0
 20 24  2  0
 21 24  1  0
M  END
