mac-x0402-mac-x0396
     RDKit          3D

 14 15  0  0  0  0  0  0  0  0999 V2000
   30.9290   47.7270   -4.0200 Cl  0  0  0  0  0  0  0  0  0  0  0  0
   31.1580   49.4620   -4.3690 C   0  0  2  0  0  0  0  0  0  0  0  0
   30.4290   50.2860   -3.3430 C   0  0  0  0  0  0  0  0  0  0  0  0
   30.7240   49.7790   -5.8090 C   0  0  0  0  0  0  0  0  0  0  0  0
   30.6870   51.2970   -6.0140 C   0  0  2  0  0  0  0  0  0  0  0  0
   29.7920   51.4350   -3.6300 C   0  0  0  0  0  0  0  0  0  0  0  0
   29.7470   52.0180   -5.0150 C   0  0  2  0  0  0  0  0  0  0  0  0
   30.0370   51.7650   -7.6590 S   0  0  0  0  0  0  0  0  0  0  0  0
   28.6590   52.6830   -6.9520 C   0  0  1  0  0  0  0  0  0  0  0  0
   28.4150   52.1160   -5.6410 N   0  0  0  0  0  0  0  0  0  0  0  0
   28.8580   54.1060   -6.9640 N   0  0  0  0  0  0  0  0  0  0  0  0
   27.5780   51.0110   -5.5740 C   0  0  0  0  0  0  0  0  0  0  0  0
   27.1110   50.5900   -6.7810 N   0  0  0  0  0  0  0  0  0  0  0  0
   27.2480   50.4100   -4.5560 O   0  0  0  0  0  0  0  0  0  0  0  0
  2  1  1  1
  2  3  1  0
  2  4  1  0
  5  4  1  1
  3  6  2  0
  5  7  1  0
  7  6  1  1
  5  8  1  0
  8  9  1  0
  7 10  1  0
  9 10  1  0
  9 11  1  1
 10 12  1  0
 12 13  1  0
 12 14  2  0
M  END
