mac-x0453-mac-x0337
     RDKit          3D

 18 19  0  0  0  0  0  0  0  0999 V2000
   29.1520   54.1860   -6.7200 N   0  0  0  0  0  0  0  0  0  0  0  0
   28.6300   52.8410   -6.4160 C   0  0  0  0  0  0  0  0  0  0  0  0
   29.5220   51.9120   -5.5650 C   0  0  2  0  0  0  0  0  0  0  0  0
   30.4620   50.6890   -6.4140 S   0  0  0  0  0  0  0  0  0  0  0  0
   28.9510   51.0710   -4.5040 C   0  0  0  0  0  0  0  0  0  0  0  0
   30.2030   49.4100   -5.7550 O   0  0  0  0  0  0  0  0  0  0  0  0
   30.2550   50.7860   -7.8430 O   0  0  0  0  0  0  0  0  0  0  0  0
   28.2600   49.9020   -4.6950 C   0  0  0  0  0  0  0  0  0  0  0  0
   29.0750   51.3490   -3.1660 N   0  0  0  0  0  0  0  0  0  0  0  0
   32.1100   51.1180   -5.9750 C   0  0  0  0  0  0  0  0  0  0  0  0
   27.9620   49.4540   -3.4520 N   0  0  0  0  0  0  0  0  0  0  0  0
   28.4720   50.3560   -2.5600 C   0  0  0  0  0  0  0  0  0  0  0  0
   33.0290   50.1220   -5.6620 C   0  0  0  0  0  0  0  0  0  0  0  0
   32.4550   52.4630   -5.9470 C   0  0  0  0  0  0  0  0  0  0  0  0
   34.3270   50.4900   -5.3140 C   0  0  0  0  0  0  0  0  0  0  0  0
   33.7490   52.8250   -5.6000 C   0  0  0  0  0  0  0  0  0  0  0  0
   34.6950   51.8430   -5.2830 C   0  0  0  0  0  0  0  0  0  0  0  0
   36.0870   52.2400   -4.9170 C   0  0  0  0  0  0  0  0  0  0  0  0
  1  2  1  0
  3  2  1  6
  3  4  1  0
  3  5  1  0
  4  6  2  0
  4  7  2  0
  5  8  2  0
  5  9  1  0
  4 10  1  0
  8 11  1  0
  9 12  2  0
 11 12  1  0
 10 13  2  0
 10 14  1  0
 13 15  1  0
 14 16  2  0
 15 17  2  0
 16 17  1  0
 17 18  1  0
M  END
