mac-x0417-mac-x0277
     RDKit          3D

 22 24  0  0  0  0  0  0  0  0999 V2000
   32.1240   45.1790   -6.8930 N   0  0  0  0  0  0  0  0  0  0  0  0
   32.9790   45.4760   -5.7120 C   0  0  0  0  0  0  0  0  0  0  0  0
   33.8520   46.3350   -5.8540 O   0  0  0  0  0  0  0  0  0  0  0  0
   31.9560   46.1420   -7.6520 O   0  0  0  0  0  0  0  0  0  0  0  0
   32.7810   44.7440   -4.3930 C   0  0  1  0  0  0  0  0  0  0  0  0
   34.0180   44.6930   -3.5450 C   0  0  0  0  0  0  0  0  0  0  0  0
   31.6210   45.2190   -3.5090 C   0  0  0  0  0  0  0  0  0  0  0  0
   34.4870   43.5230   -3.0720 N   0  0  0  0  0  0  0  0  0  0  0  0
   34.8420   45.7760   -3.1240 C   0  0  0  0  0  0  0  0  0  0  0  0
   31.7430   46.4210   -2.7770 C   0  0  0  0  0  0  0  0  0  0  0  0
   30.4130   44.5020   -3.3870 C   0  0  0  0  0  0  0  0  0  0  0  0
   35.6200   43.8310   -2.3380 O   0  0  0  0  0  0  0  0  0  0  0  0
   35.8310   45.1710   -2.3690 C   0  0  0  0  0  0  0  0  0  0  0  0
   34.8760   47.1720   -3.2850 C   0  0  0  0  0  0  0  0  0  0  0  0
   30.7000   46.8850   -1.9590 C   0  0  0  0  0  0  0  0  0  0  0  0
   29.3750   44.9660   -2.5720 C   0  0  0  0  0  0  0  0  0  0  0  0
   30.9460   48.3660   -1.1040 Cl  0  0  0  0  0  0  0  0  0  0  0  0
   36.8730   45.8540   -1.7440 C   0  0  0  0  0  0  0  0  0  0  0  0
   35.9130   47.8910   -2.6700 C   0  0  0  0  0  0  0  0  0  0  0  0
   29.5130   46.1550   -1.8560 C   0  0  0  0  0  0  0  0  0  0  0  0
   28.1900   46.6650   -0.8720 Cl  0  0  0  0  0  0  0  0  0  0  0  0
   36.8910   47.2420   -1.9130 C   0  0  0  0  0  0  0  0  0  0  0  0
  1  2  1  0
  2  3  2  0
  1  4  2  0
  5  2  1  6
  5  6  1  0
  5  7  1  0
  6  8  2  0
  6  9  1  0
  7 10  2  0
  7 11  1  0
  8 12  1  0
  9 13  2  0
 12 13  1  0
  9 14  1  0
 10 15  1  0
 11 16  2  0
 15 17  1  0
 13 18  1  0
 14 19  2  0
 15 20  2  0
 16 20  1  0
 20 21  1  0
 18 22  2  0
 19 22  1  0
M  END
