mac-x0394-mac-x0361
     RDKit          3D

 21 22  0  0  0  0  0  0  0  0999 V2000
   23.7620   49.9000   -3.6450 Cl  0  0  0  0  0  0  0  0  0  0  0  0
   24.9100   51.1190   -4.0370 C   0  0  0  0  0  0  0  0  0  0  0  0
   24.9600   52.2860   -3.2830 C   0  0  0  0  0  0  0  0  0  0  0  0
   25.7790   50.9240   -5.1100 C   0  0  0  0  0  0  0  0  0  0  0  0
   26.7180   51.9070   -5.4450 C   0  0  0  0  0  0  0  0  0  0  0  0
   25.8900   53.2660   -3.6100 C   0  0  0  0  0  0  0  0  0  0  0  0
   25.9540   54.7160   -2.6800 Cl  0  0  0  0  0  0  0  0  0  0  0  0
   27.6510   51.6780   -6.6170 C   0  0  0  0  0  0  0  0  0  0  0  0
   26.7700   53.0870   -4.6830 C   0  0  0  0  0  0  0  0  0  0  0  0
   28.1990   52.9360   -7.2650 C   0  0  0  0  0  0  0  0  0  0  0  0
   29.4650   53.2030   -6.8270 O   0  0  0  0  0  0  0  0  0  0  0  0
   27.5340   53.5690   -8.0740 O   0  0  0  0  0  0  0  0  0  0  0  0
   29.7060   53.3130   -5.4980 C   0  0  0  0  0  0  0  0  0  0  0  0
   29.8390   54.3240   -4.8240 O   0  0  0  0  0  0  0  0  0  0  0  0
   29.8000   51.9480   -4.8950 C   0  0  0  0  0  0  0  0  0  0  0  0
   30.1060   50.8130   -5.6610 C   0  0  0  0  0  0  0  0  0  0  0  0
   29.5740   51.7980   -3.5150 C   0  0  0  0  0  0  0  0  0  0  0  0
   30.1840   49.5550   -5.0600 C   0  0  0  0  0  0  0  0  0  0  0  0
   29.6540   50.5380   -2.9140 C   0  0  0  0  0  0  0  0  0  0  0  0
   29.9580   49.4280   -3.6950 C   0  0  0  0  0  0  0  0  0  0  0  0
   30.0470   48.1780   -3.1580 O   0  0  0  0  0  0  0  0  0  0  0  0
  1  2  1  0
  2  3  2  0
  2  4  1  0
  4  5  2  0
  3  6  1  0
  6  7  1  0
  5  8  1  0
  5  9  1  0
  6  9  2  0
  8 10  1  0
 10 11  1  0
 10 12  2  0
 11 13  1  0
 13 14  2  0
 13 15  1  0
 15 16  2  0
 15 17  1  0
 16 18  1  0
 17 19  2  0
 18 20  2  0
 19 20  1  0
 20 21  1  0
M  END
