mac-x0348-mac-x0496
     RDKit          3D

 35 38  0  0  0  0  0  0  0  0999 V2000
   27.5780   43.9290   -0.9110 C   0  0  0  0  0  0  0  0  0  0  0  0
   28.4440   44.9140   -1.5210 N   0  0  0  0  0  0  0  0  0  0  0  0
   28.7490   44.9640   -2.8540 C   0  0  0  0  0  0  0  0  0  0  0  0
   29.0790   45.9370   -0.8480 C   0  0  0  0  0  0  0  0  0  0  0  0
   29.5990   46.0350   -3.0760 C   0  0  0  0  0  0  0  0  0  0  0  0
   29.8130   46.6560   -1.7990 C   0  0  0  0  0  0  0  0  0  0  0  0
   29.0690   46.2900    0.5120 C   0  0  0  0  0  0  0  0  0  0  0  0
   30.1640   46.4400   -4.4260 C   0  0  2  0  0  0  0  0  0  0  0  0
   30.5650   47.7690   -1.3630 C   0  0  0  0  0  0  0  0  0  0  0  0
   29.8230   47.3980    0.9140 C   0  0  0  0  0  0  0  0  0  0  0  0
   31.6350   45.9760   -4.5270 C   0  0  0  0  0  0  0  0  0  0  0  0
   30.0070   47.9500   -4.7310 C   0  0  0  0  0  0  0  0  0  0  0  0
   30.5620   48.1300   -0.0100 C   0  0  0  0  0  0  0  0  0  0  0  0
   32.1880   46.0300   -5.9320 C   0  0  0  0  0  0  0  0  0  0  0  0
   29.5560   48.7230   -3.5740 N   0  0  0  0  0  0  0  0  0  0  0  0
   31.5740   45.7610   -6.9530 O   0  0  0  0  0  0  0  0  0  0  0  0
   33.4840   46.4210   -5.9670 O   0  0  0  0  0  0  0  0  0  0  0  0
   29.1590   49.9310   -3.6050 C   0  0  0  0  0  0  0  0  0  0  0  0
   28.7850   50.4600   -2.4250 O   0  0  0  0  0  0  0  0  0  0  0  0
   29.0020   50.9380   -4.6520 C   0  0  0  0  0  0  0  0  0  0  0  0
   28.5720   50.5530   -5.9290 C   0  0  0  0  0  0  0  0  0  0  0  0
   29.2800   52.2760   -4.3740 C   0  0  0  0  0  0  0  0  0  0  0  0
   28.4190   51.5110   -6.9340 C   0  0  0  0  0  0  0  0  0  0  0  0
   29.1260   53.2340   -5.3780 C   0  0  0  0  0  0  0  0  0  0  0  0
   29.4290   54.6530   -5.0430 C   0  0  0  0  0  0  0  0  0  0  0  0
   28.6950   52.8550   -6.6590 C   0  0  0  0  0  0  0  0  0  0  0  0
   28.9480   55.6000   -5.9270 N   0  0  0  0  0  0  0  0  0  0  0  0
   30.0720   54.9260   -4.0340 O   0  0  0  0  0  0  0  0  0  0  0  0
   29.1050   57.0100   -5.6180 C   0  0  0  0  0  0  0  0  0  0  0  0
   27.7660   57.6420   -5.4660 C   0  0  0  0  0  0  0  0  0  0  0  0
   27.5450   58.3610   -4.3130 O   0  0  0  0  0  0  0  0  0  0  0  0
   26.7290   57.6270   -6.2710 N   0  0  0  0  0  0  0  0  0  0  0  0
   25.8120   58.3780   -5.5820 C   0  0  0  0  0  0  0  0  0  0  0  0
   26.2370   58.8470   -4.4030 N   0  0  0  0  0  0  0  0  0  0  0  0
   24.4600   58.6390   -6.1150 C   0  0  0  0  0  0  0  0  0  0  0  0
  1  2  1  0
  2  3  1  0
  2  4  1  0
  3  5  2  0
  4  6  2  0
  5  6  1  0
  4  7  1  0
  5  8  1  0
  6  9  1  0
  7 10  2  0
  8 11  1  1
  8 12  1  0
  9 13  2  0
 10 13  1  0
 11 14  1  0
 12 15  1  0
 14 16  2  0
 14 17  1  0
 15 18  2  3
 18 19  1  0
 18 20  1  0
 20 21  2  0
 20 22  1  0
 21 23  1  0
 22 24  2  0
 24 25  1  0
 23 26  2  0
 24 26  1  0
 25 27  1  0
 25 28  2  0
 27 29  1  0
 29 30  1  0
 30 31  1  0
 30 32  2  0
 32 33  1  0
 31 34  1  0
 33 34  2  0
 33 35  1  0
M  END
