mac-x0161-mac-x0212
     RDKit          3D

 24 26  0  0  0  0  0  0  0  0999 V2000
   28.4320   52.4530   -6.0560 N   0  0  0  0  0  0  0  0  0  0  0  0
   29.2350   53.8370   -5.5260 S   0  0  0  0  0  0  0  0  0  0  0  0
   30.7750   53.8080   -6.4230 C   0  0  0  0  0  0  0  0  0  0  0  0
   28.2780   51.2540   -5.2200 C   0  0  2  0  0  0  0  0  0  0  0  0
   28.4950   54.9960   -5.9800 O   0  0  0  0  0  0  0  0  0  0  0  0
   29.5550   53.6730   -4.1240 O   0  0  0  0  0  0  0  0  0  0  0  0
   29.4460   51.1400   -4.3470 N   0  0  0  0  0  0  0  0  0  0  0  0
   28.0820   49.9640   -6.0740 C   0  0  2  0  0  0  0  0  0  0  0  0
   29.4360   49.9310   -3.5110 C   0  0  0  0  0  0  0  0  0  0  0  0
   29.1870   48.9850   -5.7180 C   0  0  1  0  0  0  0  0  0  0  0  0
   28.1550   49.9720   -7.5550 N   0  0  0  0  0  0  0  0  0  0  0  0
   29.2690   48.6980   -4.3060 N   0  0  0  0  0  0  0  0  0  0  0  0
   28.8780   47.9090   -6.6390 N   0  0  0  0  0  0  0  0  0  0  0  0
   28.5700   48.5990   -7.8840 C   0  0  0  0  0  0  0  0  0  0  0  0
   30.0360   47.5500   -3.8360 C   0  0  0  0  0  0  0  0  0  0  0  0
   29.6210   46.3600   -4.4520 O   0  0  0  0  0  0  0  0  0  0  0  0
   29.8630   47.3780   -2.4520 O   0  0  0  0  0  0  0  0  0  0  0  0
   31.5030   47.5110   -3.9530 C   0  0  0  0  0  0  0  0  0  0  0  0
   32.5510   47.7640   -3.1050 C   0  0  0  0  0  0  0  0  0  0  0  0
   31.9900   47.1270   -5.1670 O   0  0  0  0  0  0  0  0  0  0  0  0
   33.3710   47.1180   -5.1250 N   0  0  0  0  0  0  0  0  0  0  0  0
   33.6800   47.5000   -3.8860 C   0  0  0  0  0  0  0  0  0  0  0  0
   34.9580   47.6040   -3.4730 O   0  0  0  0  0  0  0  0  0  0  0  0
   35.1040   47.9880   -2.1120 C   0  0  0  0  0  0  0  0  0  0  0  0
  2  1  1  0
  2  3  1  0
  4  1  1  6
  2  5  2  0
  2  6  2  0
  4  7  1  0
  4  8  1  0
  7  9  1  0
  8 10  1  0
  8 11  1  6
  9 12  1  0
 10 12  1  0
 10 13  1  6
 11 14  1  0
 13 14  1  0
 12 15  1  0
 15 16  1  0
 15 17  1  0
 15 18  1  0
 18 19  2  0
 18 20  1  0
 20 21  1  0
 19 22  1  0
 21 22  2  0
 22 23  1  0
 23 24  1  0
M  END
