mac-x0182-mac-x0319
     RDKit          3D

 22 24  0  0  0  0  0  0  0  0999 V2000
   34.9190   43.9370   -1.6070 O   0  0  0  0  0  0  0  0  0  0  0  0
   35.0450   44.9640   -2.2510 C   0  0  0  0  0  0  0  0  0  0  0  0
   34.0220   45.7060   -2.7790 N   0  0  0  0  0  0  0  0  0  0  0  0
   36.3560   45.5740   -2.5680 C   0  0  0  0  0  0  0  0  0  0  0  0
   34.5870   46.8470   -3.8800 S   0  0  2  0  0  0  0  0  0  0  0  0
   36.2570   46.6340   -3.4620 C   0  0  0  0  0  0  0  0  0  0  0  0
   37.5910   45.1890   -2.0710 C   0  0  0  0  0  0  0  0  0  0  0  0
   34.1220   48.1080   -3.3580 O   0  0  0  0  0  0  0  0  0  0  0  0
   34.2790   46.2220   -5.2330 N   0  0  0  0  0  0  0  0  0  0  0  0
   37.3510   47.3530   -3.9010 C   0  0  0  0  0  0  0  0  0  0  0  0
   38.7200   45.8980   -2.4960 C   0  0  0  0  0  0  0  0  0  0  0  0
   32.9400   46.1290   -5.6470 C   0  0  0  0  0  0  0  0  0  0  0  0
   38.6010   46.9710   -3.4030 C   0  0  0  0  0  0  0  0  0  0  0  0
   32.4000   47.0380   -6.2760 O   0  0  0  0  0  0  0  0  0  0  0  0
   32.1740   44.8550   -5.2950 C   0  0  0  0  0  0  0  0  0  0  0  0
   30.8510   45.1180   -4.6110 C   0  0  0  0  0  0  0  0  0  0  0  0
   29.8910   44.0970   -4.5090 C   0  0  0  0  0  0  0  0  0  0  0  0
   30.5620   46.3800   -4.0690 C   0  0  0  0  0  0  0  0  0  0  0  0
   28.6750   44.3480   -3.8760 C   0  0  0  0  0  0  0  0  0  0  0  0
   29.3390   46.6180   -3.4370 C   0  0  0  0  0  0  0  0  0  0  0  0
   27.7220   43.3790   -3.7610 O   0  0  0  0  0  0  0  0  0  0  0  0
   28.3940   45.5980   -3.3410 C   0  0  0  0  0  0  0  0  0  0  0  0
  1  2  2  0
  2  3  1  0
  2  4  1  0
  5  3  1  1
  4  6  2  0
  5  6  1  0
  4  7  1  0
  5  8  2  0
  5  9  2  0
  6 10  1  0
  7 11  2  0
  9 12  1  0
 10 13  2  0
 11 13  1  0
 12 14  2  0
 12 15  1  0
 15 16  1  0
 16 17  2  0
 16 18  1  0
 17 19  1  0
 18 20  2  0
 19 21  1  0
 19 22  2  0
 20 22  1  0
M  END
