mac-x0358-mac-x0568
     RDKit          3D

 22 23  0  0  0  0  0  0  0  0999 V2000
   31.7100   45.2050   -6.8220 O   0  0  0  0  0  0  0  0  0  0  0  0
   32.7780   45.4610   -6.0330 C   0  0  0  0  0  0  0  0  0  0  0  0
   33.7420   46.0500   -6.4970 O   0  0  0  0  0  0  0  0  0  0  0  0
   32.5910   44.9570   -4.6210 C   0  0  0  0  0  0  0  0  0  0  0  0
   32.3340   46.0950   -3.6740 C   0  0  0  0  0  0  0  0  0  0  0  0
   33.3410   46.6400   -2.8800 C   0  0  0  0  0  0  0  0  0  0  0  0
   31.0560   46.6340   -3.5950 C   0  0  0  0  0  0  0  0  0  0  0  0
   34.5970   46.1180   -2.9780 O   0  0  0  0  0  0  0  0  0  0  0  0
   33.0830   47.6990   -2.0060 C   0  0  0  0  0  0  0  0  0  0  0  0
   30.7750   47.7030   -2.7450 C   0  0  0  0  0  0  0  0  0  0  0  0
   29.3860   48.2810   -2.7310 C   0  0  0  0  0  0  0  0  0  0  0  0
   31.7980   48.2310   -1.9380 C   0  0  0  0  0  0  0  0  0  0  0  0
   29.4120   49.6620   -3.2570 N   0  0  0  0  0  0  0  0  0  0  0  0
   29.4110   50.0490   -4.5050 C   0  0  0  0  0  0  0  0  0  0  0  0
   29.3720   49.1080   -5.5070 N   0  0  0  0  0  0  0  0  0  0  0  0
   29.4500   51.4820   -4.8880 C   0  0  0  0  0  0  0  0  0  0  0  0
   29.8380   52.4070   -3.9330 C   0  0  0  0  0  0  0  0  0  0  0  0
   29.1110   51.9410   -6.1610 C   0  0  0  0  0  0  0  0  0  0  0  0
   29.9070   53.7370   -4.1570 N   0  0  0  0  0  0  0  0  0  0  0  0
   29.1750   53.3150   -6.4130 C   0  0  0  0  0  0  0  0  0  0  0  0
   29.5750   54.1810   -5.3900 C   0  0  0  0  0  0  0  0  0  0  0  0
   29.6530   55.6590   -5.6200 C   0  0  0  0  0  0  0  0  0  0  0  0
  1  2  1  0
  2  3  2  0
  2  4  1  0
  4  5  1  0
  5  6  2  0
  5  7  1  0
  6  8  1  0
  6  9  1  0
  7 10  2  0
 10 11  1  0
  9 12  2  0
 10 12  1  0
 11 13  1  0
 13 14  2  3
 14 15  1  0
 14 16  1  0
 16 17  2  0
 16 18  1  0
 17 19  1  0
 18 20  2  0
 19 21  2  0
 20 21  1  0
 21 22  1  0
M  END
