mac-x0357-mac-x0555
     RDKit          3D

 24 26  0  0  0  0  0  0  0  0999 V2000
   32.2630   43.3600   -4.9690 C   0  0  0  0  0  0  0  0  0  0  0  0
   33.0430   44.5410   -4.4600 C   0  0  0  0  0  0  0  0  0  0  0  0
   34.0970   44.3660   -3.5490 C   0  0  0  0  0  0  0  0  0  0  0  0
   32.7390   45.8560   -4.8830 C   0  0  0  0  0  0  0  0  0  0  0  0
   34.4730   43.1370   -3.0780 O   0  0  0  0  0  0  0  0  0  0  0  0
   31.6400   46.1310   -5.8540 C   0  0  0  0  0  0  0  0  0  0  0  0
   33.4880   46.9420   -4.3870 C   0  0  0  0  0  0  0  0  0  0  0  0
   34.8340   45.4460   -3.0630 C   0  0  0  0  0  0  0  0  0  0  0  0
   30.5840   46.8150   -5.6370 N   0  0  0  0  0  0  0  0  0  0  0  0
   31.8970   45.5480   -7.0350 O   0  0  0  0  0  0  0  0  0  0  0  0
   34.5300   46.7380   -3.4810 C   0  0  0  0  0  0  0  0  0  0  0  0
   30.2250   47.4800   -4.3970 C   0  0  0  0  0  0  0  0  0  0  0  0
   28.9980   48.3740   -4.6160 C   0  0  0  0  0  0  0  0  0  0  0  0
   29.2350   49.8440   -4.3740 C   0  0  0  0  0  0  0  0  0  0  0  0
   29.6640   50.2840   -3.1270 C   0  0  0  0  0  0  0  0  0  0  0  0
   29.0330   50.7940   -5.3900 C   0  0  0  0  0  0  0  0  0  0  0  0
   29.2580   52.1660   -5.1490 C   0  0  0  0  0  0  0  0  0  0  0  0
   29.8860   51.6410   -2.8910 C   0  0  0  0  0  0  0  0  0  0  0  0
   29.0650   53.1460   -6.1400 C   0  0  0  0  0  0  0  0  0  0  0  0
   29.6920   52.5940   -3.8780 C   0  0  0  0  0  0  0  0  0  0  0  0
   29.2990   54.4910   -5.8620 C   0  0  0  0  0  0  0  0  0  0  0  0
   29.9210   53.8840   -3.5890 N   0  0  0  0  0  0  0  0  0  0  0  0
   29.1140   55.4820   -6.8330 N   0  0  0  0  0  0  0  0  0  0  0  0
   29.7230   54.7920   -4.5720 C   0  0  0  0  0  0  0  0  0  0  0  0
  1  2  1  0
  2  3  2  0
  2  4  1  0
  3  5  1  0
  4  6  1  0
  4  7  2  0
  3  8  1  0
  6  9  2  3
  6 10  1  0
  7 11  1  0
  8 11  2  0
  9 12  1  0
 12 13  1  0
 13 14  1  0
 14 15  2  0
 14 16  1  0
 16 17  2  0
 15 18  1  0
 17 19  1  0
 17 20  1  0
 18 20  2  0
 19 21  2  0
 20 22  1  0
 21 23  1  0
 21 24  1  0
 22 24  2  0
M  END
