mac-x0193-mac-x0344
     RDKit          3D

 21 23  0  0  0  0  0  0  0  0999 V2000
   33.9900   45.2010   -6.1770 N   0  0  0  0  0  0  0  0  0  0  0  0
   32.8530   45.2930   -5.4170 C   0  0  0  0  0  0  0  0  0  0  0  0
   31.7270   45.4660   -5.8550 O   0  0  0  0  0  0  0  0  0  0  0  0
   34.9860   45.0590   -5.3730 C   0  0  0  0  0  0  0  0  0  0  0  0
   33.1520   45.1520   -3.9460 C   0  0  0  0  0  0  0  0  0  0  0  0
   34.6850   45.0340   -3.8980 C   0  0  1  0  0  0  0  0  0  0  0  0
   35.0500   43.6820   -3.2680 C   0  0  0  0  0  0  0  0  0  0  0  0
   35.4660   46.1800   -3.2370 C   0  0  0  0  0  0  0  0  0  0  0  0
   34.2100   42.8720   -2.8900 O   0  0  0  0  0  0  0  0  0  0  0  0
   36.4150   43.4620   -3.1750 N   0  0  0  0  0  0  0  0  0  0  0  0
   36.1590   45.9490   -2.0320 C   0  0  0  0  0  0  0  0  0  0  0  0
   35.5300   47.4750   -3.7820 C   0  0  0  0  0  0  0  0  0  0  0  0
   37.0060   42.5870   -2.1630 C   0  0  0  0  0  0  0  0  0  0  0  0
   36.8840   46.9590   -1.4020 C   0  0  0  0  0  0  0  0  0  0  0  0
   36.2570   48.4880   -3.1490 C   0  0  0  0  0  0  0  0  0  0  0  0
   38.2590   41.9150   -2.7590 C   0  0  0  0  0  0  0  0  0  0  0  0
   37.3030   43.3720   -0.8690 C   0  0  0  0  0  0  0  0  0  0  0  0
   36.9350   48.2320   -1.9600 C   0  0  0  0  0  0  0  0  0  0  0  0
   39.0170   41.0900   -1.7310 C   0  0  0  0  0  0  0  0  0  0  0  0
   38.0850   42.5460    0.1460 C   0  0  0  0  0  0  0  0  0  0  0  0
   39.3260   41.9080   -0.4780 C   0  0  0  0  0  0  0  0  0  0  0  0
  1  2  1  0
  2  3  2  0
  1  4  2  0
  2  5  1  0
  4  6  1  0
  5  6  1  0
  6  7  1  1
  6  8  1  0
  7  9  2  0
  7 10  1  0
  8 11  2  0
  8 12  1  0
 10 13  1  0
 11 14  1  0
 12 15  2  0
 13 16  1  0
 13 17  1  0
 14 18  2  0
 15 18  1  0
 16 19  1  0
 17 20  1  0
 19 21  1  0
 20 21  1  0
M  END
