mac-x0115-mac-x0402
     RDKit          3D

 29 32  0  0  0  0  0  0  0  0999 V2000
   27.9400   45.8060   -1.4130 C   0  0  0  0  0  0  0  0  0  0  0  0
   29.0280   44.9950   -2.1410 C   0  0  0  0  0  0  0  0  0  0  0  0
   28.4170   43.6100   -2.4380 C   0  0  0  0  0  0  0  0  0  0  0  0
   29.5850   45.5840   -3.3960 N   0  0  0  0  0  0  0  0  0  0  0  0
   30.6190   44.7430   -4.0440 C   0  0  0  0  0  0  0  0  0  0  0  0
   30.1340   46.9450   -3.1300 C   0  0  0  0  0  0  0  0  0  0  0  0
   31.3510   45.3520   -5.2740 C   0  0  0  0  0  0  0  0  0  0  0  0
   29.0630   48.0290   -2.8620 C   0  0  0  0  0  0  0  0  0  0  0  0
   30.4790   45.8160   -6.3850 N   0  0  0  0  0  0  0  0  0  0  0  0
   29.2530   49.3890   -3.5010 C   0  0  0  0  0  0  0  0  0  0  0  0
   30.1850   44.9840   -7.4860 C   0  0  0  0  0  0  0  0  0  0  0  0
   30.3350   47.1810   -6.5840 C   0  0  0  0  0  0  0  0  0  0  0  0
   30.1250   50.3090   -2.9150 C   0  0  0  0  0  0  0  0  0  0  0  0
   28.5700   49.7560   -4.6760 C   0  0  0  0  0  0  0  0  0  0  0  0
   30.2900   43.3160   -7.5670 S   0  0  0  0  0  0  0  0  0  0  0  0
   29.7570   45.6260   -8.6420 N   0  0  0  0  0  0  0  0  0  0  0  0
   29.2350   47.6590   -7.4640 C   0  0  2  0  0  0  0  0  0  0  0  0
   31.0480   48.2010   -6.1080 C   0  0  0  0  0  0  0  0  0  0  0  0
   28.7800   51.0340   -5.2250 C   0  0  0  0  0  0  0  0  0  0  0  0
   30.3260   51.5790   -3.4690 C   0  0  0  0  0  0  0  0  0  0  0  0
   29.3770   46.9510   -8.7910 C   0  0  0  0  0  0  0  0  0  0  0  0
   29.3680   49.1310   -7.5030 N   0  0  0  0  0  0  0  0  0  0  0  0
   30.3850   49.3500   -6.7220 C   0  0  0  0  0  0  0  0  0  0  0  0
   29.6470   51.9540   -4.6400 C   0  0  0  0  0  0  0  0  0  0  0  0
   28.0900   51.7440   -6.6310 S   0  0  0  0  0  0  0  0  0  0  0  0
   29.1890   47.4450   -9.8960 O   0  0  0  0  0  0  0  0  0  0  0  0
   28.9770   53.1780   -6.3530 C   0  0  0  0  0  0  0  0  0  0  0  0
   29.7480   53.1720   -5.2950 N   0  0  0  0  0  0  0  0  0  0  0  0
   28.8710   54.2340   -7.1840 N   0  0  0  0  0  0  0  0  0  0  0  0
  1  2  1  0
  2  3  1  0
  2  4  1  0
  4  5  1  0
  4  6  1  0
  5  7  1  0
  6  8  1  0
  7  9  1  0
  8 10  1  0
  9 11  1  0
  9 12  1  0
 10 13  2  0
 10 14  1  0
 11 15  2  0
 11 16  1  0
 12 17  1  0
 12 18  2  0
 14 19  2  0
 13 20  1  0
 16 21  1  0
 17 21  1  0
 17 22  1  6
 18 23  1  0
 22 23  2  0
 19 24  1  0
 20 24  2  0
 19 25  1  0
 21 26  2  0
 25 27  1  0
 24 28  1  0
 27 28  2  0
 27 29  1  0
M  END
