mac-x0277-mac-x0568
     RDKit          3D

 24 25  0  0  0  0  0  0  0  0999 V2000
   27.5190   46.1340   -0.8820 Cl  0  0  0  0  0  0  0  0  0  0  0  0
   28.8500   45.8010   -1.9350 C   0  0  0  0  0  0  0  0  0  0  0  0
   30.0390   46.5270   -1.8720 C   0  0  0  0  0  0  0  0  0  0  0  0
   28.7020   44.7730   -2.8660 C   0  0  0  0  0  0  0  0  0  0  0  0
   30.2780   47.6510   -0.9100 C   0  0  0  0  0  0  0  0  0  0  0  0
   31.0770   46.2040   -2.7660 C   0  0  0  0  0  0  0  0  0  0  0  0
   29.7430   44.4610   -3.7500 C   0  0  0  0  0  0  0  0  0  0  0  0
   30.6100   48.9260   -1.6610 C   0  0  0  0  0  0  0  0  0  0  0  0
   30.9430   45.1800   -3.7060 C   0  0  0  0  0  0  0  0  0  0  0  0
   32.0760   44.8620   -4.6570 C   0  0  0  0  0  0  0  0  0  0  0  0
   30.3810   48.7390   -3.1640 C   0  0  0  0  0  0  0  0  0  0  0  0
   32.2110   45.8390   -5.8020 C   0  0  0  0  0  0  0  0  0  0  0  0
   30.1740   50.0510   -3.6940 N   0  0  0  0  0  0  0  0  0  0  0  0
   33.3890   46.5010   -5.7660 O   0  0  0  0  0  0  0  0  0  0  0  0
   31.4120   46.0680   -6.6980 O   0  0  0  0  0  0  0  0  0  0  0  0
   29.6910   50.3400   -4.8390 C   0  0  0  0  0  0  0  0  0  0  0  0
   29.3080   49.3500   -5.7110 N   0  0  0  0  0  0  0  0  0  0  0  0
   29.5720   51.7500   -5.1760 C   0  0  0  0  0  0  0  0  0  0  0  0
   29.8970   52.6380   -4.1710 C   0  0  0  0  0  0  0  0  0  0  0  0
   29.1660   52.2290   -6.4090 C   0  0  0  0  0  0  0  0  0  0  0  0
   29.8490   53.9720   -4.3050 N   0  0  0  0  0  0  0  0  0  0  0  0
   29.1060   53.6110   -6.5810 C   0  0  0  0  0  0  0  0  0  0  0  0
   29.4560   54.4430   -5.5070 C   0  0  0  0  0  0  0  0  0  0  0  0
   29.4060   55.9310   -5.6530 C   0  0  0  0  0  0  0  0  0  0  0  0
  1  2  1  0
  2  3  2  0
  2  4  1  0
  3  5  1  0
  3  6  1  0
  4  7  2  0
  5  8  1  0
  6  9  2  0
  7  9  1  0
  9 10  1  0
  8 11  1  0
 10 12  1  0
 11 13  1  0
 12 14  1  0
 12 15  2  0
 13 16  2  3
 16 17  1  0
 16 18  1  0
 18 19  2  0
 18 20  1  0
 19 21  1  0
 20 22  2  0
 21 23  2  0
 22 23  1  0
 23 24  1  0
M  END
