mac-x0142-mac-x0555
     RDKit          3D

 23 27  0  0  0  0  0  0  0  0999 V2000
   28.6640   54.6200   -6.4650 N   0  0  0  0  0  0  0  0  0  0  0  0
   28.4420   54.1400   -5.0910 C   0  0  2  0  0  0  0  0  0  0  0  0
   29.7220   54.3650   -4.2550 C   0  0  0  0  0  0  0  0  0  0  0  0
   27.9820   52.6640   -5.0580 C   0  0  0  0  0  0  0  0  0  0  0  0
   29.0750   51.6400   -5.4720 C   0  0  2  0  0  0  0  0  0  0  0  0
   30.7060   53.2740   -4.3510 N   0  0  0  0  0  0  0  0  0  0  0  0
   28.8010   51.1420   -6.8390 N   0  0  0  0  0  0  0  0  0  0  0  0
   29.0550   50.3650   -4.5620 C   0  0  0  0  0  0  0  0  0  0  0  0
   30.4640   52.3230   -5.4450 C   0  0  0  0  0  0  0  0  0  0  0  0
   29.2220   49.7900   -6.8270 C   0  0  0  0  0  0  0  0  0  0  0  0
   29.3830   49.2980   -5.5480 C   0  0  0  0  0  0  0  0  0  0  0  0
   29.4320   49.0910   -7.9340 N   0  0  0  0  0  0  0  0  0  0  0  0
   29.7890   47.9930   -5.3960 C   0  0  0  0  0  0  0  0  0  0  0  0
   29.9700   47.4290   -4.1160 N   0  0  0  0  0  0  0  0  0  0  0  0
   30.0130   47.2510   -6.4970 N   0  0  0  0  0  0  0  0  0  0  0  0
   29.8250   47.8320   -7.7010 C   0  0  0  0  0  0  0  0  0  0  0  0
   31.0750   48.0480   -3.3660 C   0  0  0  0  0  0  0  0  0  0  0  0
   29.9160   45.9610   -4.1050 C   0  0  0  0  0  0  0  0  0  0  0  0
   31.2870   45.3990   -4.4700 C   0  0  0  0  0  0  0  0  0  0  0  0
   32.4410   47.5050   -3.7810 C   0  0  0  0  0  0  0  0  0  0  0  0
   31.3860   43.9270   -4.8360 C   0  0  0  0  0  0  0  0  0  0  0  0
   31.5150   44.9650   -5.9060 C   0  0  0  0  0  0  0  0  0  0  0  0
   32.4540   45.9850   -3.7030 C   0  0  0  0  0  0  0  0  0  0  0  0
  2  1  1  6
  2  3  1  0
  2  4  1  0
  5  4  1  1
  3  6  1  0
  5  7  1  0
  5  8  1  0
  5  9  1  0
  6  9  1  0
  7 10  1  0
  8 11  1  0
 10 11  2  0
 10 12  1  0
 11 13  1  0
 13 14  1  0
 13 15  2  0
 12 16  2  0
 15 16  1  0
 14 17  1  0
 14 18  1  0
 19 18  1  0
 17 20  1  0
 19 21  1  0
 19 22  1  0
 21 22  1  0
 19 23  1  0
 20 23  1  0
M  END
