mac-x0223-mac-x0204
     RDKit          3D

 14 14  0  0  0  0  0  0  0  0999 V2000
   27.4670   43.6660   -2.1090 C   0  0  0  0  0  0  0  0  0  0  0  0
   27.6010   45.0390   -1.7590 O   0  0  0  0  0  0  0  0  0  0  0  0
   28.7550   45.6580   -2.1580 C   0  0  0  0  0  0  0  0  0  0  0  0
   28.9820   46.9170   -1.5910 C   0  0  0  0  0  0  0  0  0  0  0  0
   29.6950   45.1500   -3.0580 C   0  0  0  0  0  0  0  0  0  0  0  0
   28.0810   47.4460   -0.7060 O   0  0  0  0  0  0  0  0  0  0  0  0
   30.1110   47.6650   -1.9000 C   0  0  0  0  0  0  0  0  0  0  0  0
   30.8450   45.8910   -3.3860 C   0  0  0  0  0  0  0  0  0  0  0  0
   31.8590   45.3400   -4.3640 C   0  0  0  0  0  0  0  0  0  0  0  0
   31.0420   47.1500   -2.7980 C   0  0  0  0  0  0  0  0  0  0  0  0
   31.7690   45.9410   -5.7800 C   0  0  0  0  0  0  0  0  0  0  0  0
   32.7380   46.9230   -6.0430 O   0  0  0  0  0  0  0  0  0  0  0  0
   31.9940   44.9290   -6.7200 O   0  0  0  0  0  0  0  0  0  0  0  0
   30.4930   46.4550   -6.0400 O   0  0  0  0  0  0  0  0  0  0  0  0
  1  2  1  0
  2  3  1  0
  3  4  2  0
  3  5  1  0
  4  6  1  0
  4  7  1  0
  5  8  2  0
  8  9  1  0
  7 10  2  0
  8 10  1  0
  9 11  1  0
 11 12  1  0
 11 13  1  0
 11 14  1  0
M  END
