mac-x0404-mac-x0587
     RDKit          3D

 25 27  0  0  0  0  0  0  0  0999 V2000
   32.4150   44.7440   -6.8530 O   0  0  0  0  0  0  0  0  0  0  0  0
   32.9620   45.4330   -5.8240 C   0  0  0  0  0  0  0  0  0  0  0  0
   33.8070   46.2830   -6.0660 O   0  0  0  0  0  0  0  0  0  0  0  0
   32.4070   44.9960   -4.4650 C   0  0  0  0  0  0  0  0  0  0  0  0
   31.0640   45.5260   -4.0580 N   0  0  0  0  0  0  0  0  0  0  0  0
   30.2630   46.4070   -4.9600 C   0  0  2  0  0  0  0  0  0  0  0  0
   31.0030   45.9230   -2.7040 C   0  0  0  0  0  0  0  0  0  0  0  0
   30.4960   46.2060   -6.4520 C   0  0  0  0  0  0  0  0  0  0  0  0
   30.3810   47.9030   -4.5600 C   0  0  0  0  0  0  0  0  0  0  0  0
   29.8090   45.6660   -1.9610 C   0  0  0  0  0  0  0  0  0  0  0  0
   32.0740   46.5710   -2.0640 C   0  0  0  0  0  0  0  0  0  0  0  0
   31.2950   48.2780   -3.8100 O   0  0  0  0  0  0  0  0  0  0  0  0
   29.7310   46.0710   -0.6070 C   0  0  0  0  0  0  0  0  0  0  0  0
   31.9860   46.9620   -0.7340 C   0  0  0  0  0  0  0  0  0  0  0  0
   28.6790   45.0200   -2.5140 C   0  0  0  0  0  0  0  0  0  0  0  0
   29.4630   48.8290   -5.0370 N   0  0  0  0  0  0  0  0  0  0  0  0
   30.8240   46.7150   -0.0110 C   0  0  0  0  0  0  0  0  0  0  0  0
   28.5630   45.8280    0.1330 C   0  0  0  0  0  0  0  0  0  0  0  0
   27.5240   44.7830   -1.7670 C   0  0  0  0  0  0  0  0  0  0  0  0
   29.4400   50.1510   -4.4550 C   0  0  0  0  0  0  0  0  0  0  0  0
   28.7310   48.8750   -6.2390 C   0  0  0  0  0  0  0  0  0  0  0  0
   28.1470   47.9980   -6.8480 O   0  0  0  0  0  0  0  0  0  0  0  0
   27.4660   45.1890   -0.4420 C   0  0  0  0  0  0  0  0  0  0  0  0
   29.1680   51.0760   -5.6260 C   0  0  0  0  0  0  0  0  0  0  0  0
   28.7620   50.1960   -6.6860 N   0  0  0  0  0  0  0  0  0  0  0  0
  1  2  1  0
  2  3  2  0
  2  4  1  0
  4  5  1  0
  5  6  1  0
  5  7  1  0
  6  8  1  6
  6  9  1  0
  7 10  1  0
  7 11  2  0
  9 12  2  0
 10 13  2  0
 11 14  1  0
 10 15  1  0
  9 16  1  0
 13 17  1  0
 14 17  2  0
 13 18  1  0
 15 19  2  0
 16 20  1  0
 16 21  1  0
 21 22  2  0
 18 23  2  0
 19 23  1  0
 20 24  1  0
 21 25  1  0
 24 25  1  0
M  END
