mac-x0302-mac-x0354
     RDKit          3D

 28 30  0  0  0  0  0  0  0  0999 V2000
   30.4950   44.8620   -5.5180 O   0  0  0  0  0  0  0  0  0  0  0  0
   30.9950   46.0230   -5.0390 C   0  0  0  0  0  0  0  0  0  0  0  0
   32.2420   46.3270   -5.0710 N   0  0  0  0  0  0  0  0  0  0  0  0
   29.9580   46.9600   -4.4450 C   0  0  0  0  0  0  0  0  0  0  0  0
   30.3620   48.3450   -4.6300 N   0  0  0  0  0  0  0  0  0  0  0  0
   33.1750   45.3600   -5.6540 C   0  0  1  0  0  0  0  0  0  0  0  0
   29.8360   49.3550   -3.8540 C   0  0  0  0  0  0  0  0  0  0  0  0
   34.2470   45.9850   -6.3620 O   0  0  0  0  0  0  0  0  0  0  0  0
   33.7310   44.5000   -4.5530 C   0  0  0  0  0  0  0  0  0  0  0  0
   29.6900   49.2220   -2.6400 O   0  0  0  0  0  0  0  0  0  0  0  0
   29.4550   50.6190   -4.5400 C   0  0  0  0  0  0  0  0  0  0  0  0
   33.2430   43.2240   -4.1820 C   0  0  0  0  0  0  0  0  0  0  0  0
   34.7950   44.7250   -3.6780 C   0  0  0  0  0  0  0  0  0  0  0  0
   29.6790   51.8280   -3.8650 C   0  0  0  0  0  0  0  0  0  0  0  0
   28.8870   50.6280   -5.8220 C   0  0  0  0  0  0  0  0  0  0  0  0
   34.8510   43.6010   -2.8810 N   0  0  0  0  0  0  0  0  0  0  0  0
   33.9180   42.6780   -3.1720 N   0  0  0  0  0  0  0  0  0  0  0  0
   35.7150   45.8500   -3.5360 C   0  0  0  0  0  0  0  0  0  0  0  0
   35.7850   43.3430   -1.8090 C   0  0  0  0  0  0  0  0  0  0  0  0
   29.3310   53.0260   -4.4820 C   0  0  0  0  0  0  0  0  0  0  0  0
   28.5420   51.8390   -6.4270 C   0  0  0  0  0  0  0  0  0  0  0  0
   37.0910   45.6560   -3.7060 C   0  0  0  0  0  0  0  0  0  0  0  0
   35.2380   47.1320   -3.2260 C   0  0  0  0  0  0  0  0  0  0  0  0
   29.5300   54.2280   -3.8650 O   0  0  0  0  0  0  0  0  0  0  0  0
   28.7660   53.0440   -5.7530 C   0  0  0  0  0  0  0  0  0  0  0  0
   37.9790   46.7260   -3.5690 C   0  0  0  0  0  0  0  0  0  0  0  0
   36.1280   48.2010   -3.0900 C   0  0  0  0  0  0  0  0  0  0  0  0
   37.4960   47.9980   -3.2620 C   0  0  0  0  0  0  0  0  0  0  0  0
  1  2  1  0
  2  3  2  3
  2  4  1  0
  4  5  1  0
  3  6  1  0
  5  7  1  0
  6  8  1  1
  6  9  1  0
  7 10  2  0
  7 11  1  0
  9 12  1  0
  9 13  2  0
 11 14  2  0
 11 15  1  0
 13 16  1  0
 12 17  2  0
 16 17  1  0
 13 18  1  0
 16 19  1  0
 14 20  1  0
 15 21  2  0
 18 22  2  0
 18 23  1  0
 20 24  1  0
 20 25  2  0
 21 25  1  0
 22 26  1  0
 23 27  2  0
 26 28  2  0
 27 28  1  0
M  END
