mac-x0228-mac-x0439
     RDKit          3D

 24 27  0  0  0  0  0  0  0  0999 V2000
   28.1260   47.9580   -4.2190 O   0  0  0  0  0  0  0  0  0  0  0  0
   29.2430   48.3340   -3.5650 C   0  0  0  0  0  0  0  0  0  0  0  0
   29.9630   47.5550   -2.8200 N   0  0  0  0  0  0  0  0  0  0  0  0
   29.5610   49.7660   -3.7960 C   0  0  0  0  0  0  0  0  0  0  0  0
   29.3380   50.3800   -5.0390 C   0  0  0  0  0  0  0  0  0  0  0  0
   30.1000   50.5160   -2.7270 C   0  0  0  0  0  0  0  0  0  0  0  0
   29.5990   46.2430   -2.6500 C   0  0  0  0  0  0  0  0  0  0  0  0
   29.6590   51.7230   -5.1750 C   0  0  0  0  0  0  0  0  0  0  0  0
   30.4170   51.8690   -2.8850 C   0  0  0  0  0  0  0  0  0  0  0  0
   30.4490   45.1470   -3.2460 C   0  0  2  0  0  0  0  0  0  0  0  0
   28.4960   45.8870   -1.9550 C   0  0  0  0  0  0  0  0  0  0  0  0
   30.1870   52.4430   -4.1160 C   0  0  0  0  0  0  0  0  0  0  0  0
   29.5310   52.6110   -6.3530 C   0  0  0  0  0  0  0  0  0  0  0  0
   31.0650   45.2870   -4.5950 C   0  0  0  0  0  0  0  0  0  0  0  0
   29.5000   44.0230   -3.6270 C   0  0  0  0  0  0  0  0  0  0  0  0
   28.1210   44.4890   -1.7770 C   0  0  0  0  0  0  0  0  0  0  0  0
   30.4460   53.7550   -4.4190 O   0  0  0  0  0  0  0  0  0  0  0  0
   29.7320   53.9610   -5.6610 C   0  0  0  0  0  0  0  0  0  0  0  0
   30.5260   44.3850   -5.4330 C   0  0  0  0  0  0  0  0  0  0  0  0
   29.5570   43.5950   -4.8500 N   0  0  0  0  0  0  0  0  0  0  0  0
   28.5950   43.5230   -2.5830 C   0  0  0  0  0  0  0  0  0  0  0  0
   30.9530   44.2800   -6.8530 C   0  0  0  0  0  0  0  0  0  0  0  0
   30.4030   43.2260   -7.4830 O   0  0  0  0  0  0  0  0  0  0  0  0
   31.7140   45.0360   -7.4350 O   0  0  0  0  0  0  0  0  0  0  0  0
  1  2  1  0
  2  3  2  3
  2  4  1  0
  4  5  2  0
  4  6  1  0
  3  7  1  0
  5  8  1  0
  6  9  2  0
  7 10  1  0
  7 11  2  0
  8 12  2  0
  9 12  1  0
  8 13  1  0
 10 14  1  6
 10 15  1  0
 11 16  1  0
 12 17  1  0
 13 18  1  0
 17 18  1  0
 14 19  2  0
 15 20  2  0
 19 20  1  0
 15 21  1  0
 16 21  2  0
 19 22  1  0
 22 23  1  0
 22 24  2  0
M  END
