mac-x0277-mac-x0402
     RDKit          3D

 24 26  0  0  0  0  0  0  0  0999 V2000
   27.4290   46.6220   -1.5480 Cl  0  0  0  0  0  0  0  0  0  0  0  0
   28.8170   46.0250   -2.3870 C   0  0  0  0  0  0  0  0  0  0  0  0
   30.1120   46.4640   -2.0880 C   0  0  0  0  0  0  0  0  0  0  0  0
   28.6030   45.0730   -3.3900 C   0  0  0  0  0  0  0  0  0  0  0  0
   30.4300   47.4860   -1.0230 C   0  0  0  0  0  0  0  0  0  0  0  0
   31.1860   45.9210   -2.8240 C   0  0  0  0  0  0  0  0  0  0  0  0
   29.6800   44.5470   -4.1080 C   0  0  0  0  0  0  0  0  0  0  0  0
   30.8660   48.8680   -1.5370 C   0  0  0  0  0  0  0  0  0  0  0  0
   30.9850   44.9650   -3.8340 C   0  0  0  0  0  0  0  0  0  0  0  0
   32.1640   44.4050   -4.5990 C   0  0  0  0  0  0  0  0  0  0  0  0
   31.0680   49.0030   -3.0540 C   0  0  0  0  0  0  0  0  0  0  0  0
   32.2960   44.8900   -6.0300 C   0  0  0  0  0  0  0  0  0  0  0  0
   30.4440   50.2110   -3.7100 C   0  0  0  0  0  0  0  0  0  0  0  0
   33.4280   45.6120   -6.2330 O   0  0  0  0  0  0  0  0  0  0  0  0
   31.5020   44.6800   -6.9360 O   0  0  0  0  0  0  0  0  0  0  0  0
   30.3220   51.4290   -3.0360 C   0  0  0  0  0  0  0  0  0  0  0  0
   29.9760   50.1000   -5.0320 C   0  0  0  0  0  0  0  0  0  0  0  0
   29.3940   51.2230   -5.6440 C   0  0  0  0  0  0  0  0  0  0  0  0
   29.7390   52.5420   -3.6570 C   0  0  0  0  0  0  0  0  0  0  0  0
   29.2680   52.4430   -4.9810 C   0  0  0  0  0  0  0  0  0  0  0  0
   28.7420   51.3840   -7.2300 S   0  0  0  0  0  0  0  0  0  0  0  0
   28.3590   53.0230   -6.9050 C   0  0  0  0  0  0  0  0  0  0  0  0
   28.6770   53.4580   -5.7140 N   0  0  0  0  0  0  0  0  0  0  0  0
   27.7680   53.8000   -7.8320 N   0  0  0  0  0  0  0  0  0  0  0  0
  1  2  1  0
  2  3  2  0
  2  4  1  0
  3  5  1  0
  3  6  1  0
  4  7  2  0
  5  8  1  0
  6  9  2  0
  7  9  1  0
  9 10  1  0
  8 11  1  0
 10 12  1  0
 11 13  1  0
 12 14  1  0
 12 15  2  0
 13 16  2  0
 13 17  1  0
 17 18  2  0
 16 19  1  0
 18 20  1  0
 19 20  2  0
 18 21  1  0
 21 22  1  0
 20 23  1  0
 22 23  2  0
 22 24  1  0
M  END
