mac-x0451-mac-x0441
     RDKit          3D

 30 33  0  0  0  0  0  0  0  0999 V2000
   28.7410   54.0270   -8.0300 N   0  0  0  0  0  0  0  0  0  0  0  0
   29.0210   52.8730   -7.3930 C   0  0  0  0  0  0  0  0  0  0  0  0
   29.3560   52.8230   -6.1300 N   0  0  0  0  0  0  0  0  0  0  0  0
   28.9610   51.3640   -8.2050 S   0  0  0  0  0  0  0  0  0  0  0  0
   29.5860   51.5110   -5.7490 C   0  0  0  0  0  0  0  0  0  0  0  0
   29.4180   50.5590   -6.7550 C   0  0  0  0  0  0  0  0  0  0  0  0
   29.9640   51.0770   -4.4640 C   0  0  0  0  0  0  0  0  0  0  0  0
   29.6130   49.1890   -6.5170 C   0  0  0  0  0  0  0  0  0  0  0  0
   30.1620   49.7130   -4.2150 C   0  0  0  0  0  0  0  0  0  0  0  0
   29.9880   48.7780   -5.2300 C   0  0  0  0  0  0  0  0  0  0  0  0
   30.1630   47.4320   -5.0690 O   0  0  0  0  0  0  0  0  0  0  0  0
   30.0470   46.6000   -6.2320 C   0  0  0  0  0  0  0  0  0  0  0  0
   30.7020   45.2260   -6.0510 C   0  0  0  0  0  0  0  0  0  0  0  0
   32.0730   45.2410   -6.5780 N   0  0  0  0  0  0  0  0  0  0  0  0
   33.0670   45.2410   -5.7590 C   0  0  0  0  0  0  0  0  0  0  0  0
   34.3430   45.2600   -6.1910 O   0  0  0  0  0  0  0  0  0  0  0  0
   32.8660   45.2180   -4.2660 C   0  0  0  0  0  0  0  0  0  0  0  0
   34.1140   44.9720   -3.5610 N   0  0  0  0  0  0  0  0  0  0  0  0
   34.3330   43.7350   -3.0470 N   0  0  0  0  0  0  0  0  0  0  0  0
   35.1410   45.8320   -3.3250 C   0  0  0  0  0  0  0  0  0  0  0  0
   35.5490   43.8170   -2.4600 C   0  0  0  0  0  0  0  0  0  0  0  0
   36.0890   45.1220   -2.6170 C   0  0  0  0  0  0  0  0  0  0  0  0
   35.2420   47.2540   -3.7370 C   0  0  0  0  0  0  0  0  0  0  0  0
   36.2000   42.6560   -1.7470 C   0  0  0  0  0  0  0  0  0  0  0  0
   37.3790   45.7170   -2.1630 C   0  0  0  0  0  0  0  0  0  0  0  0
   36.3380   47.9410   -2.9050 C   0  0  0  0  0  0  0  0  0  0  0  0
   37.2870   42.1580   -2.3950 F   0  0  0  0  0  0  0  0  0  0  0  0
   36.6160   43.0090   -0.5020 F   0  0  0  0  0  0  0  0  0  0  0  0
   35.3320   41.6200   -1.5780 F   0  0  0  0  0  0  0  0  0  0  0  0
   37.6230   47.0930   -2.8180 C   0  0  0  0  0  0  0  0  0  0  0  0
  1  2  1  0
  2  3  2  0
  2  4  1  0
  3  5  1  0
  4  6  1  0
  5  6  2  0
  5  7  1  0
  6  8  1  0
  7  9  2  0
  8 10  2  0
  9 10  1  0
 10 11  1  0
 11 12  1  0
 12 13  1  0
 13 14  1  0
 14 15  2  3
 15 16  1  0
 15 17  1  0
 17 18  1  0
 18 19  1  0
 18 20  1  0
 19 21  2  0
 20 22  2  0
 21 22  1  0
 20 23  1  0
 21 24  1  0
 22 25  1  0
 23 26  1  0
 24 27  1  0
 24 28  1  0
 24 29  1  0
 25 30  1  0
 26 30  1  0
M  END
