mac-x0397-mac-x0587
     RDKit          3D

 21 22  0  0  0  0  0  0  0  0999 V2000
   29.5440   52.7220   -2.3340 Cl  0  0  0  0  0  0  0  0  0  0  0  0
   29.8380   51.4860   -3.5940 C   0  0  2  0  0  0  0  0  0  0  0  0
   29.0870   51.7810   -4.8870 C   0  0  1  0  0  0  0  0  0  0  0  0
   29.3330   50.1420   -3.0930 C   0  0  0  0  0  0  0  0  0  0  0  0
   29.1120   53.1900   -5.3610 N   0  0  0  0  0  0  0  0  0  0  0  0
   29.6960   50.8740   -5.9530 C   0  0  2  0  0  0  0  0  0  0  0  0
   29.3440   48.9930   -4.1140 C   0  0  2  0  0  0  0  0  0  0  0  0
   30.3620   47.9880   -3.6030 C   0  0  0  0  0  0  0  0  0  0  0  0
   29.1570   53.1950   -6.8120 C   0  0  1  0  0  0  0  0  0  0  0  0
   28.8520   51.5260   -7.3960 S   0  0  0  0  0  0  0  0  0  0  0  0
   29.5240   49.3850   -5.5940 C   0  0  0  0  0  0  0  0  0  0  0  0
   28.1490   54.1200   -7.2270 N   0  0  0  0  0  0  0  0  0  0  0  0
   30.4890   46.5830   -4.1830 C   0  0  2  0  0  0  0  0  0  0  0  0
   31.0830   48.3290   -2.6620 O   0  0  0  0  0  0  0  0  0  0  0  0
   29.5160   48.4720   -6.4270 O   0  0  0  0  0  0  0  0  0  0  0  0
   29.3850   45.6430   -3.7090 C   0  0  0  0  0  0  0  0  0  0  0  0
   32.1250   45.8960   -3.7090 S   0  0  0  0  0  0  0  0  0  0  0  0
   33.2000   46.6490   -4.9810 C   0  0  0  0  0  0  0  0  0  0  0  0
   33.2750   45.8560   -6.2650 C   0  0  0  0  0  0  0  0  0  0  0  0
   34.2660   45.5690   -6.9130 O   0  0  0  0  0  0  0  0  0  0  0  0
   32.0590   45.4470   -6.6880 O   0  0  0  0  0  0  0  0  0  0  0  0
  2  1  1  1
  2  3  1  0
  2  4  1  0
  3  5  1  6
  3  6  1  0
  4  7  1  0
  7  8  1  1
  5  9  1  0
  6 10  1  6
  9 10  1  0
  6 11  1  0
  7 11  1  0
  9 12  1  6
  8 13  1  0
  8 14  2  0
 11 15  2  0
 13 16  1  1
 13 17  1  0
 17 18  1  0
 18 19  1  0
 19 20  2  0
 19 21  1  0
M  END
