mac-x0402-mac-x0319
     RDKit          3D

 25 27  0  0  0  0  0  0  0  0999 V2000
   31.1510   48.9540   -2.6400 Cl  0  0  0  0  0  0  0  0  0  0  0  0
   30.4490   50.1490   -3.6790 C   0  0  0  0  0  0  0  0  0  0  0  0
   29.9830   51.3030   -3.0490 C   0  0  0  0  0  0  0  0  0  0  0  0
   30.3550   49.9650   -5.0840 C   0  0  0  0  0  0  0  0  0  0  0  0
   30.8650   48.7070   -5.7660 C   0  0  0  0  0  0  0  0  0  0  0  0
   29.7530   51.0370   -5.8040 C   0  0  0  0  0  0  0  0  0  0  0  0
   29.4010   52.3300   -3.7890 C   0  0  0  0  0  0  0  0  0  0  0  0
   31.9040   48.9590   -6.8690 C   0  0  0  0  0  0  0  0  0  0  0  0
   29.2820   52.2000   -5.1830 C   0  0  0  0  0  0  0  0  0  0  0  0
   29.4550   51.2020   -7.5070 S   0  0  0  0  0  0  0  0  0  0  0  0
   31.9440   47.8620   -7.9360 C   0  0  0  0  0  0  0  0  0  0  0  0
   28.7580   52.7410   -7.2590 C   0  0  0  0  0  0  0  0  0  0  0  0
   28.7230   53.1520   -6.0210 N   0  0  0  0  0  0  0  0  0  0  0  0
   28.2810   53.4720   -8.2790 N   0  0  0  0  0  0  0  0  0  0  0  0
   31.5730   46.6030   -7.3030 N   0  0  0  0  0  0  0  0  0  0  0  0
   32.4680   45.9860   -6.6190 C   0  0  0  0  0  0  0  0  0  0  0  0
   33.6760   46.5740   -6.5690 O   0  0  0  0  0  0  0  0  0  0  0  0
   32.3860   44.6980   -5.8480 C   0  0  0  0  0  0  0  0  0  0  0  0
   31.4830   44.7990   -4.6400 C   0  0  0  0  0  0  0  0  0  0  0  0
   30.3320   44.0080   -4.5320 C   0  0  0  0  0  0  0  0  0  0  0  0
   31.7920   45.6950   -3.6030 C   0  0  0  0  0  0  0  0  0  0  0  0
   29.5130   44.1170   -3.4090 C   0  0  0  0  0  0  0  0  0  0  0  0
   30.9640   45.7970   -2.4810 C   0  0  0  0  0  0  0  0  0  0  0  0
   28.3850   43.3630   -3.2740 O   0  0  0  0  0  0  0  0  0  0  0  0
   29.8220   45.0060   -2.3860 C   0  0  0  0  0  0  0  0  0  0  0  0
  1  2  1  0
  2  3  2  0
  2  4  1  0
  4  5  1  0
  4  6  2  0
  3  7  1  0
  5  8  1  0
  6  9  1  0
  7  9  2  0
  6 10  1  0
  8 11  1  0
 10 12  1  0
  9 13  1  0
 12 13  2  0
 12 14  1  0
 11 15  1  0
 15 16  2  3
 16 17  1  0
 16 18  1  0
 18 19  1  0
 19 20  2  0
 19 21  1  0
 20 22  1  0
 21 23  2  0
 22 24  1  0
 22 25  2  0
 23 25  1  0
M  END
