mac-x0142-mac-x0576
     RDKit          3D

 20 23  0  0  0  0  0  0  0  0999 V2000
   28.3150   47.3740   -9.0850 N   0  0  0  0  0  0  0  0  0  0  0  0
   28.6630   48.0350   -7.9300 C   0  0  0  0  0  0  0  0  0  0  0  0
   29.4060   47.2300   -6.8920 N   0  0  0  0  0  0  0  0  0  0  0  0
   28.3340   49.2870   -7.8130 N   0  0  0  0  0  0  0  0  0  0  0  0
   29.6530   46.0020   -7.1650 O   0  0  0  0  0  0  0  0  0  0  0  0
   28.6500   49.9930   -6.6990 C   0  0  0  0  0  0  0  0  0  0  0  0
   29.8110   47.9200   -5.6030 C   0  0  0  0  0  0  0  0  0  0  0  0
   30.4850   47.3410   -4.5670 N   0  0  0  0  0  0  0  0  0  0  0  0
   29.3670   49.3920   -5.5820 C   0  0  0  0  0  0  0  0  0  0  0  0
   28.3320   51.2350   -6.5650 N   0  0  0  0  0  0  0  0  0  0  0  0
   31.2340   48.0530   -3.5070 C   0  0  0  0  0  0  0  0  0  0  0  0
   30.3510   45.8670   -4.3260 C   0  0  0  0  0  0  0  0  0  0  0  0
   29.4620   50.4090   -4.7280 C   0  0  0  0  0  0  0  0  0  0  0  0
   28.8130   51.5840   -5.3350 C   0  0  0  0  0  0  0  0  0  0  0  0
   28.7440   52.6690   -4.7830 O   0  0  0  0  0  0  0  0  0  0  0  0
   31.7330   45.2510   -4.1790 C   0  0  0  0  0  0  0  0  0  0  0  0
   32.6280   47.4580   -3.3950 C   0  0  0  0  0  0  0  0  0  0  0  0
   31.8680   43.7500   -4.3320 C   0  0  0  0  0  0  0  0  0  0  0  0
   32.4140   44.6570   -5.3970 C   0  0  0  0  0  0  0  0  0  0  0  0
   32.5880   45.9480   -3.1490 C   0  0  0  0  0  0  0  0  0  0  0  0
  1  2  1  0
  2  3  1  0
  2  4  2  0
  3  5  1  0
  4  6  1  0
  3  7  2  0
  7  8  1  0
  6  9  1  0
  7  9  1  0
  6 10  2  0
  8 11  1  0
  8 12  1  0
  9 13  2  0
 10 14  1  0
 13 14  1  0
 14 15  2  0
 16 12  1  0
 11 17  1  0
 16 18  1  0
 16 19  1  0
 18 19  1  0
 16 20  1  0
 17 20  1  0
M  CHG  2   3   1   5  -1
M  END
