mac-x0142-mac-x0371
     RDKit          3D

 22 25  0  0  0  0  0  0  0  0999 V2000
   33.3500   43.8400   -4.5430 Cl  0  0  0  0  0  0  0  0  0  0  0  0
   32.0800   44.9990   -4.0370 C   0  0  2  0  0  0  0  0  0  0  0  0
   30.7840   44.6720   -4.7660 C   0  0  0  0  0  0  0  0  0  0  0  0
   32.5410   46.4530   -4.2950 C   0  0  1  0  0  0  0  0  0  0  0  0
   33.1370   46.6950   -5.6970 C   0  0  0  0  0  0  0  0  0  0  0  0
   30.4310   43.2260   -5.0880 C   0  0  0  0  0  0  0  0  0  0  0  0
   30.8780   44.1390   -6.1920 C   0  0  0  0  0  0  0  0  0  0  0  0
   31.3760   47.4090   -3.9770 C   0  0  0  0  0  0  0  0  0  0  0  0
   29.6690   45.6450   -4.4730 C   0  0  0  0  0  0  0  0  0  0  0  0
   34.5710   47.1780   -5.6810 C   0  0  0  0  0  0  0  0  0  0  0  0
   30.1430   47.0190   -4.7000 N   0  0  0  0  0  0  0  0  0  0  0  0
   34.9760   47.6730   -6.8700 O   0  0  0  0  0  0  0  0  0  0  0  0
   35.3260   47.1480   -4.7150 O   0  0  0  0  0  0  0  0  0  0  0  0
   29.4750   47.8840   -5.5850 C   0  0  0  0  0  0  0  0  0  0  0  0
   28.8540   47.3770   -6.7150 N   0  0  0  0  0  0  0  0  0  0  0  0
   29.3730   49.2210   -5.4430 C   0  0  0  0  0  0  0  0  0  0  0  0
   28.1860   48.1630   -7.6110 C   0  0  0  0  0  0  0  0  0  0  0  0
   28.6360   50.0210   -6.4550 C   0  0  0  0  0  0  0  0  0  0  0  0
   29.8040   50.2170   -4.5170 C   0  0  0  0  0  0  0  0  0  0  0  0
   28.0440   49.4460   -7.5460 N   0  0  0  0  0  0  0  0  0  0  0  0
   28.6250   51.2970   -6.1780 N   0  0  0  0  0  0  0  0  0  0  0  0
   29.3420   51.3830   -4.9960 C   0  0  0  0  0  0  0  0  0  0  0  0
  2  1  1  6
  2  3  1  0
  2  4  1  0
  4  5  1  6
  3  6  1  0
  3  7  1  0
  6  7  1  0
  4  8  1  0
  3  9  1  0
  5 10  1  0
  8 11  1  0
  9 11  1  0
 10 12  1  0
 10 13  2  0
 11 14  1  0
 14 15  1  0
 14 16  2  0
 15 17  1  0
 16 18  1  0
 16 19  1  0
 17 20  2  0
 18 20  1  0
 18 21  2  0
 19 22  2  0
 21 22  1  0
M  END
