mac-x0204-mac-x0380
     RDKit          3D

 25 27  0  0  0  0  0  0  0  0999 V2000
   31.2630   47.2740   -5.9800 O   0  0  0  0  0  0  0  0  0  0  0  0
   30.6130   46.6130   -4.8990 C   0  0  0  0  0  0  0  0  0  0  0  0
   30.5270   45.2530   -5.3010 O   0  0  0  0  0  0  0  0  0  0  0  0
   29.1920   47.2040   -4.7130 C   0  0  0  0  0  0  0  0  0  0  0  0
   31.4450   46.7130   -3.6370 C   0  0  0  0  0  0  0  0  0  0  0  0
   29.2490   48.6440   -4.8600 O   0  0  0  0  0  0  0  0  0  0  0  0
   30.9420   46.3990   -2.3640 C   0  0  0  0  0  0  0  0  0  0  0  0
   32.7770   47.1330   -3.7010 C   0  0  0  0  0  0  0  0  0  0  0  0
   28.0930   49.2820   -4.5470 C   0  0  0  0  0  0  0  0  0  0  0  0
   31.7650   46.5170   -1.2480 C   0  0  0  0  0  0  0  0  0  0  0  0
   33.5980   47.2550   -2.6300 N   0  0  0  0  0  0  0  0  0  0  0  0
   31.3210   46.2250    0.0050 O   0  0  0  0  0  0  0  0  0  0  0  0
   27.1810   48.8230   -3.8770 O   0  0  0  0  0  0  0  0  0  0  0  0
   33.0700   46.9430   -1.4250 C   0  0  0  0  0  0  0  0  0  0  0  0
   28.0700   50.6480   -5.1380 C   0  0  0  0  0  0  0  0  0  0  0  0
   28.3620   51.7960   -4.3910 C   0  0  0  0  0  0  0  0  0  0  0  0
   27.7400   50.7750   -6.4930 C   0  0  0  0  0  0  0  0  0  0  0  0
   28.3260   53.0630   -4.9920 C   0  0  0  0  0  0  0  0  0  0  0  0
   27.7020   52.0340   -7.0960 C   0  0  0  0  0  0  0  0  0  0  0  0
   27.9950   53.1790   -6.3490 C   0  0  0  0  0  0  0  0  0  0  0  0
   28.7080   54.4870   -3.9970 S   0  0  0  0  0  0  0  0  0  0  0  0
   27.9440   54.4200   -7.0000 N   0  0  0  0  0  0  0  0  0  0  0  0
   29.3160   55.5880   -5.2940 C   0  0  0  0  0  0  0  0  0  0  0  0
   28.4590   55.5970   -6.5390 C   0  0  0  0  0  0  0  0  0  0  0  0
   28.2120   56.6420   -7.1450 O   0  0  0  0  0  0  0  0  0  0  0  0
  2  1  1  0
  2  3  1  0
  2  4  1  0
  2  5  1  0
  4  6  1  0
  5  7  2  0
  5  8  1  0
  6  9  1  0
  7 10  1  0
  8 11  2  0
 10 12  1  0
  9 13  2  0
 10 14  2  0
 11 14  1  0
  9 15  1  0
 15 16  2  0
 15 17  1  0
 16 18  1  0
 17 19  2  0
 18 20  2  0
 19 20  1  0
 18 21  1  0
 20 22  1  0
 21 23  1  0
 22 24  1  0
 23 24  1  0
 24 25  2  0
M  END
