mac-x0404-mac-x0228
     RDKit          3D

 27 30  0  0  0  0  0  0  0  0999 V2000
   31.6090   45.4580   -7.0730 O   0  0  0  0  0  0  0  0  0  0  0  0
   32.4970   45.4020   -6.0560 C   0  0  0  0  0  0  0  0  0  0  0  0
   33.6890   45.5690   -6.2830 O   0  0  0  0  0  0  0  0  0  0  0  0
   31.8800   45.1280   -4.6980 C   0  0  0  0  0  0  0  0  0  0  0  0
   30.6410   45.8290   -4.5540 O   0  0  0  0  0  0  0  0  0  0  0  0
   30.3170   45.9790   -3.2170 C   0  0  0  0  0  0  0  0  0  0  0  0
   29.7920   44.8680   -2.5100 C   0  0  0  0  0  0  0  0  0  0  0  0
   30.5050   47.2200   -2.5730 C   0  0  0  0  0  0  0  0  0  0  0  0
   31.0020   48.3780   -3.1850 N   0  0  0  0  0  0  0  0  0  0  0  0
   29.4640   45.0280   -1.1400 C   0  0  0  0  0  0  0  0  0  0  0  0
   30.1750   47.3410   -1.2250 C   0  0  0  0  0  0  0  0  0  0  0  0
   29.5760   43.6070   -3.1040 C   0  0  0  0  0  0  0  0  0  0  0  0
   30.1440   49.3290   -3.3300 C   0  0  0  0  0  0  0  0  0  0  0  0
   29.6630   46.2630   -0.5160 C   0  0  0  0  0  0  0  0  0  0  0  0
   28.9410   43.9480   -0.4180 C   0  0  0  0  0  0  0  0  0  0  0  0
   29.0530   42.5430   -2.3690 C   0  0  0  0  0  0  0  0  0  0  0  0
   28.8980   49.0810   -2.8970 O   0  0  0  0  0  0  0  0  0  0  0  0
   28.7360   42.7130   -1.0270 C   0  0  0  0  0  0  0  0  0  0  0  0
   30.2060   50.6890   -3.8720 C   0  0  0  0  0  0  0  0  0  0  0  0
   29.8130   50.9590   -5.1880 C   0  0  0  0  0  0  0  0  0  0  0  0
   30.6650   51.7160   -3.0270 C   0  0  0  0  0  0  0  0  0  0  0  0
   29.8900   52.2690   -5.6250 C   0  0  0  0  0  0  0  0  0  0  0  0
   30.7360   53.0300   -3.4850 C   0  0  0  0  0  0  0  0  0  0  0  0
   30.3430   53.2770   -4.7820 C   0  0  0  0  0  0  0  0  0  0  0  0
   29.5490   52.8520   -6.9390 C   0  0  0  0  0  0  0  0  0  0  0  0
   30.3570   54.5160   -5.3650 O   0  0  0  0  0  0  0  0  0  0  0  0
   30.1840   54.2320   -6.7730 C   0  0  0  0  0  0  0  0  0  0  0  0
  1  2  1  0
  2  3  2  0
  2  4  1  0
  4  5  1  0
  5  6  1  0
  6  7  2  0
  6  8  1  0
  8  9  1  0
  7 10  1  0
  8 11  2  0
  7 12  1  0
  9 13  2  3
 10 14  2  0
 11 14  1  0
 10 15  1  0
 12 16  2  0
 13 17  1  0
 15 18  2  0
 16 18  1  0
 13 19  1  0
 19 20  2  0
 19 21  1  0
 20 22  1  0
 21 23  2  0
 22 24  2  0
 23 24  1  0
 22 25  1  0
 24 26  1  0
 25 27  1  0
 26 27  1  0
M  END
