mac-x0412-mac-x0379
     RDKit          3D

 15 16  0  0  0  0  0  0  0  0999 V2000
   29.8620   54.2490   -4.3060 O   0  0  0  0  0  0  0  0  0  0  0  0
   29.1980   53.5520   -5.0680 C   0  0  0  0  0  0  0  0  0  0  0  0
   28.7040   54.0710   -6.2540 N   0  0  0  0  0  0  0  0  0  0  0  0
   28.8550   52.0590   -4.7550 C   0  0  1  0  0  0  0  0  0  0  0  0
   28.9620   51.2260   -6.0270 C   0  0  0  0  0  0  0  0  0  0  0  0
   28.5340   53.2520   -7.2380 C   0  0  0  0  0  0  0  0  0  0  0  0
   29.6460   51.4570   -3.6210 C   0  0  0  0  0  0  0  0  0  0  0  0
   29.9610   52.3760   -2.4940 C   0  0  0  0  0  0  0  0  0  0  0  0
   28.8080   51.8000   -7.2320 C   0  0  0  0  0  0  0  0  0  0  0  0
   29.2280   49.7920   -5.8780 C   0  0  0  0  0  0  0  0  0  0  0  0
   30.0460   50.1690   -3.6290 C   0  0  0  0  0  0  0  0  0  0  0  0
   29.7430   49.2720   -4.7350 C   0  0  0  0  0  0  0  0  0  0  0  0
   30.0170   47.7970   -4.5620 C   0  0  0  0  0  0  0  0  0  0  0  0
   30.6850   47.2960   -3.6690 O   0  0  0  0  0  0  0  0  0  0  0  0
   29.4550   47.0050   -5.4940 O   0  0  0  0  0  0  0  0  0  0  0  0
  1  2  2  0
  2  3  1  0
  4  2  1  6
  4  5  1  0
  3  6  2  0
  4  7  1  0
  7  8  1  0
  5  9  2  0
  6  9  1  0
  5 10  1  0
  7 11  2  0
 10 12  2  0
 11 12  1  0
 12 13  1  0
 13 14  2  0
 13 15  1  0
M  END
