mac-x0271-mac-x0321
     RDKit          3D

 15 16  0  0  0  0  0  0  0  0999 V2000
   30.3460   49.1240   -3.8000 C   0  0  0  0  0  0  0  0  0  0  0  0
   30.2100   48.0680   -4.6250 O   0  0  0  0  0  0  0  0  0  0  0  0
   30.8080   48.9920   -2.6830 O   0  0  0  0  0  0  0  0  0  0  0  0
   29.8780   50.3900   -4.4230 C   0  0  0  0  0  0  0  0  0  0  0  0
   30.0270   51.6030   -3.7340 C   0  0  0  0  0  0  0  0  0  0  0  0
   29.2920   50.3890   -5.6950 C   0  0  0  0  0  0  0  0  0  0  0  0
   29.5840   52.7890   -4.3370 C   0  0  0  0  0  0  0  0  0  0  0  0
   28.8570   51.5860   -6.2770 C   0  0  0  0  0  0  0  0  0  0  0  0
   28.1460   51.4960   -7.8490 Cl  0  0  0  0  0  0  0  0  0  0  0  0
   29.0000   52.8050   -5.6070 C   0  0  0  0  0  0  0  0  0  0  0  0
   29.7560   53.9870   -3.6060 O   0  0  0  0  0  0  0  0  0  0  0  0
   28.5740   54.0880   -6.1530 C   0  0  0  0  0  0  0  0  0  0  0  0
   29.4030   55.2220   -4.1360 C   0  0  0  0  0  0  0  0  0  0  0  0
   29.6010   56.2790   -3.5470 O   0  0  0  0  0  0  0  0  0  0  0  0
   28.7670   55.2120   -5.4610 C   0  0  0  0  0  0  0  0  0  0  0  0
  1  2  1  0
  1  3  2  0
  1  4  1  0
  4  5  2  0
  4  6  1  0
  5  7  1  0
  6  8  2  0
  8  9  1  0
  7 10  2  0
  8 10  1  0
  7 11  1  0
 10 12  1  0
 11 13  1  0
 13 14  2  0
 12 15  2  0
 13 15  1  0
M  END
