mac-x0411-mac-x0213
     RDKit          3D

 23 25  0  0  0  0  0  0  0  0999 V2000
   37.6920   44.1670   -3.3480 Cl  0  0  0  0  0  0  0  0  0  0  0  0
   36.9120   45.6840   -3.0870 C   0  0  0  0  0  0  0  0  0  0  0  0
   35.7710   46.0500   -3.8120 C   0  0  0  0  0  0  0  0  0  0  0  0
   37.4470   46.5480   -2.1300 C   0  0  0  0  0  0  0  0  0  0  0  0
   35.2780   45.1740   -4.7500 O   0  0  0  0  0  0  0  0  0  0  0  0
   35.1710   47.2990   -3.5620 C   0  0  0  0  0  0  0  0  0  0  0  0
   36.8470   47.7830   -1.8890 C   0  0  0  0  0  0  0  0  0  0  0  0
   33.7650   47.8390   -4.4050 Cl  0  0  0  0  0  0  0  0  0  0  0  0
   33.9050   44.8500   -4.5540 C   0  0  0  0  0  0  0  0  0  0  0  0
   35.7110   48.1570   -2.6040 C   0  0  0  0  0  0  0  0  0  0  0  0
   33.1500   44.9910   -5.8540 C   0  0  0  0  0  0  0  0  0  0  0  0
   31.6910   45.3730   -5.7340 C   0  0  0  0  0  0  0  0  0  0  0  0
   33.6440   44.8100   -6.9630 O   0  0  0  0  0  0  0  0  0  0  0  0
   31.0720   45.6770   -6.7500 O   0  0  0  0  0  0  0  0  0  0  0  0
   31.1270   45.3330   -4.3220 C   0  0  0  0  0  0  0  0  0  0  0  0
   30.9510   46.7490   -3.7390 C   0  0  0  0  0  0  0  0  0  0  0  0
   29.7390   44.6700   -4.2620 C   0  0  0  0  0  0  0  0  0  0  0  0
   29.8460   46.5140   -2.7570 C   0  0  0  0  0  0  0  0  0  0  0  0
   29.1590   45.3330   -3.0540 C   0  0  0  0  0  0  0  0  0  0  0  0
   29.4830   47.3000   -1.6740 C   0  0  0  0  0  0  0  0  0  0  0  0
   28.0960   44.9110   -2.2760 C   0  0  0  0  0  0  0  0  0  0  0  0
   28.4110   46.8810   -0.8840 C   0  0  0  0  0  0  0  0  0  0  0  0
   27.7220   45.6950   -1.1850 C   0  0  0  0  0  0  0  0  0  0  0  0
  1  2  1  0
  2  3  2  0
  2  4  1  0
  3  5  1  0
  3  6  1  0
  4  7  2  0
  6  8  1  0
  5  9  1  0
  6 10  2  0
  7 10  1  0
  9 11  1  0
 11 12  1  0
 11 13  2  0
 12 14  2  0
 12 15  1  0
 15 16  1  0
 15 17  1  0
 16 18  1  0
 17 19  1  0
 18 19  2  0
 18 20  1  0
 19 21  1  0
 20 22  2  0
 21 23  2  0
 22 23  1  0
M  END
