mac-x0565-mac-x0392
     RDKit          3D

 21 23  0  0  0  0  0  0  0  0999 V2000
   31.1790   53.1500   -5.2220 O   0  0  0  0  0  0  0  0  0  0  0  0
   30.3660   53.0160   -4.1530 C   0  0  0  0  0  0  0  0  0  0  0  0
   29.7580   53.9500   -3.6560 O   0  0  0  0  0  0  0  0  0  0  0  0
   30.2740   51.6270   -3.6280 C   0  0  0  0  0  0  0  0  0  0  0  0
   30.6790   50.5170   -4.3940 C   0  0  0  0  0  0  0  0  0  0  0  0
   29.7650   51.4570   -2.3270 C   0  0  0  0  0  0  0  0  0  0  0  0
   30.5630   49.2490   -3.8370 C   0  0  0  0  0  0  0  0  0  0  0  0
   29.6520   50.1820   -1.7760 C   0  0  0  0  0  0  0  0  0  0  0  0
   30.0550   49.1130   -2.5490 C   0  0  0  0  0  0  0  0  0  0  0  0
   30.8880   47.9880   -4.3760 N   0  0  0  0  0  0  0  0  0  0  0  0
   30.0060   47.8040   -2.1530 O   0  0  0  0  0  0  0  0  0  0  0  0
   30.2320   47.1050   -3.4010 C   0  0  0  0  0  0  0  0  0  0  0  0
   30.6510   47.7250   -5.7870 C   0  0  1  0  0  0  0  0  0  0  0  0
   30.4620   46.3240   -5.9510 O   0  0  0  0  0  0  0  0  0  0  0  0
   29.4080   48.4100   -6.3400 C   0  0  0  0  0  0  0  0  0  0  0  0
   29.2450   48.6170   -7.7180 C   0  0  0  0  0  0  0  0  0  0  0  0
   28.3840   48.8540   -5.4740 C   0  0  0  0  0  0  0  0  0  0  0  0
   30.2000   48.2080   -8.6630 N   0  0  0  0  0  0  0  0  0  0  0  0
   27.2620   49.4740   -6.0000 C   0  0  0  0  0  0  0  0  0  0  0  0
   28.0690   49.2550   -8.1330 C   0  0  0  0  0  0  0  0  0  0  0  0
   27.0810   49.6860   -7.3150 N   0  0  0  0  0  0  0  0  0  0  0  0
  1  2  1  0
  2  3  2  0
  2  4  1  0
  4  5  2  0
  4  6  1  0
  5  7  1  0
  6  8  2  0
  7  9  2  0
  8  9  1  0
  7 10  1  0
  9 11  1  0
 10 12  1  0
 11 12  1  0
 10 13  1  0
 13 14  1  1
 13 15  1  0
 15 16  2  0
 15 17  1  0
 16 18  1  0
 17 19  2  0
 16 20  1  0
 19 21  1  0
 20 21  2  0
M  END
