mac-x0572-mac-x0231
     RDKit          3D

 30 33  0  0  0  0  0  0  0  0999 V2000
   28.5560   55.8060   -7.3390 C   0  0  0  0  0  0  0  0  0  0  0  0
   28.9180   54.7040   -6.3760 C   0  0  0  0  0  0  0  0  0  0  0  0
   28.4540   53.4390   -6.7400 N   0  0  0  0  0  0  0  0  0  0  0  0
   29.6280   54.9710   -5.2630 C   0  0  0  0  0  0  0  0  0  0  0  0
   30.0760   56.2240   -4.8920 O   0  0  0  0  0  0  0  0  0  0  0  0
   29.9530   53.8490   -4.3690 C   0  0  0  0  0  0  0  0  0  0  0  0
   28.9020   52.3900   -6.0950 C   0  0  0  0  0  0  0  0  0  0  0  0
   30.2270   54.0730   -3.1900 O   0  0  0  0  0  0  0  0  0  0  0  0
   29.9230   52.4830   -4.9810 C   0  0  2  0  0  0  0  0  0  0  0  0
   28.4150   51.0140   -6.4150 C   0  0  0  0  0  0  0  0  0  0  0  0
   28.4670   50.0840   -5.4240 C   0  0  0  0  0  0  0  0  0  0  0  0
   29.6600   51.5070   -3.9040 C   0  0  0  0  0  0  0  0  0  0  0  0
   28.9820   50.3920   -4.0750 C   0  0  0  0  0  0  0  0  0  0  0  0
   28.7570   49.4900   -2.8680 C   0  0  0  0  0  0  0  0  0  0  0  0
   29.9960   49.2230   -1.9580 C   0  0  0  0  0  0  0  0  0  0  0  0
   30.6100   47.9930   -2.5160 C   0  0  0  0  0  0  0  0  0  0  0  0
   29.7750   46.8990   -2.5320 C   0  0  0  0  0  0  0  0  0  0  0  0
   31.9100   47.9000   -3.0310 C   0  0  0  0  0  0  0  0  0  0  0  0
   30.1910   45.7140   -3.0820 C   0  0  0  0  0  0  0  0  0  0  0  0
   32.3360   46.6910   -3.5950 C   0  0  0  0  0  0  0  0  0  0  0  0
   31.4550   45.5960   -3.6340 C   0  0  0  0  0  0  0  0  0  0  0  0
   29.2650   44.5820   -3.0870 C   0  0  0  0  0  0  0  0  0  0  0  0
   28.1270   44.6890   -2.6370 O   0  0  0  0  0  0  0  0  0  0  0  0
   31.7760   44.2940   -4.2520 C   0  0  0  0  0  0  0  0  0  0  0  0
   29.7570   43.4160   -3.6100 N   0  0  0  0  0  0  0  0  0  0  0  0
   33.0810   44.1320   -4.9990 C   0  0  0  0  0  0  0  0  0  0  0  0
   30.9600   43.2740   -4.2360 N   0  0  0  0  0  0  0  0  0  0  0  0
   33.1260   44.9780   -6.2520 C   0  0  0  0  0  0  0  0  0  0  0  0
   34.3650   45.4310   -6.5490 O   0  0  0  0  0  0  0  0  0  0  0  0
   32.1610   45.2510   -6.9540 O   0  0  0  0  0  0  0  0  0  0  0  0
  1  2  1  0
  2  3  1  0
  2  4  2  0
  4  5  1  0
  4  6  1  0
  3  7  2  0
  6  8  2  0
  6  9  1  0
  7  9  1  0
  7 10  1  0
 10 11  2  0
  9 12  1  1
 11 13  1  0
 12 13  2  0
 13 14  1  0
 14 15  1  0
 15 16  1  0
 16 17  2  0
 16 18  1  0
 17 19  1  0
 18 20  2  0
 19 21  2  0
 20 21  1  0
 19 22  1  0
 22 23  2  0
 21 24  1  0
 22 25  1  0
 24 26  1  0
 24 27  2  0
 25 27  1  0
 26 28  1  0
 28 29  1  0
 28 30  2  0
M  END
