mac-x0303-mac-x0228
     RDKit          3D

 16 17  0  0  0  0  0  0  0  0999 V2000
   30.3670   56.2250   -6.8360 N   0  0  0  0  0  0  0  0  0  0  0  0
   29.0780   55.8900   -5.8060 S   0  0  0  0  0  0  0  0  0  0  0  0
   27.8470   55.9400   -6.5510 O   0  0  0  0  0  0  0  0  0  0  0  0
   29.2910   56.6500   -4.5960 O   0  0  0  0  0  0  0  0  0  0  0  0
   29.2600   54.1990   -5.3240 C   0  0  0  0  0  0  0  0  0  0  0  0
   29.3450   53.8320   -4.0120 N   0  0  0  0  0  0  0  0  0  0  0  0
   29.3390   53.1400   -6.1270 N   0  0  0  0  0  0  0  0  0  0  0  0
   29.4930   52.4730   -3.9590 C   0  0  0  0  0  0  0  0  0  0  0  0
   29.4930   52.0560   -5.2870 C   0  0  0  0  0  0  0  0  0  0  0  0
   29.6310   51.6130   -2.8780 C   0  0  0  0  0  0  0  0  0  0  0  0
   29.6430   50.6740   -5.5740 C   0  0  0  0  0  0  0  0  0  0  0  0
   29.7830   50.2590   -3.1660 C   0  0  0  0  0  0  0  0  0  0  0  0
   29.7980   49.7860   -4.4810 C   0  0  0  0  0  0  0  0  0  0  0  0
   29.9920   48.3210   -4.6780 C   0  0  0  0  0  0  0  0  0  0  0  0
   29.6740   47.8760   -5.9060 O   0  0  0  0  0  0  0  0  0  0  0  0
   30.4180   47.5960   -3.7890 O   0  0  0  0  0  0  0  0  0  0  0  0
  2  1  1  0
  2  3  2  0
  2  4  2  0
  2  5  1  0
  5  6  1  0
  5  7  2  0
  6  8  1  0
  7  9  1  0
  8  9  2  0
  8 10  1  0
  9 11  1  0
 10 12  2  0
 11 13  2  0
 12 13  1  0
 13 14  1  0
 14 15  1  0
 14 16  2  0
M  END
