mac-x0379-mac-x0453
     RDKit          3D

 11 11  0  0  0  0  0  0  0  0999 V2000
   28.9400   52.2440   -5.4180 C   0  0  0  0  0  0  0  0  0  0  0  0
   30.0660   53.0800   -6.0500 C   0  0  0  0  0  0  0  0  0  0  0  0
   29.5810   54.3300   -6.6590 N   0  0  0  0  0  0  0  0  0  0  0  0
   29.4080   50.9320   -4.8230 C   0  0  0  0  0  0  0  0  0  0  0  0
   29.9470   50.8170   -3.6290 N   0  0  0  0  0  0  0  0  0  0  0  0
   29.2530   49.4440   -5.6850 S   0  0  0  0  0  0  0  0  0  0  0  0
   30.2570   49.4920   -3.3690 C   0  0  0  0  0  0  0  0  0  0  0  0
   29.9500   48.5910   -4.3670 C   0  0  0  0  0  0  0  0  0  0  0  0
   30.1790   47.1570   -4.3260 C   0  0  0  0  0  0  0  0  0  0  0  0
   30.8390   46.5810   -3.4710 O   0  0  0  0  0  0  0  0  0  0  0  0
   29.5800   46.4680   -5.3330 O   0  0  0  0  0  0  0  0  0  0  0  0
  1  2  1  0
  2  3  1  0
  1  4  1  0
  4  5  2  0
  4  6  1  0
  5  7  1  0
  6  8  1  0
  7  8  2  0
  8  9  1  0
  9 10  2  0
  9 11  1  0
M  END
