mac-x0204-mac-x0284
     RDKit          3D

 19 20  0  0  0  0  0  0  0  0999 V2000
   32.7070   47.0490   -5.2770 O   0  0  0  0  0  0  0  0  0  0  0  0
   30.9650   46.8700   -5.1900 S   0  0  0  0  0  0  0  0  0  0  0  0
   31.0820   47.0610   -6.5150 O   0  0  0  0  0  0  0  0  0  0  0  0
   30.1980   45.6490   -5.2840 O   0  0  0  0  0  0  0  0  0  0  0  0
   31.1980   46.6040   -3.5220 C   0  0  0  0  0  0  0  0  0  0  0  0
   30.2440   48.4850   -5.0110 C   0  0  0  0  0  0  0  0  0  0  0  0
   30.3320   47.1040   -2.5460 C   0  0  0  0  0  0  0  0  0  0  0  0
   32.2340   45.8870   -2.9930 C   0  0  0  0  0  0  0  0  0  0  0  0
   28.9240   48.7160   -4.8640 C   0  0  0  0  0  0  0  0  0  0  0  0
   31.1360   49.5160   -5.0300 C   0  0  0  0  0  0  0  0  0  0  0  0
   32.5150   49.3430   -5.1810 O   0  0  0  0  0  0  0  0  0  0  0  0
   30.4900   46.9040   -1.1950 C   0  0  0  0  0  0  0  0  0  0  0  0
   32.4070   45.6830   -1.6890 N   0  0  0  0  0  0  0  0  0  0  0  0
   28.4410   50.0020   -4.7280 C   0  0  0  0  0  0  0  0  0  0  0  0
   30.6690   50.8060   -4.8940 C   0  0  0  0  0  0  0  0  0  0  0  0
   29.5740   47.4420   -0.2670 O   0  0  0  0  0  0  0  0  0  0  0  0
   27.0010   50.3110   -4.5640 C   0  0  0  0  0  0  0  0  0  0  0  0
   31.5670   46.1710   -0.7970 C   0  0  0  0  0  0  0  0  0  0  0  0
   29.3160   51.0630   -4.7410 C   0  0  0  0  0  0  0  0  0  0  0  0
  1  2  1  0
  2  3  2  0
  2  4  1  0
  2  5  1  0
  2  6  1  0
  5  7  2  0
  5  8  1  0
  6  9  2  0
  6 10  1  0
 10 11  1  0
  7 12  1  0
  8 13  2  0
  9 14  1  0
 10 15  2  0
 12 16  1  0
 14 17  1  0
 12 18  2  0
 13 18  1  0
 14 19  2  0
 15 19  1  0
M  END
