mac-x0224-mac-x0588
     RDKit          3D

 21 23  0  0  0  0  0  0  0  0999 V2000
   28.3220   52.3650   -5.7710 C   0  0  0  0  0  0  0  0  0  0  0  0
   29.7800   51.3030   -5.8560 S   0  0  0  0  0  0  0  0  0  0  0  0
   29.0470   49.6940   -5.2770 C   0  0  1  0  0  0  0  0  0  0  0  0
   29.5060   48.3490   -6.0200 C   0  0  1  0  0  0  0  0  0  0  0  0
   29.3010   49.6740   -3.7830 C   0  0  0  0  0  0  0  0  0  0  0  0
   30.7130   47.6010   -5.2680 C   0  0  2  0  0  0  0  0  0  0  0  0
   30.3970   49.1260   -3.2820 C   0  0  0  0  0  0  0  0  0  0  0  0
   28.3270   47.4130   -6.3390 C   0  0  0  0  0  0  0  0  0  0  0  0
   29.9530   48.6180   -7.4320 N   0  0  0  0  0  0  0  0  0  0  0  0
   30.4520   46.1380   -4.7210 C   0  0  0  0  0  0  0  0  0  0  0  0
   31.3900   48.5170   -4.2080 C   0  0  1  0  0  0  0  0  0  0  0  0
   27.7030   47.9860   -7.5260 N   0  0  0  0  0  0  0  0  0  0  0  0
   28.7650   48.6190   -8.2750 C   0  0  0  0  0  0  0  0  0  0  0  0
   32.3710   47.8300   -3.4310 O   0  0  0  0  0  0  0  0  0  0  0  0
   29.8360   45.2710   -5.6620 O   0  0  0  0  0  0  0  0  0  0  0  0
   31.6860   45.4830   -4.4380 O   0  0  0  0  0  0  0  0  0  0  0  0
   29.6000   46.0850   -3.4100 C   0  0  1  0  0  0  0  0  0  0  0  0
   28.4250   46.9180   -3.5050 O   0  0  0  0  0  0  0  0  0  0  0  0
   29.1000   44.7300   -2.9430 C   0  0  0  0  0  0  0  0  0  0  0  0
   28.0210   45.1450   -1.9710 C   0  0  0  0  0  0  0  0  0  0  0  0
   27.4120   46.3500   -2.6590 C   0  0  0  0  0  0  0  0  0  0  0  0
  1  2  1  0
  3  2  1  6
  3  4  1  0
  3  5  1  0
  4  6  1  0
  5  7  2  0
  4  8  1  6
  4  9  1  0
  6 10  1  1
  6 11  1  0
  7 11  1  0
  8 12  1  0
  9 13  1  0
 12 13  1  0
 11 14  1  1
 10 15  1  0
 10 16  1  0
 17 10  1  6
 17 18  1  0
 17 19  1  0
 19 20  1  0
 18 21  1  0
 20 21  1  0
M  END
