mac-x0587-mac-x0398
     RDKit          3D

 24 25  0  0  0  0  0  0  0  0999 V2000
   30.4570   47.0290   -2.1060 C   0  0  0  0  0  0  0  0  0  0  0  0
   30.8610   46.8100   -3.5650 C   0  0  2  0  0  0  0  0  0  0  0  0
   32.7230   46.9210   -3.6150 S   0  0  0  0  0  0  0  0  0  0  0  0
   30.1190   47.7420   -4.5950 C   0  0  2  0  0  0  0  0  0  0  0  0
   33.0300   46.7300   -5.4090 C   0  0  0  0  0  0  0  0  0  0  0  0
   30.2940   49.1840   -4.2960 N   0  0  0  0  0  0  0  0  0  0  0  0
   28.7240   47.4460   -4.8880 N   0  0  0  0  0  0  0  0  0  0  0  0
   34.0080   45.6130   -5.7220 C   0  0  0  0  0  0  0  0  0  0  0  0
   29.7740   49.9720   -5.1760 C   0  0  0  0  0  0  0  0  0  0  0  0
   27.6650   48.1900   -4.2170 C   0  0  0  0  0  0  0  0  0  0  0  0
   28.2950   47.2350   -6.2130 C   0  0  0  0  0  0  0  0  0  0  0  0
   35.2240   45.7510   -5.6800 O   0  0  0  0  0  0  0  0  0  0  0  0
   33.4290   44.4330   -6.0580 O   0  0  0  0  0  0  0  0  0  0  0  0
   28.7120   46.4160   -7.0120 O   0  0  0  0  0  0  0  0  0  0  0  0
   26.9930   48.9540   -5.3470 C   0  0  0  0  0  0  0  0  0  0  0  0
   27.2810   48.1330   -6.4860 N   0  0  0  0  0  0  0  0  0  0  0  0
   29.8240   51.4420   -5.0700 C   0  0  0  0  0  0  0  0  0  0  0  0
   30.0260   52.1160   -3.8590 C   0  0  0  0  0  0  0  0  0  0  0  0
   29.6570   52.1750   -6.2460 C   0  0  0  0  0  0  0  0  0  0  0  0
   30.1980   51.4700   -2.6640 O   0  0  0  0  0  0  0  0  0  0  0  0
   30.0590   53.5110   -3.8270 C   0  0  0  0  0  0  0  0  0  0  0  0
   29.6910   53.5700   -6.2090 C   0  0  0  0  0  0  0  0  0  0  0  0
   29.8900   54.2500   -5.0050 C   0  0  0  0  0  0  0  0  0  0  0  0
   29.9190   55.6460   -4.9760 N   0  0  0  0  0  0  0  0  0  0  0  0
  2  1  1  1
  2  3  1  0
  2  4  1  0
  3  5  1  0
  4  6  1  1
  4  7  1  0
  5  8  1  0
  6  9  2  3
  7 10  1  0
  7 11  1  0
  8 12  2  0
  8 13  1  0
 11 14  2  0
 10 15  1  0
 11 16  1  0
 15 16  1  0
  9 17  1  0
 17 18  2  0
 17 19  1  0
 18 20  1  0
 18 21  1  0
 19 22  2  0
 21 23  2  0
 22 23  1  0
 23 24  1  0
M  END
