mac-x0213-mac-x0567
     RDKit          3D

 23 26  0  0  0  0  0  0  0  0999 V2000
   33.1090   46.6850   -6.0360 O   0  0  0  0  0  0  0  0  0  0  0  0
   31.8750   46.2060   -5.7710 C   0  0  0  0  0  0  0  0  0  0  0  0
   30.8990   46.1960   -6.5880 N   0  0  0  0  0  0  0  0  0  0  0  0
   31.7350   45.6810   -4.3670 C   0  0  0  0  0  0  0  0  0  0  0  0
   30.9750   46.7310   -7.9200 C   0  0  0  0  0  0  0  0  0  0  0  0
   31.5550   46.8820   -3.4140 C   0  0  0  0  0  0  0  0  0  0  0  0
   30.5090   44.7540   -4.2230 C   0  0  0  0  0  0  0  0  0  0  0  0
   29.7310   47.4000   -8.2730 N   0  0  0  0  0  0  0  0  0  0  0  0
   30.3090   46.5510   -2.6510 C   0  0  0  0  0  0  0  0  0  0  0  0
   29.7290   45.3640   -3.1000 C   0  0  0  0  0  0  0  0  0  0  0  0
   29.7420   47.2750   -1.6140 C   0  0  0  0  0  0  0  0  0  0  0  0
   28.5670   44.8760   -2.5220 C   0  0  0  0  0  0  0  0  0  0  0  0
   29.3600   48.6130   -7.7480 C   0  0  0  0  0  0  0  0  0  0  0  0
   28.5720   46.7900   -1.0270 C   0  0  0  0  0  0  0  0  0  0  0  0
   27.9890   45.5970   -1.4770 C   0  0  0  0  0  0  0  0  0  0  0  0
   28.7880   49.6030   -8.5080 N   0  0  0  0  0  0  0  0  0  0  0  0
   29.4190   49.1710   -6.4800 C   0  0  0  0  0  0  0  0  0  0  0  0
   28.4820   50.7330   -7.8460 N   0  0  0  0  0  0  0  0  0  0  0  0
   28.8630   50.5030   -6.5800 C   0  0  0  0  0  0  0  0  0  0  0  0
   29.9180   48.5830   -5.3170 C   0  0  0  0  0  0  0  0  0  0  0  0
   28.7800   51.3440   -5.4550 C   0  0  0  0  0  0  0  0  0  0  0  0
   29.8230   49.4500   -4.2040 C   0  0  0  0  0  0  0  0  0  0  0  0
   29.2810   50.7700   -4.2670 C   0  0  0  0  0  0  0  0  0  0  0  0
  1  2  1  0
  2  3  2  3
  2  4  1  0
  3  5  1  0
  4  6  1  0
  4  7  1  0
  5  8  1  0
  6  9  1  0
  7 10  1  0
  9 10  2  0
  9 11  1  0
 10 12  1  0
  8 13  1  0
 11 14  2  0
 12 15  2  0
 14 15  1  0
 13 16  1  0
 13 17  2  0
 16 18  1  0
 17 19  1  0
 18 19  2  0
 17 20  1  0
 19 21  1  0
 20 22  2  0
 21 23  2  0
 22 23  1  0
M  END
