mac-x0321-mac-x0360
     RDKit          3D

 20 22  0  0  0  0  0  0  0  0999 V2000
   31.6790   51.6860   -4.1020 N   0  0  0  0  0  0  0  0  0  0  0  0
   32.1770   50.5620   -5.4460 S   0  0  0  0  0  0  0  0  0  0  0  0
   33.7160   50.7870   -5.0110 O   0  0  0  0  0  0  0  0  0  0  0  0
   30.6800   51.0190   -3.2500 C   0  0  0  0  0  0  0  0  0  0  0  0
   31.2300   49.2260   -5.0480 C   0  0  0  0  0  0  0  0  0  0  0  0
   30.9450   50.1580   -4.1150 C   0  0  0  0  0  0  0  0  0  0  0  0
   29.8820   51.1880   -2.1400 C   0  0  0  0  0  0  0  0  0  0  0  0
   31.4710   51.8350   -6.5150 C   0  0  0  0  0  0  0  0  0  0  0  0
   30.0650   49.0450   -5.8400 O   0  0  0  0  0  0  0  0  0  0  0  0
   31.6420   48.0120   -4.4490 O   0  0  0  0  0  0  0  0  0  0  0  0
   30.0440   49.1270   -3.6000 C   0  0  0  0  0  0  0  0  0  0  0  0
   29.1050   50.1960   -1.7550 C   0  0  0  0  0  0  0  0  0  0  0  0
   32.2740   52.7600   -7.0810 C   0  0  0  0  0  0  0  0  0  0  0  0
   30.1390   51.8160   -6.7090 C   0  0  0  0  0  0  0  0  0  0  0  0
   29.1920   49.1170   -2.5250 C   0  0  0  0  0  0  0  0  0  0  0  0
   31.7210   53.7210   -7.8860 C   0  0  0  0  0  0  0  0  0  0  0  0
   29.5870   52.7790   -7.5210 C   0  0  0  0  0  0  0  0  0  0  0  0
   27.8600   52.7950   -7.8000 Cl  0  0  0  0  0  0  0  0  0  0  0  0
   32.7510   54.9110   -8.6190 Cl  0  0  0  0  0  0  0  0  0  0  0  0
   30.3630   53.7380   -8.1170 C   0  0  0  0  0  0  0  0  0  0  0  0
  1  2  1  0
  2  3  2  0
  1  4  1  0
  2  5  1  0
  4  6  2  0
  5  6  1  0
  4  7  1  0
  2  8  1  0
  5  9  1  0
  5 10  1  0
  6 11  1  0
  7 12  2  0
  8 13  2  0
  8 14  1  0
 11 15  2  0
 12 15  1  0
 13 16  1  0
 14 17  2  0
 17 18  1  0
 16 19  1  0
 16 20  2  0
 17 20  1  0
M  END
