mac-x0224-mac-x0123
     RDKit          3D

 20 22  0  0  0  0  0  0  0  0999 V2000
   27.4040   51.8900   -6.7870 C   0  0  0  0  0  0  0  0  0  0  0  0
   27.4150   50.0780   -6.7350 S   0  0  0  0  0  0  0  0  0  0  0  0
   28.9730   49.7070   -5.8030 C   0  0  2  0  0  0  0  0  0  0  0  0
   28.7230   48.4440   -4.9630 C   0  0  0  0  0  0  0  0  0  0  0  0
   29.5730   50.8770   -4.9210 C   0  0  1  0  0  0  0  0  0  0  0  0
   30.0300   47.8730   -4.3930 C   0  0  1  0  0  0  0  0  0  0  0  0
   30.7420   50.2910   -4.0450 C   0  0  0  0  0  0  0  0  0  0  0  0
   30.1700   51.9560   -5.8950 C   0  0  0  0  0  0  0  0  0  0  0  0
   28.5100   51.4820   -3.9270 C   0  0  0  0  0  0  0  0  0  0  0  0
   30.3740   46.5820   -5.0970 C   0  0  0  0  0  0  0  0  0  0  0  0
   31.1900   48.8730   -4.4110 C   0  0  1  0  0  0  0  0  0  0  0  0
   28.6350   52.8950   -3.5280 N   0  0  0  0  0  0  0  0  0  0  0  0
   30.2430   53.3620   -5.3100 C   0  0  2  0  0  0  0  0  0  0  0  0
   32.1830   48.4380   -3.4760 O   0  0  0  0  0  0  0  0  0  0  0  0
   30.5840   46.4500   -6.2920 O   0  0  0  0  0  0  0  0  0  0  0  0
   30.4420   45.5130   -4.2820 O   0  0  0  0  0  0  0  0  0  0  0  0
   28.9630   53.7750   -4.6330 C   0  0  2  0  0  0  0  0  0  0  0  0
   30.4950   54.5340   -6.2640 C   0  0  0  0  0  0  0  0  0  0  0  0
   29.3330   55.1940   -4.2090 C   0  0  0  0  0  0  0  0  0  0  0  0
   30.0350   55.7580   -5.4550 C   0  0  0  0  0  0  0  0  0  0  0  0
  1  2  1  0
  3  2  1  1
  3  4  1  0
  3  5  1  0
  4  6  1  0
  5  7  1  1
  5  8  1  0
  5  9  1  0
  6 10  1  6
  6 11  1  0
  7 11  1  0
  9 12  1  0
 13  8  1  6
 11 14  1  1
 10 15  2  0
 10 16  1  0
 12 17  1  0
 13 17  1  0
 13 18  1  0
 17 19  1  1
 18 20  1  0
 19 20  1  0
M  END
