mac-x0159-mac-x0131
     RDKit          3D

 24 27  0  0  0  0  0  0  0  0999 V2000
   28.0260   51.3800   -6.2840 N   0  0  0  0  0  0  0  0  0  0  0  0
   29.1890   50.5850   -5.9070 C   0  0  2  0  0  0  0  0  0  0  0  0
   29.3990   49.2700   -6.7110 C   0  0  1  0  0  0  0  0  0  0  0  0
   29.1820   50.4930   -4.4360 N   0  0  0  0  0  0  0  0  0  0  0  0
   29.7410   51.7040   -3.8270 C   0  0  0  0  0  0  0  0  0  0  0  0
   29.5380   49.2080   -3.7480 C   0  0  2  0  0  0  0  0  0  0  0  0
   29.2710   48.0660   -5.8300 C   0  0  2  0  0  0  0  0  0  0  0  0
   28.5040   48.9180   -7.8300 N   0  0  0  0  0  0  0  0  0  0  0  0
   30.4510   49.4660   -2.5210 C   0  0  0  0  0  0  0  0  0  0  0  0
   30.1270   48.2230   -4.6730 N   0  0  0  0  0  0  0  0  0  0  0  0
   29.5920   47.0590   -6.8260 N   0  0  0  0  0  0  0  0  0  0  0  0
   28.8720   47.5040   -8.0140 C   0  0  0  0  0  0  0  0  0  0  0  0
   30.7190   47.0470   -3.9850 C   0  0  1  0  0  0  0  0  0  0  0  0
   29.7090   46.0890   -3.3420 C   0  0  0  0  0  0  0  0  0  0  0  0
   32.0150   46.4670   -4.5060 C   0  0  0  0  0  0  0  0  0  0  0  0
   29.1650   44.9320   -3.8800 C   0  0  0  0  0  0  0  0  0  0  0  0
   29.2550   46.3750   -2.0500 N   0  0  0  0  0  0  0  0  0  0  0  0
   32.3690   45.3090   -5.1690 C   0  0  0  0  0  0  0  0  0  0  0  0
   33.1350   47.2220   -4.3000 O   0  0  0  0  0  0  0  0  0  0  0  0
   28.4070   45.4690   -1.6380 C   0  0  0  0  0  0  0  0  0  0  0  0
   28.0850   44.2080   -2.7580 S   0  0  0  0  0  0  0  0  0  0  0  0
   34.1870   46.5610   -4.8210 C   0  0  0  0  0  0  0  0  0  0  0  0
   33.7730   45.3740   -5.3700 C   0  0  0  0  0  0  0  0  0  0  0  0
   27.7470   45.4900   -0.3050 C   0  0  0  0  0  0  0  0  0  0  0  0
  2  1  1  6
  2  3  1  0
  2  4  1  0
  4  5  1  0
  4  6  1  0
  3  7  1  0
  3  8  1  6
  6  9  1  1
  6 10  1  0
  7 10  1  0
  7 11  1  6
  8 12  1  0
 11 12  1  0
 10 13  1  0
 13 14  1  6
 13 15  1  0
 14 16  2  0
 14 17  1  0
 15 18  2  0
 15 19  1  0
 17 20  2  0
 16 21  1  0
 20 21  1  0
 19 22  1  0
 18 23  1  0
 22 23  2  0
 20 24  1  0
M  END
