mac-x0303-mac-x0411
     RDKit          3D

 28 30  0  0  0  0  0  0  0  0999 V2000
   30.3530   56.2650   -6.7240 N   0  0  0  0  0  0  0  0  0  0  0  0
   29.1060   55.8340   -5.6770 S   0  0  0  0  0  0  0  0  0  0  0  0
   27.8720   55.8480   -6.4270 O   0  0  0  0  0  0  0  0  0  0  0  0
   29.2760   56.5450   -4.4330 O   0  0  0  0  0  0  0  0  0  0  0  0
   29.3610   54.1340   -5.2680 C   0  0  0  0  0  0  0  0  0  0  0  0
   29.9020   53.7360   -4.0750 N   0  0  0  0  0  0  0  0  0  0  0  0
   29.0690   53.1000   -6.0400 N   0  0  0  0  0  0  0  0  0  0  0  0
   29.9640   52.3640   -4.0740 C   0  0  0  0  0  0  0  0  0  0  0  0
   29.4390   51.9970   -5.3100 C   0  0  0  0  0  0  0  0  0  0  0  0
   30.4200   51.4440   -3.1280 C   0  0  0  0  0  0  0  0  0  0  0  0
   29.3570   50.6370   -5.6370 C   0  0  0  0  0  0  0  0  0  0  0  0
   30.3340   50.0830   -3.4660 C   0  0  0  0  0  0  0  0  0  0  0  0
   29.8070   49.6900   -4.7080 C   0  0  0  0  0  0  0  0  0  0  0  0
   30.8110   49.0310   -2.4870 C   0  0  0  0  0  0  0  0  0  0  0  0
   32.3350   48.8800   -2.4600 C   0  0  0  0  0  0  0  0  0  0  0  0
   32.8310   47.7430   -3.3620 C   0  0  0  0  0  0  0  0  0  0  0  0
   34.2960   47.4500   -3.1410 C   0  0  0  0  0  0  0  0  0  0  0  0
   34.8790   46.2090   -3.4730 C   0  0  0  0  0  0  0  0  0  0  0  0
   35.1080   48.4510   -2.5830 C   0  0  0  0  0  0  0  0  0  0  0  0
   34.0760   45.2320   -4.0220 O   0  0  0  0  0  0  0  0  0  0  0  0
   36.4660   48.2290   -2.3560 C   0  0  0  0  0  0  0  0  0  0  0  0
   36.2500   45.9910   -3.2420 C   0  0  0  0  0  0  0  0  0  0  0  0
   37.0260   44.4960   -3.6220 Cl  0  0  0  0  0  0  0  0  0  0  0  0
   33.4000   45.6910   -5.1970 C   0  0  0  0  0  0  0  0  0  0  0  0
   37.0350   47.0020   -2.6860 C   0  0  0  0  0  0  0  0  0  0  0  0
   33.0880   44.5340   -6.1280 C   0  0  0  0  0  0  0  0  0  0  0  0
   31.8170   44.0880   -6.0440 O   0  0  0  0  0  0  0  0  0  0  0  0
   33.8700   44.0050   -6.9090 O   0  0  0  0  0  0  0  0  0  0  0  0
  2  1  1  0
  2  3  2  0
  2  4  2  0
  2  5  1  0
  5  6  1  0
  5  7  2  0
  6  8  1  0
  7  9  1  0
  8  9  2  0
  8 10  1  0
  9 11  1  0
 10 12  2  0
 11 13  2  0
 12 13  1  0
 12 14  1  0
 14 15  1  0
 15 16  1  0
 16 17  1  0
 17 18  2  0
 17 19  1  0
 18 20  1  0
 19 21  2  0
 18 22  1  0
 22 23  1  0
 20 24  1  0
 21 25  1  0
 22 25  2  0
 24 26  1  0
 26 27  1  0
 26 28  2  0
M  END
