mac-x0226-mac-x0371
     RDKit          3D

 23 25  0  0  0  0  0  0  0  0999 V2000
   32.9860   45.1590   -7.2200 O   0  0  0  0  0  0  0  0  0  0  0  0
   33.2130   45.9710   -6.0750 C   0  0  0  0  0  0  0  0  0  0  0  0
   34.1180   46.9630   -6.5370 O   0  0  0  0  0  0  0  0  0  0  0  0
   31.8440   46.5850   -5.6730 C   0  0  0  0  0  0  0  0  0  0  0  0
   33.8380   45.1660   -4.9810 C   0  0  0  0  0  0  0  0  0  0  0  0
   33.6620   43.7950   -4.6970 C   0  0  0  0  0  0  0  0  0  0  0  0
   34.7250   45.5800   -4.0050 C   0  0  0  0  0  0  0  0  0  0  0  0
   31.0160   45.7950   -4.6650 C   0  0  0  0  0  0  0  0  0  0  0  0
   34.3690   43.3830   -3.6480 N   0  0  0  0  0  0  0  0  0  0  0  0
   35.0280   44.4890   -3.2190 N   0  0  0  0  0  0  0  0  0  0  0  0
   30.5830   46.3910   -3.4600 C   0  0  0  0  0  0  0  0  0  0  0  0
   30.6500   44.4500   -4.8880 C   0  0  0  0  0  0  0  0  0  0  0  0
   31.0950   43.5690   -6.3090 Cl  0  0  0  0  0  0  0  0  0  0  0  0
   30.9510   48.0320   -3.0430 Cl  0  0  0  0  0  0  0  0  0  0  0  0
   35.8940   44.4340   -2.0970 C   0  0  0  0  0  0  0  0  0  0  0  0
   29.8230   45.6740   -2.5300 C   0  0  0  0  0  0  0  0  0  0  0  0
   29.8880   43.7410   -3.9500 C   0  0  0  0  0  0  0  0  0  0  0  0
   36.6830   45.5490   -1.7820 C   0  0  0  0  0  0  0  0  0  0  0  0
   35.9720   43.2840   -1.2980 C   0  0  0  0  0  0  0  0  0  0  0  0
   29.4750   44.3500   -2.7730 C   0  0  0  0  0  0  0  0  0  0  0  0
   37.5410   45.5140   -0.6810 C   0  0  0  0  0  0  0  0  0  0  0  0
   36.8330   43.2570   -0.1980 C   0  0  0  0  0  0  0  0  0  0  0  0
   37.6160   44.3710    0.1090 C   0  0  0  0  0  0  0  0  0  0  0  0
  2  1  1  0
  2  3  1  0
  2  4  1  0
  2  5  1  0
  5  6  1  0
  5  7  2  0
  4  8  1  0
  6  9  2  0
  7 10  1  0
  9 10  1  0
  8 11  2  0
  8 12  1  0
 12 13  1  0
 11 14  1  0
 10 15  1  0
 11 16  1  0
 12 17  2  0
 15 18  2  0
 15 19  1  0
 16 20  2  0
 17 20  1  0
 18 21  1  0
 19 22  2  0
 21 23  2  0
 22 23  1  0
M  END
