mac-x0179-mac-x0301
     RDKit          3D

 25 28  0  0  0  0  0  0  0  0999 V2000
   31.5580   46.3170   -5.2340 O   0  0  0  0  0  0  0  0  0  0  0  0
   32.8180   46.0320   -4.7960 C   0  0  0  0  0  0  0  0  0  0  0  0
   33.8340   46.2240   -5.4570 O   0  0  0  0  0  0  0  0  0  0  0  0
   30.6490   46.8450   -4.2600 C   0  0  0  0  0  0  0  0  0  0  0  0
   32.8330   45.4430   -3.3860 C   0  0  0  0  0  0  0  0  0  0  0  0
   29.9490   48.0350   -4.8650 C   0  0  0  0  0  0  0  0  0  0  0  0
   34.0900   45.6720   -2.6910 N   0  0  0  0  0  0  0  0  0  0  0  0
   29.4580   48.0280   -6.1610 C   0  0  0  0  0  0  0  0  0  0  0  0
   29.7650   49.2140   -4.1200 C   0  0  0  0  0  0  0  0  0  0  0  0
   34.7990   44.6910   -2.0640 C   0  0  0  0  0  0  0  0  0  0  0  0
   34.5210   46.9100   -2.2980 C   0  0  0  0  0  0  0  0  0  0  0  0
   28.8190   49.1250   -6.7010 C   0  0  0  0  0  0  0  0  0  0  0  0
   29.1130   50.3310   -4.6770 C   0  0  0  0  0  0  0  0  0  0  0  0
   29.5280   46.9950   -7.0510 O   0  0  0  0  0  0  0  0  0  0  0  0
   34.5340   43.5080   -1.9430 O   0  0  0  0  0  0  0  0  0  0  0  0
   33.9760   47.9930   -2.4080 O   0  0  0  0  0  0  0  0  0  0  0  0
   36.0020   45.3360   -1.5340 C   0  0  0  0  0  0  0  0  0  0  0  0
   35.8290   46.7020   -1.6810 C   0  0  0  0  0  0  0  0  0  0  0  0
   28.6320   50.2890   -5.9850 C   0  0  0  0  0  0  0  0  0  0  0  0
   28.4150   48.9170   -7.9820 O   0  0  0  0  0  0  0  0  0  0  0  0
   28.8680   47.5660   -8.1970 C   0  0  0  0  0  0  0  0  0  0  0  0
   37.1450   44.8010   -0.9780 C   0  0  0  0  0  0  0  0  0  0  0  0
   36.7910   47.6100   -1.2760 C   0  0  0  0  0  0  0  0  0  0  0  0
   38.1350   45.6980   -0.5600 C   0  0  0  0  0  0  0  0  0  0  0  0
   37.9580   47.0920   -0.7080 C   0  0  0  0  0  0  0  0  0  0  0  0
  1  2  1  0
  2  3  2  0
  1  4  1  0
  2  5  1  0
  4  6  1  0
  5  7  1  0
  6  8  1  0
  6  9  2  0
  7 10  1  0
  7 11  1  0
  8 12  2  0
  9 13  1  0
  8 14  1  0
 10 15  2  0
 11 16  2  0
 10 17  1  0
 11 18  1  0
 17 18  2  0
 12 19  1  0
 13 19  2  0
 12 20  1  0
 14 21  1  0
 20 21  1  0
 17 22  1  0
 18 23  1  0
 22 24  2  0
 23 25  2  0
 24 25  1  0
M  END
