mac-x0436-mac-x0398
     RDKit          3D

 28 30  0  0  0  0  0  0  0  0999 V2000
   33.6800   45.6300   -6.7320 O   0  0  0  0  0  0  0  0  0  0  0  0
   32.5280   45.1340   -6.2500 C   0  0  0  0  0  0  0  0  0  0  0  0
   31.4620   45.4170   -6.7740 O   0  0  0  0  0  0  0  0  0  0  0  0
   32.7170   44.2320   -5.0570 C   0  0  0  0  0  0  0  0  0  0  0  0
   32.6070   44.9700   -3.7240 C   0  0  0  0  0  0  0  0  0  0  0  0
   33.8490   45.7850   -3.4350 C   0  0  0  0  0  0  0  0  0  0  0  0
   33.8560   47.3310   -3.5550 C   0  0  0  0  0  0  0  0  0  0  0  0
   34.9120   45.1220   -3.0820 N   0  0  0  0  0  0  0  0  0  0  0  0
   32.8380   48.1150   -3.7080 N   0  0  0  0  0  0  0  0  0  0  0  0
   35.1020   47.9420   -3.4920 N   0  0  0  0  0  0  0  0  0  0  0  0
   36.1000   45.8210   -2.8110 C   0  0  0  0  0  0  0  0  0  0  0  0
   31.4430   47.7010   -3.7950 C   0  0  0  0  0  0  0  0  0  0  0  0
   36.2100   47.2140   -3.0090 C   0  0  0  0  0  0  0  0  0  0  0  0
   37.1940   45.1030   -2.3370 C   0  0  0  0  0  0  0  0  0  0  0  0
   30.4980   48.6380   -4.3120 O   0  0  0  0  0  0  0  0  0  0  0  0
   38.3960   45.7510   -2.0570 C   0  0  0  0  0  0  0  0  0  0  0  0
   37.4200   47.8570   -2.7270 C   0  0  0  0  0  0  0  0  0  0  0  0
   30.0810   49.6220   -3.4760 C   0  0  0  0  0  0  0  0  0  0  0  0
   38.5090   47.1250   -2.2520 C   0  0  0  0  0  0  0  0  0  0  0  0
   30.0170   49.6000   -2.2630 O   0  0  0  0  0  0  0  0  0  0  0  0
   29.6930   50.7940   -4.2900 C   0  0  0  0  0  0  0  0  0  0  0  0
   29.6400   52.0860   -3.7540 C   0  0  0  0  0  0  0  0  0  0  0  0
   29.3760   50.5800   -5.6400 C   0  0  0  0  0  0  0  0  0  0  0  0
   29.9480   52.3000   -2.4350 O   0  0  0  0  0  0  0  0  0  0  0  0
   29.2690   53.1680   -4.5680 C   0  0  0  0  0  0  0  0  0  0  0  0
   29.0060   51.6590   -6.4530 C   0  0  0  0  0  0  0  0  0  0  0  0
   28.9510   52.9580   -5.9200 C   0  0  0  0  0  0  0  0  0  0  0  0
   28.5830   54.0420   -6.7300 N   0  0  0  0  0  0  0  0  0  0  0  0
  1  2  1  0
  2  3  2  0
  2  4  1  0
  4  5  1  0
  5  6  1  0
  6  7  1  0
  6  8  2  0
  7  9  2  3
  7 10  1  0
  8 11  1  0
  9 12  1  0
 10 13  1  0
 11 13  2  0
 11 14  1  0
 12 15  1  0
 14 16  2  0
 13 17  1  0
 15 18  1  0
 16 19  1  0
 17 19  2  0
 18 20  2  0
 18 21  1  0
 21 22  2  0
 21 23  1  0
 22 24  1  0
 22 25  1  0
 23 26  2  0
 25 27  2  0
 26 27  1  0
 27 28  1  0
M  END
