mac-x0306-mac-x0510
     RDKit          3D

 16 18  0  0  0  0  0  0  0  0999 V2000
   27.9810   51.9620   -6.3760 O   0  0  0  0  0  0  0  0  0  0  0  0
   28.9010   51.3950   -5.7800 C   0  0  0  0  0  0  0  0  0  0  0  0
   29.2260   49.8610   -5.8340 C   0  0  1  0  0  0  0  0  0  0  0  0
   29.8340   52.2160   -4.9060 C   0  0  1  0  0  0  0  0  0  0  0  0
   29.5120   53.6740   -5.0630 C   0  0  0  0  0  0  0  0  0  0  0  0
   29.8600   51.6100   -3.5450 C   0  0  0  0  0  0  0  0  0  0  0  0
   29.9030   49.4860   -4.5770 N   0  0  0  0  0  0  0  0  0  0  0  0
   28.0640   48.9860   -6.1580 N   0  0  0  0  0  0  0  0  0  0  0  0
   30.0920   49.6520   -7.0990 C   0  0  0  0  0  0  0  0  0  0  0  0
   28.9430   54.1840   -6.2120 N   0  0  0  0  0  0  0  0  0  0  0  0
   29.7160   54.6390   -4.1870 N   0  0  0  0  0  0  0  0  0  0  0  0
   29.8930   50.2820   -3.4480 C   0  0  0  0  0  0  0  0  0  0  0  0
   29.1590   49.1260   -8.1210 N   0  0  0  0  0  0  0  0  0  0  0  0
   28.4230   48.1890   -7.3150 C   0  0  0  0  0  0  0  0  0  0  0  0
   29.2750   55.7880   -4.7840 C   0  0  0  0  0  0  0  0  0  0  0  0
   28.7900   55.5310   -6.0440 C   0  0  0  0  0  0  0  0  0  0  0  0
  1  2  2  0
  3  2  1  0
  2  4  1  0
  4  5  1  1
  4  6  1  0
  3  7  1  0
  3  8  1  0
  3  9  1  6
  5 10  1  0
  5 11  2  0
  6 12  2  0
  7 12  1  0
  9 13  1  0
  8 14  1  0
 13 14  1  0
 11 15  1  0
 10 16  1  0
 15 16  2  0
M  END
