mac-x0584-mac-x0271
     RDKit          3D

 25 29  0  0  0  0  0  0  0  0999 V2000
   27.8200   50.1710   -3.9800 O   0  0  0  0  0  0  0  0  0  0  0  0
   29.0440   50.4030   -4.6820 C   0  0  1  0  0  0  0  0  0  0  0  0
   29.1900   49.3640   -5.7430 C   0  0  0  0  0  0  0  0  0  0  0  0
   29.0000   51.7010   -5.5830 C   0  0  1  0  0  0  0  0  0  0  0  0
   28.8190   49.9180   -6.9590 C   0  0  0  0  0  0  0  0  0  0  0  0
   29.5990   48.0450   -5.7280 C   0  0  0  0  0  0  0  0  0  0  0  0
   28.4190   51.2770   -6.8610 N   0  0  0  0  0  0  0  0  0  0  0  0
   28.1010   52.7830   -5.0480 C   0  0  0  0  0  0  0  0  0  0  0  0
   30.4130   52.2990   -5.8040 C   0  0  0  0  0  0  0  0  0  0  0  0
   30.0030   47.3700   -4.5570 N   0  0  0  0  0  0  0  0  0  0  0  0
   29.6100   47.3750   -6.9000 N   0  0  0  0  0  0  0  0  0  0  0  0
   28.8220   49.2790   -8.1210 N   0  0  0  0  0  0  0  0  0  0  0  0
   28.5730   53.8980   -4.4710 C   0  0  0  0  0  0  0  0  0  0  0  0
   30.8380   53.1520   -4.7210 O   0  0  0  0  0  0  0  0  0  0  0  0
   31.4700   47.3920   -4.2940 C   0  0  2  0  0  0  0  0  0  0  0  0
   29.2870   47.7390   -3.3180 C   0  0  0  0  0  0  0  0  0  0  0  0
   29.2270   48.0110   -8.0240 C   0  0  0  0  0  0  0  0  0  0  0  0
   30.0170   54.1480   -4.3160 C   0  0  0  0  0  0  0  0  0  0  0  0
   30.4260   55.2020   -3.8510 O   0  0  0  0  0  0  0  0  0  0  0  0
   32.1060   46.0280   -4.6060 C   0  0  0  0  0  0  0  0  0  0  0  0
   31.5970   47.7770   -2.8100 C   0  0  0  0  0  0  0  0  0  0  0  0
   30.2590   47.3870   -2.2050 C   0  0  0  0  0  0  0  0  0  0  0  0
   32.2920   45.6900   -6.1140 C   0  0  0  0  0  0  0  0  0  0  0  0
   33.6230   45.6890   -4.4530 C   0  0  0  0  0  0  0  0  0  0  0  0
   33.4580   44.7730   -5.6860 C   0  0  0  0  0  0  0  0  0  0  0  0
  2  1  1  6
  2  3  1  0
  2  4  1  0
  3  5  2  0
  3  6  1  0
  4  7  1  0
  5  7  1  0
  4  8  1  1
  4  9  1  0
  6 10  1  0
  6 11  2  0
  5 12  1  0
  8 13  2  0
  9 14  1  0
 10 15  1  0
 10 16  1  0
 11 17  1  0
 12 17  2  0
 13 18  1  0
 14 18  1  0
 18 19  2  0
 15 20  1  1
 15 21  1  0
 16 22  1  0
 21 22  1  0
 20 23  1  0
 20 24  1  0
 23 25  1  0
 24 25  1  0
M  END
