mac-x0223-mac-x0392
     RDKit          3D

 22 23  0  0  0  0  0  0  0  0999 V2000
   27.4780   43.9010   -1.9270 C   0  0  0  0  0  0  0  0  0  0  0  0
   27.6330   45.2730   -1.5970 O   0  0  0  0  0  0  0  0  0  0  0  0
   28.7990   45.8760   -1.9960 C   0  0  0  0  0  0  0  0  0  0  0  0
   29.1190   47.0930   -1.3790 C   0  0  0  0  0  0  0  0  0  0  0  0
   29.6720   45.3610   -2.9640 C   0  0  0  0  0  0  0  0  0  0  0  0
   28.2720   47.6040   -0.4320 O   0  0  0  0  0  0  0  0  0  0  0  0
   30.2830   47.7840   -1.7170 C   0  0  0  0  0  0  0  0  0  0  0  0
   30.8520   46.0460   -3.3150 C   0  0  0  0  0  0  0  0  0  0  0  0
   31.7810   45.4750   -4.3610 C   0  0  0  0  0  0  0  0  0  0  0  0
   31.1440   47.2630   -2.6800 C   0  0  0  0  0  0  0  0  0  0  0  0
   32.4830   46.4940   -5.2440 C   0  0  0  0  0  0  0  0  0  0  0  0
   33.5410   47.0410   -4.9730 O   0  0  0  0  0  0  0  0  0  0  0  0
   31.7320   46.6790   -6.3710 O   0  0  0  0  0  0  0  0  0  0  0  0
   30.3820   46.6790   -6.2290 C   0  0  0  0  0  0  0  0  0  0  0  0
   29.6540   45.7280   -6.0010 O   0  0  0  0  0  0  0  0  0  0  0  0
   29.8390   48.0540   -6.3950 C   0  0  0  0  0  0  0  0  0  0  0  0
   29.3620   48.5740   -7.6100 C   0  0  0  0  0  0  0  0  0  0  0  0
   29.8220   48.8450   -5.2360 C   0  0  0  0  0  0  0  0  0  0  0  0
   29.3390   47.8640   -8.8200 N   0  0  0  0  0  0  0  0  0  0  0  0
   29.3300   50.1310   -5.3160 C   0  0  0  0  0  0  0  0  0  0  0  0
   28.8900   49.8900   -7.5610 C   0  0  0  0  0  0  0  0  0  0  0  0
   28.8600   50.6750   -6.4570 N   0  0  0  0  0  0  0  0  0  0  0  0
  1  2  1  0
  2  3  1  0
  3  4  2  0
  3  5  1  0
  4  6  1  0
  4  7  1  0
  5  8  2  0
  8  9  1  0
  7 10  2  0
  8 10  1  0
  9 11  1  0
 11 12  2  0
 11 13  1  0
 13 14  1  0
 14 15  2  0
 14 16  1  0
 16 17  2  0
 16 18  1  0
 17 19  1  0
 18 20  2  0
 17 21  1  0
 20 22  1  0
 21 22  2  0
M  END
