mac-x0412-mac-x0437
     RDKit          3D

 28 31  0  0  0  0  0  0  0  0999 V2000
   29.2390   54.3100   -3.7080 O   0  0  0  0  0  0  0  0  0  0  0  0
   29.3010   53.7390   -4.7940 C   0  0  0  0  0  0  0  0  0  0  0  0
   28.8490   54.3530   -5.9540 N   0  0  0  0  0  0  0  0  0  0  0  0
   29.9140   52.3190   -4.9300 C   0  0  2  0  0  0  0  0  0  0  0  0
   29.1470   51.5200   -5.9790 C   0  0  0  0  0  0  0  0  0  0  0  0
   28.4610   53.6030   -6.9320 C   0  0  0  0  0  0  0  0  0  0  0  0
   30.0370   51.5720   -3.6250 C   0  0  0  0  0  0  0  0  0  0  0  0
   28.4470   52.1280   -6.9460 C   0  0  0  0  0  0  0  0  0  0  0  0
   29.2280   50.0740   -5.8820 C   0  0  0  0  0  0  0  0  0  0  0  0
   29.8830   50.2400   -3.5470 C   0  0  0  0  0  0  0  0  0  0  0  0
   29.5800   49.4580   -4.7370 C   0  0  0  0  0  0  0  0  0  0  0  0
   29.6730   47.9540   -4.6390 C   0  0  0  0  0  0  0  0  0  0  0  0
   30.7290   47.3210   -5.5640 C   0  0  0  0  0  0  0  0  0  0  0  0
   30.5690   45.8190   -5.8030 C   0  0  0  0  0  0  0  0  0  0  0  0
   31.6010   45.3320   -6.6790 O   0  0  0  0  0  0  0  0  0  0  0  0
   32.8070   45.0770   -6.0880 C   0  0  0  0  0  0  0  0  0  0  0  0
   33.8870   45.4610   -6.5190 O   0  0  0  0  0  0  0  0  0  0  0  0
   32.6510   44.2470   -4.8360 C   0  0  0  0  0  0  0  0  0  0  0  0
   32.6730   45.0840   -3.5630 C   0  0  0  0  0  0  0  0  0  0  0  0
   33.8900   45.8500   -3.3870 N   0  0  0  0  0  0  0  0  0  0  0  0
   34.0060   47.1990   -3.5810 C   0  0  0  0  0  0  0  0  0  0  0  0
   35.1220   45.3730   -3.0030 C   0  0  0  0  0  0  0  0  0  0  0  0
   35.2250   47.6260   -3.3520 N   0  0  0  0  0  0  0  0  0  0  0  0
   35.9310   46.5050   -2.9930 C   0  0  0  0  0  0  0  0  0  0  0  0
   35.5960   44.0970   -2.6740 C   0  0  0  0  0  0  0  0  0  0  0  0
   37.2850   46.3830   -2.6410 C   0  0  0  0  0  0  0  0  0  0  0  0
   36.9490   43.9960   -2.3250 C   0  0  0  0  0  0  0  0  0  0  0  0
   37.7800   45.1160   -2.3080 C   0  0  0  0  0  0  0  0  0  0  0  0
  1  2  2  0
  2  3  1  0
  2  4  1  0
  4  5  1  0
  3  6  2  0
  4  7  1  1
  5  8  2  0
  6  8  1  0
  5  9  1  0
  7 10  2  0
  9 11  2  0
 10 11  1  0
 11 12  1  0
 12 13  1  0
 13 14  1  0
 14 15  1  0
 15 16  1  0
 16 17  2  0
 16 18  1  0
 18 19  1  0
 19 20  1  0
 20 21  1  0
 20 22  1  0
 21 23  2  0
 22 24  2  0
 23 24  1  0
 22 25  1  0
 24 26  1  0
 25 27  2  0
 26 28  2  0
 27 28  1  0
M  END
