mac-x0360-mac-x1493
     RDKit          3D

 24 26  0  0  0  0  0  0  0  0999 V2000
   31.6620   54.6920   -7.3880 Cl  0  0  0  0  0  0  0  0  0  0  0  0
   32.1060   53.1520   -6.7570 C   0  0  0  0  0  0  0  0  0  0  0  0
   33.3670   52.9930   -6.1880 C   0  0  0  0  0  0  0  0  0  0  0  0
   31.2120   52.0770   -6.8200 C   0  0  0  0  0  0  0  0  0  0  0  0
   31.6020   50.8280   -6.2990 C   0  0  0  0  0  0  0  0  0  0  0  0
   33.7390   51.7510   -5.6770 C   0  0  0  0  0  0  0  0  0  0  0  0
   35.2970   51.5530   -4.9760 Cl  0  0  0  0  0  0  0  0  0  0  0  0
   30.4950   49.4130   -6.3480 S   0  0  0  0  0  0  0  0  0  0  0  0
   32.8670   50.6650   -5.7270 C   0  0  0  0  0  0  0  0  0  0  0  0
   29.8240   49.2870   -4.6720 N   0  0  1  0  0  0  0  0  0  0  0  0
   29.3980   49.7630   -7.2320 O   0  0  0  0  0  0  0  0  0  0  0  0
   31.3040   48.2430   -6.6040 O   0  0  0  0  0  0  0  0  0  0  0  0
   28.6350   48.4940   -4.6460 O   0  0  0  0  0  0  0  0  0  0  0  0
   30.6530   48.6860   -3.7660 O   0  0  0  0  0  0  0  0  0  0  0  0
   29.5920   50.7150   -4.3630 C   0  0  0  0  0  0  0  0  0  0  0  0
   29.0930   51.5150   -5.3850 C   0  0  0  0  0  0  0  0  0  0  0  0
   29.8430   51.3240   -3.1430 C   0  0  0  0  0  0  0  0  0  0  0  0
   28.8710   52.8630   -5.1930 C   0  0  0  0  0  0  0  0  0  0  0  0
   29.6340   52.6470   -2.9110 N   0  0  0  0  0  0  0  0  0  0  0  0
   29.1590   53.4040   -3.9270 C   0  0  0  0  0  0  0  0  0  0  0  0
   28.3790   53.6590   -6.2360 C   0  0  0  0  0  0  0  0  0  0  0  0
   28.9360   54.7610   -3.7510 C   0  0  0  0  0  0  0  0  0  0  0  0
   28.1650   55.0130   -6.0320 C   0  0  0  0  0  0  0  0  0  0  0  0
   28.4470   55.5670   -4.7880 C   0  0  0  0  0  0  0  0  0  0  0  0
  1  2  1  0
  2  3  2  0
  2  4  1  0
  4  5  2  0
  3  6  1  0
  6  7  1  0
  8  5  1  0
  5  9  1  0
  6  9  2  0
  8 10  1  0
  8 11  2  0
  8 12  2  0
 10 13  1  6
 10 14  1  0
 10 15  1  0
 15 16  2  0
 15 17  1  0
 16 18  1  0
 17 19  2  0
 18 20  2  0
 19 20  1  0
 18 21  1  0
 20 22  1  0
 21 23  2  0
 22 24  2  0
 23 24  1  0
M  CHG  2  10   1  14  -1
M  END
