mac-x0510-mac-x0284
     RDKit          3D

 21 23  0  0  0  0  0  0  0  0999 V2000
   28.3440   50.4860   -4.7380 N   0  0  0  0  0  0  0  0  0  0  0  0
   28.8050   50.5590   -5.9570 C   0  0  0  0  0  0  0  0  0  0  0  0
   30.0120   49.9840   -6.3450 N   0  0  0  0  0  0  0  0  0  0  0  0
   29.0400   49.8100   -3.7300 C   0  0  0  0  0  0  0  0  0  0  0  0
   28.0770   51.2240   -6.9120 N   0  0  0  0  0  0  0  0  0  0  0  0
   29.2440   48.4310   -3.8130 C   0  0  0  0  0  0  0  0  0  0  0  0
   29.5370   50.5110   -2.6280 C   0  0  0  0  0  0  0  0  0  0  0  0
   28.2060   50.8010   -8.1700 C   0  0  0  0  0  0  0  0  0  0  0  0
   30.3120   49.6570   -7.6550 C   0  0  0  0  0  0  0  0  0  0  0  0
   29.9400   47.7460   -2.8020 C   0  0  0  0  0  0  0  0  0  0  0  0
   30.2310   49.8430   -1.6170 C   0  0  0  0  0  0  0  0  0  0  0  0
   31.3530   49.1060   -7.9900 O   0  0  0  0  0  0  0  0  0  0  0  0
   30.1420   46.2790   -2.9170 C   0  0  0  0  0  0  0  0  0  0  0  0
   29.2740   50.0430   -8.5490 C   0  0  0  0  0  0  0  0  0  0  0  0
   27.3540   51.0390   -9.1960 N   0  0  0  0  0  0  0  0  0  0  0  0
   30.4310   48.4640   -1.7030 C   0  0  0  0  0  0  0  0  0  0  0  0
   31.1110   47.8290   -0.7050 O   0  0  0  0  0  0  0  0  0  0  0  0
   29.3330   45.4320   -3.2500 O   0  0  0  0  0  0  0  0  0  0  0  0
   31.4050   45.9290   -2.5930 O   0  0  0  0  0  0  0  0  0  0  0  0
   29.0820   49.7930   -9.8760 N   0  0  0  0  0  0  0  0  0  0  0  0
   27.9060   50.4160  -10.2230 C   0  0  0  0  0  0  0  0  0  0  0  0
  1  2  2  3
  2  3  1  0
  1  4  1  0
  2  5  1  0
  4  6  2  0
  4  7  1  0
  5  8  1  0
  3  9  1  0
  6 10  1  0
  7 11  2  0
  9 12  2  0
 10 13  1  0
  8 14  2  0
  9 14  1  0
  8 15  1  0
 10 16  2  0
 11 16  1  0
 16 17  1  0
 13 18  2  0
 13 19  1  0
 14 20  1  0
 15 21  2  0
 20 21  1  0
M  END
