mac-x0228-mac-x0394
     RDKit          3D

 24 26  0  0  0  0  0  0  0  0999 V2000
   29.9910   47.6700   -5.5480 O   0  0  0  0  0  0  0  0  0  0  0  0
   30.3170   48.0920   -4.3170 C   0  0  0  0  0  0  0  0  0  0  0  0
   30.7370   47.3150   -3.4800 O   0  0  0  0  0  0  0  0  0  0  0  0
   30.1190   49.5500   -4.1130 C   0  0  0  0  0  0  0  0  0  0  0  0
   29.9100   50.3660   -5.2330 C   0  0  0  0  0  0  0  0  0  0  0  0
   30.1420   50.1190   -2.8210 C   0  0  0  0  0  0  0  0  0  0  0  0
   29.7350   51.7240   -5.0290 C   0  0  0  0  0  0  0  0  0  0  0  0
   29.9630   51.4920   -2.6380 C   0  0  0  0  0  0  0  0  0  0  0  0
   29.7640   52.2690   -3.7540 C   0  0  0  0  0  0  0  0  0  0  0  0
   29.5020   52.8190   -6.0000 C   0  0  1  0  0  0  0  0  0  0  0  0
   28.0370   52.9720   -6.4360 C   0  0  1  0  0  0  0  0  0  0  0  0
   29.5790   53.6290   -3.7390 O   0  0  0  0  0  0  0  0  0  0  0  0
   29.9170   53.9910   -5.0940 C   0  0  0  0  0  0  0  0  0  0  0  0
   27.8270   52.5320   -7.8530 C   0  0  0  0  0  0  0  0  0  0  0  0
   26.9610   52.5930   -5.4150 C   0  0  0  0  0  0  0  0  0  0  0  0
   28.9360   52.7130   -8.5920 O   0  0  0  0  0  0  0  0  0  0  0  0
   26.8130   52.0830   -8.3500 O   0  0  0  0  0  0  0  0  0  0  0  0
   26.7740   53.5490   -4.4210 C   0  0  0  0  0  0  0  0  0  0  0  0
   26.1610   51.4260   -5.3830 C   0  0  0  0  0  0  0  0  0  0  0  0
   25.8330   53.3850   -3.4230 C   0  0  0  0  0  0  0  0  0  0  0  0
   25.2000   51.2730   -4.3550 C   0  0  0  0  0  0  0  0  0  0  0  0
   24.1950   49.8760   -4.2810 Cl  0  0  0  0  0  0  0  0  0  0  0  0
   25.6680   54.6220   -2.2410 Cl  0  0  0  0  0  0  0  0  0  0  0  0
   25.0400   52.2510   -3.3790 C   0  0  0  0  0  0  0  0  0  0  0  0
  1  2  1  0
  2  3  2  0
  2  4  1  0
  4  5  2  0
  4  6  1  0
  5  7  1  0
  6  8  2  0
  7  9  2  0
  8  9  1  0
  7 10  1  0
 10 11  1  0
  9 12  1  0
 10 13  1  1
 12 13  1  0
 11 14  1  6
 11 15  1  0
 14 16  1  0
 14 17  2  0
 15 18  2  0
 15 19  1  0
 18 20  1  0
 19 21  2  0
 21 22  1  0
 20 23  1  0
 20 24  2  0
 21 24  1  0
M  END
