mac-x0116-mac-x0345
     RDKit          3D

 24 27  0  0  0  0  0  0  0  0999 V2000
   29.4560   52.6360   -6.9430 C   0  0  0  0  0  0  0  0  0  0  0  0
   29.7580   51.6550   -5.8730 N   0  0  0  0  0  0  0  0  0  0  0  0
   30.0680   50.2980   -6.0890 C   0  0  0  0  0  0  0  0  0  0  0  0
   30.5970   53.5070   -7.3800 C   0  0  0  0  0  0  0  0  0  0  0  0
   31.8460   53.1470   -6.9520 O   0  0  0  0  0  0  0  0  0  0  0  0
   30.6830   54.6470   -8.1520 C   0  0  0  0  0  0  0  0  0  0  0  0
   29.3220   52.0790   -4.5910 C   0  0  0  0  0  0  0  0  0  0  0  0
   32.0540   55.0030   -8.1990 C   0  0  0  0  0  0  0  0  0  0  0  0
   32.7170   54.0570   -7.4520 C   0  0  0  0  0  0  0  0  0  0  0  0
   31.0090   49.6500   -5.2860 N   0  0  0  0  0  0  0  0  0  0  0  0
   29.5170   49.5060   -7.0400 C   0  0  0  0  0  0  0  0  0  0  0  0
   29.4820   53.3890   -4.0900 C   0  0  0  0  0  0  0  0  0  0  0  0
   28.6910   51.1580   -3.7460 C   0  0  0  0  0  0  0  0  0  0  0  0
   30.1420   54.4770   -4.8890 C   0  0  0  0  0  0  0  0  0  0  0  0
   31.3430   48.3350   -5.4370 C   0  0  0  0  0  0  0  0  0  0  0  0
   29.9350   48.1000   -7.1410 C   0  0  0  0  0  0  0  0  0  0  0  0
   28.5790   49.7020   -8.0240 N   0  0  0  0  0  0  0  0  0  0  0  0
   28.2550   51.5430   -2.4850 C   0  0  0  0  0  0  0  0  0  0  0  0
   29.0550   53.7650   -2.8550 N   0  0  0  0  0  0  0  0  0  0  0  0
   30.8590   47.5290   -6.3210 N   0  0  0  0  0  0  0  0  0  0  0  0
   29.3000   47.5160   -8.1070 N   0  0  0  0  0  0  0  0  0  0  0  0
   28.5000   48.5330   -8.6000 C   0  0  0  0  0  0  0  0  0  0  0  0
   28.4560   52.8470   -2.0790 C   0  0  0  0  0  0  0  0  0  0  0  0
   28.0390   53.2730   -0.8250 N   0  0  0  0  0  0  0  0  0  0  0  0
  1  2  1  0
  2  3  1  0
  1  4  1  0
  4  5  1  0
  4  6  2  0
  2  7  1  0
  6  8  1  0
  5  9  1  0
  8  9  2  0
  3 10  1  0
  3 11  2  0
  7 12  2  0
  7 13  1  0
 12 14  1  0
 10 15  1  0
 11 16  1  0
 11 17  1  0
 13 18  2  0
 12 19  1  0
 15 20  2  0
 16 20  1  0
 16 21  2  0
 17 22  2  0
 21 22  1  0
 18 23  1  0
 19 23  2  0
 23 24  1  0
M  END
