mac-x0161-mac-x0345
     RDKit          3D

 26 29  0  0  0  0  0  0  0  0999 V2000
   28.3140   51.6280   -5.2190 N   0  0  0  0  0  0  0  0  0  0  0  0
   28.5290   50.1830   -5.1260 C   0  0  2  0  0  0  0  0  0  0  0  0
   27.9690   49.4850   -6.4120 C   0  0  2  0  0  0  0  0  0  0  0  0
   29.0480   52.4560   -4.3590 C   0  0  0  0  0  0  0  0  0  0  0  0
   28.0360   49.5010   -3.9310 N   0  0  0  0  0  0  0  0  0  0  0  0
   29.1210   53.8550   -4.5350 C   0  0  0  0  0  0  0  0  0  0  0  0
   29.7590   51.9490   -3.2690 C   0  0  0  0  0  0  0  0  0  0  0  0
   28.4050   54.5360   -5.6700 C   0  0  0  0  0  0  0  0  0  0  0  0
   28.4270   48.1100   -3.8610 C   0  0  0  0  0  0  0  0  0  0  0  0
   28.2640   47.9920   -6.2490 C   0  0  2  0  0  0  0  0  0  0  0  0
   28.6190   49.8890   -7.6900 N   0  0  0  0  0  0  0  0  0  0  0  0
   30.4830   52.7880   -2.4280 C   0  0  0  0  0  0  0  0  0  0  0  0
   29.8260   54.6870   -3.7180 N   0  0  0  0  0  0  0  0  0  0  0  0
   29.1150   47.7520   -5.0910 N   0  0  0  0  0  0  0  0  0  0  0  0
   28.9680   47.5930   -7.4590 N   0  0  0  0  0  0  0  0  0  0  0  0
   28.7430   48.6410   -8.4320 C   0  0  0  0  0  0  0  0  0  0  0  0
   30.4900   54.1450   -2.6870 C   0  0  0  0  0  0  0  0  0  0  0  0
   29.8060   46.4520   -5.0480 C   0  0  0  0  0  0  0  0  0  0  0  0
   31.2000   55.0170   -1.8690 N   0  0  0  0  0  0  0  0  0  0  0  0
   31.2310   46.4990   -4.6090 C   0  0  0  0  0  0  0  0  0  0  0  0
   31.9790   47.3980   -3.8810 C   0  0  0  0  0  0  0  0  0  0  0  0
   32.0270   45.4540   -4.9760 O   0  0  0  0  0  0  0  0  0  0  0  0
   33.3110   45.6570   -4.4910 N   0  0  0  0  0  0  0  0  0  0  0  0
   33.2570   46.8210   -3.8410 C   0  0  0  0  0  0  0  0  0  0  0  0
   34.3380   47.3530   -3.2270 O   0  0  0  0  0  0  0  0  0  0  0  0
   34.1610   47.6070   -1.8380 C   0  0  0  0  0  0  0  0  0  0  0  0
  2  1  1  1
  2  3  1  0
  1  4  1  0
  2  5  1  0
  4  6  2  0
  4  7  1  0
  6  8  1  0
  5  9  1  0
  3 10  1  0
  3 11  1  6
  7 12  2  0
  6 13  1  0
  9 14  1  0
 10 14  1  0
 10 15  1  6
 11 16  1  0
 15 16  1  0
 12 17  1  0
 13 17  2  0
 14 18  1  0
 17 19  1  0
 18 20  1  0
 20 21  2  0
 20 22  1  0
 22 23  1  0
 21 24  1  0
 23 24  2  0
 24 25  1  0
 25 26  1  0
M  END
