mac-x0392-mac-x0271
     RDKit          3D

 23 25  0  0  0  0  0  0  0  0999 V2000
   28.5260   47.0280   -7.1490 N   0  0  0  0  0  0  0  0  0  0  0  0
   29.2770   48.2130   -7.0560 C   0  0  0  0  0  0  0  0  0  0  0  0
   29.1030   49.2270   -7.9980 C   0  0  0  0  0  0  0  0  0  0  0  0
   30.2260   48.4500   -6.0410 C   0  0  0  0  0  0  0  0  0  0  0  0
   30.4790   47.4140   -4.9940 C   0  0  0  0  0  0  0  0  0  0  0  0
   30.9300   49.6650   -6.0320 C   0  0  0  0  0  0  0  0  0  0  0  0
   29.7680   50.4050   -8.0110 N   0  0  0  0  0  0  0  0  0  0  0  0
   30.7390   47.6470   -3.7510 N   0  0  0  0  0  0  0  0  0  0  0  0
   30.4000   46.1760   -5.5200 O   0  0  0  0  0  0  0  0  0  0  0  0
   30.6670   50.5940   -7.0240 C   0  0  0  0  0  0  0  0  0  0  0  0
   30.8270   48.9820   -3.1760 C   0  0  0  0  0  0  0  0  0  0  0  0
   29.5890   49.6380   -2.8750 O   0  0  0  0  0  0  0  0  0  0  0  0
   29.2020   50.6580   -3.6980 C   0  0  0  0  0  0  0  0  0  0  0  0
   29.6880   51.9170   -3.3360 C   0  0  0  0  0  0  0  0  0  0  0  0
   28.3900   50.5380   -4.8290 C   0  0  0  0  0  0  0  0  0  0  0  0
   29.3550   53.0300   -4.1050 C   0  0  0  0  0  0  0  0  0  0  0  0
   28.0640   51.6660   -5.5940 C   0  0  0  0  0  0  0  0  0  0  0  0
   28.5480   52.9210   -5.2340 C   0  0  0  0  0  0  0  0  0  0  0  0
   29.8680   54.2780   -3.7010 O   0  0  0  0  0  0  0  0  0  0  0  0
   28.2400   54.1200   -5.9970 C   0  0  0  0  0  0  0  0  0  0  0  0
   29.4440   55.4500   -4.3110 C   0  0  0  0  0  0  0  0  0  0  0  0
   29.6950   56.5600   -3.8550 O   0  0  0  0  0  0  0  0  0  0  0  0
   28.6660   55.3060   -5.5540 C   0  0  0  0  0  0  0  0  0  0  0  0
  1  2  1  0
  2  3  2  0
  2  4  1  0
  4  5  1  0
  4  6  2  0
  3  7  1  0
  5  8  2  3
  5  9  1  0
  6 10  1  0
  7 10  2  0
  8 11  1  0
 11 12  1  0
 12 13  1  0
 13 14  2  0
 13 15  1  0
 14 16  1  0
 15 17  2  0
 16 18  2  0
 17 18  1  0
 16 19  1  0
 18 20  1  0
 19 21  1  0
 21 22  2  0
 20 23  2  0
 21 23  1  0
M  END
