mac-x0231-mac-x0302
     RDKit          3D

 28 30  0  0  0  0  0  0  0  0999 V2000
   34.0250   45.3330   -6.8140 O   0  0  0  0  0  0  0  0  0  0  0  0
   32.8900   45.2780   -6.0980 C   0  0  0  0  0  0  0  0  0  0  0  0
   31.9980   46.1210   -6.4740 N   0  0  0  0  0  0  0  0  0  0  0  0
   32.9390   44.2280   -5.0200 C   0  0  0  0  0  0  0  0  0  0  0  0
   30.6730   46.2830   -5.8840 C   0  0  2  0  0  0  0  0  0  0  0  0
   31.8350   44.2080   -3.9740 C   0  0  0  0  0  0  0  0  0  0  0  0
   29.5850   46.2400   -6.8000 O   0  0  0  0  0  0  0  0  0  0  0  0
   30.5700   47.5250   -4.9600 C   0  0  0  0  0  0  0  0  0  0  0  0
   31.8510   45.1790   -2.8460 C   0  0  0  0  0  0  0  0  0  0  0  0
   30.9030   43.3090   -4.1160 N   0  0  0  0  0  0  0  0  0  0  0  0
   29.6900   48.5710   -5.4730 N   0  0  0  0  0  0  0  0  0  0  0  0
   30.7990   45.1090   -1.9340 C   0  0  0  0  0  0  0  0  0  0  0  0
   29.9020   43.2560   -3.1950 N   0  0  0  0  0  0  0  0  0  0  0  0
   32.8550   46.1390   -2.6660 C   0  0  0  0  0  0  0  0  0  0  0  0
   29.1730   49.5280   -4.6180 C   0  0  0  0  0  0  0  0  0  0  0  0
   29.7460   44.0990   -2.1220 C   0  0  0  0  0  0  0  0  0  0  0  0
   30.7410   45.9900   -0.8440 C   0  0  0  0  0  0  0  0  0  0  0  0
   32.7970   47.0200   -1.5770 C   0  0  0  0  0  0  0  0  0  0  0  0
   28.7880   44.0210   -1.3580 O   0  0  0  0  0  0  0  0  0  0  0  0
   28.7530   49.2730   -3.4950 O   0  0  0  0  0  0  0  0  0  0  0  0
   31.7420   46.9440   -0.6700 C   0  0  0  0  0  0  0  0  0  0  0  0
   29.1340   50.9310   -5.1260 C   0  0  0  0  0  0  0  0  0  0  0  0
   29.4970   51.9590   -4.2480 C   0  0  0  0  0  0  0  0  0  0  0  0
   28.7480   51.2400   -6.4390 C   0  0  0  0  0  0  0  0  0  0  0  0
   29.4710   53.2810   -4.6870 C   0  0  0  0  0  0  0  0  0  0  0  0
   28.7290   52.5710   -6.8640 C   0  0  0  0  0  0  0  0  0  0  0  0
   29.8160   54.3110   -3.8630 O   0  0  0  0  0  0  0  0  0  0  0  0
   29.0890   53.5930   -5.9900 C   0  0  0  0  0  0  0  0  0  0  0  0
  1  2  1  0
  2  3  2  3
  2  4  1  0
  3  5  1  0
  4  6  1  0
  5  7  1  6
  5  8  1  0
  6  9  1  0
  6 10  2  0
  8 11  1  0
  9 12  2  0
 10 13  1  0
  9 14  1  0
 11 15  1  0
 12 16  1  0
 13 16  1  0
 12 17  1  0
 14 18  2  0
 16 19  2  0
 15 20  2  0
 17 21  2  0
 18 21  1  0
 15 22  1  0
 22 23  2  0
 22 24  1  0
 23 25  1  0
 24 26  2  0
 25 27  1  0
 25 28  2  0
 26 28  1  0
M  END
