mac-x0178-mac-x0587
     RDKit          3D

 25 26  0  0  0  0  0  0  0  0999 V2000
   27.7310   44.1970   -0.4120 N   0  0  0  0  0  0  0  0  0  0  0  0
   28.0810   45.8100   -0.7230 S   0  0  0  0  0  0  0  0  0  0  0  0
   28.8160   46.3540    0.3970 O   0  0  0  0  0  0  0  0  0  0  0  0
   26.8530   46.4070   -1.1900 O   0  0  0  0  0  0  0  0  0  0  0  0
   29.2080   45.7020   -2.0790 C   0  0  0  0  0  0  0  0  0  0  0  0
   30.2990   44.8430   -2.0220 C   0  0  0  0  0  0  0  0  0  0  0  0
   28.9890   46.4960   -3.2030 C   0  0  0  0  0  0  0  0  0  0  0  0
   31.1840   44.7870   -3.0990 C   0  0  0  0  0  0  0  0  0  0  0  0
   29.8790   46.4340   -4.2780 C   0  0  0  0  0  0  0  0  0  0  0  0
   31.0000   45.5830   -4.2500 C   0  0  0  0  0  0  0  0  0  0  0  0
   32.0240   45.5160   -5.4030 C   0  0  1  0  0  0  0  0  0  0  0  0
   32.9020   44.4350   -5.0580 O   0  0  0  0  0  0  0  0  0  0  0  0
   31.4310   45.4100   -6.7900 N   0  0  0  0  0  0  0  0  0  0  0  0
   33.0170   47.0780   -5.1390 S   0  0  0  0  0  0  0  0  0  0  0  0
   31.9590   47.8060   -3.8360 C   0  0  1  0  0  0  0  0  0  0  0  0
   32.3050   45.2740   -7.6580 O   0  0  0  0  0  0  0  0  0  0  0  0
   32.5260   47.5880   -2.4390 C   0  0  0  0  0  0  0  0  0  0  0  0
   31.4390   49.2190   -4.0710 C   0  0  0  0  0  0  0  0  0  0  0  0
   32.1440   50.1650   -3.6960 O   0  0  0  0  0  0  0  0  0  0  0  0
   30.2050   49.4710   -4.6710 N   0  0  0  0  0  0  0  0  0  0  0  0
   29.3360   50.4500   -4.0510 C   0  0  0  0  0  0  0  0  0  0  0  0
   29.7250   49.2690   -5.9850 C   0  0  0  0  0  0  0  0  0  0  0  0
   29.8700   48.3270   -6.7410 O   0  0  0  0  0  0  0  0  0  0  0  0
   28.7740   51.2490   -5.2140 C   0  0  0  0  0  0  0  0  0  0  0  0
   28.9880   50.3940   -6.3450 N   0  0  0  0  0  0  0  0  0  0  0  0
  2  1  1  0
  2  3  2  0
  2  4  2  0
  2  5  1  0
  5  6  2  0
  5  7  1  0
  6  8  1  0
  7  9  2  0
  8 10  2  0
  9 10  1  0
 10 11  1  0
 11 12  1  1
 11 13  1  0
 11 14  1  0
 14 15  1  0
 13 16  2  0
 15 17  1  1
 15 18  1  0
 18 19  2  0
 18 20  1  0
 20 21  1  0
 20 22  1  0
 22 23  2  0
 21 24  1  0
 22 25  1  0
 24 25  1  0
M  END
