mac-x0415-mac-x0193
     RDKit          3D

 24 26  0  0  0  0  0  0  0  0999 V2000
   33.9650   46.5960   -5.9710 O   0  0  0  0  0  0  0  0  0  0  0  0
   32.8910   45.8700   -5.6020 C   0  0  0  0  0  0  0  0  0  0  0  0
   31.9530   45.7340   -6.3870 O   0  0  0  0  0  0  0  0  0  0  0  0
   32.9880   45.2990   -4.1650 C   0  0  2  0  0  0  0  0  0  0  0  0
   33.8740   44.0940   -4.1240 N   0  0  0  0  0  0  0  0  0  0  0  0
   31.5550   45.1200   -3.7460 C   0  0  0  0  0  0  0  0  0  0  0  0
   34.5820   43.6250   -3.0020 C   0  0  0  0  0  0  0  0  0  0  0  0
   30.6900   43.9430   -3.9800 C   0  0  0  0  0  0  0  0  0  0  0  0
   30.6980   45.9050   -3.0870 C   0  0  0  0  0  0  0  0  0  0  0  0
   34.1520   42.7130   -2.3150 O   0  0  0  0  0  0  0  0  0  0  0  0
   35.8050   44.2460   -2.7500 N   0  0  0  0  0  0  0  0  0  0  0  0
   29.4510   43.9700   -3.5430 N   0  0  0  0  0  0  0  0  0  0  0  0
   29.3320   45.3170   -2.9570 C   0  0  1  0  0  0  0  0  0  0  0  0
   30.8940   47.2090   -2.5150 C   0  0  0  0  0  0  0  0  0  0  0  0
   28.8250   45.4730   -1.5590 C   0  0  0  0  0  0  0  0  0  0  0  0
   30.1830   47.5140   -1.4100 C   0  0  0  0  0  0  0  0  0  0  0  0
   36.9900   43.6040   -2.1140 C   0  0  0  0  0  0  0  0  0  0  0  0
   30.3640   49.1660   -0.5610 Br  0  0  0  0  0  0  0  0  0  0  0  0
   29.2450   46.5400   -0.8360 C   0  0  0  0  0  0  0  0  0  0  0  0
   37.4050   42.2890   -2.7980 C   0  0  0  0  0  0  0  0  0  0  0  0
   36.8460   43.4180   -0.5910 C   0  0  0  0  0  0  0  0  0  0  0  0
   38.6240   41.6090   -2.1560 C   0  0  0  0  0  0  0  0  0  0  0  0
   38.0150   42.6660    0.0640 C   0  0  0  0  0  0  0  0  0  0  0  0
   39.1350   42.3480   -0.9220 C   0  0  0  0  0  0  0  0  0  0  0  0
  1  2  1  0
  2  3  2  0
  2  4  1  0
  4  5  1  6
  4  6  1  0
  5  7  1  0
  6  8  1  0
  6  9  2  0
  7 10  2  0
  7 11  1  0
  8 12  2  0
  9 13  1  0
 12 13  1  0
  9 14  1  0
 13 15  1  1
 14 16  2  0
 11 17  1  0
 16 18  1  0
 15 19  2  0
 16 19  1  0
 17 20  1  0
 17 21  1  0
 20 22  1  0
 21 23  1  0
 22 24  1  0
 23 24  1  0
M  END
