mac-x0328-mac-x0231
     RDKit          3D

 25 27  0  0  0  0  0  0  0  0999 V2000
   28.2870   47.7720   -3.9150 O   0  0  0  0  0  0  0  0  0  0  0  0
   29.2920   48.3110   -3.0780 C   0  0  0  0  0  0  0  0  0  0  0  0
   28.8480   48.2610   -1.7460 O   0  0  0  0  0  0  0  0  0  0  0  0
   29.4090   49.7860   -3.4890 C   0  0  0  0  0  0  0  0  0  0  0  0
   30.5860   47.5410   -3.2790 C   0  0  0  0  0  0  0  0  0  0  0  0
   29.1710   50.2150   -4.8120 C   0  0  0  0  0  0  0  0  0  0  0  0
   29.7650   50.7610   -2.5370 C   0  0  0  0  0  0  0  0  0  0  0  0
   30.6490   46.1760   -3.6650 C   0  0  0  0  0  0  0  0  0  0  0  0
   31.8060   48.2230   -3.0830 C   0  0  0  0  0  0  0  0  0  0  0  0
   29.2830   51.5630   -5.1680 C   0  0  0  0  0  0  0  0  0  0  0  0
   29.8770   52.1060   -2.8900 C   0  0  0  0  0  0  0  0  0  0  0  0
   31.8890   45.5640   -3.8700 C   0  0  0  0  0  0  0  0  0  0  0  0
   29.4600   45.3050   -3.8810 C   0  0  0  0  0  0  0  0  0  0  0  0
   33.0350   47.6020   -3.2670 C   0  0  0  0  0  0  0  0  0  0  0  0
   28.3280   45.7390   -4.0540 O   0  0  0  0  0  0  0  0  0  0  0  0
   29.6350   52.4970   -4.1980 C   0  0  0  0  0  0  0  0  0  0  0  0
   31.8980   44.1520   -4.3200 C   0  0  0  0  0  0  0  0  0  0  0  0
   29.7050   43.9530   -3.8520 N   0  0  0  0  0  0  0  0  0  0  0  0
   33.0770   46.2760   -3.6650 C   0  0  0  0  0  0  0  0  0  0  0  0
   29.7540   53.8220   -4.4960 O   0  0  0  0  0  0  0  0  0  0  0  0
   33.1720   43.5640   -4.8840 C   0  0  0  0  0  0  0  0  0  0  0  0
   30.8430   43.3900   -4.3040 N   0  0  0  0  0  0  0  0  0  0  0  0
   33.5260   44.1990   -6.2010 C   0  0  0  0  0  0  0  0  0  0  0  0
   34.8220   44.5620   -6.2730 O   0  0  0  0  0  0  0  0  0  0  0  0
   32.7830   44.4000   -7.1500 O   0  0  0  0  0  0  0  0  0  0  0  0
  2  1  1  0
  2  3  1  0
  2  4  1  0
  2  5  1  0
  4  6  2  0
  4  7  1  0
  5  8  1  0
  5  9  2  0
  6 10  1  0
  7 11  2  0
  8 12  2  0
  8 13  1  0
  9 14  1  0
 13 15  2  0
 10 16  2  0
 11 16  1  0
 12 17  1  0
 13 18  1  0
 12 19  1  0
 14 19  2  0
 16 20  1  0
 17 21  1  0
 17 22  2  0
 18 22  1  0
 21 23  1  0
 23 24  1  0
 23 25  2  0
M  END
