mac-x0439-mac-x0348
     RDKit          3D

 22 25  0  0  0  0  0  0  0  0999 V2000
   29.7580   44.6520   -0.5400 Cl  0  0  0  0  0  0  0  0  0  0  0  0
   30.4670   46.1990   -1.2100 C   0  0  1  0  0  0  0  0  0  0  0  0
   31.5320   45.8080   -2.3090 C   0  0  2  0  0  0  0  0  0  0  0  0
   29.3010   47.0280   -1.8440 C   0  0  1  0  0  0  0  0  0  0  0  0
   31.0100   46.9520   -0.0050 C   0  0  0  0  0  0  0  0  0  0  0  0
   30.8400   44.9380   -3.4000 C   0  0  2  0  0  0  0  0  0  0  0  0
   28.6060   46.2060   -2.9310 C   0  0  0  0  0  0  0  0  0  0  0  0
   30.2280   47.7580    0.7350 C   0  0  0  0  0  0  0  0  0  0  0  0
   28.3650   47.6040   -0.8040 C   0  0  0  0  0  0  0  0  0  0  0  0
   32.7960   45.1650   -1.7830 C   0  0  0  0  0  0  0  0  0  0  0  0
   31.8710   44.3660   -4.4190 C   0  0  2  0  0  0  0  0  0  0  0  0
   33.4030   44.1320   -2.3850 C   0  0  0  0  0  0  0  0  0  0  0  0
   29.5980   45.6720   -4.0030 C   0  0  1  0  0  0  0  0  0  0  0  0
   28.8310   47.9430    0.4090 C   0  0  0  0  0  0  0  0  0  0  0  0
   31.1910   43.5810   -5.5880 C   0  0  2  0  0  0  0  0  0  0  0  0
   29.9750   46.8280   -4.9030 C   0  0  0  0  0  0  0  0  0  0  0  0
   32.8950   43.4950   -3.6470 C   0  0  0  0  0  0  0  0  0  0  0  0
   32.1380   43.2710   -6.5930 O   0  0  0  0  0  0  0  0  0  0  0  0
   30.1510   44.2900   -6.3110 N   0  0  0  0  0  0  0  0  0  0  0  0
   30.3970   46.7340   -6.1790 C   0  0  0  0  0  0  0  0  0  0  0  0
   30.5870   45.4880   -6.9820 C   0  0  1  0  0  0  0  0  0  0  0  0
   31.9760   45.3450   -7.1750 O   0  0  0  0  0  0  0  0  0  0  0  0
  2  1  1  1
  2  3  1  0
  2  4  1  0
  2  5  1  0
  3  6  1  0
  4  7  1  6
  5  8  2  0
  4  9  1  0
  3 10  1  1
  6 11  1  0
 10 12  2  0
  6 13  1  6
 13  7  1  1
  8 14  1  0
  9 14  2  0
 11 15  1  0
 13 16  1  0
 11 17  1  1
 12 17  1  0
 15 18  1  6
 15 19  1  0
 16 20  2  0
 19 21  1  0
 20 21  1  0
 21 22  1  1
M  END
