mac-x0396-mac-x0373
     RDKit          3D

 25 27  0  0  0  0  0  0  0  0999 V2000
   28.7450   51.4230   -3.8370 N   0  0  0  0  0  0  0  0  0  0  0  0
   29.4310   51.6390   -4.9980 C   0  0  0  0  0  0  0  0  0  0  0  0
   29.5470   50.5850   -5.7370 N   0  0  0  0  0  0  0  0  0  0  0  0
   29.8850   53.0090   -5.1510 C   0  0  0  0  0  0  0  0  0  0  0  0
   30.4820   53.5810   -4.0430 C   0  0  0  0  0  0  0  0  0  0  0  0
   29.7430   53.7520   -6.3100 C   0  0  0  0  0  0  0  0  0  0  0  0
   28.9340   49.4860   -5.1860 C   0  0  0  0  0  0  0  0  0  0  0  0
   30.9450   54.8450   -4.0140 N   0  0  0  0  0  0  0  0  0  0  0  0
   30.2100   55.0590   -6.3120 C   0  0  0  0  0  0  0  0  0  0  0  0
   27.6450   49.6820   -4.6960 C   0  0  0  0  0  0  0  0  0  0  0  0
   29.5400   48.2150   -5.0860 C   0  0  0  0  0  0  0  0  0  0  0  0
   30.9380   47.8580   -5.6020 C   0  0  2  0  0  0  0  0  0  0  0  0
   30.7960   55.5570   -5.1530 C   0  0  0  0  0  0  0  0  0  0  0  0
   28.8030   47.1940   -4.4700 C   0  0  0  0  0  0  0  0  0  0  0  0
   26.9390   48.6680   -4.0980 C   0  0  0  0  0  0  0  0  0  0  0  0
   30.9300   46.5390   -6.3980 C   0  0  0  0  0  0  0  0  0  0  0  0
   32.0910   47.9760   -4.6030 C   0  0  0  0  0  0  0  0  0  0  0  0
   27.5200   47.4200   -3.9810 C   0  0  0  0  0  0  0  0  0  0  0  0
   31.8990   46.4960   -7.3610 O   0  0  0  0  0  0  0  0  0  0  0  0
   30.1710   45.5910   -6.2440 O   0  0  0  0  0  0  0  0  0  0  0  0
   32.4420   46.8830   -3.7880 C   0  0  0  0  0  0  0  0  0  0  0  0
   32.8320   49.1620   -4.4730 C   0  0  0  0  0  0  0  0  0  0  0  0
   33.4990   46.9750   -2.8790 C   0  0  0  0  0  0  0  0  0  0  0  0
   33.8870   49.2510   -3.5650 C   0  0  0  0  0  0  0  0  0  0  0  0
   34.2230   48.1610   -2.7680 C   0  0  0  0  0  0  0  0  0  0  0  0
  1  2  1  0
  2  3  2  3
  2  4  1  0
  4  5  2  0
  4  6  1  0
  3  7  1  0
  5  8  1  0
  6  9  2  0
  7 10  2  0
  7 11  1  0
 11 12  1  0
  8 13  2  0
  9 13  1  0
 11 14  2  0
 10 15  1  0
 12 16  1  1
 12 17  1  0
 14 18  1  0
 15 18  2  0
 16 19  1  0
 16 20  2  0
 17 21  2  0
 17 22  1  0
 21 23  1  0
 22 24  2  0
 23 25  2  0
 24 25  1  0
M  END
