mac-x0572-mac-x0439
     RDKit          3D

 28 31  0  0  0  0  0  0  0  0999 V2000
   28.6030   55.9180   -7.1410 C   0  0  0  0  0  0  0  0  0  0  0  0
   28.9150   54.7140   -6.2840 C   0  0  0  0  0  0  0  0  0  0  0  0
   28.4810   53.5190   -6.8380 N   0  0  0  0  0  0  0  0  0  0  0  0
   29.5510   54.8330   -5.1020 C   0  0  0  0  0  0  0  0  0  0  0  0
   29.9740   56.0310   -4.5570 O   0  0  0  0  0  0  0  0  0  0  0  0
   29.8210   53.5880   -4.3330 C   0  0  0  0  0  0  0  0  0  0  0  0
   28.9030   52.3930   -6.3240 C   0  0  0  0  0  0  0  0  0  0  0  0
   30.0100   53.6170   -3.1140 O   0  0  0  0  0  0  0  0  0  0  0  0
   29.8560   52.3200   -5.1510 C   0  0  2  0  0  0  0  0  0  0  0  0
   28.4400   51.1090   -6.9210 C   0  0  0  0  0  0  0  0  0  0  0  0
   28.4970   49.9960   -6.1650 C   0  0  0  0  0  0  0  0  0  0  0  0
   29.6170   51.0880   -4.3190 C   0  0  0  0  0  0  0  0  0  0  0  0
   28.9860   49.9980   -4.7960 C   0  0  0  0  0  0  0  0  0  0  0  0
   28.7730   48.7730   -3.9360 C   0  0  0  0  0  0  0  0  0  0  0  0
   29.5260   48.8170   -2.5940 C   0  0  0  0  0  0  0  0  0  0  0  0
   30.3320   47.5580   -2.2270 C   0  0  0  0  0  0  0  0  0  0  0  0
   29.6260   46.2190   -2.2140 C   0  0  0  0  0  0  0  0  0  0  0  0
   30.2290   45.1040   -3.0290 C   0  0  2  0  0  0  0  0  0  0  0  0
   28.4990   45.9350   -1.5250 C   0  0  0  0  0  0  0  0  0  0  0  0
   30.8830   45.2840   -4.3550 C   0  0  0  0  0  0  0  0  0  0  0  0
   29.1400   44.1580   -3.5120 C   0  0  0  0  0  0  0  0  0  0  0  0
   27.8760   44.6170   -1.5670 C   0  0  0  0  0  0  0  0  0  0  0  0
   30.2590   44.5190   -5.2620 C   0  0  0  0  0  0  0  0  0  0  0  0
   29.1730   43.8150   -4.7710 N   0  0  0  0  0  0  0  0  0  0  0  0
   28.1530   43.7100   -2.5210 C   0  0  0  0  0  0  0  0  0  0  0  0
   30.6670   44.4060   -6.6950 C   0  0  0  0  0  0  0  0  0  0  0  0
   30.3960   43.1660   -7.1600 O   0  0  0  0  0  0  0  0  0  0  0  0
   31.1800   45.2860   -7.3670 O   0  0  0  0  0  0  0  0  0  0  0  0
  1  2  1  0
  2  3  1  0
  2  4  2  0
  4  5  1  0
  4  6  1  0
  3  7  2  0
  6  8  2  0
  6  9  1  0
  7  9  1  0
  7 10  1  0
 10 11  2  0
  9 12  1  1
 11 13  1  0
 12 13  2  0
 13 14  1  0
 14 15  1  0
 15 16  1  0
 16 17  1  0
 17 18  1  0
 17 19  2  0
 18 20  1  6
 18 21  1  0
 19 22  1  0
 20 23  2  0
 21 24  2  0
 23 24  1  0
 21 25  1  0
 22 25  2  0
 23 26  1  0
 26 27  1  0
 26 28  2  0
M  END
