mac-x0277-mac-x0306
     RDKit          3D

 25 27  0  0  0  0  0  0  0  0999 V2000
   27.6720   45.8300   -0.7480 Cl  0  0  0  0  0  0  0  0  0  0  0  0
   29.0550   45.5230   -1.7360 C   0  0  0  0  0  0  0  0  0  0  0  0
   30.0810   46.4670   -1.9020 C   0  0  0  0  0  0  0  0  0  0  0  0
   29.1230   44.2830   -2.3790 C   0  0  0  0  0  0  0  0  0  0  0  0
   30.0680   47.8260   -1.2390 C   0  0  0  0  0  0  0  0  0  0  0  0
   31.1730   46.1300   -2.7290 C   0  0  0  0  0  0  0  0  0  0  0  0
   30.2100   43.9660   -3.1930 C   0  0  0  0  0  0  0  0  0  0  0  0
   29.3550   48.9150   -2.0500 C   0  0  0  0  0  0  0  0  0  0  0  0
   31.2490   44.8880   -3.3770 C   0  0  0  0  0  0  0  0  0  0  0  0
   32.4300   44.5460   -4.2570 C   0  0  0  0  0  0  0  0  0  0  0  0
   30.3150   49.9480   -2.6470 C   0  0  0  0  0  0  0  0  0  0  0  0
   32.4170   45.1970   -5.6290 C   0  0  0  0  0  0  0  0  0  0  0  0
   29.6810   50.7070   -3.7890 C   0  0  0  0  0  0  0  0  0  0  0  0
   33.3890   46.1340   -5.7630 O   0  0  0  0  0  0  0  0  0  0  0  0
   31.6460   44.9440   -6.5410 O   0  0  0  0  0  0  0  0  0  0  0  0
   29.8000   52.0950   -3.8670 C   0  0  0  0  0  0  0  0  0  0  0  0
   29.0080   49.9790   -4.7090 N   0  0  0  0  0  0  0  0  0  0  0  0
   28.4400   50.6490   -5.7340 C   0  0  0  0  0  0  0  0  0  0  0  0
   29.2030   52.7740   -4.9380 C   0  0  0  0  0  0  0  0  0  0  0  0
   29.2780   54.2300   -5.0980 C   0  0  0  0  0  0  0  0  0  0  0  0
   28.5100   52.0210   -5.8860 C   0  0  0  0  0  0  0  0  0  0  0  0
   28.9020   54.9140   -6.2360 N   0  0  0  0  0  0  0  0  0  0  0  0
   29.7090   55.0920   -4.1920 N   0  0  0  0  0  0  0  0  0  0  0  0
   29.6080   56.3340   -4.7540 C   0  0  0  0  0  0  0  0  0  0  0  0
   29.1070   56.2480   -6.0290 C   0  0  0  0  0  0  0  0  0  0  0  0
  1  2  1  0
  2  3  2  0
  2  4  1  0
  3  5  1  0
  3  6  1  0
  4  7  2  0
  5  8  1  0
  6  9  2  0
  7  9  1  0
  9 10  1  0
  8 11  1  0
 10 12  1  0
 11 13  1  0
 12 14  1  0
 12 15  2  0
 13 16  2  0
 13 17  1  0
 17 18  2  0
 16 19  1  0
 19 20  1  0
 18 21  1  0
 19 21  2  0
 20 22  1  0
 20 23  2  0
 23 24  1  0
 22 25  1  0
 24 25  2  0
M  END
