mac-x0303-mac-x0587
     RDKit          3D

 23 24  0  0  0  0  0  0  0  0999 V2000
   30.4190   56.2140   -6.5620 N   0  0  0  0  0  0  0  0  0  0  0  0
   29.1460   55.7970   -5.5160 S   0  0  0  0  0  0  0  0  0  0  0  0
   27.9430   56.0460   -6.2770 O   0  0  0  0  0  0  0  0  0  0  0  0
   29.4380   56.4980   -4.2840 O   0  0  0  0  0  0  0  0  0  0  0  0
   29.2680   54.0150   -5.2160 C   0  0  0  0  0  0  0  0  0  0  0  0
   29.7180   53.4250   -4.0060 N   0  0  0  0  0  0  0  0  0  0  0  0
   28.9340   53.1780   -6.1640 N   0  0  0  0  0  0  0  0  0  0  0  0
   29.6680   52.1390   -4.2680 C   0  0  0  0  0  0  0  0  0  0  0  0
   29.1680   51.9510   -5.6260 C   0  0  0  0  0  0  0  0  0  0  0  0
   30.0200   50.9420   -3.4700 C   0  0  0  0  0  0  0  0  0  0  0  0
   29.0050   50.7560   -6.1770 C   0  0  0  0  0  0  0  0  0  0  0  0
   29.8690   49.7000   -4.0360 C   0  0  0  0  0  0  0  0  0  0  0  0
   29.3370   49.5390   -5.4100 C   0  0  0  0  0  0  0  0  0  0  0  0
   30.2620   48.4730   -3.2430 C   0  0  0  0  0  0  0  0  0  0  0  0
   29.1770   48.4280   -5.9300 O   0  0  0  0  0  0  0  0  0  0  0  0
   30.4650   47.0740   -3.9010 C   0  0  2  0  0  0  0  0  0  0  0  0
   30.4290   48.6080   -2.0320 O   0  0  0  0  0  0  0  0  0  0  0  0
   29.3210   46.1220   -3.5540 C   0  0  0  0  0  0  0  0  0  0  0  0
   32.1290   46.3230   -3.5790 S   0  0  0  0  0  0  0  0  0  0  0  0
   33.1250   46.8740   -5.0060 C   0  0  0  0  0  0  0  0  0  0  0  0
   33.1950   45.9140   -6.1840 C   0  0  0  0  0  0  0  0  0  0  0  0
   34.2130   45.5530   -6.7510 O   0  0  0  0  0  0  0  0  0  0  0  0
   31.9770   45.4720   -6.5850 O   0  0  0  0  0  0  0  0  0  0  0  0
  2  1  1  0
  2  3  2  0
  2  4  2  0
  2  5  1  0
  5  6  1  0
  5  7  2  0
  6  8  2  0
  7  9  1  0
  8  9  1  0
  8 10  1  0
  9 11  2  0
 10 12  2  0
 11 13  1  0
 12 13  1  0
 12 14  1  0
 13 15  2  0
 14 16  1  0
 14 17  2  0
 16 18  1  1
 16 19  1  0
 19 20  1  0
 20 21  1  0
 21 22  2  0
 21 23  1  0
M  END
