mac-x0568-mac-x0277
     RDKit          3D

 24 25  0  0  0  0  0  0  0  0999 V2000
   29.5700   56.2390   -5.9080 C   0  0  0  0  0  0  0  0  0  0  0  0
   29.5150   54.7670   -5.6180 C   0  0  0  0  0  0  0  0  0  0  0  0
   29.1290   53.8760   -6.6150 C   0  0  0  0  0  0  0  0  0  0  0  0
   29.8540   54.3670   -4.3720 N   0  0  0  0  0  0  0  0  0  0  0  0
   29.8050   53.0320   -4.1110 C   0  0  0  0  0  0  0  0  0  0  0  0
   29.0870   52.5100   -6.3220 C   0  0  0  0  0  0  0  0  0  0  0  0
   29.4300   52.0720   -5.0430 C   0  0  0  0  0  0  0  0  0  0  0  0
   29.4010   50.6210   -4.6680 C   0  0  0  0  0  0  0  0  0  0  0  0
   29.7820   50.3200   -3.4730 N   0  0  0  0  0  0  0  0  0  0  0  0
   28.9760   49.7170   -5.6110 N   0  0  0  0  0  0  0  0  0  0  0  0
   29.7810   48.9290   -3.0360 C   0  0  0  0  0  0  0  0  0  0  0  0
   30.5230   48.8210   -1.7050 C   0  0  0  0  0  0  0  0  0  0  0  0
   30.1820   47.5290   -0.9550 C   0  0  0  0  0  0  0  0  0  0  0  0
   30.0730   46.3440   -1.8910 C   0  0  0  0  0  0  0  0  0  0  0  0
   31.1730   46.0340   -2.7130 C   0  0  0  0  0  0  0  0  0  0  0  0
   28.9230   45.5390   -1.9760 C   0  0  0  0  0  0  0  0  0  0  0  0
   27.5190   45.8300   -1.0130 Cl  0  0  0  0  0  0  0  0  0  0  0  0
   31.1410   44.9510   -3.6040 C   0  0  0  0  0  0  0  0  0  0  0  0
   28.8830   44.4590   -2.8630 C   0  0  0  0  0  0  0  0  0  0  0  0
   32.3350   44.6340   -4.4760 C   0  0  0  0  0  0  0  0  0  0  0  0
   29.9830   44.1630   -3.6730 C   0  0  0  0  0  0  0  0  0  0  0  0
   32.3530   45.3490   -5.8090 C   0  0  0  0  0  0  0  0  0  0  0  0
   33.3990   46.1990   -5.9050 O   0  0  0  0  0  0  0  0  0  0  0  0
   31.5750   45.2400   -6.7400 O   0  0  0  0  0  0  0  0  0  0  0  0
  1  2  1  0
  2  3  2  0
  2  4  1  0
  4  5  2  0
  3  6  1  0
  5  7  1  0
  6  7  2  0
  7  8  1  0
  8  9  2  3
  8 10  1  0
  9 11  1  0
 11 12  1  0
 12 13  1  0
 13 14  1  0
 14 15  2  0
 14 16  1  0
 16 17  1  0
 15 18  1  0
 16 19  2  0
 18 20  1  0
 18 21  2  0
 19 21  1  0
 20 22  1  0
 22 23  1  0
 22 24  2  0
M  END
