mac-x0284-mac-x0255
     RDKit          3D

 24 26  0  0  0  0  0  0  0  0999 V2000
   27.3560   50.9330   -4.7340 C   0  0  0  0  0  0  0  0  0  0  0  0
   28.4840   49.9670   -4.5150 C   0  0  0  0  0  0  0  0  0  0  0  0
   29.3190   50.0810   -3.3990 C   0  0  0  0  0  0  0  0  0  0  0  0
   28.7090   48.9360   -5.4350 C   0  0  0  0  0  0  0  0  0  0  0  0
   29.7590   48.0190   -5.2580 C   0  0  0  0  0  0  0  0  0  0  0  0
   30.3660   49.1810   -3.2070 C   0  0  0  0  0  0  0  0  0  0  0  0
   29.8860   46.9770   -6.3210 C   0  0  0  0  0  0  0  0  0  0  0  0
   30.5910   48.1550   -4.1280 C   0  0  0  0  0  0  0  0  0  0  0  0
   31.6320   47.3030   -3.8960 O   0  0  0  0  0  0  0  0  0  0  0  0
   29.9990   47.3020   -7.4950 O   0  0  0  0  0  0  0  0  0  0  0  0
   29.8480   45.7030   -5.8200 O   0  0  0  0  0  0  0  0  0  0  0  0
   30.2890   45.4680   -4.5690 C   0  0  0  0  0  0  0  0  0  0  0  0
   31.4930   44.8120   -4.3560 C   0  0  0  0  0  0  0  0  0  0  0  0
   29.6040   45.8430   -3.3550 C   0  0  0  0  0  0  0  0  0  0  0  0
   32.4920   44.2410   -5.3390 C   0  0  0  0  0  0  0  0  0  0  0  0
   30.3420   45.4570   -2.2380 C   0  0  0  0  0  0  0  0  0  0  0  0
   31.8010   44.6670   -2.6820 S   0  0  0  0  0  0  0  0  0  0  0  0
   28.3700   46.5020   -3.1340 C   0  0  0  0  0  0  0  0  0  0  0  0
   33.0390   45.2120   -6.3700 C   0  0  0  0  0  0  0  0  0  0  0  0
   27.9090   46.7590   -1.8390 C   0  0  0  0  0  0  0  0  0  0  0  0
   29.8840   45.7140   -0.9280 C   0  0  0  0  0  0  0  0  0  0  0  0
   32.5960   44.9200   -7.6200 O   0  0  0  0  0  0  0  0  0  0  0  0
   33.7990   46.1570   -6.2170 O   0  0  0  0  0  0  0  0  0  0  0  0
   28.6670   46.3670   -0.7470 C   0  0  0  0  0  0  0  0  0  0  0  0
  1  2  1  0
  2  3  2  0
  2  4  1  0
  4  5  2  0
  3  6  1  0
  5  7  1  0
  5  8  1  0
  6  8  2  0
  8  9  1  0
  7 10  2  0
  7 11  1  0
 11 12  1  0
 12 13  2  0
 12 14  1  0
 13 15  1  0
 14 16  2  0
 13 17  1  0
 16 17  1  0
 14 18  1  0
 15 19  1  0
 18 20  2  0
 16 21  1  0
 19 22  1  0
 19 23  2  0
 20 24  1  0
 21 24  2  0
M  END
