mac-x0397-mac-x0567
     RDKit          3D

 16 18  0  0  0  0  0  0  0  0999 V2000
   30.2410   52.3410   -2.5470 Cl  0  0  0  0  0  0  0  0  0  0  0  0
   29.2560   51.3220   -3.6350 C   0  0  1  0  0  0  0  0  0  0  0  0
   29.1610   51.9640   -4.9930 C   0  0  0  0  0  0  0  0  0  0  0  0
   29.8840   49.9450   -3.7300 C   0  0  0  0  0  0  0  0  0  0  0  0
   29.0380   53.3380   -5.1700 N   0  0  0  0  0  0  0  0  0  0  0  0
   29.1830   51.2280   -6.1660 C   0  0  0  0  0  0  0  0  0  0  0  0
   29.9090   49.2170   -4.8700 C   0  0  0  0  0  0  0  0  0  0  0  0
   28.9680   53.6190   -6.4480 C   0  0  0  0  0  0  0  0  0  0  0  0
   29.0500   52.2750   -7.5090 S   0  0  0  0  0  0  0  0  0  0  0  0
   29.2940   49.7240   -6.2090 C   0  0  2  0  0  0  0  0  0  0  0  0
   28.8400   54.8670   -6.9280 N   0  0  0  0  0  0  0  0  0  0  0  0
   29.9820   49.0920   -7.4610 C   0  0  1  0  0  0  0  0  0  0  0  0
   27.9100   49.1350   -6.4360 C   0  0  0  0  0  0  0  0  0  0  0  0
   30.1110   47.6400   -7.5520 N   0  0  0  0  0  0  0  0  0  0  0  0
   29.0000   49.4150   -8.5070 N   0  0  0  0  0  0  0  0  0  0  0  0
   27.6650   49.3750   -7.8770 N   0  0  0  0  0  0  0  0  0  0  0  0
  2  1  1  1
  2  3  1  0
  2  4  1  0
  3  5  1  0
  3  6  2  0
  4  7  2  0
  5  8  2  0
  6  9  1  0
  8  9  1  0
  6 10  1  0
 10  7  1  1
  8 11  1  0
 10 12  1  0
 10 13  1  0
 12 14  1  1
 12 15  1  0
 13 16  1  0
 15 16  1  0
M  END
