mac-x0433-mac-x0590
     RDKit          3D

 25 28  0  0  0  0  0  0  0  0999 V2000
   29.0740   55.6630   -5.0010 C   0  0  0  0  0  0  0  0  0  0  0  0
   29.1520   54.2250   -4.5880 C   0  0  0  0  0  0  0  0  0  0  0  0
   29.1160   53.9570   -3.2670 N   0  0  0  0  0  0  0  0  0  0  0  0
   29.2590   53.2330   -5.5420 C   0  0  0  0  0  0  0  0  0  0  0  0
   29.3280   51.9290   -5.0820 C   0  0  0  0  0  0  0  0  0  0  0  0
   29.1870   52.6710   -2.9110 C   0  0  0  0  0  0  0  0  0  0  0  0
   29.1510   52.3840   -1.5630 N   0  0  0  0  0  0  0  0  0  0  0  0
   29.2910   51.6430   -3.7580 N   0  0  0  0  0  0  0  0  0  0  0  0
   29.4460   50.7570   -6.0580 C   0  0  1  0  0  0  0  0  0  0  0  0
   30.7770   50.1250   -6.0630 N   0  0  0  0  0  0  0  0  0  0  0  0
   28.2830   49.7580   -5.9130 C   0  0  2  0  0  0  0  0  0  0  0  0
   30.9900   49.2520   -4.9270 C   0  0  0  0  0  0  0  0  0  0  0  0
   28.8220   48.3290   -5.7290 C   0  0  2  0  0  0  0  0  0  0  0  0
   27.4090   49.5380   -7.0850 N   0  0  0  0  0  0  0  0  0  0  0  0
   30.0100   48.1750   -4.8750 N   0  0  0  0  0  0  0  0  0  0  0  0
   29.0430   47.8780   -7.1140 N   0  0  0  0  0  0  0  0  0  0  0  0
   28.2790   48.7830   -7.9720 C   0  0  0  0  0  0  0  0  0  0  0  0
   30.6090   46.8390   -4.8200 C   0  0  0  0  0  0  0  0  0  0  0  0
   31.7540   46.6890   -3.8040 C   0  0  0  0  0  0  0  0  0  0  0  0
   32.1490   45.2260   -3.5560 C   0  0  0  0  0  0  0  0  0  0  0  0
   33.5490   44.8940   -4.1050 C   0  0  2  0  0  0  0  0  0  0  0  0
   33.6250   44.9580   -5.6270 C   0  0  0  0  0  0  0  0  0  0  0  0
   33.9050   43.4380   -3.8680 C   0  0  0  0  0  0  0  0  0  0  0  0
   33.2520   42.7350   -5.0390 C   0  0  0  0  0  0  0  0  0  0  0  0
   33.2490   43.6660   -6.1280 O   0  0  0  0  0  0  0  0  0  0  0  0
  1  2  1  0
  2  3  2  0
  2  4  1  0
  4  5  2  0
  3  6  1  0
  6  7  1  0
  5  8  1  0
  6  8  2  0
  9  5  1  1
  9 10  1  0
  9 11  1  0
 10 12  1  0
 11 13  1  0
 11 14  1  6
 12 15  1  0
 13 15  1  0
 13 16  1  6
 14 17  1  0
 16 17  1  0
 15 18  1  0
 18 19  1  0
 19 20  1  0
 21 20  1  6
 21 22  1  0
 21 23  1  0
 23 24  1  0
 22 25  1  0
 24 25  1  0
M  END
