mac-x0305-mac-x0455
     RDKit          3D

 19 20  0  0  0  0  0  0  0  0999 V2000
   30.7240   47.3790   -7.7530 O   0  0  0  0  0  0  0  0  0  0  0  0
   30.6360   47.6020   -6.4200 C   0  0  0  0  0  0  0  0  0  0  0  0
   31.1150   46.6480   -5.7090 N   0  0  0  0  0  0  0  0  0  0  0  0
   29.9930   48.9240   -6.1500 C   0  0  0  0  0  0  0  0  0  0  0  0
   31.1670   46.5900   -4.2460 C   0  0  1  0  0  0  0  0  0  0  0  0
   28.6340   49.1490   -6.4070 C   0  0  0  0  0  0  0  0  0  0  0  0
   30.8040   49.8890   -5.6410 N   0  0  0  0  0  0  0  0  0  0  0  0
   27.7660   48.2240   -6.9160 O   0  0  0  0  0  0  0  0  0  0  0  0
   30.1780   47.6090   -3.6550 C   0  0  0  0  0  0  0  0  0  0  0  0
   30.6060   45.3320   -3.8420 O   0  0  0  0  0  0  0  0  0  0  0  0
   28.0960   50.4020   -6.1320 C   0  0  0  0  0  0  0  0  0  0  0  0
   30.2490   51.0940   -5.3860 C   0  0  0  0  0  0  0  0  0  0  0  0
   32.5710   46.5400   -3.6520 C   0  0  0  0  0  0  0  0  0  0  0  0
   28.9160   51.3980   -5.6100 C   0  0  0  0  0  0  0  0  0  0  0  0
   33.2850   47.6850   -3.2640 C   0  0  0  0  0  0  0  0  0  0  0  0
   33.2040   45.2910   -3.4750 C   0  0  0  0  0  0  0  0  0  0  0  0
   34.5700   47.5940   -2.7230 C   0  0  0  0  0  0  0  0  0  0  0  0
   34.4910   45.1980   -2.9340 C   0  0  0  0  0  0  0  0  0  0  0  0
   35.1730   46.3500   -2.5580 C   0  0  0  0  0  0  0  0  0  0  0  0
  1  2  1  0
  2  3  2  3
  2  4  1  0
  5  3  1  0
  4  6  2  0
  4  7  1  0
  6  8  1  0
  5  9  1  1
  5 10  1  0
  6 11  1  0
  7 12  2  0
  5 13  1  0
 11 14  2  0
 12 14  1  0
 13 15  2  0
 13 16  1  0
 15 17  1  0
 16 18  2  0
 17 19  2  0
 18 19  1  0
M  END
