mac-x0365-mac-x0375
     RDKit          3D

 24 25  0  0  0  0  0  0  0  0999 V2000
   29.2180   48.1150   -6.1280 O   0  0  0  0  0  0  0  0  0  0  0  0
   30.0030   48.5770   -5.1450 C   0  0  0  0  0  0  0  0  0  0  0  0
   30.8760   47.7830   -4.6580 N   0  0  0  0  0  0  0  0  0  0  0  0
   29.6620   49.9710   -4.8360 C   0  0  0  0  0  0  0  0  0  0  0  0
   31.0020   46.4190   -5.1690 C   0  0  0  0  0  0  0  0  0  0  0  0
   29.8520   50.4600   -3.5390 C   0  0  0  0  0  0  0  0  0  0  0  0
   29.1490   50.7980   -5.8460 C   0  0  0  0  0  0  0  0  0  0  0  0
   31.8860   45.6060   -4.2230 C   0  0  0  0  0  0  0  0  0  0  0  0
   29.5230   51.7850   -3.2700 C   0  0  0  0  0  0  0  0  0  0  0  0
   28.8230   52.1260   -5.5570 C   0  0  0  0  0  0  0  0  0  0  0  0
   29.6970   52.2740   -2.0350 F   0  0  0  0  0  0  0  0  0  0  0  0
   33.2230   45.2270   -4.8780 C   0  0  2  0  0  0  0  0  0  0  0  0
   29.0130   52.6120   -4.2700 C   0  0  0  0  0  0  0  0  0  0  0  0
   28.6880   53.9120   -4.0070 O   0  0  0  0  0  0  0  0  0  0  0  0
   32.9970   44.0440   -5.8230 C   0  0  0  0  0  0  0  0  0  0  0  0
   34.1270   44.8470   -3.8220 O   0  0  0  0  0  0  0  0  0  0  0  0
   32.3290   43.0110   -5.2470 O   0  0  0  0  0  0  0  0  0  0  0  0
   33.3690   44.0090   -6.9860 O   0  0  0  0  0  0  0  0  0  0  0  0
   35.1340   45.7240   -3.5110 C   0  0  0  0  0  0  0  0  0  0  0  0
   36.4980   45.4470   -3.6190 C   0  0  0  0  0  0  0  0  0  0  0  0
   34.7190   46.9770   -3.0550 C   0  0  0  0  0  0  0  0  0  0  0  0
   37.4360   46.4210   -3.2690 C   0  0  0  0  0  0  0  0  0  0  0  0
   35.6570   47.9490   -2.7080 C   0  0  0  0  0  0  0  0  0  0  0  0
   37.0180   47.6700   -2.8160 C   0  0  0  0  0  0  0  0  0  0  0  0
  1  2  1  0
  2  3  2  3
  2  4  1  0
  3  5  1  0
  4  6  2  0
  4  7  1  0
  5  8  1  0
  6  9  1  0
  7 10  2  0
  9 11  1  0
 12  8  1  1
  9 13  2  0
 10 13  1  0
 13 14  1  0
 12 15  1  0
 12 16  1  0
 15 17  1  0
 15 18  2  0
 16 19  1  0
 19 20  2  0
 19 21  1  0
 20 22  1  0
 21 23  2  0
 22 24  2  0
 23 24  1  0
M  END
