mac-x1493-mac-x0451
     RDKit          3D

 18 20  0  0  0  0  0  0  0  0999 V2000
   28.7870   48.2820   -4.6850 O   0  0  0  0  0  0  0  0  0  0  0  0
   30.0050   48.8560   -4.6290 C   0  0  0  0  0  0  0  0  0  0  0  0
   30.9980   48.1850   -4.3890 O   0  0  0  0  0  0  0  0  0  0  0  0
   29.9750   50.3180   -4.8690 C   0  0  0  0  0  0  0  0  0  0  0  0
   29.7090   50.8530   -6.1690 C   0  0  0  0  0  0  0  0  0  0  0  0
   30.2180   51.0600   -3.7760 C   0  0  0  0  0  0  0  0  0  0  0  0
   30.2810   52.4220   -3.5860 N   0  0  0  0  0  0  0  0  0  0  0  0
   29.8750   50.0130   -7.2610 N   0  0  0  0  0  0  0  0  0  0  0  0
   29.2950   52.1480   -6.4500 C   0  0  0  0  0  0  0  0  0  0  0  0
   29.0120   53.3100   -5.5740 C   0  0  0  0  0  0  0  0  0  0  0  0
   29.4900   53.4000   -4.2440 C   0  0  0  0  0  0  0  0  0  0  0  0
   29.5940   50.6490   -8.3660 C   0  0  0  0  0  0  0  0  0  0  0  0
   29.1170   52.2740   -8.1730 S   0  0  0  0  0  0  0  0  0  0  0  0
   29.6660   50.0790   -9.5820 N   0  0  0  0  0  0  0  0  0  0  0  0
   29.1710   54.5480   -3.4790 C   0  0  0  0  0  0  0  0  0  0  0  0
   28.2340   54.3820   -6.0680 C   0  0  0  0  0  0  0  0  0  0  0  0
   28.4020   55.5860   -3.9960 C   0  0  0  0  0  0  0  0  0  0  0  0
   27.9310   55.5050   -5.2930 C   0  0  0  0  0  0  0  0  0  0  0  0
  1  2  1  0
  2  3  2  0
  2  4  1  0
  4  5  1  0
  4  6  2  0
  6  7  1  0
  5  8  1  0
  5  9  2  0
  9 10  1  0
  7 11  1  0
 10 11  2  0
  8 12  2  0
  9 13  1  0
 12 13  1  0
 12 14  1  0
 11 15  1  0
 10 16  1  0
 15 17  2  0
 16 18  2  0
 17 18  1  0
M  END
