mac-x0213-mac-x0347
     RDKit          3D

 25 28  0  0  0  0  0  0  0  0999 V2000
   32.9800   46.6740   -6.1840 O   0  0  0  0  0  0  0  0  0  0  0  0
   31.8800   45.9430   -5.5380 S   0  0  0  0  0  0  0  0  0  0  0  0
   31.2860   45.6250   -6.9000 O   0  0  0  0  0  0  0  0  0  0  0  0
   33.0830   45.0460   -4.7770 O   0  0  0  0  0  0  0  0  0  0  0  0
   30.8340   45.0250   -4.8010 C   0  0  0  0  0  0  0  0  0  0  0  0
   31.4360   47.3950   -4.6120 C   0  0  0  0  0  0  0  0  0  0  0  0
   30.9590   44.8780   -3.2690 C   0  0  0  0  0  0  0  0  0  0  0  0
   29.3310   45.2890   -4.9750 C   0  0  0  0  0  0  0  0  0  0  0  0
   30.7350   48.3970   -5.2060 C   0  0  0  0  0  0  0  0  0  0  0  0
   31.7890   47.5380   -3.3080 C   0  0  0  0  0  0  0  0  0  0  0  0
   29.9040   45.8290   -2.7920 C   0  0  0  0  0  0  0  0  0  0  0  0
   28.9660   46.0640   -3.7730 C   0  0  0  0  0  0  0  0  0  0  0  0
   30.3760   49.5480   -4.5190 C   0  0  0  0  0  0  0  0  0  0  0  0
   31.4520   48.6440   -2.6170 N   0  0  0  0  0  0  0  0  0  0  0  0
   29.7820   46.4410   -1.5740 C   0  0  0  0  0  0  0  0  0  0  0  0
   27.9010   46.9180   -3.5200 C   0  0  0  0  0  0  0  0  0  0  0  0
   30.7540   49.6400   -3.2090 C   0  0  0  0  0  0  0  0  0  0  0  0
   29.6380   50.6280   -5.1360 C   0  0  0  0  0  0  0  0  0  0  0  0
   28.7190   47.2850   -1.3420 C   0  0  0  0  0  0  0  0  0  0  0  0
   27.7670   47.5370   -2.3000 C   0  0  0  0  0  0  0  0  0  0  0  0
   28.5150   50.3750   -5.9150 C   0  0  0  0  0  0  0  0  0  0  0  0
   29.9980   51.9540   -4.9970 C   0  0  0  0  0  0  0  0  0  0  0  0
   27.8140   51.4080   -6.5080 C   0  0  0  0  0  0  0  0  0  0  0  0
   29.3270   52.9980   -5.5690 C   0  0  0  0  0  0  0  0  0  0  0  0
   28.2050   52.7220   -6.3480 C   0  0  0  0  0  0  0  0  0  0  0  0
  1  2  1  0
  2  3  2  0
  2  4  1  0
  2  5  1  0
  2  6  1  0
  5  7  1  0
  5  8  1  0
  6  9  2  0
  6 10  1  0
  7 11  1  0
  8 12  1  0
 11 12  2  0
  9 13  1  0
 10 14  2  0
 11 15  1  0
 12 16  1  0
 13 17  2  0
 14 17  1  0
 13 18  1  0
 15 19  2  0
 16 20  2  0
 19 20  1  0
 18 21  2  0
 18 22  1  0
 21 23  1  0
 22 24  2  0
 23 25  2  0
 24 25  1  0
M  END
