mac-x0358-mac-x0333
     RDKit          3D

 21 23  0  0  0  0  0  0  0  0999 V2000
   31.7150   45.1280   -6.8830 O   0  0  0  0  0  0  0  0  0  0  0  0
   32.7630   45.4150   -6.0740 C   0  0  0  0  0  0  0  0  0  0  0  0
   33.7680   45.9670   -6.5000 O   0  0  0  0  0  0  0  0  0  0  0  0
   32.5500   45.0020   -4.6360 C   0  0  0  0  0  0  0  0  0  0  0  0
   32.3250   46.1840   -3.7320 C   0  0  0  0  0  0  0  0  0  0  0  0
   33.3040   46.7090   -2.8850 C   0  0  0  0  0  0  0  0  0  0  0  0
   31.0780   46.7980   -3.7520 C   0  0  0  0  0  0  0  0  0  0  0  0
   34.5520   46.1730   -2.8280 O   0  0  0  0  0  0  0  0  0  0  0  0
   33.0470   47.8090   -2.0660 C   0  0  0  0  0  0  0  0  0  0  0  0
   30.8160   47.9070   -2.9550 C   0  0  0  0  0  0  0  0  0  0  0  0
   29.5940   48.5370   -3.0080 O   0  0  0  0  0  0  0  0  0  0  0  0
   31.7960   48.4130   -2.1000 C   0  0  0  0  0  0  0  0  0  0  0  0
   29.4820   49.6600   -3.8360 C   0  0  0  0  0  0  0  0  0  0  0  0
   29.7510   50.8990   -3.2420 C   0  0  0  0  0  0  0  0  0  0  0  0
   29.1140   49.6070   -5.2080 C   0  0  0  0  0  0  0  0  0  0  0  0
   29.6420   52.0370   -4.0170 C   0  0  0  0  0  0  0  0  0  0  0  0
   29.0120   50.7840   -5.9700 C   0  0  0  0  0  0  0  0  0  0  0  0
   29.2810   51.9860   -5.3430 C   0  0  0  0  0  0  0  0  0  0  0  0
   29.8640   53.3110   -3.5930 O   0  0  0  0  0  0  0  0  0  0  0  0
   29.2300   53.2250   -5.9150 O   0  0  0  0  0  0  0  0  0  0  0  0
   29.6730   54.0510   -4.8160 C   0  0  0  0  0  0  0  0  0  0  0  0
  1  2  1  0
  2  3  2  0
  2  4  1  0
  4  5  1  0
  5  6  2  0
  5  7  1  0
  6  8  1  0
  6  9  1  0
  7 10  2  0
 10 11  1  0
  9 12  2  0
 10 12  1  0
 11 13  1  0
 13 14  2  0
 13 15  1  0
 14 16  1  0
 15 17  2  0
 16 18  2  0
 17 18  1  0
 16 19  1  0
 18 20  1  0
 19 21  1  0
 20 21  1  0
M  END
