mac-x0354-mac-x0371
     RDKit          3D

 24 26  0  0  0  0  0  0  0  0999 V2000
   35.9700   43.3810   -1.6790 C   0  0  0  0  0  0  0  0  0  0  0  0
   35.1870   43.4930   -2.8880 N   0  0  0  0  0  0  0  0  0  0  0  0
   34.4930   42.4280   -3.3220 N   0  0  0  0  0  0  0  0  0  0  0  0
   35.0550   44.6060   -3.6920 C   0  0  0  0  0  0  0  0  0  0  0  0
   33.9020   42.8690   -4.4310 C   0  0  0  0  0  0  0  0  0  0  0  0
   34.2050   44.2240   -4.7320 C   0  0  0  0  0  0  0  0  0  0  0  0
   35.7270   45.8660   -3.3970 C   0  0  0  0  0  0  0  0  0  0  0  0
   33.6800   44.9790   -5.9250 C   0  0  0  0  0  0  0  0  0  0  0  0
   37.1140   45.9790   -3.5280 C   0  0  0  0  0  0  0  0  0  0  0  0
   34.9840   46.9760   -2.9780 C   0  0  0  0  0  0  0  0  0  0  0  0
   33.2320   44.1240   -6.9610 O   0  0  0  0  0  0  0  0  0  0  0  0
   34.7640   45.6650   -6.5530 O   0  0  0  0  0  0  0  0  0  0  0  0
   32.5920   46.0500   -5.5980 C   0  0  0  0  0  0  0  0  0  0  0  0
   37.7530   47.1870   -3.2430 C   0  0  0  0  0  0  0  0  0  0  0  0
   35.6240   48.1840   -2.6940 C   0  0  0  0  0  0  0  0  0  0  0  0
   37.0080   48.2880   -2.8270 C   0  0  0  0  0  0  0  0  0  0  0  0
   31.4720   45.6750   -4.6380 C   0  0  0  0  0  0  0  0  0  0  0  0
   31.1310   46.5060   -3.5450 C   0  0  0  0  0  0  0  0  0  0  0  0
   30.7200   44.4860   -4.7910 C   0  0  0  0  0  0  0  0  0  0  0  0
   30.9880   43.3510   -6.0700 Cl  0  0  0  0  0  0  0  0  0  0  0  0
   31.9340   48.0020   -3.2020 Cl  0  0  0  0  0  0  0  0  0  0  0  0
   30.1010   46.1610   -2.6600 C   0  0  0  0  0  0  0  0  0  0  0  0
   29.6930   44.1500   -3.8990 C   0  0  0  0  0  0  0  0  0  0  0  0
   29.3840   44.9850   -2.8340 C   0  0  0  0  0  0  0  0  0  0  0  0
  1  2  1  0
  2  3  1  0
  2  4  1  0
  3  5  2  0
  4  6  2  0
  5  6  1  0
  4  7  1  0
  6  8  1  0
  7  9  2  0
  7 10  1  0
  8 11  1  0
  8 12  1  0
  8 13  1  0
  9 14  1  0
 10 15  2  0
 14 16  2  0
 15 16  1  0
 13 17  1  0
 17 18  2  0
 17 19  1  0
 19 20  1  0
 18 21  1  0
 18 22  1  0
 19 23  2  0
 22 24  2  0
 23 24  1  0
M  END
