mac-x0302-mac-x0163
     RDKit          3D

 30 33  0  0  0  0  0  0  0  0999 V2000
   29.8750   45.0480   -3.1190 O   0  0  0  0  0  0  0  0  0  0  0  0
   29.0980   45.9630   -3.7460 C   0  0  0  0  0  0  0  0  0  0  0  0
   28.3780   45.6200   -4.6690 O   0  0  0  0  0  0  0  0  0  0  0  0
   29.2580   47.3610   -3.1590 C   0  0  0  0  0  0  0  0  0  0  0  0
   28.8920   48.4500   -4.0760 N   0  0  0  0  0  0  0  0  0  0  0  0
   29.9300   49.0990   -4.8990 C   0  0  2  0  0  0  0  0  0  0  0  0
   31.2110   48.7760   -4.3730 O   0  0  0  0  0  0  0  0  0  0  0  0
   29.6750   50.6370   -4.8580 C   0  0  0  0  0  0  0  0  0  0  0  0
   29.9300   48.6670   -6.3900 C   0  0  0  0  0  0  0  0  0  0  0  0
   29.5160   51.3870   -3.6770 C   0  0  0  0  0  0  0  0  0  0  0  0
   29.5960   51.3380   -6.0850 C   0  0  0  0  0  0  0  0  0  0  0  0
   28.7970   48.9430   -7.1830 C   0  0  0  0  0  0  0  0  0  0  0  0
   30.9580   48.0030   -7.1060 C   0  0  0  0  0  0  0  0  0  0  0  0
   27.6610   49.5960   -6.6850 N   0  0  0  0  0  0  0  0  0  0  0  0
   29.2920   52.7640   -3.7370 C   0  0  0  0  0  0  0  0  0  0  0  0
   29.3710   52.7130   -6.1280 C   0  0  0  0  0  0  0  0  0  0  0  0
   30.8350   47.6760   -8.4130 N   0  0  0  0  0  0  0  0  0  0  0  0
   28.6770   48.6200   -8.4800 N   0  0  0  0  0  0  0  0  0  0  0  0
   32.2160   47.6140   -6.5290 N   0  0  0  0  0  0  0  0  0  0  0  0
   29.1480   53.4340   -2.5590 O   0  0  0  0  0  0  0  0  0  0  0  0
   29.2170   53.4330   -4.9510 C   0  0  0  0  0  0  0  0  0  0  0  0
   29.7050   48.0000   -9.0340 C   0  0  0  0  0  0  0  0  0  0  0  0
   33.2370   48.5110   -5.9190 C   0  0  0  0  0  0  0  0  0  0  0  0
   32.1280   46.2490   -5.9620 C   0  0  0  0  0  0  0  0  0  0  0  0
   34.0350   47.7890   -4.8160 C   0  0  0  0  0  0  0  0  0  0  0  0
   34.1190   49.1820   -7.0200 C   0  0  0  0  0  0  0  0  0  0  0  0
   32.8210   49.9500   -5.5030 C   0  0  0  0  0  0  0  0  0  0  0  0
   32.0010   46.3380   -4.4390 C   0  0  0  0  0  0  0  0  0  0  0  0
   33.1210   47.1450   -3.7790 C   0  0  0  0  0  0  0  0  0  0  0  0
   34.0620   50.4970   -6.2220 C   0  0  0  0  0  0  0  0  0  0  0  0
  1  2  1  0
  2  3  2  0
  2  4  1  0
  4  5  1  0
  5  6  1  0
  6  7  1  1
  6  8  1  0
  6  9  1  0
  8 10  2  0
  8 11  1  0
  9 12  2  0
  9 13  1  0
 12 14  1  0
 10 15  1  0
 11 16  2  0
 13 17  2  0
 12 18  1  0
 13 19  1  0
 15 20  1  0
 15 21  2  0
 16 21  1  0
 17 22  1  0
 18 22  2  0
 23 19  1  0
 19 24  1  0
 23 25  1  0
 23 26  1  0
 23 27  1  0
 24 28  1  0
 25 29  1  0
 28 29  1  0
 26 30  1  0
 27 30  1  0
M  END
