mac-x0282-mac-x0321
     RDKit          3D

 13 14  0  0  0  0  0  0  0  0999 V2000
   28.3390   52.2680   -7.0200 Cl  0  0  0  0  0  0  0  0  0  0  0  0
   28.9020   50.7450   -6.4480 N   0  0  0  0  0  0  0  0  0  0  0  0
   29.4530   50.5630   -5.2150 C   0  0  0  0  0  0  0  0  0  0  0  0
   28.8630   49.5720   -7.1480 C   0  0  0  0  0  0  0  0  0  0  0  0
   29.7930   49.2220   -5.0870 C   0  0  0  0  0  0  0  0  0  0  0  0
   29.4140   48.5900   -6.3230 C   0  0  0  0  0  0  0  0  0  0  0  0
   28.3790   49.4040   -8.4030 N   0  0  0  0  0  0  0  0  0  0  0  0
   30.4080   48.6530   -3.9010 C   0  0  0  0  0  0  0  0  0  0  0  0
   29.4760   47.2840   -6.8460 C   0  0  0  0  0  0  0  0  0  0  0  0
   28.4650   48.1310   -8.8470 C   0  0  0  0  0  0  0  0  0  0  0  0
   30.7020   47.3380   -3.9850 O   0  0  0  0  0  0  0  0  0  0  0  0
   30.6630   49.2670   -2.8730 O   0  0  0  0  0  0  0  0  0  0  0  0
   28.9880   47.0630   -8.1360 C   0  0  0  0  0  0  0  0  0  0  0  0
  1  2  1  0
  2  3  1  0
  2  4  1  0
  3  5  2  0
  4  6  2  0
  5  6  1  0
  4  7  1  0
  5  8  1  0
  6  9  1  0
  7 10  2  0
  8 11  1  0
  8 12  2  0
  9 13  2  0
 10 13  1  0
M  END
