mac-x0255-mac-x0417
     RDKit          3D

 23 26  0  0  0  0  0  0  0  0999 V2000
   31.1010   44.9160   -7.3090 O   0  0  0  0  0  0  0  0  0  0  0  0
   32.3590   45.1640   -6.8800 C   0  0  0  0  0  0  0  0  0  0  0  0
   33.1920   45.6380   -7.6420 O   0  0  0  0  0  0  0  0  0  0  0  0
   32.6620   44.8370   -5.4170 C   0  0  1  0  0  0  0  0  0  0  0  0
   33.8350   45.7280   -4.9960 C   0  0  0  0  0  0  0  0  0  0  0  0
   31.4980   45.0720   -4.4830 C   0  0  0  0  0  0  0  0  0  0  0  0
   30.4070   44.2630   -4.2210 C   0  0  0  0  0  0  0  0  0  0  0  0
   31.4370   46.5160   -3.5760 S   0  0  0  0  0  0  0  0  0  0  0  0
   34.7270   45.2320   -3.9060 C   0  0  0  0  0  0  0  0  0  0  0  0
   29.5090   44.8350   -3.2560 C   0  0  0  0  0  0  0  0  0  0  0  0
   29.9630   46.0810   -2.8200 C   0  0  0  0  0  0  0  0  0  0  0  0
   34.7180   43.9720   -3.4370 N   0  0  0  0  0  0  0  0  0  0  0  0
   35.6840   46.0280   -3.2530 C   0  0  0  0  0  0  0  0  0  0  0  0
   28.2980   44.3450   -2.7160 C   0  0  0  0  0  0  0  0  0  0  0  0
   29.2560   46.8420   -1.8720 C   0  0  0  0  0  0  0  0  0  0  0  0
   35.7040   43.9450   -2.4530 O   0  0  0  0  0  0  0  0  0  0  0  0
   36.2780   45.1770   -2.3490 C   0  0  0  0  0  0  0  0  0  0  0  0
   36.1090   47.3620   -3.3290 C   0  0  0  0  0  0  0  0  0  0  0  0
   27.5910   45.0980   -1.7730 C   0  0  0  0  0  0  0  0  0  0  0  0
   28.0680   46.3330   -1.3560 C   0  0  0  0  0  0  0  0  0  0  0  0
   37.3030   45.5560   -1.4840 C   0  0  0  0  0  0  0  0  0  0  0  0
   37.1360   47.7800   -2.4740 C   0  0  0  0  0  0  0  0  0  0  0  0
   37.7200   46.8910   -1.5700 C   0  0  0  0  0  0  0  0  0  0  0  0
  1  2  1  0
  2  3  2  0
  2  4  1  0
  4  5  1  1
  4  6  1  0
  6  7  2  0
  6  8  1  0
  5  9  1  0
  7 10  1  0
  8 11  1  0
 10 11  2  0
  9 12  2  0
  9 13  1  0
 10 14  1  0
 11 15  1  0
 12 16  1  0
 13 17  2  0
 16 17  1  0
 13 18  1  0
 14 19  2  0
 15 20  2  0
 19 20  1  0
 17 21  1  0
 18 22  2  0
 21 23  2  0
 22 23  1  0
M  END
