mac-x0277-mac-x0509
     RDKit          3D

 25 27  0  0  0  0  0  0  0  0999 V2000
   27.5370   46.3720   -0.9750 Cl  0  0  0  0  0  0  0  0  0  0  0  0
   28.8840   46.0310   -1.9990 C   0  0  0  0  0  0  0  0  0  0  0  0
   30.0390   46.8170   -1.9990 C   0  0  0  0  0  0  0  0  0  0  0  0
   28.7990   44.9260   -2.8510 C   0  0  0  0  0  0  0  0  0  0  0  0
   30.2190   48.2000   -0.9770 Cl  0  0  0  0  0  0  0  0  0  0  0  0
   31.1030   46.5010   -2.8480 C   0  0  0  0  0  0  0  0  0  0  0  0
   29.8630   44.6080   -3.7000 C   0  0  0  0  0  0  0  0  0  0  0  0
   31.0260   45.3930   -3.7070 C   0  0  0  0  0  0  0  0  0  0  0  0
   32.1800   45.0630   -4.6180 C   0  0  0  0  0  0  0  0  0  0  0  0
   32.2940   46.0050   -5.7980 C   0  0  0  0  0  0  0  0  0  0  0  0
   33.5760   46.4490   -5.9630 O   0  0  0  0  0  0  0  0  0  0  0  0
   31.3430   46.3100   -6.5110 O   0  0  0  0  0  0  0  0  0  0  0  0
   34.1780   47.2210   -4.9010 C   0  0  0  0  0  0  0  0  0  0  0  0
   35.2340   48.1720   -5.4790 C   0  0  0  0  0  0  0  0  0  0  0  0
   36.5770   48.1200   -4.7430 C   0  0  0  0  0  0  0  0  0  0  0  0
   37.4270   47.1040   -5.3670 N   0  0  0  0  0  0  0  0  0  0  0  0
   37.7690   46.0940   -4.6480 C   0  0  0  0  0  0  0  0  0  0  0  0
   37.3080   45.9920   -3.1770 C   0  0  0  0  0  0  0  0  0  0  0  0
   38.5300   44.9780   -4.9470 N   0  0  0  0  0  0  0  0  0  0  0  0
   37.5530   44.5330   -2.9100 C   0  0  0  0  0  0  0  0  0  0  0  0
   38.2720   43.9950   -3.9900 C   0  0  0  0  0  0  0  0  0  0  0  0
   37.1770   43.7630   -1.8280 C   0  0  0  0  0  0  0  0  0  0  0  0
   38.6290   42.6590   -4.0050 C   0  0  0  0  0  0  0  0  0  0  0  0
   37.5360   42.4100   -1.8350 C   0  0  0  0  0  0  0  0  0  0  0  0
   38.2550   41.8660   -2.9160 C   0  0  0  0  0  0  0  0  0  0  0  0
  1  2  1  0
  2  3  2  0
  2  4  1  0
  3  5  1  0
  3  6  1  0
  4  7  2  0
  6  8  2  0
  7  8  1  0
  8  9  1  0
  9 10  1  0
 10 11  1  0
 10 12  2  0
 11 13  1  0
 13 14  1  0
 14 15  1  0
 15 16  1  0
 16 17  2  3
 17 18  1  0
 17 19  1  0
 18 20  1  0
 19 21  1  0
 20 21  2  0
 20 22  1  0
 21 23  1  0
 22 24  2  0
 23 25  2  0
 24 25  1  0
M  END
