mac-x0301-mac-x0441
     RDKit          3D

 30 33  0  0  0  0  0  0  0  0999 V2000
   29.5780   45.9200   -4.6050 O   0  0  0  0  0  0  0  0  0  0  0  0
   30.3820   46.9940   -4.5750 C   0  0  0  0  0  0  0  0  0  0  0  0
   31.6100   46.8150   -4.2590 N   0  0  0  0  0  0  0  0  0  0  0  0
   29.6280   48.1950   -4.9350 C   0  0  0  0  0  0  0  0  0  0  0  0
   32.1340   45.4780   -3.9500 C   0  0  0  0  0  0  0  0  0  0  0  0
   29.1730   48.3980   -6.2280 C   0  0  0  0  0  0  0  0  0  0  0  0
   29.3490   49.1720   -3.9680 C   0  0  0  0  0  0  0  0  0  0  0  0
   33.4870   45.2740   -4.6520 C   0  0  2  0  0  0  0  0  0  0  0  0
   28.4650   49.5330   -6.5560 C   0  0  0  0  0  0  0  0  0  0  0  0
   28.6230   50.3270   -4.3150 C   0  0  0  0  0  0  0  0  0  0  0  0
   29.3400   47.5790   -7.3040 O   0  0  0  0  0  0  0  0  0  0  0  0
   33.3400   44.3520   -5.8520 C   0  0  0  0  0  0  0  0  0  0  0  0
   28.1740   50.5140   -5.6260 C   0  0  0  0  0  0  0  0  0  0  0  0
   28.1040   49.5620   -7.8680 O   0  0  0  0  0  0  0  0  0  0  0  0
   28.5870   48.2790   -8.3120 C   0  0  0  0  0  0  0  0  0  0  0  0
   34.5630   44.9680   -3.7070 N   0  0  0  0  0  0  0  0  0  0  0  0
   34.2150   44.5030   -6.8700 O   0  0  0  0  0  0  0  0  0  0  0  0
   32.4610   43.4920   -5.9060 O   0  0  0  0  0  0  0  0  0  0  0  0
   34.6900   43.7290   -3.1570 N   0  0  0  0  0  0  0  0  0  0  0  0
   35.5380   45.8250   -3.2660 C   0  0  0  0  0  0  0  0  0  0  0  0
   35.7740   43.8090   -2.3480 C   0  0  0  0  0  0  0  0  0  0  0  0
   36.3320   45.1150   -2.3930 C   0  0  0  0  0  0  0  0  0  0  0  0
   35.7250   47.2570   -3.6440 C   0  0  0  0  0  0  0  0  0  0  0  0
   36.2860   42.6460   -1.5300 C   0  0  0  0  0  0  0  0  0  0  0  0
   37.5100   45.7040   -1.6990 C   0  0  0  0  0  0  0  0  0  0  0  0
   36.7120   47.9280   -2.6640 C   0  0  0  0  0  0  0  0  0  0  0  0
   37.3270   42.0120   -2.1430 F   0  0  0  0  0  0  0  0  0  0  0  0
   36.7150   43.0070   -0.2910 F   0  0  0  0  0  0  0  0  0  0  0  0
   35.3200   41.6980   -1.3470 F   0  0  0  0  0  0  0  0  0  0  0  0
   37.9250   47.0340   -2.3630 C   0  0  0  0  0  0  0  0  0  0  0  0
  1  2  1  0
  2  3  2  3
  2  4  1  0
  3  5  1  0
  4  6  1  0
  4  7  2  0
  8  5  1  1
  6  9  2  0
  7 10  1  0
  6 11  1  0
  8 12  1  0
  9 13  1  0
 10 13  2  0
  9 14  1  0
 11 15  1  0
 14 15  1  0
  8 16  1  0
 12 17  1  0
 12 18  2  0
 16 19  1  0
 16 20  1  0
 19 21  2  0
 20 22  2  0
 21 22  1  0
 20 23  1  0
 21 24  1  0
 22 25  1  0
 23 26  1  0
 24 27  1  0
 24 28  1  0
 24 29  1  0
 25 30  1  0
 26 30  1  0
M  END
