mac-x0345-mac-x0439
     RDKit          3D

 24 26  0  0  0  0  0  0  0  0999 V2000
   29.5650   54.6390   -4.8570 C   0  0  0  0  0  0  0  0  0  0  0  0
   29.4150   53.1580   -4.6670 C   0  0  0  0  0  0  0  0  0  0  0  0
   29.7970   52.6750   -3.4500 N   0  0  0  0  0  0  0  0  0  0  0  0
   28.9170   52.3280   -5.6700 C   0  0  0  0  0  0  0  0  0  0  0  0
   28.3790   52.9650   -7.3690 Br  0  0  0  0  0  0  0  0  0  0  0  0
   28.8140   50.9680   -5.4100 C   0  0  0  0  0  0  0  0  0  0  0  0
   29.6920   51.3510   -3.2020 C   0  0  0  0  0  0  0  0  0  0  0  0
   30.0720   50.8100   -1.9600 N   0  0  0  0  0  0  0  0  0  0  0  0
   29.2040   50.4760   -4.1680 C   0  0  0  0  0  0  0  0  0  0  0  0
   29.2280   49.7180   -1.4630 C   0  0  0  0  0  0  0  0  0  0  0  0
   30.0520   48.4990   -1.0250 C   0  0  0  0  0  0  0  0  0  0  0  0
   30.4060   47.6020   -2.2190 C   0  0  0  0  0  0  0  0  0  0  0  0
   29.6930   46.2680   -2.2160 C   0  0  0  0  0  0  0  0  0  0  0  0
   30.2660   45.1230   -3.0100 C   0  0  2  0  0  0  0  0  0  0  0  0
   28.5560   46.0350   -1.5200 C   0  0  0  0  0  0  0  0  0  0  0  0
   30.9140   45.2730   -4.3390 C   0  0  0  0  0  0  0  0  0  0  0  0
   29.1410   44.2190   -3.4830 C   0  0  0  0  0  0  0  0  0  0  0  0
   27.8950   44.7330   -1.5400 C   0  0  0  0  0  0  0  0  0  0  0  0
   30.2630   44.5300   -5.2520 C   0  0  0  0  0  0  0  0  0  0  0  0
   29.1580   43.8750   -4.7380 N   0  0  0  0  0  0  0  0  0  0  0  0
   28.1460   43.8080   -2.4850 C   0  0  0  0  0  0  0  0  0  0  0  0
   30.6660   44.4070   -6.6810 C   0  0  0  0  0  0  0  0  0  0  0  0
   30.4220   43.1840   -7.1950 O   0  0  0  0  0  0  0  0  0  0  0  0
   31.1750   45.2700   -7.3760 O   0  0  0  0  0  0  0  0  0  0  0  0
  1  2  1  0
  2  3  2  0
  2  4  1  0
  4  5  1  0
  4  6  2  0
  3  7  1  0
  7  8  1  0
  6  9  1  0
  7  9  2  0
  8 10  1  0
 10 11  1  0
 11 12  1  0
 12 13  1  0
 13 14  1  0
 13 15  2  0
 14 16  1  6
 14 17  1  0
 15 18  1  0
 16 19  2  0
 17 20  2  0
 19 20  1  0
 17 21  1  0
 18 21  2  0
 19 22  1  0
 22 23  1  0
 22 24  2  0
M  END
