mac-x0453-mac-x0472
     RDKit          3D

 22 24  0  0  0  0  0  0  0  0999 V2000
   29.4770   55.8780   -6.2100 N   0  0  0  0  0  0  0  0  0  0  0  0
   30.0860   54.6510   -5.6850 C   0  0  0  0  0  0  0  0  0  0  0  0
   29.3600   54.1480   -4.4310 C   0  0  0  0  0  0  0  0  0  0  0  0
   29.3300   52.6580   -4.3630 C   0  0  0  0  0  0  0  0  0  0  0  0
   29.8140   51.7490   -5.2750 C   0  0  0  0  0  0  0  0  0  0  0  0
   28.7660   52.0070   -3.2870 N   0  0  0  0  0  0  0  0  0  0  0  0
   29.5410   50.5110   -4.7510 N   0  0  0  0  0  0  0  0  0  0  0  0
   28.9100   50.7220   -3.5510 C   0  0  0  0  0  0  0  0  0  0  0  0
   29.8440   49.2850   -5.3260 N   0  0  0  0  0  0  0  0  0  0  0  0
   31.2240   48.5000   -4.6510 S   0  0  0  0  0  0  0  0  0  0  0  0
   29.4300   49.1030   -6.6200 C   0  0  0  0  0  0  0  0  0  0  0  0
   31.1590   48.3800   -3.1590 O   0  0  0  0  0  0  0  0  0  0  0  0
   29.5160   47.9490   -7.2740 N   0  0  0  0  0  0  0  0  0  0  0  0
   28.7250   50.3400   -7.6240 S   0  0  0  0  0  0  0  0  0  0  0  0
   32.3910   49.8440   -5.0140 C   0  0  0  0  0  0  0  0  0  0  0  0
   28.5960   49.1890   -8.8760 C   0  0  0  0  0  0  0  0  0  0  0  0
   29.0390   47.9930   -8.5660 N   0  0  0  0  0  0  0  0  0  0  0  0
   33.3100   49.6980   -6.0630 C   0  0  0  0  0  0  0  0  0  0  0  0
   32.3930   51.0260   -4.2650 C   0  0  0  0  0  0  0  0  0  0  0  0
   34.2150   50.7230   -6.3530 C   0  0  0  0  0  0  0  0  0  0  0  0
   33.3000   52.0490   -4.5590 C   0  0  0  0  0  0  0  0  0  0  0  0
   34.2090   51.8940   -5.6040 C   0  0  0  0  0  0  0  0  0  0  0  0
  1  2  1  0
  2  3  1  0
  3  4  1  0
  4  5  2  0
  4  6  1  0
  5  7  1  0
  6  8  2  0
  7  8  1  0
  7  9  1  0
 10  9  1  1
  9 11  1  0
 10 12  2  0
 11 13  2  0
 11 14  1  0
 10 15  1  0
 14 16  1  0
 13 17  1  0
 16 17  2  0
 15 18  2  0
 15 19  1  0
 18 20  1  0
 19 21  2  0
 20 22  2  0
 21 22  1  0
M  END
