mac-x0360-mac-x0455
     RDKit          3D

 23 24  0  0  0  0  0  0  0  0999 V2000
   31.7420   55.1310   -6.9190 Cl  0  0  0  0  0  0  0  0  0  0  0  0
   32.0520   53.5350   -6.3480 C   0  0  0  0  0  0  0  0  0  0  0  0
   33.3670   53.1630   -6.0790 C   0  0  0  0  0  0  0  0  0  0  0  0
   30.9960   52.6330   -6.1590 C   0  0  0  0  0  0  0  0  0  0  0  0
   31.2870   51.3370   -5.6880 C   0  0  0  0  0  0  0  0  0  0  0  0
   33.6340   51.8760   -5.6140 C   0  0  0  0  0  0  0  0  0  0  0  0
   35.2540   51.4100   -5.2740 Cl  0  0  0  0  0  0  0  0  0  0  0  0
   30.0190   50.1120   -5.4140 S   0  0  0  0  0  0  0  0  0  0  0  0
   32.6040   50.9640   -5.4190 C   0  0  0  0  0  0  0  0  0  0  0  0
   30.9690   48.7200   -5.3610 N   0  0  0  0  0  0  0  0  0  0  0  0
   29.4660   50.3970   -4.1090 O   0  0  0  0  0  0  0  0  0  0  0  0
   29.1620   50.1030   -6.5780 O   0  0  0  0  0  0  0  0  0  0  0  0
   30.9590   47.5000   -4.5110 C   0  0  1  0  0  0  0  0  0  0  0  0
   29.9860   47.5800   -3.4790 O   0  0  0  0  0  0  0  0  0  0  0  0
   30.5000   46.3620   -5.4990 C   0  0  0  0  0  0  0  0  0  0  0  0
   32.3570   47.1010   -3.9940 C   0  0  0  0  0  0  0  0  0  0  0  0
   29.4470   45.7360   -5.4730 O   0  0  0  0  0  0  0  0  0  0  0  0
   31.4210   46.1000   -6.4630 O   0  0  0  0  0  0  0  0  0  0  0  0
   33.3260   48.0700   -3.6740 C   0  0  0  0  0  0  0  0  0  0  0  0
   32.7270   45.7430   -3.8260 C   0  0  0  0  0  0  0  0  0  0  0  0
   34.5970   47.7100   -3.2120 C   0  0  0  0  0  0  0  0  0  0  0  0
   34.0010   45.3850   -3.3650 C   0  0  0  0  0  0  0  0  0  0  0  0
   34.9350   46.3700   -3.0580 C   0  0  0  0  0  0  0  0  0  0  0  0
  1  2  1  0
  2  3  2  0
  2  4  1  0
  4  5  2  0
  3  6  1  0
  6  7  1  0
  5  8  1  0
  5  9  1  0
  6  9  2  0
  8 10  1  0
  8 11  2  0
  8 12  2  0
 10 13  1  0
 13 14  1  1
 13 15  1  0
 13 16  1  0
 15 17  2  0
 15 18  1  0
 16 19  2  0
 16 20  1  0
 19 21  1  0
 20 22  2  0
 21 23  2  0
 22 23  1  0
M  END
