mac-x0282-mac-x0337
     RDKit          3D

 20 22  0  0  0  0  0  0  0  0999 V2000
   34.6300   52.2220   -6.5370 C   0  0  0  0  0  0  0  0  0  0  0  0
   33.4880   51.5860   -5.8010 C   0  0  0  0  0  0  0  0  0  0  0  0
   32.5240   52.3800   -5.1630 C   0  0  0  0  0  0  0  0  0  0  0  0
   33.3720   50.1900   -5.7450 C   0  0  0  0  0  0  0  0  0  0  0  0
   32.3130   49.5960   -5.0630 C   0  0  0  0  0  0  0  0  0  0  0  0
   31.4610   51.7930   -4.4780 C   0  0  0  0  0  0  0  0  0  0  0  0
   31.3620   50.4010   -4.4310 C   0  0  0  0  0  0  0  0  0  0  0  0
   30.0290   49.6330   -3.5650 S   0  0  2  0  0  0  0  0  0  0  0  0
   30.4730   49.3290   -2.2280 O   0  0  0  0  0  0  0  0  0  0  0  0
   29.2410   48.7170   -4.5080 N   0  0  0  0  0  0  0  0  0  0  0  0
   28.8360   50.7740   -3.2520 N   0  0  0  0  0  0  0  0  0  0  0  0
   29.3280   48.8420   -5.9730 C   0  0  0  0  0  0  0  0  0  0  0  0
   29.2150   50.0720   -6.6460 C   0  0  0  0  0  0  0  0  0  0  0  0
   29.5270   47.6880   -6.7280 C   0  0  0  0  0  0  0  0  0  0  0  0
   29.0180   51.4380   -6.2930 C   0  0  0  0  0  0  0  0  0  0  0  0
   29.3090   50.0340   -8.0350 C   0  0  0  0  0  0  0  0  0  0  0  0
   29.6020   47.8030   -8.1080 C   0  0  0  0  0  0  0  0  0  0  0  0
   28.9980   52.1760   -7.4570 C   0  0  0  0  0  0  0  0  0  0  0  0
   29.1750   51.3100   -8.5080 N   0  0  0  0  0  0  0  0  0  0  0  0
   29.4990   48.9510   -8.8150 N   0  0  0  0  0  0  0  0  0  0  0  0
  1  2  1  0
  2  3  2  0
  2  4  1  0
  4  5  2  0
  3  6  1  0
  5  7  1  0
  6  7  2  0
  7  8  1  0
  8  9  2  0
  8 10  2  0
  8 11  1  1
 10 12  1  0
 12 13  1  0
 12 14  2  0
 13 15  1  0
 13 16  2  0
 14 17  1  0
 15 18  2  0
 16 19  1  0
 18 19  1  0
 16 20  1  0
 17 20  2  0
M  END
