mac-x0567-mac-x0123
     RDKit          3D

 19 22  0  0  0  0  0  0  0  0999 V2000
   29.7750   46.6080   -7.5080 N   0  0  0  0  0  0  0  0  0  0  0  0
   28.9150   47.6280   -7.2120 C   0  0  0  0  0  0  0  0  0  0  0  0
   27.6130   47.5120   -7.3220 N   0  0  0  0  0  0  0  0  0  0  0  0
   29.2580   48.9800   -6.7430 C   0  0  0  0  0  0  0  0  0  0  0  0
   27.0060   48.7620   -6.9340 N   0  0  0  0  0  0  0  0  0  0  0  0
   27.9560   49.5960   -6.6030 C   0  0  0  0  0  0  0  0  0  0  0  0
   30.4750   49.4600   -6.5210 C   0  0  0  0  0  0  0  0  0  0  0  0
   27.7400   50.9640   -6.1500 C   0  0  0  0  0  0  0  0  0  0  0  0
   30.8360   50.7800   -6.0660 C   0  0  0  0  0  0  0  0  0  0  0  0
   30.1010   51.8700   -5.7380 C   0  0  0  0  0  0  0  0  0  0  0  0
   28.6030   51.9270   -5.7850 C   0  0  0  0  0  0  0  0  0  0  0  0
   30.8580   53.0910   -5.3020 C   0  0  0  0  0  0  0  0  0  0  0  0
   27.9790   53.1090   -5.4140 N   0  0  0  0  0  0  0  0  0  0  0  0
   32.2490   53.1310   -5.2350 N   0  0  0  0  0  0  0  0  0  0  0  0
   28.6940   54.1120   -5.0520 C   0  0  0  0  0  0  0  0  0  0  0  0
   30.1560   54.1750   -4.9710 C   0  0  0  0  0  0  0  0  0  0  0  0
   30.5410   55.5370   -4.5070 C   0  0  0  0  0  0  0  0  0  0  0  0
   28.0980   55.4230   -4.6360 C   0  0  0  0  0  0  0  0  0  0  0  0
   29.2900   56.3640   -4.8140 C   0  0  0  0  0  0  0  0  0  0  0  0
  1  2  1  0
  2  3  2  0
  2  4  1  0
  3  5  1  0
  4  6  1  0
  5  6  2  0
  4  7  2  0
  6  8  1  0
  7  9  1  0
  9 10  2  0
  8 11  2  0
 10 11  1  0
 10 12  1  0
 11 13  1  0
 12 14  1  0
 13 15  2  0
 12 16  2  0
 15 16  1  0
 16 17  1  0
 15 18  1  0
 17 19  1  0
 18 19  1  0
M  END
