mac-x0213-mac-x0392
     RDKit          3D

 21 23  0  0  0  0  0  0  0  0999 V2000
   33.3600   45.6580   -5.9970 O   0  0  0  0  0  0  0  0  0  0  0  0
   32.1710   46.0920   -5.5490 C   0  0  0  0  0  0  0  0  0  0  0  0
   31.3070   46.7290   -6.2670 N   0  0  0  0  0  0  0  0  0  0  0  0
   31.9010   45.7730   -4.0930 C   0  0  0  0  0  0  0  0  0  0  0  0
   30.1120   47.1410   -5.7250 C   0  0  0  0  0  0  0  0  0  0  0  0
   31.5450   47.0430   -3.3000 C   0  0  0  0  0  0  0  0  0  0  0  0
   30.7640   44.7420   -3.9280 C   0  0  0  0  0  0  0  0  0  0  0  0
   29.4300   46.4710   -4.9590 O   0  0  0  0  0  0  0  0  0  0  0  0
   30.3230   46.6430   -2.5360 C   0  0  0  0  0  0  0  0  0  0  0  0
   29.8870   45.3630   -2.8840 C   0  0  0  0  0  0  0  0  0  0  0  0
   29.6570   48.5040   -6.1280 C   0  0  0  0  0  0  0  0  0  0  0  0
   29.6470   47.3920   -1.5850 C   0  0  0  0  0  0  0  0  0  0  0  0
   28.7670   44.8050   -2.2880 C   0  0  0  0  0  0  0  0  0  0  0  0
   29.2590   48.7610   -7.4510 C   0  0  0  0  0  0  0  0  0  0  0  0
   29.6270   49.5330   -5.1740 C   0  0  0  0  0  0  0  0  0  0  0  0
   29.2610   47.7870   -8.4640 N   0  0  0  0  0  0  0  0  0  0  0  0
   28.5180   46.8360   -0.9790 C   0  0  0  0  0  0  0  0  0  0  0  0
   28.0800   45.5500   -1.3310 C   0  0  0  0  0  0  0  0  0  0  0  0
   29.2000   50.7860   -5.5700 C   0  0  0  0  0  0  0  0  0  0  0  0
   28.8500   50.0650   -7.7270 C   0  0  0  0  0  0  0  0  0  0  0  0
   28.8100   51.0760   -6.8260 N   0  0  0  0  0  0  0  0  0  0  0  0
  1  2  1  0
  2  3  2  3
  2  4  1  0
  3  5  1  0
  4  6  1  0
  4  7  1  0
  5  8  2  0
  6  9  1  0
  7 10  1  0
  9 10  2  0
  5 11  1  0
  9 12  1  0
 10 13  1  0
 11 14  2  0
 11 15  1  0
 14 16  1  0
 12 17  2  0
 13 18  2  0
 17 18  1  0
 15 19  2  0
 14 20  1  0
 19 21  1  0
 20 21  2  0
M  END
