mac-x0555-mac-x0337
     RDKit          3D

 22 24  0  0  0  0  0  0  0  0999 V2000
   29.2080   55.6540   -6.7710 N   0  0  0  0  0  0  0  0  0  0  0  0
   29.3370   54.8140   -5.6620 C   0  0  0  0  0  0  0  0  0  0  0  0
   29.6670   55.2850   -4.3970 C   0  0  0  0  0  0  0  0  0  0  0  0
   29.1390   53.4470   -5.7670 C   0  0  0  0  0  0  0  0  0  0  0  0
   29.2690   52.6040   -4.6410 C   0  0  0  0  0  0  0  0  0  0  0  0
   29.8010   54.5170   -3.2920 N   0  0  0  0  0  0  0  0  0  0  0  0
   29.6050   53.2000   -3.4170 C   0  0  0  0  0  0  0  0  0  0  0  0
   29.0900   51.2170   -4.6610 C   0  0  0  0  0  0  0  0  0  0  0  0
   28.7770   50.5550   -5.8350 N   0  0  0  0  0  0  0  0  0  0  0  0
   29.7430   52.3970   -2.2890 C   0  0  0  0  0  0  0  0  0  0  0  0
   29.2280   50.4270   -3.5290 C   0  0  0  0  0  0  0  0  0  0  0  0
   29.9760   49.4450   -6.1600 S   0  0  0  0  0  0  0  0  0  0  0  0
   29.5570   51.0180   -2.3330 C   0  0  0  0  0  0  0  0  0  0  0  0
   29.8360   48.4470   -5.1200 O   0  0  0  0  0  0  0  0  0  0  0  0
   29.9250   49.1040   -7.5580 O   0  0  0  0  0  0  0  0  0  0  0  0
   31.4790   50.3520   -5.8200 C   0  0  0  0  0  0  0  0  0  0  0  0
   32.5820   49.6720   -5.3000 C   0  0  0  0  0  0  0  0  0  0  0  0
   31.5590   51.7300   -6.0720 C   0  0  0  0  0  0  0  0  0  0  0  0
   33.7640   50.3640   -5.0350 C   0  0  0  0  0  0  0  0  0  0  0  0
   32.7470   52.4160   -5.8030 C   0  0  0  0  0  0  0  0  0  0  0  0
   33.8590   51.7390   -5.2850 C   0  0  0  0  0  0  0  0  0  0  0  0
   35.1390   52.4730   -5.0020 C   0  0  0  0  0  0  0  0  0  0  0  0
  1  2  1  0
  2  3  2  0
  2  4  1  0
  4  5  2  0
  3  6  1  0
  5  7  1  0
  6  7  2  0
  5  8  1  0
  8  9  1  0
  7 10  1  0
  8 11  2  0
 12  9  1  0
 10 13  2  0
 11 13  1  0
 12 14  2  0
 12 15  2  0
 12 16  1  0
 16 17  2  0
 16 18  1  0
 17 19  1  0
 18 20  2  0
 19 21  2  0
 20 21  1  0
 21 22  1  0
M  END
