mac-x0271-mac-x0380
     RDKit          3D

 15 16  0  0  0  0  0  0  0  0999 V2000
   30.6170   49.6400   -3.5920 N   0  0  0  0  0  0  0  0  0  0  0  0
   29.8970   48.5860   -3.4510 C   0  0  0  0  0  0  0  0  0  0  0  0
   28.6420   48.6150   -3.9070 O   0  0  0  0  0  0  0  0  0  0  0  0
   29.9910   50.6890   -4.2060 C   0  0  0  0  0  0  0  0  0  0  0  0
   29.6450   51.8200   -3.5690 C   0  0  0  0  0  0  0  0  0  0  0  0
   29.7070   50.5290   -5.6170 C   0  0  0  0  0  0  0  0  0  0  0  0
   28.9580   52.9560   -4.2740 C   0  0  2  0  0  0  0  0  0  0  0  0
   29.2410   51.5380   -6.3680 C   0  0  0  0  0  0  0  0  0  0  0  0
   29.0010   52.8460   -5.7900 C   0  0  0  0  0  0  0  0  0  0  0  0
   29.5530   54.1820   -3.8270 O   0  0  0  0  0  0  0  0  0  0  0  0
   28.8220   53.9330   -6.5530 C   0  0  0  0  0  0  0  0  0  0  0  0
   29.2170   55.3320   -4.4350 C   0  0  0  0  0  0  0  0  0  0  0  0
   29.3970   56.4300   -3.9310 O   0  0  0  0  0  0  0  0  0  0  0  0
   28.5880   55.2020   -5.8400 C   0  0  0  0  0  0  0  0  0  0  0  0
   27.9270   56.0980   -6.3480 O   0  0  0  0  0  0  0  0  0  0  0  0
  1  2  2  3
  2  3  1  0
  1  4  1  0
  4  5  2  0
  4  6  1  0
  7  5  1  1
  6  8  2  0
  7  9  1  0
  8  9  1  0
  7 10  1  0
  9 11  2  0
 10 12  1  0
 12 13  2  0
 11 14  1  0
 12 14  1  0
 14 15  2  0
M  END
