mac-x0354-mac-x0453
     RDKit          3D

 26 28  0  0  0  0  0  0  0  0999 V2000
   35.5220   43.4750   -1.7200 C   0  0  0  0  0  0  0  0  0  0  0  0
   34.6960   43.6990   -2.8950 N   0  0  0  0  0  0  0  0  0  0  0  0
   33.7720   42.8490   -3.3080 N   0  0  0  0  0  0  0  0  0  0  0  0
   34.7590   44.7940   -3.7140 C   0  0  0  0  0  0  0  0  0  0  0  0
   33.1950   43.3480   -4.4040 C   0  0  0  0  0  0  0  0  0  0  0  0
   33.8040   44.5800   -4.6790 C   0  0  0  0  0  0  0  0  0  0  0  0
   35.6700   45.9090   -3.5320 C   0  0  0  0  0  0  0  0  0  0  0  0
   33.4100   45.4190   -5.8190 C   0  0  0  0  0  0  0  0  0  0  0  0
   37.0520   45.6560   -3.5050 C   0  0  0  0  0  0  0  0  0  0  0  0
   35.2980   47.2120   -3.3820 C   0  0  0  0  0  0  0  0  0  0  0  0
   32.3510   45.7110   -6.2830 N   0  0  0  0  0  0  0  0  0  0  0  0
   34.5220   46.0410   -6.5170 O   0  0  0  0  0  0  0  0  0  0  0  0
   37.9580   46.6850   -3.3360 C   0  0  0  0  0  0  0  0  0  0  0  0
   36.1800   48.2660   -3.2090 C   0  0  0  0  0  0  0  0  0  0  0  0
   31.1640   46.0400   -6.8030 C   0  0  0  0  0  0  0  0  0  0  0  0
   37.5250   47.9830   -3.1880 C   0  0  0  0  0  0  0  0  0  0  0  0
   30.7230   47.5060   -6.6560 C   0  0  0  0  0  0  0  0  0  0  0  0
   30.3750   47.8700   -5.2320 C   0  0  0  0  0  0  0  0  0  0  0  0
   29.9970   49.2450   -5.0480 N   0  0  0  0  0  0  0  0  0  0  0  0
   29.5760   50.1330   -5.9710 C   0  0  0  0  0  0  0  0  0  0  0  0
   30.0030   49.9000   -3.8690 C   0  0  0  0  0  0  0  0  0  0  0  0
   29.3200   51.3450   -5.3640 C   0  0  0  0  0  0  0  0  0  0  0  0
   29.5990   51.1670   -4.0360 N   0  0  0  0  0  0  0  0  0  0  0  0
   28.8430   52.6210   -5.9510 C   0  0  0  0  0  0  0  0  0  0  0  0
   29.9890   53.5400   -6.2710 C   0  0  0  0  0  0  0  0  0  0  0  0
   29.4880   54.7340   -6.8770 N   0  0  0  0  0  0  0  0  0  0  0  0
  1  2  1  0
  2  3  1  0
  2  4  1  0
  3  5  2  0
  4  6  2  0
  5  6  1  0
  4  7  1  0
  6  8  1  0
  7  9  2  0
  7 10  1  0
  8 11  2  3
  8 12  1  0
  9 13  1  0
 10 14  2  0
 11 15  1  0
 13 16  2  0
 14 16  1  0
 15 17  1  0
 17 18  1  0
 18 19  1  0
 19 20  1  0
 19 21  1  0
 20 22  2  0
 21 23  2  0
 22 23  1  0
 22 24  1  0
 24 25  1  0
 25 26  1  0
M  END
