mac-x0123-mac-x0179
     RDKit          3D

 30 34  0  0  0  0  0  0  0  0999 V2000
   28.6850   51.4240   -7.0390 N   0  0  0  0  0  0  0  0  0  0  0  0
   29.1250   52.1610   -5.9470 C   0  0  0  0  0  0  0  0  0  0  0  0
   29.0030   53.4950   -5.8400 C   0  0  0  0  0  0  0  0  0  0  0  0
   29.7620   51.4890   -4.8570 N   0  0  0  0  0  0  0  0  0  0  0  0
   30.2120   52.1920   -3.7290 C   0  0  0  0  0  0  0  0  0  0  0  0
   29.5180   54.1300   -4.5930 C   0  0  0  0  0  0  0  0  0  0  0  0
   28.4480   54.5790   -6.6990 C   0  0  0  0  0  0  0  0  0  0  0  0
   30.0580   50.1470   -4.6930 N   0  0  0  0  0  0  0  0  0  0  0  0
   30.0750   53.5390   -3.5970 N   0  0  0  0  0  0  0  0  0  0  0  0
   29.2970   55.6080   -4.6470 C   0  0  0  0  0  0  0  0  0  0  0  0
   29.1490   55.8270   -6.1550 C   0  0  0  0  0  0  0  0  0  0  0  0
   30.7660   51.3640   -2.8860 N   0  0  0  0  0  0  0  0  0  0  0  0
   30.6740   50.1500   -3.4790 C   0  0  0  0  0  0  0  0  0  0  0  0
   31.2470   48.9600   -2.7650 C   0  0  0  0  0  0  0  0  0  0  0  0
   32.7820   48.9420   -2.5090 C   0  0  0  0  0  0  0  0  0  0  0  0
   33.2140   47.5740   -2.7100 N   0  0  0  0  0  0  0  0  0  0  0  0
   34.1470   46.7150   -2.5110 C   0  0  0  0  0  0  0  0  0  0  0  0
   34.0670   45.4340   -2.9160 N   0  0  0  0  0  0  0  0  0  0  0  0
   35.4830   46.8030   -1.8340 C   0  0  0  0  0  0  0  0  0  0  0  0
   32.9930   44.8800   -3.7050 C   0  0  0  0  0  0  0  0  0  0  0  0
   34.7610   44.6440   -2.0490 C   0  0  0  0  0  0  0  0  0  0  0  0
   35.8430   45.4820   -1.5540 C   0  0  0  0  0  0  0  0  0  0  0  0
   36.3320   47.8430   -1.4790 C   0  0  0  0  0  0  0  0  0  0  0  0
   32.9240   45.5830   -5.0570 C   0  0  0  0  0  0  0  0  0  0  0  0
   34.5610   43.4870   -1.7300 O   0  0  0  0  0  0  0  0  0  0  0  0
   37.0280   45.1340   -0.9250 C   0  0  0  0  0  0  0  0  0  0  0  0
   37.5460   47.5130   -0.8390 C   0  0  0  0  0  0  0  0  0  0  0  0
   31.6650   45.6950   -5.5630 O   0  0  0  0  0  0  0  0  0  0  0  0
   33.8970   46.0150   -5.6580 O   0  0  0  0  0  0  0  0  0  0  0  0
   37.8870   46.1690   -0.5650 C   0  0  0  0  0  0  0  0  0  0  0  0
  1  2  1  0
  2  3  2  0
  2  4  1  0
  4  5  1  0
  3  6  1  0
  3  7  1  0
  4  8  1  0
  5  9  1  0
  6  9  2  0
  6 10  1  0
  7 11  1  0
 10 11  1  0
  5 12  2  0
  8 13  2  0
 12 13  1  0
 13 14  1  0
 14 15  1  0
 15 16  1  0
 16 17  2  3
 17 18  1  0
 17 19  1  0
 18 20  1  0
 18 21  1  0
 19 22  2  0
 21 22  1  0
 19 23  1  0
 20 24  1  0
 21 25  2  0
 22 26  1  0
 23 27  2  0
 24 28  1  0
 24 29  2  0
 26 30  2  0
 27 30  1  0
M  END
