mac-x0179-mac-x0387
     RDKit          3D

 27 30  0  0  0  0  0  0  0  0999 V2000
   32.8580   44.6630   -5.2890 O   0  0  0  0  0  0  0  0  0  0  0  0
   32.3730   45.8480   -4.6650 C   0  0  0  0  0  0  0  0  0  0  0  0
   33.1280   46.9080   -5.2370 O   0  0  0  0  0  0  0  0  0  0  0  0
   32.5450   45.7320   -3.1190 C   0  0  0  0  0  0  0  0  0  0  0  0
   30.8810   46.0060   -5.0690 C   0  0  0  0  0  0  0  0  0  0  0  0
   33.9230   45.8710   -2.6490 N   0  0  0  0  0  0  0  0  0  0  0  0
   30.3430   47.4290   -5.1410 C   0  0  0  0  0  0  0  0  0  0  0  0
   34.6490   44.8210   -2.1580 C   0  0  0  0  0  0  0  0  0  0  0  0
   34.4420   47.0560   -2.1930 C   0  0  0  0  0  0  0  0  0  0  0  0
   29.7070   47.9770   -6.2990 C   0  0  0  0  0  0  0  0  0  0  0  0
   30.4910   48.2260   -3.9890 C   0  0  0  0  0  0  0  0  0  0  0  0
   34.3340   43.6430   -2.1130 O   0  0  0  0  0  0  0  0  0  0  0  0
   33.9440   48.1670   -2.1720 O   0  0  0  0  0  0  0  0  0  0  0  0
   35.9110   45.3760   -1.6750 C   0  0  0  0  0  0  0  0  0  0  0  0
   35.7830   46.7530   -1.6980 C   0  0  0  0  0  0  0  0  0  0  0  0
   29.2390   49.3160   -6.2620 C   0  0  0  0  0  0  0  0  0  0  0  0
   29.5080   47.2670   -7.5000 C   0  0  0  0  0  0  0  0  0  0  0  0
   30.0300   49.5330   -3.9600 C   0  0  0  0  0  0  0  0  0  0  0  0
   37.0680   44.7530   -1.2520 C   0  0  0  0  0  0  0  0  0  0  0  0
   36.8050   47.5890   -1.2980 C   0  0  0  0  0  0  0  0  0  0  0  0
   28.6120   49.8420   -7.4170 C   0  0  0  0  0  0  0  0  0  0  0  0
   28.8810   47.8810   -8.5710 C   0  0  0  0  0  0  0  0  0  0  0  0
   29.4120   50.0730   -5.0830 C   0  0  0  0  0  0  0  0  0  0  0  0
   28.1230   51.1530   -7.4620 N   0  0  0  0  0  0  0  0  0  0  0  0
   38.1210   45.5790   -0.8420 C   0  0  0  0  0  0  0  0  0  0  0  0
   37.9910   46.9850   -0.8660 C   0  0  0  0  0  0  0  0  0  0  0  0
   28.4310   49.1480   -8.5540 N   0  0  0  0  0  0  0  0  0  0  0  0
  2  1  1  0
  2  3  1  0
  2  4  1  0
  2  5  1  0
  4  6  1  0
  5  7  1  0
  6  8  1  0
  6  9  1  0
  7 10  1  0
  7 11  2  0
  8 12  2  0
  9 13  2  0
  8 14  1  0
  9 15  1  0
 14 15  2  0
 10 16  2  0
 10 17  1  0
 11 18  1  0
 14 19  1  0
 15 20  1  0
 16 21  1  0
 17 22  2  0
 16 23  1  0
 18 23  2  0
 21 24  1  0
 19 25  2  0
 20 26  2  0
 25 26  1  0
 21 27  2  0
 22 27  1  0
M  END
