mac-x0417-mac-x0385
     RDKit          3D

 25 27  0  0  0  0  0  0  0  0999 V2000
   32.1730   44.9590   -6.3560 O   0  0  0  0  0  0  0  0  0  0  0  0
   33.0660   45.7130   -5.5570 C   0  0  0  0  0  0  0  0  0  0  0  0
   34.3690   45.5290   -6.0900 O   0  0  0  0  0  0  0  0  0  0  0  0
   32.9680   45.2660   -4.0770 C   0  0  0  0  0  0  0  0  0  0  0  0
   32.7290   47.2120   -5.7120 C   0  0  0  0  0  0  0  0  0  0  0  0
   31.6460   47.5120   -6.7640 C   0  0  0  0  0  0  0  0  0  0  0  0
   34.2850   45.0290   -3.3990 C   0  0  0  0  0  0  0  0  0  0  0  0
   30.3740   46.6530   -6.6500 C   0  0  0  0  0  0  0  0  0  0  0  0
   34.6130   43.7900   -2.9970 N   0  0  0  0  0  0  0  0  0  0  0  0
   35.3130   45.9600   -3.0880 C   0  0  0  0  0  0  0  0  0  0  0  0
   29.0510   47.4240   -6.5060 C   0  0  0  0  0  0  0  0  0  0  0  0
   35.8670   43.8990   -2.4140 O   0  0  0  0  0  0  0  0  0  0  0  0
   36.2840   45.1920   -2.4700 C   0  0  0  0  0  0  0  0  0  0  0  0
   35.5430   47.3370   -3.2490 C   0  0  0  0  0  0  0  0  0  0  0  0
   37.4920   45.6880   -1.9860 C   0  0  0  0  0  0  0  0  0  0  0  0
   36.7510   47.8720   -2.7720 C   0  0  0  0  0  0  0  0  0  0  0  0
   29.1390   48.5100   -5.4750 C   0  0  0  0  0  0  0  0  0  0  0  0
   37.7070   47.0630   -2.1540 C   0  0  0  0  0  0  0  0  0  0  0  0
   28.7410   49.7420   -5.8400 N   0  0  0  0  0  0  0  0  0  0  0  0
   29.6110   48.1870   -4.2630 N   0  0  0  0  0  0  0  0  0  0  0  0
   28.8260   50.7140   -4.9230 C   0  0  0  0  0  0  0  0  0  0  0  0
   29.6810   49.1900   -3.3730 C   0  0  0  0  0  0  0  0  0  0  0  0
   28.4040   51.9750   -5.3440 N   0  0  0  0  0  0  0  0  0  0  0  0
   29.3000   50.4890   -3.6440 C   0  0  0  0  0  0  0  0  0  0  0  0
   29.4060   51.5620   -2.6110 C   0  0  0  0  0  0  0  0  0  0  0  0
  2  1  1  0
  2  3  1  0
  2  4  1  0
  2  5  1  0
  5  6  1  0
  4  7  1  0
  6  8  1  0
  7  9  2  0
  7 10  1  0
  8 11  1  0
  9 12  1  0
 10 13  2  0
 12 13  1  0
 10 14  1  0
 13 15  1  0
 14 16  2  0
 11 17  1  0
 15 18  2  0
 16 18  1  0
 17 19  2  0
 17 20  1  0
 19 21  1  0
 20 22  2  0
 21 23  1  0
 21 24  2  0
 22 24  1  0
 24 25  1  0
M  END
