mac-x0496-mac-x0373
     RDKit          3D

 28 30  0  0  0  0  0  0  0  0999 V2000
   24.3770   59.0480   -6.6450 C   0  0  0  0  0  0  0  0  0  0  0  0
   25.6160   58.5270   -6.0290 C   0  0  0  0  0  0  0  0  0  0  0  0
   26.0870   58.9980   -4.8690 N   0  0  0  0  0  0  0  0  0  0  0  0
   26.3710   57.5250   -6.6020 N   0  0  0  0  0  0  0  0  0  0  0  0
   27.2440   58.2410   -4.6660 O   0  0  0  0  0  0  0  0  0  0  0  0
   27.3520   57.3910   -5.7300 C   0  0  0  0  0  0  0  0  0  0  0  0
   28.5280   56.4790   -5.7240 C   0  0  0  0  0  0  0  0  0  0  0  0
   28.1550   55.1540   -5.2700 N   0  0  0  0  0  0  0  0  0  0  0  0
   29.0920   54.3590   -4.6420 C   0  0  0  0  0  0  0  0  0  0  0  0
   30.0410   54.8200   -4.0140 O   0  0  0  0  0  0  0  0  0  0  0  0
   28.9120   52.8860   -4.7580 C   0  0  0  0  0  0  0  0  0  0  0  0
   27.7250   52.3950   -5.3190 C   0  0  0  0  0  0  0  0  0  0  0  0
   29.8950   51.9890   -4.3190 C   0  0  0  0  0  0  0  0  0  0  0  0
   27.5270   51.0190   -5.4420 C   0  0  0  0  0  0  0  0  0  0  0  0
   29.7050   50.6020   -4.4360 C   0  0  0  0  0  0  0  0  0  0  0  0
   30.7400   49.6480   -3.9710 C   0  0  0  0  0  0  0  0  0  0  0  0
   28.5130   50.1300   -5.0020 C   0  0  0  0  0  0  0  0  0  0  0  0
   31.2880   48.6520   -4.7230 C   0  0  0  0  0  0  0  0  0  0  0  0
   31.0880   49.9030   -2.6540 O   0  0  0  0  0  0  0  0  0  0  0  0
   30.8370   48.4680   -6.1330 C   0  0  0  0  0  0  0  0  0  0  0  0
   32.3220   47.7510   -4.1590 C   0  0  0  0  0  0  0  0  0  0  0  0
   31.6640   49.0060   -7.0500 O   0  0  0  0  0  0  0  0  0  0  0  0
   29.8180   47.8840   -6.4780 O   0  0  0  0  0  0  0  0  0  0  0  0
   31.9710   46.4770   -3.6900 C   0  0  0  0  0  0  0  0  0  0  0  0
   33.6640   48.1590   -4.0830 C   0  0  0  0  0  0  0  0  0  0  0  0
   32.9410   45.6290   -3.1550 C   0  0  0  0  0  0  0  0  0  0  0  0
   34.6330   47.3050   -3.5490 C   0  0  0  0  0  0  0  0  0  0  0  0
   34.2720   46.0400   -3.0840 C   0  0  0  0  0  0  0  0  0  0  0  0
  1  2  1  0
  2  3  2  0
  2  4  1  0
  3  5  1  0
  4  6  2  0
  5  6  1  0
  6  7  1  0
  7  8  1  0
  8  9  1  0
  9 10  2  0
  9 11  1  0
 11 12  2  0
 11 13  1  0
 12 14  1  0
 13 15  2  0
 15 16  1  0
 14 17  2  0
 15 17  1  0
 16 18  2  3
 16 19  1  0
 18 20  1  0
 18 21  1  0
 20 22  1  0
 20 23  2  0
 21 24  2  0
 21 25  1  0
 24 26  1  0
 25 27  2  0
 26 28  2  0
 27 28  1  0
M  END
