mac-x0301-mac-x0510
     RDKit          3D

 13 14  0  0  0  0  0  0  0  0999 V2000
   30.4420   45.6300   -4.7340 O   0  0  0  0  0  0  0  0  0  0  0  0
   30.4700   46.8540   -4.1620 C   0  0  0  0  0  0  0  0  0  0  0  0
   31.2040   47.1040   -3.2160 O   0  0  0  0  0  0  0  0  0  0  0  0
   29.5100   47.8580   -4.8000 C   0  0  2  0  0  0  0  0  0  0  0  0
   30.0110   48.2360   -6.1910 C   0  0  2  0  0  0  0  0  0  0  0  0
   29.3450   49.0340   -3.8870 C   0  0  0  0  0  0  0  0  0  0  0  0
   29.4720   49.5270   -6.7920 C   0  0  2  0  0  0  0  0  0  0  0  0
   29.1540   50.2860   -4.3140 C   0  0  0  0  0  0  0  0  0  0  0  0
   29.6920   47.2090   -7.1570 O   0  0  0  0  0  0  0  0  0  0  0  0
   29.0990   50.6200   -5.7590 C   0  0  0  0  0  0  0  0  0  0  0  0
   28.3640   49.0810   -7.5690 O   0  0  0  0  0  0  0  0  0  0  0  0
   28.8060   47.8280   -8.0930 C   0  0  0  0  0  0  0  0  0  0  0  0
   28.7740   51.7850   -6.0570 O   0  0  0  0  0  0  0  0  0  0  0  0
  1  2  1  0
  2  3  2  0
  4  2  1  1
  4  5  1  0
  4  6  1  0
  5  7  1  0
  6  8  2  0
  5  9  1  6
  7 10  1  0
  8 10  1  0
  7 11  1  1
  9 12  1  0
 11 12  1  0
 10 13  2  0
M  END
