mac-x0179-mac-x0360
     RDKit          3D

 29 31  0  0  0  0  0  0  0  0999 V2000
   31.5410   45.6100   -5.4310 O   0  0  0  0  0  0  0  0  0  0  0  0
   32.6290   46.1890   -4.7240 C   0  0  0  0  0  0  0  0  0  0  0  0
   33.7890   45.9220   -5.4930 O   0  0  0  0  0  0  0  0  0  0  0  0
   32.7090   45.5800   -3.2910 C   0  0  0  0  0  0  0  0  0  0  0  0
   32.4270   47.7180   -4.6840 C   0  0  0  0  0  0  0  0  0  0  0  0
   31.2700   48.2190   -5.5510 C   0  0  0  0  0  0  0  0  0  0  0  0
   34.0030   45.7590   -2.6370 N   0  0  0  0  0  0  0  0  0  0  0  0
   30.5050   49.2210   -4.7920 N   0  0  0  0  0  0  0  0  0  0  0  0
   34.7380   44.7230   -2.1180 C   0  0  0  0  0  0  0  0  0  0  0  0
   34.4330   46.9420   -2.1100 C   0  0  0  0  0  0  0  0  0  0  0  0
   34.4790   43.5360   -2.0680 O   0  0  0  0  0  0  0  0  0  0  0  0
   33.8400   48.0040   -2.0570 O   0  0  0  0  0  0  0  0  0  0  0  0
   29.8220   50.5170   -5.6170 S   0  0  0  0  0  0  0  0  0  0  0  0
   35.9660   45.3280   -1.6000 C   0  0  0  0  0  0  0  0  0  0  0  0
   35.7780   46.6970   -1.5960 C   0  0  0  0  0  0  0  0  0  0  0  0
   28.8690   51.1510   -4.7330 O   0  0  0  0  0  0  0  0  0  0  0  0
   29.4380   50.0190   -6.9180 O   0  0  0  0  0  0  0  0  0  0  0  0
   37.1440   44.7500   -1.1680 C   0  0  0  0  0  0  0  0  0  0  0  0
   36.7530   47.5730   -1.1630 C   0  0  0  0  0  0  0  0  0  0  0  0
   31.2030   51.6070   -5.8470 C   0  0  0  0  0  0  0  0  0  0  0  0
   38.1510   45.6160   -0.7230 C   0  0  0  0  0  0  0  0  0  0  0  0
   37.9580   47.0140   -0.7210 C   0  0  0  0  0  0  0  0  0  0  0  0
   32.4990   51.1570   -5.5630 C   0  0  0  0  0  0  0  0  0  0  0  0
   30.9860   52.9070   -6.3160 C   0  0  0  0  0  0  0  0  0  0  0  0
   33.5740   52.0250   -5.7500 C   0  0  0  0  0  0  0  0  0  0  0  0
   32.0740   53.7560   -6.4930 C   0  0  0  0  0  0  0  0  0  0  0  0
   31.8220   55.3590   -7.0680 Cl  0  0  0  0  0  0  0  0  0  0  0  0
   35.1760   51.4950   -5.4070 Cl  0  0  0  0  0  0  0  0  0  0  0  0
   33.3710   53.3230   -6.2160 C   0  0  0  0  0  0  0  0  0  0  0  0
  2  1  1  0
  2  3  1  0
  2  4  1  0
  2  5  1  0
  5  6  1  0
  4  7  1  0
  6  8  1  0
  7  9  1  0
  7 10  1  0
  9 11  2  0
 10 12  2  0
 13  8  1  0
  9 14  1  0
 10 15  1  0
 14 15  2  0
 13 16  2  0
 13 17  2  0
 14 18  1  0
 15 19  1  0
 13 20  1  0
 18 21  2  0
 19 22  2  0
 21 22  1  0
 20 23  2  0
 20 24  1  0
 23 25  1  0
 24 26  2  0
 26 27  1  0
 25 28  1  0
 25 29  2  0
 26 29  1  0
M  END
