mac-x0437-mac-x0305
     RDKit          3D

 23 25  0  0  0  0  0  0  0  0999 V2000
   31.6490   46.5430   -6.5000 O   0  0  0  0  0  0  0  0  0  0  0  0
   32.6830   45.6990   -6.1260 C   0  0  0  0  0  0  0  0  0  0  0  0
   33.8190   45.6860   -6.5800 O   0  0  0  0  0  0  0  0  0  0  0  0
   30.5200   46.7240   -5.7410 C   0  0  0  0  0  0  0  0  0  0  0  0
   32.2970   44.6980   -5.0470 C   0  0  0  0  0  0  0  0  0  0  0  0
   29.9590   45.8410   -5.1310 O   0  0  0  0  0  0  0  0  0  0  0  0
   29.9820   48.1640   -5.7020 C   0  0  0  0  0  0  0  0  0  0  0  0
   32.5930   45.1860   -3.6210 C   0  0  0  0  0  0  0  0  0  0  0  0
   29.3550   48.8790   -6.7480 C   0  0  0  0  0  0  0  0  0  0  0  0
   30.1520   48.7510   -4.4730 N   0  0  0  0  0  0  0  0  0  0  0  0
   29.1370   48.3770   -8.0020 O   0  0  0  0  0  0  0  0  0  0  0  0
   33.8560   45.8950   -3.4440 N   0  0  0  0  0  0  0  0  0  0  0  0
   28.9120   50.1870   -6.5140 C   0  0  0  0  0  0  0  0  0  0  0  0
   29.7130   50.0140   -4.2840 C   0  0  0  0  0  0  0  0  0  0  0  0
   34.0220   47.2380   -3.6530 C   0  0  0  0  0  0  0  0  0  0  0  0
   35.0730   45.3800   -3.0460 C   0  0  0  0  0  0  0  0  0  0  0  0
   29.0920   50.7670   -5.2600 C   0  0  0  0  0  0  0  0  0  0  0  0
   35.2580   47.6240   -3.4190 N   0  0  0  0  0  0  0  0  0  0  0  0
   35.9240   46.4850   -3.0420 C   0  0  0  0  0  0  0  0  0  0  0  0
   35.5160   44.0960   -2.6950 C   0  0  0  0  0  0  0  0  0  0  0  0
   37.2710   46.3300   -2.6800 C   0  0  0  0  0  0  0  0  0  0  0  0
   36.8650   43.9630   -2.3370 C   0  0  0  0  0  0  0  0  0  0  0  0
   37.7290   45.0570   -2.3290 C   0  0  0  0  0  0  0  0  0  0  0  0
  1  2  1  0
  2  3  2  0
  1  4  1  0
  2  5  1  0
  4  6  2  0
  4  7  1  0
  5  8  1  0
  7  9  2  0
  7 10  1  0
  9 11  1  0
  8 12  1  0
  9 13  1  0
 10 14  2  0
 12 15  1  0
 12 16  1  0
 13 17  2  0
 14 17  1  0
 15 18  2  0
 16 19  2  0
 18 19  1  0
 16 20  1  0
 19 21  1  0
 20 22  2  0
 21 23  2  0
 22 23  1  0
M  END
