mac-x0398-mac-x0455
     RDKit          3D

 22 23  0  0  0  0  0  0  0  0999 V2000
   28.5940   53.9880   -6.6270 N   0  0  0  0  0  0  0  0  0  0  0  0
   28.9780   52.8720   -5.8720 C   0  0  0  0  0  0  0  0  0  0  0  0
   29.0400   51.6040   -6.4590 C   0  0  0  0  0  0  0  0  0  0  0  0
   29.3060   53.0030   -4.5220 C   0  0  0  0  0  0  0  0  0  0  0  0
   29.6920   51.8890   -3.7660 C   0  0  0  0  0  0  0  0  0  0  0  0
   29.4260   50.4860   -5.7070 C   0  0  0  0  0  0  0  0  0  0  0  0
   29.9900   52.1400   -2.4540 O   0  0  0  0  0  0  0  0  0  0  0  0
   29.7590   50.6170   -4.3510 C   0  0  0  0  0  0  0  0  0  0  0  0
   30.1670   49.3830   -3.6160 C   0  0  0  0  0  0  0  0  0  0  0  0
   30.1530   49.3080   -2.4000 O   0  0  0  0  0  0  0  0  0  0  0  0
   30.5380   48.4360   -4.5260 O   0  0  0  0  0  0  0  0  0  0  0  0
   30.8890   47.0780   -4.1330 C   0  0  1  0  0  0  0  0  0  0  0  0
   30.0260   46.6010   -3.1010 O   0  0  0  0  0  0  0  0  0  0  0  0
   30.5360   46.2440   -5.4170 C   0  0  0  0  0  0  0  0  0  0  0  0
   32.3760   46.8730   -3.8030 C   0  0  0  0  0  0  0  0  0  0  0  0
   29.4710   45.6520   -5.5660 O   0  0  0  0  0  0  0  0  0  0  0  0
   31.5010   46.2160   -6.3760 O   0  0  0  0  0  0  0  0  0  0  0  0
   33.2670   47.9550   -3.6620 C   0  0  0  0  0  0  0  0  0  0  0  0
   32.8970   45.5740   -3.6290 C   0  0  0  0  0  0  0  0  0  0  0  0
   34.6180   47.7450   -3.3590 C   0  0  0  0  0  0  0  0  0  0  0  0
   34.2460   45.3660   -3.3270 C   0  0  0  0  0  0  0  0  0  0  0  0
   35.1060   46.4500   -3.1920 C   0  0  0  0  0  0  0  0  0  0  0  0
  1  2  1  0
  2  3  2  0
  2  4  1  0
  4  5  2  0
  3  6  1  0
  5  7  1  0
  5  8  1  0
  6  8  2  0
  8  9  1  0
  9 10  2  0
  9 11  1  0
 12 11  1  0
 12 13  1  1
 12 14  1  0
 12 15  1  0
 14 16  2  0
 14 17  1  0
 15 18  2  0
 15 19  1  0
 18 20  1  0
 19 21  2  0
 20 22  2  0
 21 22  1  0
M  END
