mac-x0213-mac-x0178
     RDKit          3D

 16 17  0  0  0  0  0  0  0  0999 V2000
   33.0910   46.8020   -5.1180 O   0  0  0  0  0  0  0  0  0  0  0  0
   31.8240   46.3480   -5.0060 C   0  0  0  0  0  0  0  0  0  0  0  0
   31.0930   46.3070   -5.9920 O   0  0  0  0  0  0  0  0  0  0  0  0
   31.4090   45.9000   -3.6040 C   0  0  1  0  0  0  0  0  0  0  0  0
   30.5580   46.9700   -2.8470 C   0  0  2  0  0  0  0  0  0  0  0  0
   30.5380   44.6280   -3.7030 C   0  0  0  0  0  0  0  0  0  0  0  0
   30.6970   47.0780   -1.0470 S   0  0  0  0  0  0  0  0  0  0  0  0
   29.2170   46.3920   -2.7680 C   0  0  0  0  0  0  0  0  0  0  0  0
   29.1920   45.0840   -3.2240 C   0  0  0  0  0  0  0  0  0  0  0  0
   30.1840   45.5820   -0.4890 N   0  0  0  0  0  0  0  0  0  0  0  0
   32.0680   47.1810   -0.6280 O   0  0  0  0  0  0  0  0  0  0  0  0
   29.6800   47.9860   -0.5590 O   0  0  0  0  0  0  0  0  0  0  0  0
   28.0950   47.0190   -2.2770 C   0  0  0  0  0  0  0  0  0  0  0  0
   28.0170   44.3610   -3.1940 C   0  0  0  0  0  0  0  0  0  0  0  0
   26.9110   46.3060   -2.2390 C   0  0  0  0  0  0  0  0  0  0  0  0
   26.8710   44.9840   -2.6940 C   0  0  0  0  0  0  0  0  0  0  0  0
  1  2  1  0
  2  3  2  0
  4  2  1  6
  4  5  1  0
  4  6  1  0
  5  7  1  1
  5  8  1  0
  6  9  1  0
  8  9  2  0
  7 10  1  0
  7 11  2  0
  7 12  2  0
  8 13  1  0
  9 14  1  0
 13 15  2  0
 14 16  2  0
 15 16  1  0
M  END
