mac-x0365-mac-x0546
     RDKit          3D

 26 28  0  0  0  0  0  0  0  0999 V2000
   28.6600   48.0570   -3.6860 O   0  0  0  0  0  0  0  0  0  0  0  0
   29.8140   48.6880   -3.4170 C   0  0  0  0  0  0  0  0  0  0  0  0
   30.6870   48.0870   -2.6780 N   0  0  0  0  0  0  0  0  0  0  0  0
   29.8220   50.0040   -4.0700 C   0  0  0  0  0  0  0  0  0  0  0  0
   30.0170   51.1590   -3.3080 C   0  0  0  0  0  0  0  0  0  0  0  0
   29.6330   50.0800   -5.4580 C   0  0  0  0  0  0  0  0  0  0  0  0
   30.3950   46.8240   -2.1980 C   0  0  0  0  0  0  0  0  0  0  0  0
   30.0200   52.3910   -3.9540 C   0  0  0  0  0  0  0  0  0  0  0  0
   29.6380   51.3270   -6.0900 C   0  0  0  0  0  0  0  0  0  0  0  0
   29.6080   46.5740   -1.1130 C   0  0  0  0  0  0  0  0  0  0  0  0
   30.9990   45.6300   -2.9250 C   0  0  1  0  0  0  0  0  0  0  0  0
   30.2030   53.5150   -3.2440 F   0  0  0  0  0  0  0  0  0  0  0  0
   28.9620   47.4800   -0.2990 O   0  0  0  0  0  0  0  0  0  0  0  0
   29.8320   52.4750   -5.3320 C   0  0  0  0  0  0  0  0  0  0  0  0
   30.0130   44.4820   -2.8100 C   0  0  0  0  0  0  0  0  0  0  0  0
   29.3560   45.2020   -0.6730 C   0  0  0  0  0  0  0  0  0  0  0  0
   31.1170   45.5740   -4.4260 C   0  0  0  0  0  0  0  0  0  0  0  0
   29.8350   53.6840   -5.9690 O   0  0  0  0  0  0  0  0  0  0  0  0
   29.5630   48.7650   -0.1520 C   0  0  0  0  0  0  0  0  0  0  0  0
   32.0010   46.5270   -5.1800 C   0  0  0  0  0  0  0  0  0  0  0  0
   29.5380   44.1340   -1.4690 C   0  0  0  0  0  0  0  0  0  0  0  0
   29.6540   43.8980   -3.9110 N   0  0  0  0  0  0  0  0  0  0  0  0
   30.3410   44.5820   -4.8840 C   0  0  0  0  0  0  0  0  0  0  0  0
   32.8760   45.9520   -6.2880 C   0  0  0  0  0  0  0  0  0  0  0  0
   32.5420   45.4570   -7.3510 O   0  0  0  0  0  0  0  0  0  0  0  0
   34.1910   46.0460   -5.9810 O   0  0  0  0  0  0  0  0  0  0  0  0
  1  2  1  0
  2  3  2  3
  2  4  1  0
  4  5  2  0
  4  6  1  0
  3  7  1  0
  5  8  1  0
  6  9  2  0
  7 10  2  0
 11  7  1  6
  8 12  1  0
 10 13  1  0
  8 14  2  0
  9 14  1  0
 11 15  1  0
 10 16  1  0
 11 17  1  0
 14 18  1  0
 13 19  1  0
 17 20  1  0
 15 21  1  0
 16 21  2  0
 15 22  2  0
 17 23  2  0
 22 23  1  0
 20 24  1  0
 24 25  2  0
 24 26  1  0
M  END
