mac-x0343
     RDKit          3D

 12 13  0  0  0  0  0  0  0  0999 V2000
    0.3660   40.4600    4.1130 C   0  0  0  0  0  0  0  0  0  0  0  0
    0.1420   39.1240    3.6300 C   0  0  0  0  0  0  0  0  0  0  0  0
    0.8890   38.0440    4.4330 C   0  0  0  0  0  0  0  0  0  0  0  0
    0.9890   38.2340    5.8580 N   0  0  0  0  0  0  0  0  0  0  0  0
    1.2120   39.5970    6.2480 C   0  0  0  0  0  0  0  0  0  0  0  0
    0.2650   40.5700    5.5420 C   0  0  0  0  0  0  0  0  0  0  0  0
    1.7100   37.4010    6.4100 C   0  0  2  0  0  0  0  0  0  0  0  0
    0.6980   36.7800    7.2950 C   0  0  0  0  0  0  0  0  0  0  0  0
    1.2800   35.7000    8.2040 C   0  0  0  0  0  0  0  0  0  0  0  0
    2.5740   36.0670    8.8260 N   0  0  0  0  0  0  0  0  0  0  0  0
    3.5680   36.6230    7.8880 C   0  0  0  0  0  0  0  0  0  0  0  0
    2.9320   37.8090    7.1510 C   0  0  0  0  0  0  0  0  0  0  0  0
  1  2  1  0
  2  3  1  0
  3  4  1  0
  4  5  1  0
  1  6  1  0
  5  6  1  0
  7  4  1  1
  7  8  1  0
  8  9  1  0
  9 10  1  0
 10 11  1  0
  7 12  1  0
 11 12  1  0
M  END
