mac-x0396-mac-x0576
     RDKit          3D

 22 24  0  0  0  0  0  0  0  0999 V2000
   27.8210   50.7310   -5.1300 N   0  0  0  0  0  0  0  0  0  0  0  0
   29.0810   50.9900   -4.5050 C   0  0  2  0  0  0  0  0  0  0  0  0
   29.1970   50.1410   -3.3860 O   0  0  0  0  0  0  0  0  0  0  0  0
   28.9680   52.4550   -4.0380 C   0  0  0  0  0  0  0  0  0  0  0  0
   30.1810   50.6970   -5.4420 N   0  0  0  0  0  0  0  0  0  0  0  0
   29.5250   52.8470   -2.8170 C   0  0  0  0  0  0  0  0  0  0  0  0
   28.3260   53.4660   -4.7730 C   0  0  0  0  0  0  0  0  0  0  0  0
   30.1020   49.5550   -6.4440 C   0  0  1  0  0  0  0  0  0  0  0  0
   30.7720   51.9280   -6.0960 C   0  0  0  0  0  0  0  0  0  0  0  0
   29.4850   54.1080   -2.3110 N   0  0  0  0  0  0  0  0  0  0  0  0
   28.2700   54.7710   -4.2760 C   0  0  0  0  0  0  0  0  0  0  0  0
   29.6040   48.1530   -6.0650 C   0  0  0  0  0  0  0  0  0  0  0  0
   29.4290   49.9860   -7.7600 C   0  0  2  0  0  0  0  0  0  0  0  0
   30.4220   52.1640   -7.5800 C   0  0  0  0  0  0  0  0  0  0  0  0
   30.3450   53.2790   -8.0900 O   0  0  0  0  0  0  0  0  0  0  0  0
   29.5980   47.6780   -4.9300 O   0  0  0  0  0  0  0  0  0  0  0  0
   28.8570   55.0380   -3.0550 C   0  0  0  0  0  0  0  0  0  0  0  0
   29.1400   47.3770   -7.1000 N   0  0  0  0  0  0  0  0  0  0  0  0
   29.3590   48.9550   -8.7750 N   0  0  0  0  0  0  0  0  0  0  0  0
   30.2010   51.0380   -8.3440 N   0  0  0  0  0  0  0  0  0  0  0  0
   28.5440   47.9050   -8.2570 C   0  0  1  0  0  0  0  0  0  0  0  0
   28.6350   46.8450   -9.1970 N   0  0  0  0  0  0  0  0  0  0  0  0
  2  1  1  6
  2  3  1  0
  2  4  1  0
  2  5  1  0
  4  6  2  0
  4  7  1  0
  5  8  1  0
  5  9  1  0
  6 10  1  0
  7 11  2  0
  8 12  1  1
  8 13  1  0
  9 14  1  0
 14 15  2  0
 12 16  2  0
 10 17  2  0
 11 17  1  0
 12 18  1  0
 13 19  1  6
 13 20  1  0
 14 20  1  0
 18 21  1  0
 19 21  1  0
 21 22  1  6
M  END
