mac-x0337-mac-x0402
     RDKit          3D

 22 24  0  0  0  0  0  0  0  0999 V2000
   35.1580   53.1790   -6.1630 C   0  0  0  0  0  0  0  0  0  0  0  0
   34.2670   52.1230   -5.5740 C   0  0  0  0  0  0  0  0  0  0  0  0
   33.0400   51.8220   -6.1840 C   0  0  0  0  0  0  0  0  0  0  0  0
   34.6460   51.4280   -4.4170 C   0  0  0  0  0  0  0  0  0  0  0  0
   33.8150   50.4480   -3.8740 C   0  0  0  0  0  0  0  0  0  0  0  0
   32.2020   50.8420   -5.6450 C   0  0  0  0  0  0  0  0  0  0  0  0
   32.5930   50.1580   -4.4910 C   0  0  0  0  0  0  0  0  0  0  0  0
   31.5340   48.9120   -3.8030 S   0  0  2  0  0  0  0  0  0  0  0  0
   30.1750   49.5250   -3.4400 N   0  0  0  0  0  0  0  0  0  0  0  0
   32.3220   48.0300   -2.9660 O   0  0  0  0  0  0  0  0  0  0  0  0
   31.0520   47.9140   -5.0730 N   0  0  0  0  0  0  0  0  0  0  0  0
   29.4280   50.2830   -4.4660 C   0  0  0  0  0  0  0  0  0  0  0  0
   29.6590   51.6640   -4.5340 C   0  0  0  0  0  0  0  0  0  0  0  0
   28.5160   49.6840   -5.3510 C   0  0  0  0  0  0  0  0  0  0  0  0
   28.1770   47.9880   -5.3240 Cl  0  0  0  0  0  0  0  0  0  0  0  0
   28.9770   52.4480   -5.4880 C   0  0  0  0  0  0  0  0  0  0  0  0
   27.8300   50.4450   -6.3070 C   0  0  0  0  0  0  0  0  0  0  0  0
   29.1080   53.8150   -5.6620 N   0  0  0  0  0  0  0  0  0  0  0  0
   28.0790   51.8250   -6.3550 C   0  0  0  0  0  0  0  0  0  0  0  0
   28.3320   54.2250   -6.6340 C   0  0  0  0  0  0  0  0  0  0  0  0
   27.4000   53.0100   -7.4020 S   0  0  0  0  0  0  0  0  0  0  0  0
   28.2580   55.5070   -7.0200 N   0  0  0  0  0  0  0  0  0  0  0  0
  1  2  1  0
  2  3  2  0
  2  4  1  0
  4  5  2  0
  3  6  1  0
  5  7  1  0
  6  7  2  0
  7  8  1  0
  8  9  2  0
  8 10  2  0
  8 11  1  6
  9 12  1  0
 12 13  2  0
 12 14  1  0
 14 15  1  0
 13 16  1  0
 14 17  2  0
 16 18  1  0
 16 19  2  0
 17 19  1  0
 18 20  2  0
 19 21  1  0
 20 21  1  0
 20 22  1  0
M  END
