mac-x0138-mac-x0433
     RDKit          3D

 20 22  0  0  0  0  0  0  0  0999 V2000
   30.7400   45.5070   -5.6120 C   0  0  0  0  0  0  0  0  0  0  0  0
   30.7270   46.9400   -5.4810 N   0  0  0  0  0  0  0  0  0  0  0  0
   31.4590   47.6830   -4.5970 C   0  0  0  0  0  0  0  0  0  0  0  0
   29.9730   47.8020   -6.2280 C   0  0  0  0  0  0  0  0  0  0  0  0
   31.2210   48.9730   -4.7270 N   0  0  0  0  0  0  0  0  0  0  0  0
   30.2920   49.0580   -5.7450 C   0  0  0  0  0  0  0  0  0  0  0  0
   29.1110   47.5050   -7.2090 N   0  0  0  0  0  0  0  0  0  0  0  0
   29.6440   50.1540   -6.3480 C   0  0  0  0  0  0  0  0  0  0  0  0
   28.5440   48.6050   -7.7230 C   0  0  0  0  0  0  0  0  0  0  0  0
   29.9180   51.4620   -5.9090 N   0  0  0  0  0  0  0  0  0  0  0  0
   27.6350   48.4160   -8.7490 N   0  0  0  0  0  0  0  0  0  0  0  0
   28.7620   49.8800   -7.3510 N   0  0  0  0  0  0  0  0  0  0  0  0
   29.3560   52.2710   -4.9120 C   0  0  0  0  0  0  0  0  0  0  0  0
   28.4440   51.8410   -3.9590 C   0  0  0  0  0  0  0  0  0  0  0  0
   29.6740   53.6250   -4.7850 C   0  0  0  0  0  0  0  0  0  0  0  0
   30.6420   54.2980   -5.7160 C   0  0  0  0  0  0  0  0  0  0  0  0
   27.8970   52.6160   -2.9910 N   0  0  0  0  0  0  0  0  0  0  0  0
   29.1480   54.4350   -3.8280 N   0  0  0  0  0  0  0  0  0  0  0  0
   28.2810   53.8890   -2.9720 C   0  0  0  0  0  0  0  0  0  0  0  0
   27.7460   54.7050   -1.9990 N   0  0  0  0  0  0  0  0  0  0  0  0
  1  2  1  0
  2  3  1  0
  2  4  1  0
  3  5  2  0
  4  6  2  0
  5  6  1  0
  4  7  1  0
  6  8  1  0
  7  9  2  0
  8 10  1  0
  9 11  1  0
  8 12  2  0
  9 12  1  0
 10 13  1  0
 13 14  2  0
 13 15  1  0
 15 16  1  0
 14 17  1  0
 15 18  2  0
 17 19  2  0
 18 19  1  0
 19 20  1  0
M  END
