mac-x0587-mac-x0396
     RDKit          3D

 24 26  0  0  0  0  0  0  0  0999 V2000
   29.5520   45.2620   -3.3570 C   0  0  0  0  0  0  0  0  0  0  0  0
   30.5490   46.2570   -3.9340 C   0  0  2  0  0  0  0  0  0  0  0  0
   32.2880   45.7870   -3.6040 S   0  0  0  0  0  0  0  0  0  0  0  0
   30.2500   47.7210   -3.6050 C   0  0  0  0  0  0  0  0  0  0  0  0
   33.1350   46.6610   -4.9780 C   0  0  0  0  0  0  0  0  0  0  0  0
   30.4260   48.1330   -2.4480 O   0  0  0  0  0  0  0  0  0  0  0  0
   29.7900   48.5820   -4.5820 N   0  0  0  0  0  0  0  0  0  0  0  0
   33.2970   45.7960   -6.2160 C   0  0  0  0  0  0  0  0  0  0  0  0
   30.4350   49.8650   -4.7030 C   0  0  0  0  0  0  0  0  0  0  0  0
   29.2010   48.2840   -5.8410 C   0  0  0  0  0  0  0  0  0  0  0  0
   34.3790   45.6140   -6.7590 O   0  0  0  0  0  0  0  0  0  0  0  0
   32.1630   45.2340   -6.6950 O   0  0  0  0  0  0  0  0  0  0  0  0
   28.8800   47.1950   -6.2830 O   0  0  0  0  0  0  0  0  0  0  0  0
   29.6510   50.5650   -5.7790 C   0  0  1  0  0  0  0  0  0  0  0  0
   29.0390   49.5110   -6.5400 N   0  0  0  0  0  0  0  0  0  0  0  0
   27.7640   49.8860   -7.0300 N   0  0  0  0  0  0  0  0  0  0  0  0
   28.4560   51.3440   -5.2890 C   0  0  1  0  0  0  0  0  0  0  0  0
   28.9320   52.7020   -4.8820 C   0  0  0  0  0  0  0  0  0  0  0  0
   27.5100   51.2440   -6.4970 C   0  0  0  0  0  0  0  0  0  0  0  0
   29.4760   52.9260   -3.6220 C   0  0  0  0  0  0  0  0  0  0  0  0
   28.8520   53.7810   -5.7580 C   0  0  0  0  0  0  0  0  0  0  0  0
   29.9290   54.1210   -3.2000 N   0  0  0  0  0  0  0  0  0  0  0  0
   29.3100   55.0260   -5.3490 C   0  0  0  0  0  0  0  0  0  0  0  0
   29.8350   55.1440   -4.0730 C   0  0  0  0  0  0  0  0  0  0  0  0
  2  1  1  1
  2  3  1  0
  2  4  1  0
  3  5  1  0
  4  6  2  0
  4  7  1  0
  5  8  1  0
  7  9  1  0
  7 10  1  0
  8 11  2  0
  8 12  1  0
 10 13  2  0
 14  9  1  1
 10 15  1  0
 14 15  1  0
 15 16  1  0
 14 17  1  0
 17 18  1  6
 16 19  1  0
 17 19  1  0
 18 20  2  0
 18 21  1  0
 20 22  1  0
 21 23  2  0
 22 24  2  0
 23 24  1  0
M  END
