mac-x0123-mac-x0394
     RDKit          3D

 24 27  0  0  0  0  0  0  0  0999 V2000
   27.7910   51.9570   -6.3380 N   0  0  0  0  0  0  0  0  0  0  0  0
   27.7520   52.4540   -7.6530 C   0  0  0  0  0  0  0  0  0  0  0  0
   28.8830   53.0630   -8.0770 O   0  0  0  0  0  0  0  0  0  0  0  0
   28.8510   52.4100   -5.5670 C   0  0  0  0  0  0  0  0  0  0  0  0
   26.6490   52.0280   -5.4620 C   0  0  0  0  0  0  0  0  0  0  0  0
   26.8160   52.3940   -8.4390 O   0  0  0  0  0  0  0  0  0  0  0  0
   29.5770   51.5120   -4.7590 N   0  0  0  0  0  0  0  0  0  0  0  0
   29.1680   53.7090   -5.5230 C   0  0  0  0  0  0  0  0  0  0  0  0
   26.5010   53.1640   -4.6480 C   0  0  0  0  0  0  0  0  0  0  0  0
   25.6840   51.0160   -5.3620 C   0  0  0  0  0  0  0  0  0  0  0  0
   30.5920   51.9680   -3.9030 C   0  0  0  0  0  0  0  0  0  0  0  0
   30.2590   54.0900   -4.5910 C   0  0  0  0  0  0  0  0  0  0  0  0
   28.6650   54.9520   -6.1800 C   0  0  0  0  0  0  0  0  0  0  0  0
   29.4640   50.1570   -4.6380 N   0  0  0  0  0  0  0  0  0  0  0  0
   25.4380   53.2900   -3.7660 C   0  0  0  0  0  0  0  0  0  0  0  0
   24.6150   51.1560   -4.4670 C   0  0  0  0  0  0  0  0  0  0  0  0
   23.4360   49.9100   -4.3450 Cl  0  0  0  0  0  0  0  0  0  0  0  0
   25.3150   54.7070   -2.7910 Cl  0  0  0  0  0  0  0  0  0  0  0  0
   30.9320   53.2940   -3.8210 N   0  0  0  0  0  0  0  0  0  0  0  0
   30.4720   55.5730   -4.6380 C   0  0  0  0  0  0  0  0  0  0  0  0
   29.8010   55.9500   -5.9610 C   0  0  0  0  0  0  0  0  0  0  0  0
   31.1000   50.9390   -3.2580 N   0  0  0  0  0  0  0  0  0  0  0  0
   30.3940   49.8780   -3.7330 C   0  0  0  0  0  0  0  0  0  0  0  0
   24.4850   52.2900   -3.6670 C   0  0  0  0  0  0  0  0  0  0  0  0
  1  2  1  0
  2  3  1  0
  1  4  1  0
  1  5  1  0
  2  6  2  0
  4  7  1  0
  4  8  2  0
  5  9  2  0
  5 10  1  0
  7 11  1  0
  8 12  1  0
  8 13  1  0
  7 14  1  0
  9 15  1  0
 10 16  2  0
 16 17  1  0
 15 18  1  0
 11 19  1  0
 12 19  2  0
 12 20  1  0
 13 21  1  0
 20 21  1  0
 11 22  2  0
 14 23  2  0
 22 23  1  0
 15 24  2  0
 16 24  1  0
M  END
