mac-x0588-mac-x0392
     RDKit          3D

 19 21  0  0  0  0  0  0  0  0999 V2000
   28.1580   51.6670   -6.2310 N   0  0  0  0  0  0  0  0  0  0  0  0
   29.2720   50.7530   -6.0190 C   0  0  2  0  0  0  0  0  0  0  0  0
   29.4390   49.5740   -7.0390 C   0  0  1  0  0  0  0  0  0  0  0  0
   29.2570   50.4320   -4.6210 N   0  0  0  0  0  0  0  0  0  0  0  0
   30.0080   49.2260   -4.3710 C   0  0  0  0  0  0  0  0  0  0  0  0
   29.4300   48.1070   -6.4780 C   0  0  1  0  0  0  0  0  0  0  0  0
   28.3830   49.5890   -8.0990 N   0  0  0  0  0  0  0  0  0  0  0  0
   30.4660   47.3500   -7.1740 N   0  0  0  0  0  0  0  0  0  0  0  0
   29.5020   48.0250   -5.0240 N   0  0  0  0  0  0  0  0  0  0  0  0
   28.3290   47.4900   -7.1610 N   0  0  0  0  0  0  0  0  0  0  0  0
   28.2050   48.1810   -8.4110 C   0  0  0  0  0  0  0  0  0  0  0  0
   29.8650   46.7900   -4.4960 C   0  0  0  0  0  0  0  0  0  0  0  0
   31.0110   46.3010   -4.9240 C   0  0  0  0  0  0  0  0  0  0  0  0
   28.9690   46.0420   -3.5200 C   0  0  2  0  0  0  0  0  0  0  0  0
   31.4540   45.0910   -4.5150 O   0  0  0  0  0  0  0  0  0  0  0  0
   28.7920   46.7630   -2.2880 O   0  0  0  0  0  0  0  0  0  0  0  0
   29.4760   44.6830   -3.0740 C   0  0  0  0  0  0  0  0  0  0  0  0
   28.5620   44.4210   -1.9010 C   0  0  0  0  0  0  0  0  0  0  0  0
   28.3630   45.8070   -1.3090 C   0  0  0  0  0  0  0  0  0  0  0  0
  2  1  1  6
  2  3  1  0
  2  4  1  0
  4  5  1  0
  3  6  1  0
  3  7  1  6
  6  8  1  6
  5  9  1  0
  6  9  1  0
  6 10  1  0
  7 11  1  0
 10 11  1  0
  9 12  1  0
 12 13  2  3
 14 12  1  6
 13 15  1  0
 14 16  1  0
 14 17  1  0
 17 18  1  0
 16 19  1  0
 18 19  1  0
M  END
