mac-x0228-mac-x0282
     RDKit          3D

 19 22  0  0  0  0  0  0  0  0999 V2000
   32.2510   48.1410   -4.2280 O   0  0  0  0  0  0  0  0  0  0  0  0
   31.0480   48.1870   -3.6300 C   0  0  0  0  0  0  0  0  0  0  0  0
   30.6600   47.2660   -2.9370 O   0  0  0  0  0  0  0  0  0  0  0  0
   30.3210   49.4450   -3.9170 C   0  0  0  0  0  0  0  0  0  0  0  0
   29.7510   49.8330   -5.1950 C   0  0  0  0  0  0  0  0  0  0  0  0
   30.1410   50.3180   -2.8920 C   0  0  0  0  0  0  0  0  0  0  0  0
   29.6050   51.2910   -5.5140 C   0  0  1  0  0  0  0  0  0  0  0  0
   29.4530   51.6050   -3.0640 C   0  0  0  0  0  0  0  0  0  0  0  0
   29.2770   49.0760   -6.1890 C   0  0  0  0  0  0  0  0  0  0  0  0
   29.2240   52.0480   -4.3140 C   0  0  0  0  0  0  0  0  0  0  0  0
   30.6860   52.3230   -5.7320 C   0  0  0  0  0  0  0  0  0  0  0  0
   28.7560   50.1010   -7.1190 C   0  0  0  0  0  0  0  0  0  0  0  0
   28.8540   51.3570   -6.7950 N   0  0  0  0  0  0  0  0  0  0  0  0
   29.1440   47.6830   -6.4780 C   0  0  0  0  0  0  0  0  0  0  0  0
   28.6790   53.2460   -4.6660 O   0  0  0  0  0  0  0  0  0  0  0  0
   29.7920   53.5970   -5.5550 C   0  0  0  0  0  0  0  0  0  0  0  0
   28.5430   47.3250   -7.6190 C   0  0  0  0  0  0  0  0  0  0  0  0
   28.1560   49.6930   -8.2760 N   0  0  0  0  0  0  0  0  0  0  0  0
   28.0630   48.4200   -8.4990 C   0  0  0  0  0  0  0  0  0  0  0  0
  1  2  1  0
  2  3  2  0
  2  4  1  0
  4  5  1  0
  4  6  2  0
  5  7  1  0
  6  8  1  0
  5  9  2  0
  7 10  1  0
  8 10  2  0
  7 11  1  6
  9 12  1  0
  7 13  1  0
 12 13  2  0
  9 14  1  0
 10 15  1  0
 11 16  1  0
 15 16  1  0
 14 17  2  0
 12 18  1  0
 17 19  1  0
 18 19  2  0
M  END
