mac-x0379-mac-x0301
     RDKit          3D

 13 14  0  0  0  0  0  0  0  0999 V2000
   29.0740   51.8110   -5.8630 C   0  0  0  0  0  0  0  0  0  0  0  0
   29.3820   50.6000   -5.0650 C   0  0  0  0  0  0  0  0  0  0  0  0
   29.3880   50.4810   -3.7360 N   0  0  0  0  0  0  0  0  0  0  0  0
   29.7840   49.1370   -5.5950 S   0  0  0  0  0  0  0  0  0  0  0  0
   29.7400   49.1390   -3.3120 C   0  0  0  0  0  0  0  0  0  0  0  0
   30.0120   48.1920   -4.3160 C   0  0  0  0  0  0  0  0  0  0  0  0
   30.1030   48.0180   -6.7640 O   0  0  0  0  0  0  0  0  0  0  0  0
   29.7190   49.5010   -7.2780 C   0  0  0  0  0  0  0  0  0  0  0  0
   30.3840   46.8010   -4.2100 C   0  0  0  0  0  0  0  0  0  0  0  0
   28.4940   48.9380   -7.7750 O   0  0  0  0  0  0  0  0  0  0  0  0
   28.8510   47.6620   -7.3570 C   0  0  0  0  0  0  0  0  0  0  0  0
   31.5170   46.3820   -4.0290 O   0  0  0  0  0  0  0  0  0  0  0  0
   29.3220   45.9610   -4.3330 O   0  0  0  0  0  0  0  0  0  0  0  0
  1  2  1  0
  2  3  2  0
  2  4  1  0
  3  5  1  0
  4  6  1  0
  5  6  2  0
  4  7  1  0
  4  8  1  0
  6  9  1  0
  8 10  1  0
  7 11  1  0
 10 11  1  0
  9 12  2  0
  9 13  1  0
M  END
