mac-x0361-mac-x0224
     RDKit          3D

 14 15  0  0  0  0  0  0  0  0999 V2000
   28.9020   52.6160   -6.4670 N   0  0  0  0  0  0  0  0  0  0  0  0
   29.3380   52.8640   -5.1940 C   0  0  0  0  0  0  0  0  0  0  0  0
   29.4620   53.9630   -4.6570 O   0  0  0  0  0  0  0  0  0  0  0  0
   29.1890   51.0250   -7.0230 S   0  0  0  0  0  0  0  0  0  0  0  0
   29.6650   51.5830   -4.5340 C   0  0  0  0  0  0  0  0  0  0  0  0
   29.6470   50.4410   -5.3920 C   0  0  0  0  0  0  0  0  0  0  0  0
   29.9700   49.1380   -4.8510 C   0  0  0  0  0  0  0  0  0  0  0  0
   29.9670   51.5110   -3.1880 C   0  0  0  0  0  0  0  0  0  0  0  0
   30.0360   47.7710   -5.5690 C   0  0  0  0  0  0  0  0  0  0  0  0
   30.2660   49.1290   -3.4770 C   0  0  0  0  0  0  0  0  0  0  0  0
   30.2670   50.2710   -2.6590 C   0  0  0  0  0  0  0  0  0  0  0  0
   30.5740   47.9270   -2.8940 O   0  0  0  0  0  0  0  0  0  0  0  0
   29.7720   47.5350   -6.7350 O   0  0  0  0  0  0  0  0  0  0  0  0
   30.4520   46.7300   -4.7860 O   0  0  0  0  0  0  0  0  0  0  0  0
  1  2  1  0
  2  3  2  0
  1  4  1  0
  2  5  1  0
  4  6  1  0
  5  6  2  0
  6  7  1  0
  5  8  1  0
  7  9  1  0
  7 10  2  0
  8 11  2  0
 10 11  1  0
 10 12  1  0
  9 13  2  0
  9 14  1  0
M  END
