mac-x0380-mac-x0337
     RDKit          3D

 24 26  0  0  0  0  0  0  0  0999 V2000
   28.3930   48.9360   -3.8690 O   0  0  0  0  0  0  0  0  0  0  0  0
   29.5140   49.6930   -4.3460 C   0  0  0  0  0  0  0  0  0  0  0  0
   30.0980   50.0880   -3.0960 O   0  0  0  0  0  0  0  0  0  0  0  0
   30.3920   48.8830   -5.4090 S   0  0  0  0  0  0  0  0  0  0  0  0
   28.8720   50.9280   -4.8560 C   0  0  0  0  0  0  0  0  0  0  0  0
   31.4060   47.9600   -5.9980 O   0  0  0  0  0  0  0  0  0  0  0  0
   29.3570   48.6630   -6.4190 N   0  0  0  0  0  0  0  0  0  0  0  0
   29.2270   52.1530   -4.2580 C   0  0  0  0  0  0  0  0  0  0  0  0
   27.9610   50.9820   -5.8680 C   0  0  0  0  0  0  0  0  0  0  0  0
   31.6590   50.0590   -5.3190 C   0  0  0  0  0  0  0  0  0  0  0  0
   28.6800   53.3270   -4.6880 C   0  0  0  0  0  0  0  0  0  0  0  0
   27.4050   52.1730   -6.3030 C   0  0  0  0  0  0  0  0  0  0  0  0
   32.8790   49.6970   -4.8050 C   0  0  0  0  0  0  0  0  0  0  0  0
   31.5200   51.3450   -5.7390 C   0  0  0  0  0  0  0  0  0  0  0  0
   27.7730   53.3770   -5.7010 C   0  0  0  0  0  0  0  0  0  0  0  0
   29.1410   54.8660   -3.9310 S   0  0  0  0  0  0  0  0  0  0  0  0
   33.9140   50.6150   -4.7270 C   0  0  0  0  0  0  0  0  0  0  0  0
   32.5270   52.2880   -5.6770 C   0  0  0  0  0  0  0  0  0  0  0  0
   27.2340   54.6120   -6.1190 N   0  0  0  0  0  0  0  0  0  0  0  0
   29.1530   56.0580   -5.3250 C   0  0  0  0  0  0  0  0  0  0  0  0
   33.7410   51.9020   -5.1600 C   0  0  0  0  0  0  0  0  0  0  0  0
   34.8130   52.9300   -5.1030 C   0  0  0  0  0  0  0  0  0  0  0  0
   27.9030   55.8460   -6.1080 C   0  0  0  0  0  0  0  0  0  0  0  0
   27.4820   56.8540   -6.7690 O   0  0  0  0  0  0  0  0  0  0  0  0
  2  1  1  0
  2  3  1  0
  2  4  1  0
  2  5  1  0
  4  6  2  0
  4  7  1  0
  5  8  2  0
  5  9  1  0
  4 10  1  0
  8 11  1  0
  9 12  2  0
 10 13  2  0
 10 14  1  0
 11 15  2  0
 12 15  1  0
 11 16  1  0
 13 17  1  0
 14 18  2  0
 15 19  1  0
 16 20  1  0
 17 21  2  0
 18 21  1  0
 21 22  1  0
 19 23  1  0
 20 23  1  0
 23 24  2  0
M  END
