mac-x0206-mac-x0271
     RDKit          3D

 14 15  0  0  0  0  0  0  0  0999 V2000
   27.9220   49.6790   -5.2990 N   0  0  0  0  0  0  0  0  0  0  0  0
   28.0180   50.9380   -4.5480 C   0  0  0  0  0  0  0  0  0  0  0  0
   28.8230   52.0650   -5.2740 C   0  0  2  0  0  0  0  0  0  0  0  0
   29.4880   53.0100   -4.2180 C   0  0  2  0  0  0  0  0  0  0  0  0
   27.8270   52.8760   -6.1500 C   0  0  0  0  0  0  0  0  0  0  0  0
   29.9350   51.4580   -6.1870 C   0  0  0  0  0  0  0  0  0  0  0  0
   28.4920   53.4680   -3.2790 O   0  0  0  0  0  0  0  0  0  0  0  0
   30.0480   54.2970   -4.8700 C   0  0  0  0  0  0  0  0  0  0  0  0
   28.3900   54.1620   -6.6740 C   0  0  0  0  0  0  0  0  0  0  0  0
   30.5900   52.2870   -3.4020 C   0  0  0  0  0  0  0  0  0  0  0  0
   31.1390   50.9590   -5.4430 C   0  0  0  0  0  0  0  0  0  0  0  0
   31.0100   54.9160   -4.4130 O   0  0  0  0  0  0  0  0  0  0  0  0
   29.4030   54.8200   -6.0990 C   0  0  0  0  0  0  0  0  0  0  0  0
   31.4330   51.3310   -4.1930 C   0  0  0  0  0  0  0  0  0  0  0  0
  1  2  1  0
  3  2  1  1
  3  4  1  0
  3  5  1  0
  3  6  1  0
  4  7  1  1
  4  8  1  0
  5  9  1  0
  4 10  1  0
  6 11  1  0
  8 12  2  0
  8 13  1  0
  9 13  2  0
 10 14  1  0
 11 14  2  0
M  END
