mac-x0510-mac-x0437
     RDKit          3D

 27 30  0  0  0  0  0  0  0  0999 V2000
   28.8910   53.2180   -5.7910 O   0  0  0  0  0  0  0  0  0  0  0  0
   28.9010   51.9940   -5.8860 C   0  0  0  0  0  0  0  0  0  0  0  0
   29.3310   51.2050   -4.8420 N   0  0  0  0  0  0  0  0  0  0  0  0
   28.4900   51.3440   -7.0240 N   0  0  0  0  0  0  0  0  0  0  0  0
   28.7090   50.0090   -7.1640 C   0  0  0  0  0  0  0  0  0  0  0  0
   29.3880   49.8250   -4.8290 C   0  0  0  0  0  0  0  0  0  0  0  0
   29.6180   49.1860   -3.8120 O   0  0  0  0  0  0  0  0  0  0  0  0
   29.1450   49.2570   -6.1160 C   0  0  0  0  0  0  0  0  0  0  0  0
   28.5380   49.2800   -8.2910 N   0  0  0  0  0  0  0  0  0  0  0  0
   29.2580   47.9910   -6.6210 N   0  0  0  0  0  0  0  0  0  0  0  0
   28.8770   48.0560   -7.9380 C   0  0  0  0  0  0  0  0  0  0  0  0
   29.6960   46.8040   -5.9180 C   0  0  0  0  0  0  0  0  0  0  0  0
   31.2190   46.6950   -5.9440 C   0  0  0  0  0  0  0  0  0  0  0  0
   31.6470   45.4310   -6.4890 O   0  0  0  0  0  0  0  0  0  0  0  0
   32.8640   45.0050   -6.0580 C   0  0  0  0  0  0  0  0  0  0  0  0
   33.9310   45.2670   -6.5980 O   0  0  0  0  0  0  0  0  0  0  0  0
   32.7250   44.1600   -4.8180 C   0  0  0  0  0  0  0  0  0  0  0  0
   32.6940   45.0190   -3.5550 C   0  0  0  0  0  0  0  0  0  0  0  0
   33.9020   45.8090   -3.3840 N   0  0  0  0  0  0  0  0  0  0  0  0
   33.9910   47.1570   -3.5820 C   0  0  0  0  0  0  0  0  0  0  0  0
   35.1360   45.3500   -2.9990 C   0  0  0  0  0  0  0  0  0  0  0  0
   35.2060   47.6020   -3.3520 N   0  0  0  0  0  0  0  0  0  0  0  0
   35.9320   46.4960   -2.9900 C   0  0  0  0  0  0  0  0  0  0  0  0
   35.6350   44.0870   -2.6650 C   0  0  0  0  0  0  0  0  0  0  0  0
   37.2850   46.3940   -2.6370 C   0  0  0  0  0  0  0  0  0  0  0  0
   36.9860   44.0040   -2.3150 C   0  0  0  0  0  0  0  0  0  0  0  0
   37.8010   45.1380   -2.3010 C   0  0  0  0  0  0  0  0  0  0  0  0
  1  2  2  0
  2  3  1  0
  2  4  1  0
  4  5  1  0
  3  6  1  0
  6  7  2  0
  5  8  2  0
  6  8  1  0
  5  9  1  0
  8 10  1  0
  9 11  2  0
 10 11  1  0
 10 12  1  0
 12 13  1  0
 13 14  1  0
 14 15  1  0
 15 16  2  0
 15 17  1  0
 17 18  1  0
 18 19  1  0
 19 20  1  0
 19 21  1  0
 20 22  2  0
 21 23  2  0
 22 23  1  0
 21 24  1  0
 23 25  1  0
 24 26  2  0
 25 27  2  0
 26 27  1  0
M  END
