mac-x0188
     RDKit          3D

 15 16  0  0  0  0  0  0  0  0999 V2000
   32.3400   44.5310   -4.2140 C   0  0  0  0  0  0  0  0  0  0  0  0
   31.9610   45.9060   -3.7980 C   0  0  0  0  0  0  0  0  0  0  0  0
   32.2430   46.5250   -2.7120 O   0  0  0  0  0  0  0  0  0  0  0  0
   31.7670   47.7280   -2.6920 N   0  0  0  0  0  0  0  0  0  0  0  0
   31.0300   47.8940   -3.7620 C   0  0  0  0  0  0  0  0  0  0  0  0
   31.1670   46.7190   -4.5120 C   0  0  0  0  0  0  0  0  0  0  0  0
   30.5530   46.2960   -5.7980 C   0  0  0  0  0  0  0  0  0  0  0  0
   29.3790   45.8770   -5.7860 O   0  0  0  0  0  0  0  0  0  0  0  0
   31.2420   46.3600   -6.8350 O   0  0  0  0  0  0  0  0  0  0  0  0
   30.2330   49.1210   -4.0660 C   0  0  0  0  0  0  0  0  0  0  0  0
   29.9820   50.0030   -3.0670 C   0  0  0  0  0  0  0  0  0  0  0  0
   29.2670   51.1390   -3.3110 C   0  0  0  0  0  0  0  0  0  0  0  0
   28.7950   51.3310   -4.5770 C   0  0  0  0  0  0  0  0  0  0  0  0
   29.0780   50.4460   -5.5950 C   0  0  0  0  0  0  0  0  0  0  0  0
   29.7890   49.3180   -5.3310 C   0  0  0  0  0  0  0  0  0  0  0  0
  1  2  1  0
  2  3  1  0
  3  4  1  0
  4  5  2  0
  2  6  2  0
  5  6  1  0
  6  7  1  0
  7  8  2  0
  7  9  1  0
  5 10  1  0
 10 11  2  0
 11 12  1  0
 12 13  2  0
 13 14  1  0
 10 15  1  0
 14 15  2  0
M  END
