mac-x0347-mac-x0204
     RDKit          3D

 22 24  0  0  0  0  0  0  0  0999 V2000
   30.3640   45.0890   -4.7280 O   0  0  0  0  0  0  0  0  0  0  0  0
   30.9230   46.3960   -4.7600 C   0  0  0  0  0  0  0  0  0  0  0  0
   31.6700   46.4200   -5.9650 O   0  0  0  0  0  0  0  0  0  0  0  0
   29.7970   47.4130   -4.7960 C   0  0  0  0  0  0  0  0  0  0  0  0
   31.8580   46.6050   -3.5840 C   0  0  0  0  0  0  0  0  0  0  0  0
   30.0220   48.7250   -5.2540 C   0  0  0  0  0  0  0  0  0  0  0  0
   28.5050   47.1070   -4.3840 C   0  0  0  0  0  0  0  0  0  0  0  0
   31.3640   46.8950   -2.3000 C   0  0  0  0  0  0  0  0  0  0  0  0
   33.2450   46.5210   -3.7150 C   0  0  0  0  0  0  0  0  0  0  0  0
   28.9850   49.6680   -5.2890 C   0  0  0  0  0  0  0  0  0  0  0  0
   27.4720   47.9800   -4.3980 N   0  0  0  0  0  0  0  0  0  0  0  0
   32.2440   47.0820   -1.2450 C   0  0  0  0  0  0  0  0  0  0  0  0
   34.1270   46.6990   -2.7000 N   0  0  0  0  0  0  0  0  0  0  0  0
   31.7270   47.3590   -0.0160 O   0  0  0  0  0  0  0  0  0  0  0  0
   27.7390   49.2300   -4.8490 C   0  0  0  0  0  0  0  0  0  0  0  0
   29.2040   51.0410   -5.7650 C   0  0  0  0  0  0  0  0  0  0  0  0
   33.6040   46.9760   -1.4830 C   0  0  0  0  0  0  0  0  0  0  0  0
   28.5360   51.5270   -6.9030 C   0  0  0  0  0  0  0  0  0  0  0  0
   30.0890   51.9070   -5.0990 C   0  0  0  0  0  0  0  0  0  0  0  0
   28.7430   52.8320   -7.3580 C   0  0  0  0  0  0  0  0  0  0  0  0
   30.2970   53.2130   -5.5520 C   0  0  0  0  0  0  0  0  0  0  0  0
   29.6240   53.6750   -6.6800 C   0  0  0  0  0  0  0  0  0  0  0  0
  2  1  1  0
  2  3  1  0
  2  4  1  0
  2  5  1  0
  4  6  2  0
  4  7  1  0
  5  8  2  0
  5  9  1  0
  6 10  1  0
  7 11  2  0
  8 12  1  0
  9 13  2  0
 12 14  1  0
 10 15  2  0
 11 15  1  0
 10 16  1  0
 12 17  2  0
 13 17  1  0
 16 18  2  0
 16 19  1  0
 18 20  1  0
 19 21  2  0
 20 22  2  0
 21 22  1  0
M  END
