mac-x0328-mac-x0510
     RDKit          3D

 14 15  0  0  0  0  0  0  0  0999 V2000
   30.9870   47.5470   -3.4300 O   0  0  0  0  0  0  0  0  0  0  0  0
   30.3800   48.0150   -4.5410 C   0  0  0  0  0  0  0  0  0  0  0  0
   30.4180   47.3710   -5.5750 O   0  0  0  0  0  0  0  0  0  0  0  0
   29.6840   49.3490   -4.3230 C   0  0  2  0  0  0  0  0  0  0  0  0
   29.1880   49.9680   -5.6770 C   0  0  2  0  0  0  0  0  0  0  0  0
   30.5620   50.2600   -3.5040 C   0  0  0  0  0  0  0  0  0  0  0  0
   28.7610   51.4580   -5.4940 C   0  0  0  0  0  0  0  0  0  0  0  0
   30.2870   51.5580   -3.4270 C   0  0  0  0  0  0  0  0  0  0  0  0
   28.0630   49.0710   -6.1420 N   0  0  0  0  0  0  0  0  0  0  0  0
   30.1210   49.8720   -6.9010 C   0  0  0  0  0  0  0  0  0  0  0  0
   29.1180   52.1400   -4.1430 C   0  0  1  0  0  0  0  0  0  0  0  0
   29.2880   49.4310   -8.0250 N   0  0  0  0  0  0  0  0  0  0  0  0
   28.4500   48.4500   -7.4020 C   0  0  0  0  0  0  0  0  0  0  0  0
   29.3770   53.5260   -4.3600 O   0  0  0  0  0  0  0  0  0  0  0  0
  1  2  1  0
  2  3  2  0
  4  2  1  6
  4  5  1  0
  4  6  1  0
  5  7  1  1
  6  8  2  0
  5  9  1  0
  5 10  1  0
  7 11  1  0
  8 11  1  0
 10 12  1  0
  9 13  1  0
 12 13  1  0
 11 14  1  6
M  END
