mac-x0397-mac-x0365
     RDKit          3D

 15 16  0  0  0  0  0  0  0  0999 V2000
   29.5130   53.0100   -2.7040 Cl  0  0  0  0  0  0  0  0  0  0  0  0
   29.5220   51.8200   -3.9380 C   0  0  0  0  0  0  0  0  0  0  0  0
   29.1970   52.2220   -5.2260 C   0  0  0  0  0  0  0  0  0  0  0  0
   29.8380   50.5250   -3.6440 C   0  0  0  0  0  0  0  0  0  0  0  0
   30.1230   50.3340   -2.3480 O   0  0  0  0  0  0  0  0  0  0  0  0
   28.8630   53.4920   -5.6380 N   0  0  0  0  0  0  0  0  0  0  0  0
   29.2070   51.2430   -6.2190 C   0  0  0  0  0  0  0  0  0  0  0  0
   29.8490   49.5270   -4.6360 C   0  0  0  0  0  0  0  0  0  0  0  0
   30.1730   48.0830   -4.4470 C   0  0  0  0  0  0  0  0  0  0  0  0
   28.6220   53.4940   -6.9150 C   0  0  0  0  0  0  0  0  0  0  0  0
   28.7780   51.9840   -7.7080 S   0  0  0  0  0  0  0  0  0  0  0  0
   29.5260   49.8970   -5.9530 C   0  0  0  0  0  0  0  0  0  0  0  0
   28.2750   54.6040   -7.5720 N   0  0  0  0  0  0  0  0  0  0  0  0
   29.8610   47.2860   -5.4940 O   0  0  0  0  0  0  0  0  0  0  0  0
   30.6850   47.6520   -3.4320 O   0  0  0  0  0  0  0  0  0  0  0  0
  1  2  1  0
  2  3  2  0
  2  4  1  0
  4  5  1  0
  3  6  1  0
  3  7  1  0
  4  8  2  0
  8  9  1  0
  6 10  2  0
  7 11  1  0
 10 11  1  0
  7 12  2  0
  8 12  1  0
 10 13  1  0
  9 14  1  0
  9 15  2  0
M  END
