mac-x0451-mac-x0282
     RDKit          3D

 16 18  0  0  0  0  0  0  0  0999 V2000
   29.2040   54.0510   -8.1040 N   0  0  0  0  0  0  0  0  0  0  0  0
   29.3260   52.9190   -7.3960 C   0  0  0  0  0  0  0  0  0  0  0  0
   29.4220   52.8990   -6.0880 N   0  0  0  0  0  0  0  0  0  0  0  0
   29.3690   51.3790   -8.1750 S   0  0  0  0  0  0  0  0  0  0  0  0
   29.5320   51.6030   -5.6780 C   0  0  0  0  0  0  0  0  0  0  0  0
   29.5240   50.6230   -6.6520 C   0  0  0  0  0  0  0  0  0  0  0  0
   29.6470   51.2670   -4.3030 C   0  0  0  0  0  0  0  0  0  0  0  0
   29.6320   49.1240   -6.3840 C   0  0  2  0  0  0  0  0  0  0  0  0
   29.9830   50.0240   -3.9280 C   0  0  0  0  0  0  0  0  0  0  0  0
   30.2550   48.9280   -4.9390 C   0  0  1  0  0  0  0  0  0  0  0  0
   30.5120   48.3640   -7.3730 C   0  0  0  0  0  0  0  0  0  0  0  0
   28.1830   48.5170   -6.4100 C   0  0  0  0  0  0  0  0  0  0  0  0
   29.8590   47.7320   -4.4170 F   0  0  0  0  0  0  0  0  0  0  0  0
   29.9980   47.5360   -8.2960 C   0  0  0  0  0  0  0  0  0  0  0  0
   27.6850   48.2520   -7.7770 N   0  0  0  0  0  0  0  0  0  0  0  0
   28.5340   47.2740   -8.4580 C   0  0  0  0  0  0  0  0  0  0  0  0
  1  2  1  0
  2  3  2  0
  2  4  1  0
  3  5  1  0
  4  6  1  0
  5  6  2  0
  5  7  1  0
  6  8  1  0
  7  9  2  0
  8 10  1  0
  9 10  1  0
  8 11  1  6
  8 12  1  0
 10 13  1  1
 11 14  2  0
 12 15  1  0
 14 16  1  0
 15 16  1  0
M  END
