mac-x0132-mac-x0179
     RDKit          3D

 29 32  0  0  0  0  0  0  0  0999 V2000
   28.4120   52.4980   -7.3250 N   0  0  0  0  0  0  0  0  0  0  0  0
   28.8230   52.9720   -6.0670 C   0  0  0  0  0  0  0  0  0  0  0  0
   28.8930   54.3030   -5.9420 N   0  0  0  0  0  0  0  0  0  0  0  0
   29.1370   52.0880   -5.0180 C   0  0  0  0  0  0  0  0  0  0  0  0
   29.5320   52.7020   -3.8200 C   0  0  0  0  0  0  0  0  0  0  0  0
   29.2820   54.7660   -4.7510 C   0  0  0  0  0  0  0  0  0  0  0  0
   29.0820   50.6750   -5.0950 C   0  0  0  0  0  0  0  0  0  0  0  0
   29.6050   54.0290   -3.6800 N   0  0  0  0  0  0  0  0  0  0  0  0
   29.8590   51.8930   -2.7380 C   0  0  0  0  0  0  0  0  0  0  0  0
   29.4150   49.8840   -3.9930 C   0  0  0  0  0  0  0  0  0  0  0  0
   29.8090   50.4910   -2.8000 C   0  0  0  0  0  0  0  0  0  0  0  0
   30.1740   49.6600   -1.5940 C   0  0  0  0  0  0  0  0  0  0  0  0
   31.6910   49.5640   -1.4100 C   0  0  0  0  0  0  0  0  0  0  0  0
   32.3220   48.4470   -2.2370 C   0  0  0  0  0  0  0  0  0  0  0  0
   33.6850   48.2160   -1.8060 N   0  0  0  0  0  0  0  0  0  0  0  0
   34.4020   47.1690   -1.9780 C   0  0  0  0  0  0  0  0  0  0  0  0
   33.9150   46.0640   -2.6430 N   0  0  0  0  0  0  0  0  0  0  0  0
   35.7740   46.8040   -1.5910 C   0  0  0  0  0  0  0  0  0  0  0  0
   32.8700   46.0630   -3.6620 C   0  0  0  0  0  0  0  0  0  0  0  0
   34.5820   44.9420   -2.2490 C   0  0  0  0  0  0  0  0  0  0  0  0
   35.8720   45.4240   -1.7610 C   0  0  0  0  0  0  0  0  0  0  0  0
   36.8700   47.5120   -1.1340 C   0  0  0  0  0  0  0  0  0  0  0  0
   33.3650   45.4150   -4.9480 C   0  0  0  0  0  0  0  0  0  0  0  0
   34.2340   43.7770   -2.2670 O   0  0  0  0  0  0  0  0  0  0  0  0
   37.0230   44.7020   -1.4940 C   0  0  0  0  0  0  0  0  0  0  0  0
   38.0530   46.8070   -0.8560 C   0  0  0  0  0  0  0  0  0  0  0  0
   32.5760   44.3880   -5.3390 O   0  0  0  0  0  0  0  0  0  0  0  0
   34.3380   45.7170   -5.6230 O   0  0  0  0  0  0  0  0  0  0  0  0
   38.1300   45.4140   -1.0340 C   0  0  0  0  0  0  0  0  0  0  0  0
  1  2  1  0
  2  3  2  0
  2  4  1  0
  4  5  2  0
  3  6  1  0
  4  7  1  0
  5  8  1  0
  6  8  2  0
  5  9  1  0
  7 10  2  0
  9 11  2  0
 10 11  1  0
 11 12  1  0
 12 13  1  0
 13 14  1  0
 14 15  1  0
 15 16  2  3
 16 17  1  0
 16 18  1  0
 17 19  1  0
 17 20  1  0
 18 21  2  0
 20 21  1  0
 18 22  1  0
 19 23  1  0
 20 24  2  0
 21 25  1  0
 22 26  2  0
 23 27  1  0
 23 28  2  0
 25 29  2  0
 26 29  1  0
M  END
