mac-x0319-mac-x0441
     RDKit          3D

 24 26  0  0  0  0  0  0  0  0999 V2000
   34.1270   45.5750   -6.9730 O   0  0  0  0  0  0  0  0  0  0  0  0
   32.9410   45.5280   -6.3190 C   0  0  0  0  0  0  0  0  0  0  0  0
   31.9170   45.4280   -6.9790 O   0  0  0  0  0  0  0  0  0  0  0  0
   33.1180   45.6390   -4.7910 C   0  0  1  0  0  0  0  0  0  0  0  0
   31.8120   45.6280   -4.0070 C   0  0  0  0  0  0  0  0  0  0  0  0
   34.3070   44.9390   -4.1860 N   0  0  0  0  0  0  0  0  0  0  0  0
   30.8160   44.6360   -4.1010 C   0  0  0  0  0  0  0  0  0  0  0  0
   31.6040   46.7070   -3.1390 C   0  0  0  0  0  0  0  0  0  0  0  0
   34.1900   43.8570   -3.1660 N   0  0  0  0  0  0  0  0  0  0  0  0
   35.4590   45.7800   -3.8340 C   0  0  2  0  0  0  0  0  0  0  0  0
   29.6490   44.7500   -3.3370 C   0  0  0  0  0  0  0  0  0  0  0  0
   30.4400   46.8100   -2.3830 C   0  0  0  0  0  0  0  0  0  0  0  0
   35.6490   43.6870   -2.8410 C   0  0  1  0  0  0  0  0  0  0  0  0
   35.9730   45.1350   -2.5330 C   0  0  1  0  0  0  0  0  0  0  0  0
   35.3350   47.2530   -3.5760 C   0  0  0  0  0  0  0  0  0  0  0  0
   28.7030   43.7750   -3.4540 O   0  0  0  0  0  0  0  0  0  0  0  0
   36.0770   42.6800   -1.7650 C   0  0  0  0  0  0  0  0  0  0  0  0
   29.4600   45.8300   -2.4810 C   0  0  0  0  0  0  0  0  0  0  0  0
   37.3490   45.6960   -2.2790 C   0  0  0  0  0  0  0  0  0  0  0  0
   36.3540   47.8330   -2.9090 C   0  0  0  0  0  0  0  0  0  0  0  0
   37.2010   42.0340   -2.1520 F   0  0  0  0  0  0  0  0  0  0  0  0
   36.3420   43.2660   -0.5750 F   0  0  0  0  0  0  0  0  0  0  0  0
   35.1330   41.7350   -1.5540 F   0  0  0  0  0  0  0  0  0  0  0  0
   37.4980   47.0280   -2.4780 C   0  0  0  0  0  0  0  0  0  0  0  0
  1  2  1  0
  2  3  2  0
  4  2  1  6
  4  5  1  0
  4  6  1  0
  5  7  2  0
  5  8  1  0
  6  9  1  0
  6 10  1  0
  7 11  1  0
  8 12  2  0
  9 13  1  0
 10 14  1  0
 13 14  1  0
 10 15  1  1
 11 16  1  0
 13 17  1  1
 11 18  2  0
 12 18  1  0
 14 19  1  6
 15 20  2  0
 17 21  1  0
 17 22  1  0
 17 23  1  0
 19 24  2  0
 20 24  1  0
M  END
