mac-x0496-mac-x0115
     RDKit          3D

 36 39  0  0  0  0  0  0  0  0999 V2000
   24.4850   58.7590   -6.2340 C   0  0  0  0  0  0  0  0  0  0  0  0
   25.7970   58.4170   -5.6530 C   0  0  0  0  0  0  0  0  0  0  0  0
   26.2080   58.9070   -4.4770 N   0  0  0  0  0  0  0  0  0  0  0  0
   26.6850   57.5760   -6.2750 N   0  0  0  0  0  0  0  0  0  0  0  0
   27.4720   58.3360   -4.3170 O   0  0  0  0  0  0  0  0  0  0  0  0
   27.6890   57.5600   -5.4180 C   0  0  0  0  0  0  0  0  0  0  0  0
   28.9830   56.8380   -5.4810 C   0  0  0  0  0  0  0  0  0  0  0  0
   28.7460   55.4050   -5.5320 N   0  0  0  0  0  0  0  0  0  0  0  0
   29.3310   54.5670   -4.6120 C   0  0  0  0  0  0  0  0  0  0  0  0
   30.1570   54.9590   -3.7940 O   0  0  0  0  0  0  0  0  0  0  0  0
   28.9250   53.1320   -4.6380 C   0  0  0  0  0  0  0  0  0  0  0  0
   27.6690   52.8010   -5.1700 C   0  0  0  0  0  0  0  0  0  0  0  0
   29.7560   52.1170   -4.1490 C   0  0  0  0  0  0  0  0  0  0  0  0
   27.2500   51.4700   -5.2120 C   0  0  0  0  0  0  0  0  0  0  0  0
   29.3400   50.7780   -4.1900 C   0  0  0  0  0  0  0  0  0  0  0  0
   30.2100   49.6870   -3.6780 C   0  0  0  0  0  0  0  0  0  0  0  0
   28.0810   50.4610   -4.7230 C   0  0  0  0  0  0  0  0  0  0  0  0
   30.5230   48.6290   -4.3630 N   0  0  0  0  0  0  0  0  0  0  0  0
   30.6270   49.9480   -2.4220 O   0  0  0  0  0  0  0  0  0  0  0  0
   30.0520   48.4410   -5.6240 C   0  0  0  0  0  0  0  0  0  0  0  0
   29.7930   47.3450   -6.3510 C   0  0  0  0  0  0  0  0  0  0  0  0
   29.7070   49.5240   -6.5680 C   0  0  0  0  0  0  0  0  0  0  0  0
   29.9320   45.9860   -6.0650 N   0  0  0  0  0  0  0  0  0  0  0  0
   29.2630   47.7210   -7.6940 C   0  0  1  0  0  0  0  0  0  0  0  0
   29.2670   49.1990   -7.7480 N   0  0  0  0  0  0  0  0  0  0  0  0
   30.4210   45.5990   -4.7120 C   0  0  0  0  0  0  0  0  0  0  0  0
   30.1260   45.1210   -7.1610 C   0  0  0  0  0  0  0  0  0  0  0  0
   30.1190   47.0330   -8.7290 C   0  0  0  0  0  0  0  0  0  0  0  0
   29.7180   44.3480   -4.1690 C   0  0  0  0  0  0  0  0  0  0  0  0
   30.5190   47.5170   -9.7840 O   0  0  0  0  0  0  0  0  0  0  0  0
   30.0380   43.4480   -7.1740 S   0  0  0  0  0  0  0  0  0  0  0  0
   30.4260   45.7350   -8.3690 N   0  0  0  0  0  0  0  0  0  0  0  0
   29.8700   44.2940   -2.7460 O   0  0  0  0  0  0  0  0  0  0  0  0
   28.6350   44.2990   -2.0250 C   0  0  0  0  0  0  0  0  0  0  0  0
   28.0450   45.6980   -2.1570 C   0  0  0  0  0  0  0  0  0  0  0  0
   27.6760   43.2630   -2.6020 C   0  0  0  0  0  0  0  0  0  0  0  0
  1  2  1  0
  2  3  2  0
  2  4  1  0
  3  5  1  0
  4  6  2  0
  5  6  1  0
  6  7  1  0
  7  8  1  0
  8  9  1  0
  9 10  2  0
  9 11  1  0
 11 12  2  0
 11 13  1  0
 12 14  1  0
 13 15  2  0
 15 16  1  0
 14 17  2  0
 15 17  1  0
 16 18  2  3
 16 19  1  0
 18 20  1  0
 20 21  2  0
 20 22  1  0
 21 23  1  0
 21 24  1  0
 22 25  2  0
 24 25  1  6
 23 26  1  0
 23 27  1  0
 24 28  1  0
 26 29  1  0
 28 30  2  0
 27 31  2  0
 27 32  1  0
 28 32  1  0
 29 33  1  0
 33 34  1  0
 34 35  1  0
 34 36  1  0
M  END
