mac-x0337-mac-x0204
     RDKit          3D

 22 23  0  0  0  0  0  0  0  0999 V2000
   35.3600   52.3580   -5.4320 C   0  0  0  0  0  0  0  0  0  0  0  0
   33.9300   51.9160   -5.3340 C   0  0  0  0  0  0  0  0  0  0  0  0
   32.8830   52.8420   -5.4490 C   0  0  0  0  0  0  0  0  0  0  0  0
   33.6290   50.5610   -5.1270 C   0  0  0  0  0  0  0  0  0  0  0  0
   32.3040   50.1360   -5.0360 C   0  0  0  0  0  0  0  0  0  0  0  0
   31.5550   52.4230   -5.3580 C   0  0  0  0  0  0  0  0  0  0  0  0
   31.2710   51.0700   -5.1510 C   0  0  0  0  0  0  0  0  0  0  0  0
   29.5920   50.5300   -5.0340 S   0  0  2  0  0  0  0  0  0  0  0  0
   29.4240   49.5850   -3.8440 N   0  0  0  0  0  0  0  0  0  0  0  0
   29.0450   50.3540   -6.3590 O   0  0  0  0  0  0  0  0  0  0  0  0
   28.6760   51.8130   -4.4610 N   0  0  0  0  0  0  0  0  0  0  0  0
   29.4280   48.1270   -4.0880 C   0  0  0  0  0  0  0  0  0  0  0  0
   30.6290   47.4840   -3.4290 C   0  0  0  0  0  0  0  0  0  0  0  0
   31.3080   46.3920   -4.0150 C   0  0  0  0  0  0  0  0  0  0  0  0
   31.1180   47.9540   -2.1970 C   0  0  0  0  0  0  0  0  0  0  0  0
   30.9040   45.7870   -5.3030 C   0  0  0  0  0  0  0  0  0  0  0  0
   30.5030   49.0050   -1.5750 O   0  0  0  0  0  0  0  0  0  0  0  0
   32.2270   47.3450   -1.6170 C   0  0  0  0  0  0  0  0  0  0  0  0
   32.4090   45.8530   -3.3530 C   0  0  0  0  0  0  0  0  0  0  0  0
   31.9540   45.6230   -6.1280 O   0  0  0  0  0  0  0  0  0  0  0  0
   29.7800   45.4530   -5.6290 O   0  0  0  0  0  0  0  0  0  0  0  0
   32.8860   46.3030   -2.1680 N   0  0  0  0  0  0  0  0  0  0  0  0
  1  2  1  0
  2  3  2  0
  2  4  1  0
  4  5  2  0
  3  6  1  0
  5  7  1  0
  6  7  2  0
  7  8  1  0
  8  9  2  0
  8 10  2  0
  8 11  1  1
  9 12  1  0
 12 13  1  0
 13 14  2  0
 13 15  1  0
 14 16  1  0
 15 17  1  0
 15 18  2  0
 14 19  1  0
 16 20  1  0
 16 21  2  0
 18 22  1  0
 19 22  2  0
M  END
