mac-x0271-mac-x0124
     RDKit          3D

 23 26  0  0  0  0  0  0  0  0999 V2000
   31.7280   50.8640   -2.7950 O   0  0  0  0  0  0  0  0  0  0  0  0
   30.8820   51.5550   -3.6130 C   0  0  0  0  0  0  0  0  0  0  0  0
   30.3380   50.9680   -4.7490 C   0  0  0  0  0  0  0  0  0  0  0  0
   30.5770   52.8560   -3.2790 C   0  0  0  0  0  0  0  0  0  0  0  0
   29.7170   53.5660   -4.1080 C   0  0  0  0  0  0  0  0  0  0  0  0
   29.4610   51.6700   -5.5960 C   0  0  0  0  0  0  0  0  0  0  0  0
   28.9260   51.0330   -6.7340 N   0  0  0  0  0  0  0  0  0  0  0  0
   29.1470   53.0080   -5.2620 C   0  0  0  0  0  0  0  0  0  0  0  0
   29.4420   54.8920   -3.7210 O   0  0  0  0  0  0  0  0  0  0  0  0
   28.2570   53.8700   -6.0450 C   0  0  0  0  0  0  0  0  0  0  0  0
   28.8430   55.7720   -4.6010 C   0  0  0  0  0  0  0  0  0  0  0  0
   28.9320   49.6640   -7.0290 C   0  0  0  0  0  0  0  0  0  0  0  0
   28.8990   56.9880   -4.4660 O   0  0  0  0  0  0  0  0  0  0  0  0
   28.1230   55.1630   -5.7280 C   0  0  0  0  0  0  0  0  0  0  0  0
   28.9840   48.7260   -5.9750 C   0  0  0  0  0  0  0  0  0  0  0  0
   28.8980   49.1820   -8.2980 N   0  0  0  0  0  0  0  0  0  0  0  0
   29.0240   48.7790   -4.5480 C   0  0  0  0  0  0  0  0  0  0  0  0
   29.0020   47.3830   -6.3180 C   0  0  0  0  0  0  0  0  0  0  0  0
   28.9190   47.8480   -8.4870 C   0  0  0  0  0  0  0  0  0  0  0  0
   29.0580   46.6490   -5.1580 N   0  0  0  0  0  0  0  0  0  0  0  0
   29.0730   47.4880   -4.0750 C   0  0  0  0  0  0  0  0  0  0  0  0
   28.9710   46.8770   -7.5610 N   0  0  0  0  0  0  0  0  0  0  0  0
   29.0960   45.2080   -5.1010 C   0  0  0  0  0  0  0  0  0  0  0  0
  1  2  1  0
  2  3  2  0
  2  4  1  0
  4  5  2  0
  3  6  1  0
  6  7  1  0
  5  8  1  0
  6  8  2  0
  5  9  1  0
  8 10  1  0
  9 11  1  0
  7 12  1  0
 11 13  2  0
 10 14  2  0
 11 14  1  0
 12 15  1  0
 12 16  2  0
 15 17  1  0
 15 18  2  0
 16 19  1  0
 18 20  1  0
 17 21  2  0
 20 21  1  0
 18 22  1  0
 19 22  2  0
 20 23  1  0
M  END
