mac-x0123-mac-x0348
     RDKit          3D

 30 34  0  0  0  0  0  0  0  0999 V2000
   28.3690   51.9740   -7.4340 N   0  0  0  0  0  0  0  0  0  0  0  0
   28.8730   52.5250   -6.2640 C   0  0  0  0  0  0  0  0  0  0  0  0
   28.9390   53.8300   -5.9940 C   0  0  0  0  0  0  0  0  0  0  0  0
   29.3600   51.6530   -5.2700 N   0  0  0  0  0  0  0  0  0  0  0  0
   29.8900   52.1140   -4.0540 C   0  0  0  0  0  0  0  0  0  0  0  0
   29.5170   54.2300   -4.6760 C   0  0  0  0  0  0  0  0  0  0  0  0
   28.5570   55.0630   -6.7260 C   0  0  0  0  0  0  0  0  0  0  0  0
   29.3980   50.3020   -5.3120 N   0  0  0  0  0  0  0  0  0  0  0  0
   29.9690   53.4450   -3.7520 N   0  0  0  0  0  0  0  0  0  0  0  0
   29.5040   55.7220   -4.5550 C   0  0  0  0  0  0  0  0  0  0  0  0
   29.3930   56.1400   -6.0250 C   0  0  0  0  0  0  0  0  0  0  0  0
   30.2570   51.0800   -3.3400 N   0  0  0  0  0  0  0  0  0  0  0  0
   29.9430   50.0190   -4.1370 C   0  0  0  0  0  0  0  0  0  0  0  0
   30.1890   48.6340   -3.7210 C   0  0  0  0  0  0  0  0  0  0  0  0
   30.0880   47.6120   -4.8510 C   0  0  0  0  0  0  0  0  0  0  0  0
   30.2980   46.1550   -4.3910 C   0  0  1  0  0  0  0  0  0  0  0  0
   31.7490   45.6610   -4.4620 C   0  0  0  0  0  0  0  0  0  0  0  0
   29.6240   45.9420   -3.0470 C   0  0  0  0  0  0  0  0  0  0  0  0
   32.3770   45.9090   -5.8110 C   0  0  0  0  0  0  0  0  0  0  0  0
   28.6780   44.9800   -2.7500 C   0  0  0  0  0  0  0  0  0  0  0  0
   29.8260   46.7020   -1.8360 C   0  0  0  0  0  0  0  0  0  0  0  0
   31.8510   45.7450   -6.9020 O   0  0  0  0  0  0  0  0  0  0  0  0
   33.6440   46.3580   -5.7340 O   0  0  0  0  0  0  0  0  0  0  0  0
   28.3010   45.1260   -1.4460 N   0  0  0  0  0  0  0  0  0  0  0  0
   28.9830   46.1710   -0.8590 C   0  0  0  0  0  0  0  0  0  0  0  0
   30.6480   47.7990   -1.4750 C   0  0  0  0  0  0  0  0  0  0  0  0
   27.3220   44.2960   -0.7820 C   0  0  0  0  0  0  0  0  0  0  0  0
   30.5990   48.3240   -0.1840 C   0  0  0  0  0  0  0  0  0  0  0  0
   28.9240   46.6890    0.4450 C   0  0  0  0  0  0  0  0  0  0  0  0
   29.7460   47.7770    0.7640 C   0  0  0  0  0  0  0  0  0  0  0  0
  1  2  1  0
  2  3  2  0
  2  4  1  0
  4  5  1  0
  3  6  1  0
  3  7  1  0
  4  8  1  0
  5  9  1  0
  6  9  2  0
  6 10  1  0
  7 11  1  0
 10 11  1  0
  5 12  2  0
  8 13  2  0
 12 13  1  0
 13 14  1  0
 14 15  1  0
 16 15  1  1
 16 17  1  0
 16 18  1  0
 17 19  1  0
 18 20  2  0
 18 21  1  0
 19 22  2  0
 19 23  1  0
 20 24  1  0
 21 25  2  0
 24 25  1  0
 21 26  1  0
 24 27  1  0
 26 28  2  0
 25 29  1  0
 28 30  1  0
 29 30  2  0
M  END
