mac-x0385-mac-x0142
     RDKit          3D

 22 25  0  0  0  0  0  0  0  0999 V2000
   29.2030   51.4550   -2.7380 C   0  0  0  0  0  0  0  0  0  0  0  0
   28.9750   50.3010   -3.6750 C   0  0  0  0  0  0  0  0  0  0  0  0
   27.7550   49.5120   -3.3640 C   0  0  0  0  0  0  0  0  0  0  0  0
   29.7440   49.9410   -4.7250 C   0  0  0  0  0  0  0  0  0  0  0  0
   30.8840   50.7060   -5.0130 N   0  0  0  0  0  0  0  0  0  0  0  0
   29.4010   48.8210   -5.5290 N   0  0  0  0  0  0  0  0  0  0  0  0
   26.9030   48.8840   -4.1080 N   0  0  0  0  0  0  0  0  0  0  0  0
   27.0130   48.8430   -5.4880 C   0  0  0  0  0  0  0  0  0  0  0  0
   28.1760   48.8140   -6.1780 C   0  0  0  0  0  0  0  0  0  0  0  0
   30.2580   47.8550   -6.0710 C   0  0  0  0  0  0  0  0  0  0  0  0
   25.6650   48.8290   -6.1710 C   0  0  0  0  0  0  0  0  0  0  0  0
   31.2050   47.2520   -5.2280 N   0  0  0  0  0  0  0  0  0  0  0  0
   30.1610   47.4910   -7.3240 N   0  0  0  0  0  0  0  0  0  0  0  0
   28.1660   48.7680   -7.5560 N   0  0  0  0  0  0  0  0  0  0  0  0
   31.7750   48.0360   -4.1100 C   0  0  0  0  0  0  0  0  0  0  0  0
   30.9280   45.8620   -4.8240 C   0  0  0  0  0  0  0  0  0  0  0  0
   29.1690   48.1090   -8.0530 C   0  0  0  0  0  0  0  0  0  0  0  0
   32.2050   45.2080   -4.3530 C   0  0  0  0  0  0  0  0  0  0  0  0
   33.0550   47.4070   -3.5620 C   0  0  0  0  0  0  0  0  0  0  0  0
   32.3050   43.6980   -4.4040 C   0  0  0  0  0  0  0  0  0  0  0  0
   33.0950   44.5300   -5.3750 C   0  0  0  0  0  0  0  0  0  0  0  0
   32.8500   45.9380   -3.1980 C   0  0  0  0  0  0  0  0  0  0  0  0
  1  2  1  0
  2  3  1  0
  2  4  2  0
  4  5  1  0
  4  6  1  0
  3  7  2  0
  7  8  1  0
  6  9  1  0
  8  9  2  0
  6 10  1  0
  8 11  1  0
 10 12  1  0
 10 13  2  0
  9 14  1  0
 12 15  1  0
 12 16  1  0
 13 17  1  0
 14 17  2  0
 18 16  1  0
 15 19  1  0
 18 20  1  0
 18 21  1  0
 20 21  1  0
 18 22  1  0
 19 22  1  0
M  END
