mac-x0436-mac-x0345
     RDKit          3D

 28 30  0  0  0  0  0  0  0  0999 V2000
   33.6320   45.6330   -6.7730 O   0  0  0  0  0  0  0  0  0  0  0  0
   32.4410   45.2590   -6.2550 C   0  0  0  0  0  0  0  0  0  0  0  0
   31.4050   45.5770   -6.8080 O   0  0  0  0  0  0  0  0  0  0  0  0
   32.6090   44.4520   -4.9890 C   0  0  0  0  0  0  0  0  0  0  0  0
   32.5220   45.2920   -3.7180 C   0  0  0  0  0  0  0  0  0  0  0  0
   33.8400   45.9720   -3.4200 C   0  0  0  0  0  0  0  0  0  0  0  0
   33.9640   47.5070   -3.5440 C   0  0  0  0  0  0  0  0  0  0  0  0
   34.8500   45.2300   -3.0620 N   0  0  0  0  0  0  0  0  0  0  0  0
   32.9870   48.3370   -3.6880 N   0  0  0  0  0  0  0  0  0  0  0  0
   35.2400   48.0390   -3.5030 N   0  0  0  0  0  0  0  0  0  0  0  0
   36.0850   45.8480   -2.7910 C   0  0  0  0  0  0  0  0  0  0  0  0
   33.1000   49.7780   -3.8070 C   0  0  0  0  0  0  0  0  0  0  0  0
   36.2930   47.2290   -3.0030 C   0  0  0  0  0  0  0  0  0  0  0  0
   37.1270   45.0630   -2.3010 C   0  0  0  0  0  0  0  0  0  0  0  0
   32.6110   50.4840   -2.5440 C   0  0  0  0  0  0  0  0  0  0  0  0
   38.3700   45.6320   -2.0200 C   0  0  0  0  0  0  0  0  0  0  0  0
   37.5390   47.7940   -2.7200 C   0  0  0  0  0  0  0  0  0  0  0  0
   31.2840   49.9540   -1.9820 C   0  0  0  0  0  0  0  0  0  0  0  0
   38.5750   46.9970   -2.2300 C   0  0  0  0  0  0  0  0  0  0  0  0
   30.2040   50.9400   -1.9770 N   0  0  0  0  0  0  0  0  0  0  0  0
   29.7770   51.4310   -3.2110 C   0  0  0  0  0  0  0  0  0  0  0  0
   29.2840   50.5220   -4.1450 C   0  0  0  0  0  0  0  0  0  0  0  0
   29.8430   52.7480   -3.4860 N   0  0  0  0  0  0  0  0  0  0  0  0
   29.4200   53.1950   -4.7000 C   0  0  0  0  0  0  0  0  0  0  0  0
   28.8510   50.9780   -5.3870 C   0  0  0  0  0  0  0  0  0  0  0  0
   29.5330   54.6750   -4.9140 C   0  0  0  0  0  0  0  0  0  0  0  0
   28.9170   52.3330   -5.6750 C   0  0  0  0  0  0  0  0  0  0  0  0
   28.3220   52.9280   -7.3710 Br  0  0  0  0  0  0  0  0  0  0  0  0
  1  2  1  0
  2  3  2  0
  2  4  1  0
  4  5  1  0
  5  6  1  0
  6  7  1  0
  6  8  2  0
  7  9  2  3
  7 10  1  0
  8 11  1  0
  9 12  1  0
 10 13  1  0
 11 13  2  0
 11 14  1  0
 12 15  1  0
 14 16  2  0
 13 17  1  0
 15 18  1  0
 16 19  1  0
 17 19  2  0
 18 20  1  0
 20 21  1  0
 21 22  2  0
 21 23  1  0
 23 24  2  0
 22 25  1  0
 24 26  1  0
 24 27  1  0
 25 27  2  0
 27 28  1  0
M  END
