mac-x0404-mac-x0441
     RDKit          3D

 28 31  0  0  0  0  0  0  0  0999 V2000
   32.2560   46.0350   -6.9420 O   0  0  0  0  0  0  0  0  0  0  0  0
   33.2550   45.7670   -6.0530 C   0  0  0  0  0  0  0  0  0  0  0  0
   34.3750   46.2390   -6.1960 O   0  0  0  0  0  0  0  0  0  0  0  0
   32.7970   44.8110   -4.8860 C   0  0  2  0  0  0  0  0  0  0  0  0
   31.4190   44.9210   -4.4870 O   0  0  0  0  0  0  0  0  0  0  0  0
   33.7100   44.9990   -3.6910 N   0  0  0  0  0  0  0  0  0  0  0  0
   31.1710   45.7550   -3.4110 C   0  0  0  0  0  0  0  0  0  0  0  0
   33.9260   43.7290   -2.9780 N   0  0  0  0  0  0  0  0  0  0  0  0
   35.0520   45.5330   -4.0100 C   0  0  2  0  0  0  0  0  0  0  0  0
   30.0950   45.5100   -2.5220 C   0  0  0  0  0  0  0  0  0  0  0  0
   32.0140   46.8560   -3.2310 C   0  0  0  0  0  0  0  0  0  0  0  0
   35.0960   44.0140   -2.0980 C   0  0  2  0  0  0  0  0  0  0  0  0
   36.0160   44.8540   -2.9920 C   0  0  2  0  0  0  0  0  0  0  0  0
   35.0430   47.0410   -3.9560 C   0  0  0  0  0  0  0  0  0  0  0  0
   35.8040   42.7630   -1.5470 C   0  0  0  0  0  0  0  0  0  0  0  0
   29.8950   46.4080   -1.4440 C   0  0  0  0  0  0  0  0  0  0  0  0
   31.8060   47.7290   -2.1650 C   0  0  0  0  0  0  0  0  0  0  0  0
   29.2050   44.4200   -2.6500 C   0  0  0  0  0  0  0  0  0  0  0  0
   36.9130   45.7890   -2.2120 C   0  0  0  0  0  0  0  0  0  0  0  0
   35.8630   47.7530   -3.1710 C   0  0  0  0  0  0  0  0  0  0  0  0
   36.6470   42.2300   -2.4580 F   0  0  0  0  0  0  0  0  0  0  0  0
   36.5270   43.0380   -0.4380 F   0  0  0  0  0  0  0  0  0  0  0  0
   34.9030   41.8040   -1.2190 F   0  0  0  0  0  0  0  0  0  0  0  0
   30.7530   47.5050   -1.2790 C   0  0  0  0  0  0  0  0  0  0  0  0
   28.8370   46.1950   -0.5430 C   0  0  0  0  0  0  0  0  0  0  0  0
   28.1580   44.2210   -1.7450 C   0  0  0  0  0  0  0  0  0  0  0  0
   36.8240   47.1210   -2.3070 C   0  0  0  0  0  0  0  0  0  0  0  0
   27.9740   45.1070   -0.6940 C   0  0  0  0  0  0  0  0  0  0  0  0
  1  2  1  0
  2  3  2  0
  2  4  1  0
  4  5  1  1
  4  6  1  0
  5  7  1  0
  6  8  1  0
  6  9  1  0
  7 10  1  0
  7 11  2  0
  8 12  1  0
  9 13  1  0
 12 13  1  0
  9 14  1  1
 12 15  1  6
 10 16  2  0
 11 17  1  0
 10 18  1  0
 13 19  1  1
 14 20  2  0
 15 21  1  0
 15 22  1  0
 15 23  1  0
 16 24  1  0
 17 24  2  0
 16 25  1  0
 18 26  2  0
 19 27  2  0
 20 27  1  0
 25 28  2  0
 26 28  1  0
M  END
