mac-x0415-mac-x0301
     RDKit          3D

 26 29  0  0  0  0  0  0  0  0999 V2000
   34.7710   45.7550   -4.5210 O   0  0  0  0  0  0  0  0  0  0  0  0
   33.5050   45.3000   -4.3350 C   0  0  0  0  0  0  0  0  0  0  0  0
   33.2570   44.1050   -4.3010 O   0  0  0  0  0  0  0  0  0  0  0  0
   32.5030   46.4390   -4.1900 C   0  0  0  0  0  0  0  0  0  0  0  0
   31.1910   46.0230   -3.6210 C   0  0  0  0  0  0  0  0  0  0  0  0
   30.0310   45.4740   -4.3420 C   0  0  0  0  0  0  0  0  0  0  0  0
   30.6970   46.0490   -2.3890 C   0  0  0  0  0  0  0  0  0  0  0  0
   30.2190   45.3710   -5.6640 O   0  0  0  0  0  0  0  0  0  0  0  0
   28.9470   45.1610   -3.6850 N   0  0  0  0  0  0  0  0  0  0  0  0
   29.3050   45.5040   -2.3050 C   0  0  2  0  0  0  0  0  0  0  0  0
   31.2650   46.5120   -1.1540 C   0  0  0  0  0  0  0  0  0  0  0  0
   30.6920   46.4640   -6.3160 C   0  0  0  0  0  0  0  0  0  0  0  0
   28.4470   46.5280   -1.6360 C   0  0  0  0  0  0  0  0  0  0  0  0
   30.4170   47.1390   -0.3100 C   0  0  0  0  0  0  0  0  0  0  0  0
   30.9730   47.8210    1.3340 Br  0  0  0  0  0  0  0  0  0  0  0  0
   31.6630   46.5270   -7.0480 O   0  0  0  0  0  0  0  0  0  0  0  0
   29.0000   47.3060   -0.6790 C   0  0  0  0  0  0  0  0  0  0  0  0
   29.8260   47.6300   -6.0070 C   0  0  0  0  0  0  0  0  0  0  0  0
   29.0180   48.1630   -6.9910 C   0  0  0  0  0  0  0  0  0  0  0  0
   29.7920   48.2320   -4.7320 C   0  0  0  0  0  0  0  0  0  0  0  0
   28.2060   49.2480   -6.7370 C   0  0  0  0  0  0  0  0  0  0  0  0
   28.9580   49.3390   -4.4850 C   0  0  0  0  0  0  0  0  0  0  0  0
   28.9010   47.7380   -8.2790 O   0  0  0  0  0  0  0  0  0  0  0  0
   28.1540   49.8560   -5.5000 C   0  0  0  0  0  0  0  0  0  0  0  0
   27.4870   49.6300   -7.8290 O   0  0  0  0  0  0  0  0  0  0  0  0
   27.8880   48.6280   -8.7840 C   0  0  0  0  0  0  0  0  0  0  0  0
  1  2  1  0
  2  3  2  0
  2  4  1  0
  4  5  1  0
  5  6  1  0
  5  7  2  0
  6  8  1  0
  6  9  2  0
  7 10  1  0
  9 10  1  0
  7 11  1  0
  8 12  1  0
 10 13  1  6
 11 14  2  0
 14 15  1  0
 12 16  2  0
 13 17  2  0
 14 17  1  0
 12 18  1  0
 18 19  1  0
 18 20  2  0
 19 21  2  0
 20 22  1  0
 19 23  1  0
 21 24  1  0
 22 24  2  0
 21 25  1  0
 23 26  1  0
 25 26  1  0
M  END
