mac-x0576-mac-x0546
     RDKit          3D

 30 33  0  0  0  0  0  0  0  0999 V2000
   27.8240   48.6710   -9.8400 N   0  0  0  0  0  0  0  0  0  0  0  0
   28.9080   48.7620   -8.9070 C   0  0  1  0  0  0  0  0  0  0  0  0
   29.1270   50.1870   -8.8990 N   0  0  0  0  0  0  0  0  0  0  0  0
   28.7100   48.0930   -7.6660 N   0  0  0  0  0  0  0  0  0  0  0  0
   29.0850   48.6670   -6.4770 C   0  0  0  0  0  0  0  0  0  0  0  0
   28.4950   50.8030   -7.7430 C   0  0  1  0  0  0  0  0  0  0  0  0
   29.6350   48.0620   -5.4770 N   0  0  0  0  0  0  0  0  0  0  0  0
   28.8050   50.1890   -6.3510 C   0  0  2  0  0  0  0  0  0  0  0  0
   28.7860   52.2110   -7.8450 N   0  0  0  0  0  0  0  0  0  0  0  0
   29.9270   46.6250   -5.5050 C   0  0  0  0  0  0  0  0  0  0  0  0
   28.9950   53.0150   -6.7520 C   0  0  0  0  0  0  0  0  0  0  0  0
   29.8850   50.9360   -5.6560 N   0  0  0  0  0  0  0  0  0  0  0  0
   28.7720   54.2220   -6.8300 O   0  0  0  0  0  0  0  0  0  0  0  0
   31.3340   46.3430   -6.0490 C   0  0  0  0  0  0  0  0  0  0  0  0
   29.5030   52.3510   -5.4670 C   0  0  0  0  0  0  0  0  0  0  0  0
   32.3370   46.8980   -5.1270 N   0  0  0  0  0  0  0  0  0  0  0  0
   32.9480   46.0880   -4.3300 C   0  0  0  0  0  0  0  0  0  0  0  0
   32.6790   44.5990   -4.3040 C   0  0  0  0  0  0  0  0  0  0  0  0
   33.8830   46.5100   -3.4560 O   0  0  0  0  0  0  0  0  0  0  0  0
   31.4990   44.2750   -3.4460 C   0  0  0  0  0  0  0  0  0  0  0  0
   31.3180   44.7890   -2.0480 C   0  0  1  0  0  0  0  0  0  0  0  0
   30.4550   43.4940   -3.7650 C   0  0  0  0  0  0  0  0  0  0  0  0
   31.1020   46.2400   -1.7680 C   0  0  0  0  0  0  0  0  0  0  0  0
   29.9820   44.0990   -1.8070 C   0  0  0  0  0  0  0  0  0  0  0  0
   29.5150   43.3710   -2.7740 N   0  0  0  0  0  0  0  0  0  0  0  0
   30.2230   46.5920   -0.8050 C   0  0  0  0  0  0  0  0  0  0  0  0
   29.3380   44.3270   -0.5050 C   0  0  0  0  0  0  0  0  0  0  0  0
   29.9600   47.9010   -0.4770 O   0  0  0  0  0  0  0  0  0  0  0  0
   29.4840   45.5840   -0.0520 C   0  0  0  0  0  0  0  0  0  0  0  0
   31.1630   48.5940   -0.1480 C   0  0  0  0  0  0  0  0  0  0  0  0
  2  1  1  6
  2  3  1  0
  2  4  1  0
  4  5  1  0
  6  3  1  6
  5  7  2  3
  5  8  1  0
  6  8  1  0
  6  9  1  0
  7 10  1  0
  9 11  1  0
  8 12  1  6
 11 13  2  0
 10 14  1  0
 11 15  1  0
 12 15  1  0
 14 16  1  0
 16 17  2  3
 17 18  1  0
 17 19  1  0
 18 20  1  0
 20 21  1  0
 20 22  2  0
 21 23  1  6
 21 24  1  0
 22 25  1  0
 24 25  2  0
 23 26  2  0
 24 27  1  0
 26 28  1  0
 26 29  1  0
 27 29  2  0
 28 30  1  0
M  END
