mac-x0361-mac-x0161
     RDKit          3D

 21 23  0  0  0  0  0  0  0  0999 V2000
   29.1390   53.9670   -6.0820 N   0  0  0  0  0  0  0  0  0  0  0  0
   29.6410   53.4790   -4.9150 C   0  0  0  0  0  0  0  0  0  0  0  0
   30.2180   54.2360   -4.1370 O   0  0  0  0  0  0  0  0  0  0  0  0
   29.4420   51.9800   -4.6280 C   0  0  1  0  0  0  0  0  0  0  0  0
   29.7000   50.9910   -5.7720 C   0  0  0  0  0  0  0  0  0  0  0  0
   30.1940   51.5150   -3.4230 C   0  0  0  0  0  0  0  0  0  0  0  0
   29.2020   49.5570   -5.4370 C   0  0  1  0  0  0  0  0  0  0  0  0
   30.1720   50.2180   -3.0910 C   0  0  0  0  0  0  0  0  0  0  0  0
   29.3880   49.1980   -3.8980 C   0  0  2  0  0  0  0  0  0  0  0  0
   27.7230   49.4780   -5.8200 C   0  0  0  0  0  0  0  0  0  0  0  0
   29.7780   48.5590   -6.4030 N   0  0  0  0  0  0  0  0  0  0  0  0
   29.9700   47.8780   -3.7730 O   0  0  0  0  0  0  0  0  0  0  0  0
   27.7810   49.3710   -7.2800 N   0  0  0  0  0  0  0  0  0  0  0  0
   28.7970   48.3560   -7.4690 C   0  0  0  0  0  0  0  0  0  0  0  0
   31.2840   47.6670   -3.8980 C   0  0  0  0  0  0  0  0  0  0  0  0
   32.3500   47.9400   -3.0790 C   0  0  0  0  0  0  0  0  0  0  0  0
   31.7360   47.0530   -5.0290 O   0  0  0  0  0  0  0  0  0  0  0  0
   33.1160   46.9180   -4.9680 N   0  0  0  0  0  0  0  0  0  0  0  0
   33.4570   47.4550   -3.7970 C   0  0  0  0  0  0  0  0  0  0  0  0
   34.7450   47.5000   -3.3880 O   0  0  0  0  0  0  0  0  0  0  0  0
   34.9390   48.0490   -2.0900 C   0  0  0  0  0  0  0  0  0  0  0  0
  1  2  1  0
  2  3  2  0
  4  2  1  6
  4  5  1  0
  4  6  1  0
  7  5  1  1
  6  8  2  0
  7  9  1  0
  8  9  1  0
  7 10  1  0
  7 11  1  0
  9 12  1  6
 10 13  1  0
 11 14  1  0
 13 14  1  0
 12 15  1  0
 15 16  2  0
 15 17  1  0
 17 18  1  0
 16 19  1  0
 18 19  2  0
 19 20  1  0
 20 21  1  0
M  END
