mac-x0321-mac-x0412
     RDKit          3D

 15 16  0  0  0  0  0  0  0  0999 V2000
   27.1280   51.5000   -6.4380 Cl  0  0  0  0  0  0  0  0  0  0  0  0
   28.8100   51.4940   -5.7780 C   0  0  2  0  0  0  0  0  0  0  0  0
   29.2190   50.0040   -5.6390 C   0  0  0  0  0  0  0  0  0  0  0  0
   28.8390   52.2760   -4.4170 C   0  0  1  0  0  0  0  0  0  0  0  0
   29.4500   52.2320   -6.9330 C   0  0  0  0  0  0  0  0  0  0  0  0
   30.3650   49.7170   -4.6440 C   0  0  2  0  0  0  0  0  0  0  0  0
   29.5320   51.6140   -3.2420 C   0  0  0  0  0  0  0  0  0  0  0  0
   29.1430   53.7690   -4.6130 C   0  0  0  0  0  0  0  0  0  0  0  0
   29.4570   53.5660   -6.9450 C   0  0  0  0  0  0  0  0  0  0  0  0
   30.5070   48.2120   -4.3910 C   0  0  0  0  0  0  0  0  0  0  0  0
   29.5570   54.5190   -3.7370 O   0  0  0  0  0  0  0  0  0  0  0  0
   30.2120   50.4660   -3.3510 C   0  0  0  0  0  0  0  0  0  0  0  0
   28.9120   54.2250   -5.8940 N   0  0  0  0  0  0  0  0  0  0  0  0
   30.1270   47.4650   -5.4500 O   0  0  0  0  0  0  0  0  0  0  0  0
   30.9090   47.6600   -3.3810 O   0  0  0  0  0  0  0  0  0  0  0  0
  2  1  1  6
  2  3  1  0
  2  4  1  0
  2  5  1  0
  3  6  1  0
  4  7  1  1
  4  8  1  0
  5  9  2  0
  6 10  1  1
  8 11  2  0
  6 12  1  0
  7 12  2  0
  8 13  1  0
  9 13  1  0
 10 14  1  0
 10 15  2  0
M  END
