mac-x0375-mac-x0371
     RDKit          3D

 19 20  0  0  0  0  0  0  0  0999 V2000
   31.9810   44.9720   -6.9290 O   0  0  0  0  0  0  0  0  0  0  0  0
   33.1770   45.2210   -6.3420 C   0  0  0  0  0  0  0  0  0  0  0  0
   34.1920   45.1360   -7.0120 O   0  0  0  0  0  0  0  0  0  0  0  0
   33.0600   45.5970   -4.8530 C   0  0  2  0  0  0  0  0  0  0  0  0
   34.0950   45.0900   -4.0100 O   0  0  0  0  0  0  0  0  0  0  0  0
   31.7210   45.1890   -4.2560 C   0  0  0  0  0  0  0  0  0  0  0  0
   35.0200   45.9980   -3.5980 C   0  0  0  0  0  0  0  0  0  0  0  0
   30.9130   46.1070   -3.5440 C   0  0  0  0  0  0  0  0  0  0  0  0
   31.2380   43.8720   -4.3960 C   0  0  0  0  0  0  0  0  0  0  0  0
   32.1130   42.6370   -5.2380 Cl  0  0  0  0  0  0  0  0  0  0  0  0
   31.3590   47.7600   -3.2790 Cl  0  0  0  0  0  0  0  0  0  0  0  0
   36.3180   45.5080   -3.4310 C   0  0  0  0  0  0  0  0  0  0  0  0
   34.7600   47.3430   -3.3440 C   0  0  0  0  0  0  0  0  0  0  0  0
   29.6800   45.7140   -3.0030 C   0  0  0  0  0  0  0  0  0  0  0  0
   30.0080   43.4930   -3.8520 C   0  0  0  0  0  0  0  0  0  0  0  0
   37.3460   46.3600   -3.0150 C   0  0  0  0  0  0  0  0  0  0  0  0
   35.7850   48.1910   -2.9290 C   0  0  0  0  0  0  0  0  0  0  0  0
   29.2270   44.4100   -3.1560 C   0  0  0  0  0  0  0  0  0  0  0  0
   37.0760   47.7020   -2.7640 C   0  0  0  0  0  0  0  0  0  0  0  0
  1  2  1  0
  2  3  2  0
  2  4  1  0
  4  5  1  1
  4  6  1  0
  5  7  1  0
  6  8  2  0
  6  9  1  0
  9 10  1  0
  8 11  1  0
  7 12  2  0
  7 13  1  0
  8 14  1  0
  9 15  2  0
 12 16  1  0
 13 17  2  0
 14 18  2  0
 15 18  1  0
 16 19  2  0
 17 19  1  0
M  END
