mac-x0161-mac-x0590
     RDKit          3D

 25 28  0  0  0  0  0  0  0  0999 V2000
   27.7950   52.2580   -5.3850 N   0  0  0  0  0  0  0  0  0  0  0  0
   28.7000   51.1300   -5.3330 C   0  0  2  0  0  0  0  0  0  0  0  0
   28.1260   49.8880   -6.0370 C   0  0  2  0  0  0  0  0  0  0  0  0
   28.8810   50.8160   -3.9250 N   0  0  0  0  0  0  0  0  0  0  0  0
   29.7830   49.6630   -3.7170 C   0  0  0  0  0  0  0  0  0  0  0  0
   29.1630   48.8220   -5.8890 C   0  0  1  0  0  0  0  0  0  0  0  0
   27.9940   49.9040   -7.5010 N   0  0  0  0  0  0  0  0  0  0  0  0
   29.4950   48.4770   -4.5240 N   0  0  0  0  0  0  0  0  0  0  0  0
   28.5670   47.7490   -6.6760 N   0  0  0  0  0  0  0  0  0  0  0  0
   28.1090   48.4880   -7.8600 C   0  0  0  0  0  0  0  0  0  0  0  0
   30.4840   47.3670   -4.5160 C   0  0  2  0  0  0  0  0  0  0  0  0
   30.1440   46.1910   -3.5710 C   0  0  0  0  0  0  0  0  0  0  0  0
   31.9150   47.7310   -4.3190 C   0  0  0  0  0  0  0  0  0  0  0  0
   31.3990   45.3910   -3.1290 C   0  0  0  0  0  0  0  0  0  0  0  0
   32.7110   47.9910   -3.2300 C   0  0  0  0  0  0  0  0  0  0  0  0
   32.6570   47.8310   -5.4550 O   0  0  0  0  0  0  0  0  0  0  0  0
   33.9610   48.1590   -5.1260 N   0  0  0  0  0  0  0  0  0  0  0  0
   33.9670   48.2450   -3.7960 C   0  0  0  0  0  0  0  0  0  0  0  0
   32.5280   45.1680   -4.1510 C   0  0  2  0  0  0  0  0  0  0  0  0
   35.0840   48.5460   -3.1040 O   0  0  0  0  0  0  0  0  0  0  0  0
   32.1420   45.1760   -5.6310 C   0  0  0  0  0  0  0  0  0  0  0  0
   33.3130   43.8720   -4.0160 C   0  0  0  0  0  0  0  0  0  0  0  0
   35.2240   47.8300   -1.8840 C   0  0  0  0  0  0  0  0  0  0  0  0
   32.6480   42.9970   -5.0510 C   0  0  0  0  0  0  0  0  0  0  0  0
   32.3790   43.8590   -6.1570 O   0  0  0  0  0  0  0  0  0  0  0  0
  2  1  1  1
  2  3  1  0
  2  4  1  0
  4  5  1  0
  3  6  1  0
  3  7  1  6
  5  8  1  0
  6  8  1  0
  6  9  1  6
  7 10  1  0
  9 10  1  0
  8 11  1  0
 11 12  1  1
 11 13  1  0
 12 14  1  0
 13 15  2  0
 13 16  1  0
 16 17  1  0
 15 18  1  0
 17 18  2  0
 19 14  1  1
 18 20  1  0
 19 21  1  0
 19 22  1  0
 20 23  1  0
 22 24  1  0
 21 25  1  0
 24 25  1  0
M  END
