mac-x0303-mac-x1494
     RDKit          3D

 19 21  0  0  0  0  0  0  0  0999 V2000
   30.3020   56.4810   -6.9130 N   0  0  0  0  0  0  0  0  0  0  0  0
   29.0010   56.1770   -5.8660 S   0  0  0  0  0  0  0  0  0  0  0  0
   27.8090   56.2560   -6.6790 O   0  0  0  0  0  0  0  0  0  0  0  0
   29.2290   57.0280   -4.7200 O   0  0  0  0  0  0  0  0  0  0  0  0
   29.1530   54.4790   -5.3230 C   0  0  0  0  0  0  0  0  0  0  0  0
   29.2330   54.2210   -4.0450 N   0  0  0  0  0  0  0  0  0  0  0  0
   29.1850   53.3880   -6.2050 N   0  0  0  0  0  0  0  0  0  0  0  0
   29.4260   52.8910   -4.0340 C   0  0  0  0  0  0  0  0  0  0  0  0
   29.3150   52.3920   -5.3870 C   0  0  0  0  0  0  0  0  0  0  0  0
   29.7060   52.1220   -3.0220 C   0  0  0  0  0  0  0  0  0  0  0  0
   29.3620   50.9300   -5.6520 C   0  0  0  0  0  0  0  0  0  0  0  0
   29.0110   50.5240   -6.7490 O   0  0  0  0  0  0  0  0  0  0  0  0
   29.9780   50.7250   -3.2460 C   0  0  0  0  0  0  0  0  0  0  0  0
   29.8400   50.0920   -4.5000 C   0  0  0  0  0  0  0  0  0  0  0  0
   30.1670   48.7260   -4.6070 C   0  0  0  0  0  0  0  0  0  0  0  0
   30.4130   50.0360   -2.1370 C   0  0  0  0  0  0  0  0  0  0  0  0
   30.6170   48.0570   -3.4550 C   0  0  0  0  0  0  0  0  0  0  0  0
   30.7340   48.7070   -2.2360 C   0  0  0  0  0  0  0  0  0  0  0  0
   31.0510   46.4000   -3.4860 Cl  0  0  0  0  0  0  0  0  0  0  0  0
  2  1  1  0
  2  3  2  0
  2  4  2  0
  2  5  1  0
  5  6  2  0
  5  7  1  0
  6  8  1  0
  7  9  2  0
  8  9  1  0
  8 10  2  0
  9 11  1  0
 11 12  2  0
 10 13  1  0
 11 14  1  0
 13 14  2  0
 14 15  1  0
 13 16  1  0
 15 17  2  0
 16 18  2  0
 17 18  1  0
 17 19  1  0
M  END
