mac-x0131-mac-x0284
     RDKit          3D

 20 22  0  0  0  0  0  0  0  0999 V2000
   30.7930   48.9950   -2.3460 C   0  0  0  0  0  0  0  0  0  0  0  0
   30.2430   49.0600   -3.7310 C   0  0  0  0  0  0  0  0  0  0  0  0
   29.7330   50.1600   -4.4190 C   0  0  0  0  0  0  0  0  0  0  0  0
   30.1600   47.9600   -4.5790 N   0  0  0  0  0  0  0  0  0  0  0  0
   29.6180   51.5560   -3.9130 C   0  0  0  0  0  0  0  0  0  0  0  0
   30.5800   46.5800   -4.2870 C   0  0  1  0  0  0  0  0  0  0  0  0
   29.3320   49.7110   -5.7180 C   0  0  0  0  0  0  0  0  0  0  0  0
   29.6080   48.3550   -5.7840 C   0  0  0  0  0  0  0  0  0  0  0  0
   29.7170   45.5330   -4.9610 C   0  0  0  0  0  0  0  0  0  0  0  0
   28.7600   50.2940   -6.8650 C   0  0  0  0  0  0  0  0  0  0  0  0
   29.3780   47.5540   -6.8430 N   0  0  0  0  0  0  0  0  0  0  0  0
   32.0350   46.3800   -4.5920 C   0  0  0  0  0  0  0  0  0  0  0  0
   28.4180   51.6370   -6.9770 N   0  0  0  0  0  0  0  0  0  0  0  0
   29.8270   44.3160   -4.7850 O   0  0  0  0  0  0  0  0  0  0  0  0
   28.5180   49.5230   -7.9420 N   0  0  0  0  0  0  0  0  0  0  0  0
   28.8340   48.2210   -7.8720 C   0  0  0  0  0  0  0  0  0  0  0  0
   32.7390   45.6220   -5.5100 C   0  0  0  0  0  0  0  0  0  0  0  0
   32.9200   47.0840   -3.8160 O   0  0  0  0  0  0  0  0  0  0  0  0
   34.1690   46.7740   -4.2420 C   0  0  0  0  0  0  0  0  0  0  0  0
   34.1140   45.8770   -5.2820 C   0  0  0  0  0  0  0  0  0  0  0  0
  1  2  1  0
  2  3  2  0
  2  4  1  0
  3  5  1  0
  4  6  1  0
  3  7  1  0
  4  8  1  0
  7  8  2  0
  6  9  1  6
  7 10  1  0
  8 11  1  0
  6 12  1  0
 10 13  1  0
  9 14  2  0
 10 15  2  0
 11 16  2  0
 15 16  1  0
 12 17  2  0
 12 18  1  0
 18 19  1  0
 17 20  1  0
 19 20  2  0
M  END
