mac-120_0_A_α-3EW5_0_C_α
     RDKit          3D

 23 23  0  0  0  0  0  0  0  0999 V2000
   -7.0250   14.7970   -1.2980 C   0  0  0  0  0  0  0  0  0  0  0  0
   -5.5490   14.7900   -1.1000 C   0  0  0  0  0  0  0  0  0  0  0  0
   -4.6700   14.8020   -2.1660 C   0  0  0  0  0  0  0  0  0  0  0  0
   -5.0020   14.7730    0.1660 C   0  0  0  0  0  0  0  0  0  0  0  0
   -3.6260   14.7690    0.3450 C   0  0  0  0  0  0  0  0  0  0  0  0
   -3.3080   14.8020   -2.0110 C   0  0  0  0  0  0  0  0  0  0  0  0
   -3.0890   14.7520    1.6600 N   0  0  0  0  0  0  0  0  0  0  0  0
   -2.3770   14.8200   -3.1790 C   0  0  0  0  0  0  0  0  0  0  0  0
   -2.8410   14.7860   -0.7410 N   0  0  0  0  0  0  0  0  0  0  0  0
   -1.7310   16.1930   -3.3110 C   0  0  0  0  0  0  0  0  0  0  0  0
   -1.7910   16.7640   -4.6810 C   0  0  0  0  0  0  0  0  0  0  0  0
   -1.0310   18.0070   -4.9410 C   0  0  0  0  0  0  0  0  0  0  0  0
   -1.8170   19.1440   -5.5380 C   0  0  0  0  0  0  0  0  0  0  0  0
   -1.9810   18.9450   -6.8360 O   0  0  0  0  0  0  0  0  0  0  0  0
   -0.9000   19.4420   -7.7810 P   0  0  0  0  0  0  0  0  0  0  0  0
   -1.8110   20.7420   -8.2730 O   0  0  0  0  0  0  0  0  0  0  0  0
    0.2980   19.6580   -6.7380 O   0  0  0  0  0  0  0  0  0  0  0  0
    0.0280   19.6850   -8.9300 O   0  0  0  0  0  0  0  0  0  0  0  0
   -2.3080   21.5910   -7.3270 C   0  0  0  0  0  0  0  0  0  0  0  0
   -3.7740   21.8570   -7.6330 C   0  0  2  0  0  0  0  0  0  0  0  0
   -3.9920   23.1860   -8.3480 C   0  0  0  0  0  0  0  0  0  0  0  0
   -4.6040   21.8640   -6.5320 O   0  0  0  0  0  0  0  0  0  0  0  0
   -4.5910   22.9940   -9.5750 O   0  0  0  0  0  0  0  0  0  0  0  0
  1  2  1  0
  2  3  2  0
  2  4  1  0
  4  5  2  0
  3  6  1  0
  5  7  1  0
  6  8  1  0
  5  9  1  0
  6  9  2  0
  8 10  1  0
 10 11  1  0
 11 12  1  0
 12 13  1  0
 13 14  1  0
 14 15  1  0
 15 16  1  0
 15 17  1  0
 15 18  1  0
 16 19  1  0
 19 20  1  0
 20 21  1  0
 20 22  1  1
 21 23  1  0
M  CHG  1  18  -1
M  END
