mac-x0347-mac-x0116
     RDKit          3D

 30 34  0  0  0  0  0  0  0  0999 V2000
   30.5860   44.5260   -4.2530 O   0  0  0  0  0  0  0  0  0  0  0  0
   31.1870   45.5690   -4.8470 C   0  0  0  0  0  0  0  0  0  0  0  0
   31.5970   45.4880   -5.9930 O   0  0  0  0  0  0  0  0  0  0  0  0
   31.2760   46.7630   -3.9780 C   0  0  0  0  0  0  0  0  0  0  0  0
   31.0420   48.0460   -4.4480 C   0  0  0  0  0  0  0  0  0  0  0  0
   31.6030   46.6310   -2.6370 C   0  0  0  0  0  0  0  0  0  0  0  0
   31.1320   49.1580   -3.5970 C   0  0  0  0  0  0  0  0  0  0  0  0
   31.7040   47.6820   -1.7730 N   0  0  0  0  0  0  0  0  0  0  0  0
   31.4660   48.9220   -2.2750 C   0  0  0  0  0  0  0  0  0  0  0  0
   30.8470   50.4440   -4.2010 C   0  0  0  0  0  0  0  0  0  0  0  0
   29.8570   50.3420   -5.1040 C   0  0  0  0  0  0  0  0  0  0  0  0
   31.4240   51.7030   -3.9950 C   0  0  0  0  0  0  0  0  0  0  0  0
   29.3750   51.3680   -5.8400 C   0  0  0  0  0  0  0  0  0  0  0  0
   30.9510   52.8040   -4.7430 C   0  0  0  0  0  0  0  0  0  0  0  0
   29.9070   52.6560   -5.6940 C   0  0  0  0  0  0  0  0  0  0  0  0
   28.3500   50.7860   -6.6450 C   0  0  0  0  0  0  0  0  0  0  0  0
   27.0600   51.2100   -6.5370 N   0  0  0  0  0  0  0  0  0  0  0  0
   28.6660   49.7720   -7.4480 C   0  0  0  0  0  0  0  0  0  0  0  0
   29.4710   53.8730   -6.4630 C   0  0  0  0  0  0  0  0  0  0  0  0
   26.0990   50.5250   -7.2080 C   0  0  0  0  0  0  0  0  0  0  0  0
   27.5840   49.1310   -8.1610 C   0  0  0  0  0  0  0  0  0  0  0  0
   29.8160   49.1170   -7.7820 N   0  0  0  0  0  0  0  0  0  0  0  0
   30.6640   54.4190   -7.1560 C   0  0  0  0  0  0  0  0  0  0  0  0
   26.2910   49.5180   -8.0100 N   0  0  0  0  0  0  0  0  0  0  0  0
   28.0460   48.1640   -8.8930 N   0  0  0  0  0  0  0  0  0  0  0  0
   29.4020   48.2090   -8.6200 C   0  0  0  0  0  0  0  0  0  0  0  0
   31.8710   54.0360   -6.6410 O   0  0  0  0  0  0  0  0  0  0  0  0
   30.8570   55.2490   -8.2360 C   0  0  0  0  0  0  0  0  0  0  0  0
   32.2590   55.3780   -8.3880 C   0  0  0  0  0  0  0  0  0  0  0  0
   32.8300   54.6200   -7.3950 C   0  0  0  0  0  0  0  0  0  0  0  0
  1  2  1  0
  2  3  2  0
  2  4  1  0
  4  5  2  0
  4  6  1  0
  5  7  1  0
  6  8  2  0
  7  9  2  0
  8  9  1  0
  7 10  1  0
 10 11  2  0
 10 12  1  0
 11 13  1  0
 12 14  2  0
 13 15  2  0
 14 15  1  0
 13 16  1  0
 16 17  1  0
 16 18  2  0
 15 19  1  0
 17 20  1  0
 18 21  1  0
 18 22  1  0
 19 23  1  0
 20 24  2  0
 21 24  1  0
 21 25  2  0
 22 26  2  0
 25 26  1  0
 23 27  1  0
 23 28  2  0
 28 29  1  0
 27 30  1  0
 29 30  2  0
M  END
