mac-x0302-mac-x0392
     RDKit          3D

 21 22  0  0  0  0  0  0  0  0999 V2000
   30.4860   45.1190   -4.1130 O   0  0  0  0  0  0  0  0  0  0  0  0
   30.9700   46.0230   -4.9910 C   0  0  0  0  0  0  0  0  0  0  0  0
   31.2900   45.6500   -6.1140 O   0  0  0  0  0  0  0  0  0  0  0  0
   31.0840   47.4630   -4.4850 C   0  0  0  0  0  0  0  0  0  0  0  0
   29.9640   48.3810   -4.7740 N   0  0  0  0  0  0  0  0  0  0  0  0
   29.5960   49.2260   -3.7190 C   0  0  0  0  0  0  0  0  0  0  0  0
   29.9120   48.9240   -6.1010 C   0  0  0  0  0  0  0  0  0  0  0  0
   29.6310   48.9060   -2.5280 O   0  0  0  0  0  0  0  0  0  0  0  0
   29.1390   50.5970   -4.0830 C   0  0  0  0  0  0  0  0  0  0  0  0
   29.3100   48.2340   -7.1700 C   0  0  0  0  0  0  0  0  0  0  0  0
   30.4730   50.1850   -6.3280 C   0  0  0  0  0  0  0  0  0  0  0  0
   28.7230   46.9700   -7.0310 N   0  0  0  0  0  0  0  0  0  0  0  0
   29.7450   51.7010   -3.4700 C   0  0  0  0  0  0  0  0  0  0  0  0
   28.1240   50.7900   -5.0300 C   0  0  0  0  0  0  0  0  0  0  0  0
   30.4180   50.7230   -7.6000 C   0  0  0  0  0  0  0  0  0  0  0  0
   29.3190   48.8770   -8.4090 C   0  0  0  0  0  0  0  0  0  0  0  0
   29.3280   52.9830   -3.8140 C   0  0  0  0  0  0  0  0  0  0  0  0
   27.7170   52.0800   -5.3640 C   0  0  0  0  0  0  0  0  0  0  0  0
   29.8530   50.0970   -8.6500 N   0  0  0  0  0  0  0  0  0  0  0  0
   29.8860   54.0940   -3.2470 O   0  0  0  0  0  0  0  0  0  0  0  0
   28.3210   53.1800   -4.7540 C   0  0  0  0  0  0  0  0  0  0  0  0
  1  2  1  0
  2  3  2  0
  2  4  1  0
  4  5  1  0
  5  6  1  0
  5  7  1  0
  6  8  2  0
  6  9  1  0
  7 10  2  0
  7 11  1  0
 10 12  1  0
  9 13  2  0
  9 14  1  0
 11 15  2  0
 10 16  1  0
 13 17  1  0
 14 18  2  0
 15 19  1  0
 16 19  2  0
 17 20  1  0
 17 21  2  0
 18 21  1  0
M  END
