mac-x0415-mac-x0379
     RDKit          3D

 23 25  0  0  0  0  0  0  0  0999 V2000
   33.5720   46.4840   -6.1640 O   0  0  0  0  0  0  0  0  0  0  0  0
   32.4690   45.7450   -5.9290 C   0  0  0  0  0  0  0  0  0  0  0  0
   31.5660   45.7200   -6.7510 O   0  0  0  0  0  0  0  0  0  0  0  0
   32.5010   45.0020   -4.6120 C   0  0  0  0  0  0  0  0  0  0  0  0
   31.1740   44.7530   -3.9900 C   0  0  0  0  0  0  0  0  0  0  0  0
   30.3480   43.5660   -4.2700 C   0  0  0  0  0  0  0  0  0  0  0  0
   30.3940   45.3780   -3.1060 C   0  0  0  0  0  0  0  0  0  0  0  0
   29.2040   43.4310   -3.6570 N   0  0  0  0  0  0  0  0  0  0  0  0
   29.1290   44.6430   -2.8300 C   0  0  1  0  0  0  0  0  0  0  0  0
   30.4950   46.5910   -2.3500 C   0  0  0  0  0  0  0  0  0  0  0  0
   30.9660   47.6870   -2.9190 N   0  0  0  0  0  0  0  0  0  0  0  0
   29.0010   44.4270   -1.3530 C   0  0  0  0  0  0  0  0  0  0  0  0
   30.0480   46.5990   -1.0800 C   0  0  0  0  0  0  0  0  0  0  0  0
   30.1040   48.1210    0.0210 Br  0  0  0  0  0  0  0  0  0  0  0  0
   30.0640   48.2470   -3.6210 C   0  0  0  0  0  0  0  0  0  0  0  0
   29.4610   45.3890   -0.5180 C   0  0  0  0  0  0  0  0  0  0  0  0
   28.9130   47.5440   -3.7180 O   0  0  0  0  0  0  0  0  0  0  0  0
   29.9600   49.4710   -4.3050 C   0  0  0  0  0  0  0  0  0  0  0  0
   30.4990   50.6340   -3.8210 C   0  0  0  0  0  0  0  0  0  0  0  0
   29.1620   49.7790   -5.7840 S   0  0  0  0  0  0  0  0  0  0  0  0
   29.6000   51.4330   -5.6340 C   0  0  0  0  0  0  0  0  0  0  0  0
   30.2970   51.7540   -4.5740 N   0  0  0  0  0  0  0  0  0  0  0  0
   29.1890   52.4140   -6.6650 C   0  0  0  0  0  0  0  0  0  0  0  0
  1  2  1  0
  2  3  2  0
  2  4  1  0
  4  5  1  0
  5  6  1  0
  5  7  2  0
  6  8  2  0
  7  9  1  0
  8  9  1  0
  7 10  1  0
 10 11  1  0
  9 12  1  1
 10 13  2  0
 13 14  1  0
 11 15  2  3
 12 16  2  0
 13 16  1  0
 15 17  1  0
 15 18  1  0
 18 19  2  0
 18 20  1  0
 20 21  1  0
 19 22  1  0
 21 22  2  0
 21 23  1  0
M  END
