mac-x0415-mac-x0303
     RDKit          3D

 29 32  0  0  0  0  0  0  0  0999 V2000
   33.6890   46.6030   -5.9340 O   0  0  0  0  0  0  0  0  0  0  0  0
   32.5610   45.8700   -5.8010 C   0  0  0  0  0  0  0  0  0  0  0  0
   31.6660   45.9090   -6.6370 O   0  0  0  0  0  0  0  0  0  0  0  0
   32.4980   45.0090   -4.5500 C   0  0  0  0  0  0  0  0  0  0  0  0
   31.1430   45.0190   -3.9670 C   0  0  0  0  0  0  0  0  0  0  0  0
   30.1220   43.9740   -4.1540 C   0  0  0  0  0  0  0  0  0  0  0  0
   30.4980   45.8590   -3.1630 C   0  0  0  0  0  0  0  0  0  0  0  0
   28.9680   44.1220   -3.5650 N   0  0  0  0  0  0  0  0  0  0  0  0
   29.0900   45.4340   -2.9030 C   0  0  1  0  0  0  0  0  0  0  0  0
   30.9330   47.0820   -2.5410 C   0  0  0  0  0  0  0  0  0  0  0  0
   28.7680   45.5400   -1.4520 C   0  0  0  0  0  0  0  0  0  0  0  0
   30.3880   47.3870   -1.3380 C   0  0  0  0  0  0  0  0  0  0  0  0
   30.6470   48.4990   -0.5820 O   0  0  0  0  0  0  0  0  0  0  0  0
   29.4010   46.4900   -0.7260 C   0  0  0  0  0  0  0  0  0  0  0  0
   30.1270   49.6880   -1.1430 C   0  0  0  0  0  0  0  0  0  0  0  0
   29.3160   49.2520   -2.3650 C   0  0  0  0  0  0  0  0  0  0  0  0
   29.2760   50.2910   -3.4400 C   0  0  0  0  0  0  0  0  0  0  0  0
   29.3520   51.6380   -3.0720 C   0  0  0  0  0  0  0  0  0  0  0  0
   29.1590   49.9160   -4.7870 C   0  0  0  0  0  0  0  0  0  0  0  0
   29.2950   52.5700   -4.0960 C   0  0  0  0  0  0  0  0  0  0  0  0
   29.1090   50.8770   -5.8010 C   0  0  0  0  0  0  0  0  0  0  0  0
   29.3320   53.9310   -4.0900 N   0  0  0  0  0  0  0  0  0  0  0  0
   29.1760   52.2290   -5.4360 C   0  0  0  0  0  0  0  0  0  0  0  0
   29.2320   54.3670   -5.3800 C   0  0  0  0  0  0  0  0  0  0  0  0
   29.1400   53.3490   -6.2200 N   0  0  0  0  0  0  0  0  0  0  0  0
   29.2290   56.0770   -5.7760 S   0  0  0  0  0  0  0  0  0  0  0  0
   30.5520   56.3390   -6.8030 N   0  0  0  0  0  0  0  0  0  0  0  0
   28.0580   56.3080   -6.5860 O   0  0  0  0  0  0  0  0  0  0  0  0
   29.5260   56.8120   -4.5710 O   0  0  0  0  0  0  0  0  0  0  0  0
  1  2  1  0
  2  3  2  0
  2  4  1  0
  4  5  1  0
  5  6  1  0
  5  7  2  0
  6  8  2  0
  7  9  1  0
  8  9  1  0
  7 10  1  0
  9 11  1  1
 10 12  2  0
 12 13  1  0
 11 14  2  0
 12 14  1  0
 13 15  1  0
 15 16  1  0
 16 17  1  0
 17 18  2  0
 17 19  1  0
 18 20  1  0
 19 21  2  0
 20 22  1  0
 20 23  2  0
 21 23  1  0
 22 24  1  0
 23 25  1  0
 24 25  2  0
 24 26  1  0
 26 27  1  0
 26 28  2  0
 26 29  2  0
M  END
