mac-x0301-mac-x0116
     RDKit          3D

 19 21  0  0  0  0  0  0  0  0999 V2000
   29.7750   46.0490   -3.9830 O   0  0  0  0  0  0  0  0  0  0  0  0
   30.6740   47.0000   -4.2780 C   0  0  0  0  0  0  0  0  0  0  0  0
   31.8520   46.8520   -3.9960 O   0  0  0  0  0  0  0  0  0  0  0  0
   30.1060   48.1940   -4.9490 C   0  0  0  0  0  0  0  0  0  0  0  0
   29.5770   48.2070   -6.2280 C   0  0  0  0  0  0  0  0  0  0  0  0
   30.1050   49.4050   -4.2350 C   0  0  0  0  0  0  0  0  0  0  0  0
   29.0680   49.3760   -6.7700 C   0  0  0  0  0  0  0  0  0  0  0  0
   29.5820   50.5860   -4.8020 C   0  0  0  0  0  0  0  0  0  0  0  0
   29.4710   47.1690   -7.1020 O   0  0  0  0  0  0  0  0  0  0  0  0
   29.0480   50.5940   -6.0940 C   0  0  0  0  0  0  0  0  0  0  0  0
   28.5890   49.1950   -8.0410 O   0  0  0  0  0  0  0  0  0  0  0  0
   28.9110   47.8100   -8.2590 C   0  0  0  0  0  0  0  0  0  0  0  0
   28.5160   51.7260   -6.7150 N   0  0  0  0  0  0  0  0  0  0  0  0
   28.9540   53.0660   -6.3260 C   0  0  0  0  0  0  0  0  0  0  0  0
   30.3400   53.4510   -6.7160 C   0  0  0  0  0  0  0  0  0  0  0  0
   31.2370   53.5950   -5.6930 O   0  0  0  0  0  0  0  0  0  0  0  0
   30.9630   53.7100   -7.9200 C   0  0  0  0  0  0  0  0  0  0  0  0
   32.3080   54.0270   -7.6180 C   0  0  0  0  0  0  0  0  0  0  0  0
   32.4240   53.9430   -6.2510 C   0  0  0  0  0  0  0  0  0  0  0  0
  1  2  1  0
  2  3  2  0
  2  4  1  0
  4  5  2  0
  4  6  1  0
  5  7  1  0
  6  8  2  0
  5  9  1  0
  7 10  2  0
  8 10  1  0
  7 11  1  0
  9 12  1  0
 11 12  1  0
 10 13  1  0
 13 14  1  0
 14 15  1  0
 15 16  1  0
 15 17  2  0
 17 18  1  0
 16 19  1  0
 18 19  2  0
M  END
