mac-x0436-mac-x0137
     RDKit          3D

 31 35  0  0  0  0  0  0  0  0999 V2000
   33.8300   44.6620   -7.6110 O   0  0  0  0  0  0  0  0  0  0  0  0
   32.9630   43.9940   -6.8260 C   0  0  0  0  0  0  0  0  0  0  0  0
   31.8680   43.6690   -7.2570 O   0  0  0  0  0  0  0  0  0  0  0  0
   33.5010   43.7210   -5.4500 C   0  0  0  0  0  0  0  0  0  0  0  0
   32.8670   44.6470   -4.4150 C   0  0  0  0  0  0  0  0  0  0  0  0
   33.8840   45.6210   -3.8370 C   0  0  0  0  0  0  0  0  0  0  0  0
   33.5770   47.1270   -3.7490 C   0  0  0  0  0  0  0  0  0  0  0  0
   35.0070   45.0870   -3.4420 N   0  0  0  0  0  0  0  0  0  0  0  0
   34.7540   47.8880   -3.7480 N   0  0  0  0  0  0  0  0  0  0  0  0
   35.9850   45.9500   -2.9180 C   0  0  0  0  0  0  0  0  0  0  0  0
   32.3440   47.7010   -3.6790 C   0  0  0  0  0  0  0  0  0  0  0  0
   35.8750   47.3470   -3.0630 C   0  0  0  0  0  0  0  0  0  0  0  0
   37.0800   45.4040   -2.2470 C   0  0  0  0  0  0  0  0  0  0  0  0
   31.9610   49.1640   -3.6000 C   0  0  1  0  0  0  0  0  0  0  0  0
   31.0650   46.8620   -3.6700 C   0  0  0  0  0  0  0  0  0  0  0  0
   32.7890   49.9930   -4.2780 F   0  0  0  0  0  0  0  0  0  0  0  0
   38.0670   46.2390   -1.7190 C   0  0  0  0  0  0  0  0  0  0  0  0
   36.8680   48.1780   -2.5320 C   0  0  0  0  0  0  0  0  0  0  0  0
   30.4990   49.4060   -4.0460 C   0  0  0  0  0  0  0  0  0  0  0  0
   30.1710   47.0970   -4.9000 C   0  0  0  0  0  0  0  0  0  0  0  0
   37.9620   47.6220   -1.8620 C   0  0  0  0  0  0  0  0  0  0  0  0
   30.0480   48.5390   -5.1720 N   0  0  0  0  0  0  0  0  0  0  0  0
   29.2670   49.0390   -6.2200 C   0  0  0  0  0  0  0  0  0  0  0  0
   29.1380   48.3190   -7.3960 N   0  0  0  0  0  0  0  0  0  0  0  0
   28.5930   50.2070   -6.2000 C   0  0  0  0  0  0  0  0  0  0  0  0
   28.3870   48.7550   -8.4520 C   0  0  0  0  0  0  0  0  0  0  0  0
   27.7960   50.6230   -7.3850 C   0  0  0  0  0  0  0  0  0  0  0  0
   28.3860   51.2880   -5.2860 C   0  0  0  0  0  0  0  0  0  0  0  0
   27.7160   49.8550   -8.5110 N   0  0  0  0  0  0  0  0  0  0  0  0
   27.2060   51.7750   -7.2120 N   0  0  0  0  0  0  0  0  0  0  0  0
   27.5830   52.1540   -5.9300 C   0  0  0  0  0  0  0  0  0  0  0  0
  1  2  1  0
  2  3  2  0
  2  4  1  0
  4  5  1  0
  5  6  1  0
  6  7  1  0
  6  8  2  0
  7  9  1  0
  8 10  1  0
  7 11  2  3
  9 12  1  0
 10 12  2  0
 10 13  1  0
 11 14  1  0
 11 15  1  0
 14 16  1  6
 13 17  2  0
 12 18  1  0
 14 19  1  0
 15 20  1  0
 17 21  1  0
 18 21  2  0
 19 22  1  0
 20 22  1  0
 22 23  1  0
 23 24  1  0
 23 25  2  0
 24 26  1  0
 25 27  1  0
 25 28  1  0
 26 29  2  0
 27 29  1  0
 27 30  2  0
 28 31  2  0
 30 31  1  0
M  END
