mac-x0319-mac-x0206
     RDKit          3D

 24 25  0  0  0  0  0  0  0  0999 V2000
   34.1610   45.7870   -6.9330 O   0  0  0  0  0  0  0  0  0  0  0  0
   32.9460   45.7240   -6.3620 C   0  0  0  0  0  0  0  0  0  0  0  0
   32.0000   46.3370   -6.9890 N   0  0  0  0  0  0  0  0  0  0  0  0
   32.8680   44.9450   -5.0640 C   0  0  0  0  0  0  0  0  0  0  0  0
   30.6200   46.3800   -6.5010 C   0  0  0  0  0  0  0  0  0  0  0  0
   31.7010   45.3060   -4.1840 C   0  0  0  0  0  0  0  0  0  0  0  0
   29.9700   47.7270   -6.8390 C   0  0  0  0  0  0  0  0  0  0  0  0
   30.5880   44.4570   -4.1200 C   0  0  0  0  0  0  0  0  0  0  0  0
   31.7160   46.4860   -3.4300 C   0  0  0  0  0  0  0  0  0  0  0  0
   30.4270   48.8430   -5.8980 C   0  0  0  0  0  0  0  0  0  0  0  0
   29.5120   44.7980   -3.3110 C   0  0  0  0  0  0  0  0  0  0  0  0
   30.6280   46.8170   -2.6210 C   0  0  0  0  0  0  0  0  0  0  0  0
   28.4140   43.9940   -3.2280 O   0  0  0  0  0  0  0  0  0  0  0  0
   29.4380   49.8990   -5.7490 N   0  0  0  0  0  0  0  0  0  0  0  0
   29.5220   45.9680   -2.5630 C   0  0  0  0  0  0  0  0  0  0  0  0
   29.5160   50.8410   -4.7440 C   0  0  0  0  0  0  0  0  0  0  0  0
   29.7260   50.5310   -3.5750 O   0  0  0  0  0  0  0  0  0  0  0  0
   29.3500   52.2900   -5.1010 C   0  0  0  0  0  0  0  0  0  0  0  0
   29.7550   53.3450   -4.2680 C   0  0  0  0  0  0  0  0  0  0  0  0
   28.7560   52.6120   -6.3360 C   0  0  0  0  0  0  0  0  0  0  0  0
   30.3380   53.0900   -3.0530 O   0  0  0  0  0  0  0  0  0  0  0  0
   29.5770   54.6770   -4.6510 C   0  0  0  0  0  0  0  0  0  0  0  0
   28.5770   53.9450   -6.7200 C   0  0  0  0  0  0  0  0  0  0  0  0
   28.9870   54.9770   -5.8780 C   0  0  0  0  0  0  0  0  0  0  0  0
  1  2  1  0
  2  3  2  3
  2  4  1  0
  3  5  1  0
  4  6  1  0
  5  7  1  0
  6  8  2  0
  6  9  1  0
  7 10  1  0
  8 11  1  0
  9 12  2  0
 11 13  1  0
 10 14  1  0
 11 15  2  0
 12 15  1  0
 14 16  1  0
 16 17  2  0
 16 18  1  0
 18 19  2  0
 18 20  1  0
 19 21  1  0
 19 22  1  0
 20 23  2  0
 22 24  2  0
 23 24  1  0
M  END
