mac-x0402-mac-x0346
     RDKit          3D

 16 17  0  0  0  0  0  0  0  0999 V2000
   32.0030   48.1250   -4.9700 Cl  0  0  0  0  0  0  0  0  0  0  0  0
   30.4500   48.9020   -4.5540 C   0  0  1  0  0  0  0  0  0  0  0  0
   30.6790   49.9470   -3.5050 C   0  0  0  0  0  0  0  0  0  0  0  0
   29.8110   49.4930   -5.8140 C   0  0  0  0  0  0  0  0  0  0  0  0
   28.6060   50.3840   -5.5060 C   0  0  1  0  0  0  0  0  0  0  0  0
   29.9840   51.0940   -3.4570 C   0  0  0  0  0  0  0  0  0  0  0  0
   28.8940   51.4750   -4.4400 C   0  0  2  0  0  0  0  0  0  0  0  0
   27.9970   51.2780   -6.9650 S   0  0  0  0  0  0  0  0  0  0  0  0
   27.7000   51.6720   -3.6990 O   0  0  0  0  0  0  0  0  0  0  0  0
   28.6390   52.8590   -6.4210 C   0  0  1  0  0  0  0  0  0  0  0  0
   29.2290   52.7200   -5.1200 N   0  0  0  0  0  0  0  0  0  0  0  0
   29.6750   53.2570   -7.3510 N   0  0  0  0  0  0  0  0  0  0  0  0
   29.6400   53.8210   -4.3890 C   0  0  0  0  0  0  0  0  0  0  0  0
   29.8900   54.9630   -5.1120 N   0  0  0  0  0  0  0  0  0  0  0  0
   29.7810   53.8040   -3.1660 O   0  0  0  0  0  0  0  0  0  0  0  0
   29.9640   56.1490   -4.3280 O   0  0  0  0  0  0  0  0  0  0  0  0
  2  1  1  6
  2  3  1  0
  2  4  1  0
  5  4  1  6
  3  6  2  0
  5  7  1  0
  6  7  1  0
  5  8  1  0
  7  9  1  1
  8 10  1  0
  7 11  1  0
 10 11  1  0
 10 12  1  6
 11 13  1  0
 13 14  1  0
 13 15  2  0
 14 16  1  0
M  END
