mac-x0348-mac-x0123
     RDKit          3D

 30 34  0  0  0  0  0  0  0  0999 V2000
   27.3530   44.3400   -0.7620 C   0  0  0  0  0  0  0  0  0  0  0  0
   28.3180   45.1650   -1.4500 N   0  0  0  0  0  0  0  0  0  0  0  0
   28.7150   44.9640   -2.7400 C   0  0  0  0  0  0  0  0  0  0  0  0
   28.9630   46.2560   -0.9080 C   0  0  0  0  0  0  0  0  0  0  0  0
   29.6370   45.9340   -3.0740 C   0  0  0  0  0  0  0  0  0  0  0  0
   29.8070   46.7580   -1.9020 C   0  0  0  0  0  0  0  0  0  0  0  0
   28.8770   46.8440    0.3660 C   0  0  0  0  0  0  0  0  0  0  0  0
   30.3190   46.0950   -4.4230 C   0  0  2  0  0  0  0  0  0  0  0  0
   30.5960   47.8930   -1.5920 C   0  0  0  0  0  0  0  0  0  0  0  0
   29.6670   47.9650    0.6350 C   0  0  0  0  0  0  0  0  0  0  0  0
   31.7960   45.6840   -4.4740 C   0  0  0  0  0  0  0  0  0  0  0  0
   30.1050   47.5670   -4.8290 C   0  0  0  0  0  0  0  0  0  0  0  0
   30.5180   48.4840   -0.3310 C   0  0  0  0  0  0  0  0  0  0  0  0
   32.3400   45.9960   -5.8440 C   0  0  0  0  0  0  0  0  0  0  0  0
   30.2100   48.5610   -3.6790 C   0  0  0  0  0  0  0  0  0  0  0  0
   31.7460   45.8680   -6.9040 O   0  0  0  0  0  0  0  0  0  0  0  0
   33.6020   46.4610   -5.8220 O   0  0  0  0  0  0  0  0  0  0  0  0
   29.9710   49.9530   -4.0590 C   0  0  0  0  0  0  0  0  0  0  0  0
   30.2770   51.0130   -3.2560 N   0  0  0  0  0  0  0  0  0  0  0  0
   29.4330   50.2300   -5.2350 N   0  0  0  0  0  0  0  0  0  0  0  0
   29.3880   51.5750   -5.1940 N   0  0  0  0  0  0  0  0  0  0  0  0
   29.9070   52.0450   -3.9760 C   0  0  0  0  0  0  0  0  0  0  0  0
   28.9050   52.4330   -6.1970 C   0  0  0  0  0  0  0  0  0  0  0  0
   29.9750   53.3800   -3.6860 N   0  0  0  0  0  0  0  0  0  0  0  0
   28.4100   51.8690   -7.3680 N   0  0  0  0  0  0  0  0  0  0  0  0
   29.5290   54.1540   -4.6230 C   0  0  0  0  0  0  0  0  0  0  0  0
   28.9640   53.7380   -5.9400 C   0  0  0  0  0  0  0  0  0  0  0  0
   28.5810   54.9570   -6.6930 C   0  0  0  0  0  0  0  0  0  0  0  0
   29.5110   55.6470   -4.5260 C   0  0  0  0  0  0  0  0  0  0  0  0
   29.4050   56.0470   -6.0020 C   0  0  0  0  0  0  0  0  0  0  0  0
  1  2  1  0
  2  3  1  0
  2  4  1  0
  3  5  2  0
  4  6  2  0
  5  6  1  0
  4  7  1  0
  5  8  1  0
  6  9  1  0
  7 10  2  0
  8 11  1  1
  8 12  1  0
  9 13  2  0
 10 13  1  0
 11 14  1  0
 12 15  1  0
 14 16  2  0
 14 17  1  0
 15 18  1  0
 18 19  1  0
 18 20  2  0
 20 21  1  0
 19 22  2  0
 21 22  1  0
 21 23  1  0
 22 24  1  0
 23 25  1  0
 24 26  2  0
 23 27  2  0
 26 27  1  0
 27 28  1  0
 26 29  1  0
 28 30  1  0
 29 30  1  0
M  END
