mac-x0115-mac-x0282
     RDKit          3D

 21 23  0  0  0  0  0  0  0  0999 V2000
   27.9600   45.7850   -1.7870 C   0  0  0  0  0  0  0  0  0  0  0  0
   28.8780   44.6410   -2.2010 C   0  0  0  0  0  0  0  0  0  0  0  0
   28.0890   43.5730   -2.9520 C   0  0  0  0  0  0  0  0  0  0  0  0
   29.8970   45.2190   -3.0150 O   0  0  0  0  0  0  0  0  0  0  0  0
   30.3220   44.4450   -4.1330 C   0  0  0  0  0  0  0  0  0  0  0  0
   31.1640   45.3380   -5.0600 C   0  0  0  0  0  0  0  0  0  0  0  0
   30.3860   45.8970   -6.1970 N   0  0  0  0  0  0  0  0  0  0  0  0
   30.1760   45.0960   -7.3400 C   0  0  0  0  0  0  0  0  0  0  0  0
   29.9710   47.2530   -6.2100 C   0  0  0  0  0  0  0  0  0  0  0  0
   30.5230   43.4690   -7.5460 S   0  0  0  0  0  0  0  0  0  0  0  0
   29.6180   45.7030   -8.4360 N   0  0  0  0  0  0  0  0  0  0  0  0
   29.4250   47.7980   -7.3260 C   0  0  0  0  0  0  0  0  0  0  0  0
   30.0790   48.1900   -5.0600 C   0  0  0  0  0  0  0  0  0  0  0  0
   29.2540   46.9990   -8.5350 C   0  0  0  0  0  0  0  0  0  0  0  0
   28.9900   49.0920   -7.4500 N   0  0  0  0  0  0  0  0  0  0  0  0
   29.6340   49.4570   -5.2320 C   0  0  0  0  0  0  0  0  0  0  0  0
   28.8040   47.5040   -9.5600 O   0  0  0  0  0  0  0  0  0  0  0  0
   29.0700   49.9490   -6.4470 C   0  0  0  0  0  0  0  0  0  0  0  0
   29.5530   50.6440   -4.4070 C   0  0  0  0  0  0  0  0  0  0  0  0
   28.7490   51.2170   -6.2650 C   0  0  0  0  0  0  0  0  0  0  0  0
   29.0320   51.6770   -5.0180 N   0  0  0  0  0  0  0  0  0  0  0  0
  1  2  1  0
  2  3  1  0
  2  4  1  0
  4  5  1  0
  5  6  1  0
  6  7  1  0
  7  8  1  0
  7  9  1  0
  8 10  2  0
  8 11  1  0
  9 12  2  0
  9 13  1  0
 11 14  1  0
 12 14  1  0
 12 15  1  0
 13 16  2  0
 14 17  2  0
 15 18  1  0
 16 18  1  0
 16 19  1  0
 18 20  2  0
 19 21  2  0
 20 21  1  0
M  END
