mac-x0451-mac-x0394
     RDKit          3D

 22 24  0  0  0  0  0  0  0  0999 V2000
   28.6690   53.4550   -7.6880 N   0  0  0  0  0  0  0  0  0  0  0  0
   27.3450   53.6400   -7.9310 C   0  0  0  0  0  0  0  0  0  0  0  0
   27.0030   54.6960   -8.4670 O   0  0  0  0  0  0  0  0  0  0  0  0
   29.1440   52.4110   -6.9720 C   0  0  0  0  0  0  0  0  0  0  0  0
   26.3490   52.5460   -7.5490 C   0  0  0  0  0  0  0  0  0  0  0  0
   29.7170   52.4070   -5.8020 N   0  0  0  0  0  0  0  0  0  0  0  0
   28.9280   50.9120   -7.7450 S   0  0  0  0  0  0  0  0  0  0  0  0
   30.0150   51.1020   -5.4530 C   0  0  0  0  0  0  0  0  0  0  0  0
   29.6550   50.1340   -6.3960 C   0  0  0  0  0  0  0  0  0  0  0  0
   26.0000   52.4650   -6.0720 C   0  0  0  0  0  0  0  0  0  0  0  0
   30.6310   50.6890   -4.2570 C   0  0  0  0  0  0  0  0  0  0  0  0
   29.8890   48.7680   -6.1890 C   0  0  0  0  0  0  0  0  0  0  0  0
   26.2320   53.5410   -5.2000 C   0  0  0  0  0  0  0  0  0  0  0  0
   25.4270   51.2910   -5.5600 C   0  0  0  0  0  0  0  0  0  0  0  0
   30.8690   49.3310   -4.0370 C   0  0  0  0  0  0  0  0  0  0  0  0
   30.5000   48.3970   -4.9950 C   0  0  0  0  0  0  0  0  0  0  0  0
   25.8940   53.4340   -3.8470 C   0  0  0  0  0  0  0  0  0  0  0  0
   25.0950   51.2010   -4.2070 C   0  0  0  0  0  0  0  0  0  0  0  0
   30.7370   47.0970   -4.7680 F   0  0  0  0  0  0  0  0  0  0  0  0
   24.3910   49.7500   -3.6040 Cl  0  0  0  0  0  0  0  0  0  0  0  0
   26.1820   54.7630   -2.7850 Cl  0  0  0  0  0  0  0  0  0  0  0  0
   25.3260   52.2690   -3.3440 C   0  0  0  0  0  0  0  0  0  0  0  0
  1  2  1  0
  2  3  2  0
  1  4  1  0
  2  5  1  0
  4  6  2  0
  4  7  1  0
  6  8  1  0
  7  9  1  0
  8  9  2  0
  5 10  1  0
  8 11  1  0
  9 12  1  0
 10 13  2  0
 10 14  1  0
 11 15  2  0
 12 16  2  0
 15 16  1  0
 13 17  1  0
 14 18  2  0
 16 19  1  0
 18 20  1  0
 17 21  1  0
 17 22  2  0
 18 22  1  0
M  END
