mac-x0178-mac-x0305
     RDKit          3D

 21 22  0  0  0  0  0  0  0  0999 V2000
   28.4720   44.9510   -0.3650 N   0  0  0  0  0  0  0  0  0  0  0  0
   28.6810   46.5820   -0.7240 S   0  0  0  0  0  0  0  0  0  0  0  0
   29.4800   47.1720    0.3220 O   0  0  0  0  0  0  0  0  0  0  0  0
   27.3710   47.0770   -1.0760 O   0  0  0  0  0  0  0  0  0  0  0  0
   29.6670   46.5010   -2.2000 C   0  0  0  0  0  0  0  0  0  0  0  0
   29.2210   45.7340   -3.2820 C   0  0  0  0  0  0  0  0  0  0  0  0
   30.8780   47.2000   -2.2670 C   0  0  0  0  0  0  0  0  0  0  0  0
   29.9930   45.6640   -4.4440 C   0  0  0  0  0  0  0  0  0  0  0  0
   31.6490   47.1280   -3.4310 C   0  0  0  0  0  0  0  0  0  0  0  0
   31.2050   46.3610   -4.5160 C   0  0  0  0  0  0  0  0  0  0  0  0
   32.0280   46.2980   -5.7270 C   0  0  0  0  0  0  0  0  0  0  0  0
   31.8270   46.6760   -6.9320 N   0  0  0  0  0  0  0  0  0  0  0  0
   33.2080   45.7190   -5.4490 O   0  0  0  0  0  0  0  0  0  0  0  0
   30.5520   47.3110   -7.2960 C   0  0  0  0  0  0  0  0  0  0  0  0
   30.0990   48.4660   -6.4150 C   0  0  0  0  0  0  0  0  0  0  0  0
   28.7630   48.8850   -6.4140 C   0  0  0  0  0  0  0  0  0  0  0  0
   31.0340   49.0750   -5.6320 N   0  0  0  0  0  0  0  0  0  0  0  0
   27.7690   48.3310   -7.1690 O   0  0  0  0  0  0  0  0  0  0  0  0
   28.3860   49.9420   -5.5920 C   0  0  0  0  0  0  0  0  0  0  0  0
   30.6350   50.0970   -4.8470 C   0  0  0  0  0  0  0  0  0  0  0  0
   29.3350   50.5630   -4.7920 C   0  0  0  0  0  0  0  0  0  0  0  0
  2  1  1  0
  2  3  2  0
  2  4  2  0
  2  5  1  0
  5  6  2  0
  5  7  1  0
  6  8  1  0
  7  9  2  0
  8 10  2  0
  9 10  1  0
 10 11  1  0
 11 12  2  3
 11 13  1  0
 12 14  1  0
 14 15  1  0
 15 16  2  0
 15 17  1  0
 16 18  1  0
 16 19  1  0
 17 20  2  0
 19 21  2  0
 20 21  1  0
M  END
