mac-x0161-mac-x0361
     RDKit          3D

 20 22  0  0  0  0  0  0  0  0999 V2000
   28.3920   52.5220   -5.7610 N   0  0  0  0  0  0  0  0  0  0  0  0
   28.9990   53.7290   -5.4850 C   0  0  0  0  0  0  0  0  0  0  0  0
   29.5780   54.0520   -4.4560 O   0  0  0  0  0  0  0  0  0  0  0  0
   29.0250   51.2930   -5.3490 C   0  0  1  0  0  0  0  0  0  0  0  0
   28.3870   50.9410   -4.1030 N   0  0  0  0  0  0  0  0  0  0  0  0
   28.9790   50.1490   -6.3860 C   0  0  1  0  0  0  0  0  0  0  0  0
   29.0750   49.8410   -3.4830 C   0  0  0  0  0  0  0  0  0  0  0  0
   29.5120   48.8700   -5.7100 C   0  0  1  0  0  0  0  0  0  0  0  0
   27.7360   49.6830   -6.9870 N   0  0  0  0  0  0  0  0  0  0  0  0
   29.0860   48.6560   -4.3280 N   0  0  0  0  0  0  0  0  0  0  0  0
   29.0200   47.8000   -6.5870 N   0  0  0  0  0  0  0  0  0  0  0  0
   28.1810   48.4460   -7.5920 C   0  0  0  0  0  0  0  0  0  0  0  0
   29.7290   47.4990   -3.6950 C   0  0  0  0  0  0  0  0  0  0  0  0
   31.2140   47.3970   -3.8340 C   0  0  0  0  0  0  0  0  0  0  0  0
   32.2880   47.6170   -3.0050 C   0  0  0  0  0  0  0  0  0  0  0  0
   31.6740   46.9900   -5.0530 O   0  0  0  0  0  0  0  0  0  0  0  0
   33.0600   46.9370   -5.0350 N   0  0  0  0  0  0  0  0  0  0  0  0
   33.4040   47.3160   -3.8050 C   0  0  0  0  0  0  0  0  0  0  0  0
   34.7000   47.3830   -3.4230 O   0  0  0  0  0  0  0  0  0  0  0  0
   34.9190   48.0030   -2.1610 C   0  0  0  0  0  0  0  0  0  0  0  0
  1  2  1  0
  2  3  2  0
  4  1  1  6
  4  5  1  0
  4  6  1  0
  5  7  1  0
  6  8  1  0
  6  9  1  1
  7 10  1  0
  8 10  1  0
  8 11  1  6
  9 12  1  0
 11 12  1  0
 10 13  1  0
 13 14  1  0
 14 15  2  0
 14 16  1  0
 16 17  1  0
 15 18  1  0
 17 18  2  0
 18 19  1  0
 19 20  1  0
M  END
