mac-x0568-mac-x0555
     RDKit          3D

 14 15  0  0  0  0  0  0  0  0999 V2000
   30.3800   55.4540   -5.5220 C   0  0  0  0  0  0  0  0  0  0  0  0
   29.7820   54.0850   -5.3150 C   0  0  0  0  0  0  0  0  0  0  0  0
   29.1290   53.4610   -6.5080 C   0  0  0  0  0  0  0  0  0  0  0  0
   29.8780   53.5690   -4.1320 N   0  0  0  0  0  0  0  0  0  0  0  0
   29.2500   52.2470   -3.9740 C   0  0  1  0  0  0  0  0  0  0  0  0
   28.8130   52.1540   -6.4590 C   0  0  0  0  0  0  0  0  0  0  0  0
   29.1000   51.3260   -5.2230 C   0  0  1  0  0  0  0  0  0  0  0  0
   29.8110   51.4000   -2.8740 C   0  0  0  0  0  0  0  0  0  0  0  0
   30.2970   50.3650   -5.4780 C   0  0  0  0  0  0  0  0  0  0  0  0
   29.2320   50.1940   -2.7120 C   0  0  0  0  0  0  0  0  0  0  0  0
   28.0220   50.3540   -4.8180 C   0  0  0  0  0  0  0  0  0  0  0  0
   31.2410   50.1850   -4.7190 O   0  0  0  0  0  0  0  0  0  0  0  0
   30.2480   49.6380   -6.6460 N   0  0  0  0  0  0  0  0  0  0  0  0
   28.1230   49.8140   -3.5880 C   0  0  0  0  0  0  0  0  0  0  0  0
  1  2  1  0
  2  3  1  0
  2  4  2  0
  4  5  1  0
  3  6  2  0
  5  7  1  0
  6  7  1  0
  5  8  1  1
  7  9  1  6
  8 10  2  0
  7 11  1  0
  9 12  2  0
  9 13  1  0
 10 14  1  0
 11 14  2  0
M  END
