mac-x0345-mac-x0453
     RDKit          3D

 10 10  0  0  0  0  0  0  0  0999 V2000
   29.3560   54.6570   -5.0950 C   0  0  0  0  0  0  0  0  0  0  0  0
   30.1030   54.9580   -6.3220 N   0  0  0  0  0  0  0  0  0  0  0  0
   29.2810   53.1710   -4.8070 C   0  0  0  0  0  0  0  0  0  0  0  0
   28.7240   52.2470   -5.6960 C   0  0  0  0  0  0  0  0  0  0  0  0
   29.7980   52.7910   -3.6020 N   0  0  0  0  0  0  0  0  0  0  0  0
   27.9930   52.7160   -7.3790 Br  0  0  0  0  0  0  0  0  0  0  0  0
   28.7090   50.9020   -5.3310 C   0  0  0  0  0  0  0  0  0  0  0  0
   29.7690   51.4890   -3.2720 C   0  0  0  0  0  0  0  0  0  0  0  0
   30.3060   51.1480   -2.0350 N   0  0  0  0  0  0  0  0  0  0  0  0
   29.2350   50.5170   -4.1030 C   0  0  0  0  0  0  0  0  0  0  0  0
  1  2  1  0
  1  3  1  0
  3  4  2  0
  3  5  1  0
  4  6  1  0
  4  7  1  0
  5  8  2  0
  8  9  1  0
  7 10  2  0
  8 10  1  0
M  END
