mac-x0584-mac-x0402
     RDKit          3D

 23 27  0  0  0  0  0  0  0  0999 V2000
   30.9120   50.4180   -3.3090 Cl  0  0  0  0  0  0  0  0  0  0  0  0
   29.7090   50.2640   -4.6210 C   0  0  2  0  0  0  0  0  0  0  0  0
   30.1850   49.3940   -5.7910 C   0  0  2  0  0  0  0  0  0  0  0  0
   29.4790   51.6290   -5.2830 C   0  0  1  0  0  0  0  0  0  0  0  0
   29.3870   49.9750   -6.9730 C   0  0  2  0  0  0  0  0  0  0  0  0
   29.9530   47.8720   -5.7520 C   0  0  1  0  0  0  0  0  0  0  0  0
   29.4810   51.4130   -6.7410 N   0  0  0  0  0  0  0  0  0  0  0  0
   28.1290   52.2710   -5.0290 C   0  0  0  0  0  0  0  0  0  0  0  0
   30.5780   47.2040   -4.6340 N   0  0  0  0  0  0  0  0  0  0  0  0
   28.5360   47.5460   -5.8300 N   0  0  0  0  0  0  0  0  0  0  0  0
   28.0110   49.4840   -6.9940 N   0  0  0  0  0  0  0  0  0  0  0  0
   28.4910   52.2890   -7.3040 C   0  0  1  0  0  0  0  0  0  0  0  0
   27.9940   53.1050   -6.2250 N   0  0  0  0  0  0  0  0  0  0  0  0
   29.1990   53.2140   -8.1200 N   0  0  0  0  0  0  0  0  0  0  0  0
   30.9570   45.7940   -4.7530 C   0  0  1  0  0  0  0  0  0  0  0  0
   30.3210   47.5690   -3.2440 C   0  0  0  0  0  0  0  0  0  0  0  0
   27.9790   48.0430   -7.0670 C   0  0  0  0  0  0  0  0  0  0  0  0
   32.4680   45.5460   -4.7170 C   0  0  0  0  0  0  0  0  0  0  0  0
   30.1950   45.1590   -3.5920 C   0  0  0  0  0  0  0  0  0  0  0  0
   30.0500   46.2480   -2.5390 C   0  0  0  0  0  0  0  0  0  0  0  0
   33.0140   44.3750   -5.5900 C   0  0  0  0  0  0  0  0  0  0  0  0
   33.4930   46.4560   -5.4610 C   0  0  0  0  0  0  0  0  0  0  0  0
   34.3200   45.1830   -5.7390 C   0  0  0  0  0  0  0  0  0  0  0  0
  2  1  1  1
  2  3  1  0
  2  4  1  0
  3  5  1  0
  3  6  1  1
  4  7  1  0
  5  7  1  0
  4  8  1  1
  6  9  1  1
  6 10  1  0
  5 11  1  1
  7 12  1  0
  8 13  1  0
 12 13  1  0
 12 14  1  6
  9 15  1  0
  9 16  1  0
 10 17  1  0
 11 17  1  0
 15 18  1  1
 15 19  1  0
 16 20  1  0
 19 20  1  0
 18 21  1  0
 18 22  1  0
 21 23  1  0
 22 23  1  0
M  END
