mac-x0206-mac-x0139
     RDKit          3D

 26 28  0  0  0  0  0  0  0  0999 V2000
   28.4210   50.1880   -4.0510 N   0  0  0  0  0  0  0  0  0  0  0  0
   29.4270   50.7710   -4.9030 C   0  0  2  0  0  0  0  0  0  0  0  0
   30.6720   50.5060   -4.2700 O   0  0  0  0  0  0  0  0  0  0  0  0
   29.2850   52.3020   -5.0400 C   0  0  0  0  0  0  0  0  0  0  0  0
   29.2820   50.1870   -6.2670 C   0  0  0  0  0  0  0  0  0  0  0  0
   29.8460   53.2280   -4.1380 C   0  0  0  0  0  0  0  0  0  0  0  0
   28.5650   52.8510   -6.1240 C   0  0  0  0  0  0  0  0  0  0  0  0
   29.2480   48.8440   -6.8610 C   0  0  0  0  0  0  0  0  0  0  0  0
   29.0870   51.0080   -7.3070 C   0  0  0  0  0  0  0  0  0  0  0  0
   30.5640   52.8360   -3.0420 O   0  0  0  0  0  0  0  0  0  0  0  0
   29.7020   54.6100   -4.3130 C   0  0  0  0  0  0  0  0  0  0  0  0
   28.4200   54.2280   -6.3030 C   0  0  0  0  0  0  0  0  0  0  0  0
   29.4020   47.4920   -6.6140 C   0  0  0  0  0  0  0  0  0  0  0  0
   28.9260   49.1770   -8.2890 C   0  0  0  0  0  0  0  0  0  0  0  0
   28.8810   50.4430   -8.5230 N   0  0  0  0  0  0  0  0  0  0  0  0
   29.7340   46.9040   -5.3600 N   0  0  0  0  0  0  0  0  0  0  0  0
   28.9890   55.1070   -5.3980 C   0  0  0  0  0  0  0  0  0  0  0  0
   28.7330   48.2000   -9.1850 N   0  0  0  0  0  0  0  0  0  0  0  0
   29.2350   46.5440   -7.6340 N   0  0  0  0  0  0  0  0  0  0  0  0
   30.5400   47.7460   -4.4440 C   0  0  0  0  0  0  0  0  0  0  0  0
   30.3310   45.5120   -5.4680 C   0  0  0  0  0  0  0  0  0  0  0  0
   28.9210   46.9240   -8.8260 C   0  0  0  0  0  0  0  0  0  0  0  0
   31.8570   45.4740   -5.4740 C   0  0  0  0  0  0  0  0  0  0  0  0
   32.4660   45.0410   -6.7860 C   0  0  0  0  0  0  0  0  0  0  0  0
   31.8150   44.6090   -7.7270 O   0  0  0  0  0  0  0  0  0  0  0  0
   33.8090   45.1670   -6.8510 O   0  0  0  0  0  0  0  0  0  0  0  0
  2  1  1  1
  2  3  1  0
  2  4  1  0
  2  5  1  0
  4  6  2  0
  4  7  1  0
  5  8  1  0
  5  9  2  0
  6 10  1  0
  6 11  1  0
  7 12  2  0
  8 13  2  0
  8 14  1  0
  9 15  1  0
 14 15  2  0
 13 16  1  0
 11 17  2  0
 12 17  1  0
 14 18  1  0
 13 19  1  0
 16 20  1  0
 16 21  1  0
 18 22  1  0
 19 22  2  0
 21 23  1  0
 23 24  1  0
 24 25  2  0
 24 26  1  0
M  END
