mac-x0282-mac-x0402
     RDKit          3D

 14 16  0  0  0  0  0  0  0  0999 V2000
   29.9670   49.1580   -3.4210 Cl  0  0  0  0  0  0  0  0  0  0  0  0
   28.9860   49.5150   -4.8860 C   0  0  1  0  0  0  0  0  0  0  0  0
   28.6490   51.0090   -5.1370 C   0  0  2  0  0  0  0  0  0  0  0  0
   29.7780   49.1490   -6.1080 C   0  0  2  0  0  0  0  0  0  0  0  0
   29.0570   49.9540   -7.2260 C   0  0  2  0  0  0  0  0  0  0  0  0
   28.5340   51.2080   -6.6270 N   0  0  0  0  0  0  0  0  0  0  0  0
   30.0030   47.6900   -6.3910 C   0  0  0  0  0  0  0  0  0  0  0  0
   29.7420   51.9780   -4.7610 C   0  0  0  0  0  0  0  0  0  0  0  0
   29.5290   47.1520   -7.5150 C   0  0  0  0  0  0  0  0  0  0  0  0
   28.1110   49.1540   -7.9990 N   0  0  0  0  0  0  0  0  0  0  0  0
   29.0620   52.5590   -6.8460 C   0  0  2  0  0  0  0  0  0  0  0  0
   29.4140   53.1400   -5.5750 N   0  0  0  0  0  0  0  0  0  0  0  0
   28.1750   53.5340   -7.4000 N   0  0  0  0  0  0  0  0  0  0  0  0
   28.7700   47.9480   -8.5330 C   0  0  0  0  0  0  0  0  0  0  0  0
  2  1  1  1
  2  3  1  0
  2  4  1  0
  4  5  1  0
  3  6  1  0
  5  6  1  0
  4  7  1  6
  3  8  1  6
  7  9  2  0
  5 10  1  1
  6 11  1  0
  8 12  1  0
 11 12  1  0
 11 13  1  1
  9 14  1  0
 10 14  1  0
M  END
