mac-x0584-mac-x0302
     RDKit          3D

 26 29  0  0  0  0  0  0  0  0999 V2000
   34.0210   46.8680   -3.4290 O   0  0  0  0  0  0  0  0  0  0  0  0
   33.4370   47.9750   -3.9490 C   0  0  0  0  0  0  0  0  0  0  0  0
   33.8230   48.4330   -5.0170 O   0  0  0  0  0  0  0  0  0  0  0  0
   32.3230   48.5140   -3.0620 C   0  0  0  0  0  0  0  0  0  0  0  0
   31.6110   49.6340   -3.6600 N   0  0  0  0  0  0  0  0  0  0  0  0
   30.2410   49.7060   -3.6570 C   0  0  0  0  0  0  0  0  0  0  0  0
   29.5710   49.7250   -2.6180 O   0  0  0  0  0  0  0  0  0  0  0  0
   29.5760   49.7800   -4.9740 C   0  0  0  0  0  0  0  0  0  0  0  0
   29.0070   48.7870   -5.8430 C   0  0  0  0  0  0  0  0  0  0  0  0
   29.4040   50.9670   -5.6100 C   0  0  0  0  0  0  0  0  0  0  0  0
   29.7950   52.1950   -5.1380 O   0  0  0  0  0  0  0  0  0  0  0  0
   28.5570   49.6140   -6.9980 C   0  0  0  0  0  0  0  0  0  0  0  0
   28.7920   47.4500   -5.8820 C   0  0  0  0  0  0  0  0  0  0  0  0
   28.7810   50.8860   -6.8440 N   0  0  0  0  0  0  0  0  0  0  0  0
   29.1610   46.5750   -4.8550 N   0  0  0  0  0  0  0  0  0  0  0  0
   28.1700   46.9740   -7.0200 N   0  0  0  0  0  0  0  0  0  0  0  0
   27.9610   49.0690   -8.1000 N   0  0  0  0  0  0  0  0  0  0  0  0
   30.5690   46.1780   -4.5850 C   0  0  2  0  0  0  0  0  0  0  0  0
   28.4890   46.7700   -3.5290 C   0  0  0  0  0  0  0  0  0  0  0  0
   27.8010   47.7890   -8.0500 C   0  0  0  0  0  0  0  0  0  0  0  0
   31.1850   45.3000   -5.6700 C   0  0  0  0  0  0  0  0  0  0  0  0
   30.4870   45.5030   -3.2120 C   0  0  0  0  0  0  0  0  0  0  0  0
   29.5160   46.3910   -2.4690 C   0  0  0  0  0  0  0  0  0  0  0  0
   31.4260   43.7730   -5.4690 C   0  0  0  0  0  0  0  0  0  0  0  0
   32.7150   45.4160   -5.9080 C   0  0  0  0  0  0  0  0  0  0  0  0
   32.6880   43.9320   -6.3370 C   0  0  0  0  0  0  0  0  0  0  0  0
  1  2  1  0
  2  3  2  0
  2  4  1  0
  4  5  1  0
  5  6  1  0
  6  7  2  0
  6  8  1  0
  8  9  1  0
  8 10  2  0
 10 11  1  0
  9 12  1  0
  9 13  2  0
 10 14  1  0
 12 14  2  0
 13 15  1  0
 13 16  1  0
 12 17  1  0
 15 18  1  0
 15 19  1  0
 16 20  1  0
 17 20  2  0
 18 21  1  6
 18 22  1  0
 19 23  1  0
 22 23  1  0
 21 24  1  0
 21 25  1  0
 24 26  1  0
 25 26  1  0
M  END
