mac-x0255-mac-x0138
     RDKit          3D

 25 28  0  0  0  0  0  0  0  0999 V2000
   31.6050   45.0510   -7.2570 O   0  0  0  0  0  0  0  0  0  0  0  0
   32.7020   45.5050   -6.6100 C   0  0  0  0  0  0  0  0  0  0  0  0
   33.4460   46.2820   -7.1790 O   0  0  0  0  0  0  0  0  0  0  0  0
   32.8630   44.9340   -5.2120 C   0  0  0  0  0  0  0  0  0  0  0  0
   31.7350   45.1750   -4.2200 C   0  0  0  0  0  0  0  0  0  0  0  0
   30.4600   45.7010   -4.3200 C   0  0  0  0  0  0  0  0  0  0  0  0
   32.0120   44.7480   -2.6000 S   0  0  0  0  0  0  0  0  0  0  0  0
   29.8050   46.2580   -5.4800 C   0  0  0  0  0  0  0  0  0  0  0  0
   29.7150   45.7010   -3.1130 C   0  0  0  0  0  0  0  0  0  0  0  0
   30.4470   45.2230   -2.0780 C   0  0  0  0  0  0  0  0  0  0  0  0
   28.3840   46.1210   -2.8710 C   0  0  0  0  0  0  0  0  0  0  0  0
   29.9050   45.1660   -0.7910 C   0  0  0  0  0  0  0  0  0  0  0  0
   29.6770   47.7100   -5.3110 N   0  0  0  0  0  0  0  0  0  0  0  0
   27.8330   46.0600   -1.6050 C   0  0  0  0  0  0  0  0  0  0  0  0
   28.5920   45.5900   -0.5680 C   0  0  0  0  0  0  0  0  0  0  0  0
   29.8020   48.5730   -4.2280 C   0  0  0  0  0  0  0  0  0  0  0  0
   29.3790   48.4390   -6.3610 C   0  0  0  0  0  0  0  0  0  0  0  0
   29.5820   49.8390   -4.5940 N   0  0  0  0  0  0  0  0  0  0  0  0
   29.3110   49.7450   -5.9530 C   0  0  0  0  0  0  0  0  0  0  0  0
   29.1940   47.9190   -7.5600 N   0  0  0  0  0  0  0  0  0  0  0  0
   28.9940   50.6530   -6.9780 C   0  0  0  0  0  0  0  0  0  0  0  0
   28.9060   48.8380   -8.4480 C   0  0  0  0  0  0  0  0  0  0  0  0
   28.8700   52.0210   -6.7920 N   0  0  0  0  0  0  0  0  0  0  0  0
   28.7030   48.3670   -9.7260 N   0  0  0  0  0  0  0  0  0  0  0  0
   28.7960   50.1590   -8.2310 N   0  0  0  0  0  0  0  0  0  0  0  0
  1  2  1  0
  2  3  2  0
  2  4  1  0
  4  5  1  0
  5  6  2  0
  5  7  1  0
  6  8  1  0
  6  9  1  0
  7 10  1  0
  9 10  2  0
  9 11  1  0
 10 12  1  0
  8 13  1  0
 11 14  2  0
 12 15  2  0
 14 15  1  0
 13 16  1  0
 13 17  1  0
 16 18  2  0
 17 19  2  0
 18 19  1  0
 17 20  1  0
 19 21  1  0
 20 22  2  0
 21 23  1  0
 22 24  1  0
 21 25  2  0
 22 25  1  0
M  END
