mac-x0546-mac-x0398
     RDKit          3D

 25 27  0  0  0  0  0  0  0  0999 V2000
   29.9930   49.5990   -2.2550 C   0  0  0  0  0  0  0  0  0  0  0  0
   29.8790   48.4400   -1.5180 O   0  0  0  0  0  0  0  0  0  0  0  0
   29.9000   47.2140   -2.1570 C   0  0  0  0  0  0  0  0  0  0  0  0
   29.1010   49.9310   -3.1980 C   0  0  0  0  0  0  0  0  0  0  0  0
   28.0160   49.1160   -3.4720 O   0  0  0  0  0  0  0  0  0  0  0  0
   29.1830   51.1580   -4.0140 C   0  0  0  0  0  0  0  0  0  0  0  0
   30.8910   46.7660   -2.9640 C   0  0  0  0  0  0  0  0  0  0  0  0
   28.7230   46.3880   -1.8950 C   0  0  0  0  0  0  0  0  0  0  0  0
   29.3640   52.4490   -3.4900 C   0  0  0  0  0  0  0  0  0  0  0  0
   29.0730   51.0350   -5.4110 C   0  0  0  0  0  0  0  0  0  0  0  0
   29.4780   52.6350   -2.1360 O   0  0  0  0  0  0  0  0  0  0  0  0
   30.7600   45.4110   -3.5850 C   0  0  2  0  0  0  0  0  0  0  0  0
   28.7260   45.0590   -2.0910 C   0  0  0  0  0  0  0  0  0  0  0  0
   29.4320   53.5710   -4.3290 C   0  0  0  0  0  0  0  0  0  0  0  0
   29.1420   52.1540   -6.2460 C   0  0  0  0  0  0  0  0  0  0  0  0
   30.0110   44.5460   -2.5840 C   0  0  0  0  0  0  0  0  0  0  0  0
   31.9430   44.5040   -3.7150 C   0  0  0  0  0  0  0  0  0  0  0  0
   29.3220   53.4290   -5.7150 C   0  0  0  0  0  0  0  0  0  0  0  0
   33.1230   44.7920   -4.5830 C   0  0  0  0  0  0  0  0  0  0  0  0
   29.3910   54.5470   -6.5510 N   0  0  0  0  0  0  0  0  0  0  0  0
   30.5740   43.4300   -2.2380 N   0  0  0  0  0  0  0  0  0  0  0  0
   31.7530   43.4250   -2.9400 C   0  0  0  0  0  0  0  0  0  0  0  0
   32.7480   45.1240   -6.0180 C   0  0  0  0  0  0  0  0  0  0  0  0
   32.0290   44.4970   -6.7760 O   0  0  0  0  0  0  0  0  0  0  0  0
   33.3270   46.2720   -6.4320 O   0  0  0  0  0  0  0  0  0  0  0  0
  1  2  1  0
  2  3  1  0
  1  4  2  3
  4  5  1  0
  4  6  1  0
  3  7  2  0
  3  8  1  0
  6  9  2  0
  6 10  1  0
  9 11  1  0
 12  7  1  1
  8 13  2  0
  9 14  1  0
 10 15  2  0
 12 16  1  0
 13 16  1  0
 12 17  1  0
 14 18  2  0
 15 18  1  0
 17 19  1  0
 18 20  1  0
 16 21  2  0
 17 22  2  0
 21 22  1  0
 19 23  1  0
 23 24  2  0
 23 25  1  0
M  END
