MAC-362_0_A_Î±
     RDKit          3D

 13 14  0  0  0  0  0  0  0  0999 V2000
   -1.6660   25.7210   14.3380 C   0  0  0  0  0  0  0  0  0  0  0  0
   -0.3700   26.3520   14.8300 C   0  0  0  0  0  0  0  0  0  0  0  0
   -0.3970   27.6390   15.3430 C   0  0  0  0  0  0  0  0  0  0  0  0
    0.7720   28.2360   15.7890 C   0  0  0  0  0  0  0  0  0  0  0  0
    1.9890   27.5370   15.7310 C   0  0  0  0  0  0  0  0  0  0  0  0
    3.3170   27.8510   16.0910 C   0  0  0  0  0  0  0  0  0  0  0  0
    4.0610   26.7310   15.7750 C   0  0  0  0  0  0  0  0  0  0  0  0
    3.2640   25.8090   15.2560 N   0  0  0  0  0  0  0  0  0  0  0  0
    2.0070   26.2510   15.2190 C   0  0  0  0  0  0  0  0  0  0  0  0
    0.8340   25.6530   14.7640 C   0  0  0  0  0  0  0  0  0  0  0  0
    3.8520   29.1310   16.7150 C   0  0  0  0  0  0  0  0  0  0  0  0
    3.0550   30.0800   16.9490 O   0  0  0  0  0  0  0  0  0  0  0  0
    5.0780   29.2130   17.0010 O   0  0  0  0  0  0  0  0  0  0  0  0
  1  2  1  0
  2  3  2  0
  2 10  1  0
  3  4  1  0
 10  9  2  0
  4  5  2  0
  5  6  1  0
  5  9  1  0
  6  7  2  0
  6 11  1  0
  9  8  1  0
  7  8  1  0
 11 12  2  0
 11 13  1  0
M  END
