mac-x0437-mac-x0436
     RDKit          3D

 15 16  0  0  0  0  0  0  0  0999 V2000
   31.6570   45.3580   -6.7010 O   0  0  0  0  0  0  0  0  0  0  0  0
   32.8240   45.0030   -6.1270 C   0  0  0  0  0  0  0  0  0  0  0  0
   33.9050   45.3060   -6.6150 O   0  0  0  0  0  0  0  0  0  0  0  0
   32.6890   44.2080   -4.8520 C   0  0  0  0  0  0  0  0  0  0  0  0
   32.6360   45.1120   -3.6210 C   0  0  0  0  0  0  0  0  0  0  0  0
   33.8790   45.8280   -3.3520 N   0  0  0  0  0  0  0  0  0  0  0  0
   33.9840   47.2120   -3.3960 C   0  0  0  0  0  0  0  0  0  0  0  0
   35.1930   45.2570   -3.6510 C   0  0  1  0  0  0  0  0  0  0  0  0
   33.0950   48.0080   -3.6750 O   0  0  0  0  0  0  0  0  0  0  0  0
   35.2790   47.5290   -3.0850 N   0  0  0  0  0  0  0  0  0  0  0  0
   36.1340   46.5010   -3.6020 C   0  0  1  0  0  0  0  0  0  0  0  0
   35.5820   44.1420   -2.7150 C   0  0  0  0  0  0  0  0  0  0  0  0
   37.3650   46.3720   -2.7620 C   0  0  0  0  0  0  0  0  0  0  0  0
   36.7040   44.1690   -1.9790 C   0  0  0  0  0  0  0  0  0  0  0  0
   37.6180   45.2850   -2.0220 C   0  0  0  0  0  0  0  0  0  0  0  0
  1  2  1  0
  2  3  2  0
  2  4  1  0
  4  5  1  0
  5  6  1  0
  6  7  1  0
  6  8  1  0
  7  9  2  0
  7 10  1  0
  8 11  1  0
 10 11  1  0
  8 12  1  1
 11 13  1  1
 12 14  2  0
 13 15  2  0
 14 15  1  0
M  END
