mac-x0567-mac-x0204
     RDKit          3D

 21 23  0  0  0  0  0  0  0  0999 V2000
   29.0770   47.4740   -8.4450 N   0  0  0  0  0  0  0  0  0  0  0  0
   29.0580   48.6980   -7.8690 C   0  0  0  0  0  0  0  0  0  0  0  0
   28.9370   49.8290   -8.6290 N   0  0  0  0  0  0  0  0  0  0  0  0
   29.1390   49.1590   -6.5830 C   0  0  0  0  0  0  0  0  0  0  0  0
   28.9410   50.9790   -7.9330 N   0  0  0  0  0  0  0  0  0  0  0  0
   29.0700   50.6020   -6.6510 C   0  0  0  0  0  0  0  0  0  0  0  0
   29.2600   48.3910   -5.4420 C   0  0  0  0  0  0  0  0  0  0  0  0
   29.2980   46.8890   -5.4010 C   0  0  0  0  0  0  0  0  0  0  0  0
   29.1380   51.3900   -5.4860 C   0  0  0  0  0  0  0  0  0  0  0  0
   29.3330   49.2190   -4.2770 C   0  0  0  0  0  0  0  0  0  0  0  0
   30.6380   46.2040   -5.1250 C   0  0  0  0  0  0  0  0  0  0  0  0
   29.2760   50.6470   -4.2970 C   0  0  0  0  0  0  0  0  0  0  0  0
   31.5140   46.3430   -6.2390 O   0  0  0  0  0  0  0  0  0  0  0  0
   30.4120   44.8130   -5.0320 O   0  0  0  0  0  0  0  0  0  0  0  0
   31.2390   46.7810   -3.8820 C   0  0  0  0  0  0  0  0  0  0  0  0
   30.4680   46.8390   -2.7150 C   0  0  0  0  0  0  0  0  0  0  0  0
   32.5380   47.2840   -3.8160 C   0  0  0  0  0  0  0  0  0  0  0  0
   31.0000   47.3790   -1.5640 C   0  0  0  0  0  0  0  0  0  0  0  0
   33.0860   47.8180   -2.6970 N   0  0  0  0  0  0  0  0  0  0  0  0
   30.2720   47.4500   -0.4190 O   0  0  0  0  0  0  0  0  0  0  0  0
   32.3000   47.8550   -1.5920 C   0  0  0  0  0  0  0  0  0  0  0  0
  1  2  1  0
  2  3  1  0
  2  4  2  0
  3  5  1  0
  4  6  1  0
  5  6  2  0
  4  7  1  0
  7  8  1  0
  6  9  1  0
  7 10  2  0
  8 11  1  0
  9 12  2  0
 10 12  1  0
 11 13  1  0
 11 14  1  0
 11 15  1  0
 15 16  2  0
 15 17  1  0
 16 18  1  0
 17 19  2  0
 18 20  1  0
 18 21  2  0
 19 21  1  0
M  END
