mac-x0345-mac-x0360
     RDKit          3D

 20 21  0  0  0  0  0  0  0  0999 V2000
   27.8290   54.7450   -3.8840 C   0  0  0  0  0  0  0  0  0  0  0  0
   28.5490   53.4700   -4.0860 C   0  0  0  0  0  0  0  0  0  0  0  0
   29.1820   52.9530   -3.0930 N   0  0  0  0  0  0  0  0  0  0  0  0
   28.5780   52.8110   -5.2780 C   0  0  0  0  0  0  0  0  0  0  0  0
   27.5950   53.6820   -6.6710 Br  0  0  0  0  0  0  0  0  0  0  0  0
   29.1640   51.6150   -5.7710 C   0  0  0  0  0  0  0  0  0  0  0  0
   29.8070   51.8580   -3.2590 C   0  0  0  0  0  0  0  0  0  0  0  0
   30.5420   51.2070   -2.2030 N   0  0  0  0  0  0  0  0  0  0  0  0
   29.7720   51.2820   -4.5020 C   0  0  0  0  0  0  0  0  0  0  0  0
   29.9370   50.1580   -6.1850 S   0  0  0  0  0  0  0  0  0  0  0  0
   29.5650   49.3100   -4.9490 N   0  0  0  0  0  0  0  0  0  0  0  0
   30.7950   49.2390   -6.7600 O   0  0  0  0  0  0  0  0  0  0  0  0
   31.4530   51.1910   -6.1350 C   0  0  0  0  0  0  0  0  0  0  0  0
   32.5950   50.7590   -5.5910 C   0  0  0  0  0  0  0  0  0  0  0  0
   31.3000   52.4310   -6.7020 C   0  0  0  0  0  0  0  0  0  0  0  0
   33.7150   51.5740   -5.5740 C   0  0  0  0  0  0  0  0  0  0  0  0
   32.4110   53.2650   -6.6960 C   0  0  0  0  0  0  0  0  0  0  0  0
   32.3440   54.8670   -7.3870 Cl  0  0  0  0  0  0  0  0  0  0  0  0
   35.2330   51.0620   -4.8770 Cl  0  0  0  0  0  0  0  0  0  0  0  0
   33.5950   52.8440   -6.1420 C   0  0  0  0  0  0  0  0  0  0  0  0
  1  2  1  0
  2  3  2  0
  2  4  1  0
  4  5  1  0
  4  6  2  0
  3  7  1  0
  7  8  1  0
  6  9  1  0
  7  9  2  0
  6 10  1  0
 10 11  1  0
 10 12  2  0
 10 13  1  0
 13 14  2  0
 13 15  1  0
 14 16  1  0
 15 17  2  0
 17 18  1  0
 16 19  1  0
 16 20  2  0
 17 20  1  0
M  END
