mac-x0347-mac-x0394
     RDKit          3D

 26 28  0  0  0  0  0  0  0  0999 V2000
   30.5910   44.5590   -4.9880 O   0  0  0  0  0  0  0  0  0  0  0  0
   30.7400   45.6750   -5.7240 C   0  0  0  0  0  0  0  0  0  0  0  0
   30.9090   45.6730   -6.9320 O   0  0  0  0  0  0  0  0  0  0  0  0
   30.6790   46.9170   -4.9460 C   0  0  0  0  0  0  0  0  0  0  0  0
   30.4010   48.1300   -5.5520 C   0  0  0  0  0  0  0  0  0  0  0  0
   30.9010   46.8950   -3.5740 C   0  0  0  0  0  0  0  0  0  0  0  0
   30.3480   49.2820   -4.7880 C   0  0  0  0  0  0  0  0  0  0  0  0
   30.8590   48.0020   -2.7930 N   0  0  0  0  0  0  0  0  0  0  0  0
   30.5840   49.1700   -3.4190 C   0  0  0  0  0  0  0  0  0  0  0  0
   30.0320   50.5430   -5.4040 C   0  0  0  0  0  0  0  0  0  0  0  0
   28.7970   50.9820   -5.0970 C   0  0  0  0  0  0  0  0  0  0  0  0
   30.8300   51.3170   -6.2460 C   0  0  0  0  0  0  0  0  0  0  0  0
   28.2710   52.1350   -5.5610 C   0  0  0  0  0  0  0  0  0  0  0  0
   30.3280   52.5170   -6.7690 C   0  0  0  0  0  0  0  0  0  0  0  0
   29.0400   52.9190   -6.4300 C   0  0  0  0  0  0  0  0  0  0  0  0
   26.9590   52.3000   -4.9860 C   0  0  0  0  0  0  0  0  0  0  0  0
   26.7010   53.4750   -4.3010 C   0  0  0  0  0  0  0  0  0  0  0  0
   25.9730   51.3030   -5.0540 C   0  0  0  0  0  0  0  0  0  0  0  0
   28.5770   54.0960   -6.9770 O   0  0  0  0  0  0  0  0  0  0  0  0
   25.4860   53.6680   -3.6800 C   0  0  0  0  0  0  0  0  0  0  0  0
   24.7460   51.5060   -4.4220 C   0  0  0  0  0  0  0  0  0  0  0  0
   27.7550   53.8010   -8.0480 C   0  0  0  0  0  0  0  0  0  0  0  0
   23.5330   50.2880   -4.4820 Cl  0  0  0  0  0  0  0  0  0  0  0  0
   25.2270   55.1390   -2.8320 Cl  0  0  0  0  0  0  0  0  0  0  0  0
   24.4970   52.6910   -3.7310 C   0  0  0  0  0  0  0  0  0  0  0  0
   27.2820   52.7240   -8.3800 O   0  0  0  0  0  0  0  0  0  0  0  0
  1  2  1  0
  2  3  2  0
  2  4  1  0
  4  5  2  0
  4  6  1  0
  5  7  1  0
  6  8  2  0
  7  9  2  0
  8  9  1  0
  7 10  1  0
 10 11  2  0
 10 12  1  0
 11 13  1  0
 12 14  2  0
 13 15  2  0
 14 15  1  0
 13 16  1  0
 16 17  2  0
 16 18  1  0
 15 19  1  0
 17 20  1  0
 18 21  2  0
 19 22  1  0
 21 23  1  0
 20 24  1  0
 20 25  2  0
 21 25  1  0
 22 26  2  0
M  END
