mac-x0439-mac-x0159
     RDKit          3D

 25 28  0  0  0  0  0  0  0  0999 V2000
   31.6120   46.4850   -5.8180 Cl  0  0  0  0  0  0  0  0  0  0  0  0
   30.2900   45.8740   -4.8740 C   0  0  0  0  0  0  0  0  0  0  0  0
   29.7660   44.5360   -5.2960 C   0  0  1  0  0  0  0  0  0  0  0  0
   29.7400   46.5380   -3.8190 C   0  0  0  0  0  0  0  0  0  0  0  0
   30.2290   47.9120   -3.3440 C   0  0  0  0  0  0  0  0  0  0  0  0
   30.6830   43.4440   -5.7420 C   0  0  0  0  0  0  0  0  0  0  0  0
   29.3190   43.8400   -4.0260 C   0  0  0  0  0  0  0  0  0  0  0  0
   28.6050   45.8980   -3.0820 C   0  0  0  0  0  0  0  0  0  0  0  0
   27.6970   46.7400   -2.2230 C   0  0  0  0  0  0  0  0  0  0  0  0
   30.6450   42.4390   -4.8610 C   0  0  0  0  0  0  0  0  0  0  0  0
   29.8050   42.6580   -3.7840 N   0  0  0  0  0  0  0  0  0  0  0  0
   28.3790   44.5690   -3.1700 C   0  0  0  0  0  0  0  0  0  0  0  0
   29.3050   49.0300   -3.6210 N   0  0  0  0  0  0  0  0  0  0  0  0
   31.4270   41.1790   -4.9860 C   0  0  0  0  0  0  0  0  0  0  0  0
   29.9590   50.3300   -3.6710 C   0  0  0  0  0  0  0  0  0  0  0  0
   28.3970   48.8890   -4.7560 C   0  0  1  0  0  0  0  0  0  0  0  0
   30.8840   40.4000   -5.9530 O   0  0  0  0  0  0  0  0  0  0  0  0
   32.4100   40.8880   -4.3280 O   0  0  0  0  0  0  0  0  0  0  0  0
   28.9880   51.3980   -3.5230 N   0  0  0  0  0  0  0  0  0  0  0  0
   27.4160   50.0480   -5.0170 C   0  0  1  0  0  0  0  0  0  0  0  0
   29.0300   48.7190   -6.0550 N   0  0  0  0  0  0  0  0  0  0  0  0
   28.0050   51.4270   -4.5800 C   0  0  2  0  0  0  0  0  0  0  0  0
   27.1350   49.9920   -6.4790 N   0  0  0  0  0  0  0  0  0  0  0  0
   27.9290   48.8840   -6.9860 C   0  0  0  0  0  0  0  0  0  0  0  0
   28.6860   52.1370   -5.6520 N   0  0  0  0  0  0  0  0  0  0  0  0
  1  2  1  0
  2  3  1  0
  2  4  2  0
  4  5  1  0
  3  6  1  1
  3  7  1  0
  4  8  1  0
  8  9  1  0
  6 10  2  0
  7 11  2  0
 10 11  1  0
  7 12  1  0
  8 12  2  0
  5 13  1  0
 10 14  1  0
 13 15  1  0
 13 16  1  0
 14 17  1  0
 14 18  2  0
 15 19  1  0
 16 20  1  0
 16 21  1  6
 19 22  1  0
 20 22  1  0
 20 23  1  6
 21 24  1  0
 23 24  1  0
 22 25  1  6
M  END
