mac-x0212-mac-x0284
     RDKit          3D

 15 15  0  0  0  0  0  0  0  0999 V2000
   30.7440   53.7200   -6.3610 C   0  0  0  0  0  0  0  0  0  0  0  0
   29.2740   54.1610   -5.4610 S   0  0  0  0  0  0  0  0  0  0  0  0
   28.6260   55.2620   -6.1390 O   0  0  0  0  0  0  0  0  0  0  0  0
   29.6290   54.2390   -4.0590 O   0  0  0  0  0  0  0  0  0  0  0  0
   28.3710   52.7360   -5.6240 N   0  0  0  0  0  0  0  0  0  0  0  0
   29.0230   51.5080   -5.3030 C   0  0  0  0  0  0  0  0  0  0  0  0
   29.3860   50.6220   -6.3150 C   0  0  0  0  0  0  0  0  0  0  0  0
   29.2930   51.2000   -3.9710 C   0  0  0  0  0  0  0  0  0  0  0  0
   30.0220   49.4180   -5.9930 C   0  0  0  0  0  0  0  0  0  0  0  0
   29.9290   49.9960   -3.6490 C   0  0  0  0  0  0  0  0  0  0  0  0
   30.3020   49.0870   -4.6540 C   0  0  0  0  0  0  0  0  0  0  0  0
   30.9950   47.7800   -4.3090 C   0  0  2  0  0  0  0  0  0  0  0  0
   31.0090   46.8730   -5.5070 N   0  0  0  0  0  0  0  0  0  0  0  0
   30.4470   47.2610   -3.0940 O   0  0  0  0  0  0  0  0  0  0  0  0
   29.9160   46.3260   -5.6970 O   0  0  0  0  0  0  0  0  0  0  0  0
  1  2  1  0
  2  3  2  0
  2  4  2  0
  2  5  1  0
  5  6  1  0
  6  7  2  0
  6  8  1  0
  7  9  1  0
  8 10  2  0
  9 11  2  0
 10 11  1  0
 11 12  1  0
 12 13  1  0
 12 14  1  1
 13 15  2  0
M  END
