mac-x0190-mac-x0567
     RDKit          3D

 16 18  0  0  0  0  0  0  0  0999 V2000
   28.6180   56.5360   -5.4270 O   0  0  0  0  0  0  0  0  0  0  0  0
   29.8890   55.9050   -5.3160 C   0  0  0  0  0  0  0  0  0  0  0  0
   29.6660   54.4340   -5.2350 C   0  0  0  0  0  0  0  0  0  0  0  0
   29.7770   53.7690   -4.0330 N   0  0  0  0  0  0  0  0  0  0  0  0
   29.3510   53.5880   -6.2250 N   0  0  0  0  0  0  0  0  0  0  0  0
   29.5180   52.4580   -4.2790 C   0  0  0  0  0  0  0  0  0  0  0  0
   29.2560   52.3430   -5.6290 C   0  0  0  0  0  0  0  0  0  0  0  0
   29.5190   51.4260   -3.3300 C   0  0  0  0  0  0  0  0  0  0  0  0
   28.9140   50.9590   -6.2070 C   0  0  1  0  0  0  0  0  0  0  0  0
   28.8240   50.3340   -3.7080 C   0  0  0  0  0  0  0  0  0  0  0  0
   28.1150   50.2580   -5.0600 C   0  0  0  0  0  0  0  0  0  0  0  0
   28.1920   50.9880   -7.5050 N   0  0  0  0  0  0  0  0  0  0  0  0
   30.0750   50.0140   -6.5630 C   0  0  0  0  0  0  0  0  0  0  0  0
   29.3110   48.9440   -7.3340 C   0  0  1  0  0  0  0  0  0  0  0  0
   28.5430   49.7730   -8.2620 N   0  0  0  0  0  0  0  0  0  0  0  0
   30.1120   48.0250   -8.1260 N   0  0  0  0  0  0  0  0  0  0  0  0
  1  2  1  0
  2  3  1  0
  3  4  1  0
  3  5  2  0
  4  6  1  0
  5  7  1  0
  6  7  2  0
  6  8  1  0
  7  9  1  0
  8 10  2  0
  9 11  1  1
 10 11  1  0
  9 12  1  0
  9 13  1  0
 13 14  1  0
 12 15  1  0
 14 15  1  0
 14 16  1  6
M  END
