mac-x0226-mac-x0567
     RDKit          3D

 26 29  0  0  0  0  0  0  0  0999 V2000
   33.0450   45.0440   -7.4790 O   0  0  0  0  0  0  0  0  0  0  0  0
   33.0710   46.0150   -6.4370 C   0  0  0  0  0  0  0  0  0  0  0  0
   34.0030   47.0020   -6.8580 O   0  0  0  0  0  0  0  0  0  0  0  0
   31.6690   46.6490   -6.4220 C   0  0  0  0  0  0  0  0  0  0  0  0
   33.4690   45.3690   -5.1460 C   0  0  0  0  0  0  0  0  0  0  0  0
   30.9830   46.7060   -7.7890 C   0  0  0  0  0  0  0  0  0  0  0  0
   32.7270   44.4420   -4.3850 C   0  0  0  0  0  0  0  0  0  0  0  0
   34.6290   45.5270   -4.4100 C   0  0  0  0  0  0  0  0  0  0  0  0
   29.6200   47.2080   -7.6970 N   0  0  0  0  0  0  0  0  0  0  0  0
   33.3570   44.0490   -3.2790 N   0  0  0  0  0  0  0  0  0  0  0  0
   34.5390   44.7220   -3.2930 N   0  0  0  0  0  0  0  0  0  0  0  0
   35.4960   44.5550   -2.2530 C   0  0  0  0  0  0  0  0  0  0  0  0
   29.2900   48.4870   -7.3890 C   0  0  0  0  0  0  0  0  0  0  0  0
   36.3580   45.6170   -1.9370 C   0  0  0  0  0  0  0  0  0  0  0  0
   35.5960   43.3530   -1.5390 C   0  0  0  0  0  0  0  0  0  0  0  0
   28.7710   49.3920   -8.2820 N   0  0  0  0  0  0  0  0  0  0  0  0
   29.3670   49.1920   -6.2150 C   0  0  0  0  0  0  0  0  0  0  0  0
   37.3050   45.4770   -0.9210 C   0  0  0  0  0  0  0  0  0  0  0  0
   36.5480   43.2210   -0.5230 C   0  0  0  0  0  0  0  0  0  0  0  0
   28.5110   50.6140   -7.7740 N   0  0  0  0  0  0  0  0  0  0  0  0
   28.8730   50.5230   -6.4830 C   0  0  0  0  0  0  0  0  0  0  0  0
   29.8350   48.7080   -4.9950 C   0  0  0  0  0  0  0  0  0  0  0  0
   37.3990   44.2800   -0.2140 C   0  0  0  0  0  0  0  0  0  0  0  0
   28.8260   51.4900   -5.4650 C   0  0  0  0  0  0  0  0  0  0  0  0
   29.7760   49.6990   -3.9950 C   0  0  0  0  0  0  0  0  0  0  0  0
   29.2960   51.0270   -4.2160 C   0  0  0  0  0  0  0  0  0  0  0  0
  2  1  1  0
  2  3  1  0
  2  4  1  0
  2  5  1  0
  4  6  1  0
  5  7  1  0
  5  8  2  0
  6  9  1  0
  7 10  2  0
  8 11  1  0
 10 11  1  0
 11 12  1  0
  9 13  1  0
 12 14  2  0
 12 15  1  0
 13 16  1  0
 13 17  2  0
 14 18  1  0
 15 19  2  0
 16 20  1  0
 17 21  1  0
 20 21  2  0
 17 22  1  0
 18 23  2  0
 19 23  1  0
 21 24  1  0
 22 25  2  0
 24 26  2  0
 25 26  1  0
M  END
