mac-x0116-mac-x0396
     RDKit          3D

 24 27  0  0  0  0  0  0  0  0999 V2000
   29.5160   52.1570   -7.5990 C   0  0  0  0  0  0  0  0  0  0  0  0
   29.2230   51.4630   -6.3230 N   0  0  0  0  0  0  0  0  0  0  0  0
   28.4720   52.0900   -5.3120 C   0  0  0  0  0  0  0  0  0  0  0  0
   30.6000   53.1810   -7.4620 C   0  0  0  0  0  0  0  0  0  0  0  0
   31.7490   52.7650   -6.8430 O   0  0  0  0  0  0  0  0  0  0  0  0
   30.7340   54.5060   -7.8270 C   0  0  0  0  0  0  0  0  0  0  0  0
   29.6550   50.1420   -6.0680 C   0  0  0  0  0  0  0  0  0  0  0  0
   27.3990   51.6640   -4.8760 O   0  0  0  0  0  0  0  0  0  0  0  0
   32.0230   54.9150   -7.4110 C   0  0  0  0  0  0  0  0  0  0  0  0
   32.6010   53.8210   -6.8180 C   0  0  0  0  0  0  0  0  0  0  0  0
   30.2470   49.8220   -4.8510 N   0  0  0  0  0  0  0  0  0  0  0  0
   29.5400   49.1020   -6.9240 C   0  0  0  0  0  0  0  0  0  0  0  0
   28.9620   53.3260   -4.7010 C   0  0  0  0  0  0  0  0  0  0  0  0
   30.6800   48.5780   -4.5240 C   0  0  0  0  0  0  0  0  0  0  0  0
   30.0340   47.7810   -6.5000 C   0  0  0  0  0  0  0  0  0  0  0  0
   29.0410   48.9350   -8.1900 N   0  0  0  0  0  0  0  0  0  0  0  0
   29.4000   53.3060   -3.3860 C   0  0  0  0  0  0  0  0  0  0  0  0
   28.9980   54.5180   -5.4130 C   0  0  0  0  0  0  0  0  0  0  0  0
   30.6040   47.5370   -5.2860 N   0  0  0  0  0  0  0  0  0  0  0  0
   29.8400   46.9120   -7.4400 N   0  0  0  0  0  0  0  0  0  0  0  0
   29.2380   47.6680   -8.4300 C   0  0  0  0  0  0  0  0  0  0  0  0
   29.8700   54.4020   -2.7440 N   0  0  0  0  0  0  0  0  0  0  0  0
   29.4760   55.6590   -4.7770 C   0  0  0  0  0  0  0  0  0  0  0  0
   29.8960   55.5530   -3.4590 C   0  0  0  0  0  0  0  0  0  0  0  0
  1  2  1  0
  2  3  1  0
  1  4  1  0
  4  5  1  0
  4  6  2  0
  2  7  1  0
  3  8  2  0
  6  9  1  0
  5 10  1  0
  9 10  2  0
  7 11  1  0
  7 12  2  0
  3 13  1  0
 11 14  1  0
 12 15  1  0
 12 16  1  0
 13 17  2  0
 13 18  1  0
 14 19  2  0
 15 19  1  0
 15 20  2  0
 16 21  2  0
 20 21  1  0
 17 22  1  0
 18 23  2  0
 22 24  2  0
 23 24  1  0
M  END
