mac-x0301-mac-x0404
     RDKit          3D

 26 29  0  0  0  0  0  0  0  0999 V2000
   30.9950   45.8930   -4.4090 N   0  0  0  0  0  0  0  0  0  0  0  0
   31.2610   47.1790   -4.8100 C   0  0  0  0  0  0  0  0  0  0  0  0
   32.3900   47.6250   -4.8240 O   0  0  0  0  0  0  0  0  0  0  0  0
   32.0040   44.8730   -4.7400 C   0  0  0  0  0  0  0  0  0  0  0  0
   30.7430   46.1810   -3.0690 C   0  0  0  0  0  0  0  0  0  0  0  0
   32.8030   45.2660   -5.9760 C   0  0  0  0  0  0  0  0  0  0  0  0
   30.2250   48.1610   -5.1560 C   0  0  0  0  0  0  0  0  0  0  0  0
   29.6150   45.7460   -2.3560 C   0  0  0  0  0  0  0  0  0  0  0  0
   31.7150   46.9980   -2.4780 C   0  0  0  0  0  0  0  0  0  0  0  0
   32.0770   45.4320   -7.0930 O   0  0  0  0  0  0  0  0  0  0  0  0
   34.0140   45.4460   -6.0160 O   0  0  0  0  0  0  0  0  0  0  0  0
   29.6240   48.1930   -6.3850 C   0  0  0  0  0  0  0  0  0  0  0  0
   29.8510   49.1110   -4.1890 C   0  0  0  0  0  0  0  0  0  0  0  0
   29.4970   46.1890   -1.0240 C   0  0  0  0  0  0  0  0  0  0  0  0
   31.5880   47.4140   -1.1790 C   0  0  0  0  0  0  0  0  0  0  0  0
   28.5960   44.9150   -2.8700 C   0  0  0  0  0  0  0  0  0  0  0  0
   28.6790   49.1450   -6.6750 C   0  0  0  0  0  0  0  0  0  0  0  0
   28.8800   50.0790   -4.4930 C   0  0  0  0  0  0  0  0  0  0  0  0
   29.8480   47.3620   -7.4360 O   0  0  0  0  0  0  0  0  0  0  0  0
   30.4800   47.0140   -0.4570 C   0  0  0  0  0  0  0  0  0  0  0  0
   28.3920   45.8090   -0.2610 C   0  0  0  0  0  0  0  0  0  0  0  0
   27.5030   44.5390   -2.0970 C   0  0  0  0  0  0  0  0  0  0  0  0
   28.2860   50.0990   -5.7560 C   0  0  0  0  0  0  0  0  0  0  0  0
   28.2050   49.0240   -7.9440 O   0  0  0  0  0  0  0  0  0  0  0  0
   28.7990   47.7700   -8.3300 C   0  0  0  0  0  0  0  0  0  0  0  0
   27.4000   44.9890   -0.7900 C   0  0  0  0  0  0  0  0  0  0  0  0
  1  2  1  0
  2  3  2  0
  1  4  1  0
  1  5  1  0
  4  6  1  0
  2  7  1  0
  5  8  1  0
  5  9  2  0
  6 10  1  0
  6 11  2  0
  7 12  1  0
  7 13  2  0
  8 14  2  0
  9 15  1  0
  8 16  1  0
 12 17  2  0
 13 18  1  0
 12 19  1  0
 14 20  1  0
 15 20  2  0
 14 21  1  0
 16 22  2  0
 17 23  1  0
 18 23  2  0
 17 24  1  0
 19 25  1  0
 24 25  1  0
 21 26  2  0
 22 26  1  0
M  END
