mac-x0567-mac-x0387
     RDKit          3D

 10 11  0  0  0  0  0  0  0  0999 V2000
   29.7410   47.3150   -8.0400 N   0  0  0  0  0  0  0  0  0  0  0  0
   29.3680   48.5350   -7.5930 C   0  0  0  0  0  0  0  0  0  0  0  0
   28.7640   49.4580   -8.4130 N   0  0  0  0  0  0  0  0  0  0  0  0
   29.4470   49.1680   -6.3790 C   0  0  0  0  0  0  0  0  0  0  0  0
   28.4530   50.6260   -7.8190 N   0  0  0  0  0  0  0  0  0  0  0  0
   28.8650   50.4790   -6.5480 C   0  0  0  0  0  0  0  0  0  0  0  0
   29.9870   48.6450   -5.2030 C   0  0  0  0  0  0  0  0  0  0  0  0
   28.7970   51.3800   -5.4700 C   0  0  0  0  0  0  0  0  0  0  0  0
   29.9040   49.5690   -4.1410 C   0  0  0  0  0  0  0  0  0  0  0  0
   29.3370   50.8760   -4.2640 C   0  0  0  0  0  0  0  0  0  0  0  0
  1  2  1  0
  2  3  1  0
  2  4  2  0
  3  5  1  0
  4  6  1  0
  5  6  2  0
  4  7  1  0
  6  8  1  0
  7  9  2  0
  8 10  2  0
  9 10  1  0
M  END
