mac-x0116-mac-x0347
     RDKit          3D

 30 34  0  0  0  0  0  0  0  0999 V2000
   29.4160   54.7230   -5.4160 C   0  0  0  0  0  0  0  0  0  0  0  0
   30.8260   54.9740   -5.9380 C   0  0  1  0  0  0  0  0  0  0  0  0
   31.7980   53.7990   -5.6760 C   0  0  2  0  0  0  0  0  0  0  0  0
   30.8750   55.1920   -7.4610 C   0  0  0  0  0  0  0  0  0  0  0  0
   32.2370   54.6900   -7.8100 C   0  0  0  0  0  0  0  0  0  0  0  0
   32.7480   53.9270   -6.8350 C   0  0  0  0  0  0  0  0  0  0  0  0
   31.1130   52.4500   -5.5990 C   0  0  0  0  0  0  0  0  0  0  0  0
   29.9610   52.2090   -6.3690 C   0  0  0  0  0  0  0  0  0  0  0  0
   31.5980   51.4170   -4.7760 C   0  0  0  0  0  0  0  0  0  0  0  0
   29.3040   50.9740   -6.3230 C   0  0  0  0  0  0  0  0  0  0  0  0
   30.9600   50.1660   -4.7090 C   0  0  0  0  0  0  0  0  0  0  0  0
   28.0960   50.7030   -7.1200 C   0  0  0  0  0  0  0  0  0  0  0  0
   31.4570   49.0810   -3.8580 C   0  0  0  0  0  0  0  0  0  0  0  0
   29.8140   49.9700   -5.4930 C   0  0  0  0  0  0  0  0  0  0  0  0
   26.9550   51.4530   -6.8770 N   0  0  0  0  0  0  0  0  0  0  0  0
   28.0380   49.7610   -8.0740 C   0  0  0  0  0  0  0  0  0  0  0  0
   31.4450   47.7510   -4.3040 C   0  0  0  0  0  0  0  0  0  0  0  0
   31.9620   49.3000   -2.5740 C   0  0  0  0  0  0  0  0  0  0  0  0
   25.8090   51.2280   -7.5910 C   0  0  0  0  0  0  0  0  0  0  0  0
   26.7670   49.5940   -8.7870 C   0  0  0  0  0  0  0  0  0  0  0  0
   28.9140   48.8500   -8.5940 N   0  0  0  0  0  0  0  0  0  0  0  0
   31.9180   46.7210   -3.4870 C   0  0  0  0  0  0  0  0  0  0  0  0
   32.4300   48.3240   -1.7510 N   0  0  0  0  0  0  0  0  0  0  0  0
   31.8890   45.3320   -3.9880 C   0  0  0  0  0  0  0  0  0  0  0  0
   25.6560   50.3460   -8.5270 N   0  0  0  0  0  0  0  0  0  0  0  0
   26.8810   48.6490   -9.6680 N   0  0  0  0  0  0  0  0  0  0  0  0
   28.2000   48.2420   -9.5000 C   0  0  0  0  0  0  0  0  0  0  0  0
   32.3960   47.0540   -2.2310 C   0  0  0  0  0  0  0  0  0  0  0  0
   31.0560   44.5390   -3.2950 O   0  0  0  0  0  0  0  0  0  0  0  0
   32.5380   44.9080   -4.9280 O   0  0  0  0  0  0  0  0  0  0  0  0
  2  1  1  6
  2  3  1  0
  2  4  1  0
  4  5  1  0
  3  6  1  0
  5  6  2  0
  3  7  1  6
  7  8  2  0
  7  9  1  0
  8 10  1  0
  9 11  2  0
 10 12  1  0
 11 13  1  0
 10 14  2  0
 11 14  1  0
 12 15  1  0
 12 16  2  0
 13 17  2  0
 13 18  1  0
 15 19  1  0
 16 20  1  0
 16 21  1  0
 17 22  1  0
 18 23  2  0
 22 24  1  0
 19 25  2  0
 20 25  1  0
 20 26  2  0
 21 27  2  0
 26 27  1  0
 22 28  2  0
 23 28  1  0
 24 29  1  0
 24 30  2  0
M  END
