mac-x0282-mac-x0159
     RDKit          3D

 16 18  0  0  0  0  0  0  0  0999 V2000
   30.2040   48.2120   -3.6680 C   0  0  0  0  0  0  0  0  0  0  0  0
   29.4900   46.9330   -3.2240 C   0  0  0  0  0  0  0  0  0  0  0  0
   29.2100   45.7600   -3.9350 C   0  0  0  0  0  0  0  0  0  0  0  0
   29.6180   49.0170   -4.8230 C   0  0  0  0  0  0  0  0  0  0  0  0
   29.2040   50.3580   -4.9320 C   0  0  0  0  0  0  0  0  0  0  0  0
   29.4010   48.4460   -6.0860 C   0  0  0  0  0  0  0  0  0  0  0  0
   29.0420   46.8920   -1.9100 N   0  0  0  0  0  0  0  0  0  0  0  0
   28.8720   49.4050   -6.9360 C   0  0  0  0  0  0  0  0  0  0  0  0
   28.7550   50.5680   -6.2260 N   0  0  0  0  0  0  0  0  0  0  0  0
   29.6170   47.1700   -6.5810 C   0  0  0  0  0  0  0  0  0  0  0  0
   28.4500   45.7540   -1.6360 C   0  0  0  0  0  0  0  0  0  0  0  0
   28.3830   44.6320   -2.9320 S   0  0  0  0  0  0  0  0  0  0  0  0
   27.8650   45.4180   -0.3110 C   0  0  0  0  0  0  0  0  0  0  0  0
   29.2890   46.9290   -7.8980 C   0  0  0  0  0  0  0  0  0  0  0  0
   28.5340   49.2330   -8.2250 N   0  0  0  0  0  0  0  0  0  0  0  0
   28.7650   47.9670   -8.6550 C   0  0  0  0  0  0  0  0  0  0  0  0
  1  2  1  0
  2  3  2  0
  1  4  1  0
  4  5  2  0
  4  6  1  0
  2  7  1  0
  6  8  2  0
  5  9  1  0
  8  9  1  0
  6 10  1  0
  7 11  2  0
  3 12  1  0
 11 12  1  0
 11 13  1  0
 10 14  2  0
  8 15  1  0
 14 16  1  0
 15 16  2  0
M  END
