mac-x0188-mac-x0277
     RDKit          3D

 24 26  0  0  0  0  0  0  0  0999 V2000
   32.1100   45.2430   -3.5780 C   0  0  0  0  0  0  0  0  0  0  0  0
   31.8710   46.6880   -3.7990 C   0  0  0  0  0  0  0  0  0  0  0  0
   32.4460   47.5170   -2.8940 O   0  0  0  0  0  0  0  0  0  0  0  0
   30.9640   44.7410   -2.7310 C   0  0  0  0  0  0  0  0  0  0  0  0
   31.1670   47.4180   -4.7320 C   0  0  0  0  0  0  0  0  0  0  0  0
   30.4930   45.5590   -1.6940 C   0  0  0  0  0  0  0  0  0  0  0  0
   30.3520   43.5000   -2.9490 C   0  0  0  0  0  0  0  0  0  0  0  0
   30.4000   46.9190   -5.8930 C   0  0  0  0  0  0  0  0  0  0  0  0
   32.1280   48.8180   -3.1980 N   0  0  0  0  0  0  0  0  0  0  0  0
   31.3550   48.7710   -4.2930 C   0  0  0  0  0  0  0  0  0  0  0  0
   29.4310   45.1550   -0.8860 C   0  0  0  0  0  0  0  0  0  0  0  0
   29.2850   43.0920   -2.1390 C   0  0  0  0  0  0  0  0  0  0  0  0
   29.1000   46.4940   -5.5860 O   0  0  0  0  0  0  0  0  0  0  0  0
   30.2840   47.8610   -6.9200 O   0  0  0  0  0  0  0  0  0  0  0  0
   30.9900   45.7980   -6.5010 O   0  0  0  0  0  0  0  0  0  0  0  0
   28.9240   46.2350    0.3660 Cl  0  0  0  0  0  0  0  0  0  0  0  0
   30.8310   50.0060   -4.8580 C   0  0  0  0  0  0  0  0  0  0  0  0
   28.8230   43.9190   -1.1090 C   0  0  0  0  0  0  0  0  0  0  0  0
   27.5020   43.3610   -0.1470 Cl  0  0  0  0  0  0  0  0  0  0  0  0
   30.1930   50.9230   -4.0100 C   0  0  0  0  0  0  0  0  0  0  0  0
   30.9430   50.3020   -6.2240 C   0  0  0  0  0  0  0  0  0  0  0  0
   29.6760   52.1160   -4.5160 C   0  0  0  0  0  0  0  0  0  0  0  0
   30.4240   51.4990   -6.7280 C   0  0  0  0  0  0  0  0  0  0  0  0
   29.7920   52.4030   -5.8740 C   0  0  0  0  0  0  0  0  0  0  0  0
  1  2  1  0
  2  3  1  0
  1  4  1  0
  2  5  2  0
  4  6  2  0
  4  7  1  0
  5  8  1  0
  3  9  1  0
  5 10  1  0
  9 10  2  0
  6 11  1  0
  7 12  2  0
  8 13  1  0
  8 14  1  0
  8 15  1  0
 11 16  1  0
 10 17  1  0
 11 18  2  0
 12 18  1  0
 18 19  1  0
 17 20  2  0
 17 21  1  0
 20 22  1  0
 21 23  2  0
 22 24  2  0
 23 24  1  0
M  END
