mac-x0394-mac-x0453
     RDKit          3D

 18 19  0  0  0  0  0  0  0  0999 V2000
   23.8170   50.0660   -4.2320 Cl  0  0  0  0  0  0  0  0  0  0  0  0
   24.9840   51.3320   -4.2540 C   0  0  0  0  0  0  0  0  0  0  0  0
   24.7730   52.4550   -3.4590 C   0  0  0  0  0  0  0  0  0  0  0  0
   26.1280   51.2300   -5.0600 C   0  0  0  0  0  0  0  0  0  0  0  0
   27.0800   52.2790   -5.0660 C   0  0  0  0  0  0  0  0  0  0  0  0
   25.7130   53.4790   -3.4740 C   0  0  0  0  0  0  0  0  0  0  0  0
   25.4950   54.8860   -2.5120 Cl  0  0  0  0  0  0  0  0  0  0  0  0
   28.3620   52.3000   -5.8810 C   0  0  2  0  0  0  0  0  0  0  0  0
   26.8440   53.3920   -4.2630 C   0  0  0  0  0  0  0  0  0  0  0  0
   28.2270   52.5670   -7.3760 C   0  0  0  0  0  0  0  0  0  0  0  0
   29.1090   51.0890   -5.4160 C   0  0  0  0  0  0  0  0  0  0  0  0
   29.3190   53.3050   -7.8140 O   0  0  0  0  0  0  0  0  0  0  0  0
   27.3080   52.2250   -8.1210 O   0  0  0  0  0  0  0  0  0  0  0  0
   29.4550   49.9330   -6.0830 C   0  0  0  0  0  0  0  0  0  0  0  0
   29.5720   51.0220   -4.1160 N   0  0  0  0  0  0  0  0  0  0  0  0
   29.4050   54.6410   -7.1840 N   0  0  0  0  0  0  0  0  0  0  0  0
   30.1280   49.1690   -5.1640 N   0  0  0  0  0  0  0  0  0  0  0  0
   30.1720   49.8670   -3.9960 C   0  0  0  0  0  0  0  0  0  0  0  0
  1  2  1  0
  2  3  2  0
  2  4  1  0
  4  5  2  0
  3  6  1  0
  6  7  1  0
  5  8  1  0
  5  9  1  0
  6  9  2  0
  8 10  1  6
  8 11  1  0
 10 12  1  0
 10 13  2  0
 11 14  2  0
 11 15  1  0
 12 16  1  0
 14 17  1  0
 15 18  2  0
 17 18  1  0
M  END
