mac-x0226-mac-x0142
     RDKit          3D

 31 36  0  0  0  0  0  0  0  0999 V2000
   33.4230   46.8370   -6.0920 O   0  0  0  0  0  0  0  0  0  0  0  0
   33.1910   45.4340   -6.0890 C   0  0  0  0  0  0  0  0  0  0  0  0
   33.6250   45.0100   -7.3730 O   0  0  0  0  0  0  0  0  0  0  0  0
   33.9890   44.7900   -5.0080 C   0  0  0  0  0  0  0  0  0  0  0  0
   31.6940   45.2220   -5.9440 C   0  0  1  0  0  0  0  0  0  0  0  0
   34.1230   43.4060   -4.7840 C   0  0  0  0  0  0  0  0  0  0  0  0
   34.7470   45.3620   -4.0040 C   0  0  0  0  0  0  0  0  0  0  0  0
   31.1490   43.9530   -5.2990 C   0  0  0  0  0  0  0  0  0  0  0  0
   30.8640   45.2820   -4.6430 C   0  0  1  0  0  0  0  0  0  0  0  0
   34.8890   43.1240   -3.7380 N   0  0  0  0  0  0  0  0  0  0  0  0
   35.2770   44.3310   -3.2520 N   0  0  0  0  0  0  0  0  0  0  0  0
   31.6280   45.7050   -3.4140 C   0  0  0  0  0  0  0  0  0  0  0  0
   29.4330   45.7560   -4.5980 C   0  0  0  0  0  0  0  0  0  0  0  0
   36.1150   44.4100   -2.1130 C   0  0  0  0  0  0  0  0  0  0  0  0
   31.6300   47.2220   -3.3390 C   0  0  0  0  0  0  0  0  0  0  0  0
   29.3840   47.2180   -4.4440 N   0  0  0  0  0  0  0  0  0  0  0  0
   36.8320   45.5890   -1.8640 C   0  0  0  0  0  0  0  0  0  0  0  0
   36.2400   43.3270   -1.2320 C   0  0  0  0  0  0  0  0  0  0  0  0
   30.1940   47.7420   -3.3080 C   0  0  0  0  0  0  0  0  0  0  0  0
   29.1020   48.0170   -5.5690 C   0  0  0  0  0  0  0  0  0  0  0  0
   37.6640   45.6820   -0.7450 C   0  0  0  0  0  0  0  0  0  0  0  0
   37.0750   43.4290   -0.1140 C   0  0  0  0  0  0  0  0  0  0  0  0
   28.9040   47.4500   -6.8250 N   0  0  0  0  0  0  0  0  0  0  0  0
   28.9940   49.3610   -5.5410 C   0  0  0  0  0  0  0  0  0  0  0  0
   37.7850   44.6040    0.1290 C   0  0  0  0  0  0  0  0  0  0  0  0
   28.6280   48.1970   -7.9370 C   0  0  0  0  0  0  0  0  0  0  0  0
   28.6880   50.1090   -6.7900 C   0  0  0  0  0  0  0  0  0  0  0  0
   29.0940   50.4010   -4.5620 C   0  0  0  0  0  0  0  0  0  0  0  0
   28.5110   49.4820   -7.9890 N   0  0  0  0  0  0  0  0  0  0  0  0
   28.6170   51.3980   -6.5950 N   0  0  0  0  0  0  0  0  0  0  0  0
   28.8670   51.5430   -5.2360 C   0  0  0  0  0  0  0  0  0  0  0  0
  2  1  1  0
  2  3  1  0
  2  4  1  0
  5  2  1  1
  4  6  1  0
  4  7  2  0
  5  8  1  0
  5  9  1  0
  9  8  1  1
  6 10  2  0
  7 11  1  0
 10 11  1  0
  9 12  1  0
  9 13  1  0
 11 14  1  0
 12 15  1  0
 13 16  1  0
 14 17  2  0
 14 18  1  0
 15 19  1  0
 16 19  1  0
 16 20  1  0
 17 21  1  0
 18 22  2  0
 20 23  1  0
 20 24  2  0
 21 25  2  0
 22 25  1  0
 23 26  1  0
 24 27  1  0
 24 28  1  0
 26 29  2  0
 27 29  1  0
 27 30  2  0
 28 31  2  0
 30 31  1  0
M  END
