mac-x0584-mac-x0439
     RDKit          3D

 30 35  0  0  0  0  0  0  0  0999 V2000
   29.9390   40.7870   -6.1800 O   0  0  0  0  0  0  0  0  0  0  0  0
   30.3620   42.0710   -6.1310 C   0  0  0  0  0  0  0  0  0  0  0  0
   31.1300   42.5450   -6.9510 O   0  0  0  0  0  0  0  0  0  0  0  0
   29.7830   42.8230   -4.9800 C   0  0  0  0  0  0  0  0  0  0  0  0
   29.1630   44.0010   -5.1270 C   0  0  0  0  0  0  0  0  0  0  0  0
   29.8420   42.3820   -3.6720 N   0  0  0  0  0  0  0  0  0  0  0  0
   28.7160   44.4950   -3.7970 C   0  0  1  0  0  0  0  0  0  0  0  0
   29.2430   43.3210   -3.0020 C   0  0  0  0  0  0  0  0  0  0  0  0
   29.3480   45.7380   -3.2280 C   0  0  0  0  0  0  0  0  0  0  0  0
   29.0280   43.3820   -1.5510 C   0  0  0  0  0  0  0  0  0  0  0  0
   29.6800   46.8130   -4.2470 C   0  0  2  0  0  0  0  0  0  0  0  0
   29.5590   45.7580   -1.8900 C   0  0  0  0  0  0  0  0  0  0  0  0
   29.1940   44.6200   -1.0470 C   0  0  0  0  0  0  0  0  0  0  0  0
   30.6710   46.2350   -5.2830 C   0  0  0  0  0  0  0  0  0  0  0  0
   30.3440   48.1530   -3.8630 C   0  0  0  0  0  0  0  0  0  0  0  0
   31.7160   47.3340   -5.4830 C   0  0  1  0  0  0  0  0  0  0  0  0
   30.9560   48.5540   -5.1510 N   0  0  0  0  0  0  0  0  0  0  0  0
   33.0460   46.9820   -4.8320 C   0  0  0  0  0  0  0  0  0  0  0  0
   30.0580   49.0860   -6.0740 C   0  0  0  0  0  0  0  0  0  0  0  0
   33.9140   45.7290   -5.1470 C   0  0  0  0  0  0  0  0  0  0  0  0
   33.0760   46.5200   -3.3500 C   0  0  0  0  0  0  0  0  0  0  0  0
   29.7720   48.4460   -7.2640 N   0  0  0  0  0  0  0  0  0  0  0  0
   29.4120   50.2420   -5.8720 C   0  0  0  0  0  0  0  0  0  0  0  0
   34.4010   45.8010   -3.6840 C   0  0  0  0  0  0  0  0  0  0  0  0
   28.8830   48.9570   -8.1690 C   0  0  0  0  0  0  0  0  0  0  0  0
   28.4660   50.7460   -6.8930 C   0  0  0  0  0  0  0  0  0  0  0  0
   29.3640   51.2340   -4.8500 C   0  0  0  0  0  0  0  0  0  0  0  0
   28.2220   50.0600   -8.0510 N   0  0  0  0  0  0  0  0  0  0  0  0
   27.9240   51.8810   -6.5440 N   0  0  0  0  0  0  0  0  0  0  0  0
   28.4890   52.1500   -5.3010 C   0  0  0  0  0  0  0  0  0  0  0  0
  1  2  1  0
  2  3  2  0
  2  4  1  0
  4  5  2  0
  4  6  1  0
  7  5  1  6
  6  8  2  0
  7  8  1  0
  7  9  1  0
  8 10  1  0
 11  9  1  1
  9 12  2  0
 10 13  2  0
 12 13  1  0
 11 14  1  0
 11 15  1  0
 14 16  1  0
 15 17  1  0
 16 17  1  0
 16 18  1  1
 17 19  1  0
 18 20  1  0
 18 21  1  0
 19 22  1  0
 19 23  2  0
 20 24  1  0
 21 24  1  0
 22 25  1  0
 23 26  1  0
 23 27  1  0
 25 28  2  0
 26 28  1  0
 26 29  2  0
 27 30  2  0
 29 30  1  0
M  END
