mac-x0348-mac-x0555
     RDKit          3D

 28 31  0  0  0  0  0  0  0  0999 V2000
   27.4610   44.6510   -0.5200 C   0  0  0  0  0  0  0  0  0  0  0  0
   28.3460   45.4260   -1.3590 N   0  0  0  0  0  0  0  0  0  0  0  0
   28.5740   45.1780   -2.6850 C   0  0  0  0  0  0  0  0  0  0  0  0
   29.0800   46.5150   -0.9430 C   0  0  0  0  0  0  0  0  0  0  0  0
   29.4750   46.1160   -3.1600 C   0  0  0  0  0  0  0  0  0  0  0  0
   29.7980   46.9680   -2.0520 C   0  0  0  0  0  0  0  0  0  0  0  0
   29.1700   47.1360    0.3120 C   0  0  0  0  0  0  0  0  0  0  0  0
   30.0070   46.2210   -4.5680 C   0  0  2  0  0  0  0  0  0  0  0  0
   30.6430   48.0920   -1.8930 C   0  0  0  0  0  0  0  0  0  0  0  0
   30.0130   48.2450    0.4390 C   0  0  0  0  0  0  0  0  0  0  0  0
   31.5280   46.4760   -4.5300 C   0  0  0  0  0  0  0  0  0  0  0  0
   29.2420   47.2800   -5.4130 C   0  0  0  0  0  0  0  0  0  0  0  0
   30.7390   48.7160   -0.6470 C   0  0  0  0  0  0  0  0  0  0  0  0
   32.2240   45.9720   -5.7640 C   0  0  0  0  0  0  0  0  0  0  0  0
   30.0650   48.4830   -5.9150 C   0  0  0  0  0  0  0  0  0  0  0  0
   31.7040   45.3840   -6.7000 O   0  0  0  0  0  0  0  0  0  0  0  0
   33.5460   46.2250   -5.7690 O   0  0  0  0  0  0  0  0  0  0  0  0
   29.7630   49.8010   -5.2430 C   0  0  0  0  0  0  0  0  0  0  0  0
   29.4120   49.8630   -3.8940 C   0  0  0  0  0  0  0  0  0  0  0  0
   29.8320   50.9950   -5.9690 C   0  0  0  0  0  0  0  0  0  0  0  0
   29.5550   52.2320   -5.3570 C   0  0  0  0  0  0  0  0  0  0  0  0
   29.1370   51.0950   -3.2870 C   0  0  0  0  0  0  0  0  0  0  0  0
   29.6210   53.4340   -6.0770 C   0  0  0  0  0  0  0  0  0  0  0  0
   29.2030   52.2860   -3.9950 C   0  0  0  0  0  0  0  0  0  0  0  0
   29.3430   54.6470   -5.4540 C   0  0  0  0  0  0  0  0  0  0  0  0
   28.9320   53.4480   -3.3730 N   0  0  0  0  0  0  0  0  0  0  0  0
   29.4050   55.8510   -6.1620 N   0  0  0  0  0  0  0  0  0  0  0  0
   29.0070   54.5850   -4.1070 C   0  0  0  0  0  0  0  0  0  0  0  0
  1  2  1  0
  2  3  1  0
  2  4  1  0
  3  5  2  0
  4  6  2  0
  5  6  1  0
  4  7  1  0
  5  8  1  0
  6  9  1  0
  7 10  2  0
  8 11  1  1
  8 12  1  0
  9 13  2  0
 10 13  1  0
 11 14  1  0
 12 15  1  0
 14 16  2  0
 14 17  1  0
 15 18  1  0
 18 19  2  0
 18 20  1  0
 20 21  2  0
 19 22  1  0
 21 23  1  0
 21 24  1  0
 22 24  2  0
 23 25  2  0
 24 26  1  0
 25 27  1  0
 25 28  1  0
 26 28  2  0
M  END
