mac-x0138-mac-x0365
     RDKit          3D

 16 17  0  0  0  0  0  0  0  0999 V2000
   30.7790   47.5510   -4.2600 C   0  0  0  0  0  0  0  0  0  0  0  0
   30.0090   46.4600   -4.2330 C   0  0  0  0  0  0  0  0  0  0  0  0
   30.4430   45.2200   -3.8500 O   0  0  0  0  0  0  0  0  0  0  0  0
   30.4740   48.8490   -4.6230 N   0  0  0  0  0  0  0  0  0  0  0  0
   30.2320   49.9510   -3.6700 C   0  0  0  0  0  0  0  0  0  0  0  0
   30.0170   49.2660   -5.9510 C   0  0  2  0  0  0  0  0  0  0  0  0
   29.4390   51.0200   -4.4500 C   0  0  2  0  0  0  0  0  0  0  0  0
   28.8850   50.2380   -5.6300 C   0  0  1  0  0  0  0  0  0  0  0  0
   29.5680   48.2990   -6.9240 N   0  0  0  0  0  0  0  0  0  0  0  0
   30.2360   52.1380   -4.7970 O   0  0  0  0  0  0  0  0  0  0  0  0
   28.4350   51.5260   -3.6930 F   0  0  0  0  0  0  0  0  0  0  0  0
   28.4960   51.0230   -6.8730 C   0  0  1  0  0  0  0  0  0  0  0  0
   28.5950   48.8330   -7.8150 C   0  0  2  0  0  0  0  0  0  0  0  0
   29.3510   52.1790   -7.0620 N   0  0  0  0  0  0  0  0  0  0  0  0
   28.8070   48.2250   -9.0830 N   0  0  0  0  0  0  0  0  0  0  0  0
   28.7180   50.2390   -8.0720 N   0  0  0  0  0  0  0  0  0  0  0  0
  1  2  2  3
  2  3  1  0
  1  4  1  0
  4  5  1  0
  4  6  1  0
  5  7  1  0
  6  8  1  0
  7  8  1  0
  6  9  1  6
  7 10  1  6
  7 11  1  0
  8 12  1  6
  9 13  1  0
 12 14  1  6
 13 15  1  6
 12 16  1  0
 13 16  1  0
M  END
