mac-x0213-mac-x0159
     RDKit          3D

 24 27  0  0  0  0  0  0  0  0999 V2000
   34.2780   45.3030   -5.3630 O   0  0  0  0  0  0  0  0  0  0  0  0
   33.0550   44.7360   -5.2290 C   0  0  0  0  0  0  0  0  0  0  0  0
   32.6930   43.8130   -5.9440 O   0  0  0  0  0  0  0  0  0  0  0  0
   32.2360   45.3630   -4.1280 C   0  0  1  0  0  0  0  0  0  0  0  0
   31.0580   46.2070   -4.6540 C   0  0  0  0  0  0  0  0  0  0  0  0
   31.6170   44.2920   -3.2180 C   0  0  0  0  0  0  0  0  0  0  0  0
   30.0740   46.1030   -3.5170 C   0  0  0  0  0  0  0  0  0  0  0  0
   30.4050   45.0080   -2.7070 C   0  0  0  0  0  0  0  0  0  0  0  0
   28.9750   46.9100   -3.2230 C   0  0  0  0  0  0  0  0  0  0  0  0
   29.6570   44.6830   -1.5840 C   0  0  0  0  0  0  0  0  0  0  0  0
   28.5640   48.1100   -4.0630 C   0  0  0  0  0  0  0  0  0  0  0  0
   28.2190   46.5740   -2.0810 C   0  0  0  0  0  0  0  0  0  0  0  0
   28.5500   45.4750   -1.2650 C   0  0  0  0  0  0  0  0  0  0  0  0
   27.7140   45.1550   -0.0600 C   0  0  0  0  0  0  0  0  0  0  0  0
   29.6230   48.6190   -4.9530 N   0  0  0  0  0  0  0  0  0  0  0  0
   30.2390   49.8440   -4.4300 C   0  0  0  0  0  0  0  0  0  0  0  0
   29.1700   48.8270   -6.3090 C   0  0  2  0  0  0  0  0  0  0  0  0
   29.4570   51.0760   -4.6250 N   0  0  0  0  0  0  0  0  0  0  0  0
   28.2310   49.9840   -6.4750 C   0  0  1  0  0  0  0  0  0  0  0  0
   28.3410   47.7760   -6.8780 N   0  0  0  0  0  0  0  0  0  0  0  0
   29.0040   51.2320   -5.9940 C   0  0  1  0  0  0  0  0  0  0  0  0
   27.9310   49.8670   -7.9220 N   0  0  0  0  0  0  0  0  0  0  0  0
   27.8690   48.4080   -8.1140 C   0  0  0  0  0  0  0  0  0  0  0  0
   28.1540   52.4060   -5.9440 N   0  0  0  0  0  0  0  0  0  0  0  0
  1  2  1  0
  2  3  2  0
  4  2  1  6
  4  5  1  0
  4  6  1  0
  5  7  1  0
  6  8  1  0
  7  8  2  0
  7  9  1  0
  8 10  1  0
  9 11  1  0
  9 12  2  0
 10 13  2  0
 12 13  1  0
 13 14  1  0
 11 15  1  0
 15 16  1  0
 15 17  1  0
 16 18  1  0
 17 19  1  0
 17 20  1  1
 18 21  1  0
 19 21  1  0
 19 22  1  6
 20 23  1  0
 22 23  1  0
 21 24  1  1
M  END
