mac-x0333-mac-x0301
     RDKit          3D

 16 18  0  0  0  0  0  0  0  0999 V2000
   30.2190   47.9410   -3.9760 C   0  0  0  0  0  0  0  0  0  0  0  0
   29.7910   46.9200   -4.7620 O   0  0  0  0  0  0  0  0  0  0  0  0
   30.6670   47.6380   -2.8770 O   0  0  0  0  0  0  0  0  0  0  0  0
   30.1160   49.3450   -4.6080 C   0  0  2  0  0  0  0  0  0  0  0  0
   29.6430   50.4730   -3.6410 C   0  0  0  0  0  0  0  0  0  0  0  0
   29.5700   49.4210   -6.0850 C   0  0  2  0  0  0  0  0  0  0  0  0
   29.8930   51.8160   -4.2980 C   0  0  1  0  0  0  0  0  0  0  0  0
   29.4490   50.9050   -6.5930 C   0  0  0  0  0  0  0  0  0  0  0  0
   28.3090   48.7830   -6.3820 O   0  0  0  0  0  0  0  0  0  0  0  0
   30.5380   48.6390   -6.9820 C   0  0  0  0  0  0  0  0  0  0  0  0
   29.0510   51.9270   -5.5190 C   0  0  2  0  0  0  0  0  0  0  0  0
   29.5560   52.9900   -3.5740 O   0  0  0  0  0  0  0  0  0  0  0  0
   29.8570   47.4560   -7.4020 O   0  0  0  0  0  0  0  0  0  0  0  0
   28.5330   47.9170   -7.4980 C   0  0  0  0  0  0  0  0  0  0  0  0
   29.1970   53.3030   -5.8780 O   0  0  0  0  0  0  0  0  0  0  0  0
   29.4520   53.9620   -4.6240 C   0  0  0  0  0  0  0  0  0  0  0  0
  1  2  1  0
  1  3  2  0
  4  1  1  1
  4  5  1  0
  4  6  1  0
  7  5  1  1
  6  8  1  6
  6  9  1  0
  6 10  1  0
  7 11  1  0
 11  8  1  6
  7 12  1  0
 10 13  1  0
  9 14  1  0
 13 14  1  0
 11 15  1  0
 12 16  1  0
 15 16  1  0
M  END
