mac-x0302-mac-x0411
     RDKit          3D

 26 27  0  0  0  0  0  0  0  0999 V2000
   30.4560   44.8560   -4.6510 O   0  0  0  0  0  0  0  0  0  0  0  0
   30.9120   46.0250   -5.1550 C   0  0  0  0  0  0  0  0  0  0  0  0
   32.1520   46.2200   -5.4570 N   0  0  0  0  0  0  0  0  0  0  0  0
   29.8560   47.1040   -5.3370 C   0  0  0  0  0  0  0  0  0  0  0  0
   30.3600   48.3990   -4.9100 N   0  0  0  0  0  0  0  0  0  0  0  0
   33.0000   45.1580   -5.2240 C   0  0  0  0  0  0  0  0  0  0  0  0
   29.5890   49.2630   -4.1660 C   0  0  0  0  0  0  0  0  0  0  0  0
   33.5030   44.4990   -6.1360 O   0  0  0  0  0  0  0  0  0  0  0  0
   33.2740   44.8380   -3.7460 C   0  0  0  0  0  0  0  0  0  0  0  0
   29.1550   48.9490   -3.0580 O   0  0  0  0  0  0  0  0  0  0  0  0
   34.6480   44.5140   -3.4710 O   0  0  0  0  0  0  0  0  0  0  0  0
   29.2980   50.5950   -4.7530 C   0  0  0  0  0  0  0  0  0  0  0  0
   29.5750   51.7360   -3.9870 C   0  0  0  0  0  0  0  0  0  0  0  0
   28.7600   50.7350   -6.0400 C   0  0  0  0  0  0  0  0  0  0  0  0
   35.4270   45.6290   -3.2340 C   0  0  0  0  0  0  0  0  0  0  0  0
   29.3130   52.9960   -4.5130 C   0  0  0  0  0  0  0  0  0  0  0  0
   28.5030   52.0060   -6.5540 C   0  0  0  0  0  0  0  0  0  0  0  0
   35.0810   46.5880   -2.2640 C   0  0  0  0  0  0  0  0  0  0  0  0
   36.6030   45.8120   -3.9800 C   0  0  0  0  0  0  0  0  0  0  0  0
   29.5670   54.1330   -3.8060 O   0  0  0  0  0  0  0  0  0  0  0  0
   37.1030   44.6780   -5.1830 Cl  0  0  0  0  0  0  0  0  0  0  0  0
   33.6640   46.4570   -1.2820 Cl  0  0  0  0  0  0  0  0  0  0  0  0
   28.7800   53.1380   -5.7910 C   0  0  0  0  0  0  0  0  0  0  0  0
   35.8960   47.7050   -2.0570 C   0  0  0  0  0  0  0  0  0  0  0  0
   37.4120   46.9330   -3.7650 C   0  0  0  0  0  0  0  0  0  0  0  0
   37.0570   47.8760   -2.8080 C   0  0  0  0  0  0  0  0  0  0  0  0
  1  2  1  0
  2  3  2  3
  2  4  1  0
  4  5  1  0
  3  6  1  0
  5  7  1  0
  6  8  2  0
  6  9  1  0
  7 10  2  0
  9 11  1  0
  7 12  1  0
 12 13  2  0
 12 14  1  0
 11 15  1  0
 13 16  1  0
 14 17  2  0
 15 18  2  0
 15 19  1  0
 16 20  1  0
 19 21  1  0
 18 22  1  0
 16 23  2  0
 17 23  1  0
 18 24  1  0
 19 25  2  0
 24 26  2  0
 25 26  1  0
M  END
