mac-x0354-mac-x0567
     RDKit          3D

 27 30  0  0  0  0  0  0  0  0999 V2000
   35.4160   43.4260   -1.8030 C   0  0  0  0  0  0  0  0  0  0  0  0
   34.6300   43.7180   -2.9840 N   0  0  0  0  0  0  0  0  0  0  0  0
   33.6790   42.8490   -3.3780 N   0  0  0  0  0  0  0  0  0  0  0  0
   34.7330   44.8230   -3.7970 C   0  0  0  0  0  0  0  0  0  0  0  0
   33.1620   43.4170   -4.4700 C   0  0  0  0  0  0  0  0  0  0  0  0
   33.7690   44.6560   -4.7950 C   0  0  0  0  0  0  0  0  0  0  0  0
   35.6930   45.9020   -3.5710 C   0  0  0  0  0  0  0  0  0  0  0  0
   33.4890   45.5720   -5.8930 C   0  0  0  0  0  0  0  0  0  0  0  0
   37.0680   45.6340   -3.5240 C   0  0  0  0  0  0  0  0  0  0  0  0
   35.2460   47.2170   -3.4000 C   0  0  0  0  0  0  0  0  0  0  0  0
   32.3220   45.6950   -6.4340 N   0  0  0  0  0  0  0  0  0  0  0  0
   34.5310   46.3170   -6.3240 O   0  0  0  0  0  0  0  0  0  0  0  0
   37.9790   46.6700   -3.3110 C   0  0  0  0  0  0  0  0  0  0  0  0
   36.1590   48.2510   -3.1870 C   0  0  0  0  0  0  0  0  0  0  0  0
   32.2360   46.7150   -7.5080 C   0  0  0  0  0  0  0  0  0  0  0  0
   37.5250   47.9780   -3.1430 C   0  0  0  0  0  0  0  0  0  0  0  0
   30.9780   46.6110   -8.3970 C   0  0  0  0  0  0  0  0  0  0  0  0
   29.7160   47.0620   -7.7740 N   0  0  0  0  0  0  0  0  0  0  0  0
   29.3850   48.3620   -7.4820 C   0  0  0  0  0  0  0  0  0  0  0  0
   28.8600   49.2610   -8.3870 N   0  0  0  0  0  0  0  0  0  0  0  0
   29.4600   49.0870   -6.3160 C   0  0  0  0  0  0  0  0  0  0  0  0
   28.5970   50.4930   -7.8840 N   0  0  0  0  0  0  0  0  0  0  0  0
   28.9600   50.4130   -6.5930 C   0  0  0  0  0  0  0  0  0  0  0  0
   29.9320   48.6200   -5.0900 C   0  0  0  0  0  0  0  0  0  0  0  0
   28.9100   51.3880   -5.5780 C   0  0  0  0  0  0  0  0  0  0  0  0
   29.8710   49.6170   -4.0950 C   0  0  0  0  0  0  0  0  0  0  0  0
   29.3830   50.9410   -4.3250 C   0  0  0  0  0  0  0  0  0  0  0  0
  1  2  1  0
  2  3  1  0
  2  4  1  0
  3  5  2  0
  4  6  2  0
  5  6  1  0
  4  7  1  0
  6  8  1  0
  7  9  2  0
  7 10  1  0
  8 11  2  3
  8 12  1  0
  9 13  1  0
 10 14  2  0
 11 15  1  0
 13 16  2  0
 14 16  1  0
 15 17  1  0
 17 18  1  0
 18 19  1  0
 19 20  1  0
 19 21  2  0
 20 22  1  0
 21 23  1  0
 22 23  2  0
 21 24  1  0
 23 25  1  0
 24 26  2  0
 25 27  2  0
 26 27  1  0
M  END
