mac-x0455-mac-x0341
     RDKit          3D

 25 27  0  0  0  0  0  0  0  0999 V2000
   30.4210   48.3790   -3.6140 C   0  0  0  0  0  0  0  0  0  0  0  0
   30.9290   46.9670   -3.9480 C   0  0  1  0  0  0  0  0  0  0  0  0
   30.1830   46.1120   -3.0490 O   0  0  0  0  0  0  0  0  0  0  0  0
   30.5770   46.6010   -5.4490 C   0  0  0  0  0  0  0  0  0  0  0  0
   32.4260   46.7830   -3.6760 C   0  0  0  0  0  0  0  0  0  0  0  0
   29.1970   46.2500   -5.5490 O   0  0  0  0  0  0  0  0  0  0  0  0
   31.2760   45.4220   -5.8320 O   0  0  0  0  0  0  0  0  0  0  0  0
   31.0020   47.7660   -6.3510 C   0  0  0  0  0  0  0  0  0  0  0  0
   33.3190   47.8660   -3.5650 C   0  0  0  0  0  0  0  0  0  0  0  0
   32.9600   45.4880   -3.5310 C   0  0  0  0  0  0  0  0  0  0  0  0
   34.6770   47.6620   -3.3200 C   0  0  0  0  0  0  0  0  0  0  0  0
   34.3190   45.2840   -3.2860 C   0  0  0  0  0  0  0  0  0  0  0  0
   30.1910   49.0440   -6.4850 C   0  0  0  0  0  0  0  0  0  0  0  0
   35.1790   46.3720   -3.1810 C   0  0  0  0  0  0  0  0  0  0  0  0
   29.3210   49.1360   -7.5700 C   0  0  0  0  0  0  0  0  0  0  0  0
   30.2980   50.1410   -5.5970 C   0  0  0  0  0  0  0  0  0  0  0  0
   29.5510   51.3040   -5.8520 C   0  0  0  0  0  0  0  0  0  0  0  0
   28.5910   50.2950   -7.8040 C   0  0  0  0  0  0  0  0  0  0  0  0
   29.6080   52.5070   -5.0050 C   0  0  0  0  0  0  0  0  0  0  0  0
   28.7090   51.3920   -6.9600 C   0  0  0  0  0  0  0  0  0  0  0  0
   29.9240   52.4850   -3.8200 O   0  0  0  0  0  0  0  0  0  0  0  0
   29.2680   53.6580   -5.6720 N   0  0  0  0  0  0  0  0  0  0  0  0
   27.9890   52.5550   -7.2730 N   0  0  0  0  0  0  0  0  0  0  0  0
   28.3120   53.6440   -6.6450 C   0  0  0  0  0  0  0  0  0  0  0  0
   27.7050   54.8160   -6.9340 N   0  0  0  0  0  0  0  0  0  0  0  0
  2  1  1  1
  2  3  1  0
  2  4  1  0
  2  5  1  0
  4  6  1  0
  4  7  1  0
  4  8  1  0
  5  9  2  0
  5 10  1  0
  9 11  1  0
 10 12  2  0
  8 13  1  0
 11 14  2  0
 12 14  1  0
 13 15  2  0
 13 16  1  0
 16 17  2  0
 15 18  1  0
 17 19  1  0
 17 20  1  0
 18 20  2  0
 19 21  2  0
 19 22  1  0
 20 23  1  0
 22 24  1  0
 23 24  2  0
 24 25  1  0
M  END
