mac-x0433-mac-x0412
     RDKit          3D

 13 14  0  0  0  0  0  0  0  0999 V2000
   28.7550   50.2890   -6.3130 C   0  0  0  0  0  0  0  0  0  0  0  0
   29.3210   51.7170   -6.4980 C   0  0  0  0  0  0  0  0  0  0  0  0
   30.4870   51.6400   -7.4630 C   0  0  0  0  0  0  0  0  0  0  0  0
   29.8910   52.2580   -5.1580 C   0  0  2  0  0  0  0  0  0  0  0  0
   28.2670   52.5700   -7.1520 C   0  0  0  0  0  0  0  0  0  0  0  0
   29.5920   51.4010   -3.9930 N   0  0  0  0  0  0  0  0  0  0  0  0
   29.4050   53.6680   -4.6740 C   0  0  2  0  0  0  0  0  0  0  0  0
   27.8100   53.6840   -6.5890 C   0  0  0  0  0  0  0  0  0  0  0  0
   30.4630   54.7540   -4.8830 C   0  0  0  0  0  0  0  0  0  0  0  0
   29.9850   52.2630   -2.9490 C   0  0  1  0  0  0  0  0  0  0  0  0
   29.2550   53.4620   -3.2180 N   0  0  0  0  0  0  0  0  0  0  0  0
   28.2310   54.1560   -5.3780 N   0  0  0  0  0  0  0  0  0  0  0  0
   29.4650   51.7270   -1.7460 N   0  0  0  0  0  0  0  0  0  0  0  0
  2  1  1  0
  2  3  1  0
  2  4  1  0
  2  5  1  0
  4  6  1  1
  4  7  1  0
  5  8  2  0
  7  9  1  1
  6 10  1  0
  7 11  1  0
 10 11  1  0
  7 12  1  0
  8 12  1  0
 10 13  1  1
M  END
