mac-x0138-mac-x0305
     RDKit          3D

 14 15  0  0  0  0  0  0  0  0999 V2000
   30.5290   46.9920   -4.3750 C   0  0  0  0  0  0  0  0  0  0  0  0
   31.0460   46.0020   -5.1140 C   0  0  0  0  0  0  0  0  0  0  0  0
   31.2690   45.9660   -6.4600 O   0  0  0  0  0  0  0  0  0  0  0  0
   30.0750   48.2580   -4.7600 N   0  0  0  0  0  0  0  0  0  0  0  0
   30.0120   49.3670   -3.9260 C   0  0  0  0  0  0  0  0  0  0  0  0
   29.6040   48.7020   -5.9820 C   0  0  0  0  0  0  0  0  0  0  0  0
   29.5520   50.4460   -4.5190 N   0  0  0  0  0  0  0  0  0  0  0  0
   29.2940   50.0400   -5.8050 C   0  0  0  0  0  0  0  0  0  0  0  0
   29.4660   47.9960   -7.1210 N   0  0  0  0  0  0  0  0  0  0  0  0
   28.7920   50.7160   -6.9270 C   0  0  0  0  0  0  0  0  0  0  0  0
   28.9790   48.7360   -8.1280 C   0  0  0  0  0  0  0  0  0  0  0  0
   28.4410   52.0580   -6.9080 N   0  0  0  0  0  0  0  0  0  0  0  0
   28.8050   48.0960   -9.3370 N   0  0  0  0  0  0  0  0  0  0  0  0
   28.6430   50.0350   -8.0830 N   0  0  0  0  0  0  0  0  0  0  0  0
  1  2  2  3
  2  3  1  0
  1  4  1  0
  4  5  1  0
  4  6  1  0
  5  7  2  0
  6  8  2  0
  7  8  1  0
  6  9  1  0
  8 10  1  0
  9 11  2  0
 10 12  1  0
 11 13  1  0
 10 14  2  0
 11 14  1  0
M  END
