mac-x0115-mac-x0190
     RDKit          3D

 27 30  0  0  0  0  0  0  0  0999 V2000
   27.9650   45.7670   -1.7930 C   0  0  0  0  0  0  0  0  0  0  0  0
   28.8990   44.6340   -2.2250 C   0  0  0  0  0  0  0  0  0  0  0  0
   28.1400   43.5750   -3.0320 C   0  0  0  0  0  0  0  0  0  0  0  0
   29.9430   45.2540   -2.9810 O   0  0  0  0  0  0  0  0  0  0  0  0
   30.3000   44.6150   -4.2130 C   0  0  0  0  0  0  0  0  0  0  0  0
   31.2470   45.5460   -5.0030 C   0  0  0  0  0  0  0  0  0  0  0  0
   30.6240   46.1760   -6.2020 N   0  0  0  0  0  0  0  0  0  0  0  0
   30.1830   45.4280   -7.3220 C   0  0  0  0  0  0  0  0  0  0  0  0
   30.3860   47.6330   -6.2860 C   0  0  1  0  0  0  0  0  0  0  0  0
   30.4260   43.8030   -7.6440 S   0  0  0  0  0  0  0  0  0  0  0  0
   29.4570   46.1600   -8.2620 N   0  0  0  0  0  0  0  0  0  0  0  0
   28.9290   47.7990   -6.6160 C   0  0  2  0  0  0  0  0  0  0  0  0
   30.5960   48.6280   -5.1440 C   0  0  0  0  0  0  0  0  0  0  0  0
   28.9290   47.4340   -8.0820 C   0  0  0  0  0  0  0  0  0  0  0  0
   28.4770   49.1500   -6.2030 N   0  0  0  0  0  0  0  0  0  0  0  0
   29.5310   49.7790   -5.3630 C   0  0  1  0  0  0  0  0  0  0  0  0
   28.5360   48.1370   -9.0050 O   0  0  0  0  0  0  0  0  0  0  0  0
   29.0340   50.1130   -3.9380 C   0  0  0  0  0  0  0  0  0  0  0  0
   30.0340   51.0650   -6.1810 C   0  0  0  0  0  0  0  0  0  0  0  0
   29.8010   52.3740   -5.4760 C   0  0  0  0  0  0  0  0  0  0  0  0
   28.9390   51.3540   -3.3930 C   0  0  0  0  0  0  0  0  0  0  0  0
   29.3080   52.4310   -4.2050 C   0  0  0  0  0  0  0  0  0  0  0  0
   30.0350   53.6420   -5.9560 N   0  0  0  0  0  0  0  0  0  0  0  0
   29.6980   54.4650   -4.9720 C   0  0  0  0  0  0  0  0  0  0  0  0
   29.2440   53.7550   -3.8770 N   0  0  0  0  0  0  0  0  0  0  0  0
   29.7700   55.9560   -4.9600 C   0  0  0  0  0  0  0  0  0  0  0  0
   28.5450   56.4720   -5.4890 O   0  0  0  0  0  0  0  0  0  0  0  0
  1  2  1  0
  2  3  1  0
  2  4  1  0
  4  5  1  0
  5  6  1  0
  6  7  1  0
  7  8  1  0
  7  9  1  0
  8 10  2  0
  8 11  1  0
  9 12  1  0
  9 13  1  1
 11 14  1  0
 12 14  1  0
 12 15  1  6
 16 13  1  1
 15 16  1  0
 14 17  2  0
 16 18  1  0
 16 19  1  0
 19 20  1  0
 18 21  2  0
 20 22  2  0
 21 22  1  0
 20 23  1  0
 23 24  2  0
 22 25  1  0
 24 25  1  0
 24 26  1  0
 26 27  1  0
M  END
