mac-x0361-mac-x0588
     RDKit          3D

 20 22  0  0  0  0  0  0  0  0999 V2000
   29.0080   53.7870   -6.0200 N   0  0  0  0  0  0  0  0  0  0  0  0
   29.3740   53.2320   -4.8290 C   0  0  0  0  0  0  0  0  0  0  0  0
   30.0290   53.9090   -4.0390 O   0  0  0  0  0  0  0  0  0  0  0  0
   28.9050   51.7730   -4.5560 C   0  0  1  0  0  0  0  0  0  0  0  0
   28.9410   50.8100   -5.8000 C   0  0  1  0  0  0  0  0  0  0  0  0
   29.4050   51.2090   -3.2400 C   0  0  0  0  0  0  0  0  0  0  0  0
   29.5220   51.4990   -6.9750 N   0  0  0  0  0  0  0  0  0  0  0  0
   29.4540   49.3140   -5.6060 C   0  0  1  0  0  0  0  0  0  0  0  0
   29.9880   50.0120   -3.1000 C   0  0  0  0  0  0  0  0  0  0  0  0
   30.2610   49.0630   -4.2400 C   0  0  1  0  0  0  0  0  0  0  0  0
   28.2860   48.3980   -5.9060 N   0  0  0  0  0  0  0  0  0  0  0  0
   30.3970   48.8800   -6.7480 C   0  0  0  0  0  0  0  0  0  0  0  0
   30.3290   47.6720   -3.7730 O   0  0  0  0  0  0  0  0  0  0  0  0
   29.9100   47.5740   -7.2190 N   0  0  0  0  0  0  0  0  0  0  0  0
   28.5050   47.8220   -7.2230 C   0  0  0  0  0  0  0  0  0  0  0  0
   29.1620   46.8800   -3.4810 C   0  0  2  0  0  0  0  0  0  0  0  0
   28.6480   47.1660   -2.1740 O   0  0  0  0  0  0  0  0  0  0  0  0
   29.5560   45.4020   -3.4410 C   0  0  0  0  0  0  0  0  0  0  0  0
   28.5820   44.8050   -2.4530 C   0  0  0  0  0  0  0  0  0  0  0  0
   28.3950   45.9400   -1.4710 C   0  0  0  0  0  0  0  0  0  0  0  0
  1  2  1  0
  2  3  2  0
  4  2  1  6
  4  5  1  0
  4  6  1  0
  5  7  1  6
  5  8  1  0
  6  9  2  0
  8 10  1  0
  9 10  1  0
  8 11  1  0
  8 12  1  6
 10 13  1  1
 12 14  1  0
 11 15  1  0
 14 15  1  0
 16 13  1  1
 16 17  1  0
 16 18  1  0
 18 19  1  0
 17 20  1  0
 19 20  1  0
M  END
