mac-x0392-mac-x0360
     RDKit          3D

 21 22  0  0  0  0  0  0  0  0999 V2000
   30.7080   47.4940   -7.5870 N   0  0  0  0  0  0  0  0  0  0  0  0
   29.7720   48.5360   -7.5230 C   0  0  0  0  0  0  0  0  0  0  0  0
   29.1580   49.0080   -8.6890 C   0  0  0  0  0  0  0  0  0  0  0  0
   29.4090   49.1490   -6.3120 C   0  0  0  0  0  0  0  0  0  0  0  0
   30.0000   48.7390   -4.9670 C   0  0  0  0  0  0  0  0  0  0  0  0
   28.4570   50.1870   -6.3590 C   0  0  0  0  0  0  0  0  0  0  0  0
   28.2430   50.0040   -8.7440 N   0  0  0  0  0  0  0  0  0  0  0  0
   29.1240   47.8150   -4.3040 O   0  0  0  0  0  0  0  0  0  0  0  0
   31.2060   47.9650   -5.1180 O   0  0  0  0  0  0  0  0  0  0  0  0
   30.2730   50.3530   -3.9830 S   0  0  0  0  0  0  0  0  0  0  0  0
   27.9120   50.5720   -7.5730 C   0  0  0  0  0  0  0  0  0  0  0  0
   30.9780   50.0050   -2.7590 O   0  0  0  0  0  0  0  0  0  0  0  0
   29.0710   51.1580   -3.8830 O   0  0  0  0  0  0  0  0  0  0  0  0
   31.4260   51.2930   -4.9700 C   0  0  0  0  0  0  0  0  0  0  0  0
   32.7440   50.8440   -5.0990 C   0  0  0  0  0  0  0  0  0  0  0  0
   31.0020   52.4700   -5.6010 C   0  0  0  0  0  0  0  0  0  0  0  0
   33.6390   51.5850   -5.8680 C   0  0  0  0  0  0  0  0  0  0  0  0
   31.9180   53.1930   -6.3660 C   0  0  0  0  0  0  0  0  0  0  0  0
   31.4190   54.6440   -7.1480 Cl  0  0  0  0  0  0  0  0  0  0  0  0
   35.2660   51.0460   -6.0360 Cl  0  0  0  0  0  0  0  0  0  0  0  0
   33.2340   52.7570   -6.5030 C   0  0  0  0  0  0  0  0  0  0  0  0
  1  2  1  0
  2  3  2  0
  2  4  1  0
  4  5  1  0
  4  6  2  0
  3  7  1  0
  5  8  1  0
  5  9  1  0
  5 10  1  0
  6 11  1  0
  7 11  2  0
 10 12  2  0
 10 13  2  0
 10 14  1  0
 14 15  2  0
 14 16  1  0
 15 17  1  0
 16 18  2  0
 18 19  1  0
 17 20  1  0
 17 21  2  0
 18 21  1  0
M  END
