mac-x0387-mac-x0193
     RDKit          3D

 27 29  0  0  0  0  0  0  0  0999 V2000
   28.0610   51.7510   -7.3840 N   0  0  0  0  0  0  0  0  0  0  0  0
   28.3400   50.3780   -7.4860 C   0  0  0  0  0  0  0  0  0  0  0  0
   28.0630   49.8270   -8.6810 N   0  0  0  0  0  0  0  0  0  0  0  0
   28.8740   49.6470   -6.3920 C   0  0  0  0  0  0  0  0  0  0  0  0
   29.1280   48.2630   -6.5710 C   0  0  0  0  0  0  0  0  0  0  0  0
   28.3110   48.5150   -8.8280 C   0  0  0  0  0  0  0  0  0  0  0  0
   29.1630   50.2340   -5.1360 C   0  0  0  0  0  0  0  0  0  0  0  0
   28.8290   47.7110   -7.8290 C   0  0  0  0  0  0  0  0  0  0  0  0
   29.6650   47.5040   -5.4910 C   0  0  0  0  0  0  0  0  0  0  0  0
   29.6870   49.4860   -4.0860 C   0  0  0  0  0  0  0  0  0  0  0  0
   29.9690   46.0190   -5.5930 C   0  0  0  0  0  0  0  0  0  0  0  0
   29.9360   48.1340   -4.2610 C   0  0  0  0  0  0  0  0  0  0  0  0
   31.3360   45.7550   -6.2340 C   0  0  0  0  0  0  0  0  0  0  0  0
   32.0740   44.8140   -5.3810 N   0  0  0  0  0  0  0  0  0  0  0  0
   33.3260   44.6600   -5.6310 C   0  0  0  0  0  0  0  0  0  0  0  0
   33.8190   45.3850   -6.6470 O   0  0  0  0  0  0  0  0  0  0  0  0
   34.3590   43.7830   -4.9520 C   0  0  0  0  0  0  0  0  0  0  0  0
   34.5590   44.2320   -3.5880 N   0  0  0  0  0  0  0  0  0  0  0  0
   35.0210   43.3510   -2.6410 C   0  0  0  0  0  0  0  0  0  0  0  0
   34.4220   42.3450   -2.2930 O   0  0  0  0  0  0  0  0  0  0  0  0
   36.2360   43.7510   -2.1430 N   0  0  0  0  0  0  0  0  0  0  0  0
   37.1300   42.7900   -1.5090 C   0  0  0  0  0  0  0  0  0  0  0  0
   38.2280   42.3550   -2.4960 C   0  0  0  0  0  0  0  0  0  0  0  0
   37.7350   43.3610   -0.2240 C   0  0  0  0  0  0  0  0  0  0  0  0
   39.2730   41.4230   -1.8820 C   0  0  0  0  0  0  0  0  0  0  0  0
   38.7790   42.4260    0.3850 C   0  0  0  0  0  0  0  0  0  0  0  0
   39.8660   41.9930   -0.6020 C   0  0  0  0  0  0  0  0  0  0  0  0
  1  2  1  0
  2  3  2  0
  2  4  1  0
  4  5  2  0
  3  6  1  0
  4  7  1  0
  5  8  1  0
  6  8  2  0
  5  9  1  0
  7 10  2  0
  9 11  1  0
  9 12  2  0
 10 12  1  0
 11 13  1  0
 13 14  1  0
 14 15  2  3
 15 16  1  0
 15 17  1  0
 17 18  1  0
 18 19  1  0
 19 20  2  0
 19 21  1  0
 21 22  1  0
 22 23  1  0
 22 24  1  0
 23 25  1  0
 24 26  1  0
 25 27  1  0
 26 27  1  0
M  END
