mac-x0138-mac-x0213
     RDKit          3D

 26 29  0  0  0  0  0  0  0  0999 V2000
   27.1310   50.9720   -4.7480 C   0  0  0  0  0  0  0  0  0  0  0  0
   27.8220   51.5800   -5.8610 N   0  0  0  0  0  0  0  0  0  0  0  0
   27.8300   52.9180   -6.1480 C   0  0  0  0  0  0  0  0  0  0  0  0
   28.5790   50.9460   -6.8100 C   0  0  0  0  0  0  0  0  0  0  0  0
   28.5460   53.1850   -7.2220 N   0  0  0  0  0  0  0  0  0  0  0  0
   29.0190   51.9580   -7.6440 C   0  0  0  0  0  0  0  0  0  0  0  0
   28.8430   49.6380   -6.9180 N   0  0  0  0  0  0  0  0  0  0  0  0
   29.8310   51.5690   -8.7190 C   0  0  0  0  0  0  0  0  0  0  0  0
   29.6280   49.3550   -7.9760 C   0  0  0  0  0  0  0  0  0  0  0  0
   30.3520   52.4670   -9.6480 N   0  0  0  0  0  0  0  0  0  0  0  0
   29.9980   48.0360   -8.2310 N   0  0  0  0  0  0  0  0  0  0  0  0
   30.1200   50.2530   -8.8600 N   0  0  0  0  0  0  0  0  0  0  0  0
   31.2170   47.5700   -7.5820 C   0  0  0  0  0  0  0  0  0  0  0  0
   31.3300   46.0370   -7.5890 C   0  0  0  0  0  0  0  0  0  0  0  0
   30.5150   45.4980   -6.5030 N   0  0  0  0  0  0  0  0  0  0  0  0
   31.0100   45.2860   -5.3410 C   0  0  0  0  0  0  0  0  0  0  0  0
   32.3150   45.5960   -5.2110 O   0  0  0  0  0  0  0  0  0  0  0  0
   30.4310   44.7550   -4.0500 C   0  0  0  0  0  0  0  0  0  0  0  0
   30.8990   45.5220   -2.8020 C   0  0  0  0  0  0  0  0  0  0  0  0
   30.6860   43.2530   -3.8260 C   0  0  0  0  0  0  0  0  0  0  0  0
   30.9430   44.4430   -1.7670 C   0  0  0  0  0  0  0  0  0  0  0  0
   30.8240   43.1740   -2.3420 C   0  0  0  0  0  0  0  0  0  0  0  0
   31.0810   44.5950   -0.3970 C   0  0  0  0  0  0  0  0  0  0  0  0
   30.8390   42.0290   -1.5540 C   0  0  0  0  0  0  0  0  0  0  0  0
   31.0990   43.4500    0.4020 C   0  0  0  0  0  0  0  0  0  0  0  0
   30.9790   42.1750   -0.1730 C   0  0  0  0  0  0  0  0  0  0  0  0
  1  2  1  0
  2  3  1  0
  2  4  1  0
  3  5  2  0
  4  6  2  0
  5  6  1  0
  4  7  1  0
  6  8  1  0
  7  9  2  0
  8 10  1  0
  9 11  1  0
  8 12  2  0
  9 12  1  0
 11 13  1  0
 13 14  1  0
 14 15  1  0
 15 16  2  3
 16 17  1  0
 16 18  1  0
 18 19  1  0
 18 20  1  0
 19 21  1  0
 20 22  1  0
 21 22  2  0
 21 23  1  0
 22 24  1  0
 23 25  2  0
 24 26  2  0
 25 26  1  0
M  END
