mac-x0385-mac-x0161
     RDKit          3D

 19 21  0  0  0  0  0  0  0  0999 V2000
   29.4150   51.5440   -2.6760 C   0  0  0  0  0  0  0  0  0  0  0  0
   28.8330   50.4140   -3.5340 C   0  0  2  0  0  0  0  0  0  0  0  0
   29.5360   49.0960   -3.1780 C   0  0  0  0  0  0  0  0  0  0  0  0
   28.9540   50.6920   -5.0350 C   0  0  2  0  0  0  0  0  0  0  0  0
   28.1550   51.8450   -5.4420 N   0  0  0  0  0  0  0  0  0  0  0  0
   28.4180   49.5770   -5.8070 N   0  0  0  0  0  0  0  0  0  0  0  0
   30.0090   48.3070   -4.3240 N   0  0  0  0  0  0  0  0  0  0  0  0
   29.1880   48.3340   -5.5420 C   0  0  1  0  0  0  0  0  0  0  0  0
   31.2880   47.8150   -4.2490 C   0  0  0  0  0  0  0  0  0  0  0  0
   28.5010   49.8740   -7.2620 N   0  0  0  0  0  0  0  0  0  0  0  0
   28.1020   47.2260   -5.3620 C   0  0  0  0  0  0  0  0  0  0  0  0
   32.3540   48.0230   -3.4030 C   0  0  0  0  0  0  0  0  0  0  0  0
   31.6870   46.8920   -5.1910 O   0  0  0  0  0  0  0  0  0  0  0  0
   29.8360   48.0890   -6.8400 N   0  0  0  0  0  0  0  0  0  0  0  0
   28.9490   48.6250   -7.8380 C   0  0  0  0  0  0  0  0  0  0  0  0
   32.9990   46.5030   -4.9650 N   0  0  0  0  0  0  0  0  0  0  0  0
   33.3740   47.1930   -3.8900 C   0  0  0  0  0  0  0  0  0  0  0  0
   34.6120   47.0790   -3.3570 O   0  0  0  0  0  0  0  0  0  0  0  0
   34.8870   48.0080   -2.3140 C   0  0  0  0  0  0  0  0  0  0  0  0
  2  1  1  1
  2  3  1  0
  2  4  1  0
  4  5  1  1
  4  6  1  0
  3  7  1  0
  6  8  1  0
  7  8  1  0
  7  9  1  0
  6 10  1  0
  8 11  1  1
  9 12  2  0
  9 13  1  0
  8 14  1  0
 10 15  1  0
 14 15  1  0
 13 16  1  0
 12 17  1  0
 16 17  2  0
 17 18  1  0
 18 19  1  0
M  END
