mac-x0451-mac-x0379
     RDKit          3D

 14 15  0  0  0  0  0  0  0  0999 V2000
   28.7460   53.8610   -8.3150 N   0  0  0  0  0  0  0  0  0  0  0  0
   29.0130   52.7370   -7.6220 C   0  0  0  0  0  0  0  0  0  0  0  0
   29.2160   52.7380   -6.3390 N   0  0  0  0  0  0  0  0  0  0  0  0
   29.1040   51.1990   -8.3770 S   0  0  0  0  0  0  0  0  0  0  0  0
   29.4640   51.4520   -5.8920 C   0  0  0  0  0  0  0  0  0  0  0  0
   29.4480   50.4560   -6.8590 C   0  0  0  0  0  0  0  0  0  0  0  0
   29.7180   51.1200   -4.5590 C   0  0  0  0  0  0  0  0  0  0  0  0
   29.6860   49.0970   -6.5440 C   0  0  0  0  0  0  0  0  0  0  0  0
   29.7240   52.1940   -3.5270 C   0  0  0  0  0  0  0  0  0  0  0  0
   29.9600   49.7720   -4.2190 C   0  0  0  0  0  0  0  0  0  0  0  0
   29.9440   48.7690   -5.1970 C   0  0  0  0  0  0  0  0  0  0  0  0
   30.2030   47.3640   -4.7600 C   0  0  0  0  0  0  0  0  0  0  0  0
   30.8600   47.0700   -3.7690 O   0  0  0  0  0  0  0  0  0  0  0  0
   29.6350   46.4330   -5.5540 O   0  0  0  0  0  0  0  0  0  0  0  0
  1  2  1  0
  2  3  2  0
  2  4  1  0
  3  5  1  0
  4  6  1  0
  5  6  2  0
  5  7  1  0
  6  8  1  0
  7  9  1  0
  7 10  2  0
  8 11  2  0
 10 11  1  0
 11 12  1  0
 12 13  2  0
 12 14  1  0
M  END
