mac-x0436-mac-x0396
     RDKit          3D

 27 29  0  0  0  0  0  0  0  0999 V2000
   33.7330   45.6630   -6.5970 O   0  0  0  0  0  0  0  0  0  0  0  0
   32.4870   45.2850   -6.2430 C   0  0  0  0  0  0  0  0  0  0  0  0
   31.5160   45.5230   -6.9460 O   0  0  0  0  0  0  0  0  0  0  0  0
   32.4100   44.5520   -4.9270 C   0  0  0  0  0  0  0  0  0  0  0  0
   32.4240   45.4820   -3.7190 C   0  0  0  0  0  0  0  0  0  0  0  0
   33.7670   46.1280   -3.4360 C   0  0  0  0  0  0  0  0  0  0  0  0
   33.9800   47.6650   -3.6120 C   0  0  0  0  0  0  0  0  0  0  0  0
   34.7430   45.3430   -3.0470 N   0  0  0  0  0  0  0  0  0  0  0  0
   32.9690   48.4670   -3.8300 N   0  0  0  0  0  0  0  0  0  0  0  0
   35.2850   48.0870   -3.5210 N   0  0  0  0  0  0  0  0  0  0  0  0
   36.0140   45.8920   -2.7950 C   0  0  0  0  0  0  0  0  0  0  0  0
   31.5380   48.1410   -3.9430 C   0  0  0  0  0  0  0  0  0  0  0  0
   36.2940   47.2500   -3.0260 C   0  0  0  0  0  0  0  0  0  0  0  0
   37.0260   45.0620   -2.3050 C   0  0  0  0  0  0  0  0  0  0  0  0
   30.6940   49.4430   -3.9100 C   0  0  0  0  0  0  0  0  0  0  0  0
   38.3020   45.5700   -2.0450 C   0  0  0  0  0  0  0  0  0  0  0  0
   37.5710   47.7570   -2.7650 C   0  0  0  0  0  0  0  0  0  0  0  0
   29.8140   49.5040   -5.0970 N   0  0  0  0  0  0  0  0  0  0  0  0
   38.5710   46.9180   -2.2760 C   0  0  0  0  0  0  0  0  0  0  0  0
   29.2930   50.6080   -5.5630 C   0  0  0  0  0  0  0  0  0  0  0  0
   28.5130   50.4740   -6.6790 N   0  0  0  0  0  0  0  0  0  0  0  0
   29.4490   51.9830   -5.0370 C   0  0  0  0  0  0  0  0  0  0  0  0
   29.8240   52.2390   -3.7270 C   0  0  0  0  0  0  0  0  0  0  0  0
   29.2100   53.0650   -5.8880 C   0  0  0  0  0  0  0  0  0  0  0  0
   29.9730   53.4910   -3.2270 N   0  0  0  0  0  0  0  0  0  0  0  0
   29.3550   54.3580   -5.3990 C   0  0  0  0  0  0  0  0  0  0  0  0
   29.7360   54.5200   -4.0740 C   0  0  0  0  0  0  0  0  0  0  0  0
  1  2  1  0
  2  3  2  0
  2  4  1  0
  4  5  1  0
  5  6  1  0
  6  7  1  0
  6  8  2  0
  7  9  2  3
  7 10  1  0
  8 11  1  0
  9 12  1  0
 10 13  1  0
 11 13  2  0
 11 14  1  0
 12 15  1  0
 14 16  2  0
 13 17  1  0
 15 18  1  0
 16 19  1  0
 17 19  2  0
 18 20  2  3
 20 21  1  0
 20 22  1  0
 22 23  2  0
 22 24  1  0
 23 25  1  0
 24 26  2  0
 25 27  2  0
 26 27  1  0
M  END
