mac-x0333-mac-x0576
     RDKit          3D

 17 19  0  0  0  0  0  0  0  0999 V2000
   30.1660   48.6280   -3.8850 O   0  0  0  0  0  0  0  0  0  0  0  0
   30.2910   49.9110   -4.5200 C   0  0  1  0  0  0  0  0  0  0  0  0
   29.3960   49.9700   -5.8260 C   0  0  2  0  0  0  0  0  0  0  0  0
   30.1090   50.9790   -3.4020 C   0  0  0  0  0  0  0  0  0  0  0  0
   29.4540   52.2680   -3.8810 C   0  0  2  0  0  0  0  0  0  0  0  0
   28.7930   51.3850   -5.9720 C   0  0  0  0  0  0  0  0  0  0  0  0
   28.4270   48.7750   -5.8700 C   0  0  0  0  0  0  0  0  0  0  0  0
   30.2890   49.7980   -7.0640 C   0  0  0  0  0  0  0  0  0  0  0  0
   27.7630   51.7230   -6.5470 O   0  0  0  0  0  0  0  0  0  0  0  0
   29.5960   52.4730   -5.3400 C   0  0  1  0  0  0  0  0  0  0  0  0
   30.0650   53.4560   -3.3750 O   0  0  0  0  0  0  0  0  0  0  0  0
   28.8440   47.7540   -6.8290 N   0  0  0  0  0  0  0  0  0  0  0  0
   29.5520   49.4350   -8.2620 N   0  0  0  0  0  0  0  0  0  0  0  0
   29.2380   53.8160   -5.5370 O   0  0  0  0  0  0  0  0  0  0  0  0
   29.7150   54.4540   -4.3560 C   0  0  0  0  0  0  0  0  0  0  0  0
   28.8330   48.2230   -8.1690 C   0  0  1  0  0  0  0  0  0  0  0  0
   29.3940   47.2480   -9.0350 N   0  0  0  0  0  0  0  0  0  0  0  0
  2  1  1  1
  2  3  1  0
  2  4  1  0
  5  4  1  1
  3  6  1  0
  3  7  1  1
  3  8  1  0
  6  9  2  0
  5 10  1  0
  6 10  1  0
  5 11  1  0
  7 12  1  0
  8 13  1  0
 10 14  1  1
 11 15  1  0
 14 15  1  0
 12 16  1  0
 13 16  1  0
 16 17  1  6
M  END
