mac-x0357-mac-x0204
     RDKit          3D

 19 20  0  0  0  0  0  0  0  0999 V2000
   32.2210   43.2920   -4.8180 C   0  0  0  0  0  0  0  0  0  0  0  0
   33.2120   44.3890   -4.5260 C   0  0  0  0  0  0  0  0  0  0  0  0
   34.2940   44.1300   -3.6690 C   0  0  0  0  0  0  0  0  0  0  0  0
   33.0870   45.6840   -5.0890 C   0  0  0  0  0  0  0  0  0  0  0  0
   34.4190   42.8830   -3.1220 O   0  0  0  0  0  0  0  0  0  0  0  0
   31.9500   46.0690   -6.0170 C   0  0  2  0  0  0  0  0  0  0  0  0
   34.0550   46.6610   -4.7670 C   0  0  0  0  0  0  0  0  0  0  0  0
   35.2390   45.1080   -3.3620 C   0  0  0  0  0  0  0  0  0  0  0  0
   30.7620   46.5750   -5.1980 C   0  0  0  0  0  0  0  0  0  0  0  0
   31.5900   44.9320   -6.8000 O   0  0  0  0  0  0  0  0  0  0  0  0
   35.1160   46.3770   -3.9150 C   0  0  0  0  0  0  0  0  0  0  0  0
   29.6000   46.4840   -5.6120 O   0  0  0  0  0  0  0  0  0  0  0  0
   31.0540   47.1770   -3.8730 C   0  0  0  0  0  0  0  0  0  0  0  0
   30.3410   46.7510   -2.7470 C   0  0  0  0  0  0  0  0  0  0  0  0
   32.0260   48.1560   -3.6940 C   0  0  0  0  0  0  0  0  0  0  0  0
   30.6310   47.3170   -1.5130 C   0  0  0  0  0  0  0  0  0  0  0  0
   32.3250   48.7220   -2.5000 N   0  0  0  0  0  0  0  0  0  0  0  0
   29.9750   46.9470   -0.3800 O   0  0  0  0  0  0  0  0  0  0  0  0
   31.6160   48.2850   -1.4320 C   0  0  0  0  0  0  0  0  0  0  0  0
  1  2  1  0
  2  3  2  0
  2  4  1  0
  3  5  1  0
  4  6  1  0
  4  7  2  0
  3  8  1  0
  6  9  1  0
  6 10  1  1
  7 11  1  0
  8 11  2  0
  9 12  2  0
  9 13  1  0
 13 14  2  0
 13 15  1  0
 14 16  1  0
 15 17  2  0
 16 18  1  0
 16 19  2  0
 17 19  1  0
M  END
