mac-x0282-mac-x0206
     RDKit          3D

 19 21  0  0  0  0  0  0  0  0999 V2000
   30.6950   49.7390   -5.0890 N   0  0  0  0  0  0  0  0  0  0  0  0
   30.3780   50.7620   -4.2150 C   0  0  0  0  0  0  0  0  0  0  0  0
   30.3460   50.6380   -2.9950 O   0  0  0  0  0  0  0  0  0  0  0  0
   29.9240   49.2290   -6.1510 C   0  0  0  0  0  0  0  0  0  0  0  0
   28.6710   49.8150   -6.3610 C   0  0  0  0  0  0  0  0  0  0  0  0
   30.2960   48.1950   -7.0160 C   0  0  0  0  0  0  0  0  0  0  0  0
   30.0450   52.1320   -4.7840 C   0  0  0  0  0  0  0  0  0  0  0  0
   27.9150   50.8510   -5.7400 C   0  0  0  0  0  0  0  0  0  0  0  0
   27.9010   49.3360   -7.4090 C   0  0  0  0  0  0  0  0  0  0  0  0
   29.4220   47.8090   -8.0290 C   0  0  0  0  0  0  0  0  0  0  0  0
   29.8650   53.2810   -3.9950 C   0  0  0  0  0  0  0  0  0  0  0  0
   29.9020   52.2710   -6.1820 C   0  0  0  0  0  0  0  0  0  0  0  0
   29.9890   53.2180   -2.6290 O   0  0  0  0  0  0  0  0  0  0  0  0
   26.7320   50.9730   -6.4220 C   0  0  0  0  0  0  0  0  0  0  0  0
   26.7370   50.0460   -7.4320 N   0  0  0  0  0  0  0  0  0  0  0  0
   28.2090   48.3510   -8.2710 N   0  0  0  0  0  0  0  0  0  0  0  0
   29.5530   54.5160   -4.5720 C   0  0  0  0  0  0  0  0  0  0  0  0
   29.5890   53.5090   -6.7580 C   0  0  0  0  0  0  0  0  0  0  0  0
   29.4140   54.6300   -5.9540 C   0  0  0  0  0  0  0  0  0  0  0  0
  1  2  1  0
  2  3  2  0
  1  4  1  0
  4  5  1  0
  4  6  2  0
  2  7  1  0
  5  8  1  0
  5  9  2  0
  6 10  1  0
  7 11  2  0
  7 12  1  0
 11 13  1  0
  8 14  2  0
  9 15  1  0
 14 15  1  0
  9 16  1  0
 10 16  2  0
 11 17  1  0
 12 18  2  0
 17 19  2  0
 18 19  1  0
M  END
