mac-x0132-mac-x0472
     RDKit          3D

 25 28  0  0  0  0  0  0  0  0999 V2000
   30.4970   53.5640   -7.0640 N   0  0  0  0  0  0  0  0  0  0  0  0
   29.8430   53.8190   -5.8290 C   0  0  0  0  0  0  0  0  0  0  0  0
   29.2700   55.0290   -5.6320 N   0  0  0  0  0  0  0  0  0  0  0  0
   29.7780   52.8710   -4.8280 C   0  0  0  0  0  0  0  0  0  0  0  0
   29.1300   53.1370   -3.6190 C   0  0  0  0  0  0  0  0  0  0  0  0
   28.6400   55.2960   -4.4640 C   0  0  0  0  0  0  0  0  0  0  0  0
   30.3560   51.6340   -5.0120 C   0  0  0  0  0  0  0  0  0  0  0  0
   28.5780   54.3700   -3.4880 N   0  0  0  0  0  0  0  0  0  0  0  0
   29.0710   52.1920   -2.6370 C   0  0  0  0  0  0  0  0  0  0  0  0
   30.2810   50.7160   -4.0170 C   0  0  0  0  0  0  0  0  0  0  0  0
   29.6620   50.9630   -2.8520 C   0  0  0  0  0  0  0  0  0  0  0  0
   31.0540   49.1110   -4.2860 S   0  0  0  0  0  0  0  0  0  0  0  0
   29.8790   48.6220   -3.8160 O   0  0  0  0  0  0  0  0  0  0  0  0
   30.7070   48.5600   -5.8920 N   0  0  0  0  0  0  0  0  0  0  0  0
   32.3690   50.0580   -4.8030 C   0  0  0  0  0  0  0  0  0  0  0  0
   29.3990   48.8020   -6.4290 C   0  0  0  0  0  0  0  0  0  0  0  0
   33.0020   49.9930   -6.0500 C   0  0  0  0  0  0  0  0  0  0  0  0
   32.9390   51.0170   -3.9760 C   0  0  0  0  0  0  0  0  0  0  0  0
   28.9090   48.5190   -7.6330 N   0  0  0  0  0  0  0  0  0  0  0  0
   28.0130   49.5390   -5.7030 S   0  0  0  0  0  0  0  0  0  0  0  0
   34.0450   50.7780   -6.4080 C   0  0  0  0  0  0  0  0  0  0  0  0
   33.9730   51.8110   -4.2980 C   0  0  0  0  0  0  0  0  0  0  0  0
   26.9400   49.4070   -7.0310 C   0  0  0  0  0  0  0  0  0  0  0  0
   27.7180   48.8090   -7.9290 N   0  0  0  0  0  0  0  0  0  0  0  0
   34.5290   51.6860   -5.5300 C   0  0  0  0  0  0  0  0  0  0  0  0
  1  2  1  0
  2  3  2  0
  2  4  1  0
  4  5  2  0
  3  6  1  0
  4  7  1  0
  5  8  1  0
  6  8  2  0
  5  9  1  0
  7 10  2  0
  9 11  2  0
 10 11  1  0
 10 12  1  0
 12 13  2  0
 12 14  1  0
 12 15  1  0
 14 16  1  0
 15 17  2  0
 15 18  1  0
 16 19  2  0
 16 20  1  0
 17 21  1  0
 18 22  2  0
 20 23  1  0
 19 24  1  0
 23 24  2  0
 21 25  2  0
 22 25  1  0
M  END
