mac-x0568-mac-x0365
     RDKit          3D

 12 12  0  0  0  0  0  0  0  0999 V2000
   29.7170   55.7160   -5.4240 C   0  0  0  0  0  0  0  0  0  0  0  0
   29.6010   54.2250   -5.3130 C   0  0  0  0  0  0  0  0  0  0  0  0
   29.2650   53.4540   -6.4210 C   0  0  0  0  0  0  0  0  0  0  0  0
   29.8360   53.6840   -4.1010 N   0  0  0  0  0  0  0  0  0  0  0  0
   29.7340   52.3440   -3.9740 C   0  0  0  0  0  0  0  0  0  0  0  0
   29.1660   52.0680   -6.2700 C   0  0  0  0  0  0  0  0  0  0  0  0
   29.9730   51.8630   -2.7390 F   0  0  0  0  0  0  0  0  0  0  0  0
   29.4010   51.4780   -5.0180 C   0  0  0  0  0  0  0  0  0  0  0  0
   29.2960   49.9800   -4.7980 C   0  0  2  0  0  0  0  0  0  0  0  0
   30.3270   49.4850   -3.8190 N   0  0  0  0  0  0  0  0  0  0  0  0
   29.3600   49.2480   -6.0640 N   0  0  0  0  0  0  0  0  0  0  0  0
   30.4600   48.2490   -3.8370 O   0  0  0  0  0  0  0  0  0  0  0  0
  1  2  1  0
  2  3  2  0
  2  4  1  0
  4  5  2  0
  3  6  1  0
  5  7  1  0
  5  8  1  0
  6  8  2  0
  8  9  1  0
  9 10  1  0
  9 11  1  6
 10 12  2  0
M  END
