mac-x0132-mac-x0392
     RDKit          3D

 19 21  0  0  0  0  0  0  0  0999 V2000
   28.4710   53.2670   -7.3290 N   0  0  0  0  0  0  0  0  0  0  0  0
   28.8580   53.3420   -5.9770 C   0  0  0  0  0  0  0  0  0  0  0  0
   28.8130   54.5770   -5.4480 N   0  0  0  0  0  0  0  0  0  0  0  0
   29.2570   52.1970   -5.2550 C   0  0  0  0  0  0  0  0  0  0  0  0
   29.6030   52.4700   -3.9240 C   0  0  0  0  0  0  0  0  0  0  0  0
   29.1700   54.6880   -4.1700 C   0  0  0  0  0  0  0  0  0  0  0  0
   29.3230   50.8650   -5.7700 C   0  0  0  0  0  0  0  0  0  0  0  0
   29.5650   53.6870   -3.3790 N   0  0  0  0  0  0  0  0  0  0  0  0
   30.0110   51.4260   -3.1190 C   0  0  0  0  0  0  0  0  0  0  0  0
   29.7430   49.8060   -4.9330 C   0  0  0  0  0  0  0  0  0  0  0  0
   28.9840   50.6290   -7.0580 N   0  0  0  0  0  0  0  0  0  0  0  0
   30.0830   50.1200   -3.6010 C   0  0  0  0  0  0  0  0  0  0  0  0
   29.7940   48.4860   -5.4960 C   0  0  0  0  0  0  0  0  0  0  0  0
   29.0450   49.3740   -7.5530 C   0  0  0  0  0  0  0  0  0  0  0  0
   30.2310   47.3310   -4.6570 C   0  0  0  0  0  0  0  0  0  0  0  0
   29.4380   48.2600   -6.8370 C   0  0  0  0  0  0  0  0  0  0  0  0
   29.4570   47.0050   -7.4740 N   0  0  0  0  0  0  0  0  0  0  0  0
   31.0480   47.3470   -3.7560 O   0  0  0  0  0  0  0  0  0  0  0  0
   29.6150   46.1800   -4.9940 O   0  0  0  0  0  0  0  0  0  0  0  0
  1  2  1  0
  2  3  2  0
  2  4  1  0
  4  5  2  0
  3  6  1  0
  4  7  1  0
  5  8  1  0
  6  8  2  0
  5  9  1  0
  7 10  2  0
  7 11  1  0
  9 12  2  0
 10 12  1  0
 10 13  1  0
 11 14  2  0
 13 15  1  0
 13 16  2  0
 14 16  1  0
 16 17  1  0
 15 18  2  0
 15 19  1  0
M  END
