mac-x0124-mac-x0337
     RDKit          3D

 21 23  0  0  0  0  0  0  0  0999 V2000
   29.8780   45.2440   -4.6830 C   0  0  0  0  0  0  0  0  0  0  0  0
   29.9290   46.6720   -4.9070 N   0  0  0  0  0  0  0  0  0  0  0  0
   30.6260   47.5750   -4.1440 C   0  0  0  0  0  0  0  0  0  0  0  0
   29.2790   47.3260   -5.9230 C   0  0  0  0  0  0  0  0  0  0  0  0
   30.4170   48.8300   -4.6820 C   0  0  0  0  0  0  0  0  0  0  0  0
   29.5640   48.6820   -5.8130 C   0  0  0  0  0  0  0  0  0  0  0  0
   28.5040   46.7450   -6.8570 N   0  0  0  0  0  0  0  0  0  0  0  0
   28.9760   49.5050   -6.7800 C   0  0  0  0  0  0  0  0  0  0  0  0
   28.0040   47.6450   -7.7180 C   0  0  0  0  0  0  0  0  0  0  0  0
   29.1640   50.9500   -6.8210 N   0  0  0  0  0  0  0  0  0  0  0  0
   28.1920   48.9730   -7.7360 N   0  0  0  0  0  0  0  0  0  0  0  0
   29.5230   51.6820   -5.5310 S   0  0  2  0  0  0  0  0  0  0  0  0
   28.9510   51.5380   -4.2130 O   0  0  0  0  0  0  0  0  0  0  0  0
   28.9620   53.2190   -5.9400 N   0  0  0  0  0  0  0  0  0  0  0  0
   31.2850   51.7520   -5.3840 C   0  0  0  0  0  0  0  0  0  0  0  0
   32.0570   50.8260   -6.0870 C   0  0  0  0  0  0  0  0  0  0  0  0
   31.8850   52.7170   -4.5790 C   0  0  0  0  0  0  0  0  0  0  0  0
   33.4460   50.8670   -5.9820 C   0  0  0  0  0  0  0  0  0  0  0  0
   33.2740   52.7560   -4.4770 C   0  0  0  0  0  0  0  0  0  0  0  0
   34.0670   51.8320   -5.1760 C   0  0  0  0  0  0  0  0  0  0  0  0
   35.5640   51.8770   -5.0620 C   0  0  0  0  0  0  0  0  0  0  0  0
  1  2  1  0
  2  3  1  0
  2  4  1  0
  3  5  2  0
  4  6  2  0
  5  6  1  0
  4  7  1  0
  6  8  1  0
  7  9  2  0
  8 10  1  0
  8 11  2  0
  9 11  1  0
 10 12  2  0
 12 13  2  0
 12 14  1  6
 12 15  1  0
 15 16  2  0
 15 17  1  0
 16 18  1  0
 17 19  2  0
 18 20  2  0
 19 20  1  0
 20 21  1  0
M  END
