mac-x0188-mac-x0303
     RDKit          3D

 23 25  0  0  0  0  0  0  0  0999 V2000
   32.1370   44.4490   -3.8890 C   0  0  0  0  0  0  0  0  0  0  0  0
   31.7670   45.8750   -3.7590 C   0  0  0  0  0  0  0  0  0  0  0  0
   32.1920   46.5110   -2.6420 O   0  0  0  0  0  0  0  0  0  0  0  0
   31.0580   46.7470   -4.5520 C   0  0  0  0  0  0  0  0  0  0  0  0
   30.4750   46.3590   -5.8160 C   0  0  0  0  0  0  0  0  0  0  0  0
   31.7750   47.8210   -2.6740 N   0  0  0  0  0  0  0  0  0  0  0  0
   31.0950   47.9830   -3.8220 C   0  0  0  0  0  0  0  0  0  0  0  0
   29.3270   45.9520   -5.9180 O   0  0  0  0  0  0  0  0  0  0  0  0
   31.2820   46.4570   -6.8990 O   0  0  0  0  0  0  0  0  0  0  0  0
   30.5410   49.3640   -4.1160 C   0  0  2  0  0  0  0  0  0  0  0  0
   29.5400   49.9730   -3.1460 C   0  0  0  0  0  0  0  0  0  0  0  0
   30.0050   49.5420   -5.5200 C   0  0  0  0  0  0  0  0  0  0  0  0
   28.9280   51.1410   -3.4790 C   0  0  0  0  0  0  0  0  0  0  0  0
   29.4050   50.7030   -5.8460 C   0  0  0  0  0  0  0  0  0  0  0  0
   29.2750   51.7970   -4.8080 C   0  0  2  0  0  0  0  0  0  0  0  0
   30.5750   52.5740   -4.6210 C   0  0  0  0  0  0  0  0  0  0  0  0
   28.4170   52.8890   -5.3150 N   0  0  0  0  0  0  0  0  0  0  0  0
   28.8510   54.1430   -4.6240 C   0  0  1  0  0  0  0  0  0  0  0  0
   30.1190   53.7910   -3.9500 N   0  0  0  0  0  0  0  0  0  0  0  0
   28.9660   55.7680   -5.6300 S   0  0  0  0  0  0  0  0  0  0  0  0
   30.3810   55.5670   -6.5420 N   0  0  0  0  0  0  0  0  0  0  0  0
   27.8640   55.8330   -6.5610 O   0  0  0  0  0  0  0  0  0  0  0  0
   29.2450   56.8540   -4.7160 O   0  0  0  0  0  0  0  0  0  0  0  0
  1  2  1  0
  2  3  1  0
  2  4  2  0
  4  5  1  0
  3  6  1  0
  4  7  1  0
  6  7  2  0
  5  8  2  0
  5  9  1  0
 10  7  1  1
 10 11  1  0
 10 12  1  0
 11 13  2  0
 12 14  2  0
 15 13  1  1
 14 15  1  0
 15 16  1  0
 15 17  1  0
 17 18  1  0
 16 19  1  0
 18 19  1  0
 18 20  1  6
 20 21  1  0
 20 22  2  0
 20 23  2  0
M  END
