mac-x0345-mac-x0385
     RDKit          3D

 17 18  0  0  0  0  0  0  0  0999 V2000
   29.1490   55.6340   -3.7840 C   0  0  0  0  0  0  0  0  0  0  0  0
   29.3790   54.3230   -4.4810 C   0  0  0  0  0  0  0  0  0  0  0  0
   29.4010   53.2290   -3.6760 N   0  0  0  0  0  0  0  0  0  0  0  0
   29.5580   54.2350   -5.8600 C   0  0  0  0  0  0  0  0  0  0  0  0
   29.5320   55.7370   -7.0080 Br  0  0  0  0  0  0  0  0  0  0  0  0
   29.7650   52.9780   -6.4190 C   0  0  0  0  0  0  0  0  0  0  0  0
   29.6000   52.0100   -4.2200 C   0  0  0  0  0  0  0  0  0  0  0  0
   29.6280   50.8460   -3.4260 N   0  0  0  0  0  0  0  0  0  0  0  0
   29.7860   51.8610   -5.5920 C   0  0  0  0  0  0  0  0  0  0  0  0
   29.4050   49.5140   -3.8380 C   0  0  0  0  0  0  0  0  0  0  0  0
   28.3130   49.2060   -4.6540 C   0  0  0  0  0  0  0  0  0  0  0  0
   30.1810   48.4200   -3.5130 C   0  0  0  0  0  0  0  0  0  0  0  0
   27.4330   50.2300   -5.0610 N   0  0  0  0  0  0  0  0  0  0  0  0
   28.0170   47.9750   -5.0960 N   0  0  0  0  0  0  0  0  0  0  0  0
   29.9300   47.1570   -3.9310 N   0  0  0  0  0  0  0  0  0  0  0  0
   28.8490   46.9900   -4.7120 C   0  0  0  0  0  0  0  0  0  0  0  0
   28.5490   45.6040   -5.1890 C   0  0  0  0  0  0  0  0  0  0  0  0
  1  2  1  0
  2  3  2  0
  2  4  1  0
  4  5  1  0
  4  6  2  0
  3  7  1  0
  7  8  1  0
  6  9  1  0
  7  9  2  0
  8 10  1  0
 10 11  2  0
 10 12  1  0
 11 13  1  0
 11 14  1  0
 12 15  2  0
 14 16  2  0
 15 16  1  0
 16 17  1  0
M  END
