mac-x0347-mac-x0472
     RDKit          3D

 29 32  0  0  0  0  0  0  0  0999 V2000
   30.6690   44.9330   -5.7170 O   0  0  0  0  0  0  0  0  0  0  0  0
   30.3930   46.1790   -6.1430 C   0  0  0  0  0  0  0  0  0  0  0  0
   30.6890   46.5120   -7.2760 O   0  0  0  0  0  0  0  0  0  0  0  0
   29.7180   47.0360   -5.0960 C   0  0  2  0  0  0  0  0  0  0  0  0
   29.0190   48.3670   -5.5470 C   0  0  1  0  0  0  0  0  0  0  0  0
   30.4630   46.9750   -3.7560 C   0  0  0  0  0  0  0  0  0  0  0  0
   28.7690   49.3910   -4.4260 C   0  0  1  0  0  0  0  0  0  0  0  0
   30.4690   48.1740   -2.9400 N   0  0  0  0  0  0  0  0  0  0  0  0
   29.3500   49.1420   -6.8030 C   0  0  0  0  0  0  0  0  0  0  0  0
   29.3070   49.0670   -3.0180 C   0  0  0  0  0  0  0  0  0  0  0  0
   28.9130   50.8060   -5.0200 C   0  0  0  0  0  0  0  0  0  0  0  0
   28.7580   48.9010   -7.9560 N   0  0  0  0  0  0  0  0  0  0  0  0
   30.4780   50.4440   -6.8950 S   0  0  0  0  0  0  0  0  0  0  0  0
   31.7800   48.7830   -2.6550 N   0  0  0  0  0  0  0  0  0  0  0  0
   28.0590   51.2310   -6.0510 C   0  0  0  0  0  0  0  0  0  0  0  0
   29.8900   51.7160   -4.5760 C   0  0  0  0  0  0  0  0  0  0  0  0
   30.0600   50.6090   -8.5380 C   0  0  0  0  0  0  0  0  0  0  0  0
   29.1640   49.7500   -8.9610 N   0  0  0  0  0  0  0  0  0  0  0  0
   31.8920   50.3060   -2.5520 S   0  0  0  0  0  0  0  0  0  0  0  0
   28.1760   52.5050   -6.6170 C   0  0  0  0  0  0  0  0  0  0  0  0
   30.0050   52.9950   -5.1450 C   0  0  0  0  0  0  0  0  0  0  0  0
   30.7970   51.2220   -2.2940 O   0  0  0  0  0  0  0  0  0  0  0  0
   32.7150   50.8370   -4.0190 C   0  0  0  0  0  0  0  0  0  0  0  0
   29.1470   53.3850   -6.1640 C   0  0  0  0  0  0  0  0  0  0  0  0
   33.4710   49.9250   -4.7540 C   0  0  0  0  0  0  0  0  0  0  0  0
   32.5900   52.1680   -4.4060 C   0  0  0  0  0  0  0  0  0  0  0  0
   34.1210   50.3650   -5.9030 C   0  0  0  0  0  0  0  0  0  0  0  0
   33.2420   52.5990   -5.5560 C   0  0  0  0  0  0  0  0  0  0  0  0
   34.0070   51.6980   -6.3020 C   0  0  0  0  0  0  0  0  0  0  0  0
  1  2  1  0
  2  3  2  0
  4  2  1  6
  4  5  1  0
  4  6  1  0
  5  7  1  0
  6  8  1  0
  5  9  1  6
  7 10  1  0
  8 10  1  0
  7 11  1  6
  9 12  2  0
  9 13  1  0
  8 14  1  0
 11 15  2  0
 11 16  1  0
 13 17  1  0
 12 18  1  0
 17 18  2  0
 14 19  2  0
 15 20  1  0
 16 21  2  0
 19 22  2  0
 19 23  1  0
 20 24  2  0
 21 24  1  0
 23 25  2  0
 23 26  1  0
 25 27  1  0
 26 28  2  0
 27 29  2  0
 28 29  1  0
M  END
