mac-x0433-mac-x1493
     RDKit          3D

 16 17  0  0  0  0  0  0  0  0999 V2000
   28.5800   50.1110   -6.4530 C   0  0  0  0  0  0  0  0  0  0  0  0
   29.1210   51.1300   -5.4700 C   0  0  0  0  0  0  0  0  0  0  0  0
   29.0950   52.4600   -5.7050 C   0  0  0  0  0  0  0  0  0  0  0  0
   29.6730   50.6620   -4.2540 N   0  0  0  0  0  0  0  0  0  0  0  0
   29.9070   49.2870   -4.0810 C   0  0  0  0  0  0  0  0  0  0  0  0
   29.7580   51.5820   -3.1920 C   0  0  0  0  0  0  0  0  0  0  0  0
   29.6540   53.4340   -4.6750 C   0  0  2  0  0  0  0  0  0  0  0  0
   28.5550   53.0950   -6.9060 C   0  0  0  0  0  0  0  0  0  0  0  0
   31.0810   53.8620   -5.0750 C   0  0  0  0  0  0  0  0  0  0  0  0
   29.8560   51.1670   -1.8980 N   0  0  0  0  0  0  0  0  0  0  0  0
   30.3530   48.6180   -5.1820 O   0  0  0  0  0  0  0  0  0  0  0  0
   29.7590   48.6120   -3.0660 O   0  0  0  0  0  0  0  0  0  0  0  0
   29.7510   52.8680   -3.3340 N   0  0  0  0  0  0  0  0  0  0  0  0
   28.8010   54.6860   -4.5870 C   0  0  0  0  0  0  0  0  0  0  0  0
   28.0670   54.3460   -6.8600 C   0  0  0  0  0  0  0  0  0  0  0  0
   28.0590   55.1010   -5.6270 C   0  0  0  0  0  0  0  0  0  0  0  0
  1  2  1  0
  2  3  2  0
  2  4  1  0
  4  5  1  0
  4  6  1  0
  3  7  1  0
  3  8  1  0
  7  9  1  6
  6 10  1  0
  5 11  1  0
  5 12  2  0
  6 13  2  0
  7 13  1  0
  7 14  1  0
  8 15  2  0
 14 16  2  0
 15 16  1  0
M  END
