mac-x0437-mac-x0333
     RDKit          3D

 27 30  0  0  0  0  0  0  0  0999 V2000
   31.5130   44.8280   -6.8430 O   0  0  0  0  0  0  0  0  0  0  0  0
   32.7590   44.8660   -6.3390 C   0  0  0  0  0  0  0  0  0  0  0  0
   33.6880   45.2640   -7.0210 O   0  0  0  0  0  0  0  0  0  0  0  0
   32.8550   44.3800   -4.9160 C   0  0  0  0  0  0  0  0  0  0  0  0
   32.7090   45.4820   -3.8510 C   0  0  2  0  0  0  0  0  0  0  0  0
   31.6320   46.5200   -4.2600 C   0  0  0  0  0  0  0  0  0  0  0  0
   33.9900   46.0940   -3.4910 N   0  0  0  0  0  0  0  0  0  0  0  0
   30.2300   46.1640   -3.7570 C   0  0  0  0  0  0  0  0  0  0  0  0
   34.2420   47.4420   -3.5670 C   0  0  0  0  0  0  0  0  0  0  0  0
   35.1380   45.4810   -3.0290 C   0  0  0  0  0  0  0  0  0  0  0  0
   29.2470   47.3170   -3.9750 C   0  0  0  0  0  0  0  0  0  0  0  0
   35.4620   47.7380   -3.1910 N   0  0  0  0  0  0  0  0  0  0  0  0
   36.0330   46.5400   -2.8540 C   0  0  0  0  0  0  0  0  0  0  0  0
   35.4940   44.1550   -2.7490 C   0  0  0  0  0  0  0  0  0  0  0  0
   29.8000   48.5450   -3.5040 O   0  0  0  0  0  0  0  0  0  0  0  0
   37.3300   46.2820   -2.3850 C   0  0  0  0  0  0  0  0  0  0  0  0
   36.7940   43.9190   -2.2810 C   0  0  0  0  0  0  0  0  0  0  0  0
   37.6990   44.9650   -2.1010 C   0  0  0  0  0  0  0  0  0  0  0  0
   29.5900   49.6920   -4.2250 C   0  0  0  0  0  0  0  0  0  0  0  0
   29.8510   50.8690   -3.5130 C   0  0  0  0  0  0  0  0  0  0  0  0
   29.1540   49.7660   -5.5610 C   0  0  0  0  0  0  0  0  0  0  0  0
   29.6680   52.0770   -4.1540 C   0  0  0  0  0  0  0  0  0  0  0  0
   28.9760   51.0070   -6.1890 C   0  0  0  0  0  0  0  0  0  0  0  0
   29.2420   52.1430   -5.4580 C   0  0  0  0  0  0  0  0  0  0  0  0
   29.8730   53.3070   -3.6130 O   0  0  0  0  0  0  0  0  0  0  0  0
   29.1240   53.4230   -5.9020 O   0  0  0  0  0  0  0  0  0  0  0  0
   29.6310   54.1470   -4.7610 C   0  0  0  0  0  0  0  0  0  0  0  0
  1  2  1  0
  2  3  2  0
  2  4  1  0
  5  4  1  6
  5  6  1  0
  5  7  1  0
  6  8  1  0
  7  9  1  0
  7 10  1  0
  8 11  1  0
  9 12  2  0
 10 13  2  0
 12 13  1  0
 10 14  1  0
 11 15  1  0
 13 16  1  0
 14 17  2  0
 16 18  2  0
 17 18  1  0
 15 19  1  0
 19 20  2  0
 19 21  1  0
 20 22  1  0
 21 23  2  0
 22 24  2  0
 23 24  1  0
 22 25  1  0
 24 26  1  0
 25 27  1  0
 26 27  1  0
M  END
