mac-x0306-mac-x0358
     RDKit          3D

 23 25  0  0  0  0  0  0  0  0999 V2000
   31.7990   44.8180   -6.5750 O   0  0  0  0  0  0  0  0  0  0  0  0
   32.9250   45.0570   -5.8530 C   0  0  0  0  0  0  0  0  0  0  0  0
   33.9220   45.5540   -6.3630 O   0  0  0  0  0  0  0  0  0  0  0  0
   32.8270   44.6960   -4.3770 C   0  0  0  0  0  0  0  0  0  0  0  0
   32.3440   45.9180   -3.6820 C   0  0  0  0  0  0  0  0  0  0  0  0
   33.2200   46.9730   -3.4190 C   0  0  0  0  0  0  0  0  0  0  0  0
   31.0040   46.0170   -3.3160 C   0  0  0  0  0  0  0  0  0  0  0  0
   34.5350   46.8370   -3.7750 O   0  0  0  0  0  0  0  0  0  0  0  0
   32.7680   48.1400   -2.8310 C   0  0  0  0  0  0  0  0  0  0  0  0
   30.5420   47.1790   -2.7280 C   0  0  0  0  0  0  0  0  0  0  0  0
   31.4140   48.2430   -2.5030 C   0  0  0  0  0  0  0  0  0  0  0  0
   30.8530   49.4970   -1.9370 C   0  0  0  0  0  0  0  0  0  0  0  0
   29.9600   50.0900   -2.9850 N   0  0  0  0  0  0  0  0  0  0  0  0
   29.1210   51.0700   -2.5300 C   0  0  0  0  0  0  0  0  0  0  0  0
   30.2640   50.1120   -4.3680 C   0  0  0  0  0  0  0  0  0  0  0  0
   28.5690   52.0130   -3.2860 C   0  0  0  0  0  0  0  0  0  0  0  0
   29.7620   51.0240   -5.2410 C   0  0  0  0  0  0  0  0  0  0  0  0
   28.8000   52.1080   -4.7720 C   0  0  0  0  0  0  0  0  0  0  0  0
   29.1280   53.5400   -5.1270 C   0  0  0  0  0  0  0  0  0  0  0  0
   28.8070   54.0800   -6.3540 N   0  0  0  0  0  0  0  0  0  0  0  0
   29.7230   54.4430   -4.3640 N   0  0  0  0  0  0  0  0  0  0  0  0
   29.7780   55.5830   -5.1210 C   0  0  0  0  0  0  0  0  0  0  0  0
   29.2160   55.3810   -6.3590 C   0  0  0  0  0  0  0  0  0  0  0  0
  1  2  1  0
  2  3  2  0
  2  4  1  0
  4  5  1  0
  5  6  2  0
  5  7  1  0
  6  8  1  0
  6  9  1  0
  7 10  2  0
  9 11  2  0
 10 11  1  0
 11 12  1  0
 12 13  1  0
 13 14  1  0
 13 15  1  0
 14 16  2  0
 15 17  2  0
 16 18  1  0
 17 18  1  0
 18 19  1  0
 19 20  1  0
 19 21  2  0
 21 22  1  0
 20 23  1  0
 22 23  2  0
M  END
