mac-x0572-mac-x0204
     RDKit          3D

 25 27  0  0  0  0  0  0  0  0999 V2000
   28.5930   56.0780   -6.8080 C   0  0  0  0  0  0  0  0  0  0  0  0
   28.9260   54.7610   -6.1530 C   0  0  0  0  0  0  0  0  0  0  0  0
   28.5090   53.6590   -6.8750 N   0  0  0  0  0  0  0  0  0  0  0  0
   29.5700   54.7070   -4.9750 C   0  0  0  0  0  0  0  0  0  0  0  0
   29.9810   55.8160   -4.2610 O   0  0  0  0  0  0  0  0  0  0  0  0
   29.8570   53.3690   -4.4030 C   0  0  0  0  0  0  0  0  0  0  0  0
   28.9410   52.4790   -6.5400 C   0  0  0  0  0  0  0  0  0  0  0  0
   30.0410   53.2750   -3.1880 O   0  0  0  0  0  0  0  0  0  0  0  0
   29.8950   52.2210   -5.3870 C   0  0  2  0  0  0  0  0  0  0  0  0
   28.4800   51.3050   -7.3230 C   0  0  0  0  0  0  0  0  0  0  0  0
   28.5280   50.0990   -6.7460 C   0  0  0  0  0  0  0  0  0  0  0  0
   29.6520   50.8780   -4.7520 C   0  0  0  0  0  0  0  0  0  0  0  0
   29.0090   49.8800   -5.3910 C   0  0  0  0  0  0  0  0  0  0  0  0
   28.7560   48.5230   -4.7720 C   0  0  0  0  0  0  0  0  0  0  0  0
   29.1120   47.2940   -5.6300 C   0  0  0  0  0  0  0  0  0  0  0  0
   30.3340   46.4650   -5.1800 C   0  0  0  0  0  0  0  0  0  0  0  0
   31.2490   46.3510   -6.2520 O   0  0  0  0  0  0  0  0  0  0  0  0
   29.9120   45.1260   -4.9540 O   0  0  0  0  0  0  0  0  0  0  0  0
   31.0060   46.9550   -3.9190 C   0  0  0  0  0  0  0  0  0  0  0  0
   30.3670   46.8890   -2.6690 C   0  0  0  0  0  0  0  0  0  0  0  0
   32.2940   47.4980   -3.9250 C   0  0  0  0  0  0  0  0  0  0  0  0
   31.0130   47.3460   -1.5320 C   0  0  0  0  0  0  0  0  0  0  0  0
   32.9500   47.9530   -2.8300 N   0  0  0  0  0  0  0  0  0  0  0  0
   30.3580   47.2650   -0.3390 O   0  0  0  0  0  0  0  0  0  0  0  0
   32.2920   47.8660   -1.6530 C   0  0  0  0  0  0  0  0  0  0  0  0
  1  2  1  0
  2  3  1  0
  2  4  2  0
  4  5  1  0
  4  6  1  0
  3  7  2  0
  6  8  2  0
  6  9  1  0
  7  9  1  0
  7 10  1  0
 10 11  2  0
  9 12  1  1
 11 13  1  0
 12 13  2  0
 13 14  1  0
 14 15  1  0
 15 16  1  0
 16 17  1  0
 16 18  1  0
 16 19  1  0
 19 20  2  0
 19 21  1  0
 20 22  1  0
 21 23  2  0
 22 24  1  0
 22 25  2  0
 23 25  1  0
M  END
