mac-x0223-mac-x0411
     RDKit          3D

 23 24  0  0  0  0  0  0  0  0999 V2000
   27.5290   43.3310   -2.2480 C   0  0  0  0  0  0  0  0  0  0  0  0
   27.8300   44.4100   -3.1260 O   0  0  0  0  0  0  0  0  0  0  0  0
   28.9430   45.1540   -2.8260 C   0  0  0  0  0  0  0  0  0  0  0  0
   28.8470   45.9230   -1.6630 C   0  0  0  0  0  0  0  0  0  0  0  0
   30.1270   45.2020   -3.5660 C   0  0  0  0  0  0  0  0  0  0  0  0
   27.6980   45.9000   -0.9150 O   0  0  0  0  0  0  0  0  0  0  0  0
   29.8930   46.7260   -1.2310 C   0  0  0  0  0  0  0  0  0  0  0  0
   31.2050   46.0100   -3.1500 C   0  0  0  0  0  0  0  0  0  0  0  0
   32.5030   46.0700   -3.9560 C   0  0  1  0  0  0  0  0  0  0  0  0
   31.0740   46.7720   -1.9720 C   0  0  0  0  0  0  0  0  0  0  0  0
   32.2770   46.3720   -5.4780 C   0  0  2  0  0  0  0  0  0  0  0  0
   33.2840   47.1170   -3.3100 O   0  0  0  0  0  0  0  0  0  0  0  0
   33.2280   45.5810   -6.3440 N   0  0  0  0  0  0  0  0  0  0  0  0
   32.2850   47.8000   -5.6950 O   0  0  0  0  0  0  0  0  0  0  0  0
   34.6500   46.9950   -3.4110 C   0  0  0  0  0  0  0  0  0  0  0  0
   32.6900   45.1770   -7.3830 O   0  0  0  0  0  0  0  0  0  0  0  0
   35.3630   48.0390   -4.0230 C   0  0  0  0  0  0  0  0  0  0  0  0
   35.3660   45.8830   -2.9310 C   0  0  0  0  0  0  0  0  0  0  0  0
   34.6030   44.5370   -2.1580 Cl  0  0  0  0  0  0  0  0  0  0  0  0
   34.5560   49.4430   -4.6350 Cl  0  0  0  0  0  0  0  0  0  0  0  0
   36.7520   47.9780   -4.1580 C   0  0  0  0  0  0  0  0  0  0  0  0
   36.7590   45.8250   -3.0690 C   0  0  0  0  0  0  0  0  0  0  0  0
   37.4500   46.8710   -3.6810 C   0  0  0  0  0  0  0  0  0  0  0  0
  1  2  1  0
  2  3  1  0
  3  4  2  0
  3  5  1  0
  4  6  1  0
  4  7  1  0
  5  8  2  0
  8  9  1  0
  7 10  2  0
  8 10  1  0
  9 11  1  0
  9 12  1  1
 11 13  1  0
 11 14  1  1
 12 15  1  0
 13 16  2  0
 15 17  2  0
 15 18  1  0
 18 19  1  0
 17 20  1  0
 17 21  1  0
 18 22  2  0
 21 23  2  0
 22 23  1  0
M  END
