mac-x0190-mac-x0472
     RDKit          3D

 25 28  0  0  0  0  0  0  0  0999 V2000
   28.5890   57.0170   -5.5280 O   0  0  0  0  0  0  0  0  0  0  0  0
   29.8430   56.3500   -5.4580 C   0  0  0  0  0  0  0  0  0  0  0  0
   29.5640   54.9680   -5.0080 C   0  0  0  0  0  0  0  0  0  0  0  0
   29.3880   54.6850   -3.6800 N   0  0  0  0  0  0  0  0  0  0  0  0
   29.4500   53.8830   -5.7480 N   0  0  0  0  0  0  0  0  0  0  0  0
   29.1480   53.3480   -3.5540 C   0  0  0  0  0  0  0  0  0  0  0  0
   29.1910   52.8600   -4.8520 C   0  0  0  0  0  0  0  0  0  0  0  0
   28.9060   52.5530   -2.4340 C   0  0  0  0  0  0  0  0  0  0  0  0
   28.9790   51.4850   -5.0160 C   0  0  0  0  0  0  0  0  0  0  0  0
   28.6940   51.1930   -2.6510 C   0  0  0  0  0  0  0  0  0  0  0  0
   28.7310   50.6680   -3.9260 C   0  0  0  0  0  0  0  0  0  0  0  0
   29.0280   50.7100   -6.5330 S   0  0  0  0  0  0  0  0  0  0  0  0
   29.7810   49.3140   -6.9870 C   0  0  0  0  0  0  0  0  0  0  0  0
   28.3840   51.0110   -8.0600 C   0  0  0  0  0  0  0  0  0  0  0  0
   30.5130   48.5470   -6.1610 N   0  0  0  0  0  0  0  0  0  0  0  0
   29.5180   49.1300   -8.2590 N   0  0  0  0  0  0  0  0  0  0  0  0
   28.7230   50.0700   -8.9230 N   0  0  0  0  0  0  0  0  0  0  0  0
   30.7490   49.0240   -4.5290 S   0  0  0  0  0  0  0  0  0  0  0  0
   31.2780   47.8920   -3.6960 O   0  0  0  0  0  0  0  0  0  0  0  0
   32.1610   50.1050   -4.8800 C   0  0  0  0  0  0  0  0  0  0  0  0
   33.3690   49.5430   -5.3070 C   0  0  0  0  0  0  0  0  0  0  0  0
   32.0680   51.4950   -4.7330 C   0  0  0  0  0  0  0  0  0  0  0  0
   34.4670   50.3590   -5.5840 C   0  0  0  0  0  0  0  0  0  0  0  0
   33.1670   52.3100   -5.0110 C   0  0  0  0  0  0  0  0  0  0  0  0
   34.3650   51.7420   -5.4360 C   0  0  0  0  0  0  0  0  0  0  0  0
  1  2  1  0
  2  3  1  0
  3  4  1  0
  3  5  2  0
  4  6  1  0
  5  7  1  0
  6  7  2  0
  6  8  1  0
  7  9  1  0
  8 10  2  0
  9 11  2  0
 10 11  1  0
  9 12  1  0
 12 13  2  0
 12 14  1  0
 13 15  1  0
 13 16  1  0
 14 17  2  0
 16 17  1  0
 18 15  1  6
 18 19  2  0
 18 20  1  0
 20 21  2  0
 20 22  1  0
 21 23  1  0
 22 24  2  0
 23 25  2  0
 24 25  1  0
M  END
