mac-x0348-mac-x0357
     RDKit          3D

 23 25  0  0  0  0  0  0  0  0999 V2000
   27.3460   44.4880   -0.6020 C   0  0  0  0  0  0  0  0  0  0  0  0
   28.2710   45.2460   -1.4080 N   0  0  0  0  0  0  0  0  0  0  0  0
   28.6000   44.9200   -2.6840 C   0  0  0  0  0  0  0  0  0  0  0  0
   28.9400   46.3850   -1.0140 C   0  0  0  0  0  0  0  0  0  0  0  0
   29.4980   45.8390   -3.1670 C   0  0  0  0  0  0  0  0  0  0  0  0
   29.7290   46.7900   -2.1010 C   0  0  0  0  0  0  0  0  0  0  0  0
   28.9100   47.0840    0.2050 C   0  0  0  0  0  0  0  0  0  0  0  0
   30.0550   45.7620   -4.5550 C   0  0  0  0  0  0  0  0  0  0  0  0
   30.5220   47.9520   -1.9440 C   0  0  0  0  0  0  0  0  0  0  0  0
   29.7030   48.2260    0.3250 C   0  0  0  0  0  0  0  0  0  0  0  0
   30.9460   46.9040   -5.0180 C   0  0  0  0  0  0  0  0  0  0  0  0
   30.4990   48.6570   -0.7300 C   0  0  0  0  0  0  0  0  0  0  0  0
   32.2020   46.4250   -5.7400 C   0  0  0  0  0  0  0  0  0  0  0  0
   31.8300   45.5260   -6.7760 O   0  0  0  0  0  0  0  0  0  0  0  0
   32.8410   47.4700   -6.4440 O   0  0  0  0  0  0  0  0  0  0  0  0
   33.1860   45.8760   -4.7500 C   0  0  0  0  0  0  0  0  0  0  0  0
   33.3140   44.5170   -4.3840 C   0  0  0  0  0  0  0  0  0  0  0  0
   34.0350   46.8270   -4.1490 C   0  0  0  0  0  0  0  0  0  0  0  0
   32.4500   43.4180   -4.9640 C   0  0  0  0  0  0  0  0  0  0  0  0
   34.9910   46.4670   -3.2130 C   0  0  0  0  0  0  0  0  0  0  0  0
   34.2880   44.1790   -3.4350 C   0  0  0  0  0  0  0  0  0  0  0  0
   34.4300   42.8700   -3.0670 O   0  0  0  0  0  0  0  0  0  0  0  0
   35.1190   45.1360   -2.8520 C   0  0  0  0  0  0  0  0  0  0  0  0
  1  2  1  0
  2  3  1  0
  2  4  1  0
  3  5  2  0
  4  6  2  0
  5  6  1  0
  4  7  1  0
  5  8  1  0
  6  9  1  0
  7 10  2  0
  8 11  1  0
  9 12  2  0
 10 12  1  0
 11 13  1  0
 13 14  1  0
 13 15  1  0
 13 16  1  0
 16 17  2  0
 16 18  1  0
 17 19  1  0
 18 20  2  0
 17 21  1  0
 21 22  1  0
 20 23  1  0
 21 23  2  0
M  END
