mac-x0576-mac-x0115
     RDKit          3D

 23 25  0  0  0  0  0  0  0  0999 V2000
   28.8710   53.6190   -6.8110 O   0  0  0  0  0  0  0  0  0  0  0  0
   29.1120   52.4870   -6.4020 C   0  0  0  0  0  0  0  0  0  0  0  0
   29.0940   51.4240   -7.2810 N   0  0  0  0  0  0  0  0  0  0  0  0
   29.4400   52.2190   -4.9110 C   0  0  0  0  0  0  0  0  0  0  0  0
   29.0220   50.0790   -6.8000 C   0  0  2  0  0  0  0  0  0  0  0  0
   29.3290   50.8050   -4.4750 N   0  0  0  0  0  0  0  0  0  0  0  0
   29.8650   49.9400   -5.5470 C   0  0  1  0  0  0  0  0  0  0  0  0
   29.3750   49.1680   -7.8630 N   0  0  0  0  0  0  0  0  0  0  0  0
   29.1020   47.8060   -7.4520 C   0  0  2  0  0  0  0  0  0  0  0  0
   29.8210   48.4710   -5.1870 C   0  0  0  0  0  0  0  0  0  0  0  0
   30.4040   48.0600   -4.1860 O   0  0  0  0  0  0  0  0  0  0  0  0
   29.1010   47.6460   -6.0350 N   0  0  0  0  0  0  0  0  0  0  0  0
   30.1000   46.9730   -8.0350 N   0  0  0  0  0  0  0  0  0  0  0  0
   30.2200   45.6630   -7.6060 C   0  0  0  0  0  0  0  0  0  0  0  0
   28.9690   46.2870   -5.6410 C   0  0  0  0  0  0  0  0  0  0  0  0
   30.6140   44.5050   -8.7430 S   0  0  0  0  0  0  0  0  0  0  0  0
   29.9920   45.4630   -6.2480 N   0  0  0  0  0  0  0  0  0  0  0  0
   30.9780   44.8700   -5.3210 C   0  0  0  0  0  0  0  0  0  0  0  0
   30.3590   44.0990   -4.1410 C   0  0  0  0  0  0  0  0  0  0  0  0
   29.9240   45.0090   -3.1320 O   0  0  0  0  0  0  0  0  0  0  0  0
   28.9340   44.5040   -2.2310 C   0  0  0  0  0  0  0  0  0  0  0  0
   28.1230   45.7030   -1.7510 C   0  0  0  0  0  0  0  0  0  0  0  0
   28.0220   43.4940   -2.9220 C   0  0  0  0  0  0  0  0  0  0  0  0
  1  2  2  0
  2  3  1  0
  2  4  1  0
  5  3  1  6
  4  6  1  0
  5  7  1  0
  7  6  1  1
  5  8  1  0
  9  8  1  1
  7 10  1  0
 10 11  2  0
  9 12  1  0
 10 12  1  0
  9 13  1  0
 13 14  1  0
 12 15  1  0
 14 16  2  0
 14 17  1  0
 15 17  1  0
 17 18  1  0
 18 19  1  0
 19 20  1  0
 20 21  1  0
 21 22  1  0
 21 23  1  0
M  END
