mac-x0148-mac-x0572
     RDKit          3D

 26 30  0  0  0  0  0  0  0  0999 V2000
   28.8030   55.2610   -7.2290 C   0  0  0  0  0  0  0  0  0  0  0  0
   28.2700   54.4720   -6.0190 C   0  0  1  0  0  0  0  0  0  0  0  0
   27.6340   53.1880   -6.4120 N   0  0  0  0  0  0  0  0  0  0  0  0
   29.2910   54.3440   -4.8760 C   0  0  2  0  0  0  0  0  0  0  0  0
   30.1850   55.4580   -4.8450 O   0  0  0  0  0  0  0  0  0  0  0  0
   30.0220   52.9830   -4.8730 C   0  0  0  0  0  0  0  0  0  0  0  0
   27.8630   52.0840   -5.4390 C   0  0  0  0  0  0  0  0  0  0  0  0
   31.1150   52.9440   -4.3060 O   0  0  0  0  0  0  0  0  0  0  0  0
   29.3320   51.7080   -5.5010 C   0  0  1  0  0  0  0  0  0  0  0  0
   29.4250   51.4400   -6.9560 N   0  0  0  0  0  0  0  0  0  0  0  0
   29.8540   50.3920   -4.8020 C   0  0  0  0  0  0  0  0  0  0  0  0
   29.4620   50.0070   -7.0800 C   0  0  0  0  0  0  0  0  0  0  0  0
   29.7520   49.3640   -5.8900 C   0  0  0  0  0  0  0  0  0  0  0  0
   29.2560   49.3830   -8.2380 N   0  0  0  0  0  0  0  0  0  0  0  0
   29.8910   47.9680   -5.9360 C   0  0  0  0  0  0  0  0  0  0  0  0
   30.2540   47.1620   -4.8080 N   0  0  0  0  0  0  0  0  0  0  0  0
   29.6890   47.3200   -7.0990 N   0  0  0  0  0  0  0  0  0  0  0  0
   29.3740   48.0520   -8.1810 C   0  0  0  0  0  0  0  0  0  0  0  0
   31.0290   47.9400   -3.7730 C   0  0  1  0  0  0  0  0  0  0  0  0
   30.9590   45.9820   -5.3510 C   0  0  0  0  0  0  0  0  0  0  0  0
   30.2000   48.1020   -2.5010 C   0  0  0  0  0  0  0  0  0  0  0  0
   32.3870   47.3970   -3.2280 C   0  0  1  0  0  0  0  0  0  0  0  0
   32.4580   46.2390   -5.3770 C   0  0  0  0  0  0  0  0  0  0  0  0
   32.1280   47.1090   -1.7710 C   0  0  0  0  0  0  0  0  0  0  0  0
   31.0780   47.9780   -1.3750 O   0  0  0  0  0  0  0  0  0  0  0  0
   32.9780   46.2050   -3.9640 C   0  0  0  0  0  0  0  0  0  0  0  0
  2  1  1  6
  2  3  1  0
  2  4  1  0
  4  5  1  6
  4  6  1  0
  3  7  1  0
  6  8  2  0
  9  6  1  0
  9  7  1  1
  9 10  1  0
  9 11  1  0
 10 12  1  0
 11 13  1  0
 12 13  2  0
 12 14  1  0
 13 15  1  0
 15 16  1  0
 15 17  2  0
 14 18  2  0
 17 18  1  0
 16 19  1  0
 16 20  1  0
 19 21  1  1
 19 22  1  0
 20 23  1  0
 22 24  1  1
 21 25  1  0
 24 25  1  0
 22 26  1  0
 23 26  1  0
M  END
