mac-x0271-mac-x0411
     RDKit          3D

 28 30  0  0  0  0  0  0  0  0999 V2000
   30.0250   50.1530   -2.6270 O   0  0  0  0  0  0  0  0  0  0  0  0
   29.8390   51.0400   -3.6520 C   0  0  0  0  0  0  0  0  0  0  0  0
   30.0900   50.4950   -4.9800 C   0  0  0  0  0  0  0  0  0  0  0  0
   29.4420   52.3000   -3.1990 C   0  0  0  0  0  0  0  0  0  0  0  0
   30.3520   49.3620   -4.0110 C   0  0  0  0  0  0  0  0  0  0  0  0
   29.2190   53.2810   -4.0870 C   0  0  0  0  0  0  0  0  0  0  0  0
   29.7950   51.6920   -5.7440 C   0  0  0  0  0  0  0  0  0  0  0  0
   31.1750   48.2590   -4.6770 C   0  0  0  0  0  0  0  0  0  0  0  0
   29.3950   52.9820   -5.3820 C   0  0  0  0  0  0  0  0  0  0  0  0
   28.8210   54.5570   -3.6400 O   0  0  0  0  0  0  0  0  0  0  0  0
   32.6450   48.3340   -4.2630 C   0  0  0  0  0  0  0  0  0  0  0  0
   29.1640   54.0210   -6.3750 C   0  0  0  0  0  0  0  0  0  0  0  0
   28.6330   55.5860   -4.5490 C   0  0  0  0  0  0  0  0  0  0  0  0
   28.3420   56.7260   -4.2040 O   0  0  0  0  0  0  0  0  0  0  0  0
   33.0020   47.1980   -3.3040 C   0  0  0  0  0  0  0  0  0  0  0  0
   28.8050   55.2440   -5.9710 C   0  0  0  0  0  0  0  0  0  0  0  0
   34.4990   47.0550   -3.1340 C   0  0  0  0  0  0  0  0  0  0  0  0
   35.1990   45.9160   -3.5820 C   0  0  0  0  0  0  0  0  0  0  0  0
   35.2090   48.0910   -2.5090 C   0  0  0  0  0  0  0  0  0  0  0  0
   34.4730   44.9150   -4.1920 O   0  0  0  0  0  0  0  0  0  0  0  0
   36.5900   48.0030   -2.3290 C   0  0  0  0  0  0  0  0  0  0  0  0
   36.5910   45.8340   -3.3980 C   0  0  0  0  0  0  0  0  0  0  0  0
   37.5210   44.4740   -3.9170 Cl  0  0  0  0  0  0  0  0  0  0  0  0
   34.0360   45.2710   -5.5090 C   0  0  0  0  0  0  0  0  0  0  0  0
   37.2770   46.8780   -2.7730 C   0  0  0  0  0  0  0  0  0  0  0  0
   33.2860   44.1250   -6.1720 C   0  0  0  0  0  0  0  0  0  0  0  0
   32.2580   43.6770   -5.4120 O   0  0  0  0  0  0  0  0  0  0  0  0
   33.5050   43.6010   -7.2540 O   0  0  0  0  0  0  0  0  0  0  0  0
  1  2  1  0
  2  3  2  0
  2  4  1  0
  3  5  1  0
  4  6  2  0
  3  7  1  0
  5  8  1  0
  6  9  1  0
  7  9  2  0
  6 10  1  0
  8 11  1  0
  9 12  1  0
 10 13  1  0
 13 14  2  0
 11 15  1  0
 12 16  2  0
 13 16  1  0
 15 17  1  0
 17 18  2  0
 17 19  1  0
 18 20  1  0
 19 21  2  0
 18 22  1  0
 22 23  1  0
 20 24  1  0
 21 25  1  0
 22 25  2  0
 24 26  1  0
 26 27  1  0
 26 28  2  0
M  END
