mac-x0451-mac-x0190
     RDKit          3D

 17 19  0  0  0  0  0  0  0  0999 V2000
   28.6840   53.5040   -9.3120 N   0  0  0  0  0  0  0  0  0  0  0  0
   28.9540   52.6160   -8.3430 C   0  0  0  0  0  0  0  0  0  0  0  0
   28.9980   52.9400   -7.0740 N   0  0  0  0  0  0  0  0  0  0  0  0
   29.2650   50.9610   -8.6960 S   0  0  0  0  0  0  0  0  0  0  0  0
   29.2950   51.8220   -6.3050 C   0  0  0  0  0  0  0  0  0  0  0  0
   29.4710   50.6660   -7.0330 C   0  0  0  0  0  0  0  0  0  0  0  0
   29.4150   51.8890   -4.7850 C   0  0  1  0  0  0  0  0  0  0  0  0
   29.8000   49.3420   -6.4500 C   0  0  0  0  0  0  0  0  0  0  0  0
   29.7540   50.4970   -4.1770 C   0  0  0  0  0  0  0  0  0  0  0  0
   30.5340   49.5690   -5.1220 C   0  0  1  0  0  0  0  0  0  0  0  0
   30.4330   52.8960   -4.4150 N   0  0  0  0  0  0  0  0  0  0  0  0
   28.1370   52.4680   -4.1690 C   0  0  0  0  0  0  0  0  0  0  0  0
   30.6880   48.3630   -4.5080 F   0  0  0  0  0  0  0  0  0  0  0  0
   29.7130   54.1410   -4.0840 C   0  0  2  0  0  0  0  0  0  0  0  0
   28.2950   53.9190   -4.3450 N   0  0  0  0  0  0  0  0  0  0  0  0
   30.3010   55.3460   -4.8600 C   0  0  0  0  0  0  0  0  0  0  0  0
   29.5250   56.5210   -4.6080 O   0  0  0  0  0  0  0  0  0  0  0  0
  1  2  1  0
  2  3  2  0
  2  4  1  0
  3  5  1  0
  4  6  1  0
  5  6  2  0
  5  7  1  0
  6  8  1  0
  7  9  1  1
  8 10  1  0
  9 10  1  0
  7 11  1  0
  7 12  1  0
 10 13  1  1
 11 14  1  0
 12 15  1  0
 14 15  1  0
 14 16  1  6
 16 17  1  0
M  END
