mac-x0358-mac-x0371
     RDKit          3D

 20 21  0  0  0  0  0  0  0  0999 V2000
   32.3730   45.6560   -8.2610 O   0  0  0  0  0  0  0  0  0  0  0  0
   32.5160   45.7870   -6.8500 C   0  0  0  0  0  0  0  0  0  0  0  0
   33.7580   46.5900   -6.4890 C   0  0  0  0  0  0  0  0  0  0  0  0
   34.7040   46.6830   -7.2800 O   0  0  0  0  0  0  0  0  0  0  0  0
   33.7770   47.2650   -5.1310 C   0  0  0  0  0  0  0  0  0  0  0  0
   33.7100   46.2620   -4.1300 O   0  0  0  0  0  0  0  0  0  0  0  0
   33.2840   46.6630   -2.8890 C   0  0  0  0  0  0  0  0  0  0  0  0
   31.9740   46.2900   -2.5120 C   0  0  0  0  0  0  0  0  0  0  0  0
   34.0750   47.4100   -2.0070 C   0  0  0  0  0  0  0  0  0  0  0  0
   33.5750   47.7870   -0.7580 C   0  0  0  0  0  0  0  0  0  0  0  0
   31.4930   46.6810   -1.2520 C   0  0  0  0  0  0  0  0  0  0  0  0
   31.0940   45.5050   -3.4000 C   0  0  0  0  0  0  0  0  0  0  0  0
   32.2880   47.4240   -0.3820 C   0  0  0  0  0  0  0  0  0  0  0  0
   29.9780   46.1080   -4.0170 C   0  0  0  0  0  0  0  0  0  0  0  0
   31.3240   44.1370   -3.6660 C   0  0  0  0  0  0  0  0  0  0  0  0
   32.6510   43.2640   -2.9760 Cl  0  0  0  0  0  0  0  0  0  0  0  0
   29.5870   47.7800   -3.7710 Cl  0  0  0  0  0  0  0  0  0  0  0  0
   29.1310   45.3780   -4.8590 C   0  0  0  0  0  0  0  0  0  0  0  0
   30.4730   43.4140   -4.5120 C   0  0  0  0  0  0  0  0  0  0  0  0
   29.3790   44.0320   -5.1070 C   0  0  0  0  0  0  0  0  0  0  0  0
  1  2  1  0
  2  3  1  0
  3  4  2  0
  3  5  1  0
  5  6  1  0
  6  7  1  0
  7  8  2  0
  7  9  1  0
  9 10  2  0
  8 11  1  0
  8 12  1  0
 10 13  1  0
 11 13  2  0
 12 14  2  0
 12 15  1  0
 15 16  1  0
 14 17  1  0
 14 18  1  0
 15 19  2  0
 18 20  2  0
 19 20  1  0
M  END
