mac-x0226-mac-x0404
     RDKit          3D

 26 29  0  0  0  0  0  0  0  0999 V2000
   32.6290   44.7930   -7.2890 O   0  0  0  0  0  0  0  0  0  0  0  0
   32.8060   45.6460   -6.1670 C   0  0  0  0  0  0  0  0  0  0  0  0
   33.6110   46.7110   -6.6670 O   0  0  0  0  0  0  0  0  0  0  0  0
   31.4360   46.2270   -5.7180 C   0  0  0  0  0  0  0  0  0  0  0  0
   33.5150   44.9360   -5.0510 C   0  0  0  0  0  0  0  0  0  0  0  0
   30.9040   45.4980   -4.6090 O   0  0  0  0  0  0  0  0  0  0  0  0
   33.4260   43.5750   -4.7000 C   0  0  0  0  0  0  0  0  0  0  0  0
   34.4050   45.4470   -4.1260 C   0  0  0  0  0  0  0  0  0  0  0  0
   34.1890   43.2530   -3.6540 N   0  0  0  0  0  0  0  0  0  0  0  0
   34.7960   44.4150   -3.2970 N   0  0  0  0  0  0  0  0  0  0  0  0
   30.8640   46.1220   -3.3850 C   0  0  0  0  0  0  0  0  0  0  0  0
   35.6980   44.4660   -2.2000 C   0  0  0  0  0  0  0  0  0  0  0  0
   29.7630   45.7870   -2.5540 C   0  0  0  0  0  0  0  0  0  0  0  0
   31.8220   47.0350   -2.9360 C   0  0  0  0  0  0  0  0  0  0  0  0
   36.3690   45.6510   -1.8670 C   0  0  0  0  0  0  0  0  0  0  0  0
   35.9220   43.3100   -1.4360 C   0  0  0  0  0  0  0  0  0  0  0  0
   29.6510   46.3880   -1.2790 C   0  0  0  0  0  0  0  0  0  0  0  0
   31.7050   47.6220   -1.6770 C   0  0  0  0  0  0  0  0  0  0  0  0
   28.7600   44.8710   -2.9470 C   0  0  0  0  0  0  0  0  0  0  0  0
   37.2520   45.6720   -0.7810 C   0  0  0  0  0  0  0  0  0  0  0  0
   36.8050   43.3400   -0.3540 C   0  0  0  0  0  0  0  0  0  0  0  0
   30.6250   47.3000   -0.8550 C   0  0  0  0  0  0  0  0  0  0  0  0
   28.5650   46.0680   -0.4450 C   0  0  0  0  0  0  0  0  0  0  0  0
   27.6860   44.5630   -2.1070 C   0  0  0  0  0  0  0  0  0  0  0  0
   37.4690   44.5200   -0.0280 C   0  0  0  0  0  0  0  0  0  0  0  0
   27.5890   45.1600   -0.8580 C   0  0  0  0  0  0  0  0  0  0  0  0
  2  1  1  0
  2  3  1  0
  2  4  1  0
  2  5  1  0
  4  6  1  0
  5  7  1  0
  5  8  2  0
  7  9  2  0
  8 10  1  0
  9 10  1  0
  6 11  1  0
 10 12  1  0
 11 13  1  0
 11 14  2  0
 12 15  2  0
 12 16  1  0
 13 17  2  0
 14 18  1  0
 13 19  1  0
 15 20  1  0
 16 21  2  0
 17 22  1  0
 18 22  2  0
 17 23  1  0
 19 24  2  0
 20 25  2  0
 21 25  1  0
 23 26  2  0
 24 26  1  0
M  END
