mac-x0213-mac-x0346
     RDKit          3D

 25 27  0  0  0  0  0  0  0  0999 V2000
   33.1570   46.5520   -5.4510 O   0  0  0  0  0  0  0  0  0  0  0  0
   31.9530   46.2190   -5.9470 C   0  0  0  0  0  0  0  0  0  0  0  0
   31.8440   45.9220   -7.1220 O   0  0  0  0  0  0  0  0  0  0  0  0
   30.8130   46.2530   -4.9670 C   0  0  2  0  0  0  0  0  0  0  0  0
   30.6810   47.4420   -3.9650 C   0  0  2  0  0  0  0  0  0  0  0  0
   30.5370   44.9420   -4.2160 C   0  0  0  0  0  0  0  0  0  0  0  0
   31.8390   48.3250   -3.4630 C   0  0  0  0  0  0  0  0  0  0  0  0
   29.8480   46.8140   -2.8840 C   0  0  0  0  0  0  0  0  0  0  0  0
   29.7540   45.4250   -3.0360 C   0  0  0  0  0  0  0  0  0  0  0  0
   31.6340   49.8610   -3.4910 C   0  0  0  0  0  0  0  0  0  0  0  0
   29.2080   47.4600   -1.8390 C   0  0  0  0  0  0  0  0  0  0  0  0
   29.0080   44.6660   -2.1520 C   0  0  0  0  0  0  0  0  0  0  0  0
   30.2700   50.3280   -3.4020 O   0  0  0  0  0  0  0  0  0  0  0  0
   28.4590   46.7010   -0.9450 C   0  0  0  0  0  0  0  0  0  0  0  0
   28.3570   45.3130   -1.1010 C   0  0  0  0  0  0  0  0  0  0  0  0
   29.5630   50.6740   -4.5370 C   0  0  0  0  0  0  0  0  0  0  0  0
   29.3140   52.0490   -4.7940 C   0  0  0  0  0  0  0  0  0  0  0  0
   29.0770   49.7270   -5.4510 C   0  0  0  0  0  0  0  0  0  0  0  0
   29.7670   53.1740   -3.9030 C   0  0  0  0  0  0  0  0  0  0  0  0
   28.3700   50.1080   -6.5910 C   0  0  0  0  0  0  0  0  0  0  0  0
   28.5960   52.4150   -5.9540 C   0  0  0  0  0  0  0  0  0  0  0  0
   30.1000   54.3880   -4.4670 N   0  0  0  0  0  0  0  0  0  0  0  0
   29.8490   53.0220   -2.6850 O   0  0  0  0  0  0  0  0  0  0  0  0
   28.1280   51.4500   -6.8450 C   0  0  0  0  0  0  0  0  0  0  0  0
   29.1520   54.9590   -5.3480 O   0  0  0  0  0  0  0  0  0  0  0  0
  1  2  1  0
  2  3  2  0
  4  2  1  1
  4  5  1  0
  4  6  1  0
  5  7  1  1
  5  8  1  0
  6  9  1  0
  8  9  2  0
  7 10  1  0
  8 11  1  0
  9 12  1  0
 10 13  1  0
 11 14  2  0
 12 15  2  0
 14 15  1  0
 13 16  1  0
 16 17  2  0
 16 18  1  0
 17 19  1  0
 18 20  2  0
 17 21  1  0
 19 22  1  0
 19 23  2  0
 20 24  1  0
 21 24  2  0
 22 25  1  0
M  END
