mac-x0354-mac-x0328
     RDKit          3D

 27 29  0  0  0  0  0  0  0  0999 V2000
   35.7190   43.3870   -1.7620 C   0  0  0  0  0  0  0  0  0  0  0  0
   34.8600   43.6380   -2.8970 N   0  0  0  0  0  0  0  0  0  0  0  0
   33.9430   42.7080   -3.2330 N   0  0  0  0  0  0  0  0  0  0  0  0
   34.8540   44.7480   -3.7110 C   0  0  0  0  0  0  0  0  0  0  0  0
   33.3370   43.2440   -4.2860 C   0  0  0  0  0  0  0  0  0  0  0  0
   33.8450   44.5140   -4.6420 C   0  0  0  0  0  0  0  0  0  0  0  0
   35.7650   45.8790   -3.5250 C   0  0  0  0  0  0  0  0  0  0  0  0
   33.3800   45.3470   -5.7210 C   0  0  0  0  0  0  0  0  0  0  0  0
   37.1500   45.6680   -3.4990 C   0  0  0  0  0  0  0  0  0  0  0  0
   35.2700   47.1790   -3.3730 C   0  0  0  0  0  0  0  0  0  0  0  0
   32.1310   45.3050   -5.9630 N   0  0  0  0  0  0  0  0  0  0  0  0
   34.2760   46.1240   -6.3870 O   0  0  0  0  0  0  0  0  0  0  0  0
   38.0220   46.7420   -3.3220 C   0  0  0  0  0  0  0  0  0  0  0  0
   36.1440   48.2520   -3.1970 C   0  0  0  0  0  0  0  0  0  0  0  0
   31.4800   46.1180   -6.9770 C   0  0  0  0  0  0  0  0  0  0  0  0
   37.5220   48.0330   -3.1720 C   0  0  0  0  0  0  0  0  0  0  0  0
   30.0550   46.4090   -6.4750 C   0  0  0  0  0  0  0  0  0  0  0  0
   29.9360   47.7940   -6.0340 N   0  0  0  0  0  0  0  0  0  0  0  0
   30.1420   48.2310   -4.8380 C   0  0  0  0  0  0  0  0  0  0  0  0
   30.5100   47.5010   -3.7690 O   0  0  0  0  0  0  0  0  0  0  0  0
   29.9700   49.6740   -4.5460 C   0  0  0  0  0  0  0  0  0  0  0  0
   29.5940   50.5430   -5.5750 C   0  0  0  0  0  0  0  0  0  0  0  0
   30.1800   50.1870   -3.2540 C   0  0  0  0  0  0  0  0  0  0  0  0
   29.4260   51.9030   -5.3280 C   0  0  0  0  0  0  0  0  0  0  0  0
   30.0110   51.5580   -3.0060 C   0  0  0  0  0  0  0  0  0  0  0  0
   29.6340   52.4030   -4.0530 C   0  0  0  0  0  0  0  0  0  0  0  0
   29.4560   53.7410   -3.8630 O   0  0  0  0  0  0  0  0  0  0  0  0
  1  2  1  0
  2  3  1  0
  2  4  1  0
  3  5  2  0
  4  6  2  0
  5  6  1  0
  4  7  1  0
  6  8  1  0
  7  9  2  0
  7 10  1  0
  8 11  2  3
  8 12  1  0
  9 13  1  0
 10 14  2  0
 11 15  1  0
 13 16  2  0
 14 16  1  0
 15 17  1  0
 17 18  1  0
 18 19  2  3
 19 20  1  0
 19 21  1  0
 21 22  2  0
 21 23  1  0
 22 24  1  0
 23 25  2  0
 24 26  2  0
 25 26  1  0
 26 27  1  0
M  END
