mac-x0587-mac-x0206
     RDKit          3D

 24 25  0  0  0  0  0  0  0  0999 V2000
   29.4060   45.5820   -3.4570 C   0  0  0  0  0  0  0  0  0  0  0  0
   30.5130   46.4870   -3.9830 C   0  0  2  0  0  0  0  0  0  0  0  0
   32.2520   46.0550   -3.5490 S   0  0  0  0  0  0  0  0  0  0  0  0
   30.2070   47.9720   -3.7020 C   0  0  0  0  0  0  0  0  0  0  0  0
   33.1940   46.7060   -4.9580 C   0  0  0  0  0  0  0  0  0  0  0  0
   30.4100   48.4290   -2.5670 O   0  0  0  0  0  0  0  0  0  0  0  0
   29.7010   48.7820   -4.7250 N   0  0  0  0  0  0  0  0  0  0  0  0
   33.2340   45.8390   -6.2020 C   0  0  0  0  0  0  0  0  0  0  0  0
   28.9530   50.0020   -4.3940 C   0  0  2  0  0  0  0  0  0  0  0  0
   29.3730   48.4490   -6.0560 C   0  0  0  0  0  0  0  0  0  0  0  0
   34.2890   45.6060   -6.7810 O   0  0  0  0  0  0  0  0  0  0  0  0
   32.0710   45.3350   -6.6560 O   0  0  0  0  0  0  0  0  0  0  0  0
   29.5370   47.4040   -6.6540 O   0  0  0  0  0  0  0  0  0  0  0  0
   28.0730   50.2490   -5.6020 C   0  0  0  0  0  0  0  0  0  0  0  0
   28.7810   49.5550   -6.6250 N   0  0  0  0  0  0  0  0  0  0  0  0
   29.9110   51.1600   -4.2830 C   0  0  0  0  0  0  0  0  0  0  0  0
   30.9730   51.0430   -3.6940 O   0  0  0  0  0  0  0  0  0  0  0  0
   29.5740   52.4930   -4.8610 C   0  0  0  0  0  0  0  0  0  0  0  0
   29.7690   53.6350   -4.1030 C   0  0  0  0  0  0  0  0  0  0  0  0
   29.0640   52.6130   -6.1680 C   0  0  0  0  0  0  0  0  0  0  0  0
   30.2650   53.5210   -2.8380 O   0  0  0  0  0  0  0  0  0  0  0  0
   29.4650   54.8970   -4.6150 C   0  0  0  0  0  0  0  0  0  0  0  0
   28.7550   53.8780   -6.6860 C   0  0  0  0  0  0  0  0  0  0  0  0
   28.9570   55.0150   -5.9070 C   0  0  0  0  0  0  0  0  0  0  0  0
  2  1  1  1
  2  3  1  0
  2  4  1  0
  3  5  1  0
  4  6  2  0
  4  7  1  0
  5  8  1  0
  7  9  1  0
  7 10  1  0
  8 11  2  0
  8 12  1  0
 10 13  2  0
  9 14  1  0
 10 15  1  0
 14 15  1  0
  9 16  1  6
 16 17  2  0
 16 18  1  0
 18 19  2  0
 18 20  1  0
 19 21  1  0
 19 22  1  0
 20 23  2  0
 22 24  2  0
 23 24  1  0
M  END
