mac-x0496-mac-x0392
     RDKit          3D

 28 30  0  0  0  0  0  0  0  0999 V2000
   24.6450   58.5760   -6.1810 C   0  0  0  0  0  0  0  0  0  0  0  0
   25.9520   58.2630   -5.5740 C   0  0  0  0  0  0  0  0  0  0  0  0
   26.3610   58.8000   -4.4150 N   0  0  0  0  0  0  0  0  0  0  0  0
   26.8420   57.3990   -6.1550 N   0  0  0  0  0  0  0  0  0  0  0  0
   27.6260   58.2330   -4.2270 O   0  0  0  0  0  0  0  0  0  0  0  0
   27.8420   57.4150   -5.2970 C   0  0  0  0  0  0  0  0  0  0  0  0
   29.1300   56.6800   -5.3490 C   0  0  0  0  0  0  0  0  0  0  0  0
   28.8580   55.2640   -5.5480 N   0  0  0  0  0  0  0  0  0  0  0  0
   29.2170   54.3250   -4.6080 C   0  0  0  0  0  0  0  0  0  0  0  0
   29.8280   54.6140   -3.5840 O   0  0  0  0  0  0  0  0  0  0  0  0
   28.8290   52.9080   -4.8730 C   0  0  0  0  0  0  0  0  0  0  0  0
   28.0440   52.6260   -6.0040 C   0  0  0  0  0  0  0  0  0  0  0  0
   29.2210   51.8600   -4.0270 C   0  0  0  0  0  0  0  0  0  0  0  0
   27.6530   51.3140   -6.2890 C   0  0  0  0  0  0  0  0  0  0  0  0
   28.8250   50.5470   -4.3210 C   0  0  0  0  0  0  0  0  0  0  0  0
   29.2390   49.4550   -3.4270 C   0  0  0  0  0  0  0  0  0  0  0  0
   28.0400   50.2700   -5.4470 C   0  0  0  0  0  0  0  0  0  0  0  0
   29.8530   48.3310   -3.5880 N   0  0  0  0  0  0  0  0  0  0  0  0
   28.8620   49.7680   -2.1800 O   0  0  0  0  0  0  0  0  0  0  0  0
   30.3330   47.8490   -4.8890 C   0  0  1  0  0  0  0  0  0  0  0  0
   29.7440   46.5920   -5.2050 O   0  0  0  0  0  0  0  0  0  0  0  0
   30.0600   48.8020   -6.0340 C   0  0  0  0  0  0  0  0  0  0  0  0
   29.3750   48.4310   -7.2060 C   0  0  0  0  0  0  0  0  0  0  0  0
   30.5200   50.1230   -5.9280 C   0  0  0  0  0  0  0  0  0  0  0  0
   28.8750   47.1290   -7.4220 N   0  0  0  0  0  0  0  0  0  0  0  0
   30.2790   51.0130   -6.9610 C   0  0  0  0  0  0  0  0  0  0  0  0
   29.1890   49.4110   -8.1820 C   0  0  0  0  0  0  0  0  0  0  0  0
   29.6230   50.6880   -8.0910 N   0  0  0  0  0  0  0  0  0  0  0  0
  1  2  1  0
  2  3  2  0
  2  4  1  0
  3  5  1  0
  4  6  2  0
  5  6  1  0
  6  7  1  0
  7  8  1  0
  8  9  1  0
  9 10  2  0
  9 11  1  0
 11 12  2  0
 11 13  1  0
 12 14  1  0
 13 15  2  0
 15 16  1  0
 14 17  2  0
 15 17  1  0
 16 18  2  3
 16 19  1  0
 18 20  1  0
 20 21  1  6
 20 22  1  0
 22 23  2  0
 22 24  1  0
 23 25  1  0
 24 26  2  0
 23 27  1  0
 26 28  1  0
 27 28  2  0
M  END
