mac-x0398-mac-x0357
     RDKit          3D

 23 24  0  0  0  0  0  0  0  0999 V2000
   28.6900   53.9920   -6.7410 N   0  0  0  0  0  0  0  0  0  0  0  0
   28.9980   52.8970   -5.9230 C   0  0  0  0  0  0  0  0  0  0  0  0
   28.9940   51.5980   -6.4360 C   0  0  0  0  0  0  0  0  0  0  0  0
   29.3150   53.0910   -4.5730 C   0  0  0  0  0  0  0  0  0  0  0  0
   29.6220   52.0020   -3.7520 C   0  0  0  0  0  0  0  0  0  0  0  0
   29.3020   50.5020   -5.6160 C   0  0  0  0  0  0  0  0  0  0  0  0
   29.9290   52.2200   -2.4370 O   0  0  0  0  0  0  0  0  0  0  0  0
   29.6180   50.7050   -4.2630 C   0  0  0  0  0  0  0  0  0  0  0  0
   29.9370   49.5310   -3.4220 C   0  0  0  0  0  0  0  0  0  0  0  0
   30.4500   49.6440   -2.3190 O   0  0  0  0  0  0  0  0  0  0  0  0
   29.5790   48.3900   -4.0430 O   0  0  0  0  0  0  0  0  0  0  0  0
   30.6140   47.4140   -4.1900 C   0  0  0  0  0  0  0  0  0  0  0  0
   30.6680   46.8420   -5.5300 N   0  0  0  0  0  0  0  0  0  0  0  0
   31.6870   46.1240   -5.8100 C   0  0  0  0  0  0  0  0  0  0  0  0
   31.8540   45.5430   -7.0150 O   0  0  0  0  0  0  0  0  0  0  0  0
   32.7940   45.8360   -4.8720 C   0  0  0  0  0  0  0  0  0  0  0  0
   33.0670   44.5180   -4.4530 C   0  0  0  0  0  0  0  0  0  0  0  0
   33.5660   46.9190   -4.4090 C   0  0  0  0  0  0  0  0  0  0  0  0
   32.2430   43.3630   -4.9470 C   0  0  0  0  0  0  0  0  0  0  0  0
   34.6170   46.6970   -3.5240 C   0  0  0  0  0  0  0  0  0  0  0  0
   34.1320   44.3300   -3.5630 C   0  0  0  0  0  0  0  0  0  0  0  0
   34.4900   43.0970   -3.0900 O   0  0  0  0  0  0  0  0  0  0  0  0
   34.9010   45.4010   -3.1000 C   0  0  0  0  0  0  0  0  0  0  0  0
  1  2  1  0
  2  3  2  0
  2  4  1  0
  4  5  2  0
  3  6  1  0
  5  7  1  0
  5  8  1  0
  6  8  2  0
  8  9  1  0
  9 10  2  0
  9 11  1  0
 11 12  1  0
 12 13  1  0
 13 14  2  3
 14 15  1  0
 14 16  1  0
 16 17  2  0
 16 18  1  0
 17 19  1  0
 18 20  2  0
 17 21  1  0
 21 22  1  0
 20 23  1  0
 21 23  2  0
M  END
