mac-x0375-mac-x0546
     RDKit          3D

 22 24  0  0  0  0  0  0  0  0999 V2000
   31.6830   45.0710   -6.7490 O   0  0  0  0  0  0  0  0  0  0  0  0
   32.8760   44.9640   -6.1210 C   0  0  0  0  0  0  0  0  0  0  0  0
   33.8280   44.5060   -6.7390 O   0  0  0  0  0  0  0  0  0  0  0  0
   32.8560   45.4620   -4.6590 C   0  0  2  0  0  0  0  0  0  0  0  0
   34.0070   44.9230   -3.9860 O   0  0  0  0  0  0  0  0  0  0  0  0
   31.5960   45.0380   -3.9590 C   0  0  0  0  0  0  0  0  0  0  0  0
   34.9670   45.8230   -3.5980 C   0  0  0  0  0  0  0  0  0  0  0  0
   30.5740   46.0170   -3.4640 C   0  0  2  0  0  0  0  0  0  0  0  0
   31.1740   43.7940   -3.6690 C   0  0  0  0  0  0  0  0  0  0  0  0
   36.3380   45.5480   -3.5660 C   0  0  0  0  0  0  0  0  0  0  0  0
   34.5080   47.0840   -3.2180 C   0  0  0  0  0  0  0  0  0  0  0  0
   30.8950   46.9900   -2.3720 C   0  0  0  0  0  0  0  0  0  0  0  0
   29.6320   44.9830   -2.8740 C   0  0  0  0  0  0  0  0  0  0  0  0
   29.9740   43.7380   -3.0080 N   0  0  0  0  0  0  0  0  0  0  0  0
   37.2370   46.5380   -3.1560 C   0  0  0  0  0  0  0  0  0  0  0  0
   35.4070   48.0710   -2.8110 C   0  0  0  0  0  0  0  0  0  0  0  0
   29.9500   47.2710   -1.4400 C   0  0  0  0  0  0  0  0  0  0  0  0
   28.4290   45.4870   -2.2020 C   0  0  0  0  0  0  0  0  0  0  0  0
   30.0580   48.1310   -0.3790 O   0  0  0  0  0  0  0  0  0  0  0  0
   36.7720   47.7950   -2.7800 C   0  0  0  0  0  0  0  0  0  0  0  0
   28.6430   46.6180   -1.5090 C   0  0  0  0  0  0  0  0  0  0  0  0
   30.9920   49.2000   -0.4830 C   0  0  0  0  0  0  0  0  0  0  0  0
  1  2  1  0
  2  3  2  0
  2  4  1  0
  4  5  1  1
  4  6  1  0
  5  7  1  0
  6  8  1  0
  6  9  2  0
  7 10  2  0
  7 11  1  0
  8 12  1  1
  8 13  1  0
  9 14  1  0
 13 14  2  0
 10 15  1  0
 11 16  2  0
 12 17  2  0
 13 18  1  0
 17 19  1  0
 15 20  2  0
 16 20  1  0
 17 21  1  0
 18 21  2  0
 19 22  1  0
M  END
