mac-x0546-mac-x0159
     RDKit          3D

 27 30  0  0  0  0  0  0  0  0999 V2000
   29.0860   49.0080   -0.9150 C   0  0  0  0  0  0  0  0  0  0  0  0
   28.5930   48.0900   -1.8970 O   0  0  0  0  0  0  0  0  0  0  0  0
   29.3950   46.9650   -1.9480 C   0  0  0  0  0  0  0  0  0  0  0  0
   30.4570   46.8500   -2.7960 C   0  0  0  0  0  0  0  0  0  0  0  0
   29.0150   45.8950   -1.0150 C   0  0  0  0  0  0  0  0  0  0  0  0
   30.8320   47.9630   -3.7560 C   0  0  0  0  0  0  0  0  0  0  0  0
   28.1350   46.2370    0.1560 C   0  0  0  0  0  0  0  0  0  0  0  0
   31.2680   45.5690   -2.7460 C   0  0  1  0  0  0  0  0  0  0  0  0
   29.4410   44.6330   -1.2030 C   0  0  0  0  0  0  0  0  0  0  0  0
   30.2940   44.4480   -2.3820 C   0  0  0  0  0  0  0  0  0  0  0  0
   31.8190   44.8620   -3.9600 C   0  0  0  0  0  0  0  0  0  0  0  0
   29.7290   48.7490   -4.3120 N   0  0  0  0  0  0  0  0  0  0  0  0
   32.8870   45.4020   -4.8590 C   0  0  0  0  0  0  0  0  0  0  0  0
   30.2740   43.3980   -3.1470 N   0  0  0  0  0  0  0  0  0  0  0  0
   31.2150   43.6730   -4.1020 C   0  0  0  0  0  0  0  0  0  0  0  0
   29.6810   50.1050   -3.7600 C   0  0  0  0  0  0  0  0  0  0  0  0
   29.4940   48.8250   -5.7540 C   0  0  2  0  0  0  0  0  0  0  0  0
   33.1130   44.6120   -6.1330 C   0  0  0  0  0  0  0  0  0  0  0  0
   29.8650   51.1560   -4.7650 N   0  0  0  0  0  0  0  0  0  0  0  0
   28.3690   49.7640   -6.1700 C   0  0  1  0  0  0  0  0  0  0  0  0
   29.1130   47.6200   -6.4780 N   0  0  0  0  0  0  0  0  0  0  0  0
   32.5540   43.6060   -6.5230 O   0  0  0  0  0  0  0  0  0  0  0  0
   34.0860   45.1690   -6.8900 O   0  0  0  0  0  0  0  0  0  0  0  0
   28.8140   51.1850   -5.7570 C   0  0  2  0  0  0  0  0  0  0  0  0
   28.2370   49.5010   -7.6180 N   0  0  0  0  0  0  0  0  0  0  0  0
   28.7080   48.1280   -7.7870 C   0  0  0  0  0  0  0  0  0  0  0  0
   29.3560   51.9700   -6.8470 N   0  0  0  0  0  0  0  0  0  0  0  0
  1  2  1  0
  2  3  1  0
  3  4  2  0
  3  5  1  0
  4  6  1  0
  5  7  1  0
  8  4  1  6
  5  9  2  0
  8 10  1  0
  9 10  1  0
  8 11  1  0
  6 12  1  0
 11 13  1  0
 10 14  2  0
 11 15  2  0
 14 15  1  0
 12 16  1  0
 12 17  1  0
 13 18  1  0
 16 19  1  0
 17 20  1  0
 17 21  1  1
 18 22  2  0
 18 23  1  0
 19 24  1  0
 20 24  1  0
 20 25  1  6
 21 26  1  0
 25 26  1  0
 24 27  1  6
M  END
