mac-x0417-mac-x0522
     RDKit          3D

 29 32  0  0  0  0  0  0  0  0999 V2000
   31.7170   45.5150   -6.1250 O   0  0  0  0  0  0  0  0  0  0  0  0
   32.9700   45.5980   -5.6270 C   0  0  0  0  0  0  0  0  0  0  0  0
   33.9260   45.5550   -6.3870 O   0  0  0  0  0  0  0  0  0  0  0  0
   33.0130   45.7380   -4.1260 C   0  0  0  0  0  0  0  0  0  0  0  0
   34.3620   45.3450   -3.6220 C   0  0  0  0  0  0  0  0  0  0  0  0
   34.5880   44.0460   -3.2330 N   0  0  0  0  0  0  0  0  0  0  0  0
   35.4500   46.1140   -3.4770 C   0  0  0  0  0  0  0  0  0  0  0  0
   35.8360   44.0180   -2.8470 C   0  0  0  0  0  0  0  0  0  0  0  0
   36.6140   45.3220   -2.9530 C   0  0  2  0  0  0  0  0  0  0  0  0
   35.6780   47.5110   -3.7290 C   0  0  0  0  0  0  0  0  0  0  0  0
   36.4330   42.7400   -2.3350 C   0  0  0  0  0  0  0  0  0  0  0  0
   37.2300   46.0770   -1.8130 C   0  0  0  0  0  0  0  0  0  0  0  0
   36.5340   48.1450   -2.9030 C   0  0  0  0  0  0  0  0  0  0  0  0
   37.5840   42.8980   -1.3740 C   0  0  0  0  0  0  0  0  0  0  0  0
   37.1820   47.4230   -1.8110 C   0  0  0  0  0  0  0  0  0  0  0  0
   37.7080   41.7020   -0.5770 N   0  0  0  0  0  0  0  0  0  0  0  0
   38.5740   40.7620   -0.7200 C   0  0  0  0  0  0  0  0  0  0  0  0
   39.5830   40.7080   -1.6770 N   0  0  0  0  0  0  0  0  0  0  0  0
   38.5180   39.6060    0.2100 C   0  0  0  0  0  0  0  0  0  0  0  0
   39.8590   41.5230   -2.7370 C   0  0  0  0  0  0  0  0  0  0  0  0
   39.3530   38.5020    0.0300 C   0  0  0  0  0  0  0  0  0  0  0  0
   37.6030   39.6610    1.2640 C   0  0  0  0  0  0  0  0  0  0  0  0
   39.7290   41.2500   -4.0190 N   0  0  0  0  0  0  0  0  0  0  0  0
   40.4600   43.1240   -2.4340 S   0  0  0  0  0  0  0  0  0  0  0  0
   39.2620   37.4390    0.9260 C   0  0  0  0  0  0  0  0  0  0  0  0
   37.5200   38.5940    2.1530 C   0  0  0  0  0  0  0  0  0  0  0  0
   40.5300   43.4350   -4.1130 C   0  0  0  0  0  0  0  0  0  0  0  0
   40.1040   42.3240   -4.8000 C   0  0  0  0  0  0  0  0  0  0  0  0
   38.3490   37.4840    1.9840 C   0  0  0  0  0  0  0  0  0  0  0  0
  1  2  1  0
  2  3  2  0
  2  4  1  0
  4  5  1  0
  5  6  1  0
  5  7  2  0
  6  8  2  0
  7  9  1  0
  8  9  1  0
  7 10  1  0
  8 11  1  0
  9 12  1  1
 10 13  2  0
 11 14  1  0
 12 15  2  0
 13 15  1  0
 14 16  1  0
 16 17  2  3
 17 18  1  0
 17 19  1  0
 18 20  1  0
 19 21  2  0
 19 22  1  0
 20 23  2  0
 20 24  1  0
 21 25  1  0
 22 26  2  0
 24 27  1  0
 23 28  1  0
 27 28  2  0
 25 29  2  0
 26 29  1  0
M  END
