mac-x0131-mac-x0555
     RDKit          3D

 28 32  0  0  0  0  0  0  0  0999 V2000
   30.9250   48.6600   -2.7570 C   0  0  0  0  0  0  0  0  0  0  0  0
   30.1720   48.5800   -4.0460 C   0  0  0  0  0  0  0  0  0  0  0  0
   29.3370   49.5140   -4.6590 C   0  0  0  0  0  0  0  0  0  0  0  0
   30.2100   47.4620   -4.8690 N   0  0  0  0  0  0  0  0  0  0  0  0
   30.9560   46.2300   -4.6300 C   0  0  0  0  0  0  0  0  0  0  0  0
   28.8580   48.9400   -5.8870 C   0  0  0  0  0  0  0  0  0  0  0  0
   29.4230   47.6720   -5.9780 C   0  0  0  0  0  0  0  0  0  0  0  0
   29.0570   50.8260   -4.0650 C   0  0  0  0  0  0  0  0  0  0  0  0
   28.0130   49.3190   -6.9510 C   0  0  0  0  0  0  0  0  0  0  0  0
   29.2410   46.7810   -6.9760 N   0  0  0  0  0  0  0  0  0  0  0  0
   32.4230   46.4520   -4.6820 C   0  0  0  0  0  0  0  0  0  0  0  0
   29.5140   52.0300   -4.6410 C   0  0  0  0  0  0  0  0  0  0  0  0
   28.3020   50.8360   -2.8760 C   0  0  0  0  0  0  0  0  0  0  0  0
   27.3620   50.5500   -7.0310 N   0  0  0  0  0  0  0  0  0  0  0  0
   27.8040   48.4550   -7.9710 N   0  0  0  0  0  0  0  0  0  0  0  0
   28.4180   47.2580   -7.9260 C   0  0  0  0  0  0  0  0  0  0  0  0
   33.4350   46.0570   -5.5410 C   0  0  0  0  0  0  0  0  0  0  0  0
   32.9490   47.2150   -3.6720 O   0  0  0  0  0  0  0  0  0  0  0  0
   29.1830   53.2370   -3.9800 C   0  0  0  0  0  0  0  0  0  0  0  0
   30.2430   52.0560   -5.7850 N   0  0  0  0  0  0  0  0  0  0  0  0
   27.9900   52.0320   -2.2430 C   0  0  0  0  0  0  0  0  0  0  0  0
   34.2860   47.3010   -3.8940 C   0  0  0  0  0  0  0  0  0  0  0  0
   34.6320   46.6060   -5.0290 C   0  0  0  0  0  0  0  0  0  0  0  0
   29.6210   54.4540   -4.5300 C   0  0  0  0  0  0  0  0  0  0  0  0
   30.6420   53.2490   -6.2780 C   0  0  0  0  0  0  0  0  0  0  0  0
   28.4300   53.2270   -2.7950 C   0  0  0  0  0  0  0  0  0  0  0  0
   30.3650   54.4810   -5.7000 C   0  0  0  0  0  0  0  0  0  0  0  0
   30.8050   55.6880   -6.2540 N   0  0  0  0  0  0  0  0  0  0  0  0
  1  2  1  0
  2  3  2  0
  2  4  1  0
  4  5  1  0
  3  6  1  0
  4  7  1  0
  6  7  2  0
  3  8  1  0
  6  9  1  0
  7 10  1  0
  5 11  1  0
  8 12  1  0
  8 13  2  0
  9 14  1  0
  9 15  2  0
 10 16  2  0
 15 16  1  0
 11 17  2  0
 11 18  1  0
 12 19  2  0
 12 20  1  0
 13 21  1  0
 18 22  1  0
 17 23  1  0
 22 23  2  0
 19 24  1  0
 20 25  2  0
 19 26  1  0
 21 26  2  0
 24 27  2  0
 25 27  1  0
 27 28  1  0
M  END
