mac-x0188-mac-x0439
     RDKit          3D

 27 30  0  0  0  0  0  0  0  0999 V2000
   33.4700   45.0380   -4.7980 C   0  0  0  0  0  0  0  0  0  0  0  0
   32.7480   46.2910   -4.4990 C   0  0  0  0  0  0  0  0  0  0  0  0
   33.1670   46.9470   -3.3880 O   0  0  0  0  0  0  0  0  0  0  0  0
   31.7110   46.9900   -5.0940 C   0  0  0  0  0  0  0  0  0  0  0  0
   30.9850   46.6300   -6.3050 C   0  0  0  0  0  0  0  0  0  0  0  0
   32.4230   48.0880   -3.2180 N   0  0  0  0  0  0  0  0  0  0  0  0
   31.5420   48.1280   -4.2340 C   0  0  0  0  0  0  0  0  0  0  0  0
   30.2690   47.4030   -6.9280 O   0  0  0  0  0  0  0  0  0  0  0  0
   31.1680   45.3280   -6.7020 N   0  0  0  0  0  0  0  0  0  0  0  0
   30.6020   49.2440   -4.3190 C   0  0  0  0  0  0  0  0  0  0  0  0
   30.5510   44.4500   -6.0000 C   0  0  0  0  0  0  0  0  0  0  0  0
   30.0370   49.8170   -3.1720 C   0  0  0  0  0  0  0  0  0  0  0  0
   30.2510   49.7640   -5.5750 C   0  0  0  0  0  0  0  0  0  0  0  0
   30.7190   43.1670   -6.3840 O   0  0  0  0  0  0  0  0  0  0  0  0
   29.1410   50.8850   -3.2800 C   0  0  0  0  0  0  0  0  0  0  0  0
   29.3550   50.8300   -5.6820 C   0  0  0  0  0  0  0  0  0  0  0  0
   29.6560   44.5510   -4.8110 C   0  0  0  0  0  0  0  0  0  0  0  0
   28.8000   51.3910   -4.5330 C   0  0  0  0  0  0  0  0  0  0  0  0
   29.2730   45.7040   -4.2390 C   0  0  0  0  0  0  0  0  0  0  0  0
   29.1460   43.4320   -4.1920 N   0  0  0  0  0  0  0  0  0  0  0  0
   28.3780   45.4210   -3.0820 C   0  0  1  0  0  0  0  0  0  0  0  0
   28.4410   43.9080   -3.2170 C   0  0  0  0  0  0  0  0  0  0  0  0
   28.7700   45.7270   -1.6720 C   0  0  0  0  0  0  0  0  0  0  0  0
   27.7020   43.1130   -2.2260 C   0  0  0  0  0  0  0  0  0  0  0  0
   29.6100   47.1890   -1.3280 Cl  0  0  0  0  0  0  0  0  0  0  0  0
   28.4570   44.8610   -0.6880 C   0  0  0  0  0  0  0  0  0  0  0  0
   27.7410   43.6260   -0.9860 C   0  0  0  0  0  0  0  0  0  0  0  0
  1  2  1  0
  2  3  1  0
  2  4  2  0
  4  5  1  0
  3  6  1  0
  4  7  1  0
  6  7  2  0
  5  8  2  0
  5  9  1  0
  7 10  1  0
  9 11  2  3
 10 12  2  0
 10 13  1  0
 11 14  1  0
 12 15  1  0
 13 16  2  0
 11 17  1  0
 15 18  2  0
 16 18  1  0
 17 19  2  0
 17 20  1  0
 21 19  1  6
 20 22  2  0
 21 22  1  0
 21 23  1  0
 22 24  1  0
 23 25  1  0
 23 26  2  0
 24 27  2  0
 26 27  1  0
M  END
