mac-x0441-mac-x0213
     RDKit          3D

 27 30  0  0  0  0  0  0  0  0999 V2000
   34.4490   45.7330   -6.2790 O   0  0  0  0  0  0  0  0  0  0  0  0
   33.2040   45.0760   -6.0630 C   0  0  2  0  0  0  0  0  0  0  0  0
   32.0800   46.0640   -5.7350 C   0  0  0  0  0  0  0  0  0  0  0  0
   33.3400   44.0120   -4.9770 C   0  0  0  0  0  0  0  0  0  0  0  0
   31.6960   46.8780   -6.5820 O   0  0  0  0  0  0  0  0  0  0  0  0
   34.3990   44.2300   -4.0010 N   0  0  0  0  0  0  0  0  0  0  0  0
   31.4580   45.9950   -4.3420 C   0  0  0  0  0  0  0  0  0  0  0  0
   34.8140   43.1390   -3.3320 N   0  0  0  0  0  0  0  0  0  0  0  0
   35.0710   45.3650   -3.6240 C   0  0  0  0  0  0  0  0  0  0  0  0
   30.9590   47.3460   -3.8040 C   0  0  0  0  0  0  0  0  0  0  0  0
   30.2300   45.0590   -4.2950 C   0  0  0  0  0  0  0  0  0  0  0  0
   35.7780   43.5700   -2.5000 C   0  0  0  0  0  0  0  0  0  0  0  0
   35.9740   44.9670   -2.6520 C   0  0  0  0  0  0  0  0  0  0  0  0
   34.9160   46.7640   -4.1150 C   0  0  0  0  0  0  0  0  0  0  0  0
   29.9460   46.8860   -2.8000 C   0  0  0  0  0  0  0  0  0  0  0  0
   29.5310   45.5810   -3.0820 C   0  0  0  0  0  0  0  0  0  0  0  0
   36.5110   42.6440   -1.5640 C   0  0  0  0  0  0  0  0  0  0  0  0
   36.9170   45.8940   -1.9690 C   0  0  0  0  0  0  0  0  0  0  0  0
   35.5870   47.7390   -3.1250 C   0  0  0  0  0  0  0  0  0  0  0  0
   29.4320   47.5780   -1.7160 C   0  0  0  0  0  0  0  0  0  0  0  0
   28.5950   44.9370   -2.2900 C   0  0  0  0  0  0  0  0  0  0  0  0
   37.6540   42.1600   -2.1200 F   0  0  0  0  0  0  0  0  0  0  0  0
   36.8570   43.2220   -0.3830 F   0  0  0  0  0  0  0  0  0  0  0  0
   35.7530   41.5550   -1.2470 F   0  0  0  0  0  0  0  0  0  0  0  0
   36.9820   47.2520   -2.6940 C   0  0  0  0  0  0  0  0  0  0  0  0
   28.4870   46.9380   -0.9100 C   0  0  0  0  0  0  0  0  0  0  0  0
   28.0720   45.6270   -1.1960 C   0  0  0  0  0  0  0  0  0  0  0  0
  2  1  1  1
  2  3  1  0
  2  4  1  0
  3  5  2  0
  4  6  1  0
  3  7  1  0
  6  8  1  0
  6  9  1  0
  7 10  1  0
  7 11  1  0
  8 12  2  0
  9 13  2  0
 12 13  1  0
  9 14  1  0
 10 15  1  0
 11 16  1  0
 15 16  2  0
 12 17  1  0
 13 18  1  0
 14 19  1  0
 15 20  1  0
 16 21  1  0
 17 22  1  0
 17 23  1  0
 17 24  1  0
 18 25  1  0
 19 25  1  0
 20 26  2  0
 21 27  2  0
 26 27  1  0
M  END
