mac-x0271-mac-x0341
     RDKit          3D

 17 19  0  0  0  0  0  0  0  0999 V2000
   30.2930   49.7740   -3.0920 O   0  0  0  0  0  0  0  0  0  0  0  0
   30.1680   50.7360   -4.1510 C   0  0  1  0  0  0  0  0  0  0  0  0
   28.9550   50.4050   -5.0270 C   0  0  1  0  0  0  0  0  0  0  0  0
   29.9530   52.0910   -3.5330 C   0  0  0  0  0  0  0  0  0  0  0  0
   29.9940   53.2040   -4.5840 C   0  0  1  0  0  0  0  0  0  0  0  0
   28.5260   51.5380   -6.0550 C   0  0  1  0  0  0  0  0  0  0  0  0
   29.1100   49.0130   -5.6190 C   0  0  0  0  0  0  0  0  0  0  0  0
   29.0340   53.0290   -5.8280 C   0  0  2  0  0  0  0  0  0  0  0  0
   29.8310   54.4310   -3.8190 O   0  0  0  0  0  0  0  0  0  0  0  0
   29.1060   48.7860   -6.9320 C   0  0  0  0  0  0  0  0  0  0  0  0
   28.7000   51.1080   -7.4960 C   0  0  0  0  0  0  0  0  0  0  0  0
   29.7120   53.5310   -7.0490 N   0  0  0  0  0  0  0  0  0  0  0  0
   27.9130   54.0190   -5.7920 C   0  0  0  0  0  0  0  0  0  0  0  0
   29.1620   55.4880   -4.3150 C   0  0  0  0  0  0  0  0  0  0  0  0
   28.9590   49.8530   -7.8770 C   0  0  0  0  0  0  0  0  0  0  0  0
   29.4880   56.6510   -4.1240 O   0  0  0  0  0  0  0  0  0  0  0  0
   27.9830   55.1550   -5.1020 C   0  0  0  0  0  0  0  0  0  0  0  0
  2  1  1  1
  2  3  1  0
  2  4  1  0
  5  4  1  1
  3  6  1  0
  3  7  1  6
  5  8  1  0
  6  8  1  0
  5  9  1  0
  7 10  2  0
  6 11  1  6
  8 12  1  6
  8 13  1  0
  9 14  1  0
 10 15  1  0
 11 15  2  0
 14 16  2  0
 13 17  2  0
 14 17  1  0
M  END
