mac-x0301-mac-x0139
     RDKit          3D

 17 19  0  0  0  0  0  0  0  0999 V2000
   30.6950   45.8700   -5.1930 N   0  0  0  0  0  0  0  0  0  0  0  0
   30.6740   46.9150   -4.2460 C   0  0  0  0  0  0  0  0  0  0  0  0
   31.1910   46.8550   -3.1340 O   0  0  0  0  0  0  0  0  0  0  0  0
   29.7770   45.9210   -6.2860 N   0  0  0  0  0  0  0  0  0  0  0  0
   31.8940   45.0340   -5.3310 C   0  0  0  0  0  0  0  0  0  0  0  0
   32.4260   44.9990   -6.7670 C   0  0  0  0  0  0  0  0  0  0  0  0
   29.9670   48.1460   -4.6790 C   0  0  0  0  0  0  0  0  0  0  0  0
   29.8630   47.1600   -6.9320 N   0  0  0  0  0  0  0  0  0  0  0  0
   31.7280   44.7850   -7.7510 O   0  0  0  0  0  0  0  0  0  0  0  0
   33.7610   45.2210   -6.8850 O   0  0  0  0  0  0  0  0  0  0  0  0
   29.6030   48.1890   -6.0100 C   0  0  0  0  0  0  0  0  0  0  0  0
   29.6500   49.2330   -3.8710 C   0  0  0  0  0  0  0  0  0  0  0  0
   28.9420   47.6100   -8.0060 C   0  0  0  0  0  0  0  0  0  0  0  0
   28.9430   49.2570   -6.5600 C   0  0  0  0  0  0  0  0  0  0  0  0
   28.9740   50.3330   -4.4340 C   0  0  0  0  0  0  0  0  0  0  0  0
   28.6980   49.0480   -7.8890 O   0  0  0  0  0  0  0  0  0  0  0  0
   28.6120   50.3540   -5.7930 C   0  0  0  0  0  0  0  0  0  0  0  0
  1  2  1  0
  2  3  2  0
  1  4  1  0
  1  5  1  0
  5  6  1  0
  2  7  1  0
  4  8  1  0
  6  9  2  0
  6 10  1  0
  7 11  2  0
  8 11  1  0
  7 12  1  0
  8 13  1  0
 11 14  1  0
 12 15  2  0
 13 16  1  0
 14 16  1  0
 14 17  2  0
 15 17  1  0
M  END
