mac-x0555-mac-x0397
     RDKit          3D

 12 13  0  0  0  0  0  0  0  0999 V2000
   29.1740   55.5360   -6.9490 N   0  0  0  0  0  0  0  0  0  0  0  0
   29.3030   54.5500   -5.9690 C   0  0  0  0  0  0  0  0  0  0  0  0
   29.6120   54.8410   -4.6470 C   0  0  0  0  0  0  0  0  0  0  0  0
   29.1260   53.2040   -6.2740 C   0  0  0  0  0  0  0  0  0  0  0  0
   29.2580   52.2140   -5.2850 C   0  0  0  0  0  0  0  0  0  0  0  0
   29.7490   53.9220   -3.6640 N   0  0  0  0  0  0  0  0  0  0  0  0
   29.5760   52.6170   -3.9660 C   0  0  0  0  0  0  0  0  0  0  0  0
   29.0790   50.8570   -5.6020 C   0  0  0  0  0  0  0  0  0  0  0  0
   29.6990   51.6000   -3.0050 C   0  0  0  0  0  0  0  0  0  0  0  0
   29.2090   49.8770   -4.6220 C   0  0  0  0  0  0  0  0  0  0  0  0
   30.0870   51.9830   -1.3590 Cl  0  0  0  0  0  0  0  0  0  0  0  0
   29.5190   50.2450   -3.3230 C   0  0  0  0  0  0  0  0  0  0  0  0
  1  2  1  0
  2  3  2  0
  2  4  1  0
  4  5  2  0
  3  6  1  0
  5  7  1  0
  6  7  2  0
  5  8  1  0
  7  9  1  0
  8 10  2  0
  9 11  1  0
  9 12  2  0
 10 12  1  0
M  END
