mac-x0139-mac-x0572
     RDKit          3D

 24 26  0  0  0  0  0  0  0  0999 V2000
   30.4380   47.7320   -4.3860 C   0  0  0  0  0  0  0  0  0  0  0  0
   30.4850   47.1170   -5.7090 N   0  0  0  0  0  0  0  0  0  0  0  0
   30.4880   45.6460   -5.7030 C   0  0  0  0  0  0  0  0  0  0  0  0
   29.6880   47.8200   -6.6070 C   0  0  0  0  0  0  0  0  0  0  0  0
   31.8920   45.0610   -5.5870 C   0  0  0  0  0  0  0  0  0  0  0  0
   29.4810   49.1970   -6.6320 C   0  0  0  0  0  0  0  0  0  0  0  0
   29.0780   47.0400   -7.5210 N   0  0  0  0  0  0  0  0  0  0  0  0
   32.5410   44.9410   -6.9330 C   0  0  0  0  0  0  0  0  0  0  0  0
   28.6230   49.6850   -7.5950 C   0  0  0  0  0  0  0  0  0  0  0  0
   28.2820   47.6280   -8.4270 C   0  0  0  0  0  0  0  0  0  0  0  0
   29.9870   50.3560   -5.8210 C   0  0  0  0  0  0  0  0  0  0  0  0
   31.9710   44.6970   -7.9810 O   0  0  0  0  0  0  0  0  0  0  0  0
   33.8750   45.1360   -6.8910 O   0  0  0  0  0  0  0  0  0  0  0  0
   28.0110   48.9370   -8.5120 N   0  0  0  0  0  0  0  0  0  0  0  0
   28.4340   51.0980   -7.5080 N   0  0  0  0  0  0  0  0  0  0  0  0
   29.2090   51.6440   -6.3730 C   0  0  1  0  0  0  0  0  0  0  0  0
   28.3550   52.1680   -5.1890 C   0  0  0  0  0  0  0  0  0  0  0  0
   30.0090   52.8300   -6.8300 N   0  0  0  0  0  0  0  0  0  0  0  0
   29.6670   54.2800   -6.5580 C   0  0  1  0  0  0  0  0  0  0  0  0
   29.1690   53.2160   -4.4450 C   0  0  0  0  0  0  0  0  0  0  0  0
   28.7950   55.0080   -7.5850 C   0  0  0  0  0  0  0  0  0  0  0  0
   29.7740   53.0050   -3.3850 O   0  0  0  0  0  0  0  0  0  0  0  0
   29.1770   54.5590   -5.1300 C   0  0  1  0  0  0  0  0  0  0  0  0
   30.0440   55.4910   -4.4760 O   0  0  0  0  0  0  0  0  0  0  0  0
  1  2  1  0
  2  3  1  0
  2  4  1  0
  3  5  1  0
  4  6  2  0
  4  7  1  0
  5  8  1  0
  6  9  1  0
  7 10  2  0
  6 11  1  0
  8 12  2  0
  8 13  1  0
  9 14  2  0
 10 14  1  0
  9 15  1  0
 16 11  1  1
 16 15  1  0
 16 17  1  0
 16 18  1  0
 18 19  1  0
 17 20  1  0
 19 21  1  6
 20 22  2  0
 19 23  1  0
 20 23  1  0
 23 24  1  1
M  END
