mac-x0284-mac-x0398
     RDKit          3D

 21 22  0  0  0  0  0  0  0  0999 V2000
   26.6250   50.3580   -6.2940 C   0  0  0  0  0  0  0  0  0  0  0  0
   27.7040   49.8000   -5.4310 C   0  0  0  0  0  0  0  0  0  0  0  0
   28.0180   50.4470   -4.2460 C   0  0  0  0  0  0  0  0  0  0  0  0
   28.4000   48.6320   -5.8080 C   0  0  0  0  0  0  0  0  0  0  0  0
   29.4290   48.1090   -5.0080 C   0  0  0  0  0  0  0  0  0  0  0  0
   29.0210   49.9530   -3.4520 C   0  0  0  0  0  0  0  0  0  0  0  0
   30.1070   46.8710   -5.4920 C   0  0  0  0  0  0  0  0  0  0  0  0
   29.7170   48.8130   -3.8410 C   0  0  0  0  0  0  0  0  0  0  0  0
   30.6920   48.5280   -2.9490 O   0  0  0  0  0  0  0  0  0  0  0  0
   30.1750   46.5190   -6.6560 O   0  0  0  0  0  0  0  0  0  0  0  0
   30.6650   46.1070   -4.5320 O   0  0  0  0  0  0  0  0  0  0  0  0
   31.2680   49.7830   -2.8140 C   0  0  0  0  0  0  0  0  0  0  0  0
   32.1390   50.1020   -2.0290 O   0  0  0  0  0  0  0  0  0  0  0  0
   30.6420   50.7810   -3.7850 C   0  0  0  0  0  0  0  0  0  0  0  0
   30.1040   52.0080   -3.3590 C   0  0  0  0  0  0  0  0  0  0  0  0
   30.5850   50.4880   -5.1700 C   0  0  0  0  0  0  0  0  0  0  0  0
   30.1320   52.3460   -2.0350 O   0  0  0  0  0  0  0  0  0  0  0  0
   29.5300   52.9090   -4.2710 C   0  0  0  0  0  0  0  0  0  0  0  0
   30.0040   51.4000   -6.0780 C   0  0  0  0  0  0  0  0  0  0  0  0
   29.4730   52.6150   -5.6370 C   0  0  0  0  0  0  0  0  0  0  0  0
   28.8960   53.5230   -6.5380 N   0  0  0  0  0  0  0  0  0  0  0  0
  1  2  1  0
  2  3  2  0
  2  4  1  0
  4  5  2  0
  3  6  1  0
  5  7  1  0
  5  8  1  0
  6  8  2  0
  8  9  1  0
  7 10  2  0
  7 11  1  0
  9 12  1  0
 12 13  2  0
 12 14  1  0
 14 15  2  0
 14 16  1  0
 15 17  1  0
 15 18  1  0
 16 19  2  0
 18 20  2  0
 19 20  1  0
 20 21  1  0
M  END
