mac-x0178-mac-x0338
     RDKit          3D

 23 24  0  0  0  0  0  0  0  0999 V2000
   28.5370   44.9280   -0.3410 N   0  0  0  0  0  0  0  0  0  0  0  0
   28.9340   46.5140   -0.7150 S   0  0  0  0  0  0  0  0  0  0  0  0
   29.8790   46.9390    0.2920 O   0  0  0  0  0  0  0  0  0  0  0  0
   27.6880   47.2040   -0.9380 O   0  0  0  0  0  0  0  0  0  0  0  0
   29.7650   46.3530   -2.2730 C   0  0  0  0  0  0  0  0  0  0  0  0
   29.8010   45.1280   -2.9370 C   0  0  0  0  0  0  0  0  0  0  0  0
   30.3760   47.4750   -2.8250 C   0  0  0  0  0  0  0  0  0  0  0  0
   30.4650   45.0330   -4.1650 C   0  0  0  0  0  0  0  0  0  0  0  0
   31.0360   47.3960   -4.0630 C   0  0  0  0  0  0  0  0  0  0  0  0
   31.6590   48.6430   -4.6470 C   0  0  0  0  0  0  0  0  0  0  0  0
   31.0820   46.1610   -4.7260 C   0  0  0  0  0  0  0  0  0  0  0  0
   31.7650   45.9810   -6.0260 C   0  0  0  0  0  0  0  0  0  0  0  0
   30.7830   49.8690   -4.4760 C   0  0  0  0  0  0  0  0  0  0  0  0
   31.2420   45.6560   -7.0720 O   0  0  0  0  0  0  0  0  0  0  0  0
   33.0830   46.2260   -5.9190 O   0  0  0  0  0  0  0  0  0  0  0  0
   30.2420   50.4840   -5.5760 N   0  0  0  0  0  0  0  0  0  0  0  0
   30.5490   50.3560   -3.2000 C   0  0  0  0  0  0  0  0  0  0  0  0
   29.4860   51.5960   -5.3220 C   0  0  0  0  0  0  0  0  0  0  0  0
   29.7970   51.4490   -2.9500 N   0  0  0  0  0  0  0  0  0  0  0  0
   28.8740   52.3410   -6.4610 C   0  0  0  0  0  0  0  0  0  0  0  0
   29.2750   52.0580   -4.0380 C   0  0  0  0  0  0  0  0  0  0  0  0
   28.5310   51.6210   -7.5730 N   0  0  0  0  0  0  0  0  0  0  0  0
   28.6930   53.5530   -6.4020 O   0  0  0  0  0  0  0  0  0  0  0  0
  2  1  1  0
  2  3  2  0
  2  4  2  0
  2  5  1  0
  5  6  2  0
  5  7  1  0
  6  8  1  0
  7  9  2  0
  9 10  1  0
  8 11  2  0
  9 11  1  0
 11 12  1  0
 10 13  1  0
 12 14  2  0
 12 15  1  0
 13 16  2  0
 13 17  1  0
 16 18  1  0
 17 19  2  0
 18 20  1  0
 18 21  2  0
 19 21  1  0
 20 22  1  0
 20 23  2  0
M  END
