mac-x0123-mac-x0453
     RDKit          3D

 15 17  0  0  0  0  0  0  0  0999 V2000
   28.7850   52.0670   -7.1830 N   0  0  0  0  0  0  0  0  0  0  0  0
   29.4300   52.4310   -8.4190 C   0  0  0  0  0  0  0  0  0  0  0  0
   29.8970   53.7920   -8.5760 N   0  0  0  0  0  0  0  0  0  0  0  0
   29.0980   52.5580   -5.9110 C   0  0  0  0  0  0  0  0  0  0  0  0
   29.5170   51.6040   -4.9430 N   0  0  0  0  0  0  0  0  0  0  0  0
   29.0460   53.8350   -5.4990 C   0  0  0  0  0  0  0  0  0  0  0  0
   29.8610   51.9630   -3.6270 C   0  0  0  0  0  0  0  0  0  0  0  0
   29.4310   54.1160   -4.0820 C   0  0  0  0  0  0  0  0  0  0  0  0
   28.6780   55.1320   -6.1310 C   0  0  0  0  0  0  0  0  0  0  0  0
   29.6540   50.2530   -5.0960 N   0  0  0  0  0  0  0  0  0  0  0  0
   29.8150   53.2590   -3.1910 N   0  0  0  0  0  0  0  0  0  0  0  0
   29.3170   55.5840   -3.8040 C   0  0  0  0  0  0  0  0  0  0  0  0
   29.3430   56.1660   -5.2180 C   0  0  0  0  0  0  0  0  0  0  0  0
   30.2050   50.8770   -2.9660 N   0  0  0  0  0  0  0  0  0  0  0  0
   30.0660   49.8840   -3.8840 C   0  0  0  0  0  0  0  0  0  0  0  0
  1  2  1  0
  2  3  1  0
  1  4  1  0
  4  5  1  0
  4  6  2  0
  5  7  1  0
  6  8  1  0
  6  9  1  0
  5 10  1  0
  7 11  1  0
  8 11  2  0
  8 12  1  0
  9 13  1  0
 12 13  1  0
  7 14  2  0
 10 15  2  0
 14 15  1  0
M  END
