mac-x0387-mac-x0131
     RDKit          3D

 19 21  0  0  0  0  0  0  0  0999 V2000
   28.3560   51.1670   -7.4530 N   0  0  0  0  0  0  0  0  0  0  0  0
   28.8170   49.8710   -7.2120 C   0  0  0  0  0  0  0  0  0  0  0  0
   28.7710   49.1080   -8.3240 N   0  0  0  0  0  0  0  0  0  0  0  0
   29.2820   49.4180   -5.9240 C   0  0  0  0  0  0  0  0  0  0  0  0
   29.7100   48.0560   -5.8850 C   0  0  0  0  0  0  0  0  0  0  0  0
   29.1840   47.8430   -8.2290 C   0  0  0  0  0  0  0  0  0  0  0  0
   29.3600   50.1820   -4.6860 C   0  0  0  0  0  0  0  0  0  0  0  0
   28.9270   51.6320   -4.6340 C   0  0  0  0  0  0  0  0  0  0  0  0
   29.6500   47.2870   -7.0610 C   0  0  0  0  0  0  0  0  0  0  0  0
   30.1910   47.4820   -4.6770 C   0  0  0  0  0  0  0  0  0  0  0  0
   29.8440   49.5880   -3.4950 C   0  0  0  0  0  0  0  0  0  0  0  0
   29.9470   50.3290   -2.1850 C   0  0  0  0  0  0  0  0  0  0  0  0
   30.6630   46.0400   -4.5680 C   0  0  0  0  0  0  0  0  0  0  0  0
   30.2490   48.2540   -3.5110 C   0  0  0  0  0  0  0  0  0  0  0  0
   32.0930   45.8660   -4.9340 C   0  0  0  0  0  0  0  0  0  0  0  0
   32.7480   45.2330   -5.9710 C   0  0  0  0  0  0  0  0  0  0  0  0
   33.0030   46.4390   -4.0930 O   0  0  0  0  0  0  0  0  0  0  0  0
   34.2340   46.1700   -4.5980 C   0  0  0  0  0  0  0  0  0  0  0  0
   34.1290   45.4310   -5.7520 C   0  0  0  0  0  0  0  0  0  0  0  0
  1  2  1  0
  2  3  2  0
  2  4  1  0
  4  5  2  0
  3  6  1  0
  4  7  1  0
  7  8  1  0
  5  9  1  0
  6  9  2  0
  5 10  1  0
  7 11  2  0
 11 12  1  0
 10 13  1  0
 10 14  2  0
 11 14  1  0
 13 15  1  0
 15 16  2  0
 15 17  1  0
 17 18  1  0
 16 19  1  0
 18 19  2  0
M  END
