mac-x0455-mac-x0206
     RDKit          3D

 24 25  0  0  0  0  0  0  0  0999 V2000
   30.7680   48.4300   -3.7300 C   0  0  0  0  0  0  0  0  0  0  0  0
   31.0550   46.9570   -4.1010 C   0  0  1  0  0  0  0  0  0  0  0  0
   30.3330   46.1070   -3.1870 O   0  0  0  0  0  0  0  0  0  0  0  0
   30.5410   46.6260   -5.5910 C   0  0  0  0  0  0  0  0  0  0  0  0
   32.5410   46.6720   -3.7900 C   0  0  0  0  0  0  0  0  0  0  0  0
   29.4100   45.7590   -5.5710 O   0  0  0  0  0  0  0  0  0  0  0  0
   31.5820   46.0070   -6.3480 O   0  0  0  0  0  0  0  0  0  0  0  0
   30.1580   47.8930   -6.3940 C   0  0  0  0  0  0  0  0  0  0  0  0
   33.4460   47.7540   -3.7120 C   0  0  0  0  0  0  0  0  0  0  0  0
   33.0720   45.3870   -3.5730 C   0  0  0  0  0  0  0  0  0  0  0  0
   28.9380   48.6600   -5.8640 C   0  0  0  0  0  0  0  0  0  0  0  0
   34.8020   47.5680   -3.4340 C   0  0  0  0  0  0  0  0  0  0  0  0
   34.4330   45.1990   -3.2940 C   0  0  0  0  0  0  0  0  0  0  0  0
   29.0970   50.0960   -5.9830 N   0  0  0  0  0  0  0  0  0  0  0  0
   35.2940   46.2870   -3.2230 C   0  0  0  0  0  0  0  0  0  0  0  0
   29.2490   50.9400   -4.9000 C   0  0  0  0  0  0  0  0  0  0  0  0
   29.4000   50.5370   -3.7500 O   0  0  0  0  0  0  0  0  0  0  0  0
   29.2200   52.4100   -5.1700 C   0  0  0  0  0  0  0  0  0  0  0  0
   29.7200   53.3950   -4.2990 C   0  0  0  0  0  0  0  0  0  0  0  0
   28.6520   52.8240   -6.3850 C   0  0  0  0  0  0  0  0  0  0  0  0
   30.2860   53.0520   -3.1000 O   0  0  0  0  0  0  0  0  0  0  0  0
   29.6490   54.7490   -4.6400 C   0  0  0  0  0  0  0  0  0  0  0  0
   28.5800   54.1760   -6.7270 C   0  0  0  0  0  0  0  0  0  0  0  0
   29.0810   55.1400   -5.8510 C   0  0  0  0  0  0  0  0  0  0  0  0
  2  1  1  1
  2  3  1  0
  2  4  1  0
  2  5  1  0
  4  6  1  0
  4  7  1  0
  4  8  1  0
  5  9  2  0
  5 10  1  0
  8 11  1  0
  9 12  1  0
 10 13  2  0
 11 14  1  0
 12 15  2  0
 13 15  1  0
 14 16  1  0
 16 17  2  0
 16 18  1  0
 18 19  2  0
 18 20  1  0
 19 21  1  0
 19 22  1  0
 20 23  2  0
 22 24  2  0
 23 24  1  0
M  END
