mac-x0379-mac-x0319
     RDKit          3D

 19 20  0  0  0  0  0  0  0  0999 V2000
   29.7690   52.6850   -4.7220 C   0  0  0  0  0  0  0  0  0  0  0  0
   29.7160   51.2200   -4.4690 C   0  0  0  0  0  0  0  0  0  0  0  0
   30.1950   50.6270   -3.3970 N   0  0  0  0  0  0  0  0  0  0  0  0
   28.9880   50.1790   -5.6250 S   0  0  0  0  0  0  0  0  0  0  0  0
   29.9800   49.2660   -3.4800 C   0  0  0  0  0  0  0  0  0  0  0  0
   29.3340   48.8290   -4.6210 C   0  0  0  0  0  0  0  0  0  0  0  0
   28.9500   47.4360   -5.0130 C   0  0  2  0  0  0  0  0  0  0  0  0
   27.5660   47.2650   -4.7180 O   0  0  0  0  0  0  0  0  0  0  0  0
   29.7810   46.3350   -4.3910 C   0  0  0  0  0  0  0  0  0  0  0  0
   29.2660   45.4940   -3.3930 C   0  0  0  0  0  0  0  0  0  0  0  0
   31.1030   46.1400   -4.8250 C   0  0  0  0  0  0  0  0  0  0  0  0
   31.9040   45.1290   -4.2830 C   0  0  0  0  0  0  0  0  0  0  0  0
   30.0590   44.4900   -2.8530 C   0  0  0  0  0  0  0  0  0  0  0  0
   33.3210   44.9420   -4.7730 C   0  0  0  0  0  0  0  0  0  0  0  0
   29.5810   43.6620   -1.8840 O   0  0  0  0  0  0  0  0  0  0  0  0
   31.3680   44.3000   -3.2870 C   0  0  0  0  0  0  0  0  0  0  0  0
   33.5260   45.3730   -6.2090 C   0  0  0  0  0  0  0  0  0  0  0  0
   34.7630   45.8750   -6.4140 O   0  0  0  0  0  0  0  0  0  0  0  0
   32.7380   45.3190   -7.1400 O   0  0  0  0  0  0  0  0  0  0  0  0
  1  2  1  0
  2  3  2  0
  2  4  1  0
  3  5  1  0
  4  6  1  0
  5  6  2  0
  6  7  1  0
  7  8  1  1
  7  9  1  0
  9 10  2  0
  9 11  1  0
 11 12  2  0
 10 13  1  0
 12 14  1  0
 13 15  1  0
 12 16  1  0
 13 16  2  0
 14 17  1  0
 17 18  1  0
 17 19  2  0
M  END
