mac-x0379-mac-x0437
     RDKit          3D

 24 26  0  0  0  0  0  0  0  0999 V2000
   29.2720   52.4710   -4.9170 C   0  0  0  0  0  0  0  0  0  0  0  0
   29.5960   51.1230   -4.3780 C   0  0  0  0  0  0  0  0  0  0  0  0
   29.7970   50.8590   -3.1050 N   0  0  0  0  0  0  0  0  0  0  0  0
   29.7320   49.7770   -5.4380 S   0  0  0  0  0  0  0  0  0  0  0  0
   30.0750   49.5150   -2.9450 C   0  0  0  0  0  0  0  0  0  0  0  0
   30.0860   48.7580   -4.1010 C   0  0  0  0  0  0  0  0  0  0  0  0
   30.3390   47.3490   -4.2470 C   0  0  0  0  0  0  0  0  0  0  0  0
   31.5330   46.8610   -4.3540 N   0  0  0  0  0  0  0  0  0  0  0  0
   29.2310   46.5730   -4.2650 O   0  0  0  0  0  0  0  0  0  0  0  0
   31.5920   45.3850   -4.5040 C   0  0  0  0  0  0  0  0  0  0  0  0
   33.0390   44.8180   -4.4020 C   0  0  1  0  0  0  0  0  0  0  0  0
   33.5830   44.1490   -5.6740 C   0  0  0  0  0  0  0  0  0  0  0  0
   34.0340   45.7740   -3.8910 N   0  0  0  0  0  0  0  0  0  0  0  0
   32.5320   43.9600   -6.7350 C   0  0  0  0  0  0  0  0  0  0  0  0
   34.0950   47.1190   -4.1530 C   0  0  0  0  0  0  0  0  0  0  0  0
   35.0860   45.4670   -3.0550 C   0  0  0  0  0  0  0  0  0  0  0  0
   31.5650   43.0780   -6.3940 O   0  0  0  0  0  0  0  0  0  0  0  0
   32.5470   44.5340   -7.8160 O   0  0  0  0  0  0  0  0  0  0  0  0
   35.1090   47.6950   -3.5470 N   0  0  0  0  0  0  0  0  0  0  0  0
   35.7370   46.6850   -2.8600 C   0  0  0  0  0  0  0  0  0  0  0  0
   35.5340   44.2800   -2.4600 C   0  0  0  0  0  0  0  0  0  0  0  0
   36.8770   46.7420   -2.0460 C   0  0  0  0  0  0  0  0  0  0  0  0
   36.6740   44.3530   -1.6500 C   0  0  0  0  0  0  0  0  0  0  0  0
   37.3370   45.5640   -1.4450 C   0  0  0  0  0  0  0  0  0  0  0  0
  1  2  1  0
  2  3  2  0
  2  4  1  0
  3  5  1  0
  4  6  1  0
  5  6  2  0
  6  7  1  0
  7  8  2  3
  7  9  1  0
  8 10  1  0
 11 10  1  6
 11 12  1  0
 11 13  1  0
 12 14  1  0
 13 15  1  0
 13 16  1  0
 14 17  1  0
 14 18  2  0
 15 19  2  0
 16 20  2  0
 19 20  1  0
 16 21  1  0
 20 22  1  0
 21 23  2  0
 22 24  2  0
 23 24  1  0
M  END
