mac-x0159-mac-x0436
     RDKit          3D

 34 38  0  0  0  0  0  0  0  0999 V2000
   28.0950   51.5430   -6.3490 N   0  0  0  0  0  0  0  0  0  0  0  0
   29.1730   50.6800   -5.9040 C   0  0  2  0  0  0  0  0  0  0  0  0
   29.4220   49.4710   -6.8290 C   0  0  1  0  0  0  0  0  0  0  0  0
   28.8570   50.3950   -4.5320 N   0  0  0  0  0  0  0  0  0  0  0  0
   29.8250   49.4810   -3.9680 C   0  0  0  0  0  0  0  0  0  0  0  0
   29.8640   48.1960   -6.0650 C   0  0  1  0  0  0  0  0  0  0  0  0
   28.3170   48.9960   -7.6860 N   0  0  0  0  0  0  0  0  0  0  0  0
   29.7100   48.1860   -4.5980 N   0  0  0  0  0  0  0  0  0  0  0  0
   29.1030   47.1180   -6.7310 N   0  0  0  0  0  0  0  0  0  0  0  0
   28.7460   47.6700   -8.0330 C   0  0  0  0  0  0  0  0  0  0  0  0
   30.5210   47.1770   -3.8950 C   0  0  2  0  0  0  0  0  0  0  0  0
   31.6300   46.5050   -4.7370 C   0  0  0  0  0  0  0  0  0  0  0  0
   29.5790   46.1820   -3.2210 C   0  0  0  0  0  0  0  0  0  0  0  0
   32.5310   45.4640   -4.0230 C   0  0  1  0  0  0  0  0  0  0  0  0
   29.0880   44.9980   -3.7480 C   0  0  0  0  0  0  0  0  0  0  0  0
   29.1420   46.4530   -1.9340 N   0  0  0  0  0  0  0  0  0  0  0  0
   32.7700   44.3300   -5.0150 C   0  0  0  0  0  0  0  0  0  0  0  0
   28.3500   45.5050   -1.5020 C   0  0  0  0  0  0  0  0  0  0  0  0
   28.0690   44.2220   -2.6100 S   0  0  0  0  0  0  0  0  0  0  0  0
   33.8700   46.0500   -3.5820 C   0  0  0  0  0  0  0  0  0  0  0  0
   27.7180   45.5010   -0.1570 C   0  0  0  0  0  0  0  0  0  0  0  0
   32.7950   44.9130   -6.4170 C   0  0  0  0  0  0  0  0  0  0  0  0
   34.0330   47.5740   -3.6260 C   0  0  0  0  0  0  0  0  0  0  0  0
   34.8390   45.2540   -3.2000 N   0  0  0  0  0  0  0  0  0  0  0  0
   33.9960   45.4340   -6.7720 O   0  0  0  0  0  0  0  0  0  0  0  0
   31.8340   44.9390   -7.1740 O   0  0  0  0  0  0  0  0  0  0  0  0
   33.0830   48.3150   -3.8040 O   0  0  0  0  0  0  0  0  0  0  0  0
   35.3070   48.0400   -3.4550 N   0  0  0  0  0  0  0  0  0  0  0  0
   36.0740   45.8350   -2.8500 C   0  0  0  0  0  0  0  0  0  0  0  0
   36.3220   47.2130   -2.9750 C   0  0  0  0  0  0  0  0  0  0  0  0
   37.0950   45.0180   -2.3690 C   0  0  0  0  0  0  0  0  0  0  0  0
   38.3370   45.5600   -2.0220 C   0  0  0  0  0  0  0  0  0  0  0  0
   37.5550   47.7620   -2.6330 C   0  0  0  0  0  0  0  0  0  0  0  0
   38.5650   46.9330   -2.1550 C   0  0  0  0  0  0  0  0  0  0  0  0
  2  1  1  6
  2  3  1  0
  2  4  1  0
  4  5  1  0
  3  6  1  0
  3  7  1  1
  5  8  1  0
  6  8  1  0
  6  9  1  6
  7 10  1  0
  9 10  1  0
  8 11  1  0
 11 12  1  6
 11 13  1  0
 14 12  1  6
 13 15  2  0
 13 16  1  0
 14 17  1  0
 16 18  2  0
 15 19  1  0
 18 19  1  0
 14 20  1  0
 18 21  1  0
 17 22  1  0
 20 23  1  0
 20 24  2  0
 22 25  1  0
 22 26  2  0
 23 27  2  0
 23 28  1  0
 24 29  1  0
 28 30  1  0
 29 30  2  0
 29 31  1  0
 31 32  2  0
 30 33  1  0
 32 34  1  0
 33 34  2  0
M  END
