mac-x0568
     RDKit          3D

 10 10  0  0  0  0  0  0  0  0999 V2000
   29.6090   55.7280   -5.3080 C   0  0  0  0  0  0  0  0  0  0  0  0
   29.5610   54.2150   -5.2970 C   0  0  0  0  0  0  0  0  0  0  0  0
   29.1750   53.5020   -6.4220 C   0  0  0  0  0  0  0  0  0  0  0  0
   29.1580   52.1200   -6.3660 C   0  0  0  0  0  0  0  0  0  0  0  0
   29.5310   51.5280   -5.1700 C   0  0  0  0  0  0  0  0  0  0  0  0
   29.8860   52.3260   -4.0970 C   0  0  0  0  0  0  0  0  0  0  0  0
   29.8860   53.6210   -4.1790 N   0  0  0  0  0  0  0  0  0  0  0  0
   29.5720   50.0440   -4.9560 C   0  0  0  0  0  0  0  0  0  0  0  0
   29.9100   49.6450   -3.8920 O   0  0  0  0  0  0  0  0  0  0  0  0
   29.2570   49.1290   -6.0340 N   0  0  0  0  0  0  0  0  0  0  0  0
  1  2  1  0
  2  3  2  0
  3  4  1  0
  4  5  2  0
  5  6  1  0
  2  7  1  0
  6  7  2  0
  5  8  1  0
  8  9  2  0
  8 10  1  0
M  END
