mac-x0139-mac-x0417
     RDKit          3D

 26 29  0  0  0  0  0  0  0  0999 V2000
   30.4350   47.6350   -4.2770 C   0  0  0  0  0  0  0  0  0  0  0  0
   30.0000   46.8170   -5.4300 N   0  0  0  0  0  0  0  0  0  0  0  0
   30.6710   45.5100   -5.4880 C   0  0  0  0  0  0  0  0  0  0  0  0
   29.4970   47.4870   -6.5760 C   0  0  0  0  0  0  0  0  0  0  0  0
   32.2110   45.5190   -5.3230 C   0  0  2  0  0  0  0  0  0  0  0  0
   29.3460   48.8340   -6.6340 C   0  0  0  0  0  0  0  0  0  0  0  0
   29.1510   46.6920   -7.6850 N   0  0  0  0  0  0  0  0  0  0  0  0
   32.8240   44.9820   -6.6090 C   0  0  0  0  0  0  0  0  0  0  0  0
   32.7120   44.9330   -3.9670 C   0  0  0  0  0  0  0  0  0  0  0  0
   28.8140   49.4270   -7.8880 C   0  0  0  0  0  0  0  0  0  0  0  0
   28.6880   47.2610   -8.7530 C   0  0  0  0  0  0  0  0  0  0  0  0
   29.5530   49.9790   -5.8040 C   0  0  0  0  0  0  0  0  0  0  0  0
   32.2310   44.4620   -7.5430 O   0  0  0  0  0  0  0  0  0  0  0  0
   34.1590   45.1370   -6.6840 O   0  0  0  0  0  0  0  0  0  0  0  0
   28.5090   48.5960   -8.9080 N   0  0  0  0  0  0  0  0  0  0  0  0
   28.7160   50.7260   -7.8190 N   0  0  0  0  0  0  0  0  0  0  0  0
   29.1700   51.0310   -6.5460 C   0  0  0  0  0  0  0  0  0  0  0  0
   34.1340   44.8840   -3.4310 C   0  0  0  0  0  0  0  0  0  0  0  0
   34.6170   43.6740   -3.1030 N   0  0  0  0  0  0  0  0  0  0  0  0
   35.1230   45.8960   -3.1630 C   0  0  0  0  0  0  0  0  0  0  0  0
   35.8970   43.8610   -2.6230 O   0  0  0  0  0  0  0  0  0  0  0  0
   36.2030   45.1780   -2.6550 C   0  0  0  0  0  0  0  0  0  0  0  0
   35.2660   47.2940   -3.2670 C   0  0  0  0  0  0  0  0  0  0  0  0
   37.4130   45.7310   -2.2400 C   0  0  0  0  0  0  0  0  0  0  0  0
   36.4760   47.8870   -2.8560 C   0  0  0  0  0  0  0  0  0  0  0  0
   37.5300   47.1180   -2.3530 C   0  0  0  0  0  0  0  0  0  0  0  0
  1  2  1  0
  2  3  1  0
  2  4  1  0
  5  3  1  6
  4  6  2  0
  4  7  1  0
  5  8  1  0
  5  9  1  0
  6 10  1  0
  7 11  2  0
  6 12  1  0
  8 13  2  0
  8 14  1  0
 10 15  1  0
 11 15  1  0
 10 16  2  0
 12 17  2  0
 16 17  1  0
  9 18  1  0
 18 19  2  0
 18 20  1  0
 19 21  1  0
 20 22  2  0
 21 22  1  0
 20 23  1  0
 22 24  1  0
 23 25  2  0
 24 26  2  0
 25 26  1  0
M  END
