mac-x0142-mac-x1494
     RDKit          3D

 24 28  0  0  0  0  0  0  0  0999 V2000
   28.7020   51.9550   -6.8020 O   0  0  0  0  0  0  0  0  0  0  0  0
   27.9890   50.9080   -6.3170 N   0  0  1  0  0  0  0  0  0  0  0  0
   28.5400   49.5970   -6.7240 C   0  0  0  0  0  0  0  0  0  0  0  0
   28.0520   50.8180   -4.8160 C   0  0  0  0  0  0  0  0  0  0  0  0
   28.3620   49.0490   -7.9300 N   0  0  0  0  0  0  0  0  0  0  0  0
   29.2550   49.0220   -5.6910 C   0  0  0  0  0  0  0  0  0  0  0  0
   29.2600   49.8940   -4.4720 C   0  0  2  0  0  0  0  0  0  0  0  0
   28.9460   47.8550   -8.0730 C   0  0  0  0  0  0  0  0  0  0  0  0
   29.8160   47.7920   -5.9360 C   0  0  0  0  0  0  0  0  0  0  0  0
   29.0140   49.0960   -3.1640 C   0  0  0  0  0  0  0  0  0  0  0  0
   30.4920   50.7860   -4.4010 C   0  0  0  0  0  0  0  0  0  0  0  0
   30.5560   47.1460   -4.9240 N   0  0  0  0  0  0  0  0  0  0  0  0
   29.6610   47.2010   -7.1370 N   0  0  0  0  0  0  0  0  0  0  0  0
   30.3100   48.7040   -2.4500 C   0  0  2  0  0  0  0  0  0  0  0  0
   31.3470   50.7980   -3.3560 C   0  0  0  0  0  0  0  0  0  0  0  0
   30.0260   47.7470   -0.9580 Cl  0  0  0  0  0  0  0  0  0  0  0  0
   31.9470   47.6550   -4.8740 C   0  0  0  0  0  0  0  0  0  0  0  0
   30.3860   45.6880   -4.9340 C   0  0  0  0  0  0  0  0  0  0  0  0
   31.1730   49.9230   -2.1440 C   0  0  0  0  0  0  0  0  0  0  0  0
   31.7240   45.0430   -4.6260 C   0  0  0  0  0  0  0  0  0  0  0  0
   32.7600   47.1120   -3.6940 C   0  0  0  0  0  0  0  0  0  0  0  0
   31.8910   43.5580   -4.8940 C   0  0  0  0  0  0  0  0  0  0  0  0
   32.5700   44.5500   -5.7870 C   0  0  0  0  0  0  0  0  0  0  0  0
   32.4540   45.6450   -3.4420 C   0  0  0  0  0  0  0  0  0  0  0  0
  2  1  1  6
  2  3  1  0
  2  4  1  0
  3  5  2  0
  3  6  1  0
  7  4  1  6
  6  7  1  0
  5  8  1  0
  6  9  2  0
  7 10  1  0
  7 11  1  0
  9 12  1  0
  8 13  2  0
  9 13  1  0
 10 14  1  0
 11 15  2  0
 14 16  1  1
 12 17  1  0
 12 18  1  0
 14 19  1  0
 15 19  1  0
 20 18  1  0
 17 21  1  0
 20 22  1  0
 20 23  1  0
 22 23  1  0
 20 24  1  0
 21 24  1  0
M  CHG  2   1  -1   2   1
M  END
