mac-x0357-mac-x0178
     RDKit          3D

 22 23  0  0  0  0  0  0  0  0999 V2000
   32.4470   43.4940   -4.7760 C   0  0  0  0  0  0  0  0  0  0  0  0
   33.4510   44.5610   -4.4790 C   0  0  0  0  0  0  0  0  0  0  0  0
   34.5470   44.1520   -3.7530 C   0  0  0  0  0  0  0  0  0  0  0  0
   33.2860   45.8740   -4.8930 C   0  0  0  0  0  0  0  0  0  0  0  0
   34.7190   42.8370   -3.3230 O   0  0  0  0  0  0  0  0  0  0  0  0
   32.0000   46.3770   -5.6760 S   0  0  0  0  0  0  0  0  0  0  0  0
   34.3080   46.7160   -4.5210 C   0  0  0  0  0  0  0  0  0  0  0  0
   35.5500   45.0660   -3.4060 C   0  0  0  0  0  0  0  0  0  0  0  0
   31.5540   46.5670   -7.2550 O   0  0  0  0  0  0  0  0  0  0  0  0
   31.3580   44.9500   -6.1340 O   0  0  0  0  0  0  0  0  0  0  0  0
   32.0800   47.7300   -5.6170 O   0  0  0  0  0  0  0  0  0  0  0  0
   35.4030   46.3490   -3.8090 C   0  0  0  0  0  0  0  0  0  0  0  0
   30.8520   46.3160   -4.3980 C   0  0  0  0  0  0  0  0  0  0  0  0
   29.6370   45.7820   -4.3600 C   0  0  0  0  0  0  0  0  0  0  0  0
   31.4160   46.9150   -3.3450 C   0  0  0  0  0  0  0  0  0  0  0  0
   28.9050   45.8260   -3.1910 C   0  0  0  0  0  0  0  0  0  0  0  0
   30.7110   46.9680   -2.1920 C   0  0  0  0  0  0  0  0  0  0  0  0
   29.4620   46.4310   -2.0890 C   0  0  0  0  0  0  0  0  0  0  0  0
   28.6330   46.5420   -0.5490 S   0  0  0  0  0  0  0  0  0  0  0  0
   28.1640   44.9770   -0.0650 N   0  0  0  0  0  0  0  0  0  0  0  0
   29.5330   47.1810    0.4660 O   0  0  0  0  0  0  0  0  0  0  0  0
   27.4150   47.4030   -0.6970 O   0  0  0  0  0  0  0  0  0  0  0  0
  1  2  1  0
  2  3  2  0
  2  4  1  0
  3  5  1  0
  4  6  1  0
  4  7  2  0
  3  8  1  0
  6  9  2  0
  6 10  1  0
  6 11  1  0
  7 12  1  0
  8 12  2  0
  6 13  1  0
 13 14  2  0
 13 15  1  0
 14 16  1  0
 15 17  2  0
 16 18  2  0
 17 18  1  0
 18 19  1  0
 19 20  1  0
 19 21  2  0
 19 22  2  0
M  END
