mac-x0509-mac-x0455
     RDKit          3D

 23 25  0  0  0  0  0  0  0  0999 V2000
   37.6720   47.2070   -5.2640 O   0  0  0  0  0  0  0  0  0  0  0  0
   37.8200   46.1920   -4.6010 C   0  0  0  0  0  0  0  0  0  0  0  0
   37.7830   46.0580   -3.0670 C   0  0  1  0  0  0  0  0  0  0  0  0
   38.0640   44.9190   -5.1050 N   0  0  0  0  0  0  0  0  0  0  0  0
   36.7360   46.9350   -2.3730 C   0  0  0  0  0  0  0  0  0  0  0  0
   37.6480   44.5700   -2.8950 C   0  0  0  0  0  0  0  0  0  0  0  0
   37.8270   43.9570   -4.1350 C   0  0  0  0  0  0  0  0  0  0  0  0
   37.3910   43.8180   -1.7640 C   0  0  0  0  0  0  0  0  0  0  0  0
   37.7610   42.5910   -4.3010 C   0  0  0  0  0  0  0  0  0  0  0  0
   35.3030   46.8720   -2.8650 C   0  0  0  0  0  0  0  0  0  0  0  0
   37.3230   42.4290   -1.9060 C   0  0  0  0  0  0  0  0  0  0  0  0
   37.5060   41.8210   -3.1620 C   0  0  0  0  0  0  0  0  0  0  0  0
   34.6310   48.0610   -3.1670 C   0  0  0  0  0  0  0  0  0  0  0  0
   34.6190   45.6590   -3.0260 C   0  0  0  0  0  0  0  0  0  0  0  0
   33.3100   48.0480   -3.6180 C   0  0  0  0  0  0  0  0  0  0  0  0
   33.2910   45.6480   -3.4770 C   0  0  0  0  0  0  0  0  0  0  0  0
   32.6100   46.8460   -3.7820 C   0  0  0  0  0  0  0  0  0  0  0  0
   31.1580   46.8080   -4.2670 C   0  0  2  0  0  0  0  0  0  0  0  0
   30.5310   48.1810   -4.5360 C   0  0  0  0  0  0  0  0  0  0  0  0
   30.3750   46.2230   -3.2140 O   0  0  0  0  0  0  0  0  0  0  0  0
   30.9610   45.9750   -5.5630 C   0  0  0  0  0  0  0  0  0  0  0  0
   30.0400   45.1680   -5.6830 O   0  0  0  0  0  0  0  0  0  0  0  0
   31.8510   46.1860   -6.5590 O   0  0  0  0  0  0  0  0  0  0  0  0
  1  2  2  0
  2  3  1  0
  2  4  1  0
  3  5  1  6
  3  6  1  0
  4  7  1  0
  6  7  2  0
  6  8  1  0
  7  9  1  0
  5 10  1  0
  8 11  2  0
  9 12  2  0
 11 12  1  0
 10 13  2  0
 10 14  1  0
 13 15  1  0
 14 16  2  0
 15 17  2  0
 16 17  1  0
 17 18  1  0
 18 19  1  6
 18 20  1  0
 18 21  1  0
 21 22  2  0
 21 23  1  0
M  END
