mac-x0303-mac-x0590
     RDKit          3D

 26 29  0  0  0  0  0  0  0  0999 V2000
   31.0270   55.7590   -6.6840 N   0  0  0  0  0  0  0  0  0  0  0  0
   29.8180   55.4820   -5.5450 S   0  0  0  0  0  0  0  0  0  0  0  0
   28.5590   55.9110   -6.1060 O   0  0  0  0  0  0  0  0  0  0  0  0
   30.3010   55.9350   -4.2600 O   0  0  0  0  0  0  0  0  0  0  0  0
   29.6750   53.7230   -5.3820 C   0  0  0  0  0  0  0  0  0  0  0  0
   30.2170   53.0360   -4.3200 N   0  0  0  0  0  0  0  0  0  0  0  0
   29.0550   52.9060   -6.2310 N   0  0  0  0  0  0  0  0  0  0  0  0
   29.9230   51.7150   -4.5090 C   0  0  0  0  0  0  0  0  0  0  0  0
   29.2170   51.6560   -5.6730 C   0  0  0  0  0  0  0  0  0  0  0  0
   30.2890   50.5630   -3.6430 C   0  0  0  0  0  0  0  0  0  0  0  0
   28.7120   50.3580   -6.2160 C   0  0  1  0  0  0  0  0  0  0  0  0
   29.3410   49.3260   -3.8500 C   0  0  1  0  0  0  0  0  0  0  0  0
   28.2350   49.4880   -4.9640 C   0  0  2  0  0  0  0  0  0  0  0  0
   27.5710   50.5870   -7.1470 N   0  0  0  0  0  0  0  0  0  0  0  0
   29.7620   49.6400   -7.0730 C   0  0  0  0  0  0  0  0  0  0  0  0
   27.7340   48.1510   -5.3820 N   0  0  0  0  0  0  0  0  0  0  0  0
   30.1940   48.0450   -4.0100 C   0  0  0  0  0  0  0  0  0  0  0  0
   28.9380   48.9200   -8.0480 N   0  0  0  0  0  0  0  0  0  0  0  0
   27.8980   49.8760   -8.3760 C   0  0  0  0  0  0  0  0  0  0  0  0
   31.6240   48.0970   -3.4540 C   0  0  0  0  0  0  0  0  0  0  0  0
   32.1960   46.7170   -3.1160 C   0  0  0  0  0  0  0  0  0  0  0  0
   33.3020   46.2930   -4.0830 C   0  0  2  0  0  0  0  0  0  0  0  0
   32.8160   46.1250   -5.5160 C   0  0  0  0  0  0  0  0  0  0  0  0
   33.9040   44.9280   -3.8120 C   0  0  0  0  0  0  0  0  0  0  0  0
   32.9380   44.0160   -4.5370 C   0  0  0  0  0  0  0  0  0  0  0  0
   32.4660   44.7410   -5.6790 O   0  0  0  0  0  0  0  0  0  0  0  0
  2  1  1  0
  2  3  2  0
  2  4  2  0
  2  5  1  0
  5  6  1  0
  5  7  2  0
  6  8  1  0
  7  9  1  0
  8  9  2  0
  8 10  1  0
  9 11  1  0
 10 12  1  0
 11 13  1  0
 12 13  1  0
 11 14  1  0
 11 15  1  6
 13 16  1  6
 12 17  1  6
 15 18  1  0
 14 19  1  0
 18 19  1  0
 17 20  1  0
 20 21  1  0
 22 21  1  1
 22 23  1  0
 22 24  1  0
 24 25  1  0
 23 26  1  0
 25 26  1  0
M  END
