mac-x0360-mac-x0510
     RDKit          3D

 22 24  0  0  0  0  0  0  0  0999 V2000
   32.7950   55.4400   -6.5600 Cl  0  0  0  0  0  0  0  0  0  0  0  0
   32.9160   53.8450   -5.9320 C   0  0  0  0  0  0  0  0  0  0  0  0
   34.1270   53.1570   -6.0230 C   0  0  0  0  0  0  0  0  0  0  0  0
   31.8050   53.2490   -5.3360 C   0  0  0  0  0  0  0  0  0  0  0  0
   31.9180   51.9510   -4.8310 C   0  0  0  0  0  0  0  0  0  0  0  0
   34.2240   51.8640   -5.5140 C   0  0  0  0  0  0  0  0  0  0  0  0
   35.7150   51.0150   -5.6270 Cl  0  0  0  0  0  0  0  0  0  0  0  0
   30.5100   51.1690   -4.0660 S   0  0  0  0  0  0  0  0  0  0  0  0
   33.1260   51.2480   -4.9140 C   0  0  0  0  0  0  0  0  0  0  0  0
   30.0840   50.0460   -5.1520 N   0  0  0  0  0  0  0  0  0  0  0  0
   30.9940   50.4990   -2.8770 O   0  0  0  0  0  0  0  0  0  0  0  0
   29.4770   52.1810   -3.9480 O   0  0  0  0  0  0  0  0  0  0  0  0
   29.0810   50.1900   -5.9520 C   0  0  0  0  0  0  0  0  0  0  0  0
   28.7720   49.1510   -6.8800 C   0  0  0  0  0  0  0  0  0  0  0  0
   28.2020   51.2580   -6.0620 N   0  0  0  0  0  0  0  0  0  0  0  0
   27.3220   51.4820   -7.1110 C   0  0  0  0  0  0  0  0  0  0  0  0
   27.8840   49.3200   -7.8980 C   0  0  0  0  0  0  0  0  0  0  0  0
   29.2110   47.8640   -7.0090 N   0  0  0  0  0  0  0  0  0  0  0  0
   26.6460   52.5090   -7.1690 O   0  0  0  0  0  0  0  0  0  0  0  0
   27.2400   50.5060   -8.0750 N   0  0  0  0  0  0  0  0  0  0  0  0
   27.7430   48.2060   -8.6570 N   0  0  0  0  0  0  0  0  0  0  0  0
   28.5590   47.3330   -8.0980 C   0  0  0  0  0  0  0  0  0  0  0  0
  1  2  1  0
  2  3  2  0
  2  4  1  0
  4  5  2  0
  3  6  1  0
  6  7  1  0
  5  8  1  0
  5  9  1  0
  6  9  2  0
  8 10  1  0
  8 11  2  0
  8 12  2  0
 10 13  2  3
 13 14  1  0
 13 15  1  0
 15 16  1  0
 14 17  2  0
 14 18  1  0
 16 19  2  0
 16 20  1  0
 17 20  1  0
 17 21  1  0
 18 22  1  0
 21 22  2  0
M  END
