mac-x0226-mac-x0283
     RDKit          3D

 27 30  0  0  0  0  0  0  0  0999 V2000
   32.0040   45.6230   -6.8770 O   0  0  0  0  0  0  0  0  0  0  0  0
   32.8240   46.4570   -6.0620 C   0  0  0  0  0  0  0  0  0  0  0  0
   33.8380   46.9650   -6.9140 O   0  0  0  0  0  0  0  0  0  0  0  0
   31.9310   47.6390   -5.6310 C   0  0  0  0  0  0  0  0  0  0  0  0
   33.3670   45.6440   -4.9230 C   0  0  0  0  0  0  0  0  0  0  0  0
   30.5350   47.3350   -5.0640 C   0  0  0  0  0  0  0  0  0  0  0  0
   32.8290   44.4510   -4.3960 C   0  0  0  0  0  0  0  0  0  0  0  0
   34.4880   45.8580   -4.1410 C   0  0  0  0  0  0  0  0  0  0  0  0
   29.9700   48.3460   -4.0590 C   0  0  0  0  0  0  0  0  0  0  0  0
   33.5370   43.9580   -3.3830 N   0  0  0  0  0  0  0  0  0  0  0  0
   34.5670   44.8300   -3.2230 N   0  0  0  0  0  0  0  0  0  0  0  0
   35.5490   44.6240   -2.2140 C   0  0  0  0  0  0  0  0  0  0  0  0
   29.7200   49.7670   -4.5200 C   0  0  0  0  0  0  0  0  0  0  0  0
   36.4490   45.6370   -1.8600 C   0  0  0  0  0  0  0  0  0  0  0  0
   35.6190   43.3840   -1.5610 C   0  0  0  0  0  0  0  0  0  0  0  0
   30.0460   50.8780   -3.7240 C   0  0  0  0  0  0  0  0  0  0  0  0
   29.1430   49.9660   -5.7880 C   0  0  0  0  0  0  0  0  0  0  0  0
   37.4040   45.4090   -0.8640 C   0  0  0  0  0  0  0  0  0  0  0  0
   36.5760   43.1630   -0.5670 C   0  0  0  0  0  0  0  0  0  0  0  0
   29.7690   52.1380   -4.2570 C   0  0  0  0  0  0  0  0  0  0  0  0
   28.8780   51.2510   -6.2960 C   0  0  0  0  0  0  0  0  0  0  0  0
   37.4670   44.1760   -0.2200 C   0  0  0  0  0  0  0  0  0  0  0  0
   30.0050   53.3330   -3.6500 O   0  0  0  0  0  0  0  0  0  0  0  0
   29.2050   52.3600   -5.4970 C   0  0  0  0  0  0  0  0  0  0  0  0
   29.1240   53.7750   -5.5850 C   0  0  0  0  0  0  0  0  0  0  0  0
   29.6000   54.3620   -4.4850 N   0  0  0  0  0  0  0  0  0  0  0  0
   28.6280   54.4390   -6.6460 N   0  0  0  0  0  0  0  0  0  0  0  0
  2  1  1  0
  2  3  1  0
  2  4  1  0
  2  5  1  0
  4  6  1  0
  5  7  1  0
  5  8  2  0
  6  9  1  0
  7 10  2  0
  8 11  1  0
 10 11  1  0
 11 12  1  0
  9 13  1  0
 12 14  2  0
 12 15  1  0
 13 16  2  0
 13 17  1  0
 14 18  1  0
 15 19  2  0
 16 20  1  0
 17 21  2  0
 18 22  2  0
 19 22  1  0
 20 23  1  0
 20 24  2  0
 21 24  1  0
 24 25  1  0
 23 26  1  0
 25 26  2  0
 25 27  1  0
M  END
