mac-x0224-mac-x0437
     RDKit          3D

 25 27  0  0  0  0  0  0  0  0999 V2000
   28.7420   52.5710   -6.0990 C   0  0  0  0  0  0  0  0  0  0  0  0
   28.4710   50.9660   -6.8970 S   0  0  0  0  0  0  0  0  0  0  0  0
   29.0540   49.8620   -5.6240 C   0  0  0  0  0  0  0  0  0  0  0  0
   29.7360   48.6800   -5.9250 C   0  0  0  0  0  0  0  0  0  0  0  0
   28.8190   50.1920   -4.2850 C   0  0  0  0  0  0  0  0  0  0  0  0
   30.1780   47.8380   -4.8950 C   0  0  0  0  0  0  0  0  0  0  0  0
   29.2560   49.3560   -3.2540 C   0  0  0  0  0  0  0  0  0  0  0  0
   30.8940   46.6100   -5.2600 C   0  0  0  0  0  0  0  0  0  0  0  0
   29.9350   48.1780   -3.5600 C   0  0  0  0  0  0  0  0  0  0  0  0
   30.3600   47.3650   -2.5460 O   0  0  0  0  0  0  0  0  0  0  0  0
   32.0510   46.4240   -5.7950 N   0  0  0  0  0  0  0  0  0  0  0  0
   30.1640   45.5210   -4.9520 O   0  0  0  0  0  0  0  0  0  0  0  0
   32.4980   45.1510   -6.0250 C   0  0  0  0  0  0  0  0  0  0  0  0
   32.6610   44.6560   -7.1370 O   0  0  0  0  0  0  0  0  0  0  0  0
   32.8050   44.3530   -4.7760 C   0  0  0  0  0  0  0  0  0  0  0  0
   32.8790   45.2500   -3.5470 C   0  0  0  0  0  0  0  0  0  0  0  0
   34.1620   45.9110   -3.3800 N   0  0  0  0  0  0  0  0  0  0  0  0
   34.3830   47.2430   -3.5970 C   0  0  0  0  0  0  0  0  0  0  0  0
   35.3470   45.3410   -2.9860 C   0  0  0  0  0  0  0  0  0  0  0  0
   35.6330   47.5740   -3.3690 N   0  0  0  0  0  0  0  0  0  0  0  0
   36.2460   46.4060   -2.9890 C   0  0  0  0  0  0  0  0  0  0  0  0
   35.7190   44.0390   -2.6350 C   0  0  0  0  0  0  0  0  0  0  0  0
   37.5820   46.1800   -2.6280 C   0  0  0  0  0  0  0  0  0  0  0  0
   37.0570   43.8340   -2.2780 C   0  0  0  0  0  0  0  0  0  0  0  0
   37.9750   44.8840   -2.2740 C   0  0  0  0  0  0  0  0  0  0  0  0
  1  2  1  0
  2  3  1  0
  3  4  2  0
  3  5  1  0
  4  6  1  0
  5  7  2  0
  6  8  1  0
  6  9  2  0
  7  9  1  0
  9 10  1  0
  8 11  2  3
  8 12  1  0
 11 13  1  0
 13 14  2  0
 13 15  1  0
 15 16  1  0
 16 17  1  0
 17 18  1  0
 17 19  1  0
 18 20  2  0
 19 21  2  0
 20 21  1  0
 19 22  1  0
 21 23  1  0
 22 24  2  0
 23 25  2  0
 24 25  1  0
M  END
