mac-x0396-mac-x0357
     RDKit          3D

 22 23  0  0  0  0  0  0  0  0999 V2000
   28.7270   50.4040   -6.6080 N   0  0  0  0  0  0  0  0  0  0  0  0
   29.1280   50.7040   -5.3330 C   0  0  0  0  0  0  0  0  0  0  0  0
   29.2880   49.7350   -4.4930 N   0  0  0  0  0  0  0  0  0  0  0  0
   29.3460   52.1190   -4.9810 C   0  0  0  0  0  0  0  0  0  0  0  0
   29.0710   48.3230   -4.7950 C   0  0  0  0  0  0  0  0  0  0  0  0
   29.7920   52.4520   -3.7140 C   0  0  0  0  0  0  0  0  0  0  0  0
   29.1080   53.1370   -5.9030 C   0  0  0  0  0  0  0  0  0  0  0  0
   30.3640   47.5270   -4.5790 C   0  0  0  0  0  0  0  0  0  0  0  0
   30.0160   53.7270   -3.3110 N   0  0  0  0  0  0  0  0  0  0  0  0
   29.3300   54.4560   -5.5130 C   0  0  0  0  0  0  0  0  0  0  0  0
   30.6610   46.7960   -5.8060 N   0  0  0  0  0  0  0  0  0  0  0  0
   29.7790   54.6960   -4.2220 C   0  0  0  0  0  0  0  0  0  0  0  0
   31.7100   46.0730   -5.9330 C   0  0  0  0  0  0  0  0  0  0  0  0
   31.9510   45.4160   -7.0820 O   0  0  0  0  0  0  0  0  0  0  0  0
   32.7710   45.8400   -4.9230 C   0  0  0  0  0  0  0  0  0  0  0  0
   33.0570   44.5340   -4.4710 C   0  0  0  0  0  0  0  0  0  0  0  0
   33.4920   46.9440   -4.4280 C   0  0  0  0  0  0  0  0  0  0  0  0
   32.2920   43.3500   -4.9940 C   0  0  0  0  0  0  0  0  0  0  0  0
   34.5010   46.7540   -3.4840 C   0  0  0  0  0  0  0  0  0  0  0  0
   34.0770   44.3770   -3.5250 C   0  0  0  0  0  0  0  0  0  0  0  0
   34.4360   43.1540   -3.0250 O   0  0  0  0  0  0  0  0  0  0  0  0
   34.7940   45.4680   -3.0330 C   0  0  0  0  0  0  0  0  0  0  0  0
  1  2  1  0
  2  3  2  3
  2  4  1  0
  3  5  1  0
  4  6  2  0
  4  7  1  0
  5  8  1  0
  6  9  1  0
  7 10  2  0
  8 11  1  0
  9 12  2  0
 10 12  1  0
 11 13  2  3
 13 14  1  0
 13 15  1  0
 15 16  2  0
 15 17  1  0
 16 18  1  0
 17 19  2  0
 16 20  1  0
 20 21  1  0
 19 22  1  0
 20 22  2  0
M  END
