mac-x0373-mac-x0346
     RDKit          3D

 21 22  0  0  0  0  0  0  0  0999 V2000
   30.7020   45.8060   -6.5730 O   0  0  0  0  0  0  0  0  0  0  0  0
   30.3140   46.6110   -5.5610 C   0  0  0  0  0  0  0  0  0  0  0  0
   29.4640   46.2100   -4.7760 O   0  0  0  0  0  0  0  0  0  0  0  0
   31.0070   47.9750   -5.5180 C   0  0  2  0  0  0  0  0  0  0  0  0
   32.2180   48.0190   -4.5800 C   0  0  0  0  0  0  0  0  0  0  0  0
   30.0620   49.1890   -5.4340 C   0  0  0  0  0  0  0  0  0  0  0  0
   32.3930   47.0140   -3.6110 C   0  0  0  0  0  0  0  0  0  0  0  0
   33.1760   49.0440   -4.6610 C   0  0  0  0  0  0  0  0  0  0  0  0
   30.2670   50.2620   -4.5270 C   0  0  0  0  0  0  0  0  0  0  0  0
   28.9420   49.2640   -6.2860 C   0  0  0  0  0  0  0  0  0  0  0  0
   31.3380   50.2510   -3.6670 O   0  0  0  0  0  0  0  0  0  0  0  0
   33.4940   47.0370   -2.7500 C   0  0  0  0  0  0  0  0  0  0  0  0
   34.2740   49.0630   -3.7990 C   0  0  0  0  0  0  0  0  0  0  0  0
   29.3850   51.3630   -4.4810 C   0  0  0  0  0  0  0  0  0  0  0  0
   28.0660   50.3480   -6.2430 C   0  0  0  0  0  0  0  0  0  0  0  0
   29.5370   52.5310   -3.5580 C   0  0  0  0  0  0  0  0  0  0  0  0
   34.4330   48.0610   -2.8450 C   0  0  0  0  0  0  0  0  0  0  0  0
   28.2870   51.3910   -5.3490 C   0  0  0  0  0  0  0  0  0  0  0  0
   29.0130   53.7330   -3.9750 N   0  0  0  0  0  0  0  0  0  0  0  0
   30.1040   52.4240   -2.4720 O   0  0  0  0  0  0  0  0  0  0  0  0
   29.9010   54.6090   -4.6430 O   0  0  0  0  0  0  0  0  0  0  0  0
  1  2  1  0
  2  3  2  0
  4  2  1  1
  4  5  1  0
  4  6  1  0
  5  7  2  0
  5  8  1  0
  6  9  2  0
  6 10  1  0
  9 11  1  0
  7 12  1  0
  8 13  2  0
  9 14  1  0
 10 15  2  0
 14 16  1  0
 12 17  2  0
 13 17  1  0
 14 18  2  0
 15 18  1  0
 16 19  1  0
 16 20  2  0
 19 21  1  0
M  END
