mac-x0179-mac-x0303
     RDKit          3D

 31 34  0  0  0  0  0  0  0  0999 V2000
   32.3390   44.9470   -5.7590 O   0  0  0  0  0  0  0  0  0  0  0  0
   33.2190   45.5260   -4.8990 C   0  0  0  0  0  0  0  0  0  0  0  0
   34.2140   46.1090   -5.3110 O   0  0  0  0  0  0  0  0  0  0  0  0
   32.8100   45.3520   -3.4340 C   0  0  0  0  0  0  0  0  0  0  0  0
   33.9160   45.6420   -2.5310 N   0  0  0  0  0  0  0  0  0  0  0  0
   34.7160   44.6600   -2.0200 C   0  0  0  0  0  0  0  0  0  0  0  0
   34.2900   46.8720   -2.0260 C   0  0  0  0  0  0  0  0  0  0  0  0
   34.5010   43.4660   -1.9060 O   0  0  0  0  0  0  0  0  0  0  0  0
   33.4960   47.8860   -1.9710 N   0  0  0  0  0  0  0  0  0  0  0  0
   35.9430   45.3360   -1.6120 C   0  0  0  0  0  0  0  0  0  0  0  0
   35.6950   46.7040   -1.6110 C   0  0  0  0  0  0  0  0  0  0  0  0
   32.1150   47.8650   -2.4290 C   0  0  0  0  0  0  0  0  0  0  0  0
   37.1690   44.7900   -1.2710 C   0  0  0  0  0  0  0  0  0  0  0  0
   36.7000   47.5890   -1.2600 C   0  0  0  0  0  0  0  0  0  0  0  0
   31.4810   49.2120   -2.0740 C   0  0  0  0  0  0  0  0  0  0  0  0
   38.1860   45.6740   -0.9150 C   0  0  0  0  0  0  0  0  0  0  0  0
   37.9520   47.0640   -0.9090 C   0  0  0  0  0  0  0  0  0  0  0  0
   29.9950   49.2900   -2.4430 C   0  0  0  0  0  0  0  0  0  0  0  0
   29.6660   50.3540   -3.4690 C   0  0  0  0  0  0  0  0  0  0  0  0
   29.8360   51.7110   -3.1440 C   0  0  0  0  0  0  0  0  0  0  0  0
   29.1940   49.9820   -4.7390 C   0  0  0  0  0  0  0  0  0  0  0  0
   29.5180   52.6490   -4.1290 C   0  0  0  0  0  0  0  0  0  0  0  0
   28.8820   50.9460   -5.7100 C   0  0  0  0  0  0  0  0  0  0  0  0
   29.5630   54.0180   -4.1510 N   0  0  0  0  0  0  0  0  0  0  0  0
   29.0490   52.3000   -5.3930 C   0  0  0  0  0  0  0  0  0  0  0  0
   29.1380   54.4390   -5.3820 C   0  0  0  0  0  0  0  0  0  0  0  0
   28.8180   53.4170   -6.1600 N   0  0  0  0  0  0  0  0  0  0  0  0
   29.0430   56.1460   -5.8250 S   0  0  0  0  0  0  0  0  0  0  0  0
   30.3730   56.4560   -6.8080 N   0  0  0  0  0  0  0  0  0  0  0  0
   27.8410   56.2570   -6.6160 O   0  0  0  0  0  0  0  0  0  0  0  0
   29.2330   56.8590   -4.5830 O   0  0  0  0  0  0  0  0  0  0  0  0
  1  2  1  0
  2  3  2  0
  2  4  1  0
  4  5  1  0
  5  6  1  0
  5  7  1  0
  6  8  2  0
  7  9  2  3
  6 10  1  0
  7 11  1  0
 10 11  2  0
  9 12  1  0
 10 13  1  0
 11 14  1  0
 12 15  1  0
 13 16  2  0
 14 17  2  0
 16 17  1  0
 15 18  1  0
 18 19  1  0
 19 20  2  0
 19 21  1  0
 20 22  1  0
 21 23  2  0
 22 24  1  0
 22 25  2  0
 23 25  1  0
 24 26  1  0
 25 27  1  0
 26 27  2  0
 26 28  1  0
 28 29  1  0
 28 30  2  0
 28 31  2  0
M  END
