mac-x0302-mac-x0587
     RDKit          3D

 25 27  0  0  0  0  0  0  0  0999 V2000
   27.9340   50.8240   -2.8030 C   0  0  0  0  0  0  0  0  0  0  0  0
   28.6870   51.5880   -3.8300 C   0  0  0  0  0  0  0  0  0  0  0  0
   28.7560   51.2010   -5.1910 C   0  0  0  0  0  0  0  0  0  0  0  0
   28.1500   50.9560   -1.6020 O   0  0  0  0  0  0  0  0  0  0  0  0
   29.3470   52.7460   -3.3840 C   0  0  0  0  0  0  0  0  0  0  0  0
   30.0760   53.5260   -4.2750 C   0  0  0  0  0  0  0  0  0  0  0  0
   29.5080   52.0230   -6.0640 C   0  0  0  0  0  0  0  0  0  0  0  0
   28.0670   49.9610   -5.7510 C   0  0  2  0  0  0  0  0  0  0  0  0
   30.6950   54.6380   -3.7890 O   0  0  0  0  0  0  0  0  0  0  0  0
   30.1620   53.1740   -5.6110 C   0  0  0  0  0  0  0  0  0  0  0  0
   27.9360   48.7400   -4.7960 C   0  0  0  0  0  0  0  0  0  0  0  0
   28.8690   49.3980   -6.8330 N   0  0  0  0  0  0  0  0  0  0  0  0
   28.2620   47.6370   -5.6820 N   0  0  0  0  0  0  0  0  0  0  0  0
   29.1080   48.0570   -6.6670 C   0  0  0  0  0  0  0  0  0  0  0  0
   29.9830   47.4240   -7.3550 N   0  0  0  0  0  0  0  0  0  0  0  0
   30.1740   45.9890   -7.1100 C   0  0  0  0  0  0  0  0  0  0  0  0
   31.3580   45.7500   -6.2060 C   0  0  0  0  0  0  0  0  0  0  0  0
   31.5860   45.4760   -5.0110 C   0  0  0  0  0  0  0  0  0  0  0  0
   32.7950   45.8070   -6.5030 C   0  0  0  0  0  0  0  0  0  0  0  0
   32.9590   45.3790   -4.8550 O   0  0  0  0  0  0  0  0  0  0  0  0
   31.1280   45.2100   -3.7110 C   0  0  2  0  0  0  0  0  0  0  0  0
   33.6560   45.8380   -5.1620 C   0  0  0  0  0  0  0  0  0  0  0  0
   33.2790   45.8330   -7.6350 O   0  0  0  0  0  0  0  0  0  0  0  0
   30.2650   46.2810   -3.0470 C   0  0  0  0  0  0  0  0  0  0  0  0
   32.9300   45.3620   -3.4440 S   0  0  0  0  0  0  0  0  0  0  0  0
  1  2  1  0
  2  3  2  0
  1  4  2  0
  2  5  1  0
  5  6  2  0
  3  7  1  0
  8  3  1  1
  6  9  1  0
  6 10  1  0
  7 10  2  0
  8 11  1  0
  8 12  1  0
 11 13  1  0
 12 14  1  0
 13 14  1  0
 14 15  2  3
 15 16  1  0
 16 17  1  0
 17 18  2  0
 17 19  1  0
 18 20  1  0
 18 21  1  0
 19 22  1  0
 19 23  2  0
 21 24  1  1
 21 25  1  0
 22 25  1  0
M  END
