mac-x0472-mac-x0361
     RDKit          3D

 24 26  0  0  0  0  0  0  0  0999 V2000
   31.2020   50.8810   -6.6850 O   0  0  0  0  0  0  0  0  0  0  0  0
   31.3790   49.9440   -5.5970 S   0  0  1  0  0  0  0  0  0  0  0  0
   30.5990   49.9760   -4.2790 N   0  0  0  0  0  0  0  0  0  0  0  0
   30.9050   48.5010   -6.3260 N   0  0  0  0  0  0  0  0  0  0  0  0
   33.1150   49.9750   -5.2280 C   0  0  0  0  0  0  0  0  0  0  0  0
   29.7510   48.4760   -7.0280 C   0  0  0  0  0  0  0  0  0  0  0  0
   33.8760   48.8160   -5.3980 C   0  0  0  0  0  0  0  0  0  0  0  0
   33.7040   51.1580   -4.7740 C   0  0  0  0  0  0  0  0  0  0  0  0
   29.9150   51.2160   -3.9670 C   0  0  0  0  0  0  0  0  0  0  0  0
   29.6500   47.9040   -8.2130 N   0  0  0  0  0  0  0  0  0  0  0  0
   28.2600   49.1770   -6.4980 S   0  0  0  0  0  0  0  0  0  0  0  0
   35.2400   48.8460   -5.1090 C   0  0  0  0  0  0  0  0  0  0  0  0
   35.0670   51.1800   -4.4870 C   0  0  0  0  0  0  0  0  0  0  0  0
   29.1800   51.8540   -4.9600 C   0  0  0  0  0  0  0  0  0  0  0  0
   29.9980   51.7640   -2.6890 C   0  0  0  0  0  0  0  0  0  0  0  0
   27.5610   48.6400   -7.9610 C   0  0  0  0  0  0  0  0  0  0  0  0
   28.3850   47.9970   -8.7570 N   0  0  0  0  0  0  0  0  0  0  0  0
   35.8340   50.0260   -4.6550 C   0  0  0  0  0  0  0  0  0  0  0  0
   28.5210   53.0500   -4.6810 C   0  0  0  0  0  0  0  0  0  0  0  0
   29.3390   52.9650   -2.4010 C   0  0  0  0  0  0  0  0  0  0  0  0
   28.5970   53.6120   -3.4010 C   0  0  0  0  0  0  0  0  0  0  0  0
   27.8780   54.8890   -3.1570 C   0  0  0  0  0  0  0  0  0  0  0  0
   27.0910   55.3730   -4.1670 N   0  0  0  0  0  0  0  0  0  0  0  0
   27.9810   55.4930   -2.0980 O   0  0  0  0  0  0  0  0  0  0  0  0
  1  2  2  0
  2  3  2  0
  2  4  1  6
  2  5  1  0
  4  6  1  0
  5  7  2  0
  5  8  1  0
  3  9  1  0
  6 10  2  0
  6 11  1  0
  7 12  1  0
  8 13  2  0
  9 14  2  0
  9 15  1  0
 11 16  1  0
 10 17  1  0
 16 17  2  0
 12 18  2  0
 13 18  1  0
 14 19  1  0
 15 20  2  0
 19 21  2  0
 20 21  1  0
 21 22  1  0
 22 23  1  0
 22 24  2  0
M  END
