mac-x0455-mac-x0188
     RDKit          3D

 24 26  0  0  0  0  0  0  0  0999 V2000
   32.7920   46.0740   -7.1350 C   0  0  0  0  0  0  0  0  0  0  0  0
   32.2020   46.9800   -6.0340 C   0  0  1  0  0  0  0  0  0  0  0  0
   31.9870   48.2330   -6.7590 O   0  0  0  0  0  0  0  0  0  0  0  0
   30.7650   46.4510   -5.5500 C   0  0  0  0  0  0  0  0  0  0  0  0
   33.1810   47.2410   -4.8840 C   0  0  0  0  0  0  0  0  0  0  0  0
   29.7190   47.2340   -6.1250 O   0  0  0  0  0  0  0  0  0  0  0  0
   30.5350   45.1920   -6.1800 O   0  0  0  0  0  0  0  0  0  0  0  0
   33.2620   48.5260   -4.3110 C   0  0  0  0  0  0  0  0  0  0  0  0
   34.0180   46.2410   -4.3640 C   0  0  0  0  0  0  0  0  0  0  0  0
   30.6010   46.3640   -4.0510 C   0  0  0  0  0  0  0  0  0  0  0  0
   34.1450   48.7960   -3.2590 C   0  0  0  0  0  0  0  0  0  0  0  0
   34.8990   46.5110   -3.3150 C   0  0  0  0  0  0  0  0  0  0  0  0
   30.7500   45.2360   -3.2620 C   0  0  0  0  0  0  0  0  0  0  0  0
   30.2600   47.3840   -3.0920 C   0  0  0  0  0  0  0  0  0  0  0  0
   31.0910   43.8190   -3.5040 C   0  0  0  0  0  0  0  0  0  0  0  0
   34.9640   47.7850   -2.7630 C   0  0  0  0  0  0  0  0  0  0  0  0
   30.5190   45.5440   -1.9630 O   0  0  0  0  0  0  0  0  0  0  0  0
   30.2130   46.8740   -1.8490 N   0  0  0  0  0  0  0  0  0  0  0  0
   29.9770   48.8000   -3.2770 C   0  0  0  0  0  0  0  0  0  0  0  0
   30.7380   49.7790   -2.6260 C   0  0  0  0  0  0  0  0  0  0  0  0
   28.9300   49.2010   -4.1180 C   0  0  0  0  0  0  0  0  0  0  0  0
   30.4560   51.1320   -2.8110 C   0  0  0  0  0  0  0  0  0  0  0  0
   28.6470   50.5540   -4.3030 C   0  0  0  0  0  0  0  0  0  0  0  0
   29.4100   51.5220   -3.6500 C   0  0  0  0  0  0  0  0  0  0  0  0
  2  1  1  6
  2  3  1  0
  2  4  1  0
  2  5  1  0
  4  6  1  0
  4  7  1  0
  5  8  2  0
  5  9  1  0
  4 10  1  0
  8 11  1  0
  9 12  2  0
 10 13  2  0
 10 14  1  0
 13 15  1  0
 11 16  2  0
 12 16  1  0
 13 17  1  0
 14 18  2  0
 17 18  1  0
 14 19  1  0
 19 20  2  0
 19 21  1  0
 20 22  1  0
 21 23  2  0
 22 24  2  0
 23 24  1  0
M  END
