mac-x0226-mac-x0338
     RDKit          3D

 26 28  0  0  0  0  0  0  0  0999 V2000
   32.1050   45.5260   -6.9490 O   0  0  0  0  0  0  0  0  0  0  0  0
   32.9100   46.3090   -6.0860 C   0  0  0  0  0  0  0  0  0  0  0  0
   33.9550   46.7970   -6.9040 O   0  0  0  0  0  0  0  0  0  0  0  0
   32.0470   47.4900   -5.6030 C   0  0  0  0  0  0  0  0  0  0  0  0
   33.4300   45.4790   -4.9580 C   0  0  0  0  0  0  0  0  0  0  0  0
   30.5450   47.4200   -5.9070 C   0  0  0  0  0  0  0  0  0  0  0  0
   32.9110   44.2670   -4.4580 C   0  0  0  0  0  0  0  0  0  0  0  0
   34.5270   45.7110   -4.1550 C   0  0  0  0  0  0  0  0  0  0  0  0
   29.6580   47.9270   -4.7680 C   0  0  0  0  0  0  0  0  0  0  0  0
   33.6140   43.7800   -3.4340 N   0  0  0  0  0  0  0  0  0  0  0  0
   34.6140   44.6810   -3.2480 N   0  0  0  0  0  0  0  0  0  0  0  0
   35.5890   44.5230   -2.2300 C   0  0  0  0  0  0  0  0  0  0  0  0
   29.6830   49.4240   -4.5870 C   0  0  0  0  0  0  0  0  0  0  0  0
   36.4620   45.5750   -1.9200 C   0  0  0  0  0  0  0  0  0  0  0  0
   35.6780   43.3150   -1.5270 C   0  0  0  0  0  0  0  0  0  0  0  0
   29.2690   50.2270   -5.6050 N   0  0  0  0  0  0  0  0  0  0  0  0
   30.1330   49.9560   -3.3710 C   0  0  0  0  0  0  0  0  0  0  0  0
   37.4170   45.4140   -0.9140 C   0  0  0  0  0  0  0  0  0  0  0  0
   36.6370   43.1620   -0.5210 C   0  0  0  0  0  0  0  0  0  0  0  0
   29.3240   51.5680   -5.3520 C   0  0  0  0  0  0  0  0  0  0  0  0
   30.1870   51.2850   -3.1200 N   0  0  0  0  0  0  0  0  0  0  0  0
   28.8780   52.4890   -6.4360 C   0  0  0  0  0  0  0  0  0  0  0  0
   37.5050   44.2110   -0.2170 C   0  0  0  0  0  0  0  0  0  0  0  0
   29.7720   52.0840   -4.1410 C   0  0  0  0  0  0  0  0  0  0  0  0
   28.5350   51.8930   -7.6250 N   0  0  0  0  0  0  0  0  0  0  0  0
   28.8220   53.7010   -6.2800 O   0  0  0  0  0  0  0  0  0  0  0  0
  2  1  1  0
  2  3  1  0
  2  4  1  0
  2  5  1  0
  4  6  1  0
  5  7  1  0
  5  8  2  0
  6  9  1  0
  7 10  2  0
  8 11  1  0
 10 11  1  0
 11 12  1  0
  9 13  1  0
 12 14  2  0
 12 15  1  0
 13 16  2  0
 13 17  1  0
 14 18  1  0
 15 19  2  0
 16 20  1  0
 17 21  2  0
 20 22  1  0
 18 23  2  0
 19 23  1  0
 20 24  2  0
 21 24  1  0
 22 25  1  0
 22 26  2  0
M  END
