mac-x0433-mac-x0546
     RDKit          3D

 25 27  0  0  0  0  0  0  0  0999 V2000
   28.6930   50.2630   -6.2860 C   0  0  0  0  0  0  0  0  0  0  0  0
   29.0680   51.3360   -5.3040 C   0  0  0  0  0  0  0  0  0  0  0  0
   29.1470   52.6510   -5.7050 C   0  0  0  0  0  0  0  0  0  0  0  0
   29.3220   50.9510   -4.0390 N   0  0  0  0  0  0  0  0  0  0  0  0
   29.6610   51.8990   -3.1560 C   0  0  0  0  0  0  0  0  0  0  0  0
   29.5030   53.5660   -4.7300 C   0  0  0  0  0  0  0  0  0  0  0  0
   29.6200   55.0240   -5.0520 C   0  0  0  0  0  0  0  0  0  0  0  0
   29.9100   51.4470   -1.8620 N   0  0  0  0  0  0  0  0  0  0  0  0
   29.7610   53.2020   -3.4590 N   0  0  0  0  0  0  0  0  0  0  0  0
   30.9830   50.4720   -1.7560 C   0  0  0  0  0  0  0  0  0  0  0  0
   30.6920   49.4450   -0.6490 C   0  0  0  0  0  0  0  0  0  0  0  0
   29.6010   48.5860   -1.0020 O   0  0  0  0  0  0  0  0  0  0  0  0
   29.8480   47.3210   -1.4530 C   0  0  0  0  0  0  0  0  0  0  0  0
   30.8950   46.9150   -2.2000 C   0  0  0  0  0  0  0  0  0  0  0  0
   28.8270   46.3560   -1.0370 C   0  0  0  0  0  0  0  0  0  0  0  0
   31.0190   45.4740   -2.5700 C   0  0  1  0  0  0  0  0  0  0  0  0
   28.6770   45.1450   -1.6090 C   0  0  0  0  0  0  0  0  0  0  0  0
   29.6310   44.8750   -2.6940 C   0  0  0  0  0  0  0  0  0  0  0  0
   31.5120   45.0040   -3.8990 C   0  0  0  0  0  0  0  0  0  0  0  0
   32.8640   45.3170   -4.4510 C   0  0  0  0  0  0  0  0  0  0  0  0
   29.3980   44.1630   -3.7550 N   0  0  0  0  0  0  0  0  0  0  0  0
   30.5590   44.2590   -4.4800 C   0  0  0  0  0  0  0  0  0  0  0  0
   32.7930   45.9830   -5.8080 C   0  0  0  0  0  0  0  0  0  0  0  0
   31.8410   45.9770   -6.5700 O   0  0  0  0  0  0  0  0  0  0  0  0
   33.9350   46.6290   -6.1480 O   0  0  0  0  0  0  0  0  0  0  0  0
  1  2  1  0
  2  3  2  0
  2  4  1  0
  4  5  2  0
  3  6  1  0
  6  7  1  0
  5  8  1  0
  5  9  1  0
  6  9  2  0
  8 10  1  0
 10 11  1  0
 11 12  1  0
 12 13  1  0
 13 14  2  0
 13 15  1  0
 16 14  1  6
 15 17  2  0
 16 18  1  0
 17 18  1  0
 16 19  1  0
 19 20  1  0
 18 21  2  0
 19 22  2  0
 21 22  1  0
 20 23  1  0
 23 24  2  0
 23 25  1  0
M  END
