mac-x0124-mac-x0284
     RDKit          3D

 14 15  0  0  0  0  0  0  0  0999 V2000
   29.8640   46.2050   -4.6190 C   0  0  0  0  0  0  0  0  0  0  0  0
   30.9230   45.6230   -5.5110 C   0  0  0  0  0  0  0  0  0  0  0  0
   31.1850   44.4230   -5.5610 O   0  0  0  0  0  0  0  0  0  0  0  0
   29.6960   47.6260   -4.8660 N   0  0  0  0  0  0  0  0  0  0  0  0
   30.0130   48.6400   -3.9950 C   0  0  0  0  0  0  0  0  0  0  0  0
   29.1850   48.1560   -6.0270 C   0  0  0  0  0  0  0  0  0  0  0  0
   30.5240   48.3770   -2.7990 O   0  0  0  0  0  0  0  0  0  0  0  0
   29.7030   49.8370   -4.6090 C   0  0  0  0  0  0  0  0  0  0  0  0
   29.1780   49.5380   -5.8980 C   0  0  0  0  0  0  0  0  0  0  0  0
   28.7710   47.4510   -7.0930 N   0  0  0  0  0  0  0  0  0  0  0  0
   28.6890   50.2690   -6.9910 C   0  0  0  0  0  0  0  0  0  0  0  0
   28.3270   48.2580   -8.0720 C   0  0  0  0  0  0  0  0  0  0  0  0
   28.6150   51.6550   -7.0190 N   0  0  0  0  0  0  0  0  0  0  0  0
   28.2650   49.6030   -8.0790 N   0  0  0  0  0  0  0  0  0  0  0  0
  1  2  1  0
  2  3  2  0
  1  4  1  0
  4  5  1  0
  4  6  1  0
  5  7  1  0
  5  8  2  0
  6  9  2  0
  8  9  1  0
  6 10  1  0
  9 11  1  0
 10 12  2  0
 11 13  1  0
 11 14  2  0
 12 14  1  0
M  END
