mac-x0437-mac-x0223
     RDKit          3D

 23 25  0  0  0  0  0  0  0  0999 V2000
   31.7160   45.0040   -6.9480 O   0  0  0  0  0  0  0  0  0  0  0  0
   32.8500   44.7420   -6.2770 C   0  0  0  0  0  0  0  0  0  0  0  0
   33.9380   44.8590   -6.8150 O   0  0  0  0  0  0  0  0  0  0  0  0
   32.5980   44.3330   -4.8500 C   0  0  0  0  0  0  0  0  0  0  0  0
   32.4940   45.5860   -3.9930 C   0  0  2  0  0  0  0  0  0  0  0  0
   33.8140   46.1050   -3.5550 N   0  0  0  0  0  0  0  0  0  0  0  0
   31.2430   45.9810   -3.1880 C   0  0  0  0  0  0  0  0  0  0  0  0
   34.0680   47.4520   -3.5740 C   0  0  0  0  0  0  0  0  0  0  0  0
   34.9700   45.4780   -3.0980 C   0  0  0  0  0  0  0  0  0  0  0  0
   31.2450   47.2560   -2.5970 C   0  0  0  0  0  0  0  0  0  0  0  0
   30.0830   45.1810   -3.0000 C   0  0  0  0  0  0  0  0  0  0  0  0
   35.2780   47.7400   -3.1760 N   0  0  0  0  0  0  0  0  0  0  0  0
   35.8580   46.5390   -2.8790 C   0  0  0  0  0  0  0  0  0  0  0  0
   35.3600   44.1480   -2.8530 C   0  0  0  0  0  0  0  0  0  0  0  0
   28.9840   45.6570   -2.2510 C   0  0  0  0  0  0  0  0  0  0  0  0
   30.1690   47.7310   -1.8580 C   0  0  0  0  0  0  0  0  0  0  0  0
   27.8190   44.9670   -2.0140 O   0  0  0  0  0  0  0  0  0  0  0  0
   37.1580   46.2970   -2.4150 C   0  0  0  0  0  0  0  0  0  0  0  0
   36.6670   43.9270   -2.3870 C   0  0  0  0  0  0  0  0  0  0  0  0
   29.0480   46.9360   -1.6890 C   0  0  0  0  0  0  0  0  0  0  0  0
   27.8150   43.5700   -2.2720 C   0  0  0  0  0  0  0  0  0  0  0  0
   27.9900   47.4090   -0.9610 O   0  0  0  0  0  0  0  0  0  0  0  0
   37.5540   44.9810   -2.1720 C   0  0  0  0  0  0  0  0  0  0  0  0
  1  2  1  0
  2  3  2  0
  2  4  1  0
  5  4  1  1
  5  6  1  0
  5  7  1  0
  6  8  1  0
  6  9  1  0
  7 10  2  0
  7 11  1  0
  8 12  2  0
  9 13  2  0
 12 13  1  0
  9 14  1  0
 11 15  2  0
 10 16  1  0
 15 17  1  0
 13 18  1  0
 14 19  2  0
 15 20  1  0
 16 20  2  0
 17 21  1  0
 20 22  1  0
 18 23  2  0
 19 23  1  0
M  END
