mac-x0137-mac-x0455
     RDKit          3D

 27 30  0  0  0  0  0  0  0  0999 V2000
   30.8530   47.5560   -3.2950 O   0  0  0  0  0  0  0  0  0  0  0  0
   31.2910   46.2330   -2.9890 C   0  0  1  0  0  0  0  0  0  0  0  0
   30.7460   45.8080   -1.7290 O   0  0  0  0  0  0  0  0  0  0  0  0
   31.0070   47.9180   -4.6650 C   0  0  1  0  0  0  0  0  0  0  0  0
   30.6790   45.2890   -4.0950 C   0  0  0  0  0  0  0  0  0  0  0  0
   30.3180   49.2280   -5.0640 C   0  0  0  0  0  0  0  0  0  0  0  0
   32.5060   48.0650   -4.9440 C   0  0  0  0  0  0  0  0  0  0  0  0
   32.8190   46.1400   -2.9860 C   0  0  0  0  0  0  0  0  0  0  0  0
   29.5290   44.8570   -4.0800 O   0  0  0  0  0  0  0  0  0  0  0  0
   31.4910   44.9510   -5.1140 O   0  0  0  0  0  0  0  0  0  0  0  0
   30.3390   49.3380   -6.5330 N   0  0  0  0  0  0  0  0  0  0  0  0
   32.7140   48.6670   -6.3300 C   0  0  0  0  0  0  0  0  0  0  0  0
   33.5840   47.2620   -2.6120 C   0  0  0  0  0  0  0  0  0  0  0  0
   33.5020   44.9670   -3.3490 C   0  0  0  0  0  0  0  0  0  0  0  0
   31.4310   48.5620   -7.1540 C   0  0  0  0  0  0  0  0  0  0  0  0
   29.1680   49.5850   -7.2360 C   0  0  0  0  0  0  0  0  0  0  0  0
   34.9810   47.2170   -2.6030 C   0  0  0  0  0  0  0  0  0  0  0  0
   34.9010   44.9210   -3.3380 C   0  0  0  0  0  0  0  0  0  0  0  0
   28.7730   48.7900   -8.2920 N   0  0  0  0  0  0  0  0  0  0  0  0
   28.3420   50.5990   -6.9430 C   0  0  0  0  0  0  0  0  0  0  0  0
   35.6410   46.0440   -2.9660 C   0  0  0  0  0  0  0  0  0  0  0  0
   27.6230   49.0280   -8.9860 C   0  0  0  0  0  0  0  0  0  0  0  0
   27.1120   50.8030   -7.7350 C   0  0  0  0  0  0  0  0  0  0  0  0
   28.3020   51.6550   -5.9850 C   0  0  0  0  0  0  0  0  0  0  0  0
   26.7780   49.9800   -8.7720 N   0  0  0  0  0  0  0  0  0  0  0  0
   26.4270   51.8360   -7.3210 N   0  0  0  0  0  0  0  0  0  0  0  0
   27.1740   52.3290   -6.2590 C   0  0  0  0  0  0  0  0  0  0  0  0
  2  1  1  0
  2  3  1  1
  4  1  1  1
  2  5  1  0
  4  6  1  0
  4  7  1  0
  2  8  1  0
  5  9  2  0
  5 10  1  0
  6 11  1  0
  7 12  1  0
  8 13  2  0
  8 14  1  0
 11 15  1  0
 12 15  1  0
 11 16  1  0
 13 17  1  0
 14 18  2  0
 16 19  1  0
 16 20  2  0
 17 21  2  0
 18 21  1  0
 19 22  1  0
 20 23  1  0
 20 24  1  0
 22 25  2  0
 23 25  1  0
 23 26  2  0
 24 27  2  0
 26 27  1  0
M  END
