mac-x0345-mac-x0224
     RDKit          3D

 20 21  0  0  0  0  0  0  0  0999 V2000
   29.7960   54.2410   -5.3010 C   0  0  0  0  0  0  0  0  0  0  0  0
   29.2940   53.0380   -4.5670 C   0  0  0  0  0  0  0  0  0  0  0  0
   29.4890   53.0330   -3.2180 N   0  0  0  0  0  0  0  0  0  0  0  0
   28.6660   51.9860   -5.2330 C   0  0  0  0  0  0  0  0  0  0  0  0
   28.5030   52.0390   -6.5910 O   0  0  0  0  0  0  0  0  0  0  0  0
   28.2210   50.8960   -4.4920 C   0  0  0  0  0  0  0  0  0  0  0  0
   29.0540   51.9650   -2.5240 C   0  0  0  0  0  0  0  0  0  0  0  0
   29.2720   51.9880   -1.1540 N   0  0  0  0  0  0  0  0  0  0  0  0
   29.4880   51.0050   -7.4620 S   0  0  0  0  0  0  0  0  0  0  0  0
   28.4190   50.8860   -3.1190 C   0  0  0  0  0  0  0  0  0  0  0  0
   30.0250   49.8940   -6.1630 C   0  0  0  0  0  0  0  0  0  0  0  0
   29.8420   48.5090   -6.2880 C   0  0  0  0  0  0  0  0  0  0  0  0
   30.6380   50.3960   -5.0080 C   0  0  0  0  0  0  0  0  0  0  0  0
   30.2640   47.6330   -5.2730 C   0  0  0  0  0  0  0  0  0  0  0  0
   31.0570   49.5310   -3.9940 C   0  0  0  0  0  0  0  0  0  0  0  0
   30.0340   46.1830   -5.4930 C   0  0  0  0  0  0  0  0  0  0  0  0
   30.8710   48.1570   -4.1270 C   0  0  0  0  0  0  0  0  0  0  0  0
   31.3160   47.3900   -3.0830 O   0  0  0  0  0  0  0  0  0  0  0  0
   29.6040   45.6700   -6.5100 O   0  0  0  0  0  0  0  0  0  0  0  0
   30.3580   45.4270   -4.4220 O   0  0  0  0  0  0  0  0  0  0  0  0
  1  2  1  0
  2  3  2  0
  2  4  1  0
  4  5  1  0
  4  6  2  0
  3  7  1  0
  7  8  1  0
  5  9  1  0
  6 10  1  0
  7 10  2  0
  9 11  1  0
 11 12  2  0
 11 13  1  0
 12 14  1  0
 13 15  2  0
 14 16  1  0
 14 17  2  0
 15 17  1  0
 17 18  1  0
 16 19  2  0
 16 20  1  0
M  END
