mac-x0341-mac-x0404
     RDKit          3D

 29 32  0  0  0  0  0  0  0  0999 V2000
   28.1790   54.8710   -7.3890 N   0  0  0  0  0  0  0  0  0  0  0  0
   28.5480   53.6880   -6.8420 C   0  0  0  0  0  0  0  0  0  0  0  0
   28.3250   52.5770   -7.4750 N   0  0  0  0  0  0  0  0  0  0  0  0
   29.1490   53.7310   -5.6190 N   0  0  0  0  0  0  0  0  0  0  0  0
   29.4230   52.6080   -4.8760 C   0  0  0  0  0  0  0  0  0  0  0  0
   28.7400   51.3770   -6.8700 C   0  0  0  0  0  0  0  0  0  0  0  0
   29.7560   52.6680   -3.6960 O   0  0  0  0  0  0  0  0  0  0  0  0
   29.2930   51.3310   -5.5910 C   0  0  0  0  0  0  0  0  0  0  0  0
   28.5990   50.1860   -7.5800 C   0  0  0  0  0  0  0  0  0  0  0  0
   29.0110   48.9730   -7.0240 C   0  0  0  0  0  0  0  0  0  0  0  0
   29.7110   50.1240   -5.0130 C   0  0  0  0  0  0  0  0  0  0  0  0
   29.5720   48.9380   -5.7420 C   0  0  0  0  0  0  0  0  0  0  0  0
   30.0280   47.6330   -5.1820 C   0  0  0  0  0  0  0  0  0  0  0  0
   31.4640   47.4130   -5.6540 C   0  0  0  0  0  0  0  0  0  0  0  0
   31.6390   46.1210   -6.2420 O   0  0  0  0  0  0  0  0  0  0  0  0
   32.8180   45.5440   -5.8970 C   0  0  0  0  0  0  0  0  0  0  0  0
   33.8950   45.7590   -6.4340 O   0  0  0  0  0  0  0  0  0  0  0  0
   32.6200   44.5860   -4.7250 C   0  0  0  0  0  0  0  0  0  0  0  0
   31.3340   44.5600   -4.1180 O   0  0  0  0  0  0  0  0  0  0  0  0
   31.0900   45.5610   -3.1990 C   0  0  0  0  0  0  0  0  0  0  0  0
   29.8730   45.4970   -2.4970 C   0  0  0  0  0  0  0  0  0  0  0  0
   31.9980   46.6020   -2.9640 C   0  0  0  0  0  0  0  0  0  0  0  0
   29.5760   46.5050   -1.5450 C   0  0  0  0  0  0  0  0  0  0  0  0
   31.6960   47.5870   -2.0280 C   0  0  0  0  0  0  0  0  0  0  0  0
   28.9300   44.4680   -2.7000 C   0  0  0  0  0  0  0  0  0  0  0  0
   30.4970   47.5400   -1.3250 C   0  0  0  0  0  0  0  0  0  0  0  0
   28.3690   46.4510   -0.8370 C   0  0  0  0  0  0  0  0  0  0  0  0
   27.7350   44.4290   -1.9890 C   0  0  0  0  0  0  0  0  0  0  0  0
   27.4520   45.4190   -1.0560 C   0  0  0  0  0  0  0  0  0  0  0  0
  1  2  1  0
  2  3  2  0
  2  4  1  0
  4  5  1  0
  3  6  1  0
  5  7  2  0
  5  8  1  0
  6  8  2  0
  6  9  1  0
  9 10  2  0
  8 11  1  0
 10 12  1  0
 11 12  2  0
 12 13  1  0
 13 14  1  0
 14 15  1  0
 15 16  1  0
 16 17  2  0
 16 18  1  0
 18 19  1  0
 19 20  1  0
 20 21  1  0
 20 22  2  0
 21 23  2  0
 22 24  1  0
 21 25  1  0
 23 26  1  0
 24 26  2  0
 23 27  1  0
 25 28  2  0
 27 29  2  0
 28 29  1  0
M  END
