mac-x0213-mac-x0137
     RDKit          3D

 28 32  0  0  0  0  0  0  0  0999 V2000
   33.5840   46.0450   -5.2570 O   0  0  0  0  0  0  0  0  0  0  0  0
   32.2150   45.7090   -5.1260 C   0  0  0  0  0  0  0  0  0  0  0  0
   31.8310   45.1190   -6.3590 O   0  0  0  0  0  0  0  0  0  0  0  0
   32.0460   44.6940   -3.9780 C   0  0  0  0  0  0  0  0  0  0  0  0
   31.3610   46.9790   -4.8910 C   0  0  2  0  0  0  0  0  0  0  0  0
   32.1910   45.3180   -2.5620 C   0  0  0  0  0  0  0  0  0  0  0  0
   30.6610   44.0000   -3.9520 C   0  0  0  0  0  0  0  0  0  0  0  0
   30.7290   47.5410   -6.1650 C   0  0  0  0  0  0  0  0  0  0  0  0
   32.1160   48.1110   -4.1640 C   0  0  0  0  0  0  0  0  0  0  0  0
   30.7670   45.6440   -2.2300 C   0  0  0  0  0  0  0  0  0  0  0  0
   29.8950   44.8910   -3.0200 C   0  0  0  0  0  0  0  0  0  0  0  0
   31.1580   49.2020   -3.7170 C   0  0  1  0  0  0  0  0  0  0  0  0
   29.9090   48.7260   -5.8370 N   0  0  0  0  0  0  0  0  0  0  0  0
   31.6960   50.4120   -4.0360 F   0  0  0  0  0  0  0  0  0  0  0  0
   30.2860   46.5440   -1.2920 C   0  0  0  0  0  0  0  0  0  0  0  0
   28.5240   45.0180   -2.8900 C   0  0  0  0  0  0  0  0  0  0  0  0
   29.7970   49.0410   -4.3890 C   0  0  0  0  0  0  0  0  0  0  0  0
   28.9760   49.2310   -6.7490 C   0  0  0  0  0  0  0  0  0  0  0  0
   28.9030   46.6790   -1.1540 C   0  0  0  0  0  0  0  0  0  0  0  0
   28.0290   45.9210   -1.9470 C   0  0  0  0  0  0  0  0  0  0  0  0
   28.6130   48.4690   -7.8490 N   0  0  0  0  0  0  0  0  0  0  0  0
   28.3660   50.4270   -6.6670 C   0  0  0  0  0  0  0  0  0  0  0  0
   27.7150   48.9000   -8.7820 C   0  0  0  0  0  0  0  0  0  0  0  0
   27.3940   50.8330   -7.7150 C   0  0  0  0  0  0  0  0  0  0  0  0
   28.3680   51.5540   -5.7830 C   0  0  0  0  0  0  0  0  0  0  0  0
   27.0910   50.0290   -8.7740 N   0  0  0  0  0  0  0  0  0  0  0  0
   26.8900   52.0170   -7.4960 N   0  0  0  0  0  0  0  0  0  0  0  0
   27.4980   52.4260   -6.3190 C   0  0  0  0  0  0  0  0  0  0  0  0
  2  1  1  0
  2  3  1  0
  2  4  1  0
  5  2  1  6
  4  6  1  0
  4  7  1  0
  5  8  1  0
  5  9  1  0
  6 10  1  0
  7 11  1  0
 10 11  2  0
  9 12  1  0
  8 13  1  0
 12 14  1  6
 10 15  1  0
 11 16  1  0
 12 17  1  0
 13 17  1  0
 13 18  1  0
 15 19  2  0
 16 20  2  0
 19 20  1  0
 18 21  1  0
 18 22  2  0
 21 23  1  0
 22 24  1  0
 22 25  1  0
 23 26  2  0
 24 26  1  0
 24 27  2  0
 25 28  2  0
 27 28  1  0
M  END
