mac-x0402-mac-x0417
     RDKit          3D

 27 30  0  0  0  0  0  0  0  0999 V2000
   30.2890   47.9500   -3.1140 Cl  0  0  0  0  0  0  0  0  0  0  0  0
   29.9000   49.4450   -3.9000 C   0  0  0  0  0  0  0  0  0  0  0  0
   29.6240   50.5210   -3.0570 C   0  0  0  0  0  0  0  0  0  0  0  0
   29.8670   49.5630   -5.3100 C   0  0  0  0  0  0  0  0  0  0  0  0
   30.1700   48.3970   -6.2320 C   0  0  0  0  0  0  0  0  0  0  0  0
   29.5300   50.8540   -5.8100 C   0  0  0  0  0  0  0  0  0  0  0  0
   29.2980   51.7700   -3.5850 C   0  0  0  0  0  0  0  0  0  0  0  0
   31.6150   47.8950   -6.1450 C   0  0  0  0  0  0  0  0  0  0  0  0
   29.2490   51.9420   -4.9780 C   0  0  0  0  0  0  0  0  0  0  0  0
   29.3820   51.4000   -7.4490 S   0  0  0  0  0  0  0  0  0  0  0  0
   31.9560   46.7960   -7.1490 C   0  0  0  0  0  0  0  0  0  0  0  0
   28.9730   52.9700   -6.9090 C   0  0  0  0  0  0  0  0  0  0  0  0
   28.9360   53.1310   -5.6150 N   0  0  0  0  0  0  0  0  0  0  0  0
   28.7110   53.9640   -7.7740 N   0  0  0  0  0  0  0  0  0  0  0  0
   32.0650   45.5560   -6.4340 O   0  0  0  0  0  0  0  0  0  0  0  0
   33.2570   45.3580   -5.8050 C   0  0  0  0  0  0  0  0  0  0  0  0
   34.3310   45.1920   -6.3740 O   0  0  0  0  0  0  0  0  0  0  0  0
   33.0840   45.3760   -4.3060 C   0  0  0  0  0  0  0  0  0  0  0  0
   34.3560   45.0870   -3.5930 C   0  0  0  0  0  0  0  0  0  0  0  0
   34.6670   43.8270   -3.2550 N   0  0  0  0  0  0  0  0  0  0  0  0
   35.3670   45.9990   -3.1800 C   0  0  0  0  0  0  0  0  0  0  0  0
   35.8940   43.8980   -2.6130 O   0  0  0  0  0  0  0  0  0  0  0  0
   36.3100   45.1910   -2.5680 C   0  0  0  0  0  0  0  0  0  0  0  0
   35.6040   47.3830   -3.2420 C   0  0  0  0  0  0  0  0  0  0  0  0
   37.4940   45.6540   -2.0010 C   0  0  0  0  0  0  0  0  0  0  0  0
   36.7860   47.8850   -2.6820 C   0  0  0  0  0  0  0  0  0  0  0  0
   37.7150   47.0350   -2.0710 C   0  0  0  0  0  0  0  0  0  0  0  0
  1  2  1  0
  2  3  2  0
  2  4  1  0
  4  5  1  0
  4  6  2  0
  3  7  1  0
  5  8  1  0
  6  9  1  0
  7  9  2  0
  6 10  1  0
  8 11  1  0
 10 12  1  0
  9 13  1  0
 12 13  2  0
 12 14  1  0
 11 15  1  0
 15 16  1  0
 16 17  2  0
 16 18  1  0
 18 19  1  0
 19 20  2  0
 19 21  1  0
 20 22  1  0
 21 23  2  0
 22 23  1  0
 21 24  1  0
 23 25  1  0
 24 26  2  0
 25 27  2  0
 26 27  1  0
M  END
