mac-x0283-mac-x0439
     RDKit          3D

 25 28  0  0  0  0  0  0  0  0999 V2000
   28.7170   54.5670   -6.7280 N   0  0  0  0  0  0  0  0  0  0  0  0
   29.1010   53.8880   -5.6310 C   0  0  0  0  0  0  0  0  0  0  0  0
   29.5050   54.4560   -4.4890 N   0  0  0  0  0  0  0  0  0  0  0  0
   29.1260   52.4770   -5.5470 C   0  0  0  0  0  0  0  0  0  0  0  0
   29.8020   53.4060   -3.6310 O   0  0  0  0  0  0  0  0  0  0  0  0
   29.5740   52.2240   -4.2650 C   0  0  0  0  0  0  0  0  0  0  0  0
   28.8270   51.3910   -6.3870 C   0  0  0  0  0  0  0  0  0  0  0  0
   29.7550   50.9470   -3.7310 C   0  0  0  0  0  0  0  0  0  0  0  0
   28.9970   50.0950   -5.8850 C   0  0  0  0  0  0  0  0  0  0  0  0
   29.4500   49.8640   -4.5820 C   0  0  0  0  0  0  0  0  0  0  0  0
   29.6060   48.4420   -4.1050 C   0  0  0  0  0  0  0  0  0  0  0  0
   30.8630   48.2070   -3.2690 C   0  0  0  0  0  0  0  0  0  0  0  0
   30.6110   47.4000   -1.9910 C   0  0  0  0  0  0  0  0  0  0  0  0
   29.7800   46.1330   -2.1010 C   0  0  0  0  0  0  0  0  0  0  0  0
   30.2730   45.0030   -2.9750 C   0  0  2  0  0  0  0  0  0  0  0  0
   28.6150   45.9340   -1.4420 C   0  0  0  0  0  0  0  0  0  0  0  0
   30.9390   45.1720   -4.3030 C   0  0  0  0  0  0  0  0  0  0  0  0
   29.0960   44.1980   -3.5040 C   0  0  0  0  0  0  0  0  0  0  0  0
   27.8550   44.6950   -1.5580 C   0  0  0  0  0  0  0  0  0  0  0  0
   30.2490   44.5070   -5.2430 C   0  0  0  0  0  0  0  0  0  0  0  0
   29.1040   43.9030   -4.7670 N   0  0  0  0  0  0  0  0  0  0  0  0
   28.0520   43.8100   -2.5480 C   0  0  0  0  0  0  0  0  0  0  0  0
   30.6930   44.4380   -6.6640 C   0  0  0  0  0  0  0  0  0  0  0  0
   30.4580   43.2320   -7.2150 O   0  0  0  0  0  0  0  0  0  0  0  0
   31.2200   45.3270   -7.3070 O   0  0  0  0  0  0  0  0  0  0  0  0
  1  2  1  0
  2  3  2  0
  2  4  1  0
  3  5  1  0
  4  6  2  0
  5  6  1  0
  4  7  1  0
  6  8  1  0
  7  9  2  0
  8 10  2  0
  9 10  1  0
 10 11  1  0
 11 12  1  0
 12 13  1  0
 13 14  1  0
 14 15  1  0
 14 16  2  0
 15 17  1  6
 15 18  1  0
 16 19  1  0
 17 20  2  0
 18 21  2  0
 20 21  1  0
 18 22  1  0
 19 22  2  0
 20 23  1  0
 23 24  1  0
 23 25  2  0
M  END
