mac-x0212-mac-x0373
     RDKit          3D

 22 23  0  0  0  0  0  0  0  0999 V2000
   30.7600   53.8630   -6.4480 C   0  0  0  0  0  0  0  0  0  0  0  0
   29.3480   54.1520   -5.4020 S   0  0  0  0  0  0  0  0  0  0  0  0
   28.6000   55.2490   -5.9780 O   0  0  0  0  0  0  0  0  0  0  0  0
   29.7770   54.1820   -4.0240 O   0  0  0  0  0  0  0  0  0  0  0  0
   28.4070   52.7720   -5.6950 N   0  0  0  0  0  0  0  0  0  0  0  0
   28.9840   51.5170   -5.3550 C   0  0  0  0  0  0  0  0  0  0  0  0
   29.2930   50.6110   -6.3600 C   0  0  0  0  0  0  0  0  0  0  0  0
   29.2400   51.1990   -4.0210 C   0  0  0  0  0  0  0  0  0  0  0  0
   29.8640   49.3800   -6.0390 C   0  0  0  0  0  0  0  0  0  0  0  0
   29.8120   49.9630   -3.6990 C   0  0  0  0  0  0  0  0  0  0  0  0
   30.1350   49.0320   -4.7040 C   0  0  0  0  0  0  0  0  0  0  0  0
   30.7700   47.6760   -4.3720 C   0  0  2  0  0  0  0  0  0  0  0  0
   30.4700   46.6230   -5.4790 C   0  0  0  0  0  0  0  0  0  0  0  0
   30.2190   47.1760   -3.1330 O   0  0  0  0  0  0  0  0  0  0  0  0
   32.2530   47.7950   -4.0740 C   0  0  0  0  0  0  0  0  0  0  0  0
   31.3510   46.5760   -6.5070 O   0  0  0  0  0  0  0  0  0  0  0  0
   29.5120   45.8530   -5.4970 O   0  0  0  0  0  0  0  0  0  0  0  0
   32.9060   46.7220   -3.4440 C   0  0  0  0  0  0  0  0  0  0  0  0
   32.9990   48.9370   -4.3990 C   0  0  0  0  0  0  0  0  0  0  0  0
   34.2630   46.7840   -3.1470 C   0  0  0  0  0  0  0  0  0  0  0  0
   34.3590   48.9970   -4.1020 C   0  0  0  0  0  0  0  0  0  0  0  0
   34.9910   47.9240   -3.4770 C   0  0  0  0  0  0  0  0  0  0  0  0
  1  2  1  0
  2  3  2  0
  2  4  2  0
  2  5  1  0
  5  6  1  0
  6  7  2  0
  6  8  1  0
  7  9  1  0
  8 10  2  0
  9 11  2  0
 10 11  1  0
 11 12  1  0
 12 13  1  0
 12 14  1  1
 12 15  1  0
 13 16  1  0
 13 17  2  0
 15 18  2  0
 15 19  1  0
 18 20  1  0
 19 21  2  0
 20 22  2  0
 21 22  1  0
M  END
