mac-x0343-mac-x0511
     RDKit          3D

 25 28  0  0  0  0  0  0  0  0999 V2000
    3.3420   38.1760    5.1780 C   0  0  0  0  0  0  0  0  0  0  0  0
    3.5920   37.7670    3.6960 C   0  0  0  0  0  0  0  0  0  0  0  0
    2.7690   38.4160    2.6790 N   0  0  0  0  0  0  0  0  0  0  0  0
    2.7490   37.1280    6.1950 C   0  0  1  0  0  0  0  0  0  0  0  0
    3.3990   37.2680    7.5980 C   0  0  0  0  0  0  0  0  0  0  0  0
    1.1640   37.1310    6.2620 C   0  0  2  0  0  0  0  0  0  0  0  0
    0.5170   38.3910    5.8530 N   0  0  0  0  0  0  0  0  0  0  0  0
    0.6530   36.5210    7.5690 C   0  0  0  0  0  0  0  0  0  0  0  0
    2.9030   36.3370    8.6130 N   0  0  0  0  0  0  0  0  0  0  0  0
    1.4860   38.1830    2.2550 C   0  0  0  0  0  0  0  0  0  0  0  0
    3.3450   39.4220    2.0450 N   0  0  0  0  0  0  0  0  0  0  0  0
    1.2220   39.6440    6.1480 C   0  0  0  0  0  0  0  0  0  0  0  0
    0.1590   38.2670    4.4330 C   0  0  0  0  0  0  0  0  0  0  0  0
    1.7150   35.6140    8.1580 C   0  0  0  0  0  0  0  0  0  0  0  0
    1.2410   39.1410    1.2940 C   0  0  0  0  0  0  0  0  0  0  0  0
    2.4340   39.8760    1.2120 C   0  0  0  0  0  0  0  0  0  0  0  0
    0.3590   40.8580    5.8130 C   0  0  0  0  0  0  0  0  0  0  0  0
    0.2870   39.5780    3.6680 C   0  0  0  0  0  0  0  0  0  0  0  0
    2.7800   41.0490    0.3580 C   0  0  0  0  0  0  0  0  0  0  0  0
   -0.2830   40.7480    4.4390 C   0  0  0  0  0  0  0  0  0  0  0  0
    3.4710   40.6530   -0.9490 C   0  0  0  0  0  0  0  0  0  0  0  0
    3.6680   42.0180    1.1570 C   0  0  0  0  0  0  0  0  0  0  0  0
    4.2420   41.8230   -1.5880 C   0  0  0  0  0  0  0  0  0  0  0  0
    5.1140   42.0370    0.6620 C   0  0  0  0  0  0  0  0  0  0  0  0
    5.1920   42.5210   -0.7110 N   0  0  0  0  0  0  0  0  0  0  0  0
  1  2  1  0
  2  3  1  0
  4  1  1  6
  4  5  1  0
  4  6  1  0
  6  7  1  1
  6  8  1  0
  5  9  1  0
  3 10  1  0
  3 11  1  0
  7 12  1  0
  7 13  1  0
  8 14  1  0
  9 14  1  0
 10 15  2  0
 11 16  2  0
 15 16  1  0
 12 17  1  0
 13 18  1  0
 16 19  1  0
 17 20  1  0
 18 20  1  0
 19 21  1  0
 19 22  1  0
 21 23  1  0
 22 24  1  0
 23 25  1  0
 24 25  1  0
M  END
