mac-x0319-mac-x0472
     RDKit          3D

 26 28  0  0  0  0  0  0  0  0999 V2000
   34.3460   45.5900   -6.7900 O   0  0  0  0  0  0  0  0  0  0  0  0
   33.0910   45.1500   -6.5750 C   0  0  0  0  0  0  0  0  0  0  0  0
   32.2380   45.2690   -7.4410 O   0  0  0  0  0  0  0  0  0  0  0  0
   32.8940   44.5350   -5.2140 C   0  0  0  0  0  0  0  0  0  0  0  0
   31.7920   45.1940   -4.4250 C   0  0  0  0  0  0  0  0  0  0  0  0
   30.6260   44.4900   -4.0950 C   0  0  0  0  0  0  0  0  0  0  0  0
   31.9140   46.5290   -4.0070 C   0  0  0  0  0  0  0  0  0  0  0  0
   29.6140   45.1110   -3.3680 C   0  0  0  0  0  0  0  0  0  0  0  0
   30.8920   47.1410   -3.2790 C   0  0  0  0  0  0  0  0  0  0  0  0
   28.5030   44.3750   -3.0750 O   0  0  0  0  0  0  0  0  0  0  0  0
   31.0360   48.5320   -2.8480 N   0  0  0  0  0  0  0  0  0  0  0  0
   29.7360   46.4350   -2.9560 C   0  0  0  0  0  0  0  0  0  0  0  0
   30.5980   49.6960   -3.7580 S   0  0  2  0  0  0  0  0  0  0  0  0
   29.6940   50.7570   -3.3700 O   0  0  0  0  0  0  0  0  0  0  0  0
   29.7580   48.9700   -5.0280 N   0  0  0  0  0  0  0  0  0  0  0  0
   32.0540   50.5030   -4.3850 C   0  0  0  0  0  0  0  0  0  0  0  0
   29.2810   49.7150   -6.0510 C   0  0  0  0  0  0  0  0  0  0  0  0
   33.1480   49.7180   -4.7570 C   0  0  0  0  0  0  0  0  0  0  0  0
   32.1020   51.8960   -4.5050 C   0  0  0  0  0  0  0  0  0  0  0  0
   29.0250   49.2040   -7.2420 N   0  0  0  0  0  0  0  0  0  0  0  0
   28.9410   51.4090   -5.9710 S   0  0  0  0  0  0  0  0  0  0  0  0
   34.2980   50.3290   -5.2520 C   0  0  0  0  0  0  0  0  0  0  0  0
   33.2580   52.5000   -5.0020 C   0  0  0  0  0  0  0  0  0  0  0  0
   28.4580   51.3250   -7.6090 C   0  0  0  0  0  0  0  0  0  0  0  0
   28.5500   50.1300   -8.1460 N   0  0  0  0  0  0  0  0  0  0  0  0
   34.3530   51.7180   -5.3740 C   0  0  0  0  0  0  0  0  0  0  0  0
  1  2  1  0
  2  3  2  0
  2  4  1  0
  4  5  1  0
  5  6  2  0
  5  7  1  0
  6  8  1  0
  7  9  2  0
  8 10  1  0
  9 11  1  0
  8 12  2  0
  9 12  1  0
 11 13  2  0
 13 14  2  0
 13 15  1  6
 13 16  1  0
 15 17  1  0
 16 18  2  0
 16 19  1  0
 17 20  2  0
 17 21  1  0
 18 22  1  0
 19 23  2  0
 21 24  1  0
 20 25  1  0
 24 25  2  0
 22 26  2  0
 23 26  1  0
M  END
