mac-x0344-mac-x0588
     RDKit          3D

 29 32  0  0  0  0  0  0  0  0999 V2000
   31.9620   44.0610   -4.2750 O   0  0  0  0  0  0  0  0  0  0  0  0
   32.1650   45.0490   -5.2870 C   0  0  0  0  0  0  0  0  0  0  0  0
   32.2880   44.3370   -6.4900 O   0  0  0  0  0  0  0  0  0  0  0  0
   33.4730   45.8650   -4.9610 C   0  0  0  0  0  0  0  0  0  0  0  0
   30.8790   45.8710   -5.3600 C   0  0  0  0  0  0  0  0  0  0  0  0
   33.9420   46.6070   -5.8230 O   0  0  0  0  0  0  0  0  0  0  0  0
   33.9970   45.6510   -3.7000 N   0  0  0  0  0  0  0  0  0  0  0  0
   30.4940   46.8790   -4.2410 C   0  0  1  0  0  0  0  0  0  0  0  0
   35.1840   46.2130   -3.1720 C   0  0  0  0  0  0  0  0  0  0  0  0
   29.7010   48.0240   -4.7770 N   0  0  0  0  0  0  0  0  0  0  0  0
   29.8620   46.1130   -3.0190 C   0  0  1  0  0  0  0  0  0  0  0  0
   36.1800   45.4810   -2.5180 C   0  0  0  0  0  0  0  0  0  0  0  0
   35.3650   47.5950   -3.3200 C   0  0  0  0  0  0  0  0  0  0  0  0
   29.9900   49.2730   -4.0800 C   0  0  0  0  0  0  0  0  0  0  0  0
   29.8920   48.1640   -6.2250 C   0  0  2  0  0  0  0  0  0  0  0  0
   28.7760   46.8070   -2.3920 O   0  0  0  0  0  0  0  0  0  0  0  0
   29.3100   44.7250   -3.2960 C   0  0  0  0  0  0  0  0  0  0  0  0
   37.3270   46.1160   -2.0260 C   0  0  0  0  0  0  0  0  0  0  0  0
   36.5080   48.2300   -2.8300 C   0  0  0  0  0  0  0  0  0  0  0  0
   29.0720   50.2920   -4.5540 N   0  0  0  0  0  0  0  0  0  0  0  0
   29.5410   49.4990   -6.9100 C   0  0  2  0  0  0  0  0  0  0  0  0
   29.0420   47.1850   -6.9020 N   0  0  0  0  0  0  0  0  0  0  0  0
   28.5230   44.4610   -2.0310 C   0  0  0  0  0  0  0  0  0  0  0  0
   28.0760   45.8460   -1.5890 C   0  0  0  0  0  0  0  0  0  0  0  0
   37.4930   47.4920   -2.1810 C   0  0  0  0  0  0  0  0  0  0  0  0
   29.3310   50.6700   -5.9100 C   0  0  1  0  0  0  0  0  0  0  0  0
   28.3620   49.1950   -7.7570 N   0  0  0  0  0  0  0  0  0  0  0  0
   28.6030   47.8180   -8.1250 C   0  0  0  0  0  0  0  0  0  0  0  0
   28.2160   51.5420   -6.2460 N   0  0  0  0  0  0  0  0  0  0  0  0
  2  1  1  0
  2  3  1  0
  2  4  1  0
  2  5  1  0
  4  6  2  0
  4  7  1  0
  8  5  1  6
  7  9  1  0
  8 10  1  0
  8 11  1  0
  9 12  2  0
  9 13  1  0
 10 14  1  0
 10 15  1  0
 11 16  1  0
 11 17  1  6
 12 18  1  0
 13 19  2  0
 14 20  1  0
 15 21  1  0
 15 22  1  6
 17 23  1  0
 16 24  1  0
 23 24  1  0
 18 25  2  0
 19 25  1  0
 20 26  1  0
 21 26  1  0
 21 27  1  1
 22 28  1  0
 27 28  1  0
 26 29  1  6
M  END
