mac-x0344-mac-x0193
     RDKit          3D

 21 22  0  0  0  0  0  0  0  0999 V2000
   31.9940   44.1900   -3.8970 O   0  0  0  0  0  0  0  0  0  0  0  0
   32.4330   44.9350   -4.9300 C   0  0  0  0  0  0  0  0  0  0  0  0
   31.7860   45.1790   -5.9360 O   0  0  0  0  0  0  0  0  0  0  0  0
   33.8750   45.4530   -4.6990 C   0  0  0  0  0  0  0  0  0  0  0  0
   34.3460   46.0630   -5.6600 O   0  0  0  0  0  0  0  0  0  0  0  0
   34.5020   45.2080   -3.4620 N   0  0  0  0  0  0  0  0  0  0  0  0
   34.7490   43.8680   -3.1280 C   0  0  0  0  0  0  0  0  0  0  0  0
   35.4520   46.1830   -3.0050 C   0  0  0  0  0  0  0  0  0  0  0  0
   33.8940   43.1360   -2.6320 O   0  0  0  0  0  0  0  0  0  0  0  0
   36.0380   43.4180   -3.4010 N   0  0  0  0  0  0  0  0  0  0  0  0
   36.3700   45.8580   -1.9980 C   0  0  0  0  0  0  0  0  0  0  0  0
   35.5120   47.4840   -3.5380 C   0  0  0  0  0  0  0  0  0  0  0  0
   37.3120   46.7760   -1.5380 C   0  0  0  0  0  0  0  0  0  0  0  0
   36.4550   48.4090   -3.0760 C   0  0  0  0  0  0  0  0  0  0  0  0
   37.1400   43.2690   -2.4250 C   0  0  0  0  0  0  0  0  0  0  0  0
   37.3550   48.0520   -2.0770 C   0  0  0  0  0  0  0  0  0  0  0  0
   38.1540   42.2330   -2.9480 C   0  0  0  0  0  0  0  0  0  0  0  0
   36.6770   42.9100   -1.0060 C   0  0  0  0  0  0  0  0  0  0  0  0
   38.8820   41.4430   -1.8600 C   0  0  0  0  0  0  0  0  0  0  0  0
   37.8360   42.7930   -0.0030 C   0  0  0  0  0  0  0  0  0  0  0  0
   39.1390   42.2790   -0.6170 C   0  0  0  0  0  0  0  0  0  0  0  0
  1  2  1  0
  2  3  2  0
  2  4  1  0
  4  5  2  0
  4  6  1  0
  6  7  1  0
  6  8  1  0
  7  9  2  0
  7 10  1  0
  8 11  2  0
  8 12  1  0
 11 13  1  0
 12 14  2  0
 10 15  1  0
 13 16  2  0
 14 16  1  0
 15 17  1  0
 15 18  1  0
 17 19  1  0
 18 20  1  0
 19 21  1  0
 20 21  1  0
M  END
