mac-x0392-mac-x0124
     RDKit          3D

 13 14  0  0  0  0  0  0  0  0999 V2000
   29.7880   47.2190   -7.7130 N   0  0  0  0  0  0  0  0  0  0  0  0
   29.0340   48.3160   -7.0470 C   0  0  2  0  0  0  0  0  0  0  0  0
   29.3220   49.6660   -7.7610 C   0  0  0  0  0  0  0  0  0  0  0  0
   29.2640   48.4510   -5.5050 C   0  0  1  0  0  0  0  0  0  0  0  0
   30.1380   47.2680   -4.9860 C   0  0  0  0  0  0  0  0  0  0  0  0
   29.7870   49.8460   -5.0340 C   0  0  1  0  0  0  0  0  0  0  0  0
   28.6540   50.7780   -7.0910 N   0  0  0  0  0  0  0  0  0  0  0  0
   28.0320   48.4330   -4.6480 N   0  0  0  0  0  0  0  0  0  0  0  0
   30.8760   47.3240   -4.0080 O   0  0  0  0  0  0  0  0  0  0  0  0
   30.0550   46.1000   -5.6560 O   0  0  0  0  0  0  0  0  0  0  0  0
   29.2600   51.0750   -5.7830 C   0  0  0  0  0  0  0  0  0  0  0  0
   29.5680   49.6640   -3.5520 C   0  0  0  0  0  0  0  0  0  0  0  0
   28.5220   48.8300   -3.4110 C   0  0  0  0  0  0  0  0  0  0  0  0
  2  1  1  6
  2  3  1  0
  2  4  1  0
  4  5  1  1
  4  6  1  0
  3  7  1  0
  4  8  1  0
  5  9  2  0
  5 10  1  0
  6 11  1  6
  7 11  1  0
  6 12  1  0
  8 13  1  0
 12 13  2  0
M  END
