mac-x0354-mac-x0546
     RDKit          3D

 27 30  0  0  0  0  0  0  0  0999 V2000
   35.9520   43.2550   -1.7610 C   0  0  0  0  0  0  0  0  0  0  0  0
   35.1010   43.3870   -2.9220 N   0  0  0  0  0  0  0  0  0  0  0  0
   34.4600   42.3010   -3.3850 N   0  0  0  0  0  0  0  0  0  0  0  0
   34.8490   44.5300   -3.6470 C   0  0  0  0  0  0  0  0  0  0  0  0
   33.7810   42.7590   -4.4330 C   0  0  0  0  0  0  0  0  0  0  0  0
   33.9750   44.1450   -4.6640 C   0  0  0  0  0  0  0  0  0  0  0  0
   35.4350   45.8260   -3.3280 C   0  0  0  0  0  0  0  0  0  0  0  0
   33.3400   44.9450   -5.7680 C   0  0  0  0  0  0  0  0  0  0  0  0
   36.8150   46.0210   -3.4460 C   0  0  0  0  0  0  0  0  0  0  0  0
   34.6230   46.8860   -2.9000 C   0  0  0  0  0  0  0  0  0  0  0  0
   32.7200   44.0840   -6.7210 O   0  0  0  0  0  0  0  0  0  0  0  0
   34.3430   45.6260   -6.5210 O   0  0  0  0  0  0  0  0  0  0  0  0
   32.3180   46.0130   -5.2870 C   0  0  0  0  0  0  0  0  0  0  0  0
   37.3780   47.2600   -3.1410 C   0  0  0  0  0  0  0  0  0  0  0  0
   35.1890   48.1240   -2.5960 C   0  0  0  0  0  0  0  0  0  0  0  0
   36.5660   48.3110   -2.7170 C   0  0  0  0  0  0  0  0  0  0  0  0
   31.1390   45.5780   -4.4650 C   0  0  0  0  0  0  0  0  0  0  0  0
   31.0850   45.8490   -2.9930 C   0  0  1  0  0  0  0  0  0  0  0  0
   30.0210   44.9270   -4.8250 C   0  0  0  0  0  0  0  0  0  0  0  0
   30.9960   47.2460   -2.4730 C   0  0  0  0  0  0  0  0  0  0  0  0
   29.7240   45.2160   -2.7630 C   0  0  0  0  0  0  0  0  0  0  0  0
   29.1400   44.6940   -3.7970 N   0  0  0  0  0  0  0  0  0  0  0  0
   30.2130   47.4880   -1.4050 C   0  0  0  0  0  0  0  0  0  0  0  0
   29.1890   45.2630   -1.3960 C   0  0  0  0  0  0  0  0  0  0  0  0
   30.0780   48.7470   -0.8650 O   0  0  0  0  0  0  0  0  0  0  0  0
   29.4580   46.4160   -0.7610 C   0  0  0  0  0  0  0  0  0  0  0  0
   31.3560   49.3220   -0.5820 C   0  0  0  0  0  0  0  0  0  0  0  0
  1  2  1  0
  2  3  1  0
  2  4  1  0
  3  5  2  0
  4  6  2  0
  5  6  1  0
  4  7  1  0
  6  8  1  0
  7  9  2  0
  7 10  1  0
  8 11  1  0
  8 12  1  0
  8 13  1  0
  9 14  1  0
 10 15  2  0
 14 16  2  0
 15 16  1  0
 13 17  1  0
 17 18  1  0
 17 19  2  0
 18 20  1  6
 18 21  1  0
 19 22  1  0
 21 22  2  0
 20 23  2  0
 21 24  1  0
 23 25  1  0
 23 26  1  0
 24 26  2  0
 25 27  1  0
M  END
