mac-x0182-mac-x0555
     RDKit          3D

 25 28  0  0  0  0  0  0  0  0999 V2000
   34.2870   43.4790   -2.5270 O   0  0  0  0  0  0  0  0  0  0  0  0
   34.3320   44.6220   -2.9530 C   0  0  0  0  0  0  0  0  0  0  0  0
   33.3290   45.2510   -3.6460 N   0  0  0  0  0  0  0  0  0  0  0  0
   35.5030   45.5150   -2.7730 C   0  0  0  0  0  0  0  0  0  0  0  0
   33.8710   46.6940   -4.3220 S   0  0  2  0  0  0  0  0  0  0  0  0
   35.3820   46.7060   -3.4790 C   0  0  0  0  0  0  0  0  0  0  0  0
   36.6280   45.2620   -2.0050 C   0  0  0  0  0  0  0  0  0  0  0  0
   32.9510   47.7510   -3.7230 N   0  0  0  0  0  0  0  0  0  0  0  0
   34.0920   46.3760   -5.7120 O   0  0  0  0  0  0  0  0  0  0  0  0
   36.3500   47.6890   -3.4620 C   0  0  0  0  0  0  0  0  0  0  0  0
   37.6290   46.2420   -1.9680 C   0  0  0  0  0  0  0  0  0  0  0  0
   31.5290   47.4500   -3.4710 C   0  0  0  0  0  0  0  0  0  0  0  0
   37.4900   47.4460   -2.6920 C   0  0  0  0  0  0  0  0  0  0  0  0
   30.5520   48.4020   -4.1790 C   0  0  0  0  0  0  0  0  0  0  0  0
   30.5860   49.8310   -3.6880 C   0  0  0  0  0  0  0  0  0  0  0  0
   30.5110   51.2550   -3.4230 C   0  0  0  0  0  0  0  0  0  0  0  0
   29.9580   49.8330   -4.9870 C   0  0  0  0  0  0  0  0  0  0  0  0
   30.0180   52.3490   -4.1250 C   0  0  0  0  0  0  0  0  0  0  0  0
   29.4340   50.8600   -5.7720 C   0  0  0  0  0  0  0  0  0  0  0  0
   29.4560   52.1490   -5.3490 C   0  0  0  0  0  0  0  0  0  0  0  0
   30.1090   53.5740   -3.5770 N   0  0  0  0  0  0  0  0  0  0  0  0
   28.9520   53.2340   -6.0770 C   0  0  0  0  0  0  0  0  0  0  0  0
   29.6180   54.6190   -4.2900 C   0  0  0  0  0  0  0  0  0  0  0  0
   29.0290   54.5180   -5.5450 C   0  0  0  0  0  0  0  0  0  0  0  0
   28.5340   55.6250   -6.2440 N   0  0  0  0  0  0  0  0  0  0  0  0
  1  2  2  0
  2  3  1  0
  2  4  1  0
  5  3  1  1
  4  6  2  0
  5  6  1  0
  4  7  1  0
  5  8  2  0
  5  9  2  0
  6 10  1  0
  7 11  2  0
  8 12  1  0
 10 13  2  0
 11 13  1  0
 12 14  1  0
 14 15  1  0
 15 16  2  0
 15 17  1  0
 16 18  1  0
 17 19  2  0
 18 20  2  0
 19 20  1  0
 18 21  1  0
 20 22  1  0
 21 23  2  0
 22 24  2  0
 23 24  1  0
 24 25  1  0
M  END
