mac-x0255-mac-x0212
     RDKit          3D

 27 29  0  0  0  0  0  0  0  0999 V2000
   33.1570   43.4930   -6.3630 O   0  0  0  0  0  0  0  0  0  0  0  0
   32.6930   44.6820   -6.8130 C   0  0  0  0  0  0  0  0  0  0  0  0
   32.3850   44.7970   -7.9900 O   0  0  0  0  0  0  0  0  0  0  0  0
   32.6370   45.7190   -5.7170 C   0  0  0  0  0  0  0  0  0  0  0  0
   31.6330   45.3850   -4.6530 C   0  0  0  0  0  0  0  0  0  0  0  0
   30.4580   46.0360   -4.3380 C   0  0  0  0  0  0  0  0  0  0  0  0
   31.8770   44.0360   -3.6310 S   0  0  0  0  0  0  0  0  0  0  0  0
   30.0410   47.1790   -5.0460 N   0  0  0  0  0  0  0  0  0  0  0  0
   29.7340   45.4360   -3.2490 C   0  0  0  0  0  0  0  0  0  0  0  0
   30.4150   44.3160   -2.7630 C   0  0  0  0  0  0  0  0  0  0  0  0
   29.9740   48.2940   -4.3920 C   0  0  0  0  0  0  0  0  0  0  0  0
   28.5080   45.7840   -2.6230 C   0  0  0  0  0  0  0  0  0  0  0  0
   29.9140   43.5490   -1.6910 C   0  0  0  0  0  0  0  0  0  0  0  0
   30.3130   48.2680   -3.0910 O   0  0  0  0  0  0  0  0  0  0  0  0
   28.0070   45.0270   -1.5600 C   0  0  0  0  0  0  0  0  0  0  0  0
   28.7050   43.9200   -1.0990 C   0  0  0  0  0  0  0  0  0  0  0  0
   29.5870   49.6640   -4.7720 C   0  0  0  0  0  0  0  0  0  0  0  0
   29.5410   50.0090   -6.1280 C   0  0  0  0  0  0  0  0  0  0  0  0
   29.2670   50.6170   -3.8010 C   0  0  0  0  0  0  0  0  0  0  0  0
   29.1750   51.3020   -6.5090 C   0  0  0  0  0  0  0  0  0  0  0  0
   28.9010   51.9110   -4.1840 C   0  0  0  0  0  0  0  0  0  0  0  0
   28.8560   52.2500   -5.5370 C   0  0  0  0  0  0  0  0  0  0  0  0
   28.4790   53.5740   -5.9010 N   0  0  0  0  0  0  0  0  0  0  0  0
   29.6330   54.8040   -5.8270 S   0  0  0  0  0  0  0  0  0  0  0  0
   31.1650   53.9240   -6.0770 C   0  0  0  0  0  0  0  0  0  0  0  0
   29.4430   55.7190   -6.9310 O   0  0  0  0  0  0  0  0  0  0  0  0
   29.6180   55.2710   -4.4550 O   0  0  0  0  0  0  0  0  0  0  0  0
  1  2  1  0
  2  3  2  0
  2  4  1  0
  4  5  1  0
  5  6  2  0
  5  7  1  0
  6  8  1  0
  6  9  1  0
  7 10  1  0
  9 10  2  0
  8 11  2  3
  9 12  1  0
 10 13  1  0
 11 14  1  0
 12 15  2  0
 13 16  2  0
 15 16  1  0
 11 17  1  0
 17 18  2  0
 17 19  1  0
 18 20  1  0
 19 21  2  0
 20 22  2  0
 21 22  1  0
 22 23  1  0
 24 23  1  0
 24 25  1  0
 24 26  2  0
 24 27  2  0
M  END
