mac-x0138-mac-x0301
     RDKit          3D

 14 15  0  0  0  0  0  0  0  0999 V2000
   30.5240   46.9480   -3.9810 C   0  0  0  0  0  0  0  0  0  0  0  0
   30.1630   45.8800   -4.7130 O   0  0  0  0  0  0  0  0  0  0  0  0
   31.1690   46.8690   -2.9490 O   0  0  0  0  0  0  0  0  0  0  0  0
   30.1060   48.1750   -4.5020 N   0  0  0  0  0  0  0  0  0  0  0  0
   30.0380   49.3440   -3.7640 C   0  0  0  0  0  0  0  0  0  0  0  0
   29.6900   48.5160   -5.7770 C   0  0  0  0  0  0  0  0  0  0  0  0
   29.6220   50.3770   -4.4620 N   0  0  0  0  0  0  0  0  0  0  0  0
   29.4030   49.8700   -5.7210 C   0  0  0  0  0  0  0  0  0  0  0  0
   29.5780   47.7360   -6.8650 N   0  0  0  0  0  0  0  0  0  0  0  0
   28.9570   50.4700   -6.9110 C   0  0  0  0  0  0  0  0  0  0  0  0
   29.1450   48.3990   -7.9460 C   0  0  0  0  0  0  0  0  0  0  0  0
   28.6340   51.8170   -7.0100 N   0  0  0  0  0  0  0  0  0  0  0  0
   28.9990   47.6650   -9.1070 N   0  0  0  0  0  0  0  0  0  0  0  0
   28.8370   49.7030   -8.0150 N   0  0  0  0  0  0  0  0  0  0  0  0
  1  2  1  0
  1  3  2  0
  1  4  1  0
  4  5  1  0
  4  6  1  0
  5  7  2  0
  6  8  2  0
  7  8  1  0
  6  9  1  0
  8 10  1  0
  9 11  2  0
 10 12  1  0
 11 13  1  0
 10 14  2  0
 11 14  1  0
M  END
