mac-x0437-mac-x0379
     RDKit          3D

 24 26  0  0  0  0  0  0  0  0999 V2000
   31.8350   44.6320   -7.0190 O   0  0  0  0  0  0  0  0  0  0  0  0
   33.0210   44.5070   -6.3950 C   0  0  0  0  0  0  0  0  0  0  0  0
   34.0640   44.6890   -7.0020 O   0  0  0  0  0  0  0  0  0  0  0  0
   32.8770   44.1480   -4.9420 C   0  0  0  0  0  0  0  0  0  0  0  0
   32.7100   45.4410   -4.1510 C   0  0  1  0  0  0  0  0  0  0  0  0
   31.5480   45.4320   -3.1410 C   0  0  0  0  0  0  0  0  0  0  0  0
   33.9640   46.0110   -3.6360 N   0  0  0  0  0  0  0  0  0  0  0  0
   31.0990   46.8130   -3.1120 N   0  0  0  0  0  0  0  0  0  0  0  0
   34.1660   47.3700   -3.5920 C   0  0  0  0  0  0  0  0  0  0  0  0
   35.1040   45.4060   -3.1410 C   0  0  0  0  0  0  0  0  0  0  0  0
   30.3520   47.3520   -4.0010 C   0  0  0  0  0  0  0  0  0  0  0  0
   35.3450   47.6810   -3.1110 N   0  0  0  0  0  0  0  0  0  0  0  0
   35.9410   46.4850   -2.8290 C   0  0  0  0  0  0  0  0  0  0  0  0
   35.5120   44.0800   -2.9300 C   0  0  0  0  0  0  0  0  0  0  0  0
   29.9020   46.5860   -5.0260 O   0  0  0  0  0  0  0  0  0  0  0  0
   37.2170   46.2530   -2.2970 C   0  0  0  0  0  0  0  0  0  0  0  0
   36.7920   43.8710   -2.3960 C   0  0  0  0  0  0  0  0  0  0  0  0
   29.9290   48.7170   -4.0770 C   0  0  0  0  0  0  0  0  0  0  0  0
   37.6320   44.9370   -2.0840 C   0  0  0  0  0  0  0  0  0  0  0  0
   29.8820   49.6540   -3.0720 C   0  0  0  0  0  0  0  0  0  0  0  0
   29.3980   49.4260   -5.5460 S   0  0  0  0  0  0  0  0  0  0  0  0
   29.1620   50.9170   -4.7230 C   0  0  0  0  0  0  0  0  0  0  0  0
   29.4460   50.9090   -3.4380 N   0  0  0  0  0  0  0  0  0  0  0  0
   28.6670   52.1110   -5.4600 C   0  0  0  0  0  0  0  0  0  0  0  0
  1  2  1  0
  2  3  2  0
  2  4  1  0
  5  4  1  1
  5  6  1  0
  5  7  1  0
  6  8  1  0
  7  9  1  0
  7 10  1  0
  8 11  2  3
  9 12  2  0
 10 13  2  0
 12 13  1  0
 10 14  1  0
 11 15  1  0
 13 16  1  0
 14 17  2  0
 11 18  1  0
 16 19  2  0
 17 19  1  0
 18 20  2  0
 18 21  1  0
 21 22  1  0
 20 23  1  0
 22 23  2  0
 22 24  1  0
M  END
