mac-x0333-mac-x0321
     RDKit          3D

 13 14  0  0  0  0  0  0  0  0999 V2000
   30.1830   48.3160   -4.1380 C   0  0  0  0  0  0  0  0  0  0  0  0
   30.3370   47.4960   -5.1930 O   0  0  0  0  0  0  0  0  0  0  0  0
   30.3060   47.9080   -2.9980 O   0  0  0  0  0  0  0  0  0  0  0  0
   29.8650   49.7130   -4.5290 C   0  0  0  0  0  0  0  0  0  0  0  0
   30.1980   50.8020   -3.7110 C   0  0  0  0  0  0  0  0  0  0  0  0
   29.2110   49.9260   -5.7620 C   0  0  0  0  0  0  0  0  0  0  0  0
   29.8650   52.0680   -4.1520 C   0  0  0  0  0  0  0  0  0  0  0  0
   28.8880   51.2240   -6.1780 C   0  0  0  0  0  0  0  0  0  0  0  0
   28.0930   51.4760   -7.6770 Cl  0  0  0  0  0  0  0  0  0  0  0  0
   29.2260   52.2820   -5.3520 C   0  0  0  0  0  0  0  0  0  0  0  0
   30.1120   53.2230   -3.4820 O   0  0  0  0  0  0  0  0  0  0  0  0
   28.9990   53.6050   -5.5780 O   0  0  0  0  0  0  0  0  0  0  0  0
   29.6170   54.1980   -4.4220 C   0  0  0  0  0  0  0  0  0  0  0  0
  1  2  1  0
  1  3  2  0
  1  4  1  0
  4  5  2  0
  4  6  1  0
  5  7  1  0
  6  8  2  0
  8  9  1  0
  7 10  2  0
  8 10  1  0
  7 11  1  0
 10 12  1  0
 11 13  1  0
 12 13  1  0
M  END
