mac-x0546-mac-x0179
     RDKit          3D

 27 30  0  0  0  0  0  0  0  0999 V2000
   31.0040   49.0570   -0.3240 C   0  0  0  0  0  0  0  0  0  0  0  0
   30.1640   47.9170   -0.1900 O   0  0  0  0  0  0  0  0  0  0  0  0
   29.9730   47.1430   -1.3080 C   0  0  0  0  0  0  0  0  0  0  0  0
   30.8910   46.8280   -2.2540 C   0  0  0  0  0  0  0  0  0  0  0  0
   28.6080   46.6370   -1.4210 C   0  0  0  0  0  0  0  0  0  0  0  0
   30.4840   45.9650   -3.4120 C   0  0  2  0  0  0  0  0  0  0  0  0
   28.2940   45.5710   -2.1790 C   0  0  0  0  0  0  0  0  0  0  0  0
   29.4590   44.9900   -2.8610 C   0  0  0  0  0  0  0  0  0  0  0  0
   31.4170   44.9170   -3.9450 C   0  0  0  0  0  0  0  0  0  0  0  0
   32.7060   45.2680   -4.6480 C   0  0  1  0  0  0  0  0  0  0  0  0
   29.6980   43.7260   -3.0250 N   0  0  0  0  0  0  0  0  0  0  0  0
   30.8990   43.7030   -3.6910 C   0  0  0  0  0  0  0  0  0  0  0  0
   32.4650   45.4110   -6.1490 C   0  0  0  0  0  0  0  0  0  0  0  0
   33.3970   46.5530   -4.1490 C   0  0  0  0  0  0  0  0  0  0  0  0
   31.4230   45.6980   -6.7160 O   0  0  0  0  0  0  0  0  0  0  0  0
   33.5760   45.1720   -6.8820 O   0  0  0  0  0  0  0  0  0  0  0  0
   34.1120   46.4160   -2.8840 N   0  0  0  0  0  0  0  0  0  0  0  0
   34.6690   45.2410   -2.4450 C   0  0  0  0  0  0  0  0  0  0  0  0
   34.6510   47.4800   -2.2060 C   0  0  0  0  0  0  0  0  0  0  0  0
   34.2920   44.0950   -2.6020 O   0  0  0  0  0  0  0  0  0  0  0  0
   34.2490   48.6280   -2.1240 O   0  0  0  0  0  0  0  0  0  0  0  0
   35.8730   45.6080   -1.7040 C   0  0  0  0  0  0  0  0  0  0  0  0
   35.8620   46.9820   -1.5560 C   0  0  0  0  0  0  0  0  0  0  0  0
   36.8940   44.8260   -1.1990 C   0  0  0  0  0  0  0  0  0  0  0  0
   36.8690   47.6560   -0.8950 C   0  0  0  0  0  0  0  0  0  0  0  0
   37.9270   45.4830   -0.5250 C   0  0  0  0  0  0  0  0  0  0  0  0
   37.9160   46.8860   -0.3730 C   0  0  0  0  0  0  0  0  0  0  0  0
  1  2  1  0
  2  3  1  0
  3  4  2  0
  3  5  1  0
  6  4  1  1
  5  7  2  0
  6  8  1  0
  7  8  1  0
  6  9  1  0
  9 10  1  0
  8 11  2  0
  9 12  2  0
 11 12  1  0
 10 13  1  0
 10 14  1  1
 13 15  2  0
 13 16  1  0
 14 17  1  0
 17 18  1  0
 17 19  1  0
 18 20  2  0
 19 21  2  0
 18 22  1  0
 19 23  1  0
 22 23  2  0
 22 24  1  0
 23 25  1  0
 24 26  2  0
 25 27  2  0
 26 27  1  0
M  END
