mac-x0396-mac-x0161
     RDKit          3D

 28 31  0  0  0  0  0  0  0  0999 V2000
   30.3540   52.6800   -7.7490 N   0  0  0  0  0  0  0  0  0  0  0  0
   29.6760   52.3070   -6.5060 C   0  0  2  0  0  0  0  0  0  0  0  0
   30.4910   51.2560   -6.0050 O   0  0  0  0  0  0  0  0  0  0  0  0
   28.2380   51.7240   -6.8430 C   0  0  0  0  0  0  0  0  0  0  0  0
   29.6670   53.4260   -5.4790 C   0  0  0  0  0  0  0  0  0  0  0  0
   27.3350   51.2250   -5.7910 N   0  0  0  0  0  0  0  0  0  0  0  0
   30.1770   53.2230   -4.1930 C   0  0  0  0  0  0  0  0  0  0  0  0
   29.1590   54.7040   -5.7450 C   0  0  0  0  0  0  0  0  0  0  0  0
   30.2090   54.1630   -3.2180 N   0  0  0  0  0  0  0  0  0  0  0  0
   29.1780   55.6910   -4.7640 C   0  0  0  0  0  0  0  0  0  0  0  0
   27.6160   49.8930   -5.2880 C   0  0  2  0  0  0  0  0  0  0  0  0
   29.7110   55.3760   -3.5260 C   0  0  0  0  0  0  0  0  0  0  0  0
   28.0710   50.0150   -3.9070 N   0  0  0  0  0  0  0  0  0  0  0  0
   28.6200   49.1290   -6.1920 C   0  0  1  0  0  0  0  0  0  0  0  0
   29.1420   49.1070   -3.5430 C   0  0  0  0  0  0  0  0  0  0  0  0
   28.8250   47.7580   -5.5400 C   0  0  1  0  0  0  0  0  0  0  0  0
   28.2620   48.7420   -7.5710 N   0  0  0  0  0  0  0  0  0  0  0  0
   28.9860   47.7800   -4.1020 N   0  0  0  0  0  0  0  0  0  0  0  0
   27.6190   47.0970   -5.9860 N   0  0  0  0  0  0  0  0  0  0  0  0
   27.5410   47.4770   -7.3980 C   0  0  0  0  0  0  0  0  0  0  0  0
   29.8550   46.7410   -3.5500 C   0  0  0  0  0  0  0  0  0  0  0  0
   31.3230   46.9300   -3.7350 C   0  0  0  0  0  0  0  0  0  0  0  0
   32.3110   47.5580   -3.0130 C   0  0  0  0  0  0  0  0  0  0  0  0
   31.8750   46.3800   -4.8560 O   0  0  0  0  0  0  0  0  0  0  0  0
   33.2380   46.6400   -4.8800 N   0  0  0  0  0  0  0  0  0  0  0  0
   33.4730   47.3430   -3.7700 C   0  0  0  0  0  0  0  0  0  0  0  0
   34.7100   47.7810   -3.4490 O   0  0  0  0  0  0  0  0  0  0  0  0
   34.9210   47.9870   -2.0570 C   0  0  0  0  0  0  0  0  0  0  0  0
  2  1  1  6
  2  3  1  0
  2  4  1  0
  2  5  1  0
  4  6  1  0
  5  7  2  0
  5  8  1  0
  7  9  1  0
  8 10  2  0
 11  6  1  6
  9 12  2  0
 10 12  1  0
 11 13  1  0
 11 14  1  0
 13 15  1  0
 14 16  1  0
 14 17  1  6
 15 18  1  0
 16 18  1  0
 16 19  1  1
 17 20  1  0
 19 20  1  0
 18 21  1  0
 21 22  1  0
 22 23  2  0
 22 24  1  0
 24 25  1  0
 23 26  1  0
 25 26  2  0
 26 27  1  0
 27 28  1  0
M  END
