mac-x0190-mac-x0255
     RDKit          3D

 26 29  0  0  0  0  0  0  0  0999 V2000
   28.4400   56.9250   -5.4940 O   0  0  0  0  0  0  0  0  0  0  0  0
   29.2940   56.3840   -4.4940 C   0  0  0  0  0  0  0  0  0  0  0  0
   29.2520   54.9080   -4.6290 C   0  0  0  0  0  0  0  0  0  0  0  0
   30.0620   54.0890   -3.8760 N   0  0  0  0  0  0  0  0  0  0  0  0
   28.4870   54.2000   -5.4350 N   0  0  0  0  0  0  0  0  0  0  0  0
   29.8000   52.7910   -4.2200 C   0  0  0  0  0  0  0  0  0  0  0  0
   28.8140   52.8850   -5.1940 C   0  0  0  0  0  0  0  0  0  0  0  0
   30.3250   51.5750   -3.7750 C   0  0  0  0  0  0  0  0  0  0  0  0
   28.3070   51.7140   -5.7720 C   0  0  0  0  0  0  0  0  0  0  0  0
   29.8130   50.4030   -4.3590 C   0  0  0  0  0  0  0  0  0  0  0  0
   28.8150   50.4780   -5.3440 C   0  0  0  0  0  0  0  0  0  0  0  0
   30.3390   49.0530   -3.9210 C   0  0  0  0  0  0  0  0  0  0  0  0
   29.7720   48.5840   -2.5770 C   0  0  0  0  0  0  0  0  0  0  0  0
   29.3370   47.1290   -2.5810 C   0  0  0  0  0  0  0  0  0  0  0  0
   30.0250   46.1050   -3.2810 C   0  0  0  0  0  0  0  0  0  0  0  0
   28.1910   46.7620   -1.8560 C   0  0  0  0  0  0  0  0  0  0  0  0
   29.5890   44.7740   -3.2590 C   0  0  0  0  0  0  0  0  0  0  0  0
   31.4530   46.2510   -4.2510 S   0  0  0  0  0  0  0  0  0  0  0  0
   27.7390   45.4480   -1.8190 C   0  0  0  0  0  0  0  0  0  0  0  0
   31.4920   44.5920   -4.6330 C   0  0  0  0  0  0  0  0  0  0  0  0
   30.4440   43.9220   -4.0400 C   0  0  0  0  0  0  0  0  0  0  0  0
   28.4300   44.4560   -2.5140 C   0  0  0  0  0  0  0  0  0  0  0  0
   32.5740   44.0340   -5.5120 C   0  0  0  0  0  0  0  0  0  0  0  0
   32.8280   44.8930   -6.7370 C   0  0  0  0  0  0  0  0  0  0  0  0
   31.9850   44.6020   -7.7630 O   0  0  0  0  0  0  0  0  0  0  0  0
   33.6810   45.7630   -6.8500 O   0  0  0  0  0  0  0  0  0  0  0  0
  1  2  1  0
  2  3  1  0
  3  4  1  0
  3  5  2  0
  4  6  1  0
  5  7  1  0
  6  7  2  0
  6  8  1  0
  7  9  1  0
  8 10  2  0
  9 11  2  0
 10 11  1  0
 10 12  1  0
 12 13  1  0
 13 14  1  0
 14 15  1  0
 14 16  2  0
 15 17  2  0
 15 18  1  0
 16 19  1  0
 18 20  1  0
 17 21  1  0
 20 21  2  0
 17 22  1  0
 19 22  2  0
 20 23  1  0
 23 24  1  0
 24 25  1  0
 24 26  2  0
M  END
