mac-x0455-mac-x0565
     RDKit          3D

 23 25  0  0  0  0  0  0  0  0999 V2000
   31.8590   47.9090   -5.9760 C   0  0  0  0  0  0  0  0  0  0  0  0
   31.4390   46.9470   -4.8580 C   0  0  1  0  0  0  0  0  0  0  0  0
   30.6890   45.8060   -5.5420 C   0  0  0  0  0  0  0  0  0  0  0  0
   32.7420   46.6000   -4.1230 C   0  0  0  0  0  0  0  0  0  0  0  0
   30.4740   47.8330   -4.1230 C   0  0  2  0  0  0  0  0  0  0  0  0
   29.6160   45.3410   -5.1890 O   0  0  0  0  0  0  0  0  0  0  0  0
   31.3200   45.3370   -6.6440 O   0  0  0  0  0  0  0  0  0  0  0  0
   33.5760   47.6820   -3.7700 C   0  0  0  0  0  0  0  0  0  0  0  0
   33.1610   45.3100   -3.7860 C   0  0  0  0  0  0  0  0  0  0  0  0
   30.2130   47.7900   -2.7310 O   0  0  0  0  0  0  0  0  0  0  0  0
   29.3340   48.2520   -4.8310 O   0  0  0  0  0  0  0  0  0  0  0  0
   34.7840   47.4840   -3.1130 C   0  0  0  0  0  0  0  0  0  0  0  0
   34.3770   45.1120   -3.1250 C   0  0  0  0  0  0  0  0  0  0  0  0
   29.5000   49.4030   -4.1500 C   0  0  0  0  0  0  0  0  0  0  0  0
   30.0210   49.1360   -2.8780 C   0  0  0  0  0  0  0  0  0  0  0  0
   35.1870   46.1970   -2.7910 C   0  0  0  0  0  0  0  0  0  0  0  0
   29.2300   50.6610   -4.5950 C   0  0  0  0  0  0  0  0  0  0  0  0
   30.2890   50.1430   -1.9880 C   0  0  0  0  0  0  0  0  0  0  0  0
   29.4990   51.7080   -3.7160 C   0  0  0  0  0  0  0  0  0  0  0  0
   30.0200   51.4510   -2.4180 C   0  0  0  0  0  0  0  0  0  0  0  0
   29.2480   53.1070   -4.1220 C   0  0  0  0  0  0  0  0  0  0  0  0
   28.7730   53.2030   -5.3770 O   0  0  0  0  0  0  0  0  0  0  0  0
   29.4420   54.0940   -3.4410 O   0  0  0  0  0  0  0  0  0  0  0  0
  2  1  1  6
  2  3  1  0
  2  4  1  0
  2  5  1  0
  3  6  2  0
  3  7  1  0
  4  8  2  0
  4  9  1  0
  5 10  1  1
  5 11  1  0
  8 12  1  0
  9 13  2  0
 11 14  1  0
 10 15  1  0
 14 15  2  0
 12 16  2  0
 13 16  1  0
 14 17  1  0
 15 18  1  0
 17 19  2  0
 18 20  2  0
 19 20  1  0
 19 21  1  0
 21 22  1  0
 21 23  2  0
M  END
