mac-x0375-mac-x0328
     RDKit          3D

 23 24  0  0  0  0  0  0  0  0999 V2000
   32.4240   43.6020   -6.3270 O   0  0  0  0  0  0  0  0  0  0  0  0
   33.2860   44.6510   -6.3190 C   0  0  0  0  0  0  0  0  0  0  0  0
   34.0650   44.8590   -7.2370 O   0  0  0  0  0  0  0  0  0  0  0  0
   33.1730   45.5200   -5.0620 C   0  0  2  0  0  0  0  0  0  0  0  0
   34.0820   45.0170   -4.0630 O   0  0  0  0  0  0  0  0  0  0  0  0
   31.7400   45.4340   -4.5240 C   0  0  0  0  0  0  0  0  0  0  0  0
   31.3290   46.6350   -3.6740 C   0  0  0  0  0  0  0  0  0  0  0  0
   34.9940   45.9270   -3.5870 C   0  0  0  0  0  0  0  0  0  0  0  0
   30.9700   47.7580   -4.4930 O   0  0  0  0  0  0  0  0  0  0  0  0
   36.2820   45.4430   -3.3610 C   0  0  0  0  0  0  0  0  0  0  0  0
   34.6980   47.2680   -3.3300 C   0  0  0  0  0  0  0  0  0  0  0  0
   29.7000   48.2160   -4.3810 C   0  0  0  0  0  0  0  0  0  0  0  0
   37.2770   46.2940   -2.8780 C   0  0  0  0  0  0  0  0  0  0  0  0
   35.6940   48.1190   -2.8470 C   0  0  0  0  0  0  0  0  0  0  0  0
   28.6940   47.5280   -4.3380 O   0  0  0  0  0  0  0  0  0  0  0  0
   36.9830   47.6340   -2.6210 C   0  0  0  0  0  0  0  0  0  0  0  0
   29.6940   49.7030   -4.3180 C   0  0  0  0  0  0  0  0  0  0  0  0
   29.3740   50.5020   -5.4270 C   0  0  0  0  0  0  0  0  0  0  0  0
   30.0200   50.3180   -3.0990 C   0  0  0  0  0  0  0  0  0  0  0  0
   29.3820   51.8930   -5.3140 C   0  0  0  0  0  0  0  0  0  0  0  0
   30.0270   51.7100   -2.9890 C   0  0  0  0  0  0  0  0  0  0  0  0
   29.7070   52.4870   -4.0980 C   0  0  0  0  0  0  0  0  0  0  0  0
   29.7010   53.8480   -4.0360 O   0  0  0  0  0  0  0  0  0  0  0  0
  1  2  1  0
  2  3  2  0
  2  4  1  0
  4  5  1  0
  4  6  1  1
  6  7  1  0
  5  8  1  0
  7  9  1  0
  8 10  2  0
  8 11  1  0
  9 12  1  0
 10 13  1  0
 11 14  2  0
 12 15  2  0
 13 16  2  0
 14 16  1  0
 12 17  1  0
 17 18  2  0
 17 19  1  0
 18 20  1  0
 19 21  2  0
 20 22  2  0
 21 22  1  0
 22 23  1  0
M  END
