mac-x0397-mac-x0223
     RDKit          3D

 26 28  0  0  0  0  0  0  0  0999 V2000
   29.0340   52.8880   -2.3590 Cl  0  0  0  0  0  0  0  0  0  0  0  0
   29.1390   51.5920   -3.4780 C   0  0  0  0  0  0  0  0  0  0  0  0
   29.0980   51.9810   -4.8370 C   0  0  0  0  0  0  0  0  0  0  0  0
   29.2540   50.2490   -3.0910 C   0  0  0  0  0  0  0  0  0  0  0  0
   29.2850   49.8460   -1.6300 C   0  0  0  0  0  0  0  0  0  0  0  0
   28.9810   53.2710   -5.3540 N   0  0  0  0  0  0  0  0  0  0  0  0
   29.1810   50.9760   -5.8000 C   0  0  0  0  0  0  0  0  0  0  0  0
   29.3350   49.2760   -4.0940 C   0  0  0  0  0  0  0  0  0  0  0  0
   28.0890   48.9720   -1.2260 C   0  0  0  0  0  0  0  0  0  0  0  0
   28.9730   53.2410   -6.6590 C   0  0  0  0  0  0  0  0  0  0  0  0
   29.1090   51.6880   -7.3670 S   0  0  0  0  0  0  0  0  0  0  0  0
   29.3020   49.6180   -5.4540 C   0  0  0  0  0  0  0  0  0  0  0  0
   28.8670   54.3520   -7.4090 N   0  0  0  0  0  0  0  0  0  0  0  0
   28.4850   47.6250   -0.9640 O   0  0  0  0  0  0  0  0  0  0  0  0
   29.3600   47.0160   -1.8260 C   0  0  0  0  0  0  0  0  0  0  0  0
   28.9220   45.8060   -2.4090 C   0  0  0  0  0  0  0  0  0  0  0  0
   30.6210   47.5140   -2.1480 C   0  0  0  0  0  0  0  0  0  0  0  0
   27.6730   45.3700   -2.0460 O   0  0  0  0  0  0  0  0  0  0  0  0
   31.4500   46.8360   -3.0390 C   0  0  0  0  0  0  0  0  0  0  0  0
   29.7630   45.1330   -3.3050 C   0  0  0  0  0  0  0  0  0  0  0  0
   27.4270   43.9710   -2.0910 C   0  0  0  0  0  0  0  0  0  0  0  0
   31.0310   45.6420   -3.6270 C   0  0  0  0  0  0  0  0  0  0  0  0
   31.9360   44.9160   -4.5950 C   0  0  0  0  0  0  0  0  0  0  0  0
   32.3870   45.7580   -5.7650 C   0  0  0  0  0  0  0  0  0  0  0  0
   33.3930   46.4400   -5.8640 O   0  0  0  0  0  0  0  0  0  0  0  0
   31.5140   45.6950   -6.7940 O   0  0  0  0  0  0  0  0  0  0  0  0
  1  2  1  0
  2  3  2  0
  2  4  1  0
  4  5  1  0
  3  6  1  0
  3  7  1  0
  4  8  2  0
  5  9  1  0
  6 10  2  0
  7 11  1  0
 10 11  1  0
  7 12  2  0
  8 12  1  0
 10 13  1  0
  9 14  1  0
 14 15  1  0
 15 16  2  0
 15 17  1  0
 16 18  1  0
 17 19  2  0
 16 20  1  0
 18 21  1  0
 19 22  1  0
 20 22  2  0
 22 23  1  0
 23 24  1  0
 24 25  2  0
 24 26  1  0
M  END
