mac-x0139-mac-x0213
     RDKit          3D

 25 28  0  0  0  0  0  0  0  0999 V2000
   29.9020   47.5990   -4.5750 C   0  0  0  0  0  0  0  0  0  0  0  0
   29.4860   46.8450   -5.7550 N   0  0  0  0  0  0  0  0  0  0  0  0
   30.1850   45.5880   -5.9930 C   0  0  0  0  0  0  0  0  0  0  0  0
   29.1520   47.5740   -6.8690 C   0  0  0  0  0  0  0  0  0  0  0  0
   31.6580   45.7120   -5.6520 C   0  0  2  0  0  0  0  0  0  0  0  0
   29.1420   48.9150   -6.8320 C   0  0  0  0  0  0  0  0  0  0  0  0
   28.8360   46.8560   -8.0280 N   0  0  0  0  0  0  0  0  0  0  0  0
   32.5360   45.0130   -6.6740 C   0  0  0  0  0  0  0  0  0  0  0  0
   28.7770   49.6280   -8.0620 C   0  0  0  0  0  0  0  0  0  0  0  0
   28.5280   47.5270   -9.0830 C   0  0  0  0  0  0  0  0  0  0  0  0
   29.3950   49.9550   -5.8880 C   0  0  0  0  0  0  0  0  0  0  0  0
   31.9080   45.3090   -4.1840 C   0  0  0  0  0  0  0  0  0  0  0  0
   32.1100   44.4030   -7.6430 O   0  0  0  0  0  0  0  0  0  0  0  0
   33.8640   45.1070   -6.4870 O   0  0  0  0  0  0  0  0  0  0  0  0
   28.4830   48.8830   -9.1570 N   0  0  0  0  0  0  0  0  0  0  0  0
   28.7870   50.9190   -7.8940 N   0  0  0  0  0  0  0  0  0  0  0  0
   29.1680   51.0870   -6.5680 C   0  0  0  0  0  0  0  0  0  0  0  0
   31.8280   46.5230   -3.2060 C   0  0  0  0  0  0  0  0  0  0  0  0
   30.8540   44.2890   -3.6870 C   0  0  0  0  0  0  0  0  0  0  0  0
   30.4980   46.3490   -2.5250 C   0  0  0  0  0  0  0  0  0  0  0  0
   29.9500   45.0930   -2.8010 C   0  0  0  0  0  0  0  0  0  0  0  0
   29.8200   47.2490   -1.7100 C   0  0  0  0  0  0  0  0  0  0  0  0
   28.7260   44.7130   -2.2810 C   0  0  0  0  0  0  0  0  0  0  0  0
   28.5860   46.8710   -1.1780 C   0  0  0  0  0  0  0  0  0  0  0  0
   28.0400   45.6100   -1.4620 C   0  0  0  0  0  0  0  0  0  0  0  0
  1  2  1  0
  2  3  1  0
  2  4  1  0
  5  3  1  6
  4  6  2  0
  4  7  1  0
  5  8  1  0
  6  9  1  0
  7 10  2  0
  6 11  1  0
  5 12  1  0
  8 13  2  0
  8 14  1  0
  9 15  1  0
 10 15  1  0
  9 16  2  0
 11 17  2  0
 16 17  1  0
 12 18  1  0
 12 19  1  0
 18 20  1  0
 19 21  1  0
 20 21  2  0
 20 22  1  0
 21 23  1  0
 22 24  2  0
 23 25  2  0
 24 25  1  0
M  END
