mac-x0404-mac-x0360
     RDKit          3D

 28 30  0  0  0  0  0  0  0  0999 V2000
   31.7020   44.2900   -6.8450 O   0  0  0  0  0  0  0  0  0  0  0  0
   32.5080   44.9180   -5.9590 C   0  0  0  0  0  0  0  0  0  0  0  0
   33.6250   45.2700   -6.3010 O   0  0  0  0  0  0  0  0  0  0  0  0
   31.8500   45.0880   -4.5990 C   0  0  0  0  0  0  0  0  0  0  0  0
   30.6010   45.7840   -4.7230 O   0  0  0  0  0  0  0  0  0  0  0  0
   30.1960   46.3170   -3.5170 C   0  0  0  0  0  0  0  0  0  0  0  0
   29.7160   45.4530   -2.4900 C   0  0  0  0  0  0  0  0  0  0  0  0
   30.2640   47.7120   -3.3320 C   0  0  0  0  0  0  0  0  0  0  0  0
   30.7650   48.6440   -4.4110 C   0  0  0  0  0  0  0  0  0  0  0  0
   29.3070   46.0210   -1.2630 C   0  0  0  0  0  0  0  0  0  0  0  0
   29.8490   48.2380   -2.1010 C   0  0  0  0  0  0  0  0  0  0  0  0
   29.6270   44.0480   -2.6290 C   0  0  0  0  0  0  0  0  0  0  0  0
   30.4120   50.0570   -4.1970 N   0  0  0  0  0  0  0  0  0  0  0  0
   29.3780   47.4070   -1.0830 C   0  0  0  0  0  0  0  0  0  0  0  0
   28.8310   45.1970   -0.2300 C   0  0  0  0  0  0  0  0  0  0  0  0
   29.1520   43.2410   -1.5940 C   0  0  0  0  0  0  0  0  0  0  0  0
   30.0150   51.0340   -5.5030 S   0  0  0  0  0  0  0  0  0  0  0  0
   28.7540   43.8140   -0.3940 C   0  0  0  0  0  0  0  0  0  0  0  0
   28.9850   51.9590   -5.0890 O   0  0  0  0  0  0  0  0  0  0  0  0
   29.8240   50.1480   -6.6280 O   0  0  0  0  0  0  0  0  0  0  0  0
   31.5110   51.9370   -5.8040 C   0  0  0  0  0  0  0  0  0  0  0  0
   32.7450   51.3280   -5.5550 C   0  0  0  0  0  0  0  0  0  0  0  0
   31.4430   53.2470   -6.2900 C   0  0  0  0  0  0  0  0  0  0  0  0
   33.9160   52.0460   -5.7960 C   0  0  0  0  0  0  0  0  0  0  0  0
   32.6250   53.9460   -6.5240 C   0  0  0  0  0  0  0  0  0  0  0  0
   32.5540   55.5560   -7.1220 Cl  0  0  0  0  0  0  0  0  0  0  0  0
   35.4440   51.3170   -5.4950 Cl  0  0  0  0  0  0  0  0  0  0  0  0
   33.8630   53.3550   -6.2810 C   0  0  0  0  0  0  0  0  0  0  0  0
  1  2  1  0
  2  3  2  0
  2  4  1  0
  4  5  1  0
  5  6  1  0
  6  7  2  0
  6  8  1  0
  8  9  1  0
  7 10  1  0
  8 11  2  0
  7 12  1  0
  9 13  1  0
 10 14  2  0
 11 14  1  0
 10 15  1  0
 12 16  2  0
 17 13  1  0
 15 18  2  0
 16 18  1  0
 17 19  2  0
 17 20  2  0
 17 21  1  0
 21 22  2  0
 21 23  1  0
 22 24  1  0
 23 25  2  0
 25 26  1  0
 24 27  1  0
 24 28  2  0
 25 28  1  0
M  END
