mac-x0555-mac-x0139
     RDKit          3D

 26 29  0  0  0  0  0  0  0  0999 V2000
   30.4040   55.3980   -6.9130 N   0  0  0  0  0  0  0  0  0  0  0  0
   30.0360   54.4570   -5.9470 C   0  0  0  0  0  0  0  0  0  0  0  0
   30.0160   54.7530   -4.5850 C   0  0  0  0  0  0  0  0  0  0  0  0
   29.6630   53.1630   -6.3120 C   0  0  0  0  0  0  0  0  0  0  0  0
   29.2880   52.2200   -5.3420 C   0  0  0  0  0  0  0  0  0  0  0  0
   29.6640   53.8840   -3.6120 N   0  0  0  0  0  0  0  0  0  0  0  0
   29.3080   52.6430   -4.0090 C   0  0  0  0  0  0  0  0  0  0  0  0
   28.8600   50.7950   -5.6480 C   0  0  1  0  0  0  0  0  0  0  0  0
   28.9240   51.7260   -2.9320 C   0  0  0  0  0  0  0  0  0  0  0  0
   27.7710   50.3490   -4.6170 C   0  0  0  0  0  0  0  0  0  0  0  0
   28.3930   50.7180   -7.0510 N   0  0  0  0  0  0  0  0  0  0  0  0
   29.9720   49.6940   -5.5830 C   0  0  0  0  0  0  0  0  0  0  0  0
   28.1920   50.6360   -3.2070 C   0  0  0  0  0  0  0  0  0  0  0  0
   29.3310   48.6850   -6.4790 C   0  0  0  0  0  0  0  0  0  0  0  0
   28.4390   49.3310   -7.3130 C   0  0  0  0  0  0  0  0  0  0  0  0
   29.4660   47.3260   -6.6040 C   0  0  0  0  0  0  0  0  0  0  0  0
   27.7070   48.7280   -8.2420 N   0  0  0  0  0  0  0  0  0  0  0  0
   30.3530   46.6010   -5.7670 N   0  0  0  0  0  0  0  0  0  0  0  0
   27.9060   47.4070   -8.3030 C   0  0  0  0  0  0  0  0  0  0  0  0
   28.7410   46.6760   -7.5340 N   0  0  0  0  0  0  0  0  0  0  0  0
   30.2910   47.1220   -4.3900 C   0  0  0  0  0  0  0  0  0  0  0  0
   31.7360   46.5000   -6.2800 C   0  0  0  0  0  0  0  0  0  0  0  0
   32.3300   45.1270   -5.9790 C   0  0  0  0  0  0  0  0  0  0  0  0
   33.0970   44.6230   -7.1690 C   0  0  0  0  0  0  0  0  0  0  0  0
   32.6200   44.0210   -8.1170 O   0  0  0  0  0  0  0  0  0  0  0  0
   34.4190   44.9090   -7.0910 O   0  0  0  0  0  0  0  0  0  0  0  0
  1  2  1  0
  2  3  2  0
  2  4  1  0
  4  5  2  0
  3  6  1  0
  5  7  1  0
  6  7  2  0
  5  8  1  0
  7  9  1  0
  8 10  1  1
  8 11  1  0
  8 12  1  0
  9 13  2  0
 10 13  1  0
 12 14  1  0
 11 15  1  0
 14 15  2  0
 14 16  1  0
 15 17  1  0
 16 18  1  0
 17 19  2  0
 16 20  2  0
 19 20  1  0
 18 21  1  0
 18 22  1  0
 22 23  1  0
 23 24  1  0
 24 25  2  0
 24 26  1  0
M  END
