mac-x0415-mac-x0306
     RDKit          3D

 27 30  0  0  0  0  0  0  0  0999 V2000
   33.7520   46.5580   -5.9620 O   0  0  0  0  0  0  0  0  0  0  0  0
   32.6020   45.8660   -5.8520 C   0  0  0  0  0  0  0  0  0  0  0  0
   31.7510   45.9110   -6.7340 O   0  0  0  0  0  0  0  0  0  0  0  0
   32.4560   45.0540   -4.5750 C   0  0  0  0  0  0  0  0  0  0  0  0
   31.1080   45.0970   -3.9620 C   0  0  0  0  0  0  0  0  0  0  0  0
   30.0680   44.0730   -4.1750 C   0  0  0  0  0  0  0  0  0  0  0  0
   30.4780   45.9150   -3.1200 C   0  0  0  0  0  0  0  0  0  0  0  0
   28.9170   44.2030   -3.5750 N   0  0  0  0  0  0  0  0  0  0  0  0
   29.0680   45.4930   -2.8700 C   0  0  1  0  0  0  0  0  0  0  0  0
   30.9370   47.1030   -2.4490 C   0  0  0  0  0  0  0  0  0  0  0  0
   28.7260   45.5800   -1.4250 C   0  0  0  0  0  0  0  0  0  0  0  0
   30.3910   47.3740   -1.2390 C   0  0  0  0  0  0  0  0  0  0  0  0
   30.7850   48.4800   -0.5050 O   0  0  0  0  0  0  0  0  0  0  0  0
   29.3660   46.4910   -0.6610 C   0  0  0  0  0  0  0  0  0  0  0  0
   30.7010   49.7200   -1.2010 C   0  0  0  0  0  0  0  0  0  0  0  0
   29.3540   49.9080   -1.8860 C   0  0  0  0  0  0  0  0  0  0  0  0
   29.3620   50.4480   -3.2880 C   0  0  0  0  0  0  0  0  0  0  0  0
   29.3370   51.8100   -3.5460 C   0  0  0  0  0  0  0  0  0  0  0  0
   29.3880   49.5200   -4.2800 N   0  0  0  0  0  0  0  0  0  0  0  0
   29.3830   49.9780   -5.5530 C   0  0  0  0  0  0  0  0  0  0  0  0
   29.3320   52.2600   -4.8590 C   0  0  0  0  0  0  0  0  0  0  0  0
   29.3020   53.6860   -5.1750 C   0  0  0  0  0  0  0  0  0  0  0  0
   29.3550   51.3170   -5.8860 C   0  0  0  0  0  0  0  0  0  0  0  0
   28.8440   54.2220   -6.3550 N   0  0  0  0  0  0  0  0  0  0  0  0
   29.7070   54.6520   -4.3680 N   0  0  0  0  0  0  0  0  0  0  0  0
   29.5060   55.8240   -5.0440 C   0  0  0  0  0  0  0  0  0  0  0  0
   28.9710   55.5800   -6.2800 C   0  0  0  0  0  0  0  0  0  0  0  0
  1  2  1  0
  2  3  2  0
  2  4  1  0
  4  5  1  0
  5  6  1  0
  5  7  2  0
  6  8  2  0
  7  9  1  0
  8  9  1  0
  7 10  1  0
  9 11  1  1
 10 12  2  0
 12 13  1  0
 11 14  2  0
 12 14  1  0
 13 15  1  0
 15 16  1  0
 16 17  1  0
 17 18  2  0
 17 19  1  0
 19 20  2  0
 18 21  1  0
 21 22  1  0
 20 23  1  0
 21 23  2  0
 22 24  1  0
 22 25  2  0
 25 26  1  0
 24 27  1  0
 26 27  2  0
M  END
