mac-x0190-mac-x0137
     RDKit          3D

 28 33  0  0  0  0  0  0  0  0999 V2000
   29.4540   56.6210   -5.4030 O   0  0  0  0  0  0  0  0  0  0  0  0
   30.5470   55.7100   -5.2240 C   0  0  0  0  0  0  0  0  0  0  0  0
   29.9400   54.3750   -4.9930 C   0  0  0  0  0  0  0  0  0  0  0  0
   29.8960   53.8120   -3.7340 N   0  0  0  0  0  0  0  0  0  0  0  0
   29.3720   53.5900   -5.8910 N   0  0  0  0  0  0  0  0  0  0  0  0
   29.2400   52.6230   -3.8560 C   0  0  0  0  0  0  0  0  0  0  0  0
   28.9240   52.5030   -5.1730 C   0  0  0  0  0  0  0  0  0  0  0  0
   28.9290   51.7280   -2.8210 C   0  0  0  0  0  0  0  0  0  0  0  0
   28.1240   51.3460   -5.6420 C   0  0  2  0  0  0  0  0  0  0  0  0
   28.0740   50.7170   -3.1400 C   0  0  0  0  0  0  0  0  0  0  0  0
   27.4900   50.4890   -4.5440 C   0  0  1  0  0  0  0  0  0  0  0  0
   28.4030   50.1560   -6.6000 C   0  0  0  0  0  0  0  0  0  0  0  0
   26.9900   52.3380   -6.0380 C   0  0  0  0  0  0  0  0  0  0  0  0
   27.4090   50.0540   -7.5740 C   0  0  0  0  0  0  0  0  0  0  0  0
   29.3790   49.1260   -6.6990 C   0  0  0  0  0  0  0  0  0  0  0  0
   25.8880   51.4290   -6.2630 C   0  0  2  0  0  0  0  0  0  0  0  0
   25.9780   50.5800   -4.9330 C   0  0  0  0  0  0  0  0  0  0  0  0
   30.4720   48.8860   -5.8350 N   0  0  0  0  0  0  0  0  0  0  0  0
   29.3160   48.2100   -7.6960 N   0  0  0  0  0  0  0  0  0  0  0  0
   27.3480   49.1590   -8.5550 N   0  0  0  0  0  0  0  0  0  0  0  0
   26.3550   50.9190   -7.5430 N   0  0  0  0  0  0  0  0  0  0  0  0
   30.0490   48.8600   -4.4170 C   0  0  0  0  0  0  0  0  0  0  0  0
   31.0700   47.5830   -6.1680 C   0  0  0  0  0  0  0  0  0  0  0  0
   28.3230   48.2770   -8.5690 C   0  0  0  0  0  0  0  0  0  0  0  0
   31.2610   48.6990   -3.4880 C   0  0  2  0  0  0  0  0  0  0  0  0
   32.3590   47.4010   -5.3700 C   0  0  0  0  0  0  0  0  0  0  0  0
   32.0130   49.8310   -3.5890 F   0  0  0  0  0  0  0  0  0  0  0  0
   32.1610   47.5260   -3.8570 C   0  0  0  0  0  0  0  0  0  0  0  0
  1  2  1  0
  2  3  1  0
  3  4  1  0
  3  5  2  0
  4  6  1  0
  5  7  1  0
  6  7  2  0
  6  8  1  0
  9  7  1  1
  8 10  2  0
  9 11  1  0
 11 10  1  1
  9 12  1  0
  9 13  1  0
 12 14  2  0
 12 15  1  0
 13 16  1  0
 11 17  1  0
 16 17  1  1
 15 18  1  0
 15 19  2  0
 14 20  1  0
 14 21  1  0
 16 21  1  0
 18 22  1  0
 18 23  1  0
 19 24  1  0
 20 24  2  0
 22 25  1  0
 23 26  1  0
 25 27  1  6
 25 28  1  0
 26 28  1  0
M  END
