mac-x0142-mac-x0228
     RDKit          3D

 24 28  0  0  0  0  0  0  0  0999 V2000
   32.0240   50.0670   -5.4350 O   0  0  0  0  0  0  0  0  0  0  0  0
   31.2670   49.9220   -4.3290 C   0  0  0  0  0  0  0  0  0  0  0  0
   31.8100   49.8060   -3.2360 O   0  0  0  0  0  0  0  0  0  0  0  0
   29.7800   49.9220   -4.5560 C   0  0  2  0  0  0  0  0  0  0  0  0
   29.2550   48.9490   -5.5690 C   0  0  0  0  0  0  0  0  0  0  0  0
   29.2280   51.2690   -5.1020 C   0  0  1  0  0  0  0  0  0  0  0  0
   28.3360   49.5800   -6.3860 C   0  0  0  0  0  0  0  0  0  0  0  0
   29.5170   47.6130   -5.8070 C   0  0  0  0  0  0  0  0  0  0  0  0
   28.1440   50.9430   -6.0490 N   0  0  0  0  0  0  0  0  0  0  0  0
   28.7450   52.3150   -4.0600 C   0  0  0  0  0  0  0  0  0  0  0  0
   30.1850   52.1180   -5.8640 C   0  0  0  0  0  0  0  0  0  0  0  0
   30.4450   46.9010   -5.0100 N   0  0  0  0  0  0  0  0  0  0  0  0
   28.8780   46.9860   -6.8140 N   0  0  0  0  0  0  0  0  0  0  0  0
   27.6910   48.9930   -7.3860 N   0  0  0  0  0  0  0  0  0  0  0  0
   28.9990   53.6360   -4.6110 O   0  0  0  0  0  0  0  0  0  0  0  0
   29.9910   53.3940   -5.5370 C   0  0  0  0  0  0  0  0  0  0  0  0
   30.2730   47.0910   -3.5670 C   0  0  0  0  0  0  0  0  0  0  0  0
   30.4740   45.4730   -5.3850 C   0  0  0  0  0  0  0  0  0  0  0  0
   28.0030   47.7010   -7.5470 C   0  0  0  0  0  0  0  0  0  0  0  0
   31.6320   44.7730   -4.6790 C   0  0  0  0  0  0  0  0  0  0  0  0
   31.4780   46.4770   -2.8490 C   0  0  0  0  0  0  0  0  0  0  0  0
   32.0700   43.4240   -5.2110 C   0  0  0  0  0  0  0  0  0  0  0  0
   32.9480   44.6210   -5.4200 C   0  0  0  0  0  0  0  0  0  0  0  0
   31.6800   44.9980   -3.1870 C   0  0  0  0  0  0  0  0  0  0  0  0
  1  2  1  0
  2  3  2  0
  4  2  1  6
  4  5  1  0
  4  6  1  0
  5  7  2  0
  5  8  1  0
  6  9  1  0
  7  9  1  0
  6 10  1  1
  6 11  1  0
  8 12  1  0
  8 13  2  0
  7 14  1  0
 10 15  1  0
 11 16  2  0
 15 16  1  0
 12 17  1  0
 12 18  1  0
 13 19  1  0
 14 19  2  0
 20 18  1  0
 17 21  1  0
 20 22  1  0
 20 23  1  0
 22 23  1  0
 20 24  1  0
 21 24  1  0
M  END
