mac-x0139-mac-x0116
     RDKit          3D

 23 25  0  0  0  0  0  0  0  0999 V2000
   30.3160   47.7840   -4.7120 C   0  0  0  0  0  0  0  0  0  0  0  0
   29.8940   46.9280   -5.8300 N   0  0  0  0  0  0  0  0  0  0  0  0
   30.7410   45.7290   -6.0250 C   0  0  0  0  0  0  0  0  0  0  0  0
   29.1930   47.5070   -6.9120 C   0  0  0  0  0  0  0  0  0  0  0  0
   32.2210   46.0330   -5.8290 C   0  0  0  0  0  0  0  0  0  0  0  0
   28.9690   48.8440   -6.9750 C   0  0  0  0  0  0  0  0  0  0  0  0
   28.7260   46.6550   -7.9310 N   0  0  0  0  0  0  0  0  0  0  0  0
   33.0480   44.8580   -6.2580 C   0  0  0  0  0  0  0  0  0  0  0  0
   28.2270   49.3810   -8.1310 C   0  0  0  0  0  0  0  0  0  0  0  0
   28.0810   47.1810   -8.9270 C   0  0  0  0  0  0  0  0  0  0  0  0
   29.2460   50.0110   -6.2030 C   0  0  0  0  0  0  0  0  0  0  0  0
   32.6880   43.6930   -6.2990 O   0  0  0  0  0  0  0  0  0  0  0  0
   34.3000   45.1970   -6.6190 O   0  0  0  0  0  0  0  0  0  0  0  0
   27.8100   48.5050   -9.0770 N   0  0  0  0  0  0  0  0  0  0  0  0
   28.0780   50.6740   -8.0620 N   0  0  0  0  0  0  0  0  0  0  0  0
   28.7070   51.0540   -6.8740 C   0  0  0  0  0  0  0  0  0  0  0  0
   28.7820   52.3470   -6.4190 N   0  0  0  0  0  0  0  0  0  0  0  0
   29.8950   52.8470   -5.6300 C   0  0  0  0  0  0  0  0  0  0  0  0
   30.9630   53.4990   -6.4420 C   0  0  0  0  0  0  0  0  0  0  0  0
   32.2390   53.4450   -5.9450 O   0  0  0  0  0  0  0  0  0  0  0  0
   30.9550   54.1800   -7.6400 C   0  0  0  0  0  0  0  0  0  0  0  0
   32.2950   54.5660   -7.8950 C   0  0  0  0  0  0  0  0  0  0  0  0
   33.0350   54.0940   -6.8310 C   0  0  0  0  0  0  0  0  0  0  0  0
  1  2  1  0
  2  3  1  0
  2  4  1  0
  3  5  1  0
  4  6  2  0
  4  7  1  0
  5  8  1  0
  6  9  1  0
  7 10  2  0
  6 11  1  0
  8 12  2  0
  8 13  1  0
  9 14  1  0
 10 14  1  0
  9 15  2  0
 11 16  2  0
 15 16  1  0
 16 17  1  0
 17 18  1  0
 18 19  1  0
 19 20  1  0
 19 21  2  0
 21 22  1  0
 20 23  1  0
 22 23  2  0
M  END
