mac-x0587-mac-x0365
     RDKit          3D

 17 17  0  0  0  0  0  0  0  0999 V2000
   29.4180   45.7550   -3.5590 C   0  0  0  0  0  0  0  0  0  0  0  0
   30.4940   46.7050   -4.0990 C   0  0  2  0  0  0  0  0  0  0  0  0
   32.1630   46.0470   -3.6360 S   0  0  0  0  0  0  0  0  0  0  0  0
   30.3320   48.1230   -3.4830 C   0  0  0  0  0  0  0  0  0  0  0  0
   33.2110   46.7170   -4.9700 C   0  0  0  0  0  0  0  0  0  0  0  0
   30.6010   48.3000   -2.2950 O   0  0  0  0  0  0  0  0  0  0  0  0
   29.8880   49.1640   -4.2970 N   0  0  0  0  0  0  0  0  0  0  0  0
   33.2560   45.8600   -6.2240 C   0  0  0  0  0  0  0  0  0  0  0  0
   29.2360   50.3720   -3.8170 C   0  0  1  0  0  0  0  0  0  0  0  0
   29.5220   49.0190   -5.6440 C   0  0  0  0  0  0  0  0  0  0  0  0
   34.2640   45.5660   -6.8470 O   0  0  0  0  0  0  0  0  0  0  0  0
   32.0350   45.4240   -6.6200 O   0  0  0  0  0  0  0  0  0  0  0  0
   29.4010   48.0100   -6.3240 O   0  0  0  0  0  0  0  0  0  0  0  0
   30.0750   51.1790   -3.0880 F   0  0  0  0  0  0  0  0  0  0  0  0
   28.7970   51.1220   -5.0830 C   0  0  2  0  0  0  0  0  0  0  0  0
   29.2870   50.3010   -6.1460 N   0  0  0  0  0  0  0  0  0  0  0  0
   29.3670   52.4310   -5.1890 O   0  0  0  0  0  0  0  0  0  0  0  0
  2  1  1  1
  2  3  1  0
  2  4  1  0
  3  5  1  0
  4  6  2  0
  4  7  1  0
  5  8  1  0
  7  9  1  0
  7 10  1  0
  8 11  2  0
  8 12  1  0
 10 13  2  0
  9 14  1  6
  9 15  1  0
 10 16  1  0
 15 16  1  0
 15 17  1  1
M  END
