mac-x0193-mac-x0398
     RDKit          3D

 28 29  0  0  0  0  0  0  0  0999 V2000
   34.2990   45.6430   -6.3140 O   0  0  0  0  0  0  0  0  0  0  0  0
   33.0900   45.2910   -5.8380 C   0  0  0  0  0  0  0  0  0  0  0  0
   31.9790   45.5980   -6.3990 N   0  0  0  0  0  0  0  0  0  0  0  0
   33.1710   44.4870   -4.5460 C   0  0  0  0  0  0  0  0  0  0  0  0
   34.4380   44.6100   -3.8440 N   0  0  0  0  0  0  0  0  0  0  0  0
   30.6690   45.2220   -5.8800 C   0  0  0  0  0  0  0  0  0  0  0  0
   34.9340   43.6870   -2.9740 C   0  0  0  0  0  0  0  0  0  0  0  0
   30.3350   46.0510   -4.6380 C   0  0  0  0  0  0  0  0  0  0  0  0
   34.3190   42.6440   -2.7780 O   0  0  0  0  0  0  0  0  0  0  0  0
   36.1090   44.0120   -2.3750 N   0  0  0  0  0  0  0  0  0  0  0  0
   30.6800   47.5300   -4.7920 C   0  0  0  0  0  0  0  0  0  0  0  0
   29.6180   48.3160   -4.2240 O   0  0  0  0  0  0  0  0  0  0  0  0
   36.9210   43.0010   -1.7130 C   0  0  0  0  0  0  0  0  0  0  0  0
   29.9760   49.4430   -3.5520 C   0  0  0  0  0  0  0  0  0  0  0  0
   38.0170   42.5070   -2.6700 C   0  0  0  0  0  0  0  0  0  0  0  0
   37.4860   43.5320   -0.3820 C   0  0  0  0  0  0  0  0  0  0  0  0
   30.4960   49.4920   -2.4470 O   0  0  0  0  0  0  0  0  0  0  0  0
   38.9240   41.4820   -2.0030 C   0  0  0  0  0  0  0  0  0  0  0  0
   38.3960   42.5090    0.2860 C   0  0  0  0  0  0  0  0  0  0  0  0
   29.6450   50.6590   -4.3360 C   0  0  0  0  0  0  0  0  0  0  0  0
   39.4740   41.9970   -0.6710 C   0  0  0  0  0  0  0  0  0  0  0  0
   29.6400   51.9390   -3.7830 C   0  0  0  0  0  0  0  0  0  0  0  0
   29.3230   50.4960   -5.6920 C   0  0  0  0  0  0  0  0  0  0  0  0
   29.9490   52.1250   -2.4630 O   0  0  0  0  0  0  0  0  0  0  0  0
   29.3160   53.0510   -4.5700 C   0  0  0  0  0  0  0  0  0  0  0  0
   29.0010   51.6120   -6.4750 C   0  0  0  0  0  0  0  0  0  0  0  0
   28.9950   52.8940   -5.9230 C   0  0  0  0  0  0  0  0  0  0  0  0
   28.6750   54.0100   -6.7080 N   0  0  0  0  0  0  0  0  0  0  0  0
  1  2  1  0
  2  3  2  3
  2  4  1  0
  4  5  1  0
  3  6  1  0
  5  7  1  0
  6  8  1  0
  7  9  2  0
  7 10  1  0
  8 11  1  0
 11 12  1  0
 10 13  1  0
 12 14  1  0
 13 15  1  0
 13 16  1  0
 14 17  2  0
 15 18  1  0
 16 19  1  0
 14 20  1  0
 18 21  1  0
 19 21  1  0
 20 22  2  0
 20 23  1  0
 22 24  1  0
 22 25  1  0
 23 26  2  0
 25 27  2  0
 26 27  1  0
 27 28  1  0
M  END
