mac-x0193-mac-x1493
     RDKit          3D

 29 31  0  0  0  0  0  0  0  0999 V2000
   34.1870   45.3880   -6.4830 O   0  0  0  0  0  0  0  0  0  0  0  0
   33.0680   45.3060   -5.7360 C   0  0  0  0  0  0  0  0  0  0  0  0
   31.9450   45.8150   -6.1220 N   0  0  0  0  0  0  0  0  0  0  0  0
   33.2260   44.5720   -4.4080 C   0  0  0  0  0  0  0  0  0  0  0  0
   34.6210   44.5460   -3.9920 N   0  0  0  0  0  0  0  0  0  0  0  0
   30.8120   45.6680   -5.1860 C   0  0  0  0  0  0  0  0  0  0  0  0
   35.0430   43.7050   -2.9910 C   0  0  0  0  0  0  0  0  0  0  0  0
   29.6640   46.6210   -5.5630 C   0  0  0  0  0  0  0  0  0  0  0  0
   34.5350   42.6080   -2.7910 O   0  0  0  0  0  0  0  0  0  0  0  0
   36.0700   44.2640   -2.2750 N   0  0  0  0  0  0  0  0  0  0  0  0
   30.0980   47.9990   -5.5040 O   0  0  0  0  0  0  0  0  0  0  0  0
   30.0050   48.6040   -4.2910 C   0  0  0  0  0  0  0  0  0  0  0  0
   37.2620   43.5420   -1.8230 C   0  0  0  0  0  0  0  0  0  0  0  0
   30.0700   48.0480   -3.2060 O   0  0  0  0  0  0  0  0  0  0  0  0
   37.5590   42.2830   -2.6370 C   0  0  0  0  0  0  0  0  0  0  0  0
   37.1690   43.2460   -0.3170 C   0  0  0  0  0  0  0  0  0  0  0  0
   29.8120   50.0720   -4.4440 C   0  0  0  0  0  0  0  0  0  0  0  0
   38.7530   41.4990   -2.0720 C   0  0  0  0  0  0  0  0  0  0  0  0
   38.3560   42.4570    0.2390 C   0  0  0  0  0  0  0  0  0  0  0  0
   29.2270   50.6760   -5.5560 C   0  0  0  0  0  0  0  0  0  0  0  0
   30.2450   50.9070   -3.4180 C   0  0  0  0  0  0  0  0  0  0  0  0
   39.3880   42.1300   -0.8290 C   0  0  0  0  0  0  0  0  0  0  0  0
   29.0960   52.0760   -5.6100 C   0  0  0  0  0  0  0  0  0  0  0  0
   30.1340   52.2610   -3.4380 N   0  0  0  0  0  0  0  0  0  0  0  0
   29.5700   52.8340   -4.5160 C   0  0  0  0  0  0  0  0  0  0  0  0
   28.5140   52.7190   -6.7170 C   0  0  0  0  0  0  0  0  0  0  0  0
   29.4430   54.2180   -4.5720 C   0  0  0  0  0  0  0  0  0  0  0  0
   28.4000   54.1070   -6.7450 C   0  0  0  0  0  0  0  0  0  0  0  0
   28.8650   54.8580   -5.6730 C   0  0  0  0  0  0  0  0  0  0  0  0
  1  2  1  0
  2  3  2  3
  2  4  1  0
  4  5  1  0
  3  6  1  0
  5  7  1  0
  6  8  1  0
  7  9  2  0
  7 10  1  0
  8 11  1  0
 11 12  1  0
 10 13  1  0
 12 14  2  0
 13 15  1  0
 13 16  1  0
 12 17  1  0
 15 18  1  0
 16 19  1  0
 17 20  2  0
 17 21  1  0
 18 22  1  0
 19 22  1  0
 20 23  1  0
 21 24  2  0
 23 25  2  0
 24 25  1  0
 23 26  1  0
 25 27  1  0
 26 28  2  0
 27 29  2  0
 28 29  1  0
M  END
