mac-x0358-mac-x0437
     RDKit          3D

 21 23  0  0  0  0  0  0  0  0999 V2000
   30.3410   45.2060   -5.6100 O   0  0  0  0  0  0  0  0  0  0  0  0
   31.6410   45.4770   -5.8500 C   0  0  0  0  0  0  0  0  0  0  0  0
   31.9960   45.9230   -6.9350 O   0  0  0  0  0  0  0  0  0  0  0  0
   32.6240   45.1960   -4.7190 C   0  0  1  0  0  0  0  0  0  0  0  0
   34.0380   45.0880   -5.3190 C   0  0  0  0  0  0  0  0  0  0  0  0
   32.4960   46.0520   -3.4580 C   0  0  0  0  0  0  0  0  0  0  0  0
   32.5120   47.4610   -3.4330 C   0  0  0  0  0  0  0  0  0  0  0  0
   32.3510   45.3910   -2.2230 C   0  0  0  0  0  0  0  0  0  0  0  0
   35.0730   45.6990   -4.5020 N   0  0  0  0  0  0  0  0  0  0  0  0
   32.6490   48.1520   -4.6080 O   0  0  0  0  0  0  0  0  0  0  0  0
   32.3930   48.1740   -2.2360 C   0  0  0  0  0  0  0  0  0  0  0  0
   32.2310   46.1000   -1.0260 C   0  0  0  0  0  0  0  0  0  0  0  0
   35.8900   46.7180   -4.9120 C   0  0  0  0  0  0  0  0  0  0  0  0
   35.4140   45.3770   -3.2090 C   0  0  0  0  0  0  0  0  0  0  0  0
   32.2530   47.4880   -1.0330 C   0  0  0  0  0  0  0  0  0  0  0  0
   36.7370   47.0770   -3.9740 N   0  0  0  0  0  0  0  0  0  0  0  0
   36.4560   46.2570   -2.9120 C   0  0  0  0  0  0  0  0  0  0  0  0
   34.9380   44.4370   -2.2880 C   0  0  0  0  0  0  0  0  0  0  0  0
   37.0570   46.2060   -1.6480 C   0  0  0  0  0  0  0  0  0  0  0  0
   35.5520   44.4040   -1.0330 C   0  0  0  0  0  0  0  0  0  0  0  0
   36.5950   45.2730   -0.7170 C   0  0  0  0  0  0  0  0  0  0  0  0
  1  2  1  0
  2  3  2  0
  2  4  1  0
  4  5  1  6
  4  6  1  0
  6  7  2  0
  6  8  1  0
  5  9  1  0
  7 10  1  0
  7 11  1  0
  8 12  2  0
  9 13  1  0
  9 14  1  0
 11 15  2  0
 12 15  1  0
 13 16  2  0
 14 17  2  0
 16 17  1  0
 14 18  1  0
 17 19  1  0
 18 20  2  0
 19 21  2  0
 20 21  1  0
M  END
