mac-x0392-mac-x0510
     RDKit          3D

 15 16  0  0  0  0  0  0  0  0999 V2000
   30.2160   47.2130   -7.6050 N   0  0  0  0  0  0  0  0  0  0  0  0
   29.5080   47.7370   -6.4180 C   0  0  2  0  0  0  0  0  0  0  0  0
   28.2870   48.5460   -6.8550 C   0  0  2  0  0  0  0  0  0  0  0  0
   30.3840   48.5520   -5.4410 C   0  0  2  0  0  0  0  0  0  0  0  0
   30.7840   47.6530   -4.2820 C   0  0  0  0  0  0  0  0  0  0  0  0
   29.7170   49.8340   -4.8500 C   0  0  0  0  0  0  0  0  0  0  0  0
   27.3140   47.8810   -7.8070 C   0  0  0  0  0  0  0  0  0  0  0  0
   28.7170   49.7260   -7.6080 N   0  0  0  0  0  0  0  0  0  0  0  0
   31.1450   48.0350   -3.1810 O   0  0  0  0  0  0  0  0  0  0  0  0
   30.7020   46.3330   -4.5850 O   0  0  0  0  0  0  0  0  0  0  0  0
   29.4640   51.0500   -5.7660 C   0  0  0  0  0  0  0  0  0  0  0  0
   28.6270   50.8800   -6.8580 N   0  0  0  0  0  0  0  0  0  0  0  0
   27.8150   48.2640   -9.1290 N   0  0  0  0  0  0  0  0  0  0  0  0
   28.1320   49.6730   -8.9330 C   0  0  0  0  0  0  0  0  0  0  0  0
   29.9700   52.1480   -5.5450 O   0  0  0  0  0  0  0  0  0  0  0  0
  2  1  1  6
  2  3  1  0
  2  4  1  0
  4  5  1  1
  4  6  1  0
  3  7  1  6
  3  8  1  0
  5  9  2  0
  5 10  1  0
  6 11  1  0
  8 12  1  0
 11 12  1  0
  7 13  1  0
  8 14  1  0
 13 14  1  0
 11 15  2  0
M  END
