mac-x0417-mac-x0178
     RDKit          3D

 24 26  0  0  0  0  0  0  0  0999 V2000
   31.9300   45.9320   -5.8370 C   0  0  0  0  0  0  0  0  0  0  0  0
   33.2940   45.3770   -5.5600 C   0  0  0  0  0  0  0  0  0  0  0  0
   34.2320   45.5210   -6.3350 O   0  0  0  0  0  0  0  0  0  0  0  0
   31.5550   46.1880   -6.9750 O   0  0  0  0  0  0  0  0  0  0  0  0
   31.1150   46.1000   -4.6190 C   0  0  0  0  0  0  0  0  0  0  0  0
   33.3100   44.6550   -4.2400 C   0  0  0  0  0  0  0  0  0  0  0  0
   29.8810   45.4740   -4.4310 C   0  0  0  0  0  0  0  0  0  0  0  0
   31.6420   46.9220   -3.6050 C   0  0  0  0  0  0  0  0  0  0  0  0
   34.5660   44.7120   -3.4700 C   0  0  0  0  0  0  0  0  0  0  0  0
   29.1810   45.6570   -3.2370 C   0  0  0  0  0  0  0  0  0  0  0  0
   30.9490   47.1080   -2.4120 C   0  0  0  0  0  0  0  0  0  0  0  0
   35.0060   43.5590   -2.9530 N   0  0  0  0  0  0  0  0  0  0  0  0
   35.4400   45.7930   -3.1500 C   0  0  0  0  0  0  0  0  0  0  0  0
   29.7240   46.4700   -2.2350 C   0  0  0  0  0  0  0  0  0  0  0  0
   28.8450   46.6930   -0.7130 S   0  0  0  0  0  0  0  0  0  0  0  0
   36.1740   43.8590   -2.2900 O   0  0  0  0  0  0  0  0  0  0  0  0
   36.4370   45.1870   -2.4060 C   0  0  0  0  0  0  0  0  0  0  0  0
   35.5320   47.1780   -3.3800 C   0  0  0  0  0  0  0  0  0  0  0  0
   28.4520   45.1100   -0.3030 N   0  0  0  0  0  0  0  0  0  0  0  0
   29.7820   47.1320    0.2960 O   0  0  0  0  0  0  0  0  0  0  0  0
   27.6250   47.4050   -1.0060 O   0  0  0  0  0  0  0  0  0  0  0  0
   37.5350   45.8420   -1.8640 C   0  0  0  0  0  0  0  0  0  0  0  0
   36.6300   47.8770   -2.8480 C   0  0  0  0  0  0  0  0  0  0  0  0
   37.6130   47.2150   -2.1030 C   0  0  0  0  0  0  0  0  0  0  0  0
  1  2  1  0
  2  3  2  0
  1  4  2  0
  1  5  1  0
  2  6  1  0
  5  7  2  0
  5  8  1  0
  6  9  1  0
  7 10  1  0
  8 11  2  0
  9 12  2  0
  9 13  1  0
 10 14  2  0
 11 14  1  0
 14 15  1  0
 12 16  1  0
 13 17  2  0
 16 17  1  0
 13 18  1  0
 15 19  1  0
 15 20  2  0
 15 21  2  0
 17 22  1  0
 18 23  2  0
 22 24  2  0
 23 24  1  0
M  END
