mac-x0373-mac-x0226
     RDKit          3D

 29 32  0  0  0  0  0  0  0  0999 V2000
   32.0680   46.8310   -6.4170 O   0  0  0  0  0  0  0  0  0  0  0  0
   30.8890   46.6310   -5.7720 C   0  0  0  0  0  0  0  0  0  0  0  0
   29.9910   45.8550   -6.0870 O   0  0  0  0  0  0  0  0  0  0  0  0
   32.9270   45.7970   -6.6150 C   0  0  0  0  0  0  0  0  0  0  0  0
   30.8050   47.5430   -4.5360 C   0  0  0  0  0  0  0  0  0  0  0  0
   33.3330   45.3770   -7.6880 O   0  0  0  0  0  0  0  0  0  0  0  0
   33.3610   45.1960   -5.3630 C   0  0  0  0  0  0  0  0  0  0  0  0
   32.1760   47.8220   -3.9080 C   0  0  0  0  0  0  0  0  0  0  0  0
   29.9830   48.8110   -4.7640 C   0  0  0  0  0  0  0  0  0  0  0  0
   32.7330   44.1730   -4.6300 C   0  0  0  0  0  0  0  0  0  0  0  0
   34.4870   45.4900   -4.6110 C   0  0  0  0  0  0  0  0  0  0  0  0
   32.6360   47.0040   -2.8600 C   0  0  0  0  0  0  0  0  0  0  0  0
   32.9980   48.8740   -4.3470 C   0  0  0  0  0  0  0  0  0  0  0  0
   29.7180   49.6530   -3.6690 C   0  0  0  0  0  0  0  0  0  0  0  0
   29.4780   49.1760   -6.0230 C   0  0  0  0  0  0  0  0  0  0  0  0
   33.3960   43.8440   -3.5190 N   0  0  0  0  0  0  0  0  0  0  0  0
   34.4830   44.6610   -3.5080 N   0  0  0  0  0  0  0  0  0  0  0  0
   33.8810   47.2360   -2.2720 C   0  0  0  0  0  0  0  0  0  0  0  0
   34.2430   49.1020   -3.7550 C   0  0  0  0  0  0  0  0  0  0  0  0
   28.9740   50.8220   -3.8280 C   0  0  0  0  0  0  0  0  0  0  0  0
   28.7330   50.3470   -6.1790 C   0  0  0  0  0  0  0  0  0  0  0  0
   35.4390   44.6000   -2.4550 C   0  0  0  0  0  0  0  0  0  0  0  0
   34.6830   48.2820   -2.7190 C   0  0  0  0  0  0  0  0  0  0  0  0
   28.4820   51.1690   -5.0820 C   0  0  0  0  0  0  0  0  0  0  0  0
   36.3590   45.6360   -2.2470 C   0  0  0  0  0  0  0  0  0  0  0  0
   35.4600   43.4810   -1.6080 C   0  0  0  0  0  0  0  0  0  0  0  0
   37.2880   45.5500   -1.2050 C   0  0  0  0  0  0  0  0  0  0  0  0
   36.3900   43.4020   -0.5690 C   0  0  0  0  0  0  0  0  0  0  0  0
   37.3030   44.4350   -0.3680 C   0  0  0  0  0  0  0  0  0  0  0  0
  1  2  1  0
  2  3  2  0
  1  4  1  0
  2  5  1  0
  4  6  2  0
  4  7  1  0
  5  8  1  0
  5  9  1  0
  7 10  1  0
  7 11  2  0
  8 12  2  0
  8 13  1  0
  9 14  2  0
  9 15  1  0
 10 16  2  0
 11 17  1  0
 16 17  1  0
 12 18  1  0
 13 19  2  0
 14 20  1  0
 15 21  2  0
 17 22  1  0
 18 23  2  0
 19 23  1  0
 20 24  2  0
 21 24  1  0
 22 25  2  0
 22 26  1  0
 25 27  1  0
 26 28  2  0
 27 29  2  0
 28 29  1  0
M  END
