mac-x0277-mac-x0439
     RDKit          3D

 18 19  0  0  0  0  0  0  0  0999 V2000
   27.3960   46.6710   -1.6960 Cl  0  0  0  0  0  0  0  0  0  0  0  0
   28.8190   45.5910   -2.0170 C   0  0  2  0  0  0  0  0  0  0  0  0
   30.1770   46.2910   -1.7480 C   0  0  2  0  0  0  0  0  0  0  0  0
   28.5860   44.9230   -3.3940 C   0  0  0  0  0  0  0  0  0  0  0  0
   30.0190   47.9140   -0.9800 Cl  0  0  0  0  0  0  0  0  0  0  0  0
   31.1330   46.3960   -2.9040 C   0  0  0  0  0  0  0  0  0  0  0  0
   28.1890   45.7070   -4.6680 C   0  0  2  0  0  0  0  0  0  0  0  0
   31.8220   45.3790   -3.4610 C   0  0  0  0  0  0  0  0  0  0  0  0
   28.9050   45.4140   -6.0140 C   0  0  2  0  0  0  0  0  0  0  0  0
   28.4130   47.2130   -4.4800 C   0  0  0  0  0  0  0  0  0  0  0  0
   32.7840   45.4470   -4.6270 C   0  0  0  0  0  0  0  0  0  0  0  0
   30.2620   44.6820   -5.8730 C   0  0  2  0  0  0  0  0  0  0  0  0
   28.2810   47.7440   -5.8340 N   0  0  0  0  0  0  0  0  0  0  0  0
   29.0740   46.8120   -6.6490 C   0  0  0  0  0  0  0  0  0  0  0  0
   32.2270   46.0990   -5.9180 C   0  0  2  0  0  0  0  0  0  0  0  0
   31.2670   45.3330   -6.6410 O   0  0  0  0  0  0  0  0  0  0  0  0
   30.1390   43.3340   -6.2950 O   0  0  0  0  0  0  0  0  0  0  0  0
   33.3110   46.4170   -6.7850 O   0  0  0  0  0  0  0  0  0  0  0  0
  2  1  1  6
  2  3  1  0
  2  4  1  0
  3  5  1  6
  3  6  1  0
  7  4  1  1
  6  8  2  0
  7  9  1  0
  7 10  1  0
  8 11  1  0
  9 12  1  0
 10 13  1  0
  9 14  1  1
 13 14  1  0
 11 15  1  0
 12 16  1  0
 15 16  1  0
 12 17  1  6
 15 18  1  6
M  END
