mac-x0354-mac-x0138
     RDKit          3D

 29 32  0  0  0  0  0  0  0  0999 V2000
   35.8580   43.3740   -1.7750 C   0  0  0  0  0  0  0  0  0  0  0  0
   34.9650   43.6050   -2.8870 N   0  0  0  0  0  0  0  0  0  0  0  0
   34.0690   42.6540   -3.2060 N   0  0  0  0  0  0  0  0  0  0  0  0
   34.9170   44.7220   -3.6880 C   0  0  0  0  0  0  0  0  0  0  0  0
   33.4250   43.1830   -4.2410 C   0  0  0  0  0  0  0  0  0  0  0  0
   33.8970   44.4660   -4.5930 C   0  0  0  0  0  0  0  0  0  0  0  0
   35.8000   45.8680   -3.5160 C   0  0  0  0  0  0  0  0  0  0  0  0
   33.3630   45.2640   -5.6510 C   0  0  0  0  0  0  0  0  0  0  0  0
   37.1850   45.6840   -3.4930 C   0  0  0  0  0  0  0  0  0  0  0  0
   35.2700   47.1570   -3.3720 C   0  0  0  0  0  0  0  0  0  0  0  0
   32.1030   45.1740   -5.6880 N   0  0  0  0  0  0  0  0  0  0  0  0
   34.1850   46.0010   -6.4300 O   0  0  0  0  0  0  0  0  0  0  0  0
   38.0370   46.7770   -3.3290 C   0  0  0  0  0  0  0  0  0  0  0  0
   36.1240   48.2490   -3.2070 C   0  0  0  0  0  0  0  0  0  0  0  0
   31.0850   45.7820   -6.4880 C   0  0  0  0  0  0  0  0  0  0  0  0
   37.5050   48.0590   -3.1860 C   0  0  0  0  0  0  0  0  0  0  0  0
   29.8770   45.9010   -5.5480 C   0  0  0  0  0  0  0  0  0  0  0  0
   30.1200   46.8280   -4.3350 C   0  0  0  0  0  0  0  0  0  0  0  0
   29.8560   48.2080   -4.6490 N   0  0  0  0  0  0  0  0  0  0  0  0
   29.8800   49.2990   -3.8180 C   0  0  0  0  0  0  0  0  0  0  0  0
   29.5260   48.6340   -5.8890 C   0  0  0  0  0  0  0  0  0  0  0  0
   29.5760   50.4080   -4.4700 N   0  0  0  0  0  0  0  0  0  0  0  0
   29.3520   49.9910   -5.7740 C   0  0  0  0  0  0  0  0  0  0  0  0
   29.3990   47.8800   -6.9860 N   0  0  0  0  0  0  0  0  0  0  0  0
   28.9950   50.6520   -6.9600 C   0  0  0  0  0  0  0  0  0  0  0  0
   29.0610   48.5970   -8.0540 C   0  0  0  0  0  0  0  0  0  0  0  0
   28.7740   52.0250   -7.0370 N   0  0  0  0  0  0  0  0  0  0  0  0
   28.9070   47.8980   -9.2370 N   0  0  0  0  0  0  0  0  0  0  0  0
   28.8560   49.9210   -8.0960 N   0  0  0  0  0  0  0  0  0  0  0  0
  1  2  1  0
  2  3  1  0
  2  4  1  0
  3  5  2  0
  4  6  2  0
  5  6  1  0
  4  7  1  0
  6  8  1  0
  7  9  2  0
  7 10  1  0
  8 11  2  3
  8 12  1  0
  9 13  1  0
 10 14  2  0
 11 15  1  0
 13 16  2  0
 14 16  1  0
 15 17  1  0
 17 18  1  0
 18 19  1  0
 19 20  1  0
 19 21  1  0
 20 22  2  0
 21 23  2  0
 22 23  1  0
 21 24  1  0
 23 25  1  0
 24 26  2  0
 25 27  1  0
 26 28  1  0
 25 29  2  0
 26 29  1  0
M  END
