mac-x0212-mac-x0496
     RDKit          3D

 22 23  0  0  0  0  0  0  0  0999 V2000
   31.0340   53.9160   -6.3860 C   0  0  0  0  0  0  0  0  0  0  0  0
   29.5460   54.1350   -5.4520 S   0  0  2  0  0  0  0  0  0  0  0  0
   28.7790   55.3180   -6.0430 N   0  0  0  0  0  0  0  0  0  0  0  0
   29.8800   54.0340   -4.0510 O   0  0  0  0  0  0  0  0  0  0  0  0
   28.5270   52.7870   -5.7060 N   0  0  0  0  0  0  0  0  0  0  0  0
   29.0170   56.6550   -5.4370 C   0  0  0  0  0  0  0  0  0  0  0  0
   29.0460   51.5260   -5.3510 C   0  0  0  0  0  0  0  0  0  0  0  0
   29.4200   50.5860   -6.3180 C   0  0  0  0  0  0  0  0  0  0  0  0
   29.1990   51.2020   -4.0010 C   0  0  0  0  0  0  0  0  0  0  0  0
   27.7530   57.4330   -5.3330 C   0  0  0  0  0  0  0  0  0  0  0  0
   29.9450   49.3450   -5.9390 C   0  0  0  0  0  0  0  0  0  0  0  0
   29.7190   49.9680   -3.6170 C   0  0  0  0  0  0  0  0  0  0  0  0
   27.6120   58.2600   -4.2500 O   0  0  0  0  0  0  0  0  0  0  0  0
   26.7120   57.4520   -6.1370 N   0  0  0  0  0  0  0  0  0  0  0  0
   30.1020   49.0270   -4.5810 C   0  0  0  0  0  0  0  0  0  0  0  0
   25.8780   58.3370   -5.5170 C   0  0  0  0  0  0  0  0  0  0  0  0
   26.3580   58.8600   -4.3780 N   0  0  0  0  0  0  0  0  0  0  0  0
   29.8210   49.7680   -2.2690 O   0  0  0  0  0  0  0  0  0  0  0  0
   30.6740   47.6930   -4.2580 C   0  0  0  0  0  0  0  0  0  0  0  0
   24.5560   58.6820   -6.0650 C   0  0  0  0  0  0  0  0  0  0  0  0
   30.9260   46.8090   -5.0530 O   0  0  0  0  0  0  0  0  0  0  0  0
   30.9170   47.5280   -2.9420 O   0  0  0  0  0  0  0  0  0  0  0  0
  2  1  1  6
  2  3  2  0
  2  4  2  0
  2  5  1  0
  3  6  1  0
  5  7  1  0
  7  8  2  0
  7  9  1  0
  6 10  1  0
  8 11  1  0
  9 12  2  0
 10 13  1  0
 10 14  2  0
 11 15  2  0
 12 15  1  0
 14 16  1  0
 13 17  1  0
 16 17  2  0
 12 18  1  0
 15 19  1  0
 16 20  1  0
 19 21  2  0
 19 22  1  0
M  END
