mac-x0394-mac-x0131
     RDKit          3D

 29 32  0  0  0  0  0  0  0  0999 V2000
   23.7560   50.1040   -4.0730 Cl  0  0  0  0  0  0  0  0  0  0  0  0
   25.0150   51.2600   -4.2810 C   0  0  0  0  0  0  0  0  0  0  0  0
   24.9920   52.4300   -3.5350 C   0  0  0  0  0  0  0  0  0  0  0  0
   26.0450   51.0120   -5.1980 C   0  0  0  0  0  0  0  0  0  0  0  0
   27.0810   51.9490   -5.3780 C   0  0  0  0  0  0  0  0  0  0  0  0
   26.0080   53.3630   -3.7050 C   0  0  0  0  0  0  0  0  0  0  0  0
   25.9870   54.8170   -2.7850 Cl  0  0  0  0  0  0  0  0  0  0  0  0
   28.2200   51.6820   -6.3790 C   0  0  2  0  0  0  0  0  0  0  0  0
   27.0430   53.1310   -4.6150 C   0  0  0  0  0  0  0  0  0  0  0  0
   28.0760   52.4970   -7.6530 C   0  0  0  0  0  0  0  0  0  0  0  0
   28.6120   50.2060   -6.5100 C   0  0  0  0  0  0  0  0  0  0  0  0
   29.0830   53.3610   -7.8910 O   0  0  0  0  0  0  0  0  0  0  0  0
   27.1410   52.4360   -8.4400 O   0  0  0  0  0  0  0  0  0  0  0  0
   29.2310   49.5630   -5.4310 C   0  0  0  0  0  0  0  0  0  0  0  0
   28.3810   49.4590   -7.6440 N   0  0  0  0  0  0  0  0  0  0  0  0
   29.6410   49.9660   -4.1220 C   0  0  0  0  0  0  0  0  0  0  0  0
   29.5520   48.2230   -5.5730 C   0  0  0  0  0  0  0  0  0  0  0  0
   28.7530   48.1560   -7.6500 C   0  0  0  0  0  0  0  0  0  0  0  0
   29.5020   51.3260   -3.5250 C   0  0  0  0  0  0  0  0  0  0  0  0
   30.1960   48.8580   -3.5020 C   0  0  0  0  0  0  0  0  0  0  0  0
   30.1330   47.8020   -4.3960 N   0  0  0  0  0  0  0  0  0  0  0  0
   29.3380   47.4630   -6.6620 N   0  0  0  0  0  0  0  0  0  0  0  0
   30.7710   48.7430   -2.1330 C   0  0  0  0  0  0  0  0  0  0  0  0
   30.5940   46.4380   -4.1640 C   0  0  0  0  0  0  0  0  0  0  0  0
   32.0160   46.2590   -4.5360 C   0  0  0  0  0  0  0  0  0  0  0  0
   32.6990   45.2570   -5.1940 C   0  0  0  0  0  0  0  0  0  0  0  0
   32.8800   47.2540   -4.1810 O   0  0  0  0  0  0  0  0  0  0  0  0
   34.1100   46.8850   -4.6150 C   0  0  0  0  0  0  0  0  0  0  0  0
   34.0530   45.6640   -5.2450 C   0  0  0  0  0  0  0  0  0  0  0  0
  1  2  1  0
  2  3  2  0
  2  4  1  0
  4  5  2  0
  3  6  1  0
  6  7  1  0
  5  8  1  0
  5  9  1  0
  6  9  2  0
  8 10  1  6
  8 11  1  0
 10 12  1  0
 10 13  2  0
 11 14  1  0
 11 15  2  0
 14 16  1  0
 14 17  2  0
 15 18  1  0
 16 19  1  0
 16 20  2  0
 17 21  1  0
 20 21  1  0
 17 22  1  0
 18 22  2  0
 20 23  1  0
 21 24  1  0
 24 25  1  0
 25 26  2  0
 25 27  1  0
 27 28  1  0
 26 29  1  0
 28 29  2  0
M  END
