mac-x0190-mac-x0142
     RDKit          3D

 24 28  0  0  0  0  0  0  0  0999 V2000
   29.1340   56.2320   -5.2290 O   0  0  0  0  0  0  0  0  0  0  0  0
   30.3590   55.5460   -4.9830 C   0  0  0  0  0  0  0  0  0  0  0  0
   30.0480   54.0920   -4.9570 C   0  0  0  0  0  0  0  0  0  0  0  0
   29.3670   53.5160   -3.9010 N   0  0  0  0  0  0  0  0  0  0  0  0
   30.3590   53.1920   -5.8800 N   0  0  0  0  0  0  0  0  0  0  0  0
   29.2490   52.1920   -4.1880 C   0  0  0  0  0  0  0  0  0  0  0  0
   29.8600   52.0110   -5.3980 C   0  0  0  0  0  0  0  0  0  0  0  0
   28.6250   51.2240   -3.3920 C   0  0  0  0  0  0  0  0  0  0  0  0
   29.9330   50.6780   -6.0490 C   0  0  0  0  0  0  0  0  0  0  0  0
   28.4160   50.0360   -3.9940 C   0  0  0  0  0  0  0  0  0  0  0  0
   28.8190   49.6970   -5.4690 C   0  0  1  0  0  0  0  0  0  0  0  0
   27.5410   49.9350   -6.3360 C   0  0  0  0  0  0  0  0  0  0  0  0
   29.2580   48.1700   -5.6930 C   0  0  2  0  0  0  0  0  0  0  0  0
   30.5140   47.6830   -5.0650 N   0  0  0  0  0  0  0  0  0  0  0  0
   29.2870   47.8270   -7.1240 N   0  0  0  0  0  0  0  0  0  0  0  0
   27.5830   49.3530   -7.6850 N   0  0  0  0  0  0  0  0  0  0  0  0
   30.9290   48.4230   -3.8580 C   0  0  0  0  0  0  0  0  0  0  0  0
   30.5100   46.2280   -4.8350 C   0  0  0  0  0  0  0  0  0  0  0  0
   27.9900   47.9670   -7.7300 C   0  0  0  0  0  0  0  0  0  0  0  0
   31.9230   45.7530   -4.5410 C   0  0  0  0  0  0  0  0  0  0  0  0
   31.8870   47.6710   -2.9330 C   0  0  0  0  0  0  0  0  0  0  0  0
   32.1530   44.2670   -4.3340 C   0  0  0  0  0  0  0  0  0  0  0  0
   32.6320   44.9220   -5.5960 C   0  0  0  0  0  0  0  0  0  0  0  0
   32.7630   46.7120   -3.7280 C   0  0  0  0  0  0  0  0  0  0  0  0
  1  2  1  0
  2  3  1  0
  3  4  1  0
  3  5  2  0
  4  6  1  0
  5  7  1  0
  6  7  2  0
  6  8  1  0
  7  9  1  0
  8 10  2  0
 11  9  1  6
 11 10  1  0
 11 12  1  0
 11 13  1  0
 13 14  1  6
 13 15  1  0
 12 16  1  0
 14 17  1  0
 14 18  1  0
 15 19  1  0
 16 19  1  0
 20 18  1  0
 17 21  1  0
 20 22  1  0
 20 23  1  0
 22 23  1  0
 20 24  1  0
 21 24  1  0
M  END
