mac-x0306-mac-x0305
     RDKit          3D

 15 16  0  0  0  0  0  0  0  0999 V2000
   30.3180   48.0230   -7.2770 O   0  0  0  0  0  0  0  0  0  0  0  0
   30.0100   47.9780   -5.9660 C   0  0  0  0  0  0  0  0  0  0  0  0
   29.8940   46.8920   -5.3980 O   0  0  0  0  0  0  0  0  0  0  0  0
   29.8600   49.3120   -5.2390 C   0  0  0  0  0  0  0  0  0  0  0  0
   30.0100   49.1960   -3.8980 N   0  0  0  0  0  0  0  0  0  0  0  0
   29.6000   50.5590   -5.8910 C   0  0  0  0  0  0  0  0  0  0  0  0
   29.4450   50.5940   -7.2690 O   0  0  0  0  0  0  0  0  0  0  0  0
   29.9200   50.3020   -3.1520 C   0  0  0  0  0  0  0  0  0  0  0  0
   29.5220   51.7390   -5.0440 C   0  0  0  0  0  0  0  0  0  0  0  0
   29.2990   53.1760   -5.3850 C   0  0  0  0  0  0  0  0  0  0  0  0
   29.6880   51.5560   -3.6660 C   0  0  0  0  0  0  0  0  0  0  0  0
   28.7600   53.7020   -6.5390 N   0  0  0  0  0  0  0  0  0  0  0  0
   29.6210   54.1790   -4.5680 N   0  0  0  0  0  0  0  0  0  0  0  0
   29.2830   55.3440   -5.2020 C   0  0  0  0  0  0  0  0  0  0  0  0
   28.7460   55.0720   -6.4330 C   0  0  0  0  0  0  0  0  0  0  0  0
  1  2  1  0
  2  3  2  0
  2  4  1  0
  4  5  2  0
  4  6  1  0
  6  7  1  0
  5  8  1  0
  6  9  2  0
  9 10  1  0
  8 11  2  0
  9 11  1  0
 10 12  1  0
 10 13  2  0
 13 14  1  0
 12 15  1  0
 14 15  2  0
M  END
