mac-x0397-mac-x0188
     RDKit          3D

 19 21  0  0  0  0  0  0  0  0999 V2000
   28.7980   51.5670   -2.2390 Cl  0  0  0  0  0  0  0  0  0  0  0  0
   29.7920   50.8590   -3.5400 C   0  0  2  0  0  0  0  0  0  0  0  0
   29.5380   51.5250   -4.8400 C   0  0  0  0  0  0  0  0  0  0  0  0
   29.6330   49.3030   -3.7440 C   0  0  0  0  0  0  0  0  0  0  0  0
   28.8140   52.6980   -5.0530 N   0  0  0  0  0  0  0  0  0  0  0  0
   30.0560   50.9440   -5.9510 C   0  0  0  0  0  0  0  0  0  0  0  0
   30.8310   48.7630   -4.6410 C   0  0  1  0  0  0  0  0  0  0  0  0
   28.7980   52.9810   -6.3410 C   0  0  0  0  0  0  0  0  0  0  0  0
   29.6380   51.8490   -7.3340 S   0  0  0  0  0  0  0  0  0  0  0  0
   30.8920   49.6830   -5.9410 C   0  0  0  0  0  0  0  0  0  0  0  0
   31.9740   48.8520   -3.6790 N   0  0  0  0  0  0  0  0  0  0  0  0
   31.0940   47.2730   -5.0860 C   0  0  2  0  0  0  0  0  0  0  0  0
   28.1880   54.0580   -6.8720 N   0  0  0  0  0  0  0  0  0  0  0  0
   30.0360   46.4160   -5.7180 C   0  0  0  0  0  0  0  0  0  0  0  0
   31.9470   46.5830   -4.0300 C   0  0  1  0  0  0  0  0  0  0  0  0
   32.0210   47.5400   -2.9820 O   0  0  0  0  0  0  0  0  0  0  0  0
   31.5910   45.1770   -3.5650 C   0  0  0  0  0  0  0  0  0  0  0  0
   28.9690   46.0930   -5.2360 O   0  0  0  0  0  0  0  0  0  0  0  0
   30.3870   45.9970   -6.9470 O   0  0  0  0  0  0  0  0  0  0  0  0
  2  1  1  1
  2  3  1  0
  2  4  1  0
  3  5  1  0
  3  6  2  0
  7  4  1  1
  5  8  2  0
  6  9  1  0
  8  9  1  0
  6 10  1  0
  7 10  1  0
  7 11  1  0
  7 12  1  0
  8 13  1  0
 12 14  1  1
 12 15  1  0
 11 16  1  0
 15 16  1  0
 15 17  1  1
 14 18  2  0
 14 19  1  0
M  END
