mac-x0282-mac-x0305
     RDKit          3D

 13 14  0  0  0  0  0  0  0  0999 V2000
   32.0900   47.5470   -5.4390 O   0  0  0  0  0  0  0  0  0  0  0  0
   30.9530   48.0090   -4.8540 C   0  0  0  0  0  0  0  0  0  0  0  0
   30.6920   47.7540   -3.6910 O   0  0  0  0  0  0  0  0  0  0  0  0
   30.0920   48.7900   -5.7290 C   0  0  0  0  0  0  0  0  0  0  0  0
   29.7680   50.1480   -5.7350 C   0  0  0  0  0  0  0  0  0  0  0  0
   29.3920   48.2040   -6.8180 C   0  0  0  0  0  0  0  0  0  0  0  0
   28.6740   49.1970   -7.4560 C   0  0  0  0  0  0  0  0  0  0  0  0
   28.9160   50.3530   -6.7880 N   0  0  0  0  0  0  0  0  0  0  0  0
   29.2980   46.9050   -7.3350 C   0  0  0  0  0  0  0  0  0  0  0  0
   28.3710   51.5770   -7.1310 O   0  0  0  0  0  0  0  0  0  0  0  0
   28.4940   46.7100   -8.4490 C   0  0  0  0  0  0  0  0  0  0  0  0
   27.8780   49.0730   -8.5370 N   0  0  0  0  0  0  0  0  0  0  0  0
   27.8260   47.7980   -8.9940 C   0  0  0  0  0  0  0  0  0  0  0  0
  1  2  1  0
  2  3  2  0
  2  4  1  0
  4  5  2  0
  4  6  1  0
  6  7  2  0
  5  8  1  0
  7  8  1  0
  6  9  1  0
  8 10  1  0
  9 11  2  0
  7 12  1  0
 11 13  1  0
 12 13  2  0
M  END
