mac-x0338-mac-x0148
     RDKit          3D

 23 26  0  0  0  0  0  0  0  0999 V2000
   28.8090   52.1010   -7.8040 N   0  0  0  0  0  0  0  0  0  0  0  0
   29.0840   52.0230   -6.4700 C   0  0  0  0  0  0  0  0  0  0  0  0
   28.5960   52.8750   -5.7290 O   0  0  0  0  0  0  0  0  0  0  0  0
   29.9810   50.8960   -5.9600 C   0  0  2  0  0  0  0  0  0  0  0  0
   29.2680   49.5240   -5.6430 C   0  0  1  0  0  0  0  0  0  0  0  0
   30.8570   51.3770   -4.7930 C   0  0  0  0  0  0  0  0  0  0  0  0
   28.7380   49.5690   -4.1870 C   0  0  0  0  0  0  0  0  0  0  0  0
   30.0380   51.4760   -3.5970 N   0  0  0  0  0  0  0  0  0  0  0  0
   28.0030   49.2810   -6.5310 C   0  0  0  0  0  0  0  0  0  0  0  0
   30.2310   48.3060   -5.9500 C   0  0  1  0  0  0  0  0  0  0  0  0
   29.1350   50.4940   -3.2980 C   0  0  0  0  0  0  0  0  0  0  0  0
   30.5370   47.3510   -4.8740 N   0  0  0  0  0  0  0  0  0  0  0  0
   29.8400   47.5690   -7.1500 N   0  0  0  0  0  0  0  0  0  0  0  0
   28.2680   49.1590   -7.9730 N   0  0  0  0  0  0  0  0  0  0  0  0
   30.9740   47.7800   -3.5550 C   0  0  1  0  0  0  0  0  0  0  0  0
   31.1180   46.0910   -5.3490 C   0  0  0  0  0  0  0  0  0  0  0  0
   29.4590   48.3990   -8.2690 C   0  0  0  0  0  0  0  0  0  0  0  0
   30.4380   47.0210   -2.3300 C   0  0  0  0  0  0  0  0  0  0  0  0
   32.4940   47.6960   -3.3620 C   0  0  1  0  0  0  0  0  0  0  0  0
   32.6480   46.0670   -5.3190 C   0  0  0  0  0  0  0  0  0  0  0  0
   32.5820   47.7580   -1.8460 C   0  0  0  0  0  0  0  0  0  0  0  0
   31.4650   47.0270   -1.3270 O   0  0  0  0  0  0  0  0  0  0  0  0
   33.1660   46.4380   -3.9420 C   0  0  0  0  0  0  0  0  0  0  0  0
  1  2  1  0
  2  3  2  0
  4  2  1  1
  4  5  1  0
  4  6  1  0
  5  7  1  1
  6  8  1  0
  5  9  1  0
  5 10  1  0
  7 11  2  0
  8 11  1  0
 10 12  1  1
 10 13  1  0
  9 14  1  0
 12 15  1  0
 12 16  1  0
 13 17  1  0
 14 17  1  0
 15 18  1  1
 15 19  1  0
 16 20  1  0
 19 21  1  1
 18 22  1  0
 21 22  1  0
 19 23  1  0
 20 23  1  0
M  END
