mac-x0441-mac-x0204
     RDKit          3D

 26 28  0  0  0  0  0  0  0  0999 V2000
   34.0550   45.0900   -6.2860 O   0  0  0  0  0  0  0  0  0  0  0  0
   32.9200   45.3350   -5.5870 C   0  0  0  0  0  0  0  0  0  0  0  0
   31.9460   45.9200   -6.1960 N   0  0  0  0  0  0  0  0  0  0  0  0
   32.8970   44.8910   -4.1470 C   0  0  0  0  0  0  0  0  0  0  0  0
   30.8580   46.1340   -5.3770 C   0  0  0  0  0  0  0  0  0  0  0  0
   34.1890   44.7750   -3.5050 N   0  0  0  0  0  0  0  0  0  0  0  0
   29.7150   45.7870   -5.6580 O   0  0  0  0  0  0  0  0  0  0  0  0
   34.4680   43.5910   -2.9490 N   0  0  0  0  0  0  0  0  0  0  0  0
   35.2040   45.6840   -3.3530 C   0  0  0  0  0  0  0  0  0  0  0  0
   31.1570   46.8160   -4.0830 C   0  0  0  0  0  0  0  0  0  0  0  0
   35.6880   43.7240   -2.4140 C   0  0  0  0  0  0  0  0  0  0  0  0
   36.1920   45.0310   -2.6450 C   0  0  0  0  0  0  0  0  0  0  0  0
   35.2850   47.0920   -3.8190 C   0  0  0  0  0  0  0  0  0  0  0  0
   30.3650   46.6850   -2.9390 C   0  0  0  0  0  0  0  0  0  0  0  0
   32.2870   47.6240   -4.0010 C   0  0  0  0  0  0  0  0  0  0  0  0
   36.3580   42.5980   -1.6850 C   0  0  0  0  0  0  0  0  0  0  0  0
   37.4840   45.6660   -2.2530 C   0  0  0  0  0  0  0  0  0  0  0  0
   36.3080   47.8420   -2.9470 C   0  0  0  0  0  0  0  0  0  0  0  0
   30.7380   47.3590   -1.7770 C   0  0  0  0  0  0  0  0  0  0  0  0
   32.6680   48.2910   -2.8760 N   0  0  0  0  0  0  0  0  0  0  0  0
   37.4450   42.0990   -2.3250 F   0  0  0  0  0  0  0  0  0  0  0  0
   36.7590   42.9750   -0.4400 F   0  0  0  0  0  0  0  0  0  0  0  0
   35.4940   41.5580   -1.5030 F   0  0  0  0  0  0  0  0  0  0  0  0
   29.9600   47.2250   -0.6690 O   0  0  0  0  0  0  0  0  0  0  0  0
   37.6430   47.0780   -2.8570 C   0  0  0  0  0  0  0  0  0  0  0  0
   31.8850   48.1400   -1.7910 C   0  0  0  0  0  0  0  0  0  0  0  0
  1  2  1  0
  2  3  2  3
  2  4  1  0
  3  5  1  0
  4  6  1  0
  5  7  2  0
  6  8  1  0
  6  9  1  0
  5 10  1  0
  8 11  2  0
  9 12  2  0
 11 12  1  0
  9 13  1  0
 10 14  2  0
 10 15  1  0
 11 16  1  0
 12 17  1  0
 13 18  1  0
 14 19  1  0
 15 20  2  0
 16 21  1  0
 16 22  1  0
 16 23  1  0
 19 24  1  0
 17 25  1  0
 18 25  1  0
 19 26  2  0
 20 26  1  0
M  END
