mac-x0190-mac-x0588
     RDKit          3D

 26 30  0  0  0  0  0  0  0  0999 V2000
   28.7200   56.7960   -5.4620 O   0  0  0  0  0  0  0  0  0  0  0  0
   29.9490   56.0780   -5.4480 C   0  0  0  0  0  0  0  0  0  0  0  0
   29.6330   54.6760   -5.0740 C   0  0  0  0  0  0  0  0  0  0  0  0
   29.2190   54.3580   -3.8170 N   0  0  0  0  0  0  0  0  0  0  0  0
   29.7000   53.5970   -5.8440 N   0  0  0  0  0  0  0  0  0  0  0  0
   29.0040   53.0160   -3.7630 C   0  0  0  0  0  0  0  0  0  0  0  0
   29.3060   52.5460   -5.0270 C   0  0  0  0  0  0  0  0  0  0  0  0
   28.5750   52.2070   -2.7170 C   0  0  0  0  0  0  0  0  0  0  0  0
   29.1790   51.1540   -5.2600 C   0  0  0  0  0  0  0  0  0  0  0  0
   28.4460   50.8540   -2.9760 C   0  0  0  0  0  0  0  0  0  0  0  0
   28.7390   50.3450   -4.2140 C   0  0  0  0  0  0  0  0  0  0  0  0
   29.4970   50.4460   -6.5180 C   0  0  1  0  0  0  0  0  0  0  0  0
   30.8240   49.8770   -6.2650 N   0  0  0  0  0  0  0  0  0  0  0  0
   28.5020   49.3000   -6.8000 C   0  0  2  0  0  0  0  0  0  0  0  0
   30.8380   49.1570   -4.9940 C   0  0  0  0  0  0  0  0  0  0  0  0
   28.9480   48.0090   -6.0830 C   0  0  2  0  0  0  0  0  0  0  0  0
   28.4530   48.9260   -8.2370 N   0  0  0  0  0  0  0  0  0  0  0  0
   29.8320   48.1210   -4.9370 N   0  0  0  0  0  0  0  0  0  0  0  0
   29.6310   47.2430   -7.1300 N   0  0  0  0  0  0  0  0  0  0  0  0
   28.8490   47.5360   -8.3110 C   0  0  0  0  0  0  0  0  0  0  0  0
   30.2400   46.8490   -4.3150 C   0  0  0  0  0  0  0  0  0  0  0  0
   29.1640   46.0500   -3.5540 C   0  0  2  0  0  0  0  0  0  0  0  0
   28.7710   46.7100   -2.3380 O   0  0  0  0  0  0  0  0  0  0  0  0
   29.6490   44.6900   -3.0860 C   0  0  0  0  0  0  0  0  0  0  0  0
   28.6070   44.3570   -2.0440 C   0  0  0  0  0  0  0  0  0  0  0  0
   28.3160   45.7100   -1.4200 C   0  0  0  0  0  0  0  0  0  0  0  0
  1  2  1  0
  2  3  1  0
  3  4  1  0
  3  5  2  0
  4  6  1  0
  5  7  1  0
  6  7  2  0
  6  8  1  0
  7  9  1  0
  8 10  2  0
  9 11  2  0
 10 11  1  0
 12  9  1  1
 12 13  1  0
 12 14  1  0
 13 15  1  0
 14 16  1  0
 14 17  1  6
 15 18  1  0
 16 18  1  0
 16 19  1  6
 17 20  1  0
 19 20  1  0
 18 21  1  0
 22 21  1  1
 22 23  1  0
 22 24  1  0
 24 25  1  0
 23 26  1  0
 25 26  1  0
M  END
