mac-x0527
     RDKit          3D

 16 17  0  0  0  0  0  0  0  0999 V2000
  -25.8430   58.1160    0.3740 O   0  0  0  0  0  0  0  0  0  0  0  0
  -26.2910   57.2360    1.0150 C   0  0  0  0  0  0  0  0  0  0  0  0
  -26.8510   56.0900    0.3680 N   0  0  0  0  0  0  0  0  0  0  0  0
  -26.7730   56.0410   -1.0590 C   0  0  0  0  0  0  0  0  0  0  0  0
  -27.9560   56.6720   -1.7950 C   0  0  0  0  0  0  0  0  0  0  0  0
  -28.7550   57.6550   -1.2550 C   0  0  0  0  0  0  0  0  0  0  0  0
  -29.7850   58.1890   -2.0240 C   0  0  0  0  0  0  0  0  0  0  0  0
  -30.0190   57.7720   -3.3050 C   0  0  0  0  0  0  0  0  0  0  0  0
  -29.2130   56.7940   -3.8440 C   0  0  0  0  0  0  0  0  0  0  0  0
  -28.2060   56.2380   -3.0820 C   0  0  0  0  0  0  0  0  0  0  0  0
  -26.4380   57.3040    2.5410 C   0  0  0  0  0  0  0  0  0  0  0  0
  -26.1610   58.4850    3.1970 C   0  0  0  0  0  0  0  0  0  0  0  0
  -26.3090   58.6000    4.4830 N   0  0  0  0  0  0  0  0  0  0  0  0
  -26.7430   57.5600    5.1790 C   0  0  0  0  0  0  0  0  0  0  0  0
  -27.0430   56.3770    4.5140 C   0  0  0  0  0  0  0  0  0  0  0  0
  -26.8730   56.2780    3.2160 N   0  0  0  0  0  0  0  0  0  0  0  0
  1  2  2  0
  2  3  1  0
  3  4  1  0
  4  5  1  0
  5  6  2  0
  6  7  1  0
  7  8  2  0
  8  9  1  0
  5 10  1  0
  9 10  2  0
  2 11  1  0
 11 12  2  0
 12 13  1  0
 13 14  2  0
 14 15  1  0
 11 16  1  0
 15 16  2  0
M  END
