mac-x0124-mac-x0283
     RDKit          3D

 20 23  0  0  0  0  0  0  0  0999 V2000
   30.2170   45.2870   -6.5270 C   0  0  0  0  0  0  0  0  0  0  0  0
   30.0530   46.5660   -5.8840 N   0  0  0  0  0  0  0  0  0  0  0  0
   30.4210   46.8570   -4.5950 C   0  0  0  0  0  0  0  0  0  0  0  0
   29.5000   47.6760   -6.4770 C   0  0  0  0  0  0  0  0  0  0  0  0
   30.1010   48.1710   -4.3590 C   0  0  0  0  0  0  0  0  0  0  0  0
   29.5160   48.6950   -5.5450 C   0  0  0  0  0  0  0  0  0  0  0  0
   29.0300   47.7540   -7.7340 N   0  0  0  0  0  0  0  0  0  0  0  0
   28.9940   49.9250   -5.9390 C   0  0  0  0  0  0  0  0  0  0  0  0
   28.5510   48.9840   -8.0110 C   0  0  0  0  0  0  0  0  0  0  0  0
   28.5010   50.0690   -7.2020 N   0  0  0  0  0  0  0  0  0  0  0  0
   28.9980   51.0020   -4.9600 C   0  0  0  0  0  0  0  0  0  0  0  0
   29.1530   52.3840   -5.2540 C   0  0  0  0  0  0  0  0  0  0  0  0
   28.8450   50.6480   -3.6000 C   0  0  0  0  0  0  0  0  0  0  0  0
   29.3280   53.2450   -6.3780 C   0  0  0  0  0  0  0  0  0  0  0  0
   29.1420   53.2780   -4.1900 C   0  0  0  0  0  0  0  0  0  0  0  0
   28.8410   51.5830   -2.5740 C   0  0  0  0  0  0  0  0  0  0  0  0
   29.3990   52.8290   -7.6560 N   0  0  0  0  0  0  0  0  0  0  0  0
   29.4190   54.5290   -6.0170 N   0  0  0  0  0  0  0  0  0  0  0  0
   29.3020   54.5440   -4.6430 O   0  0  0  0  0  0  0  0  0  0  0  0
   28.9930   52.9320   -2.8500 C   0  0  0  0  0  0  0  0  0  0  0  0
  1  2  1  0
  2  3  1  0
  2  4  1  0
  3  5  2  0
  4  6  2  0
  5  6  1  0
  4  7  1  0
  6  8  1  0
  7  9  2  0
  8 10  2  0
  9 10  1  0
  8 11  1  0
 11 12  1  0
 11 13  2  0
 12 14  1  0
 12 15  2  0
 13 16  1  0
 14 17  1  0
 14 18  2  0
 15 19  1  0
 18 19  1  0
 15 20  1  0
 16 20  2  0
M  END
