mac-x0568-mac-x0402
     RDKit          3D

 16 17  0  0  0  0  0  0  0  0999 V2000
   30.3910   55.2040   -5.0550 C   0  0  0  0  0  0  0  0  0  0  0  0
   29.7950   53.8130   -5.1080 C   0  0  0  0  0  0  0  0  0  0  0  0
   28.9260   53.4840   -6.3000 C   0  0  0  0  0  0  0  0  0  0  0  0
   30.0790   53.0200   -4.1300 N   0  0  0  0  0  0  0  0  0  0  0  0
   28.4840   54.4860   -7.1300 N   0  0  0  0  0  0  0  0  0  0  0  0
   29.5240   51.6490   -4.1270 C   0  0  1  0  0  0  0  0  0  0  0  0
   28.6360   52.1920   -6.4670 C   0  0  0  0  0  0  0  0  0  0  0  0
   29.1310   51.0990   -5.5420 C   0  0  2  0  0  0  0  0  0  0  0  0
   30.4770   50.7560   -3.3710 C   0  0  0  0  0  0  0  0  0  0  0  0
   27.9960   50.0420   -5.4080 C   0  0  0  0  0  0  0  0  0  0  0  0
   31.3180   49.9370   -4.0180 C   0  0  0  0  0  0  0  0  0  0  0  0
   30.3400   50.4260   -6.1850 C   0  0  0  0  0  0  0  0  0  0  0  0
   27.3570   49.8410   -4.3760 O   0  0  0  0  0  0  0  0  0  0  0  0
   27.7050   49.2920   -6.5150 N   0  0  0  0  0  0  0  0  0  0  0  0
   32.4000   48.9100   -3.1560 Cl  0  0  0  0  0  0  0  0  0  0  0  0
   31.3390   49.8930   -5.4610 C   0  0  0  0  0  0  0  0  0  0  0  0
  1  2  1  0
  2  3  1  0
  2  4  2  0
  3  5  1  0
  4  6  1  0
  3  7  2  0
  6  8  1  0
  7  8  1  0
  6  9  1  6
  8 10  1  1
  9 11  2  0
  8 12  1  0
 10 13  2  0
 10 14  1  0
 11 15  1  0
 11 16  1  0
 12 16  2  0
M  END
