mac-x0178-mac-x0337
     RDKit          3D

 25 26  0  0  0  0  0  0  0  0999 V2000
   28.5290   45.1340   -0.4300 N   0  0  0  0  0  0  0  0  0  0  0  0
   28.9240   46.7110   -0.8560 S   0  0  0  0  0  0  0  0  0  0  0  0
   29.8180   47.1520    0.1870 O   0  0  0  0  0  0  0  0  0  0  0  0
   27.6830   47.3790   -1.1460 O   0  0  0  0  0  0  0  0  0  0  0  0
   29.8310   46.5220   -2.3830 C   0  0  0  0  0  0  0  0  0  0  0  0
   29.8760   45.2290   -2.9330 C   0  0  0  0  0  0  0  0  0  0  0  0
   30.4840   47.5970   -3.0450 C   0  0  0  0  0  0  0  0  0  0  0  0
   30.5000   49.0430   -2.6020 C   0  0  0  0  0  0  0  0  0  0  0  0
   30.5670   44.9870   -4.1250 C   0  0  0  0  0  0  0  0  0  0  0  0
   31.1690   47.3040   -4.2290 C   0  0  0  0  0  0  0  0  0  0  0  0
   29.5510   49.8780   -3.4060 N   0  0  0  0  0  0  0  0  0  0  0  0
   31.2150   46.0360   -4.7630 C   0  0  0  0  0  0  0  0  0  0  0  0
   31.9560   45.8250   -6.0200 C   0  0  0  0  0  0  0  0  0  0  0  0
   29.8160   50.3930   -4.8350 S   0  0  1  0  0  0  0  0  0  0  0  0
   31.4190   45.4920   -7.0590 O   0  0  0  0  0  0  0  0  0  0  0  0
   33.2810   46.0540   -5.8790 O   0  0  0  0  0  0  0  0  0  0  0  0
   29.3520   49.7840   -6.0670 O   0  0  0  0  0  0  0  0  0  0  0  0
   28.8240   51.7430   -4.7670 N   0  0  0  0  0  0  0  0  0  0  0  0
   31.4810   50.9370   -5.0340 C   0  0  0  0  0  0  0  0  0  0  0  0
   32.5340   50.0270   -4.9670 C   0  0  0  0  0  0  0  0  0  0  0  0
   31.7260   52.2930   -5.2600 C   0  0  0  0  0  0  0  0  0  0  0  0
   33.8450   50.4740   -5.1250 C   0  0  0  0  0  0  0  0  0  0  0  0
   33.0400   52.7370   -5.4180 C   0  0  0  0  0  0  0  0  0  0  0  0
   34.1080   51.8330   -5.3510 C   0  0  0  0  0  0  0  0  0  0  0  0
   35.5190   52.3130   -5.5180 C   0  0  0  0  0  0  0  0  0  0  0  0
  2  1  1  0
  2  3  2  0
  2  4  2  0
  2  5  1  0
  5  6  2  0
  5  7  1  0
  7  8  1  0
  6  9  1  0
  7 10  2  0
  8 11  1  0
  9 12  2  0
 10 12  1  0
 12 13  1  0
 11 14  2  0
 13 15  2  0
 13 16  1  0
 14 17  2  0
 14 18  1  1
 14 19  1  0
 19 20  2  0
 19 21  1  0
 20 22  1  0
 21 23  2  0
 22 24  2  0
 23 24  1  0
 24 25  1  0
M  END
