mac-x0379-mac-x0204
     RDKit          3D

 17 18  0  0  0  0  0  0  0  0999 V2000
   28.3720   52.5660   -6.0990 C   0  0  0  0  0  0  0  0  0  0  0  0
   28.9320   51.3150   -5.4950 C   0  0  0  0  0  0  0  0  0  0  0  0
   29.3620   51.0600   -4.3030 N   0  0  0  0  0  0  0  0  0  0  0  0
   29.1820   49.7730   -6.2400 S   0  0  0  0  0  0  0  0  0  0  0  0
   29.8130   49.9060   -3.9690 C   0  0  0  0  0  0  0  0  0  0  0  0
   29.8410   48.9020   -4.9090 C   0  0  0  0  0  0  0  0  0  0  0  0
   30.4030   47.2990   -4.6640 S   0  0  0  0  0  0  0  0  0  0  0  0
   29.0890   46.8600   -3.9290 O   0  0  0  0  0  0  0  0  0  0  0  0
   29.7370   46.0800   -5.6670 O   0  0  0  0  0  0  0  0  0  0  0  0
   31.4480   47.2820   -5.7250 O   0  0  0  0  0  0  0  0  0  0  0  0
   31.3250   47.0140   -3.3620 C   0  0  0  0  0  0  0  0  0  0  0  0
   30.8450   46.8920   -2.0680 C   0  0  0  0  0  0  0  0  0  0  0  0
   32.7030   46.8700   -3.4080 C   0  0  0  0  0  0  0  0  0  0  0  0
   31.6180   46.6630   -0.9760 C   0  0  0  0  0  0  0  0  0  0  0  0
   33.4730   46.6440   -2.3390 N   0  0  0  0  0  0  0  0  0  0  0  0
   31.0780   46.5510    0.3020 O   0  0  0  0  0  0  0  0  0  0  0  0
   32.9580   46.5390   -1.1310 C   0  0  0  0  0  0  0  0  0  0  0  0
  1  2  1  0
  2  3  2  0
  2  4  1  0
  3  5  1  0
  4  6  1  0
  5  6  2  0
  6  7  1  0
  7  8  2  0
  7  9  1  0
  7 10  1  0
  7 11  1  0
 11 12  2  0
 11 13  1  0
 12 14  1  0
 13 15  2  0
 14 16  1  0
 14 17  2  0
 15 17  1  0
M  END
