mac-x0510-mac-x0124
     RDKit          3D

 17 19  0  0  0  0  0  0  0  0999 V2000
   29.3210   53.7580   -6.5330 O   0  0  0  0  0  0  0  0  0  0  0  0
   29.0800   52.5920   -6.2360 C   0  0  0  0  0  0  0  0  0  0  0  0
   29.2480   52.1180   -4.9610 N   0  0  0  0  0  0  0  0  0  0  0  0
   28.6350   51.7060   -7.1600 N   0  0  0  0  0  0  0  0  0  0  0  0
   28.4160   50.3560   -6.7790 C   0  0  2  0  0  0  0  0  0  0  0  0
   29.3960   50.7810   -4.6500 C   0  0  0  0  0  0  0  0  0  0  0  0
   29.4430   50.4310   -3.4730 O   0  0  0  0  0  0  0  0  0  0  0  0
   29.4880   49.8570   -5.8540 C   0  0  1  0  0  0  0  0  0  0  0  0
   28.4840   49.4030   -7.8990 N   0  0  0  0  0  0  0  0  0  0  0  0
   29.6060   49.6720   -8.7800 N   0  0  0  0  0  0  0  0  0  0  0  0
   29.0520   48.3980   -5.7370 C   0  0  1  0  0  0  0  0  0  0  0  0
   28.6420   48.0800   -7.2150 C   0  0  0  0  0  0  0  0  0  0  0  0
   30.1400   47.4670   -5.2480 N   0  0  0  0  0  0  0  0  0  0  0  0
   27.9150   48.0660   -4.7140 C   0  0  0  0  0  0  0  0  0  0  0  0
   30.9500   46.6450   -6.1280 C   0  0  0  0  0  0  0  0  0  0  0  0
   29.8880   47.1250   -3.9360 C   0  0  0  0  0  0  0  0  0  0  0  0
   28.6460   47.4330   -3.5640 C   0  0  0  0  0  0  0  0  0  0  0  0
  1  2  2  0
  2  3  1  0
  2  4  1  0
  5  4  1  6
  3  6  1  0
  6  7  2  0
  5  8  1  0
  8  6  1  1
  5  9  1  0
  9 10  1  0
  8 11  1  0
  9 12  1  0
 11 12  1  6
 11 13  1  0
 11 14  1  0
 13 15  1  0
 13 16  1  0
 14 17  1  0
 16 17  2  0
M  END
