mac-x0132-mac-x0365
     RDKit          3D

 16 17  0  0  0  0  0  0  0  0999 V2000
   28.5020   52.3700   -7.6440 N   0  0  0  0  0  0  0  0  0  0  0  0
   28.8160   52.9240   -6.3990 C   0  0  0  0  0  0  0  0  0  0  0  0
   28.7020   54.2590   -6.3030 N   0  0  0  0  0  0  0  0  0  0  0  0
   29.2230   52.1200   -5.3310 C   0  0  0  0  0  0  0  0  0  0  0  0
   29.4870   52.8310   -4.1740 C   0  0  0  0  0  0  0  0  0  0  0  0
   28.9940   54.8130   -5.1260 C   0  0  0  0  0  0  0  0  0  0  0  0
   29.3810   50.7020   -5.3410 C   0  0  0  0  0  0  0  0  0  0  0  0
   29.3840   54.1550   -4.0420 N   0  0  0  0  0  0  0  0  0  0  0  0
   29.8830   52.1550   -3.0790 C   0  0  0  0  0  0  0  0  0  0  0  0
   29.8030   50.0080   -4.1910 C   0  0  0  0  0  0  0  0  0  0  0  0
   29.9590   48.5150   -4.2920 C   0  0  0  0  0  0  0  0  0  0  0  0
   30.1100   52.9430   -1.9950 O   0  0  0  0  0  0  0  0  0  0  0  0
   30.0500   50.7810   -3.0410 C   0  0  0  0  0  0  0  0  0  0  0  0
   29.5770   47.9310   -5.4530 O   0  0  0  0  0  0  0  0  0  0  0  0
   30.4230   47.8580   -3.3730 O   0  0  0  0  0  0  0  0  0  0  0  0
   30.4470   50.2630   -1.8870 F   0  0  0  0  0  0  0  0  0  0  0  0
  1  2  1  0
  2  3  2  0
  2  4  1  0
  4  5  2  0
  3  6  1  0
  4  7  1  0
  5  8  1  0
  6  8  2  0
  5  9  1  0
  7 10  2  0
 10 11  1  0
  9 12  1  0
  9 13  2  0
 10 13  1  0
 11 14  1  0
 11 15  2  0
 13 16  1  0
M  END
