mac-x0472-mac-x0375
     RDKit          3D

 28 30  0  0  0  0  0  0  0  0999 V2000
   29.7470   50.5490   -3.5350 O   0  0  0  0  0  0  0  0  0  0  0  0
   30.6380   49.5040   -3.9910 S   0  0  1  0  0  0  0  0  0  0  0  0
   30.9030   48.2640   -3.1100 N   0  0  0  0  0  0  0  0  0  0  0  0
   29.8180   48.8530   -5.2960 N   0  0  0  0  0  0  0  0  0  0  0  0
   32.1070   50.3440   -4.5510 C   0  0  0  0  0  0  0  0  0  0  0  0
   32.1260   47.4880   -3.2240 C   0  0  0  0  0  0  0  0  0  0  0  0
   29.3380   49.6580   -6.2670 C   0  0  0  0  0  0  0  0  0  0  0  0
   33.1970   49.6060   -5.0320 C   0  0  0  0  0  0  0  0  0  0  0  0
   32.1670   51.7420   -4.5180 C   0  0  0  0  0  0  0  0  0  0  0  0
   31.9280   46.2200   -4.0800 C   0  0  0  0  0  0  0  0  0  0  0  0
   29.1140   49.3650   -7.5350 N   0  0  0  0  0  0  0  0  0  0  0  0
   28.9390   51.3020   -5.8900 S   0  0  0  0  0  0  0  0  0  0  0  0
   34.3430   50.2700   -5.4730 C   0  0  0  0  0  0  0  0  0  0  0  0
   33.3160   52.3980   -4.9620 C   0  0  0  0  0  0  0  0  0  0  0  0
   33.2100   45.7840   -4.8170 C   0  0  2  0  0  0  0  0  0  0  0  0
   28.4770   51.4980   -7.5240 C   0  0  0  0  0  0  0  0  0  0  0  0
   28.6160   50.4250   -8.2670 N   0  0  0  0  0  0  0  0  0  0  0  0
   34.4020   51.6630   -5.4390 C   0  0  0  0  0  0  0  0  0  0  0  0
   32.9500   45.0250   -6.1120 C   0  0  0  0  0  0  0  0  0  0  0  0
   34.1420   45.0530   -4.0200 O   0  0  0  0  0  0  0  0  0  0  0  0
   31.6410   44.8230   -6.3890 O   0  0  0  0  0  0  0  0  0  0  0  0
   33.8330   44.6370   -6.8620 O   0  0  0  0  0  0  0  0  0  0  0  0
   35.1110   45.9200   -3.6240 C   0  0  0  0  0  0  0  0  0  0  0  0
   36.4020   45.4510   -3.4190 C   0  0  0  0  0  0  0  0  0  0  0  0
   34.8120   47.2640   -3.4340 C   0  0  0  0  0  0  0  0  0  0  0  0
   37.3970   46.3460   -3.0220 C   0  0  0  0  0  0  0  0  0  0  0  0
   35.7980   48.1550   -3.0390 C   0  0  0  0  0  0  0  0  0  0  0  0
   37.0930   47.6960   -2.8330 C   0  0  0  0  0  0  0  0  0  0  0  0
  1  2  2  0
  2  3  2  0
  2  4  1  6
  2  5  1  0
  3  6  1  0
  4  7  1  0
  5  8  2  0
  5  9  1  0
  6 10  1  0
  7 11  2  0
  7 12  1  0
  8 13  1  0
  9 14  2  0
 15 10  1  1
 12 16  1  0
 11 17  1  0
 16 17  2  0
 13 18  2  0
 14 18  1  0
 15 19  1  0
 15 20  1  0
 19 21  1  0
 19 22  2  0
 20 23  1  0
 23 24  2  0
 23 25  1  0
 24 26  1  0
 25 27  2  0
 26 28  2  0
 27 28  1  0
M  END
