mac-x0433-mac-x0284
     RDKit          3D

 19 20  0  0  0  0  0  0  0  0999 V2000
   28.1660   50.7410   -5.0950 C   0  0  0  0  0  0  0  0  0  0  0  0
   28.8110   52.0450   -4.6800 C   0  0  0  0  0  0  0  0  0  0  0  0
   29.0180   53.0520   -5.6050 C   0  0  0  0  0  0  0  0  0  0  0  0
   28.8330   49.5080   -4.5230 C   0  0  0  0  0  0  0  0  0  0  0  0
   29.1690   52.1800   -3.3830 N   0  0  0  0  0  0  0  0  0  0  0  0
   29.4820   48.5900   -5.3630 C   0  0  0  0  0  0  0  0  0  0  0  0
   28.8120   49.2640   -3.1420 C   0  0  0  0  0  0  0  0  0  0  0  0
   29.7390   53.3350   -3.0260 C   0  0  0  0  0  0  0  0  0  0  0  0
   29.6130   54.2060   -5.1380 C   0  0  0  0  0  0  0  0  0  0  0  0
   30.0980   47.4440   -4.8330 C   0  0  0  0  0  0  0  0  0  0  0  0
   29.4230   48.1250   -2.6100 C   0  0  0  0  0  0  0  0  0  0  0  0
   29.8760   55.3530   -6.0670 C   0  0  0  0  0  0  0  0  0  0  0  0
   30.1100   53.4830   -1.7050 N   0  0  0  0  0  0  0  0  0  0  0  0
   30.7580   46.5340   -5.7930 C   0  0  0  0  0  0  0  0  0  0  0  0
   29.9770   54.3590   -3.8490 N   0  0  0  0  0  0  0  0  0  0  0  0
   30.0680   47.2170   -3.4530 C   0  0  0  0  0  0  0  0  0  0  0  0
   30.6580   46.1100   -2.9110 O   0  0  0  0  0  0  0  0  0  0  0  0
   30.6350   46.5840   -7.0060 O   0  0  0  0  0  0  0  0  0  0  0  0
   31.5320   45.6090   -5.2000 O   0  0  0  0  0  0  0  0  0  0  0  0
  1  2  1  0
  2  3  2  0
  1  4  1  0
  2  5  1  0
  4  6  2  0
  4  7  1  0
  5  8  2  0
  3  9  1  0
  6 10  1  0
  7 11  2  0
  9 12  1  0
  8 13  1  0
 10 14  1  0
  8 15  1  0
  9 15  2  0
 10 16  2  0
 11 16  1  0
 16 17  1  0
 14 18  2  0
 14 19  1  0
M  END
