mac-x0124-mac-x0344
     RDKit          3D

 24 26  0  0  0  0  0  0  0  0999 V2000
   29.6540   45.6770   -5.6230 C   0  0  0  0  0  0  0  0  0  0  0  0
   29.7160   47.1190   -5.5590 N   0  0  0  0  0  0  0  0  0  0  0  0
   30.3860   47.8700   -4.6230 C   0  0  0  0  0  0  0  0  0  0  0  0
   29.0970   47.9220   -6.4550 C   0  0  0  0  0  0  0  0  0  0  0  0
   31.1580   47.1890   -3.5480 C   0  0  0  0  0  0  0  0  0  0  0  0
   30.1610   49.2110   -4.9450 C   0  0  0  0  0  0  0  0  0  0  0  0
   29.3430   49.2390   -6.1140 C   0  0  0  0  0  0  0  0  0  0  0  0
   28.3770   47.4690   -7.4870 N   0  0  0  0  0  0  0  0  0  0  0  0
   31.1800   45.7630   -3.8940 N   0  0  0  0  0  0  0  0  0  0  0  0
   28.7640   50.2050   -6.9560 C   0  0  0  0  0  0  0  0  0  0  0  0
   27.8830   48.4730   -8.2150 C   0  0  0  0  0  0  0  0  0  0  0  0
   28.8930   51.5720   -6.7770 N   0  0  0  0  0  0  0  0  0  0  0  0
   32.2150   45.1810   -4.3800 C   0  0  0  0  0  0  0  0  0  0  0  0
   28.0320   49.7920   -8.0110 N   0  0  0  0  0  0  0  0  0  0  0  0
   32.1530   43.8750   -4.6760 O   0  0  0  0  0  0  0  0  0  0  0  0
   33.5910   45.7590   -4.6860 C   0  0  0  0  0  0  0  0  0  0  0  0
   33.7460   46.4010   -5.7150 O   0  0  0  0  0  0  0  0  0  0  0  0
   34.4890   45.4400   -3.7010 N   0  0  0  0  0  0  0  0  0  0  0  0
   35.5070   46.2430   -3.1750 C   0  0  0  0  0  0  0  0  0  0  0  0
   36.5160   45.5880   -2.4600 C   0  0  0  0  0  0  0  0  0  0  0  0
   35.5670   47.6290   -3.3210 C   0  0  0  0  0  0  0  0  0  0  0  0
   37.5710   46.3060   -1.9000 C   0  0  0  0  0  0  0  0  0  0  0  0
   36.6250   48.3490   -2.7600 C   0  0  0  0  0  0  0  0  0  0  0  0
   37.6260   47.6890   -2.0510 C   0  0  0  0  0  0  0  0  0  0  0  0
  1  2  1  0
  2  3  1  0
  2  4  1  0
  3  5  1  0
  3  6  2  0
  4  7  2  0
  6  7  1  0
  4  8  1  0
  5  9  1  0
  7 10  1  0
  8 11  2  0
 10 12  1  0
  9 13  2  3
 10 14  2  0
 11 14  1  0
 13 15  1  0
 13 16  1  0
 16 17  2  0
 16 18  1  0
 18 19  1  0
 19 20  2  0
 19 21  1  0
 20 22  1  0
 21 23  2  0
 22 24  2  0
 23 24  1  0
M  END
