mac-x0509-mac-x0193
     RDKit          3D

 18 19  0  0  0  0  0  0  0  0999 V2000
   38.9100   47.2310   -5.2830 O   0  0  0  0  0  0  0  0  0  0  0  0
   38.6820   46.2080   -4.6540 C   0  0  0  0  0  0  0  0  0  0  0  0
   37.4250   45.9020   -3.8380 C   0  0  0  0  0  0  0  0  0  0  0  0
   39.5220   45.1090   -4.5530 N   0  0  0  0  0  0  0  0  0  0  0  0
   37.6550   44.4820   -3.4030 C   0  0  0  0  0  0  0  0  0  0  0  0
   38.9140   44.0760   -3.8570 C   0  0  0  0  0  0  0  0  0  0  0  0
   36.8480   43.6180   -2.6780 C   0  0  0  0  0  0  0  0  0  0  0  0
   39.4220   42.8200   -3.6190 C   0  0  0  0  0  0  0  0  0  0  0  0
   35.5860   44.0690   -2.2430 N   0  0  0  0  0  0  0  0  0  0  0  0
   37.3500   42.3340   -2.4250 C   0  0  0  0  0  0  0  0  0  0  0  0
   38.6230   41.9400   -2.8910 C   0  0  0  0  0  0  0  0  0  0  0  0
   34.3520   43.7100   -2.7390 C   0  0  0  0  0  0  0  0  0  0  0  0
   33.9300   44.6050   -3.7130 N   0  0  0  0  0  0  0  0  0  0  0  0
   33.6780   42.7460   -2.4030 O   0  0  0  0  0  0  0  0  0  0  0  0
   32.6860   44.3340   -4.4270 C   0  0  0  0  0  0  0  0  0  0  0  0
   32.6470   45.0910   -5.7470 C   0  0  0  0  0  0  0  0  0  0  0  0
   33.3830   46.2200   -5.7420 O   0  0  0  0  0  0  0  0  0  0  0  0
   32.0280   44.7600   -6.7480 O   0  0  0  0  0  0  0  0  0  0  0  0
  1  2  2  0
  2  3  1  0
  2  4  1  0
  3  5  1  0
  4  6  1  0
  5  6  2  0
  5  7  1  0
  6  8  1  0
  7  9  1  0
  7 10  2  0
  8 11  2  0
 10 11  1  0
  9 12  1  0
 12 13  1  0
 12 14  2  0
 13 15  1  0
 15 16  1  0
 16 17  1  0
 16 18  2  0
M  END
