mac-x0148-mac-x0163
     RDKit          3D

 25 29  0  0  0  0  0  0  0  0999 V2000
   29.2310   51.5670   -5.4200 Cl  0  0  0  0  0  0  0  0  0  0  0  0
   29.9190   50.1110   -6.2360 C   0  0  2  0  0  0  0  0  0  0  0  0
   29.0750   49.8800   -7.4850 C   0  0  0  0  0  0  0  0  0  0  0  0
   29.8160   48.8130   -5.3590 C   0  0  2  0  0  0  0  0  0  0  0  0
   31.1530   50.5320   -6.9530 C   0  0  0  0  0  0  0  0  0  0  0  0
   28.3670   48.4450   -5.1170 N   0  0  0  0  0  0  0  0  0  0  0  0
   27.8020   49.4450   -7.2130 N   0  0  0  0  0  0  0  0  0  0  0  0
   29.6610   50.1210   -8.6220 N   0  0  0  0  0  0  0  0  0  0  0  0
   30.9270   50.5150   -8.2710 C   0  0  0  0  0  0  0  0  0  0  0  0
   30.4810   49.0350   -3.9640 C   0  0  0  0  0  0  0  0  0  0  0  0
   30.4740   47.5630   -6.0220 C   0  0  0  0  0  0  0  0  0  0  0  0
   26.7430   50.1190   -7.8650 N   0  0  0  0  0  0  0  0  0  0  0  0
   27.5130   48.7840   -6.0410 C   0  0  0  0  0  0  0  0  0  0  0  0
   31.2590   46.7410   -4.9880 C   0  0  2  0  0  0  0  0  0  0  0  0
   32.0140   48.9340   -3.9960 C   0  0  0  0  0  0  0  0  0  0  0  0
   32.5160   47.5520   -4.5200 C   0  0  1  0  0  0  0  0  0  0  0  0
   31.4780   45.2600   -5.3670 C   0  0  0  0  0  0  0  0  0  0  0  0
   33.3520   46.8790   -3.3850 C   0  0  0  0  0  0  0  0  0  0  0  0
   33.4340   47.8450   -5.7280 C   0  0  0  0  0  0  0  0  0  0  0  0
   31.5350   44.3950   -4.1840 N   0  0  0  0  0  0  0  0  0  0  0  0
   31.4270   45.1570   -2.9470 C   0  0  2  0  0  0  0  0  0  0  0  0
   32.7030   45.8320   -2.4870 C   0  0  2  0  0  0  0  0  0  0  0  0
   32.2620   46.3200   -1.1130 C   0  0  0  0  0  0  0  0  0  0  0  0
   31.0710   44.3950   -1.6770 C   0  0  0  0  0  0  0  0  0  0  0  0
   31.3770   45.3030   -0.5980 O   0  0  0  0  0  0  0  0  0  0  0  0
  2  1  1  1
  2  3  1  0
  2  4  1  0
  2  5  1  0
  4  6  1  0
  3  7  1  0
  3  8  2  0
  5  9  2  0
  8  9  1  0
  4 10  1  1
  4 11  1  0
  7 12  1  0
  6 13  2  0
  7 13  1  0
 14 11  1  6
 10 15  1  0
 14 16  1  0
 15 16  1  0
 14 17  1  0
 16 18  1  0
 16 19  1  6
 17 20  1  0
 20 21  1  0
 22 18  1  6
 21 22  1  0
 22 23  1  0
 21 24  1  1
 23 25  1  0
 24 25  1  0
M  END
