mac-x0341-mac-x0277
     RDKit          3D

 26 28  0  0  0  0  0  0  0  0999 V2000
   28.4170   55.1070   -7.2880 N   0  0  0  0  0  0  0  0  0  0  0  0
   28.6570   53.8640   -6.8070 C   0  0  0  0  0  0  0  0  0  0  0  0
   28.4640   52.8410   -7.5640 N   0  0  0  0  0  0  0  0  0  0  0  0
   29.1020   53.7610   -5.5200 N   0  0  0  0  0  0  0  0  0  0  0  0
   29.3890   52.5620   -4.9060 C   0  0  0  0  0  0  0  0  0  0  0  0
   28.7220   51.5730   -7.0410 C   0  0  0  0  0  0  0  0  0  0  0  0
   29.7910   52.5020   -3.7500 O   0  0  0  0  0  0  0  0  0  0  0  0
   29.1820   51.3610   -5.7370 C   0  0  0  0  0  0  0  0  0  0  0  0
   28.5070   50.4870   -7.8750 C   0  0  0  0  0  0  0  0  0  0  0  0
   28.7420   49.2050   -7.4290 C   0  0  0  0  0  0  0  0  0  0  0  0
   29.4250   50.0630   -5.2700 C   0  0  0  0  0  0  0  0  0  0  0  0
   29.1970   48.9840   -6.1400 C   0  0  0  0  0  0  0  0  0  0  0  0
   29.4190   47.5740   -5.7660 C   0  0  0  0  0  0  0  0  0  0  0  0
   30.4290   46.8890   -6.6880 C   0  0  0  0  0  0  0  0  0  0  0  0
   31.0450   45.9820   -5.7880 N   0  0  0  0  0  0  0  0  0  0  0  0
   32.2460   45.7990   -5.4730 C   0  0  0  0  0  0  0  0  0  0  0  0
   33.3650   46.3910   -5.9300 O   0  0  0  0  0  0  0  0  0  0  0  0
   32.3820   44.8160   -4.3720 C   0  0  0  0  0  0  0  0  0  0  0  0
   31.1780   45.1680   -3.5180 C   0  0  0  0  0  0  0  0  0  0  0  0
   31.2210   46.3140   -2.7070 C   0  0  0  0  0  0  0  0  0  0  0  0
   30.0070   44.3940   -3.5290 C   0  0  0  0  0  0  0  0  0  0  0  0
   30.1240   46.6840   -1.9220 C   0  0  0  0  0  0  0  0  0  0  0  0
   28.9070   44.7650   -2.7430 C   0  0  0  0  0  0  0  0  0  0  0  0
   30.2670   48.1080   -0.9540 Cl  0  0  0  0  0  0  0  0  0  0  0  0
   28.9640   45.9080   -1.9410 C   0  0  0  0  0  0  0  0  0  0  0  0
   27.5740   46.3100   -0.9970 Cl  0  0  0  0  0  0  0  0  0  0  0  0
  1  2  1  0
  2  3  2  0
  2  4  1  0
  4  5  1  0
  3  6  1  0
  5  7  2  0
  5  8  1  0
  6  8  2  0
  6  9  1  0
  9 10  2  0
  8 11  1  0
 10 12  1  0
 11 12  2  0
 12 13  1  0
 13 14  1  0
 14 15  1  0
 15 16  2  3
 16 17  1  0
 16 18  1  0
 18 19  1  0
 19 20  2  0
 19 21  1  0
 20 22  1  0
 21 23  2  0
 22 24  1  0
 22 25  2  0
 23 25  1  0
 25 26  1  0
M  END
