mac-x0387-mac-x0319
     RDKit          3D

 23 25  0  0  0  0  0  0  0  0999 V2000
   27.4090   51.2350   -6.8860 N   0  0  0  0  0  0  0  0  0  0  0  0
   28.1290   50.1120   -7.2910 C   0  0  0  0  0  0  0  0  0  0  0  0
   27.8530   49.7100   -8.5480 N   0  0  0  0  0  0  0  0  0  0  0  0
   29.0540   49.4820   -6.4440 C   0  0  0  0  0  0  0  0  0  0  0  0
   29.7280   48.3790   -6.9800 C   0  0  0  0  0  0  0  0  0  0  0  0
   28.5120   48.6410   -9.0130 C   0  0  0  0  0  0  0  0  0  0  0  0
   29.3430   49.8870   -5.1150 C   0  0  0  0  0  0  0  0  0  0  0  0
   29.4410   47.9630   -8.2800 C   0  0  0  0  0  0  0  0  0  0  0  0
   30.6680   47.7100   -6.2410 C   0  0  0  0  0  0  0  0  0  0  0  0
   30.2850   49.2030   -4.3480 C   0  0  0  0  0  0  0  0  0  0  0  0
   31.3750   46.5570   -6.9130 C   0  0  0  0  0  0  0  0  0  0  0  0
   30.9530   48.1140   -4.9080 C   0  0  0  0  0  0  0  0  0  0  0  0
   31.8680   45.7140   -5.9210 N   0  0  0  0  0  0  0  0  0  0  0  0
   33.0330   45.3130   -5.7170 C   0  0  0  0  0  0  0  0  0  0  0  0
   34.0820   45.6310   -6.5090 O   0  0  0  0  0  0  0  0  0  0  0  0
   33.1970   44.5080   -4.4980 C   0  0  0  0  0  0  0  0  0  0  0  0
   31.9290   44.9350   -3.7820 C   0  0  0  0  0  0  0  0  0  0  0  0
   30.7420   44.1950   -3.8300 C   0  0  0  0  0  0  0  0  0  0  0  0
   31.9390   46.1460   -3.0600 C   0  0  0  0  0  0  0  0  0  0  0  0
   29.6020   44.6580   -3.1760 C   0  0  0  0  0  0  0  0  0  0  0  0
   30.7900   46.6000   -2.4090 C   0  0  0  0  0  0  0  0  0  0  0  0
   28.4350   43.9540   -3.2120 O   0  0  0  0  0  0  0  0  0  0  0  0
   29.6180   45.8550   -2.4670 C   0  0  0  0  0  0  0  0  0  0  0  0
  1  2  1  0
  2  3  2  0
  2  4  1  0
  4  5  2  0
  3  6  1  0
  4  7  1  0
  5  8  1  0
  6  8  2  0
  5  9  1  0
  7 10  2  0
  9 11  1  0
  9 12  2  0
 10 12  1  0
 11 13  1  0
 13 14  2  3
 14 15  1  0
 14 16  1  0
 16 17  1  0
 17 18  2  0
 17 19  1  0
 18 20  1  0
 19 21  2  0
 20 22  1  0
 20 23  2  0
 21 23  1  0
M  END
