mac-x0588-mac-x0590
     RDKit          3D

 23 26  0  0  0  0  0  0  0  0999 V2000
   29.8730   51.4590   -6.4870 N   0  0  0  0  0  0  0  0  0  0  0  0
   28.7410   50.7200   -5.9550 C   0  0  1  0  0  0  0  0  0  0  0  0
   28.5000   49.3170   -6.5650 C   0  0  2  0  0  0  0  0  0  0  0  0
   29.0010   50.6780   -4.5290 N   0  0  0  0  0  0  0  0  0  0  0  0
   29.9520   49.6540   -4.0840 C   0  0  0  0  0  0  0  0  0  0  0  0
   29.5580   48.3740   -6.0520 C   0  0  1  0  0  0  0  0  0  0  0  0
   28.6250   49.1070   -8.0250 N   0  0  0  0  0  0  0  0  0  0  0  0
   29.5770   48.3490   -4.6180 N   0  0  0  0  0  0  0  0  0  0  0  0
   29.1010   47.1690   -6.7320 N   0  0  0  0  0  0  0  0  0  0  0  0
   28.8680   47.6570   -8.0980 C   0  0  0  0  0  0  0  0  0  0  0  0
   30.1220   47.1730   -3.8930 C   0  0  2  0  0  0  0  0  0  0  0  0
   31.3710   46.6280   -4.6460 C   0  0  0  0  0  0  0  0  0  0  0  0
   29.1550   46.0130   -3.4760 C   0  0  2  0  0  0  0  0  0  0  0  0
   32.5680   46.3590   -3.7180 C   0  0  0  0  0  0  0  0  0  0  0  0
   28.3070   46.3710   -2.3630 O   0  0  0  0  0  0  0  0  0  0  0  0
   29.7750   44.6550   -3.1430 C   0  0  0  0  0  0  0  0  0  0  0  0
   28.9110   44.1270   -2.0170 C   0  0  0  0  0  0  0  0  0  0  0  0
   28.4870   45.4020   -1.3160 C   0  0  0  0  0  0  0  0  0  0  0  0
   33.5850   45.3750   -4.3090 C   0  0  2  0  0  0  0  0  0  0  0  0
   33.6270   45.3870   -5.8330 C   0  0  0  0  0  0  0  0  0  0  0  0
   33.3130   43.9110   -3.9920 C   0  0  0  0  0  0  0  0  0  0  0  0
   32.4920   43.4680   -5.1840 C   0  0  0  0  0  0  0  0  0  0  0  0
   33.0080   44.1800   -6.3100 O   0  0  0  0  0  0  0  0  0  0  0  0
  2  1  1  6
  2  3  1  0
  2  4  1  0
  4  5  1  0
  3  6  1  0
  3  7  1  6
  5  8  1  0
  6  8  1  0
  6  9  1  6
  7 10  1  0
  9 10  1  0
  8 11  1  0
 11 12  1  6
 11 13  1  0
 12 14  1  0
 13 15  1  0
 13 16  1  1
 16 17  1  0
 15 18  1  0
 17 18  1  0
 19 14  1  6
 19 20  1  0
 19 21  1  0
 21 22  1  0
 20 23  1  0
 22 23  1  0
M  END
