mac-x0282-mac-x0387
     RDKit          3D

 15 17  0  0  0  0  0  0  0  0999 V2000
   27.1570   49.9340   -8.6920 N   0  0  0  0  0  0  0  0  0  0  0  0
   28.4280   49.5080   -8.2410 N   0  0  0  0  0  0  0  0  0  0  0  0
   29.1970   50.4410   -7.3990 C   0  0  2  0  0  0  0  0  0  0  0  0
   28.6760   48.1620   -8.1770 C   0  0  0  0  0  0  0  0  0  0  0  0
   29.4550   49.8920   -5.9680 C   0  0  1  0  0  0  0  0  0  0  0  0
   28.3390   51.6060   -7.1430 N   0  0  0  0  0  0  0  0  0  0  0  0
   29.2720   47.5730   -7.1330 C   0  0  0  0  0  0  0  0  0  0  0  0
   27.7370   51.4600   -5.9140 C   0  0  0  0  0  0  0  0  0  0  0  0
   28.3080   50.5030   -5.1790 C   0  0  0  0  0  0  0  0  0  0  0  0
   29.7240   48.3600   -5.9180 C   0  0  0  0  0  0  0  0  0  0  0  0
   29.1100   47.7750   -4.6470 C   0  0  0  0  0  0  0  0  0  0  0  0
   31.2380   48.2750   -5.7950 C   0  0  0  0  0  0  0  0  0  0  0  0
   29.7300   47.8520   -3.4630 C   0  0  0  0  0  0  0  0  0  0  0  0
   31.8470   48.3550   -4.6040 C   0  0  0  0  0  0  0  0  0  0  0  0
   31.0660   48.5140   -3.3330 C   0  0  0  0  0  0  0  0  0  0  0  0
  1  2  1  0
  2  3  1  0
  2  4  1  0
  3  5  1  0
  3  6  1  1
  4  7  2  0
  6  8  1  0
  5  9  1  1
  8  9  2  0
  5 10  1  0
 10  7  1  0
 10 11  1  0
 10 12  1  0
 11 13  2  0
 12 14  2  0
 13 15  1  0
 14 15  1  0
M  END
