mac-x0373-mac-x0348
     RDKit          3D

 29 32  0  0  0  0  0  0  0  0999 V2000
   30.9680   45.7140   -5.7400 N   0  0  0  0  0  0  0  0  0  0  0  0
   30.1200   46.5690   -4.8610 C   0  0  2  0  0  0  0  0  0  0  0  0
   28.7900   46.6780   -5.4320 O   0  0  0  0  0  0  0  0  0  0  0  0
   32.1470   45.2910   -5.5090 C   0  0  0  0  0  0  0  0  0  0  0  0
   30.8500   47.9860   -4.9830 C   0  0  0  0  0  0  0  0  0  0  0  0
   32.8930   45.5500   -4.2570 C   0  0  0  0  0  0  0  0  0  0  0  0
   32.8680   44.5610   -6.3640 O   0  0  0  0  0  0  0  0  0  0  0  0
   29.9000   46.0130   -3.4000 C   0  0  2  0  0  0  0  0  0  0  0  0
   32.2380   48.1160   -4.3430 C   0  0  0  0  0  0  0  0  0  0  0  0
   29.9710   49.2420   -4.9580 C   0  0  0  0  0  0  0  0  0  0  0  0
   28.9200   44.8770   -3.1320 C   0  0  0  0  0  0  0  0  0  0  0  0
   29.4130   47.1180   -2.4130 C   0  0  1  0  0  0  0  0  0  0  0  0
   32.6590   47.3810   -3.2220 C   0  0  0  0  0  0  0  0  0  0  0  0
   33.1590   49.0180   -4.9010 C   0  0  0  0  0  0  0  0  0  0  0  0
   29.7130   49.9970   -3.8100 C   0  0  0  0  0  0  0  0  0  0  0  0
   29.3830   49.6620   -6.1660 C   0  0  0  0  0  0  0  0  0  0  0  0
   28.6560   44.9760   -1.6900 N   0  0  0  0  0  0  0  0  0  0  0  0
   28.4940   46.4070   -1.3780 C   0  0  1  0  0  0  0  0  0  0  0  0
   30.5300   47.9600   -1.8280 C   0  0  0  0  0  0  0  0  0  0  0  0
   27.5850   44.1060   -1.2350 C   0  0  0  0  0  0  0  0  0  0  0  0
   33.9390   47.5330   -2.6870 C   0  0  0  0  0  0  0  0  0  0  0  0
   34.4370   49.1730   -4.3670 C   0  0  0  0  0  0  0  0  0  0  0  0
   28.9000   51.1300   -3.8620 C   0  0  0  0  0  0  0  0  0  0  0  0
   28.5720   50.7930   -6.2190 C   0  0  0  0  0  0  0  0  0  0  0  0
   30.6530   48.2050   -0.5190 C   0  0  0  0  0  0  0  0  0  0  0  0
   28.7300   46.8420    0.0580 C   0  0  0  0  0  0  0  0  0  0  0  0
   34.8300   48.4300   -3.2620 C   0  0  0  0  0  0  0  0  0  0  0  0
   28.3290   51.5280   -5.0670 C   0  0  0  0  0  0  0  0  0  0  0  0
   29.7200   47.6670    0.4290 C   0  0  0  0  0  0  0  0  0  0  0  0
  2  1  1  0
  2  3  1  6
  1  4  2  3
  2  5  1  0
  4  6  1  0
  4  7  1  0
  2  8  1  0
  5  9  1  0
  5 10  1  0
  8 11  1  6
  8 12  1  0
  9 13  2  0
  9 14  1  0
 10 15  2  0
 10 16  1  0
 11 17  1  0
 12 18  1  0
 17 18  1  0
 12 19  1  1
 17 20  1  0
 13 21  1  0
 14 22  2  0
 15 23  1  0
 16 24  2  0
 19 25  2  0
 18 26  1  1
 21 27  2  0
 22 27  1  0
 23 28  2  0
 24 28  1  0
 25 29  1  0
 26 29  2  0
M  END
