mac-x0139-mac-x0301
     RDKit          3D

 17 18  0  0  0  0  0  0  0  0999 V2000
   30.3470   47.3570   -4.2230 C   0  0  0  0  0  0  0  0  0  0  0  0
   30.0360   46.7880   -5.4640 N   0  0  0  0  0  0  0  0  0  0  0  0
   30.4090   45.3690   -5.6390 C   0  0  0  0  0  0  0  0  0  0  0  0
   31.0750   46.9370   -3.3310 O   0  0  0  0  0  0  0  0  0  0  0  0
   29.5190   47.4920   -6.5650 C   0  0  0  0  0  0  0  0  0  0  0  0
   31.9140   45.1470   -5.5580 C   0  0  0  0  0  0  0  0  0  0  0  0
   29.3700   48.8370   -6.6070 C   0  0  0  0  0  0  0  0  0  0  0  0
   29.1560   46.6760   -7.6470 N   0  0  0  0  0  0  0  0  0  0  0  0
   32.5350   44.9460   -6.9110 C   0  0  0  0  0  0  0  0  0  0  0  0
   28.8050   49.4130   -7.8570 C   0  0  0  0  0  0  0  0  0  0  0  0
   28.6720   47.2380   -8.7110 C   0  0  0  0  0  0  0  0  0  0  0  0
   29.5850   49.9920   -5.7970 C   0  0  0  0  0  0  0  0  0  0  0  0
   31.9540   44.6390   -7.9360 O   0  0  0  0  0  0  0  0  0  0  0  0
   33.8690   45.1360   -6.9140 O   0  0  0  0  0  0  0  0  0  0  0  0
   28.4860   48.5710   -8.8670 N   0  0  0  0  0  0  0  0  0  0  0  0
   28.6980   50.7110   -7.7980 N   0  0  0  0  0  0  0  0  0  0  0  0
   29.1770   51.0320   -6.5380 C   0  0  0  0  0  0  0  0  0  0  0  0
  1  2  1  0
  2  3  1  0
  1  4  2  0
  2  5  1  0
  3  6  1  0
  5  7  2  0
  5  8  1  0
  6  9  1  0
  7 10  1  0
  8 11  2  0
  7 12  1  0
  9 13  2  0
  9 14  1  0
 10 15  1  0
 11 15  1  0
 10 16  2  0
 12 17  2  0
 16 17  1  0
M  END
