mac-x0115-mac-x0178
     RDKit          3D

 27 30  0  0  0  0  0  0  0  0999 V2000
   29.3350   45.3970   -1.4850 S   0  0  0  0  0  0  0  0  0  0  0  0
   29.0490   43.9950   -2.2550 C   0  0  1  0  0  0  0  0  0  0  0  0
   27.6810   43.4030   -1.8710 C   0  0  0  0  0  0  0  0  0  0  0  0
   28.7820   45.4530    0.2080 N   0  0  0  0  0  0  0  0  0  0  0  0
   30.5060   44.8590   -0.7720 O   0  0  0  0  0  0  0  0  0  0  0  0
   27.9250   45.9970   -1.7570 O   0  0  0  0  0  0  0  0  0  0  0  0
   30.1210   46.7680   -1.9870 C   0  0  2  0  0  0  0  0  0  0  0  0
   28.9730   44.1460   -3.6590 O   0  0  0  0  0  0  0  0  0  0  0  0
   29.2050   47.9470   -2.0010 C   0  0  0  0  0  0  0  0  0  0  0  0
   31.1070   46.9760   -3.3720 C   0  0  1  0  0  0  0  0  0  0  0  0
   30.2760   44.3190   -4.1690 C   0  0  0  0  0  0  0  0  0  0  0  0
   30.7110   45.9270   -4.5620 S   0  0  0  0  0  0  0  0  0  0  0  0
   30.8230   48.4960   -3.5300 C   0  0  0  0  0  0  0  0  0  0  0  0
   30.2160   47.6940   -2.5710 C   0  0  0  0  0  0  0  0  0  0  0  0
   29.2260   46.3610   -4.5020 O   0  0  0  0  0  0  0  0  0  0  0  0
   32.0860   45.5890   -4.9170 O   0  0  0  0  0  0  0  0  0  0  0  0
   30.5790   46.4030   -6.1950 N   0  0  0  0  0  0  0  0  0  0  0  0
   30.2480   45.5110   -7.2120 C   0  0  0  0  0  0  0  0  0  0  0  0
   30.5900   47.8020   -6.4680 C   0  0  0  0  0  0  0  0  0  0  0  0
   30.7160   43.9710   -7.3700 S   0  0  0  0  0  0  0  0  0  0  0  0
   29.3900   46.0040   -8.2730 N   0  0  0  0  0  0  0  0  0  0  0  0
   29.4870   48.3160   -7.3770 C   0  0  2  0  0  0  0  0  0  0  0  0
   31.2890   48.8620   -6.1740 C   0  0  0  0  0  0  0  0  0  0  0  0
   29.2820   47.4330   -8.5080 C   0  0  0  0  0  0  0  0  0  0  0  0
   29.6790   49.6810   -7.5160 N   0  0  0  0  0  0  0  0  0  0  0  0
   30.7240   50.0320   -6.8240 C   0  0  0  0  0  0  0  0  0  0  0  0
   29.0250   47.8270   -9.6430 O   0  0  0  0  0  0  0  0  0  0  0  0
  1  2  1  0
  2  3  1  1
  1  4  1  0
  1  5  2  0
  1  6  1  0
  1  7  1  0
  2  8  1  0
  7  9  1  6
  7 10  1  0
  8 11  1  0
 10 12  1  0
 11 12  1  0
 10 13  1  6
  9 14  2  0
 13 14  1  0
 12 15  2  0
 12 16  1  0
 12 17  1  0
 17 18  1  0
 17 19  1  0
 18 20  2  0
 18 21  1  0
 19 22  1  0
 19 23  2  0
 21 24  1  0
 22 24  1  0
 22 25  1  6
 23 26  1  0
 25 26  2  0
 24 27  2  0
M  END
