mac-x0564-mac-x0380
     RDKit          3D

 23 26  0  0  0  0  0  0  0  0999 V2000
   30.1900   46.3990   -7.4150 O   0  0  0  0  0  0  0  0  0  0  0  0
   30.3260   46.6880   -6.2350 C   0  0  0  0  0  0  0  0  0  0  0  0
   30.9300   45.8210   -5.3200 N   0  0  0  0  0  0  0  0  0  0  0  0
   29.8870   47.9310   -5.6410 C   0  0  0  0  0  0  0  0  0  0  0  0
   30.0800   48.2520   -4.3270 C   0  0  0  0  0  0  0  0  0  0  0  0
   31.0770   46.2010   -4.0910 C   0  0  0  0  0  0  0  0  0  0  0  0
   29.2240   48.9550   -6.2890 O   0  0  0  0  0  0  0  0  0  0  0  0
   30.7130   47.3910   -3.5060 N   0  0  0  0  0  0  0  0  0  0  0  0
   29.0160   49.9050   -5.3290 C   0  0  0  0  0  0  0  0  0  0  0  0
   29.5170   49.5150   -4.1370 C   0  0  0  0  0  0  0  0  0  0  0  0
   29.3800   50.4160   -3.0060 C   0  0  1  0  0  0  0  0  0  0  0  0
   28.3220   51.2050   -5.5640 C   0  0  0  0  0  0  0  0  0  0  0  0
   30.1010   49.8140   -1.8490 C   0  0  0  0  0  0  0  0  0  0  0  0
   29.8420   51.8170   -3.4950 C   0  0  0  0  0  0  0  0  0  0  0  0
   29.0270   52.3610   -4.7420 C   0  0  2  0  0  0  0  0  0  0  0  0
   30.0090   48.4700   -1.8830 O   0  0  0  0  0  0  0  0  0  0  0  0
   30.7040   50.3700   -0.9640 O   0  0  0  0  0  0  0  0  0  0  0  0
   27.7800   53.5660   -4.0650 S   0  0  0  0  0  0  0  0  0  0  0  0
   29.8200   53.2110   -5.7750 C   0  0  0  0  0  0  0  0  0  0  0  0
   29.0090   53.9890   -6.7200 N   0  0  0  0  0  0  0  0  0  0  0  0
   27.5380   54.9840   -5.1200 C   0  0  0  0  0  0  0  0  0  0  0  0
   28.2750   55.0960   -6.3930 C   0  0  0  0  0  0  0  0  0  0  0  0
   28.1930   56.1190   -7.0550 O   0  0  0  0  0  0  0  0  0  0  0  0
  1  2  2  0
  2  3  1  0
  2  4  1  0
  4  5  2  0
  3  6  2  0
  4  7  1  0
  5  8  1  0
  6  8  1  0
  7  9  1  0
  5 10  1  0
  9 10  2  0
 10 11  1  0
  9 12  1  0
 11 13  1  1
 11 14  1  0
 15 12  1  6
 14 15  1  0
 13 16  1  0
 13 17  2  0
 15 18  1  0
 15 19  1  0
 19 20  1  0
 18 21  2  0
 20 22  1  0
 21 22  1  0
 22 23  2  0
M  END
