mac-x0123-mac-x0584
     RDKit          3D

 30 36  0  0  0  0  0  0  0  0999 V2000
   30.9470   53.1590   -6.8440 N   0  0  0  0  0  0  0  0  0  0  0  0
   29.8210   52.5620   -6.2030 C   0  0  2  0  0  0  0  0  0  0  0  0
   28.7950   53.6350   -5.7310 C   0  0  1  0  0  0  0  0  0  0  0  0
   30.1070   51.4890   -5.2070 N   0  0  0  0  0  0  0  0  0  0  0  0
   30.2660   52.0520   -3.8320 C   0  0  1  0  0  0  0  0  0  0  0  0
   29.1470   54.2290   -4.3660 C   0  0  1  0  0  0  0  0  0  0  0  0
   28.7380   54.9000   -6.5510 C   0  0  0  0  0  0  0  0  0  0  0  0
   29.0750   50.4130   -5.1170 C   0  0  2  0  0  0  0  0  0  0  0  0
   29.5880   53.2440   -3.3860 N   0  0  0  0  0  0  0  0  0  0  0  0
   30.0490   55.4330   -4.6910 C   0  0  0  0  0  0  0  0  0  0  0  0
   29.4370   55.8910   -5.9730 C   0  0  0  0  0  0  0  0  0  0  0  0
   29.7450   51.0430   -2.9380 N   0  0  0  0  0  0  0  0  0  0  0  0
   28.5680   50.5010   -3.6640 C   0  0  0  0  0  0  0  0  0  0  0  0
   29.1480   49.0740   -5.8220 C   0  0  0  0  0  0  0  0  0  0  0  0
   27.9070   51.0050   -5.9740 C   0  0  0  0  0  0  0  0  0  0  0  0
   28.2440   49.1220   -6.8900 C   0  0  0  0  0  0  0  0  0  0  0  0
   29.7970   47.8610   -5.7530 C   0  0  0  0  0  0  0  0  0  0  0  0
   27.5140   50.3010   -6.9730 N   0  0  0  0  0  0  0  0  0  0  0  0
   30.7270   47.5170   -4.7810 N   0  0  0  0  0  0  0  0  0  0  0  0
   29.5560   46.8870   -6.6660 N   0  0  0  0  0  0  0  0  0  0  0  0
   27.9770   48.2020   -7.8080 N   0  0  0  0  0  0  0  0  0  0  0  0
   30.9580   46.0730   -4.5040 C   0  0  1  0  0  0  0  0  0  0  0  0
   30.7050   48.2840   -3.5180 C   0  0  0  0  0  0  0  0  0  0  0  0
   28.6730   47.0990   -7.6460 C   0  0  0  0  0  0  0  0  0  0  0  0
   32.3730   45.5110   -4.6190 C   0  0  0  0  0  0  0  0  0  0  0  0
   30.5060   45.9270   -3.0380 C   0  0  0  0  0  0  0  0  0  0  0  0
   30.8440   47.2590   -2.3960 C   0  0  0  0  0  0  0  0  0  0  0  0
   32.7350   44.3850   -5.6230 C   0  0  0  0  0  0  0  0  0  0  0  0
   33.5830   46.2990   -5.1910 C   0  0  0  0  0  0  0  0  0  0  0  0
   34.1790   44.9290   -5.5820 C   0  0  0  0  0  0  0  0  0  0  0  0
  2  1  1  1
  2  3  1  0
  2  4  1  0
  4  5  1  0
  3  6  1  0
  3  7  1  6
  4  8  1  0
  5  9  1  6
  6  9  1  0
  6 10  1  6
  7 11  2  0
 10 11  1  0
  5 12  1  0
  8 13  1  1
 12 13  1  0
  8 14  1  0
  8 15  1  0
 14 16  2  0
 14 17  1  0
 15 18  2  0
 16 18  1  0
 17 19  1  0
 17 20  2  0
 16 21  1  0
 19 22  1  0
 19 23  1  0
 20 24  1  0
 21 24  2  0
 22 25  1  1
 22 26  1  0
 23 27  1  0
 26 27  1  0
 25 28  1  0
 25 29  1  0
 28 30  1  0
 29 30  1  0
M  END
