mac-x0341-mac-x0555
     RDKit          3D

 16 18  0  0  0  0  0  0  0  0999 V2000
   29.0790   54.4730   -7.1630 N   0  0  0  0  0  0  0  0  0  0  0  0
   28.2470   53.4400   -6.6540 C   0  0  1  0  0  0  0  0  0  0  0  0
   28.7270   52.2750   -7.3230 N   0  0  0  0  0  0  0  0  0  0  0  0
   28.5400   53.4390   -5.2600 N   0  0  0  0  0  0  0  0  0  0  0  0
   29.5710   52.4740   -4.8670 C   0  0  2  0  0  0  0  0  0  0  0  0
   28.3220   51.1250   -6.5180 C   0  0  2  0  0  0  0  0  0  0  0  0
   30.7760   52.8840   -5.4990 O   0  0  0  0  0  0  0  0  0  0  0  0
   29.2240   50.9680   -5.2440 C   0  0  1  0  0  0  0  0  0  0  0  0
   28.1520   49.8440   -7.3070 C   0  0  0  0  0  0  0  0  0  0  0  0
   29.8090   52.6860   -3.3850 C   0  0  0  0  0  0  0  0  0  0  0  0
   29.1330   48.9270   -7.3120 C   0  0  0  0  0  0  0  0  0  0  0  0
   30.4310   50.0880   -5.6060 C   0  0  0  0  0  0  0  0  0  0  0  0
   29.3420   51.8460   -2.4490 C   0  0  0  0  0  0  0  0  0  0  0  0
   28.5050   50.2530   -4.0760 C   0  0  0  0  0  0  0  0  0  0  0  0
   30.3580   49.1490   -6.5690 C   0  0  0  0  0  0  0  0  0  0  0  0
   28.5770   50.6780   -2.8070 C   0  0  0  0  0  0  0  0  0  0  0  0
  2  1  1  6
  2  3  1  0
  2  4  1  0
  4  5  1  0
  3  6  1  0
  5  7  1  6
  5  8  1  0
  6  8  1  0
  6  9  1  6
  5 10  1  0
  9 11  2  0
  8 12  1  6
 10 13  2  0
  8 14  1  0
 11 15  1  0
 12 15  2  0
 13 16  1  0
 14 16  2  0
M  END
