mac-x0148-mac-x0271
     RDKit          3D

 25 29  0  0  0  0  0  0  0  0999 V2000
   29.4310   50.4520   -3.4050 O   0  0  0  0  0  0  0  0  0  0  0  0
   29.8330   50.7490   -4.7430 C   0  0  1  0  0  0  0  0  0  0  0  0
   29.5080   49.5790   -5.6030 C   0  0  0  0  0  0  0  0  0  0  0  0
   28.9230   51.8370   -5.4430 C   0  0  2  0  0  0  0  0  0  0  0  0
   28.3590   49.8260   -6.3270 C   0  0  0  0  0  0  0  0  0  0  0  0
   30.1290   48.3680   -5.7810 C   0  0  0  0  0  0  0  0  0  0  0  0
   27.8070   51.1050   -6.0620 N   0  0  0  0  0  0  0  0  0  0  0  0
   29.6180   52.5930   -6.5440 C   0  0  0  0  0  0  0  0  0  0  0  0
   28.3770   52.8580   -4.4160 C   0  0  0  0  0  0  0  0  0  0  0  0
   31.3130   48.0710   -5.0610 N   0  0  0  0  0  0  0  0  0  0  0  0
   29.6130   47.4680   -6.6420 N   0  0  0  0  0  0  0  0  0  0  0  0
   27.8140   48.9710   -7.1840 N   0  0  0  0  0  0  0  0  0  0  0  0
   30.0560   53.8510   -6.3880 C   0  0  0  0  0  0  0  0  0  0  0  0
   29.3250   53.8970   -4.1010 O   0  0  0  0  0  0  0  0  0  0  0  0
   31.0140   47.1370   -3.9550 C   0  0  2  0  0  0  0  0  0  0  0  0
   32.3050   47.4630   -5.9870 C   0  0  0  0  0  0  0  0  0  0  0  0
   28.4850   47.8150   -7.2960 C   0  0  0  0  0  0  0  0  0  0  0  0
   29.8900   54.5880   -5.1220 C   0  0  0  0  0  0  0  0  0  0  0  0
   30.2440   55.7530   -5.0200 O   0  0  0  0  0  0  0  0  0  0  0  0
   30.1020   47.6030   -2.8290 C   0  0  0  0  0  0  0  0  0  0  0  0
   32.2900   46.9290   -3.1550 C   0  0  1  0  0  0  0  0  0  0  0  0
   33.6060   47.1220   -5.2400 C   0  0  0  0  0  0  0  0  0  0  0  0
   31.7580   46.2050   -1.9410 C   0  0  0  0  0  0  0  0  0  0  0  0
   30.4720   46.8040   -1.6740 O   0  0  0  0  0  0  0  0  0  0  0  0
   33.3530   46.2510   -4.0000 C   0  0  0  0  0  0  0  0  0  0  0  0
  2  1  1  1
  2  3  1  0
  2  4  1  0
  3  5  2  0
  3  6  1  0
  4  7  1  0
  5  7  1  0
  4  8  1  6
  4  9  1  0
  6 10  1  0
  6 11  2  0
  5 12  1  0
  8 13  2  0
  9 14  1  0
 10 15  1  0
 10 16  1  0
 11 17  1  0
 12 17  2  0
 13 18  1  0
 14 18  1  0
 18 19  2  0
 15 20  1  1
 15 21  1  0
 16 22  1  0
 21 23  1  1
 20 24  1  0
 23 24  1  0
 21 25  1  0
 22 25  1  0
M  END
