mac-x0283-mac-x0282
     RDKit          3D

 15 17  0  0  0  0  0  0  0  0999 V2000
   27.9690   54.2120   -6.5490 N   0  0  0  0  0  0  0  0  0  0  0  0
   28.7260   53.6630   -5.5840 C   0  0  0  0  0  0  0  0  0  0  0  0
   29.3690   54.3530   -4.6410 N   0  0  0  0  0  0  0  0  0  0  0  0
   28.9420   52.2820   -5.4390 C   0  0  0  0  0  0  0  0  0  0  0  0
   30.0200   53.4130   -3.8600 O   0  0  0  0  0  0  0  0  0  0  0  0
   29.7660   52.1600   -4.3370 C   0  0  0  0  0  0  0  0  0  0  0  0
   28.4640   51.1000   -6.2070 C   0  0  0  0  0  0  0  0  0  0  0  0
   30.2460   50.9380   -3.8180 C   0  0  0  0  0  0  0  0  0  0  0  0
   29.2800   49.7870   -5.8930 C   0  0  1  0  0  0  0  0  0  0  0  0
   30.0210   49.8260   -4.5390 C   0  0  0  0  0  0  0  0  0  0  0  0
   28.3150   48.6060   -5.8630 C   0  0  0  0  0  0  0  0  0  0  0  0
   30.3430   49.5690   -7.0280 C   0  0  0  0  0  0  0  0  0  0  0  0
   28.2610   47.7030   -6.8560 C   0  0  0  0  0  0  0  0  0  0  0  0
   29.7580   49.0640   -8.2830 N   0  0  0  0  0  0  0  0  0  0  0  0
   29.1340   47.7570   -8.0750 C   0  0  0  0  0  0  0  0  0  0  0  0
  1  2  1  0
  2  3  2  0
  2  4  1  0
  3  5  1  0
  4  6  2  0
  5  6  1  0
  4  7  1  0
  6  8  1  0
  9  7  1  6
  8 10  2  0
  9 10  1  0
  9 11  1  0
  9 12  1  0
 11 13  2  0
 12 14  1  0
 13 15  1  0
 14 15  1  0
M  END
