mac-x0357-mac-x0361
     RDKit          3D

 22 23  0  0  0  0  0  0  0  0999 V2000
   32.2080   43.5120   -4.7440 C   0  0  0  0  0  0  0  0  0  0  0  0
   32.8690   44.8140   -4.3810 C   0  0  0  0  0  0  0  0  0  0  0  0
   33.9290   44.8550   -3.4680 C   0  0  0  0  0  0  0  0  0  0  0  0
   32.4450   46.0310   -4.9470 C   0  0  0  0  0  0  0  0  0  0  0  0
   34.3640   43.6880   -2.9000 O   0  0  0  0  0  0  0  0  0  0  0  0
   31.3380   46.0810   -5.9160 C   0  0  0  0  0  0  0  0  0  0  0  0
   33.0670   47.2450   -4.6070 C   0  0  0  0  0  0  0  0  0  0  0  0
   34.5540   46.0600   -3.1240 C   0  0  0  0  0  0  0  0  0  0  0  0
   30.1360   46.4250   -5.6190 N   0  0  0  0  0  0  0  0  0  0  0  0
   31.7220   45.7260   -7.1610 O   0  0  0  0  0  0  0  0  0  0  0  0
   34.1180   47.2550   -3.6970 C   0  0  0  0  0  0  0  0  0  0  0  0
   29.8990   46.7790   -4.2130 C   0  0  0  0  0  0  0  0  0  0  0  0
   30.7810   47.7540   -3.6350 O   0  0  0  0  0  0  0  0  0  0  0  0
   30.4980   49.0770   -3.8160 C   0  0  0  0  0  0  0  0  0  0  0  0
   30.4940   49.5010   -5.1500 C   0  0  0  0  0  0  0  0  0  0  0  0
   30.2230   50.0040   -2.8100 C   0  0  0  0  0  0  0  0  0  0  0  0
   30.2200   50.8320   -5.4760 C   0  0  0  0  0  0  0  0  0  0  0  0
   29.9460   51.3400   -3.1310 C   0  0  0  0  0  0  0  0  0  0  0  0
   29.9440   51.7590   -4.4670 C   0  0  0  0  0  0  0  0  0  0  0  0
   29.6560   53.1670   -4.8540 C   0  0  0  0  0  0  0  0  0  0  0  0
   28.8190   53.3690   -5.9190 N   0  0  0  0  0  0  0  0  0  0  0  0
   30.1400   54.1160   -4.2520 O   0  0  0  0  0  0  0  0  0  0  0  0
  1  2  1  0
  2  3  2  0
  2  4  1  0
  3  5  1  0
  4  6  1  0
  4  7  2  0
  3  8  1  0
  6  9  2  3
  6 10  1  0
  7 11  1  0
  8 11  2  0
  9 12  1  0
 12 13  1  0
 13 14  1  0
 14 15  2  0
 14 16  1  0
 15 17  1  0
 16 18  2  0
 17 19  2  0
 18 19  1  0
 19 20  1  0
 20 21  1  0
 20 22  2  0
M  END
