mac-x0387-mac-x0404
     RDKit          3D

 27 30  0  0  0  0  0  0  0  0999 V2000
   28.2490   51.4630   -7.3370 N   0  0  0  0  0  0  0  0  0  0  0  0
   28.5720   50.1030   -7.4410 C   0  0  0  0  0  0  0  0  0  0  0  0
   28.3270   49.5730   -8.6510 N   0  0  0  0  0  0  0  0  0  0  0  0
   29.1080   49.3820   -6.3500 C   0  0  0  0  0  0  0  0  0  0  0  0
   29.4050   48.0100   -6.5480 C   0  0  0  0  0  0  0  0  0  0  0  0
   28.6190   48.2690   -8.8110 C   0  0  0  0  0  0  0  0  0  0  0  0
   29.3570   49.9590   -5.0860 C   0  0  0  0  0  0  0  0  0  0  0  0
   29.1450   47.4660   -7.8160 C   0  0  0  0  0  0  0  0  0  0  0  0
   29.9420   47.2540   -5.4770 C   0  0  0  0  0  0  0  0  0  0  0  0
   29.8820   49.2150   -4.0390 C   0  0  0  0  0  0  0  0  0  0  0  0
   30.2770   45.7810   -5.6280 C   0  0  0  0  0  0  0  0  0  0  0  0
   30.1730   47.8690   -4.2350 C   0  0  0  0  0  0  0  0  0  0  0  0
   31.4660   45.5900   -6.4150 O   0  0  0  0  0  0  0  0  0  0  0  0
   32.6610   45.5820   -5.7580 C   0  0  0  0  0  0  0  0  0  0  0  0
   33.5940   46.3480   -5.9900 O   0  0  0  0  0  0  0  0  0  0  0  0
   32.7340   44.4920   -4.6860 C   0  0  0  0  0  0  0  0  0  0  0  0
   31.6720   44.3710   -3.7490 O   0  0  0  0  0  0  0  0  0  0  0  0
   31.3830   45.4310   -2.9160 C   0  0  0  0  0  0  0  0  0  0  0  0
   30.0690   45.4480   -2.3720 C   0  0  0  0  0  0  0  0  0  0  0  0
   32.2850   46.4530   -2.5950 C   0  0  0  0  0  0  0  0  0  0  0  0
   29.6940   46.5060   -1.5100 C   0  0  0  0  0  0  0  0  0  0  0  0
   31.9020   47.4890   -1.7450 C   0  0  0  0  0  0  0  0  0  0  0  0
   29.1090   44.4510   -2.6540 C   0  0  0  0  0  0  0  0  0  0  0  0
   30.6170   47.5150   -1.2070 C   0  0  0  0  0  0  0  0  0  0  0  0
   28.4010   46.5370   -0.9630 C   0  0  0  0  0  0  0  0  0  0  0  0
   27.8280   44.4960   -2.1040 C   0  0  0  0  0  0  0  0  0  0  0  0
   27.4740   45.5400   -1.2580 C   0  0  0  0  0  0  0  0  0  0  0  0
  1  2  1  0
  2  3  2  0
  2  4  1  0
  4  5  2  0
  3  6  1  0
  4  7  1  0
  5  8  1  0
  6  8  2  0
  5  9  1  0
  7 10  2  0
  9 11  1  0
  9 12  2  0
 10 12  1  0
 11 13  1  0
 13 14  1  0
 14 15  2  0
 14 16  1  0
 16 17  1  0
 17 18  1  0
 18 19  1  0
 18 20  2  0
 19 21  2  0
 20 22  1  0
 19 23  1  0
 21 24  1  0
 22 24  2  0
 21 25  1  0
 23 26  2  0
 25 27  2  0
 26 27  1  0
M  END
