mac-x0228-mac-x0328
     RDKit          3D

 13 14  0  0  0  0  0  0  0  0999 V2000
   30.0400   47.6700   -5.4580 O   0  0  0  0  0  0  0  0  0  0  0  0
   30.3430   48.2690   -4.2900 C   0  0  0  0  0  0  0  0  0  0  0  0
   30.7770   47.6260   -3.3530 O   0  0  0  0  0  0  0  0  0  0  0  0
   30.0920   49.7400   -4.3070 C   0  0  0  0  0  0  0  0  0  0  0  0
   29.8560   50.4320   -5.5120 C   0  0  0  0  0  0  0  0  0  0  0  0
   30.0930   50.4480   -3.0740 C   0  0  0  0  0  0  0  0  0  0  0  0
   29.6320   51.8010   -5.4530 C   0  0  0  0  0  0  0  0  0  0  0  0
   29.8630   51.8320   -3.0770 C   0  0  0  0  0  0  0  0  0  0  0  0
   29.8380   52.6170   -1.9800 O   0  0  0  0  0  0  0  0  0  0  0  0
   29.6380   52.4710   -4.2510 C   0  0  0  0  0  0  0  0  0  0  0  0
   29.3630   52.7810   -6.5290 C   0  0  0  0  0  0  0  0  0  0  0  0
   29.4060   53.8160   -4.3550 O   0  0  0  0  0  0  0  0  0  0  0  0
   29.6200   54.0730   -5.7510 C   0  0  0  0  0  0  0  0  0  0  0  0
  1  2  1  0
  2  3  2  0
  2  4  1  0
  4  5  2  0
  4  6  1  0
  5  7  1  0
  6  8  2  0
  8  9  1  0
  7 10  2  0
  8 10  1  0
  7 11  1  0
 10 12  1  0
 11 13  1  0
 12 13  1  0
M  END
