mac-x0137-mac-x0417
     RDKit          3D

 29 33  0  0  0  0  0  0  0  0999 V2000
   32.0660   49.5900   -4.4650 F   0  0  0  0  0  0  0  0  0  0  0  0
   31.3690   48.6160   -3.8030 C   0  0  2  0  0  0  0  0  0  0  0  0
   32.0010   47.2640   -4.1230 C   0  0  0  0  0  0  0  0  0  0  0  0
   29.8940   48.7290   -4.2020 C   0  0  0  0  0  0  0  0  0  0  0  0
   29.6480   48.2450   -5.5750 N   0  0  0  0  0  0  0  0  0  0  0  0
   31.7640   46.8450   -5.5750 C   0  0  1  0  0  0  0  0  0  0  0  0
   32.2480   45.4930   -5.7560 O   0  0  0  0  0  0  0  0  0  0  0  0
   30.2640   46.9300   -5.9200 C   0  0  0  0  0  0  0  0  0  0  0  0
   28.8610   48.9160   -6.5240 C   0  0  0  0  0  0  0  0  0  0  0  0
   33.5050   45.2180   -5.2930 C   0  0  0  0  0  0  0  0  0  0  0  0
   28.5430   48.2610   -7.7010 N   0  0  0  0  0  0  0  0  0  0  0  0
   28.3590   50.1680   -6.4260 C   0  0  0  0  0  0  0  0  0  0  0  0
   34.5320   45.4550   -5.9160 O   0  0  0  0  0  0  0  0  0  0  0  0
   33.4420   44.5890   -3.9240 C   0  0  0  0  0  0  0  0  0  0  0  0
   27.7890   48.8270   -8.6890 C   0  0  0  0  0  0  0  0  0  0  0  0
   27.5430   50.7240   -7.5380 C   0  0  0  0  0  0  0  0  0  0  0  0
   28.3700   51.2460   -5.4790 C   0  0  0  0  0  0  0  0  0  0  0  0
   27.2780   50.0110   -8.6710 N   0  0  0  0  0  0  0  0  0  0  0  0
   27.1290   51.9380   -7.2980 N   0  0  0  0  0  0  0  0  0  0  0  0
   27.6450   52.2260   -6.0450 C   0  0  0  0  0  0  0  0  0  0  0  0
   34.7590   44.5950   -3.2380 C   0  0  0  0  0  0  0  0  0  0  0  0
   35.2920   43.4400   -2.8150 N   0  0  0  0  0  0  0  0  0  0  0  0
   35.6080   45.6960   -2.9320 C   0  0  0  0  0  0  0  0  0  0  0  0
   36.4970   43.7690   -2.2230 O   0  0  0  0  0  0  0  0  0  0  0  0
   36.6870   45.1120   -2.2920 C   0  0  0  0  0  0  0  0  0  0  0  0
   35.6050   47.0930   -3.1090 C   0  0  0  0  0  0  0  0  0  0  0  0
   37.7870   45.8100   -1.8030 C   0  0  0  0  0  0  0  0  0  0  0  0
   36.6980   47.8280   -2.6290 C   0  0  0  0  0  0  0  0  0  0  0  0
   37.7690   47.1990   -1.9880 C   0  0  0  0  0  0  0  0  0  0  0  0
  2  1  1  6
  2  3  1  0
  2  4  1  0
  4  5  1  0
  3  6  1  0
  6  7  1  1
  5  8  1  0
  6  8  1  0
  5  9  1  0
  7 10  1  0
  9 11  1  0
  9 12  2  0
 10 13  2  0
 10 14  1  0
 11 15  1  0
 12 16  1  0
 12 17  1  0
 15 18  2  0
 16 18  1  0
 16 19  2  0
 17 20  2  0
 19 20  1  0
 14 21  1  0
 21 22  2  0
 21 23  1  0
 22 24  1  0
 23 25  2  0
 24 25  1  0
 23 26  1  0
 25 27  1  0
 26 28  2  0
 27 29  2  0
 28 29  1  0
M  END
