mac-x0231-mac-x0224
     RDKit          3D

 26 28  0  0  0  0  0  0  0  0999 V2000
   33.3320   44.1520   -5.1710 O   0  0  0  0  0  0  0  0  0  0  0  0
   32.6080   45.1630   -5.7010 C   0  0  0  0  0  0  0  0  0  0  0  0
   33.2900   46.1910   -6.0500 N   0  0  0  0  0  0  0  0  0  0  0  0
   31.1440   44.8380   -5.7670 C   0  0  0  0  0  0  0  0  0  0  0  0
   32.6720   47.3710   -6.6410 C   0  0  1  0  0  0  0  0  0  0  0  0
   30.3470   44.7740   -4.4750 C   0  0  0  0  0  0  0  0  0  0  0  0
   31.8560   47.0290   -7.7550 O   0  0  0  0  0  0  0  0  0  0  0  0
   30.6160   45.7470   -3.3710 C   0  0  0  0  0  0  0  0  0  0  0  0
   29.4300   43.8520   -4.3760 N   0  0  0  0  0  0  0  0  0  0  0  0
   31.8130   48.2320   -5.7330 C   0  0  0  0  0  0  0  0  0  0  0  0
   29.7180   45.7540   -2.3030 C   0  0  0  0  0  0  0  0  0  0  0  0
   28.7050   43.7940   -3.2290 N   0  0  0  0  0  0  0  0  0  0  0  0
   31.7010   46.6360   -3.3490 C   0  0  0  0  0  0  0  0  0  0  0  0
   30.4050   48.1650   -5.8490 C   0  0  0  0  0  0  0  0  0  0  0  0
   32.3530   49.1010   -4.7760 C   0  0  0  0  0  0  0  0  0  0  0  0
   33.7080   49.2000   -4.6370 O   0  0  0  0  0  0  0  0  0  0  0  0
   28.5860   44.8190   -2.3280 C   0  0  0  0  0  0  0  0  0  0  0  0
   29.8890   46.6290   -1.2230 C   0  0  0  0  0  0  0  0  0  0  0  0
   31.8690   47.5110   -2.2680 C   0  0  0  0  0  0  0  0  0  0  0  0
   29.5650   48.9340   -5.0340 C   0  0  0  0  0  0  0  0  0  0  0  0
   31.5260   49.8710   -3.9590 C   0  0  0  0  0  0  0  0  0  0  0  0
   27.6150   44.9530   -1.5910 O   0  0  0  0  0  0  0  0  0  0  0  0
   27.7780   48.8980   -5.1290 S   0  0  0  0  0  0  0  0  0  0  0  0
   30.9660   47.5080   -1.2080 C   0  0  0  0  0  0  0  0  0  0  0  0
   30.1410   49.7840   -4.0890 C   0  0  0  0  0  0  0  0  0  0  0  0
   27.3980   50.6040   -5.6160 C   0  0  0  0  0  0  0  0  0  0  0  0
  1  2  1  0
  2  3  2  3
  2  4  1  0
  3  5  1  0
  4  6  1  0
  5  7  1  6
  6  8  1  0
  6  9  2  0
  5 10  1  0
  8 11  2  0
  9 12  1  0
  8 13  1  0
 10 14  2  0
 10 15  1  0
 15 16  1  0
 11 17  1  0
 12 17  1  0
 11 18  1  0
 13 19  2  0
 14 20  1  0
 15 21  2  0
 17 22  2  0
 20 23  1  0
 18 24  2  0
 19 24  1  0
 20 25  2  0
 21 25  1  0
 23 26  1  0
M  END
