mac-x0255-mac-x0588
     RDKit          3D

 24 27  0  0  0  0  0  0  0  0999 V2000
   32.4790   44.4280   -7.6920 O   0  0  0  0  0  0  0  0  0  0  0  0
   33.2820   44.8140   -6.6750 C   0  0  0  0  0  0  0  0  0  0  0  0
   34.0470   45.7500   -6.8310 O   0  0  0  0  0  0  0  0  0  0  0  0
   33.0810   43.9530   -5.4460 C   0  0  0  0  0  0  0  0  0  0  0  0
   31.8830   44.3860   -4.6460 C   0  0  0  0  0  0  0  0  0  0  0  0
   31.0010   43.6000   -3.9320 C   0  0  0  0  0  0  0  0  0  0  0  0
   31.4660   46.0340   -4.5320 S   0  0  0  0  0  0  0  0  0  0  0  0
   29.9660   44.3530   -3.2840 C   0  0  0  0  0  0  0  0  0  0  0  0
   30.0910   45.7250   -3.5260 C   0  0  0  0  0  0  0  0  0  0  0  0
   28.8950   43.9020   -2.4740 C   0  0  0  0  0  0  0  0  0  0  0  0
   29.1740   46.6710   -2.9860 C   0  0  0  0  0  0  0  0  0  0  0  0
   29.2590   48.1700   -3.2180 C   0  0  0  0  0  0  0  0  0  0  0  0
   27.9870   44.8120   -1.9340 C   0  0  0  0  0  0  0  0  0  0  0  0
   28.1290   46.1670   -2.1890 C   0  0  0  0  0  0  0  0  0  0  0  0
   29.6700   48.5670   -4.5680 N   0  0  0  0  0  0  0  0  0  0  0  0
   30.4460   49.8000   -4.5510 C   0  0  0  0  0  0  0  0  0  0  0  0
   28.6110   48.5910   -5.5700 C   0  0  1  0  0  0  0  0  0  0  0  0
   29.6250   51.0010   -4.7350 N   0  0  0  0  0  0  0  0  0  0  0  0
   28.8610   49.6500   -6.6280 C   0  0  2  0  0  0  0  0  0  0  0  0
   28.4540   47.3920   -6.3950 N   0  0  0  0  0  0  0  0  0  0  0  0
   28.8430   51.0270   -5.9490 C   0  0  2  0  0  0  0  0  0  0  0  0
   27.8040   49.3200   -7.6020 N   0  0  0  0  0  0  0  0  0  0  0  0
   27.8970   47.8630   -7.6680 C   0  0  0  0  0  0  0  0  0  0  0  0
   29.4090   52.1260   -6.7140 N   0  0  0  0  0  0  0  0  0  0  0  0
  1  2  1  0
  2  3  2  0
  2  4  1  0
  4  5  1  0
  5  6  2  0
  5  7  1  0
  6  8  1  0
  7  9  1  0
  8  9  2  0
  8 10  1  0
  9 11  1  0
 11 12  1  0
 10 13  2  0
 11 14  2  0
 13 14  1  0
 12 15  1  0
 15 16  1  0
 15 17  1  0
 16 18  1  0
 17 19  1  0
 17 20  1  6
 18 21  1  0
 19 21  1  0
 19 22  1  6
 20 23  1  0
 22 23  1  0
 21 24  1  6
M  END
