mac-x0123-mac-x0303
     RDKit          3D

 17 19  0  0  0  0  0  0  0  0999 V2000
   28.9820   51.1230   -7.3900 N   0  0  0  0  0  0  0  0  0  0  0  0
   28.6600   51.8340   -6.1600 C   0  0  2  0  0  0  0  0  0  0  0  0
   28.1170   53.2550   -6.3620 C   0  0  1  0  0  0  0  0  0  0  0  0
   29.8880   51.7620   -5.3540 N   0  0  0  0  0  0  0  0  0  0  0  0
   30.1180   52.8240   -4.3460 C   0  0  1  0  0  0  0  0  0  0  0  0
   29.2130   54.2550   -6.0210 C   0  0  2  0  0  0  0  0  0  0  0  0
   27.6580   53.7790   -7.6920 C   0  0  0  0  0  0  0  0  0  0  0  0
   29.9740   50.4760   -4.6320 N   0  0  0  0  0  0  0  0  0  0  0  0
   29.4360   54.1120   -4.5730 N   0  0  0  0  0  0  0  0  0  0  0  0
   28.6360   55.5720   -6.5410 C   0  0  0  0  0  0  0  0  0  0  0  0
   27.9520   55.0870   -7.7860 C   0  0  0  0  0  0  0  0  0  0  0  0
   29.6900   52.2120   -3.0950 N   0  0  0  0  0  0  0  0  0  0  0  0
   30.1300   50.8290   -3.2290 C   0  0  0  0  0  0  0  0  0  0  0  0
   30.1220   55.4980   -3.9000 S   0  0  0  0  0  0  0  0  0  0  0  0
   31.3080   55.7880   -5.0270 N   0  0  0  0  0  0  0  0  0  0  0  0
   29.1580   56.5640   -3.9740 O   0  0  0  0  0  0  0  0  0  0  0  0
   30.8120   55.1680   -2.6820 O   0  0  0  0  0  0  0  0  0  0  0  0
  2  1  1  6
  2  3  1  0
  2  4  1  0
  4  5  1  0
  3  6  1  0
  3  7  1  6
  4  8  1  0
  5  9  1  0
  6  9  1  0
  6 10  1  1
  7 11  2  0
 10 11  1  0
  5 12  1  1
  8 13  1  0
 12 13  1  0
  9 14  1  0
 14 15  1  0
 14 16  2  0
 14 17  2  0
M  END
