mac-x0455-mac-x0509
     RDKit          3D

 24 26  0  0  0  0  0  0  0  0999 V2000
   30.6310   48.3660   -3.6440 C   0  0  0  0  0  0  0  0  0  0  0  0
   31.0730   46.9230   -3.9220 C   0  0  1  0  0  0  0  0  0  0  0  0
   30.9120   46.2170   -2.6750 O   0  0  0  0  0  0  0  0  0  0  0  0
   30.1310   46.3190   -4.9860 C   0  0  0  0  0  0  0  0  0  0  0  0
   32.5050   46.7590   -4.4110 C   0  0  0  0  0  0  0  0  0  0  0  0
   28.9990   45.9020   -4.7640 O   0  0  0  0  0  0  0  0  0  0  0  0
   30.6400   46.2660   -6.2350 O   0  0  0  0  0  0  0  0  0  0  0  0
   33.2440   47.8970   -4.7790 C   0  0  0  0  0  0  0  0  0  0  0  0
   33.1290   45.5070   -4.5270 C   0  0  0  0  0  0  0  0  0  0  0  0
   34.5510   47.7900   -5.2610 C   0  0  0  0  0  0  0  0  0  0  0  0
   34.4410   45.3970   -5.0110 C   0  0  0  0  0  0  0  0  0  0  0  0
   35.1620   46.5390   -5.3920 C   0  0  0  0  0  0  0  0  0  0  0  0
   36.5650   46.4320   -5.9490 C   0  0  0  0  0  0  0  0  0  0  0  0
   37.5360   47.5340   -5.5010 C   0  0  0  0  0  0  0  0  0  0  0  0
   37.6810   47.4140   -4.0620 N   0  0  0  0  0  0  0  0  0  0  0  0
   38.0870   46.2880   -3.6070 C   0  0  0  0  0  0  0  0  0  0  0  0
   38.2830   45.8770   -2.1290 C   0  0  0  0  0  0  0  0  0  0  0  0
   38.4190   45.2020   -4.3910 N   0  0  0  0  0  0  0  0  0  0  0  0
   38.0680   44.3880   -2.2770 C   0  0  0  0  0  0  0  0  0  0  0  0
   38.1660   44.0570   -3.6470 C   0  0  0  0  0  0  0  0  0  0  0  0
   37.8170   43.4360   -1.3130 C   0  0  0  0  0  0  0  0  0  0  0  0
   38.0150   42.7580   -4.0810 C   0  0  0  0  0  0  0  0  0  0  0  0
   37.6600   42.1130   -1.7420 C   0  0  0  0  0  0  0  0  0  0  0  0
   37.7600   41.7760   -3.1120 C   0  0  0  0  0  0  0  0  0  0  0  0
  2  1  1  1
  2  3  1  0
  2  4  1  0
  2  5  1  0
  4  6  2  0
  4  7  1  0
  5  8  2  0
  5  9  1  0
  8 10  1  0
  9 11  2  0
 10 12  2  0
 11 12  1  0
 12 13  1  0
 13 14  1  0
 14 15  1  0
 15 16  2  3
 16 17  1  0
 16 18  1  0
 17 19  1  0
 18 20  1  0
 19 20  2  0
 19 21  1  0
 20 22  1  0
 21 23  2  0
 22 24  2  0
 23 24  1  0
M  END
