mac-x0375-mac-x0509
     RDKit          3D

 21 23  0  0  0  0  0  0  0  0999 V2000
   31.4180   45.1810   -6.8740 O   0  0  0  0  0  0  0  0  0  0  0  0
   32.4190   45.0850   -5.9750 C   0  0  0  0  0  0  0  0  0  0  0  0
   33.3890   44.3820   -6.2120 O   0  0  0  0  0  0  0  0  0  0  0  0
   32.1910   45.9170   -4.7210 C   0  0  0  0  0  0  0  0  0  0  0  0
   33.1680   45.7900   -3.6960 O   0  0  0  0  0  0  0  0  0  0  0  0
   34.2860   46.5780   -3.7630 C   0  0  0  0  0  0  0  0  0  0  0  0
   35.5320   46.1820   -4.2270 C   0  0  0  0  0  0  0  0  0  0  0  0
   34.1210   47.8940   -3.3130 C   0  0  0  0  0  0  0  0  0  0  0  0
   36.6030   47.0740   -4.2450 C   0  0  0  0  0  0  0  0  0  0  0  0
   35.1910   48.7950   -3.3290 C   0  0  0  0  0  0  0  0  0  0  0  0
   37.8150   46.5880   -4.7180 N   0  0  0  0  0  0  0  0  0  0  0  0
   36.4380   48.3830   -3.7970 C   0  0  0  0  0  0  0  0  0  0  0  0
   38.3000   45.6830   -3.9440 C   0  0  0  0  0  0  0  0  0  0  0  0
   37.6660   45.2030   -2.6210 C   0  0  0  0  0  0  0  0  0  0  0  0
   39.4460   44.9570   -4.1380 N   0  0  0  0  0  0  0  0  0  0  0  0
   38.1330   43.7790   -2.6620 C   0  0  0  0  0  0  0  0  0  0  0  0
   39.1930   43.6960   -3.5850 C   0  0  0  0  0  0  0  0  0  0  0  0
   37.6750   42.6840   -1.9660 C   0  0  0  0  0  0  0  0  0  0  0  0
   39.8180   42.4910   -3.8270 C   0  0  0  0  0  0  0  0  0  0  0  0
   38.3010   41.4620   -2.2030 C   0  0  0  0  0  0  0  0  0  0  0  0
   39.3620   41.3650   -3.1250 C   0  0  0  0  0  0  0  0  0  0  0  0
  1  2  1  0
  2  3  2  0
  2  4  1  0
  4  5  1  0
  5  6  1  0
  6  7  2  0
  6  8  1  0
  7  9  1  0
  8 10  2  0
  9 11  1  0
  9 12  2  0
 10 12  1  0
 11 13  2  3
 13 14  1  0
 13 15  1  0
 14 16  1  0
 15 17  1  0
 16 17  2  0
 16 18  1  0
 17 19  1  0
 18 20  2  0
 19 21  2  0
 20 21  1  0
M  END
