mac-x0283-mac-x0453
     RDKit          3D

 12 14  0  0  0  0  0  0  0  0999 V2000
   28.9520   54.4540   -6.4590 N   0  0  0  0  0  0  0  0  0  0  0  0
   29.2120   53.5930   -7.6370 C   0  0  0  0  0  0  0  0  0  0  0  0
   28.7150   52.1120   -7.4840 C   0  0  0  0  0  0  0  0  0  0  0  0
   29.2660   53.9260   -5.2470 C   0  0  0  0  0  0  0  0  0  0  0  0
   29.5600   54.4950   -4.0790 N   0  0  0  0  0  0  0  0  0  0  0  0
   29.3020   52.5320   -5.1550 C   0  0  0  0  0  0  0  0  0  0  0  0
   29.7950   53.4200   -3.1950 O   0  0  0  0  0  0  0  0  0  0  0  0
   29.6350   52.2370   -3.8650 C   0  0  0  0  0  0  0  0  0  0  0  0
   29.0630   51.5700   -6.1270 C   0  0  0  0  0  0  0  0  0  0  0  0
   29.7610   50.9290   -3.4170 C   0  0  0  0  0  0  0  0  0  0  0  0
   29.1780   50.2380   -5.7230 C   0  0  0  0  0  0  0  0  0  0  0  0
   29.5230   49.9330   -4.3860 C   0  0  0  0  0  0  0  0  0  0  0  0
  1  2  1  0
  2  3  1  0
  1  4  1  0
  4  5  2  0
  4  6  1  0
  5  7  1  0
  6  8  2  0
  7  8  1  0
  3  9  1  0
  6  9  1  0
  8 10  1  0
  9 11  2  0
 10 12  2  0
 11 12  1  0
M  END
