mac-x0224-mac-x0396
     RDKit          3D

 20 21  0  0  0  0  0  0  0  0999 V2000
   27.0890   51.2090   -5.5740 C   0  0  0  0  0  0  0  0  0  0  0  0
   28.5330   50.5220   -6.2900 S   0  0  1  0  0  0  0  0  0  0  0  0
   29.7120   51.8000   -6.3910 C   0  0  0  0  0  0  0  0  0  0  0  0
   29.1680   49.3490   -5.1780 C   0  0  0  0  0  0  0  0  0  0  0  0
   30.5570   51.6960   -7.2700 O   0  0  0  0  0  0  0  0  0  0  0  0
   29.5940   48.1090   -5.6400 C   0  0  0  0  0  0  0  0  0  0  0  0
   29.2320   49.6940   -3.8320 C   0  0  0  0  0  0  0  0  0  0  0  0
   29.7070   52.9520   -5.4700 C   0  0  0  0  0  0  0  0  0  0  0  0
   30.1070   47.1730   -4.7330 C   0  0  0  0  0  0  0  0  0  0  0  0
   29.7410   48.7690   -2.9210 C   0  0  0  0  0  0  0  0  0  0  0  0
   30.2280   52.8820   -4.1850 C   0  0  0  0  0  0  0  0  0  0  0  0
   29.1610   54.1670   -5.8880 C   0  0  0  0  0  0  0  0  0  0  0  0
   30.5500   45.8570   -5.2860 C   0  0  0  0  0  0  0  0  0  0  0  0
   30.1760   47.5180   -3.3690 C   0  0  0  0  0  0  0  0  0  0  0  0
   30.2360   53.9270   -3.3150 N   0  0  0  0  0  0  0  0  0  0  0  0
   29.1560   55.2550   -5.0180 C   0  0  0  0  0  0  0  0  0  0  0  0
   30.6750   46.6220   -2.4590 O   0  0  0  0  0  0  0  0  0  0  0  0
   30.4210   45.5620   -6.4650 O   0  0  0  0  0  0  0  0  0  0  0  0
   31.1090   45.0170   -4.3940 O   0  0  0  0  0  0  0  0  0  0  0  0
   29.6990   55.0890   -3.7550 C   0  0  0  0  0  0  0  0  0  0  0  0
  2  1  1  1
  2  3  1  0
  2  4  1  0
  3  5  2  0
  4  6  2  0
  4  7  1  0
  3  8  1  0
  6  9  1  0
  7 10  2  0
  8 11  2  0
  8 12  1  0
  9 13  1  0
  9 14  2  0
 10 14  1  0
 11 15  1  0
 12 16  2  0
 14 17  1  0
 13 18  2  0
 13 19  1  0
 15 20  2  0
 16 20  1  0
M  END
