mac-x0360-mac-x0132
     RDKit          3D

 22 24  0  0  0  0  0  0  0  0999 V2000
   32.8420   54.7850   -8.1010 Cl  0  0  0  0  0  0  0  0  0  0  0  0
   32.7370   53.2810   -7.1950 C   0  0  0  0  0  0  0  0  0  0  0  0
   33.8610   52.7770   -6.5250 C   0  0  0  0  0  0  0  0  0  0  0  0
   31.5490   52.5780   -7.1320 C   0  0  0  0  0  0  0  0  0  0  0  0
   31.5660   51.4420   -6.4150 C   0  0  0  0  0  0  0  0  0  0  0  0
   33.7840   51.5940   -5.8090 C   0  0  0  0  0  0  0  0  0  0  0  0
   35.1750   50.9300   -4.9540 Cl  0  0  0  0  0  0  0  0  0  0  0  0
   29.8830   50.4860   -6.3340 S   0  0  0  0  0  0  0  0  0  0  0  0
   32.5760   50.8760   -5.7420 C   0  0  0  0  0  0  0  0  0  0  0  0
   30.1770   49.0760   -5.7430 N   0  0  0  0  0  0  0  0  0  0  0  0
   30.0630   50.1320   -7.5740 O   0  0  0  0  0  0  0  0  0  0  0  0
   29.6720   51.0110   -4.7100 C   0  0  0  0  0  0  0  0  0  0  0  0
   29.1050   52.2600   -4.4260 C   0  0  0  0  0  0  0  0  0  0  0  0
   30.0280   50.2940   -3.5910 C   0  0  0  0  0  0  0  0  0  0  0  0
   28.6810   53.1270   -5.4200 C   0  0  0  0  0  0  0  0  0  0  0  0
   28.9340   52.7080   -3.1280 C   0  0  0  0  0  0  0  0  0  0  0  0
   29.8710   50.7040   -2.3060 C   0  0  0  0  0  0  0  0  0  0  0  0
   28.7580   52.8770   -6.7950 N   0  0  0  0  0  0  0  0  0  0  0  0
   28.3860   53.9240   -2.8690 N   0  0  0  0  0  0  0  0  0  0  0  0
   28.1310   54.3490   -5.1200 N   0  0  0  0  0  0  0  0  0  0  0  0
   29.3200   51.9230   -2.0950 C   0  0  0  0  0  0  0  0  0  0  0  0
   27.9890   54.7370   -3.8560 C   0  0  0  0  0  0  0  0  0  0  0  0
  1  2  1  0
  2  3  2  0
  2  4  1  0
  4  5  2  0
  3  6  1  0
  6  7  1  0
  5  8  1  0
  5  9  1  0
  6  9  2  0
  8 10  1  0
  8 11  2  0
  8 12  1  0
 12 13  1  0
 12 14  2  0
 13 15  2  0
 13 16  1  0
 14 17  1  0
 15 18  1  0
 16 19  2  0
 15 20  1  0
 16 21  1  0
 17 21  2  0
 19 22  1  0
 20 22  2  0
M  END
