mac-x0394-mac-x0178
     RDKit          3D

 28 29  0  0  0  0  0  0  0  0999 V2000
   24.1170   49.9310   -3.0700 Cl  0  0  0  0  0  0  0  0  0  0  0  0
   25.2100   51.0990   -3.7210 C   0  0  0  0  0  0  0  0  0  0  0  0
   24.9450   52.4250   -3.3840 C   0  0  0  0  0  0  0  0  0  0  0  0
   26.3050   50.7360   -4.5400 C   0  0  0  0  0  0  0  0  0  0  0  0
   26.5710   49.2580   -4.8260 C   0  0  0  0  0  0  0  0  0  0  0  0
   27.1240   51.7910   -5.0530 C   0  0  0  0  0  0  0  0  0  0  0  0
   25.7640   53.4290   -3.8600 C   0  0  0  0  0  0  0  0  0  0  0  0
   25.4500   55.0590   -3.4180 Cl  0  0  0  0  0  0  0  0  0  0  0  0
   28.3150   51.6050   -5.9750 C   0  0  0  0  0  0  0  0  0  0  0  0
   27.5430   48.5720   -3.8020 C   0  0  0  0  0  0  0  0  0  0  0  0
   26.8330   53.1240   -4.6940 C   0  0  0  0  0  0  0  0  0  0  0  0
   28.2100   52.4600   -7.2270 C   0  0  0  0  0  0  0  0  0  0  0  0
   26.9760   47.4960   -2.8350 C   0  0  0  0  0  0  0  0  0  0  0  0
   29.2520   53.3020   -7.3900 O   0  0  0  0  0  0  0  0  0  0  0  0
   27.3070   52.4510   -8.0530 O   0  0  0  0  0  0  0  0  0  0  0  0
   27.5360   47.5990   -1.4490 N   0  0  0  0  0  0  0  0  0  0  0  0
   28.7810   46.8070   -1.0050 S   0  0  2  0  0  0  0  0  0  0  0  0
   28.0920   45.3440   -0.5600 N   0  0  0  0  0  0  0  0  0  0  0  0
   29.6330   47.0930    0.1260 O   0  0  0  0  0  0  0  0  0  0  0  0
   29.7630   46.5630   -2.4380 C   0  0  0  0  0  0  0  0  0  0  0  0
   29.2770   45.7270   -3.4400 C   0  0  0  0  0  0  0  0  0  0  0  0
   30.9930   47.2070   -2.5640 C   0  0  0  0  0  0  0  0  0  0  0  0
   30.0290   45.5330   -4.5920 C   0  0  0  0  0  0  0  0  0  0  0  0
   31.7450   47.0120   -3.7240 C   0  0  0  0  0  0  0  0  0  0  0  0
   31.2600   46.1810   -4.7410 C   0  0  0  0  0  0  0  0  0  0  0  0
   32.0680   46.0040   -5.9660 C   0  0  0  0  0  0  0  0  0  0  0  0
   31.6370   45.6510   -7.0490 O   0  0  0  0  0  0  0  0  0  0  0  0
   33.3700   46.2850   -5.7870 O   0  0  0  0  0  0  0  0  0  0  0  0
  1  2  1  0
  2  3  2  0
  2  4  1  0
  4  5  1  0
  4  6  2  0
  3  7  1  0
  7  8  1  0
  6  9  1  0
  5 10  1  0
  6 11  1  0
  7 11  2  0
  9 12  1  0
 10 13  1  0
 12 14  1  0
 12 15  2  0
 13 16  1  0
 16 17  2  0
 17 18  1  1
 17 19  2  0
 17 20  1  0
 20 21  2  0
 20 22  1  0
 21 23  1  0
 22 24  2  0
 23 25  2  0
 24 25  1  0
 25 26  1  0
 26 27  2  0
 26 28  1  0
M  END
