mac-x0148-mac-x0159
     RDKit          3D

 25 29  0  0  0  0  0  0  0  0999 V2000
   28.9600   48.5080   -3.1510 C   0  0  0  0  0  0  0  0  0  0  0  0
   28.6360   47.0650   -2.8780 C   0  0  0  0  0  0  0  0  0  0  0  0
   28.6420   46.0120   -3.7770 C   0  0  0  0  0  0  0  0  0  0  0  0
   28.7370   48.9540   -4.5630 C   0  0  0  0  0  0  0  0  0  0  0  0
   29.4270   48.5660   -5.7680 C   0  0  0  0  0  0  0  0  0  0  0  0
   27.8110   49.8490   -4.9710 C   0  0  0  0  0  0  0  0  0  0  0  0
   28.2870   46.7060   -1.5770 N   0  0  0  0  0  0  0  0  0  0  0  0
   28.7080   49.3460   -6.8200 C   0  0  0  0  0  0  0  0  0  0  0  0
   30.4470   47.7700   -6.1530 C   0  0  0  0  0  0  0  0  0  0  0  0
   27.7710   50.1080   -6.3330 N   0  0  0  0  0  0  0  0  0  0  0  0
   28.0400   45.4190   -1.5080 C   0  0  0  0  0  0  0  0  0  0  0  0
   28.2050   44.5540   -2.9860 S   0  0  0  0  0  0  0  0  0  0  0  0
   27.6390   44.7150   -0.2590 C   0  0  0  0  0  0  0  0  0  0  0  0
   31.2270   46.9840   -5.3140 N   0  0  0  0  0  0  0  0  0  0  0  0
   30.7200   47.7460   -7.5060 N   0  0  0  0  0  0  0  0  0  0  0  0
   29.0190   49.2600   -8.1470 N   0  0  0  0  0  0  0  0  0  0  0  0
   31.5580   47.4050   -3.9310 C   0  0  2  0  0  0  0  0  0  0  0  0
   31.3580   45.5350   -5.5800 C   0  0  0  0  0  0  0  0  0  0  0  0
   30.0020   48.4670   -8.4130 C   0  0  0  0  0  0  0  0  0  0  0  0
   31.8340   48.8730   -3.6310 C   0  0  0  0  0  0  0  0  0  0  0  0
   32.9150   46.8840   -3.5100 C   0  0  1  0  0  0  0  0  0  0  0  0
   32.6940   44.9730   -5.0720 C   0  0  0  0  0  0  0  0  0  0  0  0
   33.0390   47.5330   -2.1510 C   0  0  0  0  0  0  0  0  0  0  0  0
   32.5040   48.8630   -2.3390 O   0  0  0  0  0  0  0  0  0  0  0  0
   32.9890   45.3760   -3.6200 C   0  0  0  0  0  0  0  0  0  0  0  0
  1  2  1  0
  2  3  2  0
  1  4  1  0
  4  5  1  0
  4  6  2  0
  2  7  1  0
  5  8  1  0
  5  9  2  0
  6 10  1  0
  8 10  2  0
  7 11  2  0
  3 12  1  0
 11 12  1  0
 11 13  1  0
  9 14  1  0
  9 15  1  0
  8 16  1  0
 14 17  1  0
 14 18  1  0
 15 19  1  0
 16 19  2  0
 17 20  1  6
 17 21  1  0
 18 22  1  0
 21 23  1  1
 20 24  1  0
 23 24  1  0
 21 25  1  0
 22 25  1  0
M  END
