mac-x0436-mac-x0379
     RDKit          3D

 26 28  0  0  0  0  0  0  0  0999 V2000
   32.4550   44.6750   -8.2180 O   0  0  0  0  0  0  0  0  0  0  0  0
   32.2750   44.5180   -6.8890 C   0  0  0  0  0  0  0  0  0  0  0  0
   31.6550   43.5540   -6.4750 O   0  0  0  0  0  0  0  0  0  0  0  0
   32.9080   45.6230   -6.0760 C   0  0  0  0  0  0  0  0  0  0  0  0
   32.9700   45.2880   -4.5730 C   0  0  2  0  0  0  0  0  0  0  0  0
   31.6890   45.7390   -3.8330 C   0  0  0  0  0  0  0  0  0  0  0  0
   34.2260   45.8470   -3.8910 C   0  0  0  0  0  0  0  0  0  0  0  0
   31.4710   47.1700   -4.0040 N   0  0  0  0  0  0  0  0  0  0  0  0
   34.5960   47.3060   -4.2020 C   0  0  0  0  0  0  0  0  0  0  0  0
   34.9440   45.1090   -3.0850 N   0  0  0  0  0  0  0  0  0  0  0  0
   33.9320   47.9760   -4.9790 O   0  0  0  0  0  0  0  0  0  0  0  0
   30.3170   47.7200   -3.8640 C   0  0  0  0  0  0  0  0  0  0  0  0
   35.7040   47.7980   -3.5640 N   0  0  0  0  0  0  0  0  0  0  0  0
   36.0860   45.6730   -2.4880 C   0  0  0  0  0  0  0  0  0  0  0  0
   29.2750   46.9140   -3.5460 O   0  0  0  0  0  0  0  0  0  0  0  0
   36.4750   47.0020   -2.7150 C   0  0  0  0  0  0  0  0  0  0  0  0
   36.8660   44.8850   -1.6360 C   0  0  0  0  0  0  0  0  0  0  0  0
   29.9420   49.1060   -3.9990 C   0  0  0  0  0  0  0  0  0  0  0  0
   38.0080   45.4170   -1.0240 C   0  0  0  0  0  0  0  0  0  0  0  0
   37.6110   47.5380   -2.1090 C   0  0  0  0  0  0  0  0  0  0  0  0
   30.0380   50.1570   -3.1060 C   0  0  0  0  0  0  0  0  0  0  0  0
   29.2450   49.6940   -5.4630 S   0  0  0  0  0  0  0  0  0  0  0  0
   38.3770   46.7410   -1.2610 C   0  0  0  0  0  0  0  0  0  0  0  0
   29.1390   51.2690   -4.7860 C   0  0  0  0  0  0  0  0  0  0  0  0
   29.5820   51.3820   -3.5540 N   0  0  0  0  0  0  0  0  0  0  0  0
   28.5790   52.3940   -5.5810 C   0  0  0  0  0  0  0  0  0  0  0  0
  1  2  1  0
  2  3  2  0
  2  4  1  0
  5  4  1  6
  5  6  1  0
  5  7  1  0
  6  8  1  0
  7  9  1  0
  7 10  2  0
  9 11  2  0
  8 12  2  3
  9 13  1  0
 10 14  1  0
 12 15  1  0
 13 16  1  0
 14 16  2  0
 14 17  1  0
 12 18  1  0
 17 19  2  0
 16 20  1  0
 18 21  2  0
 18 22  1  0
 19 23  1  0
 20 23  2  0
 22 24  1  0
 21 25  1  0
 24 25  2  0
 24 26  1  0
M  END
