mac-x0567-mac-x0188
     RDKit          3D

 18 20  0  0  0  0  0  0  0  0999 V2000
   30.3050   47.5310   -8.2020 N   0  0  0  0  0  0  0  0  0  0  0  0
   29.8500   48.6240   -7.5650 C   0  0  0  0  0  0  0  0  0  0  0  0
   29.1890   49.6300   -8.2270 N   0  0  0  0  0  0  0  0  0  0  0  0
   29.9030   48.9970   -6.2310 C   0  0  0  0  0  0  0  0  0  0  0  0
   28.7930   50.6410   -7.4290 N   0  0  0  0  0  0  0  0  0  0  0  0
   29.2230   50.2530   -6.2200 C   0  0  0  0  0  0  0  0  0  0  0  0
   30.4670   48.3540   -4.9550 C   0  0  2  0  0  0  0  0  0  0  0  0
   29.0600   50.9400   -4.9850 C   0  0  0  0  0  0  0  0  0  0  0  0
   29.4040   48.7210   -3.8520 C   0  0  0  0  0  0  0  0  0  0  0  0
   31.7700   48.7540   -4.3440 N   0  0  0  0  0  0  0  0  0  0  0  0
   30.9190   46.9010   -5.1430 C   0  0  2  0  0  0  0  0  0  0  0  0
   30.0110   45.9420   -5.8240 C   0  0  0  0  0  0  0  0  0  0  0  0
   29.1390   50.2330   -3.8330 C   0  0  0  0  0  0  0  0  0  0  0  0
   31.3810   46.4760   -3.7770 C   0  0  2  0  0  0  0  0  0  0  0  0
   32.0810   47.6650   -3.3540 O   0  0  0  0  0  0  0  0  0  0  0  0
   32.3160   45.2670   -3.8210 C   0  0  0  0  0  0  0  0  0  0  0  0
   28.9210   45.5350   -5.4820 O   0  0  0  0  0  0  0  0  0  0  0  0
   30.5810   45.5290   -6.9760 O   0  0  0  0  0  0  0  0  0  0  0  0
  1  2  1  0
  2  3  1  0
  2  4  2  0
  3  5  1  0
  4  6  1  0
  5  6  2  0
  4  7  1  0
  6  8  1  0
  7  9  1  1
  7 10  1  0
  7 11  1  0
 11 12  1  1
  8 13  2  0
  9 13  1  0
 11 14  1  0
 10 15  1  0
 14 15  1  0
 14 16  1  6
 12 17  2  0
 12 18  1  0
M  END
