mac-x0588-mac-x0277
     RDKit          3D

 21 23  0  0  0  0  0  0  0  0999 V2000
   29.0240   51.9490   -6.6380 N   0  0  0  0  0  0  0  0  0  0  0  0
   28.6060   50.8150   -5.8420 C   0  0  1  0  0  0  0  0  0  0  0  0
   28.0080   49.6830   -6.7040 C   0  0  2  0  0  0  0  0  0  0  0  0
   29.7880   50.4050   -5.0970 N   0  0  0  0  0  0  0  0  0  0  0  0
   29.5410   49.2320   -4.2530 C   0  0  0  0  0  0  0  0  0  0  0  0
   28.9040   48.4870   -6.4450 C   0  0  1  0  0  0  0  0  0  0  0  0
   28.0540   49.7570   -8.1770 N   0  0  0  0  0  0  0  0  0  0  0  0
   28.9780   48.1190   -5.0380 N   0  0  0  0  0  0  0  0  0  0  0  0
   28.3610   47.5320   -7.3940 N   0  0  0  0  0  0  0  0  0  0  0  0
   28.0330   48.3390   -8.5680 C   0  0  0  0  0  0  0  0  0  0  0  0
   29.6940   46.8460   -4.7840 C   0  0  0  0  0  0  0  0  0  0  0  0
   30.3110   46.6320   -3.3620 C   0  0  1  0  0  0  0  0  0  0  0  0
   29.3000   46.7910   -2.2860 N   0  0  0  0  0  0  0  0  0  0  0  0
   30.8670   45.2100   -3.1280 C   0  0  2  0  0  0  0  0  0  0  0  0
   29.9900   47.3280   -0.7440 Cl  0  0  0  0  0  0  0  0  0  0  0  0
   31.4610   44.5110   -4.3570 C   0  0  0  0  0  0  0  0  0  0  0  0
   29.6970   44.4410   -2.5040 C   0  0  0  0  0  0  0  0  0  0  0  0
   28.6380   45.4890   -2.1790 C   0  0  0  0  0  0  0  0  0  0  0  0
   32.8620   44.9840   -4.6710 C   0  0  0  0  0  0  0  0  0  0  0  0
   33.6210   45.2260   -3.5810 O   0  0  0  0  0  0  0  0  0  0  0  0
   33.2870   45.1330   -5.8080 O   0  0  0  0  0  0  0  0  0  0  0  0
  2  1  1  6
  2  3  1  0
  2  4  1  0
  4  5  1  0
  3  6  1  0
  3  7  1  6
  5  8  1  0
  6  8  1  0
  6  9  1  6
  7 10  1  0
  9 10  1  0
  8 11  1  0
 12 11  1  6
 12 13  1  0
 12 14  1  0
 13 15  1  0
 14 16  1  6
 14 17  1  0
 13 18  1  0
 17 18  1  0
 16 19  1  0
 19 20  1  0
 19 21  2  0
M  END
