mac-x0397-mac-x0546
     RDKit          3D

 28 31  0  0  0  0  0  0  0  0999 V2000
   29.3530   53.0480   -2.5380 Cl  0  0  0  0  0  0  0  0  0  0  0  0
   29.4750   51.7410   -3.6380 C   0  0  0  0  0  0  0  0  0  0  0  0
   29.2440   52.0670   -4.9800 C   0  0  0  0  0  0  0  0  0  0  0  0
   29.7780   50.4550   -3.2190 C   0  0  0  0  0  0  0  0  0  0  0  0
   28.9290   53.3200   -5.4870 N   0  0  0  0  0  0  0  0  0  0  0  0
   29.3290   51.0440   -5.9220 C   0  0  0  0  0  0  0  0  0  0  0  0
   29.8630   49.4350   -4.1840 C   0  0  0  0  0  0  0  0  0  0  0  0
   29.9880   50.2480   -1.7370 C   0  0  0  0  0  0  0  0  0  0  0  0
   28.7770   53.2620   -6.7760 C   0  0  0  0  0  0  0  0  0  0  0  0
   29.0000   51.7120   -7.4770 S   0  0  0  0  0  0  0  0  0  0  0  0
   29.6400   49.7130   -5.5500 C   0  0  0  0  0  0  0  0  0  0  0  0
   31.2060   49.4300   -1.3470 C   0  0  0  0  0  0  0  0  0  0  0  0
   28.4640   54.3430   -7.5120 N   0  0  0  0  0  0  0  0  0  0  0  0
   30.6880   48.2280   -0.6940 N   0  0  0  0  0  0  0  0  0  0  0  0
   29.9870   48.5860    0.5320 C   0  0  0  0  0  0  0  0  0  0  0  0
   30.1860   47.2430   -1.5270 C   0  0  0  0  0  0  0  0  0  0  0  0
   30.9930   46.8340   -2.5090 C   0  0  0  0  0  0  0  0  0  0  0  0
   28.8340   46.6500   -1.4210 C   0  0  0  0  0  0  0  0  0  0  0  0
   30.5570   45.8270   -3.4850 C   0  0  2  0  0  0  0  0  0  0  0  0
   28.4860   45.5010   -2.0460 C   0  0  0  0  0  0  0  0  0  0  0  0
   29.5700   44.8910   -2.8350 C   0  0  0  0  0  0  0  0  0  0  0  0
   31.4890   44.7910   -4.0090 C   0  0  0  0  0  0  0  0  0  0  0  0
   32.7650   45.1860   -4.6950 C   0  0  0  0  0  0  0  0  0  0  0  0
   29.7760   43.6270   -3.0380 N   0  0  0  0  0  0  0  0  0  0  0  0
   30.9570   43.5890   -3.7480 C   0  0  0  0  0  0  0  0  0  0  0  0
   32.6940   45.9690   -5.9940 C   0  0  0  0  0  0  0  0  0  0  0  0
   31.7780   46.0510   -6.7940 O   0  0  0  0  0  0  0  0  0  0  0  0
   33.8480   46.6370   -6.2300 O   0  0  0  0  0  0  0  0  0  0  0  0
  1  2  1  0
  2  3  2  0
  2  4  1  0
  3  5  1  0
  3  6  1  0
  4  7  2  0
  4  8  1  0
  5  9  2  0
  6 10  1  0
  9 10  1  0
  6 11  2  0
  7 11  1  0
  8 12  1  0
  9 13  1  0
 12 14  1  0
 14 15  1  0
 14 16  1  0
 16 17  2  0
 16 18  1  0
 19 17  1  1
 18 20  2  0
 19 21  1  0
 20 21  1  0
 19 22  1  0
 22 23  1  0
 21 24  2  0
 22 25  2  0
 24 25  1  0
 23 26  1  0
 26 27  2  0
 26 28  1  0
M  END
