mac-x0284-mac-x0212
     RDKit          3D

 15 15  0  0  0  0  0  0  0  0999 V2000
   28.4580   51.7950   -5.5900 C   0  0  0  0  0  0  0  0  0  0  0  0
   29.3260   53.3570   -5.4430 S   0  0  0  0  0  0  0  0  0  0  0  0
   30.9080   53.0930   -6.2110 C   0  0  0  0  0  0  0  0  0  0  0  0
   29.1450   50.6810   -4.8380 C   0  0  0  0  0  0  0  0  0  0  0  0
   28.6150   54.3180   -6.2750 O   0  0  0  0  0  0  0  0  0  0  0  0
   29.5560   53.6550   -4.0410 O   0  0  0  0  0  0  0  0  0  0  0  0
   29.3290   49.4180   -5.4270 C   0  0  0  0  0  0  0  0  0  0  0  0
   29.6150   50.8870   -3.5290 C   0  0  0  0  0  0  0  0  0  0  0  0
   29.9700   48.3830   -4.7240 C   0  0  0  0  0  0  0  0  0  0  0  0
   30.2520   49.8560   -2.8280 C   0  0  0  0  0  0  0  0  0  0  0  0
   30.1230   47.0850   -5.4150 C   0  0  0  0  0  0  0  0  0  0  0  0
   30.4280   48.6080   -3.4250 C   0  0  0  0  0  0  0  0  0  0  0  0
   31.0530   47.6140   -2.7250 O   0  0  0  0  0  0  0  0  0  0  0  0
   29.8420   46.8640   -6.5780 O   0  0  0  0  0  0  0  0  0  0  0  0
   30.6190   46.1300   -4.6060 O   0  0  0  0  0  0  0  0  0  0  0  0
  2  1  1  0
  2  3  1  0
  1  4  1  0
  2  5  2  0
  2  6  2  0
  4  7  2  0
  4  8  1  0
  7  9  1  0
  8 10  2  0
  9 11  1  0
  9 12  2  0
 10 12  1  0
 12 13  1  0
 11 14  2  0
 11 15  1  0
M  END
