mac-x0341-mac-x0411
     RDKit          3D

 27 29  0  0  0  0  0  0  0  0999 V2000
   27.8880   54.6390   -7.6150 N   0  0  0  0  0  0  0  0  0  0  0  0
   28.4300   53.5980   -6.9390 C   0  0  0  0  0  0  0  0  0  0  0  0
   28.4570   52.4180   -7.4670 N   0  0  0  0  0  0  0  0  0  0  0  0
   28.9290   53.8680   -5.7000 N   0  0  0  0  0  0  0  0  0  0  0  0
   29.4770   52.9160   -4.8780 C   0  0  0  0  0  0  0  0  0  0  0  0
   29.0300   51.3710   -6.7250 C   0  0  0  0  0  0  0  0  0  0  0  0
   29.8780   53.1810   -3.7500 O   0  0  0  0  0  0  0  0  0  0  0  0
   29.5500   51.5570   -5.4420 C   0  0  0  0  0  0  0  0  0  0  0  0
   29.0870   50.0930   -7.2820 C   0  0  0  0  0  0  0  0  0  0  0  0
   29.6500   49.0280   -6.5700 C   0  0  0  0  0  0  0  0  0  0  0  0
   30.1160   50.5020   -4.7190 C   0  0  0  0  0  0  0  0  0  0  0  0
   30.1710   49.2200   -5.2820 C   0  0  0  0  0  0  0  0  0  0  0  0
   30.7760   48.0630   -4.5250 C   0  0  0  0  0  0  0  0  0  0  0  0
   32.2320   48.2560   -4.0740 C   0  0  0  0  0  0  0  0  0  0  0  0
   32.7720   47.1530   -3.1500 C   0  0  0  0  0  0  0  0  0  0  0  0
   34.2770   47.0830   -3.0500 C   0  0  0  0  0  0  0  0  0  0  0  0
   35.0190   45.9930   -3.5490 C   0  0  0  0  0  0  0  0  0  0  0  0
   34.9700   48.1430   -2.4370 C   0  0  0  0  0  0  0  0  0  0  0  0
   34.3560   44.9460   -4.1530 O   0  0  0  0  0  0  0  0  0  0  0  0
   36.3590   48.1220   -2.3220 C   0  0  0  0  0  0  0  0  0  0  0  0
   36.4210   45.9780   -3.4290 C   0  0  0  0  0  0  0  0  0  0  0  0
   37.3770   44.6660   -4.0210 Cl  0  0  0  0  0  0  0  0  0  0  0  0
   33.8470   45.3350   -5.4350 C   0  0  0  0  0  0  0  0  0  0  0  0
   37.0840   47.0420   -2.8160 C   0  0  0  0  0  0  0  0  0  0  0  0
   33.1540   44.1730   -6.1280 C   0  0  0  0  0  0  0  0  0  0  0  0
   32.2420   43.5300   -5.3680 O   0  0  0  0  0  0  0  0  0  0  0  0
   33.3550   43.8010   -7.2770 O   0  0  0  0  0  0  0  0  0  0  0  0
  1  2  1  0
  2  3  2  0
  2  4  1  0
  4  5  1  0
  3  6  1  0
  5  7  2  0
  5  8  1  0
  6  8  2  0
  6  9  1  0
  9 10  2  0
  8 11  1  0
 10 12  1  0
 11 12  2  0
 12 13  1  0
 13 14  1  0
 14 15  1  0
 15 16  1  0
 16 17  2  0
 16 18  1  0
 17 19  1  0
 18 20  2  0
 17 21  1  0
 21 22  1  0
 19 23  1  0
 20 24  1  0
 21 24  2  0
 23 25  1  0
 25 26  1  0
 25 27  2  0
M  END
