mac-x0415-mac-x0212
     RDKit          3D

 27 29  0  0  0  0  0  0  0  0999 V2000
   32.2330   48.0400   -5.8880 O   0  0  0  0  0  0  0  0  0  0  0  0
   31.4420   46.8530   -5.7880 C   0  0  0  0  0  0  0  0  0  0  0  0
   31.4840   46.3270   -7.1140 O   0  0  0  0  0  0  0  0  0  0  0  0
   32.1250   45.8520   -4.8340 C   0  0  0  0  0  0  0  0  0  0  0  0
   29.9800   47.2730   -5.4230 C   0  0  2  0  0  0  0  0  0  0  0  0
   29.1240   46.7260   -6.4530 O   0  0  0  0  0  0  0  0  0  0  0  0
   31.3450   45.3610   -3.6660 C   0  0  0  0  0  0  0  0  0  0  0  0
   29.6940   48.7570   -5.3290 C   0  0  0  0  0  0  0  0  0  0  0  0
   30.7330   44.0310   -3.4990 C   0  0  0  0  0  0  0  0  0  0  0  0
   30.9850   45.9340   -2.5170 C   0  0  0  0  0  0  0  0  0  0  0  0
   29.5740   49.5200   -6.5000 C   0  0  0  0  0  0  0  0  0  0  0  0
   29.5410   49.4100   -4.0970 C   0  0  0  0  0  0  0  0  0  0  0  0
   30.0700   43.7720   -2.4070 N   0  0  0  0  0  0  0  0  0  0  0  0
   30.1950   45.0190   -1.6370 C   0  0  2  0  0  0  0  0  0  0  0  0
   31.2130   47.2520   -1.9890 C   0  0  0  0  0  0  0  0  0  0  0  0
   29.3080   50.8940   -6.4440 C   0  0  0  0  0  0  0  0  0  0  0  0
   29.2760   50.7820   -4.0400 C   0  0  0  0  0  0  0  0  0  0  0  0
   28.9240   45.7080   -1.2570 C   0  0  0  0  0  0  0  0  0  0  0  0
   30.2010   47.8010   -1.2800 C   0  0  0  0  0  0  0  0  0  0  0  0
   29.1580   51.5290   -5.2120 C   0  0  0  0  0  0  0  0  0  0  0  0
   30.3230   49.4990   -0.5210 Br  0  0  0  0  0  0  0  0  0  0  0  0
   28.8850   52.9240   -5.0990 N   0  0  0  0  0  0  0  0  0  0  0  0
   28.9510   47.0490   -1.0900 C   0  0  0  0  0  0  0  0  0  0  0  0
   30.1070   54.0700   -5.2100 S   0  0  0  0  0  0  0  0  0  0  0  0
   31.4240   53.1480   -5.9800 C   0  0  0  0  0  0  0  0  0  0  0  0
   29.6430   55.0420   -6.1790 O   0  0  0  0  0  0  0  0  0  0  0  0
   30.5290   54.4810   -3.8900 O   0  0  0  0  0  0  0  0  0  0  0  0
  2  1  1  0
  2  3  1  0
  2  4  1  0
  2  5  1  0
  5  6  1  6
  4  7  1  0
  5  8  1  0
  7  9  1  0
  7 10  2  0
  8 11  2  0
  8 12  1  0
  9 13  2  0
 10 14  1  0
 13 14  1  0
 10 15  1  0
 11 16  1  0
 12 17  2  0
 14 18  1  6
 15 19  2  0
 16 20  2  0
 17 20  1  0
 19 21  1  0
 20 22  1  0
 18 23  2  0
 19 23  1  0
 24 22  1  0
 24 25  1  0
 24 26  2  0
 24 27  2  0
M  END
