mac-x0387-mac-x0301
     RDKit          3D

 14 15  0  0  0  0  0  0  0  0999 V2000
   28.1830   51.1400   -7.6240 N   0  0  0  0  0  0  0  0  0  0  0  0
   28.6700   49.8400   -7.4130 C   0  0  0  0  0  0  0  0  0  0  0  0
   28.6060   49.0270   -8.4770 N   0  0  0  0  0  0  0  0  0  0  0  0
   29.1900   49.4400   -6.1520 C   0  0  0  0  0  0  0  0  0  0  0  0
   29.6680   48.1110   -6.0100 C   0  0  0  0  0  0  0  0  0  0  0  0
   29.0600   47.7730   -8.3280 C   0  0  0  0  0  0  0  0  0  0  0  0
   29.2490   50.3140   -5.0370 C   0  0  0  0  0  0  0  0  0  0  0  0
   29.5870   47.2800   -7.1490 C   0  0  0  0  0  0  0  0  0  0  0  0
   30.1940   47.7050   -4.7440 C   0  0  0  0  0  0  0  0  0  0  0  0
   29.7650   49.9020   -3.8110 C   0  0  0  0  0  0  0  0  0  0  0  0
   30.7220   46.3290   -4.4950 C   0  0  0  0  0  0  0  0  0  0  0  0
   30.2330   48.6050   -3.6660 C   0  0  0  0  0  0  0  0  0  0  0  0
   29.7670   45.3880   -4.6200 O   0  0  0  0  0  0  0  0  0  0  0  0
   31.8620   46.0150   -4.2080 O   0  0  0  0  0  0  0  0  0  0  0  0
  1  2  1  0
  2  3  2  0
  2  4  1  0
  4  5  2  0
  3  6  1  0
  4  7  1  0
  5  8  1  0
  6  8  2  0
  5  9  1  0
  7 10  2  0
  9 11  1  0
  9 12  2  0
 10 12  1  0
 11 13  1  0
 11 14  2  0
M  END
