mac-x0509-mac-x0584
     RDKit          3D

 29 34  0  0  0  0  0  0  0  0999 V2000
   37.2990   47.2700   -5.2400 O   0  0  0  0  0  0  0  0  0  0  0  0
   37.2740   46.2040   -4.6430 C   0  0  0  0  0  0  0  0  0  0  0  0
   36.6140   45.9190   -3.2740 C   0  0  1  0  0  0  0  0  0  0  0  0
   37.8480   45.0200   -5.0870 N   0  0  0  0  0  0  0  0  0  0  0  0
   35.0870   46.0470   -3.3220 C   0  0  0  0  0  0  0  0  0  0  0  0
   37.0670   44.5050   -3.0170 C   0  0  0  0  0  0  0  0  0  0  0  0
   37.7840   44.0350   -4.1160 C   0  0  0  0  0  0  0  0  0  0  0  0
   36.8690   43.6940   -1.9110 C   0  0  0  0  0  0  0  0  0  0  0  0
   38.3230   42.7690   -4.1660 C   0  0  0  0  0  0  0  0  0  0  0  0
   34.5230   45.7020   -4.7010 C   0  0  1  0  0  0  0  0  0  0  0  0
   37.4060   42.4060   -1.9350 C   0  0  0  0  0  0  0  0  0  0  0  0
   38.1270   41.9450   -3.0530 C   0  0  0  0  0  0  0  0  0  0  0  0
   33.3940   44.6400   -4.6740 C   0  0  0  0  0  0  0  0  0  0  0  0
   33.5280   46.7280   -5.2940 C   0  0  0  0  0  0  0  0  0  0  0  0
   32.3860   45.6840   -5.2240 C   0  0  2  0  0  0  0  0  0  0  0  0
   31.1230   45.9920   -4.4080 C   0  0  1  0  0  0  0  0  0  0  0  0
   31.4530   45.8740   -2.9070 C   0  0  0  0  0  0  0  0  0  0  0  0
   30.6120   47.3730   -4.5620 N   0  0  0  0  0  0  0  0  0  0  0  0
   30.5760   48.0420   -3.2540 C   0  0  0  0  0  0  0  0  0  0  0  0
   30.5420   46.8950   -2.2570 C   0  0  0  0  0  0  0  0  0  0  0  0
   29.9260   47.8670   -5.6630 C   0  0  0  0  0  0  0  0  0  0  0  0
   29.5590   47.0520   -6.7200 N   0  0  0  0  0  0  0  0  0  0  0  0
   29.5600   49.1580   -5.7960 C   0  0  0  0  0  0  0  0  0  0  0  0
   28.8880   47.5210   -7.8120 C   0  0  0  0  0  0  0  0  0  0  0  0
   28.8280   49.6030   -7.0040 C   0  0  0  0  0  0  0  0  0  0  0  0
   29.6840   50.3570   -5.0280 C   0  0  0  0  0  0  0  0  0  0  0  0
   28.5050   48.7400   -8.0120 N   0  0  0  0  0  0  0  0  0  0  0  0
   28.5500   50.8800   -6.9760 N   0  0  0  0  0  0  0  0  0  0  0  0
   29.0820   51.3080   -5.7650 C   0  0  0  0  0  0  0  0  0  0  0  0
  1  2  2  0
  2  3  1  0
  2  4  1  0
  3  5  1  6
  3  6  1  0
  4  7  1  0
  6  7  2  0
  6  8  1  0
  7  9  1  0
 10  5  1  1
  8 11  2  0
  9 12  2  0
 11 12  1  0
 10 13  1  0
 10 14  1  0
 15 13  1  1
 14 15  1  0
 15 16  1  0
 16 17  1  1
 16 18  1  0
 18 19  1  0
 17 20  1  0
 19 20  1  0
 18 21  1  0
 21 22  1  0
 21 23  2  0
 22 24  1  0
 23 25  1  0
 23 26  1  0
 24 27  2  0
 25 27  1  0
 25 28  2  0
 26 29  2  0
 28 29  1  0
M  END
