mac-x0142-mac-x0231
     RDKit          3D

 27 31  0  0  0  0  0  0  0  0999 V2000
   34.5740   44.4390   -6.7380 O   0  0  0  0  0  0  0  0  0  0  0  0
   33.7060   43.9560   -5.8220 C   0  0  0  0  0  0  0  0  0  0  0  0
   33.0240   42.9790   -6.0700 O   0  0  0  0  0  0  0  0  0  0  0  0
   33.7260   44.7620   -4.5500 C   0  0  0  0  0  0  0  0  0  0  0  0
   32.5320   44.4720   -3.6040 C   0  0  1  0  0  0  0  0  0  0  0  0
   31.2900   45.4410   -3.6910 C   0  0  2  0  0  0  0  0  0  0  0  0
   32.0460   43.0740   -3.7290 N   0  0  0  0  0  0  0  0  0  0  0  0
   30.4450   45.3020   -4.9930 C   0  0  0  0  0  0  0  0  0  0  0  0
   31.6830   46.9630   -3.6600 C   0  0  0  0  0  0  0  0  0  0  0  0
   30.4680   45.1520   -2.4160 C   0  0  0  0  0  0  0  0  0  0  0  0
   30.8640   42.7750   -3.0050 N   0  0  0  0  0  0  0  0  0  0  0  0
   31.1410   45.2670   -6.3490 C   0  0  0  0  0  0  0  0  0  0  0  0
   30.4090   44.0550   -5.8640 C   0  0  0  0  0  0  0  0  0  0  0  0
   30.4860   47.9210   -3.7630 C   0  0  0  0  0  0  0  0  0  0  0  0
   29.1950   46.1720   -4.9470 C   0  0  0  0  0  0  0  0  0  0  0  0
   30.1690   43.6840   -2.2300 C   0  0  0  0  0  0  0  0  0  0  0  0
   29.3270   43.2970   -1.4170 O   0  0  0  0  0  0  0  0  0  0  0  0
   29.5870   47.5810   -4.8780 N   0  0  0  0  0  0  0  0  0  0  0  0
   29.2800   48.4620   -5.9120 C   0  0  0  0  0  0  0  0  0  0  0  0
   29.1070   48.0000   -7.2050 N   0  0  0  0  0  0  0  0  0  0  0  0
   29.1300   49.7870   -5.7550 C   0  0  0  0  0  0  0  0  0  0  0  0
   28.8020   48.8350   -8.2450 C   0  0  0  0  0  0  0  0  0  0  0  0
   28.8000   50.6380   -6.9250 C   0  0  0  0  0  0  0  0  0  0  0  0
   29.2010   50.7260   -4.6780 C   0  0  0  0  0  0  0  0  0  0  0  0
   28.6410   50.1140   -8.1760 N   0  0  0  0  0  0  0  0  0  0  0  0
   28.6850   51.8990   -6.6050 N   0  0  0  0  0  0  0  0  0  0  0  0
   28.9330   51.9190   -5.2390 C   0  0  0  0  0  0  0  0  0  0  0  0
  1  2  1  0
  2  3  2  0
  2  4  1  0
  5  4  1  6
  5  6  1  0
  5  7  1  0
  6  8  1  0
  6  9  1  1
  6 10  1  0
  7 11  1  0
  8 12  1  0
  8 13  1  0
 12 13  1  0
  9 14  1  0
  8 15  1  0
 10 16  1  0
 11 16  1  0
 16 17  2  0
 14 18  1  0
 15 18  1  0
 18 19  1  0
 19 20  1  0
 19 21  2  0
 20 22  1  0
 21 23  1  0
 21 24  1  0
 22 25  2  0
 23 25  1  0
 23 26  2  0
 24 27  2  0
 26 27  1  0
M  END
