mac-x0358-mac-x0402
     RDKit          3D

 22 24  0  0  0  0  0  0  0  0999 V2000
   31.9190   45.3670   -7.1680 O   0  0  0  0  0  0  0  0  0  0  0  0
   32.6200   45.8410   -6.1070 C   0  0  0  0  0  0  0  0  0  0  0  0
   33.6380   46.5030   -6.2630 O   0  0  0  0  0  0  0  0  0  0  0  0
   31.9950   45.4530   -4.7770 C   0  0  0  0  0  0  0  0  0  0  0  0
   32.2220   46.3830   -3.5900 C   0  0  0  0  0  0  0  0  0  0  0  0
   33.3980   46.2780   -2.8190 C   0  0  0  0  0  0  0  0  0  0  0  0
   31.2780   47.3780   -3.2100 C   0  0  0  0  0  0  0  0  0  0  0  0
   34.3650   45.3550   -3.1030 O   0  0  0  0  0  0  0  0  0  0  0  0
   29.9620   47.6220   -3.9350 C   0  0  0  0  0  0  0  0  0  0  0  0
   33.6500   47.1020   -1.7250 C   0  0  0  0  0  0  0  0  0  0  0  0
   31.5510   48.2030   -2.0970 C   0  0  0  0  0  0  0  0  0  0  0  0
   32.7240   48.0650   -1.3640 C   0  0  0  0  0  0  0  0  0  0  0  0
   29.6710   49.0660   -4.3080 C   0  0  0  0  0  0  0  0  0  0  0  0
   29.4650   50.0110   -3.2940 C   0  0  0  0  0  0  0  0  0  0  0  0
   29.6070   49.4730   -5.6540 C   0  0  0  0  0  0  0  0  0  0  0  0
   29.3370   50.8220   -5.9430 C   0  0  0  0  0  0  0  0  0  0  0  0
   29.1970   51.3520   -3.5970 C   0  0  0  0  0  0  0  0  0  0  0  0
   29.1310   51.7680   -4.9400 C   0  0  0  0  0  0  0  0  0  0  0  0
   29.2000   51.6000   -7.4720 S   0  0  0  0  0  0  0  0  0  0  0  0
   28.8850   53.0910   -6.6880 C   0  0  0  0  0  0  0  0  0  0  0  0
   28.8740   53.0550   -5.3800 N   0  0  0  0  0  0  0  0  0  0  0  0
   28.6640   54.2150   -7.3890 N   0  0  0  0  0  0  0  0  0  0  0  0
  1  2  1  0
  2  3  2  0
  2  4  1  0
  4  5  1  0
  5  6  2  0
  5  7  1  0
  6  8  1  0
  7  9  1  0
  6 10  1  0
  7 11  2  0
 10 12  2  0
 11 12  1  0
  9 13  1  0
 13 14  2  0
 13 15  1  0
 15 16  2  0
 14 17  1  0
 16 18  1  0
 17 18  2  0
 16 19  1  0
 19 20  1  0
 18 21  1  0
 20 21  2  0
 20 22  1  0
M  END
