mac-x0360-mac-x0159
     RDKit          3D

 28 31  0  0  0  0  0  0  0  0999 V2000
   30.9040   56.4560   -7.4330 Cl  0  0  0  0  0  0  0  0  0  0  0  0
   31.6600   55.0320   -6.8300 C   0  0  0  0  0  0  0  0  0  0  0  0
   33.0450   54.8910   -6.9280 C   0  0  0  0  0  0  0  0  0  0  0  0
   30.8840   54.0290   -6.2510 C   0  0  0  0  0  0  0  0  0  0  0  0
   31.5100   52.8760   -5.7670 C   0  0  0  0  0  0  0  0  0  0  0  0
   33.6560   53.7370   -6.4400 C   0  0  0  0  0  0  0  0  0  0  0  0
   35.3660   53.5660   -6.5610 Cl  0  0  0  0  0  0  0  0  0  0  0  0
   30.5400   51.5970   -5.0290 S   0  0  1  0  0  0  0  0  0  0  0  0
   32.8980   52.7210   -5.8570 C   0  0  0  0  0  0  0  0  0  0  0  0
   31.1890   51.2440   -3.5220 N   0  0  0  0  0  0  0  0  0  0  0  0
   29.2520   52.1350   -4.6690 O   0  0  0  0  0  0  0  0  0  0  0  0
   30.8570   50.2850   -5.7420 N   0  0  0  0  0  0  0  0  0  0  0  0
   29.9430   49.1480   -5.5330 C   0  0  2  0  0  0  0  0  0  0  0  0
   30.3120   48.5990   -4.2320 N   0  0  0  0  0  0  0  0  0  0  0  0
   30.1610   48.0950   -6.6540 C   0  0  1  0  0  0  0  0  0  0  0  0
   29.6440   47.3310   -3.9380 C   0  0  0  0  0  0  0  0  0  0  0  0
   29.3790   46.8780   -6.2540 C   0  0  2  0  0  0  0  0  0  0  0  0
   29.5700   48.3350   -7.9940 N   0  0  0  0  0  0  0  0  0  0  0  0
   29.7760   46.3160   -4.9850 N   0  0  0  0  0  0  0  0  0  0  0  0
   29.6300   46.0380   -7.4130 N   0  0  0  0  0  0  0  0  0  0  0  0
   29.4330   46.9690   -8.5260 C   0  0  0  0  0  0  0  0  0  0  0  0
   29.0620   45.0650   -4.6580 C   0  0  0  0  0  0  0  0  0  0  0  0
   28.1340   45.2420   -3.4830 C   0  0  0  0  0  0  0  0  0  0  0  0
   26.7800   45.5190   -3.5420 C   0  0  0  0  0  0  0  0  0  0  0  0
   28.6440   45.1230   -2.1940 N   0  0  0  0  0  0  0  0  0  0  0  0
   27.6860   45.3080   -1.3090 C   0  0  0  0  0  0  0  0  0  0  0  0
   26.1280   45.6320   -1.9630 S   0  0  0  0  0  0  0  0  0  0  0  0
   27.8780   45.2530    0.1670 C   0  0  0  0  0  0  0  0  0  0  0  0
  1  2  1  0
  2  3  2  0
  2  4  1  0
  4  5  2  0
  3  6  1  0
  6  7  1  0
  5  8  1  0
  5  9  1  0
  6  9  2  0
  8 10  1  1
  8 11  2  0
  8 12  2  0
 13 12  1  6
 13 14  1  0
 13 15  1  0
 14 16  1  0
 15 17  1  0
 15 18  1  6
 16 19  1  0
 17 19  1  0
 17 20  1  6
 18 21  1  0
 20 21  1  0
 19 22  1  0
 22 23  1  0
 23 24  2  0
 23 25  1  0
 25 26  2  0
 24 27  1  0
 26 27  1  0
 26 28  1  0
M  END
