mac-x0584-mac-x0373
     RDKit          3D

 28 32  0  0  0  0  0  0  0  0999 V2000
   33.6840   47.5090   -7.6750 O   0  0  0  0  0  0  0  0  0  0  0  0
   32.4010   47.6990   -7.3120 C   0  0  0  0  0  0  0  0  0  0  0  0
   31.5610   46.9360   -7.7840 O   0  0  0  0  0  0  0  0  0  0  0  0
   32.1220   48.8620   -6.3480 C   0  0  1  0  0  0  0  0  0  0  0  0
   30.6710   49.2240   -6.4800 C   0  0  0  0  0  0  0  0  0  0  0  0
   32.7700   48.8070   -4.9510 C   0  0  0  0  0  0  0  0  0  0  0  0
   29.4950   48.6660   -5.8670 C   0  0  0  0  0  0  0  0  0  0  0  0
   30.2050   50.2010   -7.2910 C   0  0  0  0  0  0  0  0  0  0  0  0
   32.7060   47.6340   -4.1800 C   0  0  0  0  0  0  0  0  0  0  0  0
   33.4520   49.9020   -4.3950 C   0  0  0  0  0  0  0  0  0  0  0  0
   28.3960   49.4290   -6.5350 C   0  0  0  0  0  0  0  0  0  0  0  0
   29.1580   47.7470   -4.9390 C   0  0  0  0  0  0  0  0  0  0  0  0
   28.8330   50.3570   -7.3370 N   0  0  0  0  0  0  0  0  0  0  0  0
   33.2960   47.5530   -2.9150 C   0  0  0  0  0  0  0  0  0  0  0  0
   34.0410   49.8230   -3.1300 C   0  0  0  0  0  0  0  0  0  0  0  0
   30.0540   46.9840   -4.1940 N   0  0  0  0  0  0  0  0  0  0  0  0
   27.8060   47.5860   -4.7210 N   0  0  0  0  0  0  0  0  0  0  0  0
   27.0780   49.1810   -6.3030 N   0  0  0  0  0  0  0  0  0  0  0  0
   33.9650   48.6490   -2.3900 C   0  0  0  0  0  0  0  0  0  0  0  0
   30.2870   45.5350   -4.3740 C   0  0  1  0  0  0  0  0  0  0  0  0
   30.2530   47.3130   -2.7720 C   0  0  0  0  0  0  0  0  0  0  0  0
   26.8580   48.2750   -5.4160 C   0  0  0  0  0  0  0  0  0  0  0  0
   31.7670   45.1240   -4.4840 C   0  0  0  0  0  0  0  0  0  0  0  0
   29.7230   44.9960   -3.0570 C   0  0  0  0  0  0  0  0  0  0  0  0
   30.2790   45.9750   -2.0360 C   0  0  0  0  0  0  0  0  0  0  0  0
   32.0330   43.6160   -4.7620 C   0  0  0  0  0  0  0  0  0  0  0  0
   32.5380   45.3690   -5.8180 C   0  0  0  0  0  0  0  0  0  0  0  0
   33.2890   44.0600   -5.5280 C   0  0  0  0  0  0  0  0  0  0  0  0
  1  2  1  0
  2  3  2  0
  4  2  1  1
  4  5  1  0
  4  6  1  0
  5  7  1  0
  5  8  2  0
  6  9  2  0
  6 10  1  0
  7 11  1  0
  7 12  2  0
  8 13  1  0
 11 13  2  0
  9 14  1  0
 10 15  2  0
 12 16  1  0
 12 17  1  0
 11 18  1  0
 14 19  2  0
 15 19  1  0
 16 20  1  0
 16 21  1  0
 17 22  1  0
 18 22  2  0
 20 23  1  1
 20 24  1  0
 21 25  1  0
 24 25  1  0
 23 26  1  0
 23 27  1  0
 26 28  1  0
 27 28  1  0
M  END
