mac-x0396-mac-x0124
     RDKit          3D

 18 20  0  0  0  0  0  0  0  0999 V2000
   28.0970   51.3740   -3.9770 C   0  0  0  0  0  0  0  0  0  0  0  0
   27.9780   50.1020   -4.0750 N   0  0  0  0  0  0  0  0  0  0  0  0
   28.7530   49.1580   -4.6800 C   0  0  0  0  0  0  0  0  0  0  0  0
   28.9890   52.4500   -4.3520 C   0  0  0  0  0  0  0  0  0  0  0  0
   29.9510   52.8460   -3.4600 C   0  0  0  0  0  0  0  0  0  0  0  0
   28.8650   53.1060   -5.5710 C   0  0  0  0  0  0  0  0  0  0  0  0
   30.8000   53.8590   -3.6860 N   0  0  0  0  0  0  0  0  0  0  0  0
   29.7290   54.1590   -5.8350 C   0  0  0  0  0  0  0  0  0  0  0  0
   29.5440   48.2590   -4.0200 C   0  0  0  0  0  0  0  0  0  0  0  0
   28.8090   48.9510   -6.0510 C   0  0  0  0  0  0  0  0  0  0  0  0
   30.6670   54.4940   -4.8680 C   0  0  0  0  0  0  0  0  0  0  0  0
   30.0850   47.4650   -4.9880 N   0  0  0  0  0  0  0  0  0  0  0  0
   29.6470   47.8700   -6.2260 C   0  0  0  0  0  0  0  0  0  0  0  0
   28.2530   49.5250   -7.1830 C   0  0  0  0  0  0  0  0  0  0  0  0
   30.9720   46.3570   -4.7520 C   0  0  0  0  0  0  0  0  0  0  0  0
   28.5370   49.0150   -8.3970 N   0  0  0  0  0  0  0  0  0  0  0  0
   29.9630   47.3180   -7.4050 N   0  0  0  0  0  0  0  0  0  0  0  0
   29.3650   47.9500   -8.4320 C   0  0  0  0  0  0  0  0  0  0  0  0
  1  2  2  3
  2  3  1  0
  1  4  1  0
  4  5  2  0
  4  6  1  0
  5  7  1  0
  6  8  2  0
  3  9  2  0
  3 10  1  0
  7 11  2  0
  8 11  1  0
  9 12  1  0
 10 13  2  0
 12 13  1  0
 10 14  1  0
 12 15  1  0
 14 16  2  0
 13 17  1  0
 16 18  1  0
 17 18  2  0
M  END
