mac-x0567-mac-x0415
     RDKit          3D

 26 29  0  0  0  0  0  0  0  0999 V2000
   29.7350   46.7070   -6.3520 N   0  0  0  0  0  0  0  0  0  0  0  0
   29.5770   48.0130   -6.5970 C   0  0  0  0  0  0  0  0  0  0  0  0
   29.6320   48.5000   -7.8340 N   0  0  0  0  0  0  0  0  0  0  0  0
   29.3670   49.0590   -5.7970 C   0  0  0  0  0  0  0  0  0  0  0  0
   29.9150   47.5700   -8.9100 C   0  0  0  0  0  0  0  0  0  0  0  0
   29.4270   49.8610   -7.9310 N   0  0  0  0  0  0  0  0  0  0  0  0
   29.2680   50.2280   -6.6240 C   0  0  0  0  0  0  0  0  0  0  0  0
   29.2770   48.9570   -4.4260 C   0  0  0  0  0  0  0  0  0  0  0  0
   30.7280   46.3580   -8.3050 C   0  0  0  0  0  0  0  0  0  0  0  0
   29.0440   51.4760   -6.0090 C   0  0  0  0  0  0  0  0  0  0  0  0
   29.0650   50.2030   -3.8420 C   0  0  0  0  0  0  0  0  0  0  0  0
   31.8200   46.8140   -7.3750 N   0  0  0  0  0  0  0  0  0  0  0  0
   28.9520   51.4120   -4.5940 C   0  0  0  0  0  0  0  0  0  0  0  0
   32.3410   46.3400   -6.2430 C   0  0  0  0  0  0  0  0  0  0  0  0
   33.3590   46.9820   -5.6400 O   0  0  0  0  0  0  0  0  0  0  0  0
   32.0260   45.0920   -5.3990 C   0  0  0  0  0  0  0  0  0  0  0  0
   30.8440   45.1340   -4.4780 C   0  0  0  0  0  0  0  0  0  0  0  0
   29.8630   44.0380   -4.4380 C   0  0  0  0  0  0  0  0  0  0  0  0
   30.3330   45.9480   -3.5210 C   0  0  0  0  0  0  0  0  0  0  0  0
   28.8500   44.1070   -3.6220 N   0  0  0  0  0  0  0  0  0  0  0  0
   29.0250   45.4290   -3.0070 C   0  0  1  0  0  0  0  0  0  0  0  0
   30.7780   47.1990   -2.9390 C   0  0  0  0  0  0  0  0  0  0  0  0
   28.8900   45.5470   -1.5320 C   0  0  0  0  0  0  0  0  0  0  0  0
   30.3800   47.4820   -1.6630 C   0  0  0  0  0  0  0  0  0  0  0  0
   30.8630   49.0580   -0.7840 Br  0  0  0  0  0  0  0  0  0  0  0  0
   29.5410   46.5450   -0.9090 C   0  0  0  0  0  0  0  0  0  0  0  0
  1  2  1  0
  2  3  1  0
  2  4  2  0
  3  5  1  0
  3  6  1  0
  4  7  1  0
  6  7  2  0
  4  8  1  0
  5  9  1  0
  7 10  1  0
  8 11  2  0
  9 12  1  0
 10 13  2  0
 11 13  1  0
 12 14  2  3
 14 15  1  0
 14 16  1  0
 16 17  1  0
 17 18  1  0
 17 19  2  0
 18 20  2  0
 19 21  1  0
 20 21  1  0
 19 22  1  0
 21 23  1  1
 22 24  2  0
 24 25  1  0
 23 26  2  0
 24 26  1  0
M  END
