mac-x0223-mac-x0567
     RDKit          3D

 24 26  0  0  0  0  0  0  0  0999 V2000
   27.5270   43.6730   -2.1560 C   0  0  0  0  0  0  0  0  0  0  0  0
   27.6220   45.0740   -1.9510 O   0  0  0  0  0  0  0  0  0  0  0  0
   28.7940   45.6830   -2.3080 C   0  0  0  0  0  0  0  0  0  0  0  0
   29.0310   46.9480   -1.7580 C   0  0  0  0  0  0  0  0  0  0  0  0
   29.7500   45.1340   -3.1700 C   0  0  0  0  0  0  0  0  0  0  0  0
   28.1010   47.4970   -0.9130 O   0  0  0  0  0  0  0  0  0  0  0  0
   30.1940   47.6530   -2.0540 C   0  0  0  0  0  0  0  0  0  0  0  0
   30.9290   45.8330   -3.4800 C   0  0  0  0  0  0  0  0  0  0  0  0
   31.9530   45.2250   -4.4120 C   0  0  0  0  0  0  0  0  0  0  0  0
   31.1420   47.0970   -2.9140 C   0  0  0  0  0  0  0  0  0  0  0  0
   32.2340   46.0340   -5.6610 C   0  0  0  0  0  0  0  0  0  0  0  0
   33.2330   46.7070   -5.8760 O   0  0  0  0  0  0  0  0  0  0  0  0
   31.1880   45.9000   -6.5340 O   0  0  0  0  0  0  0  0  0  0  0  0
   31.2210   46.8430   -7.6060 C   0  0  0  0  0  0  0  0  0  0  0  0
   29.8690   47.2930   -7.9350 N   0  0  0  0  0  0  0  0  0  0  0  0
   29.4250   48.5240   -7.5470 C   0  0  0  0  0  0  0  0  0  0  0  0
   28.7780   49.3980   -8.3880 N   0  0  0  0  0  0  0  0  0  0  0  0
   29.4750   49.1960   -6.3520 C   0  0  0  0  0  0  0  0  0  0  0  0
   28.4150   50.5690   -7.8280 N   0  0  0  0  0  0  0  0  0  0  0  0
   28.8370   50.4750   -6.5520 C   0  0  0  0  0  0  0  0  0  0  0  0
   30.0400   48.7310   -5.1650 C   0  0  0  0  0  0  0  0  0  0  0  0
   28.7310   51.4000   -5.4990 C   0  0  0  0  0  0  0  0  0  0  0  0
   29.9200   49.6790   -4.1300 C   0  0  0  0  0  0  0  0  0  0  0  0
   29.2970   50.9520   -4.2820 C   0  0  0  0  0  0  0  0  0  0  0  0
  1  2  1  0
  2  3  1  0
  3  4  2  0
  3  5  1  0
  4  6  1  0
  4  7  1  0
  5  8  2  0
  8  9  1  0
  7 10  2  0
  8 10  1  0
  9 11  1  0
 11 12  2  0
 11 13  1  0
 13 14  1  0
 14 15  1  0
 15 16  1  0
 16 17  1  0
 16 18  2  0
 17 19  1  0
 18 20  1  0
 19 20  2  0
 18 21  1  0
 20 22  1  0
 21 23  2  0
 22 24  2  0
 23 24  1  0
M  END
