mac-x0124-mac-x0398
     RDKit          3D

 21 23  0  0  0  0  0  0  0  0999 V2000
   30.5030   45.2140   -5.8140 C   0  0  0  0  0  0  0  0  0  0  0  0
   30.2650   46.6380   -5.7840 N   0  0  0  0  0  0  0  0  0  0  0  0
   30.7900   47.5160   -4.8720 C   0  0  0  0  0  0  0  0  0  0  0  0
   29.4710   47.3150   -6.6770 C   0  0  0  0  0  0  0  0  0  0  0  0
   30.3250   48.7750   -5.1850 C   0  0  0  0  0  0  0  0  0  0  0  0
   29.4850   48.6590   -6.3310 C   0  0  0  0  0  0  0  0  0  0  0  0
   28.8020   46.7610   -7.7030 N   0  0  0  0  0  0  0  0  0  0  0  0
   28.7230   49.5290   -7.1310 C   0  0  0  0  0  0  0  0  0  0  0  0
   28.1120   47.6810   -8.3970 C   0  0  0  0  0  0  0  0  0  0  0  0
   28.6240   50.9100   -6.9210 N   0  0  0  0  0  0  0  0  0  0  0  0
   28.0350   49.0090   -8.1760 N   0  0  0  0  0  0  0  0  0  0  0  0
   28.9000   51.6120   -5.7220 C   0  0  0  0  0  0  0  0  0  0  0  0
   29.2780   52.9740   -5.8060 C   0  0  0  0  0  0  0  0  0  0  0  0
   28.8140   51.0050   -4.4640 C   0  0  0  0  0  0  0  0  0  0  0  0
   29.3700   53.6070   -7.0650 N   0  0  0  0  0  0  0  0  0  0  0  0
   29.5590   53.6880   -4.6370 C   0  0  0  0  0  0  0  0  0  0  0  0
   29.0970   51.7220   -3.2960 C   0  0  0  0  0  0  0  0  0  0  0  0
   28.9780   50.9810   -2.0150 C   0  0  0  0  0  0  0  0  0  0  0  0
   29.4690   53.0670   -3.3890 C   0  0  0  0  0  0  0  0  0  0  0  0
   29.8560   50.8800   -1.1700 O   0  0  0  0  0  0  0  0  0  0  0  0
   29.7510   53.7900   -2.2670 O   0  0  0  0  0  0  0  0  0  0  0  0
  1  2  1  0
  2  3  1  0
  2  4  1  0
  3  5  2  0
  4  6  2  0
  5  6  1  0
  4  7  1  0
  6  8  1  0
  7  9  2  0
  8 10  1  0
  8 11  2  0
  9 11  1  0
 10 12  1  0
 12 13  2  0
 12 14  1  0
 13 15  1  0
 13 16  1  0
 14 17  2  0
 17 18  1  0
 16 19  2  0
 17 19  1  0
 18 20  2  0
 19 21  1  0
M  END
