mac-x0412-mac-x0373
     RDKit          3D

 21 23  0  0  0  0  0  0  0  0999 V2000
   29.3450   54.3170   -3.6760 O   0  0  0  0  0  0  0  0  0  0  0  0
   29.1740   53.6570   -4.6960 C   0  0  0  0  0  0  0  0  0  0  0  0
   28.3950   54.1620   -5.7320 N   0  0  0  0  0  0  0  0  0  0  0  0
   29.8350   52.2550   -4.8590 C   0  0  2  0  0  0  0  0  0  0  0  0
   29.3490   51.5000   -6.0810 C   0  0  0  0  0  0  0  0  0  0  0  0
   28.1100   53.4230   -6.7520 C   0  0  0  0  0  0  0  0  0  0  0  0
   29.8000   51.3530   -3.6420 C   0  0  0  0  0  0  0  0  0  0  0  0
   28.5280   52.0310   -6.9890 C   0  0  0  0  0  0  0  0  0  0  0  0
   29.8960   50.1590   -6.1820 C   0  0  0  0  0  0  0  0  0  0  0  0
   29.9940   50.0190   -3.7690 C   0  0  0  0  0  0  0  0  0  0  0  0
   30.2380   49.4350   -5.0920 C   0  0  0  0  0  0  0  0  0  0  0  0
   30.9380   48.0740   -5.2970 C   0  0  2  0  0  0  0  0  0  0  0  0
   30.1400   46.8140   -5.6330 C   0  0  0  0  0  0  0  0  0  0  0  0
   32.2260   47.9310   -4.4970 C   0  0  0  0  0  0  0  0  0  0  0  0
   30.7460   46.1360   -6.6380 O   0  0  0  0  0  0  0  0  0  0  0  0
   29.1130   46.3670   -5.1560 O   0  0  0  0  0  0  0  0  0  0  0  0
   32.5500   46.7600   -3.7820 C   0  0  0  0  0  0  0  0  0  0  0  0
   33.1310   48.9960   -4.4740 C   0  0  0  0  0  0  0  0  0  0  0  0
   33.7570   46.6760   -3.0740 C   0  0  0  0  0  0  0  0  0  0  0  0
   34.3270   48.9110   -3.7700 C   0  0  0  0  0  0  0  0  0  0  0  0
   34.6430   47.7520   -3.0720 C   0  0  0  0  0  0  0  0  0  0  0  0
  1  2  2  0
  2  3  1  0
  2  4  1  0
  4  5  1  0
  3  6  2  0
  4  7  1  1
  5  8  2  0
  6  8  1  0
  5  9  1  0
  7 10  2  0
  9 11  2  0
 10 11  1  0
 11 12  1  0
 12 13  1  1
 12 14  1  0
 13 15  1  0
 13 16  2  0
 14 17  2  0
 14 18  1  0
 17 19  1  0
 18 20  2  0
 19 21  2  0
 20 21  1  0
M  END
