mac-x0328-mac-x0385
     RDKit          3D

 11 11  0  0  0  0  0  0  0  0999 V2000
   30.7960   47.5780   -3.4050 O   0  0  0  0  0  0  0  0  0  0  0  0
   30.2840   48.1440   -4.5190 C   0  0  0  0  0  0  0  0  0  0  0  0
   30.0580   47.5340   -5.5500 O   0  0  0  0  0  0  0  0  0  0  0  0
   30.0290   49.5930   -4.3600 C   0  0  0  0  0  0  0  0  0  0  0  0
   29.3630   50.3200   -5.3610 C   0  0  0  0  0  0  0  0  0  0  0  0
   30.4650   50.2260   -3.1870 C   0  0  0  0  0  0  0  0  0  0  0  0
   29.1330   51.6840   -5.1870 C   0  0  0  0  0  0  0  0  0  0  0  0
   30.2360   51.5890   -3.0100 C   0  0  0  0  0  0  0  0  0  0  0  0
   28.4710   52.4620   -6.1600 N   0  0  0  0  0  0  0  0  0  0  0  0
   29.5780   52.2980   -4.0050 C   0  0  0  0  0  0  0  0  0  0  0  0
   29.3540   53.6360   -3.8330 O   0  0  0  0  0  0  0  0  0  0  0  0
  1  2  1  0
  2  3  2  0
  2  4  1  0
  4  5  2  0
  4  6  1  0
  5  7  1  0
  6  8  2  0
  7  9  1  0
  7 10  2  0
  8 10  1  0
 10 11  1  0
M  END
