mac-x0179-mac-x0277
     RDKit          3D

 24 26  0  0  0  0  0  0  0  0999 V2000
   32.0070   45.2080   -6.0240 N   0  0  0  0  0  0  0  0  0  0  0  0
   32.3570   45.7230   -4.6470 C   0  0  2  0  0  0  0  0  0  0  0  0
   32.9410   47.0380   -4.7780 O   0  0  0  0  0  0  0  0  0  0  0  0
   31.3460   45.9950   -6.7120 O   0  0  0  0  0  0  0  0  0  0  0  0
   33.4930   44.9310   -3.9480 C   0  0  0  0  0  0  0  0  0  0  0  0
   31.1150   45.8100   -3.7370 C   0  0  0  0  0  0  0  0  0  0  0  0
   34.0720   45.4640   -2.7210 N   0  0  0  0  0  0  0  0  0  0  0  0
   31.0550   46.8330   -2.7770 C   0  0  0  0  0  0  0  0  0  0  0  0
   30.0170   44.9200   -3.8030 C   0  0  0  0  0  0  0  0  0  0  0  0
   34.7650   44.6250   -1.9020 C   0  0  0  0  0  0  0  0  0  0  0  0
   34.5200   46.7570   -2.5540 C   0  0  0  0  0  0  0  0  0  0  0  0
   29.9640   46.9730   -1.9200 C   0  0  0  0  0  0  0  0  0  0  0  0
   28.9190   45.0600   -2.9410 C   0  0  0  0  0  0  0  0  0  0  0  0
   34.4960   43.4860   -1.5810 O   0  0  0  0  0  0  0  0  0  0  0  0
   34.0090   47.8090   -2.8860 O   0  0  0  0  0  0  0  0  0  0  0  0
   30.0140   48.2720   -0.7850 Cl  0  0  0  0  0  0  0  0  0  0  0  0
   35.9530   45.3480   -1.4640 C   0  0  0  0  0  0  0  0  0  0  0  0
   35.8060   46.6620   -1.8600 C   0  0  0  0  0  0  0  0  0  0  0  0
   28.8910   46.0900   -2.0000 C   0  0  0  0  0  0  0  0  0  0  0  0
   27.5160   46.2180   -0.9660 Cl  0  0  0  0  0  0  0  0  0  0  0  0
   37.0640   44.9060   -0.7780 C   0  0  0  0  0  0  0  0  0  0  0  0
   36.7720   47.6170   -1.5930 C   0  0  0  0  0  0  0  0  0  0  0  0
   38.0560   45.8490   -0.4950 C   0  0  0  0  0  0  0  0  0  0  0  0
   37.9110   47.1940   -0.8970 C   0  0  0  0  0  0  0  0  0  0  0  0
  2  1  1  0
  2  3  1  6
  1  4  2  0
  2  5  1  0
  2  6  1  0
  5  7  1  0
  6  8  2  0
  6  9  1  0
  7 10  1  0
  7 11  1  0
  8 12  1  0
  9 13  2  0
 10 14  2  0
 11 15  2  0
 12 16  1  0
 10 17  1  0
 11 18  1  0
 17 18  2  0
 12 19  2  0
 13 19  1  0
 19 20  1  0
 17 21  1  0
 18 22  1  0
 21 23  2  0
 22 24  2  0
 23 24  1  0
M  END
