mac-x0148-mac-x0306
     RDKit          3D

 22 26  0  0  0  0  0  0  0  0999 V2000
   32.2010   47.2610   -1.7100 C   0  0  0  0  0  0  0  0  0  0  0  0
   31.0210   48.0130   -1.4460 O   0  0  0  0  0  0  0  0  0  0  0  0
   30.2540   48.0100   -2.6570 C   0  0  0  0  0  0  0  0  0  0  0  0
   32.4760   47.3740   -3.1950 C   0  0  2  0  0  0  0  0  0  0  0  0
   31.2420   48.0630   -3.8230 C   0  0  1  0  0  0  0  0  0  0  0  0
   32.9140   46.0690   -3.8210 C   0  0  0  0  0  0  0  0  0  0  0  0
   33.0600   46.3370   -5.2900 C   0  0  0  0  0  0  0  0  0  0  0  0
   30.7530   47.3950   -5.0680 N   0  0  0  0  0  0  0  0  0  0  0  0
   31.6820   46.5700   -5.8940 C   0  0  0  0  0  0  0  0  0  0  0  0
   29.9020   48.1260   -5.9580 C   0  0  0  0  0  0  0  0  0  0  0  0
   29.3920   47.3990   -6.9740 N   0  0  0  0  0  0  0  0  0  0  0  0
   29.5670   49.4990   -5.8660 C   0  0  0  0  0  0  0  0  0  0  0  0
   28.5860   48.0060   -7.8550 C   0  0  0  0  0  0  0  0  0  0  0  0
   28.7110   50.0100   -6.8310 C   0  0  0  0  0  0  0  0  0  0  0  0
   29.9210   50.6320   -4.9290 C   0  0  0  0  0  0  0  0  0  0  0  0
   28.2110   49.2880   -7.8360 N   0  0  0  0  0  0  0  0  0  0  0  0
   28.3930   51.4060   -6.6560 N   0  0  0  0  0  0  0  0  0  0  0  0
   29.3020   51.8910   -5.6480 C   0  0  0  0  0  0  0  0  0  0  0  0
   30.1830   52.8690   -6.3270 N   0  0  0  0  0  0  0  0  0  0  0  0
   28.6720   52.8540   -4.7030 N   0  0  0  0  0  0  0  0  0  0  0  0
   28.8760   54.1780   -5.1120 C   0  0  0  0  0  0  0  0  0  0  0  0
   29.7700   54.1890   -6.0860 C   0  0  0  0  0  0  0  0  0  0  0  0
  1  2  1  0
  2  3  1  0
  4  1  1  1
  5  3  1  1
  4  5  1  0
  4  6  1  0
  6  7  1  0
  5  8  1  0
  7  9  1  0
  8  9  1  0
  8 10  1  0
 10 11  2  0
 10 12  1  0
 11 13  1  0
 12 14  2  0
 12 15  1  0
 13 16  2  0
 14 16  1  0
 14 17  1  0
 15 18  1  0
 18 17  1  0
 18 19  1  0
 18 20  1  0
 20 21  1  0
 19 22  1  0
 21 22  2  0
M  END
