mac-x0398-mac-x0411
     RDKit          3D

 26 27  0  0  0  0  0  0  0  0999 V2000
   28.6570   53.9110   -6.7170 N   0  0  0  0  0  0  0  0  0  0  0  0
   29.0030   52.8160   -5.9100 C   0  0  0  0  0  0  0  0  0  0  0  0
   29.0410   51.5190   -6.4330 C   0  0  0  0  0  0  0  0  0  0  0  0
   29.3190   53.0050   -4.5620 C   0  0  0  0  0  0  0  0  0  0  0  0
   29.6660   51.9180   -3.7550 C   0  0  0  0  0  0  0  0  0  0  0  0
   29.3890   50.4210   -5.6260 C   0  0  0  0  0  0  0  0  0  0  0  0
   29.9560   52.2130   -2.4480 O   0  0  0  0  0  0  0  0  0  0  0  0
   29.7070   50.6150   -4.2730 C   0  0  0  0  0  0  0  0  0  0  0  0
   30.0850   49.5110   -3.3500 C   0  0  0  0  0  0  0  0  0  0  0  0
   30.1730   49.6990   -2.1470 O   0  0  0  0  0  0  0  0  0  0  0  0
   30.3190   48.3230   -3.9630 O   0  0  0  0  0  0  0  0  0  0  0  0
   30.6400   47.2380   -3.0590 C   0  0  0  0  0  0  0  0  0  0  0  0
   32.1050   47.3000   -2.5880 C   0  0  0  0  0  0  0  0  0  0  0  0
   33.0710   47.3990   -3.7680 C   0  0  0  0  0  0  0  0  0  0  0  0
   34.5260   47.0780   -3.4420 C   0  0  0  0  0  0  0  0  0  0  0  0
   35.0910   45.7740   -3.3720 C   0  0  0  0  0  0  0  0  0  0  0  0
   35.3760   48.1770   -3.2040 C   0  0  0  0  0  0  0  0  0  0  0  0
   34.3840   44.6100   -3.5730 O   0  0  0  0  0  0  0  0  0  0  0  0
   36.7310   48.0090   -2.9120 C   0  0  0  0  0  0  0  0  0  0  0  0
   36.4650   45.6240   -3.0820 C   0  0  0  0  0  0  0  0  0  0  0  0
   37.2010   44.0590   -2.9990 Cl  0  0  0  0  0  0  0  0  0  0  0  0
   33.2510   44.6380   -4.4290 C   0  0  0  0  0  0  0  0  0  0  0  0
   37.2760   46.7320   -2.8540 C   0  0  0  0  0  0  0  0  0  0  0  0
   33.2780   45.1010   -5.8900 C   0  0  0  0  0  0  0  0  0  0  0  0
   32.0390   45.1080   -6.4340 O   0  0  0  0  0  0  0  0  0  0  0  0
   34.2350   45.4390   -6.5630 O   0  0  0  0  0  0  0  0  0  0  0  0
  1  2  1  0
  2  3  2  0
  2  4  1  0
  4  5  2  0
  3  6  1  0
  5  7  1  0
  5  8  1  0
  6  8  2  0
  8  9  1  0
  9 10  2  0
  9 11  1  0
 11 12  1  0
 12 13  1  0
 13 14  1  0
 14 15  1  0
 15 16  2  0
 15 17  1  0
 16 18  1  0
 17 19  2  0
 16 20  1  0
 20 21  1  0
 18 22  1  0
 19 23  1  0
 20 23  2  0
 22 24  1  0
 24 25  1  0
 24 26  2  0
M  END
