mac-x0337-mac-x0137
     RDKit          3D

 26 29  0  0  0  0  0  0  0  0999 V2000
   35.8270   51.8570   -5.8760 C   0  0  0  0  0  0  0  0  0  0  0  0
   34.3970   51.7390   -5.4380 C   0  0  0  0  0  0  0  0  0  0  0  0
   33.4060   52.5380   -6.0250 C   0  0  0  0  0  0  0  0  0  0  0  0
   34.0370   50.8270   -4.4360 C   0  0  0  0  0  0  0  0  0  0  0  0
   32.7080   50.7170   -4.0240 C   0  0  0  0  0  0  0  0  0  0  0  0
   32.0740   52.4320   -5.6180 C   0  0  0  0  0  0  0  0  0  0  0  0
   31.7340   51.5200   -4.6170 C   0  0  0  0  0  0  0  0  0  0  0  0
   30.0490   51.3920   -4.1090 S   0  0  2  0  0  0  0  0  0  0  0  0
   29.6430   49.9220   -3.9970 N   0  0  0  0  0  0  0  0  0  0  0  0
   29.2890   52.4430   -4.7380 O   0  0  0  0  0  0  0  0  0  0  0  0
   29.9530   51.8340   -2.4950 N   0  0  0  0  0  0  0  0  0  0  0  0
   30.5030   48.9190   -4.6470 C   0  0  1  0  0  0  0  0  0  0  0  0
   31.1680   48.0310   -3.5780 C   0  0  0  0  0  0  0  0  0  0  0  0
   29.7580   48.0550   -5.6010 N   0  0  0  0  0  0  0  0  0  0  0  0
   30.2630   46.6620   -5.5990 C   0  0  0  0  0  0  0  0  0  0  0  0
   32.2560   47.1440   -4.1740 C   0  0  0  0  0  0  0  0  0  0  0  0
   29.0410   48.5280   -6.7280 C   0  0  0  0  0  0  0  0  0  0  0  0
   31.7870   46.5560   -5.4900 C   0  0  0  0  0  0  0  0  0  0  0  0
   29.1990   47.8880   -7.9470 N   0  0  0  0  0  0  0  0  0  0  0  0
   28.1820   49.5740   -6.7760 C   0  0  0  0  0  0  0  0  0  0  0  0
   28.5650   48.2500   -9.0930 C   0  0  0  0  0  0  0  0  0  0  0  0
   27.5180   49.9290   -8.0670 C   0  0  0  0  0  0  0  0  0  0  0  0
   27.6460   50.5610   -5.8850 C   0  0  0  0  0  0  0  0  0  0  0  0
   27.7370   49.2330   -9.2200 N   0  0  0  0  0  0  0  0  0  0  0  0
   26.7230   50.9600   -7.9620 N   0  0  0  0  0  0  0  0  0  0  0  0
   26.8210   51.3200   -6.6290 C   0  0  0  0  0  0  0  0  0  0  0  0
  1  2  1  0
  2  3  2  0
  2  4  1  0
  4  5  2  0
  3  6  1  0
  5  7  1  0
  6  7  2  0
  7  8  1  0
  8  9  2  0
  8 10  2  0
  8 11  1  1
 12  9  1  1
 12 13  1  0
 12 14  1  0
 14 15  1  0
 13 16  1  0
 14 17  1  0
 15 18  1  0
 16 18  1  0
 17 19  1  0
 17 20  2  0
 19 21  1  0
 20 22  1  0
 20 23  1  0
 21 24  2  0
 22 24  1  0
 22 25  2  0
 23 26  2  0
 25 26  1  0
M  END
