mac-x0223-mac-x0283
     RDKit          3D

 26 28  0  0  0  0  0  0  0  0999 V2000
   27.5700   43.6160   -2.1750 C   0  0  0  0  0  0  0  0  0  0  0  0
   27.6130   45.0350   -2.0950 O   0  0  0  0  0  0  0  0  0  0  0  0
   28.8390   45.5990   -2.3490 C   0  0  0  0  0  0  0  0  0  0  0  0
   29.1470   46.7670   -1.6470 C   0  0  0  0  0  0  0  0  0  0  0  0
   29.7650   45.0710   -3.2500 C   0  0  0  0  0  0  0  0  0  0  0  0
   28.1940   47.2290   -0.7890 O   0  0  0  0  0  0  0  0  0  0  0  0
   30.3770   47.3990   -1.8460 C   0  0  0  0  0  0  0  0  0  0  0  0
   31.0020   45.7020   -3.4580 C   0  0  0  0  0  0  0  0  0  0  0  0
   31.9990   45.1270   -4.4350 C   0  0  0  0  0  0  0  0  0  0  0  0
   27.5060   48.3570   -1.3050 C   0  0  0  0  0  0  0  0  0  0  0  0
   31.3000   46.8690   -2.7480 C   0  0  0  0  0  0  0  0  0  0  0  0
   32.2880   46.0070   -5.6320 C   0  0  0  0  0  0  0  0  0  0  0  0
   28.5580   49.2790   -1.9100 C   0  0  0  0  0  0  0  0  0  0  0  0
   33.2580   46.7200   -5.8270 O   0  0  0  0  0  0  0  0  0  0  0  0
   31.3060   45.9410   -6.5570 O   0  0  0  0  0  0  0  0  0  0  0  0
   29.0430   48.9100   -3.3270 C   0  0  0  0  0  0  0  0  0  0  0  0
   29.0770   50.1510   -4.1540 C   0  0  0  0  0  0  0  0  0  0  0  0
   29.4500   51.3170   -3.4910 C   0  0  0  0  0  0  0  0  0  0  0  0
   28.7430   50.1670   -5.5190 C   0  0  0  0  0  0  0  0  0  0  0  0
   29.4550   52.4770   -4.2300 C   0  0  0  0  0  0  0  0  0  0  0  0
   28.7620   51.3680   -6.2450 C   0  0  0  0  0  0  0  0  0  0  0  0
   29.7770   53.7060   -3.7620 O   0  0  0  0  0  0  0  0  0  0  0  0
   29.1240   52.5500   -5.5670 C   0  0  0  0  0  0  0  0  0  0  0  0
   29.2640   53.9280   -5.8590 C   0  0  0  0  0  0  0  0  0  0  0  0
   29.6550   54.6260   -4.7860 N   0  0  0  0  0  0  0  0  0  0  0  0
   29.0280   54.4680   -7.0680 N   0  0  0  0  0  0  0  0  0  0  0  0
  1  2  1  0
  2  3  1  0
  3  4  2  0
  3  5  1  0
  4  6  1  0
  4  7  1  0
  5  8  2  0
  8  9  1  0
  6 10  1  0
  7 11  2  0
  8 11  1  0
  9 12  1  0
 10 13  1  0
 12 14  2  0
 12 15  1  0
 13 16  1  0
 16 17  1  0
 17 18  2  0
 17 19  1  0
 18 20  1  0
 19 21  2  0
 20 22  1  0
 20 23  2  0
 21 23  1  0
 23 24  1  0
 22 25  1  0
 24 25  2  0
 24 26  1  0
M  END
