mac-x0231-mac-x0472
     RDKit          3D

 30 33  0  0  0  0  0  0  0  0999 V2000
   34.4420   44.8500   -6.4890 O   0  0  0  0  0  0  0  0  0  0  0  0
   33.1680   44.4240   -6.3210 C   0  0  0  0  0  0  0  0  0  0  0  0
   32.2920   44.6830   -7.1340 O   0  0  0  0  0  0  0  0  0  0  0  0
   32.9660   43.6210   -5.0560 C   0  0  0  0  0  0  0  0  0  0  0  0
   31.7240   44.0150   -4.2830 C   0  0  0  0  0  0  0  0  0  0  0  0
   31.5800   45.4020   -3.7870 C   0  0  0  0  0  0  0  0  0  0  0  0
   30.8130   43.1020   -4.1040 N   0  0  0  0  0  0  0  0  0  0  0  0
   30.3610   45.7470   -3.2030 C   0  0  0  0  0  0  0  0  0  0  0  0
   29.6820   43.4490   -3.4290 N   0  0  0  0  0  0  0  0  0  0  0  0
   32.5980   46.3520   -3.8900 C   0  0  0  0  0  0  0  0  0  0  0  0
   29.3080   44.7280   -3.0930 C   0  0  0  0  0  0  0  0  0  0  0  0
   30.1440   47.0450   -2.7340 C   0  0  0  0  0  0  0  0  0  0  0  0
   32.3810   47.6430   -3.4210 C   0  0  0  0  0  0  0  0  0  0  0  0
   28.1730   45.0080   -2.7190 O   0  0  0  0  0  0  0  0  0  0  0  0
   31.1590   47.9810   -2.8570 C   0  0  0  0  0  0  0  0  0  0  0  0
   30.9510   49.3330   -2.4080 N   0  0  0  0  0  0  0  0  0  0  0  0
   30.5450   50.3240   -3.5100 S   0  0  2  0  0  0  0  0  0  0  0  0
   29.7080   51.4880   -3.3390 O   0  0  0  0  0  0  0  0  0  0  0  0
   29.7800   49.3940   -4.6870 N   0  0  0  0  0  0  0  0  0  0  0  0
   32.0520   50.8670   -4.3010 C   0  0  0  0  0  0  0  0  0  0  0  0
   29.3160   49.9670   -5.8270 C   0  0  0  0  0  0  0  0  0  0  0  0
   32.8520   49.9550   -4.9970 C   0  0  0  0  0  0  0  0  0  0  0  0
   32.4170   52.2140   -4.2170 C   0  0  0  0  0  0  0  0  0  0  0  0
   29.1280   49.2790   -6.9440 N   0  0  0  0  0  0  0  0  0  0  0  0
   28.9000   51.6360   -6.0160 S   0  0  0  0  0  0  0  0  0  0  0  0
   34.0250   50.3980   -5.6090 C   0  0  0  0  0  0  0  0  0  0  0  0
   33.5900   52.6480   -4.8330 C   0  0  0  0  0  0  0  0  0  0  0  0
   28.4890   51.2950   -7.6370 C   0  0  0  0  0  0  0  0  0  0  0  0
   28.6520   50.0420   -7.9920 N   0  0  0  0  0  0  0  0  0  0  0  0
   34.3930   51.7410   -5.5280 C   0  0  0  0  0  0  0  0  0  0  0  0
  1  2  1  0
  2  3  2  0
  2  4  1  0
  4  5  1  0
  5  6  1  0
  5  7  2  0
  6  8  2  0
  7  9  1  0
  6 10  1  0
  8 11  1  0
  9 11  1  0
  8 12  1  0
 10 13  2  0
 11 14  2  0
 12 15  2  0
 13 15  1  0
 15 16  1  0
 16 17  2  0
 17 18  2  0
 17 19  1  6
 17 20  1  0
 19 21  1  0
 20 22  2  0
 20 23  1  0
 21 24  2  0
 21 25  1  0
 22 26  1  0
 23 27  2  0
 25 28  1  0
 24 29  1  0
 28 29  2  0
 26 30  2  0
 27 30  1  0
M  END
