mac-x0226-mac-x0453
     RDKit          3D

 25 27  0  0  0  0  0  0  0  0999 V2000
   32.1430   45.5270   -6.9930 O   0  0  0  0  0  0  0  0  0  0  0  0
   32.9740   46.2740   -6.1290 C   0  0  0  0  0  0  0  0  0  0  0  0
   34.0570   46.7160   -6.9280 O   0  0  0  0  0  0  0  0  0  0  0  0
   32.1960   47.5160   -5.6740 C   0  0  0  0  0  0  0  0  0  0  0  0
   33.4680   45.4550   -4.9800 C   0  0  0  0  0  0  0  0  0  0  0  0
   30.7200   47.4890   -6.0730 C   0  0  0  0  0  0  0  0  0  0  0  0
   32.9140   44.2670   -4.4610 C   0  0  0  0  0  0  0  0  0  0  0  0
   34.5650   45.6770   -4.1770 C   0  0  0  0  0  0  0  0  0  0  0  0
   29.8410   47.8810   -4.8970 C   0  0  0  0  0  0  0  0  0  0  0  0
   33.5990   43.7860   -3.4230 N   0  0  0  0  0  0  0  0  0  0  0  0
   34.6200   44.6620   -3.2510 N   0  0  0  0  0  0  0  0  0  0  0  0
   35.5820   44.4940   -2.2250 C   0  0  0  0  0  0  0  0  0  0  0  0
   29.6720   49.3130   -4.8290 N   0  0  0  0  0  0  0  0  0  0  0  0
   36.4420   45.5600   -1.9280 C   0  0  0  0  0  0  0  0  0  0  0  0
   35.6900   43.2960   -1.5070 C   0  0  0  0  0  0  0  0  0  0  0  0
   29.2540   50.1210   -5.8470 C   0  0  0  0  0  0  0  0  0  0  0  0
   29.9000   50.0920   -3.7380 C   0  0  0  0  0  0  0  0  0  0  0  0
   37.3990   45.4320   -0.9240 C   0  0  0  0  0  0  0  0  0  0  0  0
   36.6530   43.1760   -0.5030 C   0  0  0  0  0  0  0  0  0  0  0  0
   29.2390   51.3910   -5.3150 C   0  0  0  0  0  0  0  0  0  0  0  0
   29.6460   51.3550   -3.9960 N   0  0  0  0  0  0  0  0  0  0  0  0
   28.8520   52.6710   -5.9840 C   0  0  0  0  0  0  0  0  0  0  0  0
   37.5060   44.2400   -0.2120 C   0  0  0  0  0  0  0  0  0  0  0  0
   30.0300   53.6030   -6.2900 C   0  0  0  0  0  0  0  0  0  0  0  0
   29.5970   54.8520   -6.9260 N   0  0  0  0  0  0  0  0  0  0  0  0
  2  1  1  0
  2  3  1  0
  2  4  1  0
  2  5  1  0
  4  6  1  0
  5  7  1  0
  5  8  2  0
  6  9  1  0
  7 10  2  0
  8 11  1  0
 10 11  1  0
 11 12  1  0
  9 13  1  0
 12 14  2  0
 12 15  1  0
 13 16  1  0
 13 17  1  0
 14 18  1  0
 15 19  2  0
 16 20  2  0
 17 21  2  0
 20 21  1  0
 20 22  1  0
 18 23  2  0
 19 23  1  0
 22 24  1  0
 24 25  1  0
M  END
