mac-x0346-mac-x0348
     RDKit          3D

 27 29  0  0  0  0  0  0  0  0999 V2000
   29.6190   54.8230   -5.6310 O   0  0  0  0  0  0  0  0  0  0  0  0
   29.3640   54.5260   -4.2720 N   0  0  0  0  0  0  0  0  0  0  0  0
   29.6690   53.2490   -3.8510 C   0  0  0  0  0  0  0  0  0  0  0  0
   30.2420   53.0680   -2.7800 O   0  0  0  0  0  0  0  0  0  0  0  0
   29.2830   52.0820   -4.7090 C   0  0  0  0  0  0  0  0  0  0  0  0
   29.5350   50.7420   -4.3440 C   0  0  0  0  0  0  0  0  0  0  0  0
   28.6390   52.3490   -5.9330 C   0  0  0  0  0  0  0  0  0  0  0  0
   30.1710   50.4630   -3.1410 O   0  0  0  0  0  0  0  0  0  0  0  0
   29.1370   49.7050   -5.2030 C   0  0  0  0  0  0  0  0  0  0  0  0
   28.2490   51.3080   -6.7820 C   0  0  0  0  0  0  0  0  0  0  0  0
   30.8450   49.1760   -3.0180 C   0  0  0  0  0  0  0  0  0  0  0  0
   28.4990   49.9860   -6.4120 C   0  0  0  0  0  0  0  0  0  0  0  0
   30.1390   48.3520   -1.9530 C   0  0  0  0  0  0  0  0  0  0  0  0
   29.6170   47.0350   -2.1280 C   0  0  0  0  0  0  0  0  0  0  0  0
   29.9860   48.9660   -0.6870 C   0  0  0  0  0  0  0  0  0  0  0  0
   29.5740   46.0730   -3.2080 C   0  0  0  0  0  0  0  0  0  0  0  0
   28.9590   46.4290   -1.0410 C   0  0  0  0  0  0  0  0  0  0  0  0
   29.3410   48.3350    0.3680 C   0  0  0  0  0  0  0  0  0  0  0  0
   30.1320   46.1630   -4.5950 C   0  0  0  0  0  0  0  0  0  0  0  0
   28.5300   45.1880   -1.4540 N   0  0  0  0  0  0  0  0  0  0  0  0
   28.8950   44.9670   -2.7430 C   0  0  0  0  0  0  0  0  0  0  0  0
   28.8140   47.0600    0.2050 C   0  0  0  0  0  0  0  0  0  0  0  0
   27.7960   44.2390   -0.6480 C   0  0  0  0  0  0  0  0  0  0  0  0
   31.6430   45.9440   -4.6450 C   0  0  0  0  0  0  0  0  0  0  0  0
   32.2210   46.1430   -6.0150 C   0  0  0  0  0  0  0  0  0  0  0  0
   31.6360   45.9630   -7.0700 O   0  0  0  0  0  0  0  0  0  0  0  0
   33.5000   46.5600   -6.0120 O   0  0  0  0  0  0  0  0  0  0  0  0
  1  2  1  0
  2  3  1  0
  3  4  2  0
  3  5  1  0
  5  6  2  0
  5  7  1  0
  6  8  1  0
  6  9  1  0
  7 10  2  0
  8 11  1  0
  9 12  2  0
 10 12  1  0
 11 13  1  0
 13 14  1  0
 13 15  2  0
 14 16  1  0
 14 17  2  0
 15 18  1  0
 16 19  1  0
 17 20  1  0
 16 21  2  0
 20 21  1  0
 17 22  1  0
 18 22  2  0
 20 23  1  0
 19 24  1  0
 24 25  1  0
 25 26  2  0
 25 27  1  0
M  END
