mac-x0375-mac-x0402
     RDKit          3D

 24 26  0  0  0  0  0  0  0  0999 V2000
   31.7360   44.2730   -6.4600 O   0  0  0  0  0  0  0  0  0  0  0  0
   32.9050   44.8060   -6.0510 C   0  0  0  0  0  0  0  0  0  0  0  0
   33.8830   44.7610   -6.7850 O   0  0  0  0  0  0  0  0  0  0  0  0
   32.8670   45.4300   -4.6560 C   0  0  1  0  0  0  0  0  0  0  0  0
   34.0330   45.0020   -3.9340 O   0  0  0  0  0  0  0  0  0  0  0  0
   32.8260   46.9610   -4.7870 C   0  0  0  0  0  0  0  0  0  0  0  0
   31.9730   47.6230   -3.6960 C   0  0  0  0  0  0  0  0  0  0  0  0
   35.0170   45.8980   -3.6120 C   0  0  0  0  0  0  0  0  0  0  0  0
   30.5100   47.8090   -4.1120 C   0  0  0  0  0  0  0  0  0  0  0  0
   36.3160   45.9180   -4.1200 C   0  0  0  0  0  0  0  0  0  0  0  0
   34.6400   46.8650   -2.6760 C   0  0  0  0  0  0  0  0  0  0  0  0
   37.2230   46.8990   -3.6970 C   0  0  0  0  0  0  0  0  0  0  0  0
   35.5440   47.8430   -2.2530 C   0  0  0  0  0  0  0  0  0  0  0  0
   30.1450   49.2430   -4.4220 C   0  0  0  0  0  0  0  0  0  0  0  0
   36.8350   47.8590   -2.7670 C   0  0  0  0  0  0  0  0  0  0  0  0
   30.1970   50.2160   -3.4180 C   0  0  0  0  0  0  0  0  0  0  0  0
   29.7510   49.6000   -5.7210 C   0  0  0  0  0  0  0  0  0  0  0  0
   29.4160   50.9400   -5.9840 C   0  0  0  0  0  0  0  0  0  0  0  0
   29.8580   51.5470   -3.6920 C   0  0  0  0  0  0  0  0  0  0  0  0
   29.4630   51.9200   -4.9900 C   0  0  0  0  0  0  0  0  0  0  0  0
   28.9050   51.6680   -7.4570 S   0  0  0  0  0  0  0  0  0  0  0  0
   28.7920   53.1860   -6.6700 C   0  0  0  0  0  0  0  0  0  0  0  0
   29.1020   53.1950   -5.3990 N   0  0  0  0  0  0  0  0  0  0  0  0
   28.4040   54.2880   -7.3350 N   0  0  0  0  0  0  0  0  0  0  0  0
  1  2  1  0
  2  3  2  0
  2  4  1  0
  4  5  1  0
  4  6  1  6
  6  7  1  0
  5  8  1  0
  7  9  1  0
  8 10  2  0
  8 11  1  0
 10 12  1  0
 11 13  2  0
  9 14  1  0
 12 15  2  0
 13 15  1  0
 14 16  2  0
 14 17  1  0
 17 18  2  0
 16 19  1  0
 18 20  1  0
 19 20  2  0
 18 21  1  0
 21 22  1  0
 20 23  1  0
 22 23  2  0
 22 24  1  0
M  END
