mac-x0433-mac-x0137
     RDKit          3D

 27 30  0  0  0  0  0  0  0  0999 V2000
   31.1080   53.0470   -6.8180 C   0  0  0  0  0  0  0  0  0  0  0  0
   30.6450   53.4460   -5.4490 C   0  0  0  0  0  0  0  0  0  0  0  0
   29.8540   54.5600   -5.2730 C   0  0  0  0  0  0  0  0  0  0  0  0
   31.0360   52.6730   -4.4180 N   0  0  0  0  0  0  0  0  0  0  0  0
   30.6260   53.0170   -3.1920 C   0  0  0  0  0  0  0  0  0  0  0  0
   29.4790   54.8430   -3.9750 C   0  0  0  0  0  0  0  0  0  0  0  0
   28.6190   56.0350   -3.6840 C   0  0  0  0  0  0  0  0  0  0  0  0
   30.9950   52.2530   -2.0890 N   0  0  0  0  0  0  0  0  0  0  0  0
   29.8580   54.0810   -2.9280 N   0  0  0  0  0  0  0  0  0  0  0  0
   30.4630   50.8950   -2.1060 C   0  0  0  0  0  0  0  0  0  0  0  0
   31.5500   49.8450   -2.3990 C   0  0  0  0  0  0  0  0  0  0  0  0
   31.2440   49.0830   -3.5750 O   0  0  0  0  0  0  0  0  0  0  0  0
   30.6630   47.7960   -3.3180 C   0  0  1  0  0  0  0  0  0  0  0  0
   29.4290   47.5160   -4.2000 C   0  0  0  0  0  0  0  0  0  0  0  0
   31.7540   46.7560   -3.5920 C   0  0  0  0  0  0  0  0  0  0  0  0
   29.7780   47.3530   -5.6340 N   0  0  0  0  0  0  0  0  0  0  0  0
   32.0800   46.6280   -5.0760 C   0  0  0  0  0  0  0  0  0  0  0  0
   30.8310   46.3610   -5.9080 C   0  0  0  0  0  0  0  0  0  0  0  0
   28.9050   47.7940   -6.6380 C   0  0  0  0  0  0  0  0  0  0  0  0
   28.7610   47.0500   -7.7990 N   0  0  0  0  0  0  0  0  0  0  0  0
   28.1540   48.9160   -6.5980 C   0  0  0  0  0  0  0  0  0  0  0  0
   27.9260   47.4130   -8.8160 C   0  0  0  0  0  0  0  0  0  0  0  0
   27.2690   49.2570   -7.7450 C   0  0  0  0  0  0  0  0  0  0  0  0
   27.9200   49.9990   -5.6920 C   0  0  0  0  0  0  0  0  0  0  0  0
   27.1800   48.4650   -8.8540 N   0  0  0  0  0  0  0  0  0  0  0  0
   26.6160   50.3720   -7.5620 N   0  0  0  0  0  0  0  0  0  0  0  0
   27.0300   50.7980   -6.3090 C   0  0  0  0  0  0  0  0  0  0  0  0
  1  2  1  0
  2  3  2  0
  2  4  1  0
  4  5  2  0
  3  6  1  0
  6  7  1  0
  5  8  1  0
  5  9  1  0
  6  9  2  0
  8 10  1  0
 10 11  1  0
 11 12  1  0
 13 12  1  6
 13 14  1  0
 13 15  1  0
 14 16  1  0
 15 17  1  0
 16 18  1  0
 17 18  1  0
 16 19  1  0
 19 20  1  0
 19 21  2  0
 20 22  1  0
 21 23  1  0
 21 24  1  0
 22 25  2  0
 23 25  1  0
 23 26  2  0
 24 27  2  0
 26 27  1  0
M  END
