mac-x0522-mac-x0131
     RDKit          3D

 36 40  0  0  0  0  0  0  0  0999 V2000
   38.1470   41.9790   -0.7790 O   0  0  0  0  0  0  0  0  0  0  0  0
   38.7180   40.8990   -0.9260 C   0  0  0  0  0  0  0  0  0  0  0  0
   39.5690   40.7280   -1.9970 N   0  0  0  0  0  0  0  0  0  0  0  0
   38.4460   39.8440    0.0830 C   0  0  0  0  0  0  0  0  0  0  0  0
   39.7860   41.6080   -3.0290 C   0  0  0  0  0  0  0  0  0  0  0  0
   39.1720   38.6470    0.0400 C   0  0  0  0  0  0  0  0  0  0  0  0
   37.4740   40.0350    1.0740 C   0  0  0  0  0  0  0  0  0  0  0  0
   40.5980   41.5190   -4.0530 N   0  0  0  0  0  0  0  0  0  0  0  0
   38.8430   43.0290   -2.9490 S   0  0  0  0  0  0  0  0  0  0  0  0
   38.9250   37.6480    0.9850 C   0  0  0  0  0  0  0  0  0  0  0  0
   37.2320   39.0340    2.0170 C   0  0  0  0  0  0  0  0  0  0  0  0
   39.5560   43.5890   -4.4050 C   0  0  0  0  0  0  0  0  0  0  0  0
   40.4720   42.6480   -4.8450 C   0  0  0  0  0  0  0  0  0  0  0  0
   37.9570   37.8430    1.9720 C   0  0  0  0  0  0  0  0  0  0  0  0
   39.1560   44.9050   -5.0010 C   0  0  0  0  0  0  0  0  0  0  0  0
   37.8250   44.8480   -5.7750 C   0  0  0  0  0  0  0  0  0  0  0  0
   36.5830   45.1650   -4.9240 C   0  0  0  0  0  0  0  0  0  0  0  0
   35.2790   44.9190   -5.7020 C   0  0  0  0  0  0  0  0  0  0  0  0
   34.1160   45.6700   -5.1310 C   0  0  0  0  0  0  0  0  0  0  0  0
   32.7520   45.2530   -5.0570 C   0  0  0  0  0  0  0  0  0  0  0  0
   34.1410   46.9250   -4.5600 C   0  0  0  0  0  0  0  0  0  0  0  0
   32.0510   46.2770   -4.4480 C   0  0  0  0  0  0  0  0  0  0  0  0
   32.9050   47.2960   -4.1470 O   0  0  0  0  0  0  0  0  0  0  0  0
   30.6250   46.4800   -4.0760 C   0  0  0  0  0  0  0  0  0  0  0  0
   30.1850   47.8260   -4.4250 N   0  0  0  0  0  0  0  0  0  0  0  0
   30.2300   48.9570   -3.6280 C   0  0  0  0  0  0  0  0  0  0  0  0
   29.6490   48.1430   -5.6500 C   0  0  0  0  0  0  0  0  0  0  0  0
   30.7560   48.9610   -2.2330 C   0  0  0  0  0  0  0  0  0  0  0  0
   29.7110   50.0140   -4.3720 C   0  0  0  0  0  0  0  0  0  0  0  0
   29.3430   49.4930   -5.6580 C   0  0  0  0  0  0  0  0  0  0  0  0
   29.4610   47.2770   -6.6610 N   0  0  0  0  0  0  0  0  0  0  0  0
   29.5610   51.4270   -3.9260 C   0  0  0  0  0  0  0  0  0  0  0  0
   28.7820   49.9960   -6.8450 C   0  0  0  0  0  0  0  0  0  0  0  0
   28.9230   47.8690   -7.7350 C   0  0  0  0  0  0  0  0  0  0  0  0
   28.4140   51.3230   -7.0360 N   0  0  0  0  0  0  0  0  0  0  0  0
   28.5780   49.1600   -7.8830 N   0  0  0  0  0  0  0  0  0  0  0  0
  1  2  2  0
  2  3  1  0
  2  4  1  0
  3  5  1  0
  4  6  2  0
  4  7  1  0
  5  8  2  0
  5  9  1  0
  6 10  1  0
  7 11  2  0
  9 12  1  0
  8 13  1  0
 12 13  2  0
 10 14  2  0
 11 14  1  0
 12 15  1  0
 15 16  1  0
 16 17  1  0
 17 18  1  0
 18 19  1  0
 19 20  1  0
 19 21  2  0
 20 22  2  0
 21 23  1  0
 22 23  1  0
 22 24  1  0
 24 25  1  0
 25 26  1  0
 25 27  1  0
 26 28  1  0
 26 29  2  0
 27 30  2  0
 29 30  1  0
 27 31  1  0
 29 32  1  0
 30 33  1  0
 31 34  2  0
 33 35  1  0
 33 36  2  0
 34 36  1  0
M  END
