mac-x0345-mac-x0206
     RDKit          3D

 18 19  0  0  0  0  0  0  0  0999 V2000
   26.8660   54.4910   -3.9050 C   0  0  0  0  0  0  0  0  0  0  0  0
   27.1740   53.1140   -4.4140 C   0  0  0  0  0  0  0  0  0  0  0  0
   28.2590   52.5150   -3.8530 N   0  0  0  0  0  0  0  0  0  0  0  0
   26.4030   52.4890   -5.3960 C   0  0  0  0  0  0  0  0  0  0  0  0
   24.8890   53.3060   -6.1910 Br  0  0  0  0  0  0  0  0  0  0  0  0
   26.7580   51.2120   -5.8130 C   0  0  0  0  0  0  0  0  0  0  0  0
   28.5880   51.2720   -4.2770 C   0  0  0  0  0  0  0  0  0  0  0  0
   29.7060   50.6530   -3.7160 N   0  0  0  0  0  0  0  0  0  0  0  0
   27.8690   50.5920   -5.2450 C   0  0  0  0  0  0  0  0  0  0  0  0
   30.8980   51.1040   -3.9410 C   0  0  0  0  0  0  0  0  0  0  0  0
   32.0750   50.5770   -3.4460 N   0  0  0  0  0  0  0  0  0  0  0  0
   30.9990   52.3210   -4.8210 C   0  0  0  0  0  0  0  0  0  0  0  0
   31.6540   53.4880   -4.3990 C   0  0  0  0  0  0  0  0  0  0  0  0
   30.4180   52.2870   -6.0980 C   0  0  0  0  0  0  0  0  0  0  0  0
   32.2500   53.6140   -3.1720 O   0  0  0  0  0  0  0  0  0  0  0  0
   31.7250   54.6010   -5.2390 C   0  0  0  0  0  0  0  0  0  0  0  0
   30.4910   53.4030   -6.9350 C   0  0  0  0  0  0  0  0  0  0  0  0
   31.1440   54.5570   -6.5070 C   0  0  0  0  0  0  0  0  0  0  0  0
  1  2  1  0
  2  3  2  0
  2  4  1  0
  4  5  1  0
  4  6  2  0
  3  7  1  0
  7  8  1  0
  6  9  1  0
  7  9  2  0
  8 10  2  3
 10 11  1  0
 10 12  1  0
 12 13  2  0
 12 14  1  0
 13 15  1  0
 13 16  1  0
 14 17  2  0
 16 18  2  0
 17 18  1  0
M  END
