mac-x0346-mac-x0132
     RDKit          3D

 16 17  0  0  0  0  0  0  0  0999 V2000
   31.6260   55.2830   -4.2520 O   0  0  0  0  0  0  0  0  0  0  0  0
   30.8870   54.2890   -4.9520 N   0  0  0  0  0  0  0  0  0  0  0  0
   30.5210   53.1990   -4.1950 C   0  0  0  0  0  0  0  0  0  0  0  0
   31.1770   52.8950   -3.1860 O   0  0  0  0  0  0  0  0  0  0  0  0
   29.2900   52.3760   -4.6360 C   0  0  2  0  0  0  0  0  0  0  0  0
   29.4990   50.8750   -4.3460 C   0  0  0  0  0  0  0  0  0  0  0  0
   28.8000   52.6150   -6.1080 C   0  0  1  0  0  0  0  0  0  0  0  0
   28.1270   52.7600   -3.7520 C   0  0  0  0  0  0  0  0  0  0  0  0
   30.3360   50.4720   -3.3080 O   0  0  0  0  0  0  0  0  0  0  0  0
   29.9150   52.7570   -7.0590 N   0  0  0  0  0  0  0  0  0  0  0  0
   28.8940   49.9220   -5.0670 C   0  0  0  0  0  0  0  0  0  0  0  0
   27.9550   51.4830   -6.6560 C   0  0  0  0  0  0  0  0  0  0  0  0
   27.2200   53.6330   -4.0600 N   0  0  0  0  0  0  0  0  0  0  0  0
   28.0370   53.8400   -6.2570 N   0  0  0  0  0  0  0  0  0  0  0  0
   28.0100   50.2400   -6.1600 C   0  0  0  0  0  0  0  0  0  0  0  0
   27.3270   54.2520   -5.2710 C   0  0  0  0  0  0  0  0  0  0  0  0
  1  2  1  0
  2  3  1  0
  3  4  2  0
  5  3  1  1
  5  6  1  0
  5  7  1  0
  5  8  1  0
  6  9  1  0
  7 10  1  6
  6 11  2  0
  7 12  1  0
  8 13  2  0
  7 14  1  0
 11 15  1  0
 12 15  2  0
 13 16  1  0
 14 16  2  0
M  END
