mac-x0190-mac-x1493
     RDKit          3D

 14 15  0  0  0  0  0  0  0  0999 V2000
   28.6260   56.7830   -5.4760 O   0  0  0  0  0  0  0  0  0  0  0  0
   29.6020   56.1840   -4.6330 C   0  0  0  0  0  0  0  0  0  0  0  0
   29.4810   54.7120   -4.8010 C   0  0  0  0  0  0  0  0  0  0  0  0
   29.9300   53.8340   -3.8410 N   0  0  0  0  0  0  0  0  0  0  0  0
   28.9680   54.0650   -5.8250 N   0  0  0  0  0  0  0  0  0  0  0  0
   29.6920   52.5540   -4.2810 C   0  0  0  0  0  0  0  0  0  0  0  0
   29.0900   52.7330   -5.5220 C   0  0  0  0  0  0  0  0  0  0  0  0
   29.9480   51.2850   -3.7250 C   0  0  0  0  0  0  0  0  0  0  0  0
   28.7040   51.6130   -6.2700 C   0  0  0  0  0  0  0  0  0  0  0  0
   29.5590   50.1730   -4.5090 C   0  0  0  0  0  0  0  0  0  0  0  0
   28.9460   50.3380   -5.7510 C   0  0  0  0  0  0  0  0  0  0  0  0
   29.7800   48.7660   -4.0800 C   0  0  0  0  0  0  0  0  0  0  0  0
   29.6190   47.8970   -5.1040 O   0  0  0  0  0  0  0  0  0  0  0  0
   30.0820   48.4250   -2.9520 O   0  0  0  0  0  0  0  0  0  0  0  0
  1  2  1  0
  2  3  1  0
  3  4  1  0
  3  5  2  0
  4  6  1  0
  5  7  1  0
  6  7  2  0
  6  8  1  0
  7  9  1  0
  8 10  2  0
  9 11  2  0
 10 11  1  0
 10 12  1  0
 12 13  1  0
 12 14  2  0
M  END
