mac-x0373-mac-x0397
     RDKit          3D

 21 23  0  0  0  0  0  0  0  0999 V2000
   30.7910   45.8290   -6.6640 O   0  0  0  0  0  0  0  0  0  0  0  0
   30.1760   46.4750   -5.6400 C   0  0  0  0  0  0  0  0  0  0  0  0
   29.1610   46.0280   -5.1420 O   0  0  0  0  0  0  0  0  0  0  0  0
   30.9380   47.7510   -5.2800 C   0  0  2  0  0  0  0  0  0  0  0  0
   32.2190   47.6910   -4.4590 C   0  0  0  0  0  0  0  0  0  0  0  0
   30.2490   49.1070   -5.1240 C   0  0  0  0  0  0  0  0  0  0  0  0
   32.6380   46.6010   -3.6820 C   0  0  0  0  0  0  0  0  0  0  0  0
   33.0340   48.8330   -4.5110 C   0  0  0  0  0  0  0  0  0  0  0  0
   30.0030   49.7470   -3.8950 C   0  0  0  0  0  0  0  0  0  0  0  0
   29.8820   49.7370   -6.3180 C   0  0  0  0  0  0  0  0  0  0  0  0
   33.8510   46.6640   -2.9830 C   0  0  0  0  0  0  0  0  0  0  0  0
   34.2360   48.8940   -3.8170 C   0  0  0  0  0  0  0  0  0  0  0  0
   29.4130   51.0230   -3.8890 C   0  0  0  0  0  0  0  0  0  0  0  0
   29.2990   51.0070   -6.2790 C   0  0  0  0  0  0  0  0  0  0  0  0
   29.1060   51.8760   -2.4320 Cl  0  0  0  0  0  0  0  0  0  0  0  0
   34.6450   47.8060   -3.0530 C   0  0  0  0  0  0  0  0  0  0  0  0
   29.0550   51.6850   -5.0860 C   0  0  0  0  0  0  0  0  0  0  0  0
   28.7960   51.9790   -7.6040 S   0  0  0  0  0  0  0  0  0  0  0  0
   28.3190   53.2120   -6.5210 C   0  0  0  0  0  0  0  0  0  0  0  0
   28.4900   52.9470   -5.2490 N   0  0  0  0  0  0  0  0  0  0  0  0
   27.8060   54.3700   -6.9710 N   0  0  0  0  0  0  0  0  0  0  0  0
  1  2  1  0
  2  3  2  0
  4  2  1  1
  4  5  1  0
  4  6  1  0
  5  7  2  0
  5  8  1  0
  6  9  2  0
  6 10  1  0
  7 11  1  0
  8 12  2  0
  9 13  1  0
 10 14  2  0
 13 15  1  0
 11 16  2  0
 12 16  1  0
 13 17  2  0
 14 17  1  0
 14 18  1  0
 18 19  1  0
 17 20  1  0
 19 20  2  0
 19 21  1  0
M  END
