mac-x0510-mac-x0387
     RDKit          3D

 17 19  0  0  0  0  0  0  0  0999 V2000
   27.9220   53.9030   -6.1630 O   0  0  0  0  0  0  0  0  0  0  0  0
   28.2210   52.7220   -6.0390 C   0  0  0  0  0  0  0  0  0  0  0  0
   28.8190   52.2400   -4.8930 N   0  0  0  0  0  0  0  0  0  0  0  0
   27.9870   51.8070   -7.0190 N   0  0  0  0  0  0  0  0  0  0  0  0
   28.2470   50.4330   -6.7680 C   0  0  2  0  0  0  0  0  0  0  0  0
   29.4870   51.0440   -4.7860 C   0  0  0  0  0  0  0  0  0  0  0  0
   29.9880   50.6730   -3.7230 O   0  0  0  0  0  0  0  0  0  0  0  0
   29.5450   50.2640   -6.0600 C   0  0  1  0  0  0  0  0  0  0  0  0
   28.4740   49.6990   -8.0070 N   0  0  0  0  0  0  0  0  0  0  0  0
   27.2520   49.3520   -8.6860 N   0  0  0  0  0  0  0  0  0  0  0  0
   29.7380   48.7440   -6.1150 C   0  0  0  0  0  0  0  0  0  0  0  0
   29.2690   48.5020   -7.5960 C   0  0  0  0  0  0  0  0  0  0  0  0
   28.8610   47.9660   -5.1340 C   0  0  0  0  0  0  0  0  0  0  0  0
   31.2090   48.3800   -5.9550 C   0  0  0  0  0  0  0  0  0  0  0  0
   29.3530   47.2070   -4.1390 C   0  0  0  0  0  0  0  0  0  0  0  0
   31.6860   47.6210   -4.9540 C   0  0  0  0  0  0  0  0  0  0  0  0
   30.8210   47.0430   -3.8720 C   0  0  0  0  0  0  0  0  0  0  0  0
  1  2  2  0
  2  3  1  0
  2  4  1  0
  5  4  1  6
  3  6  1  0
  6  7  2  0
  5  8  1  0
  8  6  1  1
  5  9  1  0
  9 10  1  0
  8 11  1  0
  9 12  1  0
 11 12  1  0
 11 13  1  0
 11 14  1  0
 13 15  2  0
 14 16  2  0
 15 17  1  0
 16 17  1  0
M  END
