mac-x0358-mac-x0587
     RDKit          3D

 21 22  0  0  0  0  0  0  0  0999 V2000
   31.7200   45.1780   -6.6340 O   0  0  0  0  0  0  0  0  0  0  0  0
   32.3250   45.7730   -5.5870 C   0  0  0  0  0  0  0  0  0  0  0  0
   33.3900   46.3480   -5.7800 O   0  0  0  0  0  0  0  0  0  0  0  0
   31.5920   45.6450   -4.2410 C   0  0  2  0  0  0  0  0  0  0  0  0
   30.0850   46.0430   -4.2610 C   0  0  2  0  0  0  0  0  0  0  0  0
   32.1730   46.4000   -3.0650 C   0  0  0  0  0  0  0  0  0  0  0  0
   29.3950   45.7410   -5.5910 C   0  0  0  0  0  0  0  0  0  0  0  0
   29.8910   47.5430   -3.8920 C   0  0  0  0  0  0  0  0  0  0  0  0
   33.4460   46.9850   -3.0130 C   0  0  0  0  0  0  0  0  0  0  0  0
   31.3390   46.5160   -1.9450 C   0  0  0  0  0  0  0  0  0  0  0  0
   34.2950   46.8930   -4.0770 O   0  0  0  0  0  0  0  0  0  0  0  0
   29.7440   47.8720   -2.7060 O   0  0  0  0  0  0  0  0  0  0  0  0
   33.8530   47.6720   -1.8670 C   0  0  0  0  0  0  0  0  0  0  0  0
   31.7390   47.1960   -0.8100 C   0  0  0  0  0  0  0  0  0  0  0  0
   29.8740   48.5460   -4.8600 N   0  0  0  0  0  0  0  0  0  0  0  0
   32.9980   47.7770   -0.7700 C   0  0  0  0  0  0  0  0  0  0  0  0
   30.0690   49.9140   -4.4040 C   0  0  0  0  0  0  0  0  0  0  0  0
   29.2560   48.5910   -6.1320 C   0  0  0  0  0  0  0  0  0  0  0  0
   29.0440   47.6800   -6.9080 O   0  0  0  0  0  0  0  0  0  0  0  0
   29.2640   50.7860   -5.3520 C   0  0  0  0  0  0  0  0  0  0  0  0
   28.8930   49.9000   -6.4100 N   0  0  0  0  0  0  0  0  0  0  0  0
  1  2  1  0
  2  3  2  0
  4  2  1  6
  4  5  1  0
  4  6  1  0
  5  7  1  6
  5  8  1  0
  6  9  2  0
  6 10  1  0
  9 11  1  0
  8 12  2  0
  9 13  1  0
 10 14  2  0
  8 15  1  0
 13 16  2  0
 14 16  1  0
 15 17  1  0
 15 18  1  0
 18 19  2  0
 17 20  1  0
 18 21  1  0
 20 21  1  0
M  END
