mac-x0453-mac-x0436
     RDKit          3D

 25 27  0  0  0  0  0  0  0  0999 V2000
   29.3130   54.6230   -6.9040 N   0  0  0  0  0  0  0  0  0  0  0  0
   29.9290   53.4410   -6.2800 C   0  0  0  0  0  0  0  0  0  0  0  0
   28.9640   52.2550   -6.0900 C   0  0  0  0  0  0  0  0  0  0  0  0
   29.5660   51.1420   -5.2870 C   0  0  0  0  0  0  0  0  0  0  0  0
   30.3760   50.0930   -5.6980 C   0  0  0  0  0  0  0  0  0  0  0  0
   29.3530   51.0580   -3.9320 N   0  0  0  0  0  0  0  0  0  0  0  0
   30.6620   49.3750   -4.5540 N   0  0  0  0  0  0  0  0  0  0  0  0
   30.0170   49.9970   -3.5260 C   0  0  0  0  0  0  0  0  0  0  0  0
   31.5070   48.1660   -4.4300 C   0  0  0  0  0  0  0  0  0  0  0  0
   32.9240   48.4620   -4.1100 N   0  0  0  0  0  0  0  0  0  0  0  0
   33.9050   47.6790   -3.7100 C   0  0  0  0  0  0  0  0  0  0  0  0
   33.6970   46.1450   -3.4920 C   0  0  0  0  0  0  0  0  0  0  0  0
   35.1870   48.1270   -3.4510 N   0  0  0  0  0  0  0  0  0  0  0  0
   32.3460   45.5210   -3.7750 C   0  0  0  0  0  0  0  0  0  0  0  0
   36.2090   47.2740   -3.0040 C   0  0  0  0  0  0  0  0  0  0  0  0
   34.6690   45.3600   -3.0700 N   0  0  0  0  0  0  0  0  0  0  0  0
   32.3990   44.5470   -4.9450 C   0  0  0  0  0  0  0  0  0  0  0  0
   35.9450   45.9100   -2.8170 C   0  0  0  0  0  0  0  0  0  0  0  0
   37.4900   47.7800   -2.7450 C   0  0  0  0  0  0  0  0  0  0  0  0
   32.4900   45.2610   -6.2740 C   0  0  0  0  0  0  0  0  0  0  0  0
   36.9710   45.0660   -2.3700 C   0  0  0  0  0  0  0  0  0  0  0  0
   38.5060   46.9330   -2.3010 C   0  0  0  0  0  0  0  0  0  0  0  0
   33.7420   45.6270   -6.6260 O   0  0  0  0  0  0  0  0  0  0  0  0
   31.5180   45.4950   -6.9840 O   0  0  0  0  0  0  0  0  0  0  0  0
   38.2470   45.5770   -2.1130 C   0  0  0  0  0  0  0  0  0  0  0  0
  1  2  1  0
  2  3  1  0
  3  4  1  0
  4  5  2  0
  4  6  1  0
  5  7  1  0
  6  8  2  0
  7  8  1  0
  7  9  1  0
  9 10  1  0
 10 11  2  3
 11 12  1  0
 11 13  1  0
 12 14  1  0
 13 15  1  0
 12 16  2  0
 14 17  1  0
 15 18  2  0
 16 18  1  0
 15 19  1  0
 17 20  1  0
 18 21  1  0
 19 22  2  0
 20 23  1  0
 20 24  2  0
 21 25  2  0
 22 25  1  0
M  END
