mac-x0358-mac-x0301
     RDKit          3D

 22 24  0  0  0  0  0  0  0  0999 V2000
   32.0630   45.3660   -7.0220 O   0  0  0  0  0  0  0  0  0  0  0  0
   32.9160   45.7620   -6.0480 C   0  0  0  0  0  0  0  0  0  0  0  0
   33.8500   46.4880   -6.3330 O   0  0  0  0  0  0  0  0  0  0  0  0
   32.5390   45.1880   -4.7060 C   0  0  0  0  0  0  0  0  0  0  0  0
   32.3680   46.1800   -3.5620 C   0  0  0  0  0  0  0  0  0  0  0  0
   33.4960   46.5240   -2.8030 C   0  0  0  0  0  0  0  0  0  0  0  0
   31.1350   46.7820   -3.2100 C   0  0  0  0  0  0  0  0  0  0  0  0
   34.6980   45.9730   -3.1450 O   0  0  0  0  0  0  0  0  0  0  0  0
   33.4290   47.4050   -1.7260 C   0  0  0  0  0  0  0  0  0  0  0  0
   31.0860   47.6620   -2.1130 C   0  0  0  0  0  0  0  0  0  0  0  0
   29.8490   46.5520   -3.9670 C   0  0  2  0  0  0  0  0  0  0  0  0
   32.2160   47.9690   -1.3750 C   0  0  0  0  0  0  0  0  0  0  0  0
   29.9520   45.4920   -4.9190 O   0  0  0  0  0  0  0  0  0  0  0  0
   29.4640   47.8460   -4.6670 C   0  0  0  0  0  0  0  0  0  0  0  0
   29.2740   47.9590   -6.0420 C   0  0  0  0  0  0  0  0  0  0  0  0
   29.2840   49.0290   -3.9190 C   0  0  0  0  0  0  0  0  0  0  0  0
   28.9250   49.1560   -6.6350 C   0  0  0  0  0  0  0  0  0  0  0  0
   28.9320   50.2430   -4.5310 C   0  0  0  0  0  0  0  0  0  0  0  0
   29.3930   46.9640   -6.9670 O   0  0  0  0  0  0  0  0  0  0  0  0
   28.7480   50.3120   -5.9090 C   0  0  0  0  0  0  0  0  0  0  0  0
   28.7850   49.0530   -7.9850 O   0  0  0  0  0  0  0  0  0  0  0  0
   28.9360   47.6340   -8.1600 C   0  0  0  0  0  0  0  0  0  0  0  0
  1  2  1  0
  2  3  2  0
  2  4  1  0
  4  5  1  0
  5  6  2  0
  5  7  1  0
  6  8  1  0
  6  9  1  0
  7 10  2  0
  7 11  1  0
  9 12  2  0
 10 12  1  0
 11 13  1  6
 11 14  1  0
 14 15  1  0
 14 16  2  0
 15 17  2  0
 16 18  1  0
 15 19  1  0
 17 20  1  0
 18 20  2  0
 17 21  1  0
 19 22  1  0
 21 22  1  0
M  END
