mac-x0224-mac-x0415
     RDKit          3D

 23 25  0  0  0  0  0  0  0  0999 V2000
   28.6070   52.6750   -6.2310 C   0  0  0  0  0  0  0  0  0  0  0  0
   28.2650   50.9960   -6.8200 S   0  0  0  0  0  0  0  0  0  0  0  0
   29.1940   50.0680   -5.6220 C   0  0  0  0  0  0  0  0  0  0  0  0
   29.8850   48.9350   -6.0500 C   0  0  0  0  0  0  0  0  0  0  0  0
   29.2480   50.4480   -4.2820 C   0  0  0  0  0  0  0  0  0  0  0  0
   30.6280   48.1870   -5.1390 C   0  0  0  0  0  0  0  0  0  0  0  0
   29.9870   49.6980   -3.3740 C   0  0  0  0  0  0  0  0  0  0  0  0
   31.3530   47.0170   -5.6400 C   0  0  0  0  0  0  0  0  0  0  0  0
   30.6750   48.5680   -3.8110 C   0  0  0  0  0  0  0  0  0  0  0  0
   31.3810   47.8330   -2.9280 O   0  0  0  0  0  0  0  0  0  0  0  0
   31.0060   46.2070   -6.5630 N   0  0  0  0  0  0  0  0  0  0  0  0
   32.1070   45.2720   -6.7030 C   0  0  0  0  0  0  0  0  0  0  0  0
   30.3560   47.0400   -2.3860 C   0  0  1  0  0  0  0  0  0  0  0  0
   33.3600   45.8620   -6.3810 O   0  0  0  0  0  0  0  0  0  0  0  0
   30.5110   45.5720   -2.6530 C   0  0  2  0  0  0  0  0  0  0  0  0
   30.2420   47.1130   -0.8670 C   0  0  1  0  0  0  0  0  0  0  0  0
   30.1670   48.9760   -0.2450 Br  0  0  0  0  0  0  0  0  0  0  0  0
   30.9720   44.8690   -3.8970 C   0  0  0  0  0  0  0  0  0  0  0  0
   29.0320   45.1460   -2.6340 C   0  0  1  0  0  0  0  0  0  0  0  0
   28.9830   46.3650   -0.4690 C   0  0  0  0  0  0  0  0  0  0  0  0
   30.1290   43.8380   -4.1030 C   0  0  0  0  0  0  0  0  0  0  0  0
   29.1450   43.7830   -3.1160 N   0  0  0  0  0  0  0  0  0  0  0  0
   28.4130   45.4370   -1.2970 C   0  0  0  0  0  0  0  0  0  0  0  0
  1  2  1  0
  2  3  1  0
  3  4  2  0
  3  5  1  0
  4  6  1  0
  5  7  2  0
  6  8  1  0
  6  9  2  0
  7  9  1  0
  9 10  1  0
  8 11  2  3
 11 12  1  0
 13 10  1  1
 12 14  1  0
 13 15  1  0
 13 16  1  0
 16 17  1  6
 15 18  1  6
 15 19  1  0
 16 20  1  0
 18 21  2  0
 19 22  1  0
 21 22  1  0
 19 23  1  1
 20 23  2  0
M  END
