mac-x0116-mac-x0137
     RDKit          3D

 26 30  0  0  0  0  0  0  0  0999 V2000
   29.6920   53.9420   -6.1950 C   0  0  0  0  0  0  0  0  0  0  0  0
   29.3730   52.5820   -6.6350 N   0  0  0  0  0  0  0  0  0  0  0  0
   30.2130   51.5620   -6.1650 C   0  0  0  0  0  0  0  0  0  0  0  0
   30.6850   54.6640   -7.0420 C   0  0  0  0  0  0  0  0  0  0  0  0
   31.5410   55.5150   -6.3980 O   0  0  0  0  0  0  0  0  0  0  0  0
   30.9530   54.6720   -8.3960 C   0  0  0  0  0  0  0  0  0  0  0  0
   32.0250   55.5710   -8.5910 C   0  0  0  0  0  0  0  0  0  0  0  0
   32.3490   56.0580   -7.3450 C   0  0  0  0  0  0  0  0  0  0  0  0
   31.4520   51.8470   -5.7130 N   0  0  0  0  0  0  0  0  0  0  0  0
   29.7670   50.2570   -6.1660 C   0  0  0  0  0  0  0  0  0  0  0  0
   32.2100   50.8270   -5.2780 C   0  0  0  0  0  0  0  0  0  0  0  0
   30.6330   49.2850   -5.6950 C   0  0  0  0  0  0  0  0  0  0  0  0
   28.4630   49.6650   -6.6010 C   0  0  2  0  0  0  0  0  0  0  0  0
   31.8670   49.5310   -5.2410 N   0  0  0  0  0  0  0  0  0  0  0  0
   30.0150   47.8920   -5.7530 C   0  0  2  0  0  0  0  0  0  0  0  0
   28.8610   48.1810   -6.7620 C   0  0  0  0  0  0  0  0  0  0  0  0
   27.9430   50.1690   -7.8950 N   0  0  0  0  0  0  0  0  0  0  0  0
   27.3370   49.8800   -5.6380 C   0  0  0  0  0  0  0  0  0  0  0  0
   29.4790   47.4840   -4.3580 C   0  0  0  0  0  0  0  0  0  0  0  0
   30.9720   46.8430   -6.3390 C   0  0  0  0  0  0  0  0  0  0  0  0
   26.2800   50.4330   -6.2350 C   0  0  0  0  0  0  0  0  0  0  0  0
   26.7430   50.5730   -7.6090 C   0  0  0  0  0  0  0  0  0  0  0  0
   30.5610   46.9930   -3.3970 C   0  0  1  0  0  0  0  0  0  0  0  0
   32.0160   46.3170   -5.3520 C   0  0  0  0  0  0  0  0  0  0  0  0
   29.9470   46.4780   -2.2910 F   0  0  0  0  0  0  0  0  0  0  0  0
   31.4470   45.9160   -3.9920 C   0  0  0  0  0  0  0  0  0  0  0  0
  1  2  1  0
  2  3  1  0
  1  4  1  0
  4  5  1  0
  4  6  2  0
  6  7  1  0
  5  8  1  0
  7  8  2  0
  3  9  2  0
  3 10  1  0
  9 11  1  0
 10 12  2  0
 10 13  1  0
 11 14  2  0
 12 14  1  0
 12 15  1  0
 13 16  1  6
 15 16  1  6
 13 17  1  0
 13 18  1  0
 15 19  1  0
 15 20  1  0
 18 21  2  0
 17 22  2  0
 21 22  1  0
 19 23  1  0
 20 24  1  0
 23 25  1  1
 23 26  1  0
 24 26  1  0
M  END
