mac-x0392-mac-x0402
     RDKit          3D

 15 16  0  0  0  0  0  0  0  0999 V2000
   29.8950   47.0860   -7.8090 N   0  0  0  0  0  0  0  0  0  0  0  0
   29.2650   48.2280   -7.1320 C   0  0  2  0  0  0  0  0  0  0  0  0
   29.3000   49.5230   -7.9760 C   0  0  0  0  0  0  0  0  0  0  0  0
   29.9440   48.5340   -5.7970 C   0  0  2  0  0  0  0  0  0  0  0  0
   30.0580   47.3100   -4.9130 C   0  0  0  0  0  0  0  0  0  0  0  0
   29.2050   49.7000   -5.1150 C   0  0  0  0  0  0  0  0  0  0  0  0
   29.9110   50.6720   -7.2870 N   0  0  0  0  0  0  0  0  0  0  0  0
   30.3740   47.3550   -3.7300 O   0  0  0  0  0  0  0  0  0  0  0  0
   29.7950   46.1440   -5.5410 O   0  0  0  0  0  0  0  0  0  0  0  0
   29.2600   50.9560   -6.0080 C   0  0  2  0  0  0  0  0  0  0  0  0
   29.9680   52.1300   -5.2470 C   0  0  0  0  0  0  0  0  0  0  0  0
   27.6960   51.7400   -6.4910 S   0  0  0  0  0  0  0  0  0  0  0  0
   28.6510   53.2020   -6.8310 C   0  0  2  0  0  0  0  0  0  0  0  0
   29.3670   53.4430   -5.6120 N   0  0  0  0  0  0  0  0  0  0  0  0
   27.8570   54.3610   -7.0740 N   0  0  0  0  0  0  0  0  0  0  0  0
  2  1  1  6
  2  3  1  0
  2  4  1  0
  4  5  1  1
  4  6  1  0
  3  7  1  0
  5  8  2  0
  5  9  1  0
 10  6  1  1
  7 10  1  0
 10 11  1  0
 10 12  1  0
 12 13  1  0
 11 14  1  0
 13 14  1  0
 13 15  1  1
M  END
