mac-x0302-mac-x0283
     RDKit          3D

 18 19  0  0  0  0  0  0  0  0999 V2000
   30.8780   44.7690   -4.6690 O   0  0  0  0  0  0  0  0  0  0  0  0
   30.8180   46.0450   -5.1200 C   0  0  0  0  0  0  0  0  0  0  0  0
   30.9010   46.3140   -6.3100 O   0  0  0  0  0  0  0  0  0  0  0  0
   30.6350   47.0780   -4.0090 C   0  0  0  0  0  0  0  0  0  0  0  0
   29.8620   48.2130   -4.4690 N   0  0  0  0  0  0  0  0  0  0  0  0
   29.9310   49.4380   -3.8430 C   0  0  0  0  0  0  0  0  0  0  0  0
   29.8420   49.5390   -2.6190 O   0  0  0  0  0  0  0  0  0  0  0  0
   30.1450   50.6530   -4.7690 C   0  0  2  0  0  0  0  0  0  0  0  0
   29.7530   52.1120   -4.3720 C   0  0  1  0  0  0  0  0  0  0  0  0
   29.4000   50.4540   -6.0690 C   0  0  0  0  0  0  0  0  0  0  0  0
   29.0930   52.2660   -3.1020 O   0  0  0  0  0  0  0  0  0  0  0  0
   30.9550   53.0400   -4.3120 C   0  0  0  0  0  0  0  0  0  0  0  0
   28.7480   52.6310   -5.4290 C   0  0  2  0  0  0  0  0  0  0  0  0
   28.6630   51.5120   -6.4230 C   0  0  0  0  0  0  0  0  0  0  0  0
   29.2910   53.9630   -5.9540 C   0  0  1  0  0  0  0  0  0  0  0  0
   30.4080   54.2720   -3.8340 O   0  0  0  0  0  0  0  0  0  0  0  0
   28.3480   54.6630   -6.7950 N   0  0  0  0  0  0  0  0  0  0  0  0
   29.5690   54.8950   -4.8690 N   0  0  0  0  0  0  0  0  0  0  0  0
  1  2  1  0
  2  3  2  0
  2  4  1  0
  4  5  1  0
  5  6  1  0
  6  7  2  0
  8  6  1  1
  8  9  1  0
  8 10  1  0
  9 11  1  1
  9 12  1  0
  9 13  1  0
 10 14  2  0
 13 14  1  6
 13 15  1  0
 12 16  1  0
 15 17  1  6
 15 18  1  0
 16 18  1  0
M  END
