mac-x0179-mac-x0319
     RDKit          3D

 23 25  0  0  0  0  0  0  0  0999 V2000
   32.3570   44.8990   -6.1640 N   0  0  0  0  0  0  0  0  0  0  0  0
   32.7290   45.8070   -5.0050 C   0  0  2  0  0  0  0  0  0  0  0  0
   33.0580   47.1490   -5.4070 O   0  0  0  0  0  0  0  0  0  0  0  0
   32.1470   45.5280   -7.2070 O   0  0  0  0  0  0  0  0  0  0  0  0
   33.9860   45.1670   -4.3170 C   0  0  0  0  0  0  0  0  0  0  0  0
   31.5280   45.8610   -4.0510 C   0  0  0  0  0  0  0  0  0  0  0  0
   34.2280   45.5920   -2.9400 N   0  0  0  0  0  0  0  0  0  0  0  0
   30.5510   44.8440   -4.0480 C   0  0  0  0  0  0  0  0  0  0  0  0
   31.3600   46.9290   -3.1470 C   0  0  0  0  0  0  0  0  0  0  0  0
   34.7220   44.7150   -2.0110 C   0  0  0  0  0  0  0  0  0  0  0  0
   34.6240   46.8590   -2.6000 C   0  0  0  0  0  0  0  0  0  0  0  0
   29.4630   44.9040   -3.1780 C   0  0  0  0  0  0  0  0  0  0  0  0
   30.2650   46.9780   -2.2800 C   0  0  0  0  0  0  0  0  0  0  0  0
   34.2890   43.6230   -1.6890 O   0  0  0  0  0  0  0  0  0  0  0  0
   34.1140   47.9350   -2.8550 O   0  0  0  0  0  0  0  0  0  0  0  0
   28.5540   43.8890   -3.2260 O   0  0  0  0  0  0  0  0  0  0  0  0
   35.9120   45.3560   -1.4620 C   0  0  0  0  0  0  0  0  0  0  0  0
   35.8520   46.6890   -1.8270 C   0  0  0  0  0  0  0  0  0  0  0  0
   29.3130   45.9640   -2.2940 C   0  0  0  0  0  0  0  0  0  0  0  0
   36.9560   44.8470   -0.7160 C   0  0  0  0  0  0  0  0  0  0  0  0
   36.8310   47.5940   -1.4680 C   0  0  0  0  0  0  0  0  0  0  0  0
   37.9630   45.7430   -0.3380 C   0  0  0  0  0  0  0  0  0  0  0  0
   37.9010   47.1040   -0.7110 C   0  0  0  0  0  0  0  0  0  0  0  0
  2  1  1  0
  2  3  1  6
  1  4  2  0
  2  5  1  0
  2  6  1  0
  5  7  1  0
  6  8  2  0
  6  9  1  0
  7 10  1  0
  7 11  1  0
  8 12  1  0
  9 13  2  0
 10 14  2  0
 11 15  2  0
 12 16  1  0
 10 17  1  0
 11 18  1  0
 17 18  2  0
 12 19  2  0
 13 19  1  0
 17 20  1  0
 18 21  1  0
 20 22  2  0
 21 23  2  0
 22 23  1  0
M  END
