mac-x0415-mac-x0439
     RDKit          3D

 16 18  0  0  0  0  0  0  0  0999 V2000
   33.1050   46.8170   -6.5660 O   0  0  0  0  0  0  0  0  0  0  0  0
   32.4240   45.8120   -5.9900 C   0  0  0  0  0  0  0  0  0  0  0  0
   31.6210   45.0920   -6.6880 N   0  0  0  0  0  0  0  0  0  0  0  0
   32.6950   45.6370   -4.5290 C   0  0  0  0  0  0  0  0  0  0  0  0
   30.9260   43.9820   -5.9790 C   0  0  2  0  0  0  0  0  0  0  0  0
   31.3970   45.3500   -3.9120 C   0  0  0  0  0  0  0  0  0  0  0  0
   29.9210   43.3640   -6.7520 O   0  0  0  0  0  0  0  0  0  0  0  0
   30.4360   44.4770   -4.5920 C   0  0  0  0  0  0  0  0  0  0  0  0
   30.7500   45.7170   -2.8330 C   0  0  0  0  0  0  0  0  0  0  0  0
   29.2860   44.2540   -3.9710 N   0  0  0  0  0  0  0  0  0  0  0  0
   29.4310   45.0270   -2.7060 C   0  0  2  0  0  0  0  0  0  0  0  0
   31.1420   46.6550   -1.8300 C   0  0  0  0  0  0  0  0  0  0  0  0
   28.3900   46.0400   -2.3460 C   0  0  0  0  0  0  0  0  0  0  0  0
   30.1600   47.3760   -1.2620 C   0  0  0  0  0  0  0  0  0  0  0  0
   30.5160   48.6790    0.0260 Br  0  0  0  0  0  0  0  0  0  0  0  0
   28.7590   47.1520   -1.6560 C   0  0  0  0  0  0  0  0  0  0  0  0
  1  2  1  0
  2  3  2  0
  2  4  1  0
  3  5  1  0
  4  6  1  0
  5  7  1  6
  5  8  1  0
  6  8  1  0
  6  9  2  0
  8 10  2  0
  9 11  1  0
 10 11  1  0
  9 12  1  0
 11 13  1  6
 12 14  2  0
 14 15  1  0
 13 16  2  0
 14 16  1  0
M  END
