mac-x0283-mac-x0358
     RDKit          3D

 23 25  0  0  0  0  0  0  0  0999 V2000
   29.2980   53.6330   -7.2360 N   0  0  0  0  0  0  0  0  0  0  0  0
   29.4310   53.4990   -5.9010 C   0  0  0  0  0  0  0  0  0  0  0  0
   29.7420   54.5040   -5.0780 N   0  0  0  0  0  0  0  0  0  0  0  0
   29.2570   52.2790   -5.1970 C   0  0  0  0  0  0  0  0  0  0  0  0
   29.7770   53.9530   -3.8070 O   0  0  0  0  0  0  0  0  0  0  0  0
   29.4870   52.6270   -3.8790 C   0  0  0  0  0  0  0  0  0  0  0  0
   28.9380   50.9400   -5.4930 C   0  0  0  0  0  0  0  0  0  0  0  0
   29.4270   51.7430   -2.8070 C   0  0  0  0  0  0  0  0  0  0  0  0
   28.8670   50.0190   -4.4350 C   0  0  0  0  0  0  0  0  0  0  0  0
   29.1060   50.4070   -3.1060 C   0  0  0  0  0  0  0  0  0  0  0  0
   29.0210   49.3970   -1.9830 C   0  0  0  0  0  0  0  0  0  0  0  0
   30.3840   49.0240   -1.3910 C   0  0  0  0  0  0  0  0  0  0  0  0
   31.1140   48.0010   -2.2190 C   0  0  0  0  0  0  0  0  0  0  0  0
   32.4950   48.0950   -2.4260 C   0  0  0  0  0  0  0  0  0  0  0  0
   30.4110   46.9340   -2.7960 C   0  0  0  0  0  0  0  0  0  0  0  0
   33.1530   47.1390   -3.1980 C   0  0  0  0  0  0  0  0  0  0  0  0
   31.0750   45.9810   -3.5680 C   0  0  0  0  0  0  0  0  0  0  0  0
   34.5020   47.2320   -3.4010 O   0  0  0  0  0  0  0  0  0  0  0  0
   32.4570   46.0700   -3.7810 C   0  0  0  0  0  0  0  0  0  0  0  0
   33.1630   45.0330   -4.6200 C   0  0  0  0  0  0  0  0  0  0  0  0
   32.9700   45.2090   -6.1100 C   0  0  0  0  0  0  0  0  0  0  0  0
   31.8280   44.6260   -6.5470 O   0  0  0  0  0  0  0  0  0  0  0  0
   33.6910   45.7850   -6.9090 O   0  0  0  0  0  0  0  0  0  0  0  0
  1  2  1  0
  2  3  2  0
  2  4  1  0
  3  5  1  0
  4  6  2  0
  5  6  1  0
  4  7  1  0
  6  8  1  0
  7  9  2  0
  8 10  2  0
  9 10  1  0
 10 11  1  0
 11 12  1  0
 12 13  1  0
 13 14  2  0
 13 15  1  0
 14 16  1  0
 15 17  2  0
 16 18  1  0
 16 19  2  0
 17 19  1  0
 19 20  1  0
 20 21  1  0
 21 22  1  0
 21 23  2  0
M  END
