mac-x0124
     RDKit          3D

 11 12  0  0  0  0  0  0  0  0999 V2000
   30.1000   46.2060   -4.5830 C   0  0  0  0  0  0  0  0  0  0  0  0
   29.8560   47.5820   -4.7370 N   0  0  0  0  0  0  0  0  0  0  0  0
   29.9840   48.6140   -3.9050 C   0  0  0  0  0  0  0  0  0  0  0  0
   29.5920   49.7790   -4.5820 C   0  0  0  0  0  0  0  0  0  0  0  0
   29.2220   49.3540   -5.8840 C   0  0  0  0  0  0  0  0  0  0  0  0
   28.7240   49.9340   -7.0880 C   0  0  0  0  0  0  0  0  0  0  0  0
   28.4960   51.3840   -7.1770 N   0  0  0  0  0  0  0  0  0  0  0  0
   28.4700   49.1650   -8.1590 N   0  0  0  0  0  0  0  0  0  0  0  0
   28.6650   47.8550   -8.0820 C   0  0  0  0  0  0  0  0  0  0  0  0
   29.1100   47.2450   -7.0140 N   0  0  0  0  0  0  0  0  0  0  0  0
   29.4040   47.9940   -5.9100 C   0  0  0  0  0  0  0  0  0  0  0  0
  1  2  1  0
  2  3  1  0
  3  4  2  0
  4  5  1  0
  5  6  1  0
  6  7  1  0
  6  8  2  0
  8  9  1  0
  9 10  2  0
  2 11  1  0
  5 11  2  0
 10 11  1  0
M  END
