mac-x0226-mac-x0365
     RDKit          3D

 27 29  0  0  0  0  0  0  0  0999 V2000
   32.2220   45.4450   -7.0350 O   0  0  0  0  0  0  0  0  0  0  0  0
   33.0140   46.2550   -6.1830 C   0  0  0  0  0  0  0  0  0  0  0  0
   34.0880   46.6930   -6.9890 O   0  0  0  0  0  0  0  0  0  0  0  0
   32.1710   47.4780   -5.8000 C   0  0  0  0  0  0  0  0  0  0  0  0
   33.4840   45.4420   -5.0160 C   0  0  0  0  0  0  0  0  0  0  0  0
   30.8920   47.6560   -6.6250 C   0  0  0  0  0  0  0  0  0  0  0  0
   32.9160   44.2710   -4.4720 C   0  0  0  0  0  0  0  0  0  0  0  0
   34.5830   45.6620   -4.2120 C   0  0  0  0  0  0  0  0  0  0  0  0
   29.7160   47.6690   -5.8140 O   0  0  0  0  0  0  0  0  0  0  0  0
   33.5920   43.7990   -3.4260 N   0  0  0  0  0  0  0  0  0  0  0  0
   34.6230   44.6660   -3.2690 N   0  0  0  0  0  0  0  0  0  0  0  0
   29.8990   48.1650   -4.5730 C   0  0  0  0  0  0  0  0  0  0  0  0
   35.5800   44.5000   -2.2350 C   0  0  0  0  0  0  0  0  0  0  0  0
   30.1870   47.5190   -3.5790 O   0  0  0  0  0  0  0  0  0  0  0  0
   36.4370   45.5700   -1.9380 C   0  0  0  0  0  0  0  0  0  0  0  0
   35.6850   43.3060   -1.5170 C   0  0  0  0  0  0  0  0  0  0  0  0
   29.7170   49.6370   -4.5530 C   0  0  0  0  0  0  0  0  0  0  0  0
   37.3900   45.4430   -0.9280 C   0  0  0  0  0  0  0  0  0  0  0  0
   36.6420   43.1860   -0.5060 C   0  0  0  0  0  0  0  0  0  0  0  0
   29.9540   50.3690   -3.3920 C   0  0  0  0  0  0  0  0  0  0  0  0
   29.3030   50.2960   -5.7240 C   0  0  0  0  0  0  0  0  0  0  0  0
   37.4930   44.2540   -0.2140 C   0  0  0  0  0  0  0  0  0  0  0  0
   29.7760   51.7450   -3.4000 C   0  0  0  0  0  0  0  0  0  0  0  0
   29.1260   51.6870   -5.7250 C   0  0  0  0  0  0  0  0  0  0  0  0
   30.0080   52.4300   -2.2730 F   0  0  0  0  0  0  0  0  0  0  0  0
   29.3660   52.4050   -4.5550 C   0  0  0  0  0  0  0  0  0  0  0  0
   29.2050   53.7610   -4.5150 O   0  0  0  0  0  0  0  0  0  0  0  0
  2  1  1  0
  2  3  1  0
  2  4  1  0
  2  5  1  0
  4  6  1  0
  5  7  1  0
  5  8  2  0
  6  9  1  0
  7 10  2  0
  8 11  1  0
 10 11  1  0
  9 12  1  0
 11 13  1  0
 12 14  2  0
 13 15  2  0
 13 16  1  0
 12 17  1  0
 15 18  1  0
 16 19  2  0
 17 20  2  0
 17 21  1  0
 18 22  2  0
 19 22  1  0
 20 23  1  0
 21 24  2  0
 23 25  1  0
 23 26  2  0
 24 26  1  0
 26 27  1  0
M  END
