mac-x0333-mac-x0328
     RDKit          3D

 13 14  0  0  0  0  0  0  0  0999 V2000
   30.0980   48.4870   -4.2040 C   0  0  0  0  0  0  0  0  0  0  0  0
   30.6100   48.2760   -2.9780 O   0  0  0  0  0  0  0  0  0  0  0  0
   29.9140   47.5650   -4.9900 O   0  0  0  0  0  0  0  0  0  0  0  0
   29.7720   49.8990   -4.6060 C   0  0  0  0  0  0  0  0  0  0  0  0
   29.9270   51.1020   -3.8660 C   0  0  0  0  0  0  0  0  0  0  0  0
   29.2410   50.0020   -5.9150 C   0  0  0  0  0  0  0  0  0  0  0  0
   30.4070   51.2260   -2.6120 O   0  0  0  0  0  0  0  0  0  0  0  0
   29.5680   52.2860   -4.4400 C   0  0  0  0  0  0  0  0  0  0  0  0
   28.8840   51.2380   -6.4710 C   0  0  0  0  0  0  0  0  0  0  0  0
   29.0630   52.3640   -5.7030 C   0  0  0  0  0  0  0  0  0  0  0  0
   29.6730   53.5010   -3.8340 O   0  0  0  0  0  0  0  0  0  0  0  0
   28.7870   53.6480   -6.0530 O   0  0  0  0  0  0  0  0  0  0  0  0
   29.4480   54.3490   -4.9780 C   0  0  0  0  0  0  0  0  0  0  0  0
  1  2  1  0
  1  3  2  0
  1  4  1  0
  4  5  2  0
  4  6  1  0
  5  7  1  0
  5  8  1  0
  6  9  2  0
  8 10  2  0
  9 10  1  0
  8 11  1  0
 10 12  1  0
 11 13  1  0
 12 13  1  0
M  END
