mac-x0301-mac-x0333
     RDKit          3D

 16 18  0  0  0  0  0  0  0  0999 V2000
   29.8490   46.1260   -4.2000 O   0  0  0  0  0  0  0  0  0  0  0  0
   30.5620   47.2740   -4.3180 C   0  0  0  0  0  0  0  0  0  0  0  0
   31.7840   47.2860   -4.3030 O   0  0  0  0  0  0  0  0  0  0  0  0
   29.6810   48.4990   -4.4600 C   0  0  2  0  0  0  0  0  0  0  0  0
   28.8790   48.4040   -5.7530 C   0  0  1  0  0  0  0  0  0  0  0  0
   30.4900   49.8140   -4.4580 C   0  0  0  0  0  0  0  0  0  0  0  0
   29.4720   49.2240   -6.8610 C   0  0  2  0  0  0  0  0  0  0  0  0
   29.7200   50.9990   -5.1280 C   0  0  2  0  0  0  0  0  0  0  0  0
   28.8880   47.0880   -6.3160 O   0  0  0  0  0  0  0  0  0  0  0  0
   29.2700   50.6980   -6.5710 C   0  0  0  0  0  0  0  0  0  0  0  0
   28.7720   48.7380   -7.9970 O   0  0  0  0  0  0  0  0  0  0  0  0
   28.5940   47.3440   -7.7040 C   0  0  0  0  0  0  0  0  0  0  0  0
   30.5130   52.2950   -5.0210 C   0  0  0  0  0  0  0  0  0  0  0  0
   28.5530   51.2890   -4.3340 O   0  0  0  0  0  0  0  0  0  0  0  0
   29.5070   53.3040   -5.0510 O   0  0  0  0  0  0  0  0  0  0  0  0
   28.4180   52.7170   -4.3390 C   0  0  0  0  0  0  0  0  0  0  0  0
  1  2  1  0
  2  3  2  0
  4  2  1  6
  4  5  1  0
  4  6  1  0
  5  7  1  0
  8  6  1  1
  5  9  1  6
  7 10  1  1
  8 10  1  0
  7 11  1  0
  9 12  1  0
 11 12  1  0
  8 13  1  0
  8 14  1  0
 13 15  1  0
 14 16  1  0
 15 16  1  0
M  END
