mac-x0415-mac-x0271
     RDKit          3D

 27 30  0  0  0  0  0  0  0  0999 V2000
   33.7140   46.4710   -6.0250 O   0  0  0  0  0  0  0  0  0  0  0  0
   32.6480   45.6450   -5.9520 C   0  0  0  0  0  0  0  0  0  0  0  0
   31.9310   45.4860   -6.9260 O   0  0  0  0  0  0  0  0  0  0  0  0
   32.5210   45.0150   -4.5820 C   0  0  0  0  0  0  0  0  0  0  0  0
   31.1440   45.1450   -4.0540 C   0  0  0  0  0  0  0  0  0  0  0  0
   30.0690   44.1610   -4.2590 C   0  0  0  0  0  0  0  0  0  0  0  0
   30.5110   46.0490   -3.3090 C   0  0  0  0  0  0  0  0  0  0  0  0
   28.8990   44.3820   -3.7270 N   0  0  0  0  0  0  0  0  0  0  0  0
   29.0820   45.6840   -3.0590 C   0  0  1  0  0  0  0  0  0  0  0  0
   30.9540   47.2780   -2.7120 C   0  0  0  0  0  0  0  0  0  0  0  0
   28.8280   45.7310   -1.5860 C   0  0  0  0  0  0  0  0  0  0  0  0
   30.4480   47.5640   -1.4950 C   0  0  0  0  0  0  0  0  0  0  0  0
   30.7910   48.7090   -0.8120 O   0  0  0  0  0  0  0  0  0  0  0  0
   29.4980   46.6480   -0.8480 C   0  0  0  0  0  0  0  0  0  0  0  0
   30.3970   49.9040   -1.5050 C   0  0  0  0  0  0  0  0  0  0  0  0
   29.5580   49.6640   -2.6430 O   0  0  0  0  0  0  0  0  0  0  0  0
   29.4140   50.7090   -3.5100 C   0  0  0  0  0  0  0  0  0  0  0  0
   29.5640   52.0480   -3.1610 C   0  0  0  0  0  0  0  0  0  0  0  0
   29.0940   50.3650   -4.8270 C   0  0  0  0  0  0  0  0  0  0  0  0
   29.3890   53.0240   -4.1400 C   0  0  0  0  0  0  0  0  0  0  0  0
   28.9210   51.3550   -5.8010 C   0  0  0  0  0  0  0  0  0  0  0  0
   29.0690   52.6990   -5.4570 C   0  0  0  0  0  0  0  0  0  0  0  0
   29.5490   54.3680   -3.7450 O   0  0  0  0  0  0  0  0  0  0  0  0
   28.9010   53.7690   -6.4260 C   0  0  0  0  0  0  0  0  0  0  0  0
   29.2910   55.4080   -4.6260 C   0  0  0  0  0  0  0  0  0  0  0  0
   29.2950   56.5830   -4.2760 O   0  0  0  0  0  0  0  0  0  0  0  0
   29.0070   55.0400   -6.0250 C   0  0  0  0  0  0  0  0  0  0  0  0
  1  2  1  0
  2  3  2  0
  2  4  1  0
  4  5  1  0
  5  6  1  0
  5  7  2  0
  6  8  2  0
  7  9  1  0
  8  9  1  0
  7 10  1  0
  9 11  1  1
 10 12  2  0
 12 13  1  0
 11 14  2  0
 12 14  1  0
 13 15  1  0
 15 16  1  0
 16 17  1  0
 17 18  2  0
 17 19  1  0
 18 20  1  0
 19 21  2  0
 20 22  2  0
 21 22  1  0
 20 23  1  0
 22 24  1  0
 23 25  1  0
 25 26  2  0
 24 27  2  0
 25 27  1  0
M  END
