mac-x0437-mac-x0204
     RDKit          3D

 23 25  0  0  0  0  0  0  0  0999 V2000
   31.7770   46.0980   -5.4830 O   0  0  0  0  0  0  0  0  0  0  0  0
   32.4860   44.9810   -5.8140 C   0  0  0  0  0  0  0  0  0  0  0  0
   32.2790   44.2000   -6.7290 O   0  0  0  0  0  0  0  0  0  0  0  0
   30.4880   45.9440   -5.0940 C   0  0  0  0  0  0  0  0  0  0  0  0
   33.6350   44.8350   -4.8430 C   0  0  0  0  0  0  0  0  0  0  0  0
   29.6260   45.2280   -5.5700 O   0  0  0  0  0  0  0  0  0  0  0  0
   30.2170   46.8240   -3.9270 C   0  0  0  0  0  0  0  0  0  0  0  0
   33.9220   46.1470   -4.1230 C   0  0  0  0  0  0  0  0  0  0  0  0
   30.0650   46.3550   -2.6170 C   0  0  0  0  0  0  0  0  0  0  0  0
   30.1060   48.1940   -4.1410 C   0  0  0  0  0  0  0  0  0  0  0  0
   35.3260   46.2780   -3.7800 N   0  0  0  0  0  0  0  0  0  0  0  0
   29.8140   47.2650   -1.5980 C   0  0  0  0  0  0  0  0  0  0  0  0
   29.8590   49.1010   -3.1560 N   0  0  0  0  0  0  0  0  0  0  0  0
   29.6740   46.7840   -0.3310 O   0  0  0  0  0  0  0  0  0  0  0  0
   36.1010   47.3760   -4.0500 C   0  0  0  0  0  0  0  0  0  0  0  0
   36.1110   45.3500   -3.1420 C   0  0  0  0  0  0  0  0  0  0  0  0
   29.7190   48.6140   -1.9020 C   0  0  0  0  0  0  0  0  0  0  0  0
   37.3320   47.2140   -3.6280 N   0  0  0  0  0  0  0  0  0  0  0  0
   37.3600   45.9640   -3.0610 C   0  0  0  0  0  0  0  0  0  0  0  0
   35.8670   44.0650   -2.6370 C   0  0  0  0  0  0  0  0  0  0  0  0
   38.4240   45.2850   -2.4540 C   0  0  0  0  0  0  0  0  0  0  0  0
   36.9420   43.4050   -2.0360 C   0  0  0  0  0  0  0  0  0  0  0  0
   38.2020   43.9990   -1.9420 C   0  0  0  0  0  0  0  0  0  0  0  0
  1  2  1  0
  2  3  2  0
  1  4  1  0
  2  5  1  0
  4  6  2  0
  4  7  1  0
  5  8  1  0
  7  9  2  0
  7 10  1  0
  8 11  1  0
  9 12  1  0
 10 13  2  0
 12 14  1  0
 11 15  1  0
 11 16  1  0
 12 17  2  0
 13 17  1  0
 15 18  2  0
 16 19  2  0
 18 19  1  0
 16 20  1  0
 19 21  1  0
 20 22  2  0
 21 23  2  0
 22 23  1  0
M  END
