mac-x0397-mac-x0305
     RDKit          3D

 15 16  0  0  0  0  0  0  0  0999 V2000
   29.8150   51.9080   -2.5120 Cl  0  0  0  0  0  0  0  0  0  0  0  0
   29.7410   51.0080   -3.9680 C   0  0  0  0  0  0  0  0  0  0  0  0
   29.3190   51.7270   -5.1170 C   0  0  0  0  0  0  0  0  0  0  0  0
   30.0790   49.6340   -4.0310 C   0  0  0  0  0  0  0  0  0  0  0  0
   28.9620   53.0720   -5.2200 N   0  0  0  0  0  0  0  0  0  0  0  0
   29.2440   51.0140   -6.3180 C   0  0  0  0  0  0  0  0  0  0  0  0
   29.9920   48.9580   -5.2760 C   0  0  0  0  0  0  0  0  0  0  0  0
   30.3270   47.5140   -5.5040 C   0  0  0  0  0  0  0  0  0  0  0  0
   28.6330   53.3610   -6.4560 C   0  0  0  0  0  0  0  0  0  0  0  0
   28.7130   52.0730   -7.5670 S   0  0  0  0  0  0  0  0  0  0  0  0
   29.5660   49.6540   -6.4180 C   0  0  0  0  0  0  0  0  0  0  0  0
   28.2520   54.5870   -6.8560 N   0  0  0  0  0  0  0  0  0  0  0  0
   30.7000   47.2100   -6.7730 O   0  0  0  0  0  0  0  0  0  0  0  0
   30.2700   46.6730   -4.6220 O   0  0  0  0  0  0  0  0  0  0  0  0
   29.4530   49.0400   -7.6500 O   0  0  0  0  0  0  0  0  0  0  0  0
  1  2  1  0
  2  3  2  0
  2  4  1  0
  3  5  1  0
  3  6  1  0
  4  7  2  0
  7  8  1  0
  5  9  2  0
  6 10  1  0
  9 10  1  0
  6 11  2  0
  7 11  1  0
  9 12  1  0
  8 13  1  0
  8 14  2  0
 11 15  1  0
M  END
