mac-x0182-mac-x0387
     RDKit          3D

 24 27  0  0  0  0  0  0  0  0999 V2000
   34.3770   43.3320   -2.7540 O   0  0  0  0  0  0  0  0  0  0  0  0
   34.6030   44.3830   -3.3310 C   0  0  0  0  0  0  0  0  0  0  0  0
   33.9480   44.8620   -4.4340 N   0  0  0  0  0  0  0  0  0  0  0  0
   35.6520   45.3490   -2.9320 C   0  0  0  0  0  0  0  0  0  0  0  0
   33.9090   46.5360   -4.3540 S   0  0  2  0  0  0  0  0  0  0  0  0
   35.3940   46.6150   -3.4430 C   0  0  0  0  0  0  0  0  0  0  0  0
   36.7780   45.1120   -2.1590 C   0  0  0  0  0  0  0  0  0  0  0  0
   32.6620   46.6860   -3.4700 N   0  0  0  0  0  0  0  0  0  0  0  0
   34.1540   46.9720   -5.7100 O   0  0  0  0  0  0  0  0  0  0  0  0
   36.2290   47.6950   -3.2210 C   0  0  0  0  0  0  0  0  0  0  0  0
   37.6420   46.1850   -1.9150 C   0  0  0  0  0  0  0  0  0  0  0  0
   31.9980   47.9520   -3.1410 C   0  0  0  0  0  0  0  0  0  0  0  0
   37.3710   47.4670   -2.4430 C   0  0  0  0  0  0  0  0  0  0  0  0
   31.0480   48.4200   -4.2270 C   0  0  0  0  0  0  0  0  0  0  0  0
   30.7080   47.6100   -5.3320 C   0  0  0  0  0  0  0  0  0  0  0  0
   30.4980   49.7000   -4.1410 C   0  0  0  0  0  0  0  0  0  0  0  0
   29.8470   48.0830   -6.3440 C   0  0  0  0  0  0  0  0  0  0  0  0
   29.6440   50.1740   -5.1350 C   0  0  0  0  0  0  0  0  0  0  0  0
   29.3100   49.3860   -6.2520 C   0  0  0  0  0  0  0  0  0  0  0  0
   29.5120   47.2940   -7.4490 C   0  0  0  0  0  0  0  0  0  0  0  0
   28.4700   49.8200   -7.2950 C   0  0  0  0  0  0  0  0  0  0  0  0
   28.6740   47.8220   -8.4150 C   0  0  0  0  0  0  0  0  0  0  0  0
   27.9040   51.0990   -7.2920 N   0  0  0  0  0  0  0  0  0  0  0  0
   28.1500   49.0640   -8.3630 N   0  0  0  0  0  0  0  0  0  0  0  0
  1  2  2  0
  2  3  1  0
  2  4  1  0
  5  3  1  6
  4  6  2  0
  5  6  1  0
  4  7  1  0
  5  8  2  0
  5  9  2  0
  6 10  1  0
  7 11  2  0
  8 12  1  0
 10 13  2  0
 11 13  1  0
 12 14  1  0
 14 15  2  0
 14 16  1  0
 15 17  1  0
 16 18  2  0
 17 19  2  0
 18 19  1  0
 17 20  1  0
 19 21  1  0
 20 22  2  0
 21 23  1  0
 21 24  2  0
 22 24  1  0
M  END
