mac-x0224
     RDKit          3D

 12 12  0  0  0  0  0  0  0  0999 V2000
   28.6510   52.5580   -6.1690 C   0  0  0  0  0  0  0  0  0  0  0  0
   28.6250   50.8370   -6.7230 S   0  0  0  0  0  0  0  0  0  0  0  0
   29.2860   49.8600   -5.3840 C   0  0  0  0  0  0  0  0  0  0  0  0
   29.5260   50.3090   -4.1500 C   0  0  0  0  0  0  0  0  0  0  0  0
   30.0950   49.4240   -3.2220 C   0  0  0  0  0  0  0  0  0  0  0  0
   30.4010   48.1300   -3.6650 C   0  0  0  0  0  0  0  0  0  0  0  0
   30.9680   47.1740   -2.8510 O   0  0  0  0  0  0  0  0  0  0  0  0
   30.1250   47.7530   -4.9330 C   0  0  0  0  0  0  0  0  0  0  0  0
   29.6370   48.6150   -5.7730 C   0  0  0  0  0  0  0  0  0  0  0  0
   30.4740   46.3560   -5.3930 C   0  0  0  0  0  0  0  0  0  0  0  0
   30.2950   45.9780   -6.5390 O   0  0  0  0  0  0  0  0  0  0  0  0
   30.8620   45.5880   -4.5920 O   0  0  0  0  0  0  0  0  0  0  0  0
  1  2  1  0
  2  3  1  0
  3  4  2  0
  4  5  1  0
  5  6  2  0
  6  7  1  0
  6  8  1  0
  3  9  1  0
  8  9  2  0
  8 10  1  0
 10 11  2  0
 10 12  1  0
M  END
