mac-x0326
     RDKit          3D

 15 16  0  0  0  0  0  0  0  0999 V2000
  -25.0760   59.8700    2.0320 Cl  0  0  0  0  0  0  0  0  0  0  0  0
  -30.1560   55.9440   -2.9270 O   0  0  0  0  0  0  0  0  0  0  0  0
  -29.3150   55.0870   -2.9770 C   0  0  0  0  0  0  0  0  0  0  0  0
  -29.4000   54.0160   -2.3820 O   0  0  0  0  0  0  0  0  0  0  0  0
  -28.1730   55.4140   -3.9290 C   0  0  0  0  0  0  0  0  0  0  0  0
  -26.8630   54.9160   -3.4360 C   0  0  0  0  0  0  0  0  0  0  0  0
  -26.6870   55.5260   -2.0380 C   0  0  0  0  0  0  0  0  0  0  0  0
  -26.1810   56.7090   -1.8230 N   0  0  0  0  0  0  0  0  0  0  0  0
  -26.0730   57.0370   -0.5680 C   0  0  0  0  0  0  0  0  0  0  0  0
  -25.6700   58.2210   -0.1080 C   0  0  0  0  0  0  0  0  0  0  0  0
  -25.6750   58.3890    1.2800 C   0  0  0  0  0  0  0  0  0  0  0  0
  -26.1260   57.4560    2.1310 C   0  0  0  0  0  0  0  0  0  0  0  0
  -26.5790   56.2800    1.6720 C   0  0  0  0  0  0  0  0  0  0  0  0
  -26.5550   56.0870    0.3250 C   0  0  0  0  0  0  0  0  0  0  0  0
  -27.0780   54.7030   -0.5520 S   0  0  0  0  0  0  0  0  0  0  0  0
  2  3  1  0
  3  4  2  0
  3  5  1  0
  5  6  1  0
  6  7  1  0
  7  8  2  0
  8  9  1  0
  9 10  2  0
  1 11  1  0
 10 11  1  0
 11 12  2  0
 12 13  1  0
  9 14  1  0
 13 14  2  0
  7 15  1  0
 14 15  1  0
M  END
