mac-x0576-mac-x0433
     RDKit          3D

 15 16  0  0  0  0  0  0  0  0999 V2000
   29.1280   47.5030   -9.0530 N   0  0  0  0  0  0  0  0  0  0  0  0
   29.2620   48.1950   -7.8960 C   0  0  0  0  0  0  0  0  0  0  0  0
   28.9450   49.4460   -7.8390 N   0  0  0  0  0  0  0  0  0  0  0  0
   29.7340   47.5100   -6.8270 N   0  0  0  0  0  0  0  0  0  0  0  0
   29.8660   48.0730   -5.5900 C   0  0  0  0  0  0  0  0  0  0  0  0
   29.1010   50.1060   -6.6390 C   0  0  0  0  0  0  0  0  0  0  0  0
   30.2310   47.3930   -4.6320 O   0  0  0  0  0  0  0  0  0  0  0  0
   29.5390   49.5310   -5.4970 C   0  0  0  0  0  0  0  0  0  0  0  0
   28.7750   51.4580   -6.6290 N   0  0  0  0  0  0  0  0  0  0  0  0
   27.8730   51.9950   -7.6310 C   0  0  0  0  0  0  0  0  0  0  0  0
   29.0850   52.2390   -5.5280 C   0  0  0  0  0  0  0  0  0  0  0  0
   29.7000   50.1670   -4.2840 N   0  0  0  0  0  0  0  0  0  0  0  0
   29.0680   53.4620   -5.4610 O   0  0  0  0  0  0  0  0  0  0  0  0
   29.4950   51.4540   -4.2630 C   0  0  0  0  0  0  0  0  0  0  0  0
   29.6400   52.1480   -3.0850 N   0  0  0  0  0  0  0  0  0  0  0  0
  1  2  1  0
  2  3  2  0
  2  4  1  0
  4  5  1  0
  3  6  1  0
  5  7  2  0
  5  8  1  0
  6  8  2  0
  6  9  1  0
  9 10  1  0
  9 11  1  0
  8 12  1  0
 11 13  2  0
 11 14  1  0
 12 14  2  0
 14 15  1  0
M  END
