mac-x0354-mac-x0404
     RDKit          3D

 27 30  0  0  0  0  0  0  0  0999 V2000
   35.4430   43.2480   -1.6490 C   0  0  0  0  0  0  0  0  0  0  0  0
   34.5120   43.4340   -2.7370 N   0  0  0  0  0  0  0  0  0  0  0  0
   33.7150   42.4110   -3.0990 N   0  0  0  0  0  0  0  0  0  0  0  0
   34.3250   44.5720   -3.4890 C   0  0  0  0  0  0  0  0  0  0  0  0
   33.0010   42.9090   -4.1060 C   0  0  0  0  0  0  0  0  0  0  0  0
   33.3250   44.2540   -4.4130 C   0  0  0  0  0  0  0  0  0  0  0  0
   35.0770   45.8030   -3.2800 C   0  0  0  0  0  0  0  0  0  0  0  0
   32.6990   45.0940   -5.5020 C   0  0  2  0  0  0  0  0  0  0  0  0
   36.1640   46.1210   -4.1010 C   0  0  0  0  0  0  0  0  0  0  0  0
   34.7150   46.6810   -2.2510 C   0  0  0  0  0  0  0  0  0  0  0  0
   32.3910   44.2860   -6.6690 O   0  0  0  0  0  0  0  0  0  0  0  0
   33.6640   46.0570   -5.9380 O   0  0  0  0  0  0  0  0  0  0  0  0
   31.5650   45.8620   -5.0640 O   0  0  0  0  0  0  0  0  0  0  0  0
   36.8820   47.2990   -3.8950 C   0  0  0  0  0  0  0  0  0  0  0  0
   35.4330   47.8620   -2.0460 C   0  0  0  0  0  0  0  0  0  0  0  0
   32.1810   45.1960   -7.8050 O   0  0  0  0  0  0  0  0  0  0  0  0
   36.5170   48.1690   -2.8690 C   0  0  0  0  0  0  0  0  0  0  0  0
   31.5300   46.4710   -3.8320 C   0  0  0  0  0  0  0  0  0  0  0  0
   30.5420   45.9810   -2.9350 C   0  0  0  0  0  0  0  0  0  0  0  0
   32.3790   47.5060   -3.4330 C   0  0  0  0  0  0  0  0  0  0  0  0
   30.4350   46.5530   -1.6450 C   0  0  0  0  0  0  0  0  0  0  0  0
   32.2630   48.0600   -2.1600 C   0  0  0  0  0  0  0  0  0  0  0  0
   29.6480   44.9380   -3.2640 C   0  0  0  0  0  0  0  0  0  0  0  0
   31.3020   47.5910   -1.2710 C   0  0  0  0  0  0  0  0  0  0  0  0
   29.4650   46.0830   -0.7440 C   0  0  0  0  0  0  0  0  0  0  0  0
   28.6870   44.4780   -2.3630 C   0  0  0  0  0  0  0  0  0  0  0  0
   28.5950   45.0530   -1.1000 C   0  0  0  0  0  0  0  0  0  0  0  0
  1  2  1  0
  2  3  1  0
  2  4  1  0
  3  5  2  0
  4  6  2  0
  5  6  1  0
  4  7  1  0
  6  8  1  0
  7  9  2  0
  7 10  1  0
  8 11  1  0
  8 12  1  6
  8 13  1  0
  9 14  1  0
 10 15  2  0
 11 16  1  0
 14 17  2  0
 15 17  1  0
 13 18  1  0
 18 19  1  0
 18 20  2  0
 19 21  2  0
 20 22  1  0
 19 23  1  0
 21 24  1  0
 22 24  2  0
 21 25  1  0
 23 26  2  0
 25 27  2  0
 26 27  1  0
M  END
