mac-x0361-mac-x0321
     RDKit          3D

 12 12  0  0  0  0  0  0  0  0999 V2000
   28.6870   53.8940   -6.0130 N   0  0  0  0  0  0  0  0  0  0  0  0
   29.3680   53.5360   -4.8830 C   0  0  0  0  0  0  0  0  0  0  0  0
   29.7470   54.3860   -4.0890 O   0  0  0  0  0  0  0  0  0  0  0  0
   29.6280   52.0870   -4.6660 C   0  0  0  0  0  0  0  0  0  0  0  0
   29.5850   51.1560   -5.7110 C   0  0  0  0  0  0  0  0  0  0  0  0
   29.9240   51.6500   -3.3670 C   0  0  0  0  0  0  0  0  0  0  0  0
   29.8380   49.8020   -5.4590 C   0  0  0  0  0  0  0  0  0  0  0  0
   30.1740   50.2980   -3.1150 C   0  0  0  0  0  0  0  0  0  0  0  0
   30.1330   49.3670   -4.1600 C   0  0  0  0  0  0  0  0  0  0  0  0
   30.4060   47.9420   -3.8520 C   0  0  0  0  0  0  0  0  0  0  0  0
   30.1050   47.1200   -4.8750 O   0  0  0  0  0  0  0  0  0  0  0  0
   30.8570   47.5090   -2.8070 O   0  0  0  0  0  0  0  0  0  0  0  0
  1  2  1  0
  2  3  2  0
  2  4  1  0
  4  5  2  0
  4  6  1  0
  5  7  1  0
  6  8  2  0
  7  9  2  0
  8  9  1  0
  9 10  1  0
 10 11  1  0
 10 12  2  0
M  END
