mac-x0277-mac-x0228
     RDKit          3D

 25 27  0  0  0  0  0  0  0  0999 V2000
   27.7890   46.5160   -0.3500 Cl  0  0  0  0  0  0  0  0  0  0  0  0
   28.8570   45.9150   -1.5680 C   0  0  0  0  0  0  0  0  0  0  0  0
   30.2380   46.1250   -1.5280 C   0  0  0  0  0  0  0  0  0  0  0  0
   28.2940   45.1910   -2.6230 C   0  0  0  0  0  0  0  0  0  0  0  0
   31.0010   47.0090   -0.2510 Cl  0  0  0  0  0  0  0  0  0  0  0  0
   31.0530   45.6100   -2.5480 C   0  0  0  0  0  0  0  0  0  0  0  0
   29.1080   44.6790   -3.6380 C   0  0  0  0  0  0  0  0  0  0  0  0
   30.4940   44.8820   -3.6110 C   0  0  0  0  0  0  0  0  0  0  0  0
   31.3630   44.3220   -4.7140 C   0  0  0  0  0  0  0  0  0  0  0  0
   32.3910   45.3050   -5.2270 C   0  0  0  0  0  0  0  0  0  0  0  0
   33.6480   44.8910   -4.9810 O   0  0  0  0  0  0  0  0  0  0  0  0
   32.0620   46.3920   -5.8240 N   0  0  0  0  0  0  0  0  0  0  0  0
   30.6760   46.7640   -6.0510 C   0  0  0  0  0  0  0  0  0  0  0  0
   30.4250   48.1640   -6.2470 O   0  0  0  0  0  0  0  0  0  0  0  0
   31.2660   48.9970   -5.5920 C   0  0  0  0  0  0  0  0  0  0  0  0
   32.4590   48.8000   -5.4250 O   0  0  0  0  0  0  0  0  0  0  0  0
   30.5540   50.2040   -5.0940 C   0  0  0  0  0  0  0  0  0  0  0  0
   30.1790   51.2500   -5.9550 C   0  0  0  0  0  0  0  0  0  0  0  0
   30.2580   50.2840   -3.7130 C   0  0  0  0  0  0  0  0  0  0  0  0
   29.5240   52.3430   -5.4130 C   0  0  0  0  0  0  0  0  0  0  0  0
   29.5950   51.3980   -3.1880 C   0  0  0  0  0  0  0  0  0  0  0  0
   29.2420   52.4080   -4.0580 C   0  0  0  0  0  0  0  0  0  0  0  0
   29.0260   53.5670   -6.0770 C   0  0  0  0  0  0  0  0  0  0  0  0
   28.5910   53.5570   -3.6910 O   0  0  0  0  0  0  0  0  0  0  0  0
   28.7760   54.4260   -4.8340 C   0  0  0  0  0  0  0  0  0  0  0  0
  1  2  1  0
  2  3  2  0
  2  4  1  0
  3  5  1  0
  3  6  1  0
  4  7  2  0
  6  8  2  0
  7  8  1  0
  8  9  1  0
  9 10  1  0
 10 11  1  0
 10 12  2  3
 12 13  1  0
 13 14  1  0
 14 15  1  0
 15 16  2  0
 15 17  1  0
 17 18  2  0
 17 19  1  0
 18 20  1  0
 19 21  2  0
 20 22  2  0
 21 22  1  0
 20 23  1  0
 22 24  1  0
 23 25  1  0
 24 25  1  0
M  END
