mac-x0188-mac-x0567
     RDKit          3D

 20 22  0  0  0  0  0  0  0  0999 V2000
   32.4760   44.4210   -3.5470 C   0  0  0  0  0  0  0  0  0  0  0  0
   32.1010   45.8480   -3.4950 C   0  0  0  0  0  0  0  0  0  0  0  0
   32.5780   46.5550   -2.4450 O   0  0  0  0  0  0  0  0  0  0  0  0
   31.3410   46.6630   -4.3070 C   0  0  0  0  0  0  0  0  0  0  0  0
   30.6950   46.2030   -5.5060 C   0  0  0  0  0  0  0  0  0  0  0  0
   32.1480   47.8580   -2.5350 N   0  0  0  0  0  0  0  0  0  0  0  0
   31.4020   47.9430   -3.6500 C   0  0  0  0  0  0  0  0  0  0  0  0
   29.5410   45.8000   -5.5850 O   0  0  0  0  0  0  0  0  0  0  0  0
   31.4670   46.2180   -6.6160 O   0  0  0  0  0  0  0  0  0  0  0  0
   30.7790   49.2790   -4.0250 C   0  0  2  0  0  0  0  0  0  0  0  0
   29.5210   49.5700   -3.2290 C   0  0  0  0  0  0  0  0  0  0  0  0
   30.6430   49.5120   -5.5600 C   0  0  0  0  0  0  0  0  0  0  0  0
   28.5350   50.3440   -3.6780 C   0  0  0  0  0  0  0  0  0  0  0  0
   29.3020   50.0950   -6.0850 C   0  0  1  0  0  0  0  0  0  0  0  0
   28.6020   50.9820   -5.0210 C   0  0  0  0  0  0  0  0  0  0  0  0
   29.5560   50.8350   -7.3450 N   0  0  0  0  0  0  0  0  0  0  0  0
   28.3730   48.9650   -6.5510 C   0  0  0  0  0  0  0  0  0  0  0  0
   28.8050   48.7370   -7.9850 C   0  0  2  0  0  0  0  0  0  0  0  0
   28.9820   50.0960   -8.4650 N   0  0  0  0  0  0  0  0  0  0  0  0
   27.7560   48.1760   -8.8140 N   0  0  0  0  0  0  0  0  0  0  0  0
  1  2  1  0
  2  3  1  0
  2  4  2  0
  4  5  1  0
  3  6  1  0
  4  7  1  0
  6  7  2  0
  5  8  2  0
  5  9  1  0
 10  7  1  6
 10 11  1  0
 10 12  1  0
 11 13  2  0
 14 12  1  1
 13 15  1  0
 14 15  1  0
 14 16  1  0
 14 17  1  0
 17 18  1  0
 16 19  1  0
 18 19  1  0
 18 20  1  6
M  END
