mac-x0433-mac-x0387
     RDKit          3D

 19 21  0  0  0  0  0  0  0  0999 V2000
   27.5810   50.7090   -5.8290 C   0  0  0  0  0  0  0  0  0  0  0  0
   28.3930   51.7540   -5.1020 C   0  0  0  0  0  0  0  0  0  0  0  0
   29.1620   52.6650   -5.8010 C   0  0  0  0  0  0  0  0  0  0  0  0
   28.4140   49.6520   -6.5280 C   0  0  0  0  0  0  0  0  0  0  0  0
   28.3310   51.7560   -3.7480 N   0  0  0  0  0  0  0  0  0  0  0  0
   29.2760   48.7800   -5.8130 C   0  0  0  0  0  0  0  0  0  0  0  0
   28.2680   49.6100   -7.8830 N   0  0  0  0  0  0  0  0  0  0  0  0
   29.0520   52.6820   -3.1100 C   0  0  0  0  0  0  0  0  0  0  0  0
   29.8690   53.5830   -5.0490 C   0  0  0  0  0  0  0  0  0  0  0  0
   30.0040   47.8340   -6.5710 C   0  0  0  0  0  0  0  0  0  0  0  0
   28.9840   48.6920   -8.5620 C   0  0  0  0  0  0  0  0  0  0  0  0
   29.4620   48.7840   -4.4090 C   0  0  0  0  0  0  0  0  0  0  0  0
   30.7270   54.6100   -5.7210 C   0  0  0  0  0  0  0  0  0  0  0  0
   28.9960   52.6920   -1.7320 N   0  0  0  0  0  0  0  0  0  0  0  0
   29.8230   53.6000   -3.6990 N   0  0  0  0  0  0  0  0  0  0  0  0
   29.8490   47.7990   -7.9600 C   0  0  0  0  0  0  0  0  0  0  0  0
   30.8770   46.9390   -5.9300 C   0  0  0  0  0  0  0  0  0  0  0  0
   30.3330   47.8880   -3.7840 C   0  0  0  0  0  0  0  0  0  0  0  0
   31.0400   46.9650   -4.5440 C   0  0  0  0  0  0  0  0  0  0  0  0
  1  2  1  0
  2  3  2  0
  1  4  1  0
  2  5  1  0
  4  6  1  0
  4  7  2  0
  5  8  2  0
  3  9  1  0
  6 10  2  0
  7 11  1  0
  6 12  1  0
  9 13  1  0
  8 14  1  0
  8 15  1  0
  9 15  2  0
 10 16  1  0
 11 16  2  0
 10 17  1  0
 12 18  2  0
 17 19  2  0
 18 19  1  0
M  END
