mac-x0228-mac-x0373
     RDKit          3D

 20 22  0  0  0  0  0  0  0  0999 V2000
   30.2510   47.2070   -5.6350 C   0  0  0  0  0  0  0  0  0  0  0  0
   30.6530   48.0360   -4.3720 C   0  0  2  0  0  0  0  0  0  0  0  0
   29.9800   47.3960   -3.2660 O   0  0  0  0  0  0  0  0  0  0  0  0
   31.1310   47.2090   -6.6650 O   0  0  0  0  0  0  0  0  0  0  0  0
   29.2250   46.5380   -5.7500 O   0  0  0  0  0  0  0  0  0  0  0  0
   30.2720   49.5350   -4.2610 C   0  0  0  0  0  0  0  0  0  0  0  0
   32.1480   47.8980   -4.0900 C   0  0  0  0  0  0  0  0  0  0  0  0
   29.9970   50.3320   -5.4040 C   0  0  0  0  0  0  0  0  0  0  0  0
   30.2050   50.1580   -2.9880 C   0  0  0  0  0  0  0  0  0  0  0  0
   32.7050   46.7460   -3.5090 C   0  0  0  0  0  0  0  0  0  0  0  0
   33.0060   48.9620   -4.4130 C   0  0  0  0  0  0  0  0  0  0  0  0
   29.6820   51.6820   -5.2330 C   0  0  0  0  0  0  0  0  0  0  0  0
   29.8860   51.5130   -2.8390 C   0  0  0  0  0  0  0  0  0  0  0  0
   34.0770   46.6650   -3.2590 C   0  0  0  0  0  0  0  0  0  0  0  0
   34.3730   48.8810   -4.1630 C   0  0  0  0  0  0  0  0  0  0  0  0
   29.6340   52.2470   -3.9700 C   0  0  0  0  0  0  0  0  0  0  0  0
   29.3640   52.7260   -6.2330 C   0  0  0  0  0  0  0  0  0  0  0  0
   34.9090   47.7360   -3.5870 C   0  0  0  0  0  0  0  0  0  0  0  0
   29.3170   53.5840   -3.9750 O   0  0  0  0  0  0  0  0  0  0  0  0
   29.5490   53.9630   -5.3500 C   0  0  0  0  0  0  0  0  0  0  0  0
  1  2  1  0
  2  3  1  1
  1  4  1  0
  1  5  2  0
  2  6  1  0
  2  7  1  0
  6  8  2  0
  6  9  1  0
  7 10  2  0
  7 11  1  0
  8 12  1  0
  9 13  2  0
 10 14  1  0
 11 15  2  0
 12 16  2  0
 13 16  1  0
 12 17  1  0
 14 18  2  0
 15 18  1  0
 16 19  1  0
 17 20  1  0
 19 20  1  0
M  END
