mac-x0283-mac-x0333
     RDKit          3D

 11 12  0  0  0  0  0  0  0  0999 V2000
   28.6300   54.4510   -6.7520 N   0  0  0  0  0  0  0  0  0  0  0  0
   29.0600   53.8240   -5.6390 C   0  0  0  0  0  0  0  0  0  0  0  0
   29.4540   54.4480   -4.5240 N   0  0  0  0  0  0  0  0  0  0  0  0
   29.1500   52.4140   -5.5060 C   0  0  0  0  0  0  0  0  0  0  0  0
   29.8170   53.4420   -3.6330 O   0  0  0  0  0  0  0  0  0  0  0  0
   29.6340   52.2320   -4.2200 C   0  0  0  0  0  0  0  0  0  0  0  0
   28.8900   51.2770   -6.2940 C   0  0  0  0  0  0  0  0  0  0  0  0
   29.8860   50.9900   -3.6400 C   0  0  0  0  0  0  0  0  0  0  0  0
   29.1320   50.0050   -5.7440 C   0  0  0  0  0  0  0  0  0  0  0  0
   29.6200   49.8790   -4.4420 C   0  0  0  0  0  0  0  0  0  0  0  0
   29.8610   48.6420   -3.9010 O   0  0  0  0  0  0  0  0  0  0  0  0
  1  2  1  0
  2  3  2  0
  2  4  1  0
  3  5  1  0
  4  6  2  0
  5  6  1  0
  4  7  1  0
  6  8  1  0
  7  9  2  0
  8 10  2  0
  9 10  1  0
 10 11  1  0
M  END
