mac-x0301-mac-x0148
     RDKit          3D

 20 23  0  0  0  0  0  0  0  0999 V2000
   28.5350   45.4950   -3.7830 O   0  0  0  0  0  0  0  0  0  0  0  0
   28.6640   46.7690   -3.3530 C   0  0  0  0  0  0  0  0  0  0  0  0
   28.8590   47.0890   -2.1960 O   0  0  0  0  0  0  0  0  0  0  0  0
   28.5370   47.7290   -4.4660 C   0  0  0  0  0  0  0  0  0  0  0  0
   29.5850   48.0920   -5.3090 C   0  0  0  0  0  0  0  0  0  0  0  0
   27.2610   48.2940   -4.6590 C   0  0  0  0  0  0  0  0  0  0  0  0
   29.3190   49.0130   -6.3260 C   0  0  0  0  0  0  0  0  0  0  0  0
   27.0360   49.2160   -5.6890 C   0  0  0  0  0  0  0  0  0  0  0  0
   31.0430   47.7040   -5.3950 C   0  0  1  0  0  0  0  0  0  0  0  0
   28.0740   49.5820   -6.5360 C   0  0  0  0  0  0  0  0  0  0  0  0
   30.4020   49.3120   -7.1110 O   0  0  0  0  0  0  0  0  0  0  0  0
   31.5050   48.9080   -6.2740 C   0  0  0  0  0  0  0  0  0  0  0  0
   31.7410   47.7910   -4.0140 C   0  0  2  0  0  0  0  0  0  0  0  0
   31.3910   46.3910   -6.1050 C   0  0  0  0  0  0  0  0  0  0  0  0
   32.8720   48.8000   -3.8570 C   0  0  0  0  0  0  0  0  0  0  0  0
   32.4470   46.5110   -3.5640 C   0  0  2  0  0  0  0  0  0  0  0  0
   32.8940   46.1070   -6.0560 C   0  0  0  0  0  0  0  0  0  0  0  0
   33.2460   47.0370   -2.3780 C   0  0  0  0  0  0  0  0  0  0  0  0
   33.6190   48.3850   -2.7000 O   0  0  0  0  0  0  0  0  0  0  0  0
   33.3790   45.8970   -4.6240 C   0  0  0  0  0  0  0  0  0  0  0  0
  1  2  1  0
  2  3  2  0
  2  4  1  0
  4  5  2  0
  4  6  1  0
  5  7  1  0
  6  8  2  0
  5  9  1  0
  7 10  2  0
  8 10  1  0
  7 11  1  0
  9 12  1  6
 11 12  1  0
  9 13  1  0
  9 14  1  0
 13 15  1  6
 13 16  1  0
 14 17  1  0
 16 18  1  1
 15 19  1  0
 18 19  1  0
 16 20  1  0
 17 20  1  0
M  END
