mac-x0373-mac-x0228
     RDKit          3D

 21 23  0  0  0  0  0  0  0  0999 V2000
   30.8800   47.4050   -6.8170 O   0  0  0  0  0  0  0  0  0  0  0  0
   30.3190   47.1050   -5.6310 C   0  0  0  0  0  0  0  0  0  0  0  0
   29.3920   46.3000   -5.6100 O   0  0  0  0  0  0  0  0  0  0  0  0
   30.9020   47.8050   -4.3750 C   0  0  1  0  0  0  0  0  0  0  0  0
   30.1030   47.1940   -3.3110 O   0  0  0  0  0  0  0  0  0  0  0  0
   32.3740   47.4470   -4.1120 C   0  0  0  0  0  0  0  0  0  0  0  0
   30.6330   49.3590   -4.3380 C   0  0  2  0  0  0  0  0  0  0  0  0
   32.7390   46.2540   -3.4660 C   0  0  0  0  0  0  0  0  0  0  0  0
   33.4030   48.3170   -4.5150 C   0  0  0  0  0  0  0  0  0  0  0  0
   29.3680   49.7880   -3.6010 C   0  0  0  0  0  0  0  0  0  0  0  0
   30.6600   49.9890   -5.7320 C   0  0  0  0  0  0  0  0  0  0  0  0
   34.0850   45.9430   -3.2320 C   0  0  0  0  0  0  0  0  0  0  0  0
   34.7480   48.0060   -4.2810 C   0  0  0  0  0  0  0  0  0  0  0  0
   28.6580   50.8800   -3.9350 C   0  0  0  0  0  0  0  0  0  0  0  0
   29.9480   51.0810   -6.0600 C   0  0  0  0  0  0  0  0  0  0  0  0
   35.0870   46.8210   -3.6400 C   0  0  0  0  0  0  0  0  0  0  0  0
   29.0450   51.7960   -5.0780 C   0  0  2  0  0  0  0  0  0  0  0  0
   29.6740   53.1200   -4.5690 C   0  0  0  0  0  0  0  0  0  0  0  0
   27.8310   52.3240   -5.7650 C   0  0  0  0  0  0  0  0  0  0  0  0
   28.7830   54.2200   -4.8810 O   0  0  0  0  0  0  0  0  0  0  0  0
   27.7680   53.6410   -5.6090 C   0  0  0  0  0  0  0  0  0  0  0  0
  1  2  1  0
  2  3  2  0
  2  4  1  0
  4  5  1  1
  4  6  1  0
  4  7  1  0
  6  8  2  0
  6  9  1  0
  7 10  1  6
  7 11  1  0
  8 12  1  0
  9 13  2  0
 10 14  2  0
 11 15  2  0
 12 16  2  0
 13 16  1  0
 17 14  1  1
 15 17  1  0
 17 18  1  0
 17 19  1  0
 18 20  1  0
 19 21  2  0
 20 21  1  0
M  END
