mac-x0451-mac-x0159
     RDKit          3D

 22 25  0  0  0  0  0  0  0  0999 V2000
   28.9350   53.8800   -8.3000 N   0  0  0  0  0  0  0  0  0  0  0  0
   29.1030   52.7550   -7.5810 C   0  0  0  0  0  0  0  0  0  0  0  0
   29.3690   52.7680   -6.3070 N   0  0  0  0  0  0  0  0  0  0  0  0
   28.9750   51.1880   -8.2880 S   0  0  0  0  0  0  0  0  0  0  0  0
   29.4770   51.4670   -5.8490 C   0  0  0  0  0  0  0  0  0  0  0  0
   29.2950   50.4640   -6.7670 C   0  0  0  0  0  0  0  0  0  0  0  0
   29.7570   51.2010   -4.4290 C   0  0  1  0  0  0  0  0  0  0  0  0
   29.3680   48.9670   -6.4600 C   0  0  2  0  0  0  0  0  0  0  0  0
   28.4190   51.3380   -3.8680 N   0  0  0  0  0  0  0  0  0  0  0  0
   30.3810   49.8000   -4.2160 C   0  0  0  0  0  0  0  0  0  0  0  0
   29.5750   48.6680   -4.9000 C   0  0  2  0  0  0  0  0  0  0  0  0
   30.2940   48.3360   -7.4160 N   0  0  0  0  0  0  0  0  0  0  0  0
   28.0530   48.2670   -6.8160 C   0  0  0  0  0  0  0  0  0  0  0  0
   30.2120   47.3840   -4.5960 O   0  0  0  0  0  0  0  0  0  0  0  0
   28.4920   46.9970   -7.4070 N   0  0  0  0  0  0  0  0  0  0  0  0
   29.5090   47.4950   -8.2880 C   0  0  0  0  0  0  0  0  0  0  0  0
   29.5610   46.5450   -3.7030 C   0  0  0  0  0  0  0  0  0  0  0  0
   29.1600   45.2800   -4.1040 C   0  0  0  0  0  0  0  0  0  0  0  0
   29.2450   46.8400   -2.3790 N   0  0  0  0  0  0  0  0  0  0  0  0
   28.6210   45.8200   -1.8100 C   0  0  0  0  0  0  0  0  0  0  0  0
   28.3780   44.4520   -2.8210 S   0  0  0  0  0  0  0  0  0  0  0  0
   28.1390   45.8010   -0.3970 C   0  0  0  0  0  0  0  0  0  0  0  0
  1  2  1  0
  2  3  2  0
  2  4  1  0
  3  5  1  0
  4  6  1  0
  5  6  2  0
  5  7  1  0
  6  8  1  0
  7  9  1  1
  7 10  1  0
  8 11  1  0
 10 11  1  0
  8 12  1  0
  8 13  1  6
 11 14  1  6
 13 15  1  0
 12 16  1  0
 15 16  1  0
 14 17  1  0
 17 18  2  0
 17 19  1  0
 19 20  2  0
 18 21  1  0
 20 21  1  0
 20 22  1  0
M  END
