mac-x0379-mac-x0231
     RDKit          3D

 24 26  0  0  0  0  0  0  0  0999 V2000
   27.1570   53.0000   -5.1680 C   0  0  0  0  0  0  0  0  0  0  0  0
   27.8140   51.9160   -4.3920 C   0  0  0  0  0  0  0  0  0  0  0  0
   27.6220   51.6910   -3.1090 N   0  0  0  0  0  0  0  0  0  0  0  0
   28.9110   50.8540   -5.1710 S   0  0  0  0  0  0  0  0  0  0  0  0
   28.3870   50.6150   -2.7100 C   0  0  0  0  0  0  0  0  0  0  0  0
   29.1610   50.0200   -3.6890 C   0  0  0  0  0  0  0  0  0  0  0  0
   30.0580   48.9050   -3.6180 C   0  0  0  0  0  0  0  0  0  0  0  0
   30.1310   47.8990   -2.8080 N   0  0  0  0  0  0  0  0  0  0  0  0
   30.9920   48.9370   -4.5910 O   0  0  0  0  0  0  0  0  0  0  0  0
   31.1460   46.9580   -3.0050 C   0  0  0  0  0  0  0  0  0  0  0  0
   30.9700   45.6670   -3.5480 C   0  0  0  0  0  0  0  0  0  0  0  0
   32.4350   47.3640   -2.6240 C   0  0  0  0  0  0  0  0  0  0  0  0
   32.0800   44.8210   -3.7050 C   0  0  0  0  0  0  0  0  0  0  0  0
   29.6510   45.1350   -3.9740 C   0  0  0  0  0  0  0  0  0  0  0  0
   33.5300   46.5240   -2.7740 C   0  0  0  0  0  0  0  0  0  0  0  0
   28.6470   45.8190   -4.1260 O   0  0  0  0  0  0  0  0  0  0  0  0
   31.8420   43.4790   -4.2920 C   0  0  0  0  0  0  0  0  0  0  0  0
   29.6020   43.7780   -4.1960 N   0  0  0  0  0  0  0  0  0  0  0  0
   33.3580   45.2530   -3.3140 C   0  0  0  0  0  0  0  0  0  0  0  0
   33.0040   42.5830   -4.6740 C   0  0  0  0  0  0  0  0  0  0  0  0
   30.6570   42.9940   -4.5190 N   0  0  0  0  0  0  0  0  0  0  0  0
   33.5030   42.8720   -6.0620 C   0  0  0  0  0  0  0  0  0  0  0  0
   34.8350   43.1010   -6.1270 O   0  0  0  0  0  0  0  0  0  0  0  0
   32.7800   42.8980   -7.0490 O   0  0  0  0  0  0  0  0  0  0  0  0
  1  2  1  0
  2  3  2  0
  2  4  1  0
  3  5  1  0
  4  6  1  0
  5  6  2  0
  6  7  1  0
  7  8  2  3
  7  9  1  0
  8 10  1  0
 10 11  1  0
 10 12  2  0
 11 13  2  0
 11 14  1  0
 12 15  1  0
 14 16  2  0
 13 17  1  0
 14 18  1  0
 13 19  1  0
 15 19  2  0
 17 20  1  0
 17 21  2  0
 18 21  1  0
 20 22  1  0
 22 23  1  0
 22 24  2  0
M  END
