mac-x0354-mac-x0228
     RDKit          3D

 29 32  0  0  0  0  0  0  0  0999 V2000
   35.3760   43.5530   -1.6520 C   0  0  0  0  0  0  0  0  0  0  0  0
   34.6710   43.7420   -2.9010 N   0  0  0  0  0  0  0  0  0  0  0  0
   33.7640   42.8260   -3.2830 N   0  0  0  0  0  0  0  0  0  0  0  0
   34.8180   44.7860   -3.7900 C   0  0  0  0  0  0  0  0  0  0  0  0
   33.3180   43.2950   -4.4460 C   0  0  0  0  0  0  0  0  0  0  0  0
   33.9270   44.5140   -4.8320 C   0  0  0  0  0  0  0  0  0  0  0  0
   35.7510   45.8860   -3.5680 C   0  0  0  0  0  0  0  0  0  0  0  0
   33.6740   45.2850   -6.0310 C   0  0  0  0  0  0  0  0  0  0  0  0
   37.1320   45.6540   -3.5720 C   0  0  0  0  0  0  0  0  0  0  0  0
   35.2770   47.1860   -3.3460 C   0  0  0  0  0  0  0  0  0  0  0  0
   32.5230   45.8100   -6.2650 N   0  0  0  0  0  0  0  0  0  0  0  0
   34.7080   45.4200   -6.8940 O   0  0  0  0  0  0  0  0  0  0  0  0
   38.0250   46.7070   -3.3580 C   0  0  0  0  0  0  0  0  0  0  0  0
   36.1710   48.2380   -3.1320 C   0  0  0  0  0  0  0  0  0  0  0  0
   31.4670   45.6120   -5.2720 C   0  0  0  0  0  0  0  0  0  0  0  0
   37.5450   47.9960   -3.1390 C   0  0  0  0  0  0  0  0  0  0  0  0
   30.1760   46.3160   -5.6940 C   0  0  0  0  0  0  0  0  0  0  0  0
   30.3290   47.7330   -5.5010 O   0  0  0  0  0  0  0  0  0  0  0  0
   30.1050   48.1540   -4.2310 C   0  0  0  0  0  0  0  0  0  0  0  0
   30.0260   47.4390   -3.2430 O   0  0  0  0  0  0  0  0  0  0  0  0
   29.9620   49.6350   -4.1800 C   0  0  0  0  0  0  0  0  0  0  0  0
   29.7120   50.4100   -5.3270 C   0  0  0  0  0  0  0  0  0  0  0  0
   30.0870   50.2650   -2.9210 C   0  0  0  0  0  0  0  0  0  0  0  0
   29.5960   51.7850   -5.1800 C   0  0  0  0  0  0  0  0  0  0  0  0
   29.9650   51.6510   -2.7950 C   0  0  0  0  0  0  0  0  0  0  0  0
   29.7210   52.3840   -3.9370 C   0  0  0  0  0  0  0  0  0  0  0  0
   29.3390   52.8270   -6.2000 C   0  0  0  0  0  0  0  0  0  0  0  0
   29.5790   53.7450   -3.9660 O   0  0  0  0  0  0  0  0  0  0  0  0
   29.6820   54.0680   -5.3730 C   0  0  0  0  0  0  0  0  0  0  0  0
  1  2  1  0
  2  3  1  0
  2  4  1  0
  3  5  2  0
  4  6  2  0
  5  6  1  0
  4  7  1  0
  6  8  1  0
  7  9  2  0
  7 10  1  0
  8 11  2  3
  8 12  1  0
  9 13  1  0
 10 14  2  0
 11 15  1  0
 13 16  2  0
 14 16  1  0
 15 17  1  0
 17 18  1  0
 18 19  1  0
 19 20  2  0
 19 21  1  0
 21 22  2  0
 21 23  1  0
 22 24  1  0
 23 25  2  0
 24 26  2  0
 25 26  1  0
 24 27  1  0
 26 28  1  0
 27 29  1  0
 28 29  1  0
M  END
