mac-x0365-mac-x0344
     RDKit          3D

 25 26  0  0  0  0  0  0  0  0999 V2000
   29.3270   48.1960   -6.0780 O   0  0  0  0  0  0  0  0  0  0  0  0
   29.7270   48.6120   -4.8650 C   0  0  0  0  0  0  0  0  0  0  0  0
   30.2440   47.7360   -4.0860 N   0  0  0  0  0  0  0  0  0  0  0  0
   29.4700   50.0480   -4.7080 C   0  0  0  0  0  0  0  0  0  0  0  0
   30.3750   46.3500   -4.5360 C   0  0  0  0  0  0  0  0  0  0  0  0
   29.7190   50.6540   -3.4680 C   0  0  0  0  0  0  0  0  0  0  0  0
   28.9850   50.8040   -5.7800 C   0  0  0  0  0  0  0  0  0  0  0  0
   31.6740   45.7860   -3.9450 C   0  0  0  0  0  0  0  0  0  0  0  0
   29.4750   52.0140   -3.3260 C   0  0  0  0  0  0  0  0  0  0  0  0
   28.7440   52.1730   -5.6230 C   0  0  0  0  0  0  0  0  0  0  0  0
   29.7070   52.6130   -2.1480 F   0  0  0  0  0  0  0  0  0  0  0  0
   32.3120   44.6830   -4.8060 C   0  0  0  0  0  0  0  0  0  0  0  0
   28.9930   52.7690   -4.3920 C   0  0  0  0  0  0  0  0  0  0  0  0
   28.7510   54.1060   -4.2540 O   0  0  0  0  0  0  0  0  0  0  0  0
   32.0100   43.4170   -4.2240 O   0  0  0  0  0  0  0  0  0  0  0  0
   31.6810   44.6010   -6.0630 O   0  0  0  0  0  0  0  0  0  0  0  0
   33.8720   44.8840   -4.8880 C   0  0  0  0  0  0  0  0  0  0  0  0
   34.4270   44.9790   -5.9950 O   0  0  0  0  0  0  0  0  0  0  0  0
   34.7190   44.9700   -3.8230 N   0  0  0  0  0  0  0  0  0  0  0  0
   35.5940   45.9160   -3.2590 C   0  0  0  0  0  0  0  0  0  0  0  0
   36.6030   45.3830   -2.4370 C   0  0  0  0  0  0  0  0  0  0  0  0
   35.5600   47.2950   -3.4320 C   0  0  0  0  0  0  0  0  0  0  0  0
   37.5440   46.2050   -1.8080 C   0  0  0  0  0  0  0  0  0  0  0  0
   36.5020   48.1240   -2.8040 C   0  0  0  0  0  0  0  0  0  0  0  0
   37.4940   47.5780   -1.9930 C   0  0  0  0  0  0  0  0  0  0  0  0
  1  2  1  0
  2  3  2  3
  2  4  1  0
  3  5  1  0
  4  6  2  0
  4  7  1  0
  5  8  1  0
  6  9  1  0
  7 10  2  0
  9 11  1  0
  8 12  1  0
  9 13  2  0
 10 13  1  0
 13 14  1  0
 12 15  1  0
 12 16  1  0
 12 17  1  0
 17 18  2  0
 17 19  1  0
 19 20  1  0
 20 21  2  0
 20 22  1  0
 21 23  1  0
 22 24  2  0
 23 25  2  0
 24 25  1  0
M  END
