mac-x0328-mac-x0546
     RDKit          3D

 26 28  0  0  0  0  0  0  0  0999 V2000
   29.4220   48.5370   -4.1030 O   0  0  0  0  0  0  0  0  0  0  0  0
   30.1550   49.1480   -5.0510 C   0  0  0  0  0  0  0  0  0  0  0  0
   30.7950   48.3940   -5.8710 N   0  0  0  0  0  0  0  0  0  0  0  0
   30.0360   50.6030   -4.9100 C   0  0  0  0  0  0  0  0  0  0  0  0
   30.6710   46.9440   -5.6970 C   0  0  0  0  0  0  0  0  0  0  0  0
   29.6380   51.3810   -6.0040 C   0  0  0  0  0  0  0  0  0  0  0  0
   30.3190   51.2140   -3.6820 C   0  0  0  0  0  0  0  0  0  0  0  0
   31.6910   46.1980   -6.4110 N   0  0  0  0  0  0  0  0  0  0  0  0
   29.5250   52.7640   -5.8640 C   0  0  0  0  0  0  0  0  0  0  0  0
   30.2060   52.5980   -3.5440 C   0  0  0  0  0  0  0  0  0  0  0  0
   32.6350   45.5660   -5.8160 C   0  0  0  0  0  0  0  0  0  0  0  0
   29.8080   53.3610   -4.6390 C   0  0  0  0  0  0  0  0  0  0  0  0
   29.6850   54.7170   -4.5500 O   0  0  0  0  0  0  0  0  0  0  0  0
   32.7900   45.5310   -4.3150 C   0  0  0  0  0  0  0  0  0  0  0  0
   33.5840   44.8700   -6.4680 O   0  0  0  0  0  0  0  0  0  0  0  0
   31.6470   44.8210   -3.6650 C   0  0  0  0  0  0  0  0  0  0  0  0
   31.2650   45.0140   -2.2330 C   0  0  1  0  0  0  0  0  0  0  0  0
   30.8120   43.9290   -4.2270 C   0  0  0  0  0  0  0  0  0  0  0  0
   30.7590   46.3280   -1.7300 C   0  0  0  0  0  0  0  0  0  0  0  0
   30.0820   44.0600   -2.2600 C   0  0  0  0  0  0  0  0  0  0  0  0
   29.8450   43.4500   -3.3810 N   0  0  0  0  0  0  0  0  0  0  0  0
   29.7580   46.3430   -0.8200 C   0  0  0  0  0  0  0  0  0  0  0  0
   29.3110   43.9280   -1.0180 C   0  0  0  0  0  0  0  0  0  0  0  0
   29.1670   47.4390   -0.2420 O   0  0  0  0  0  0  0  0  0  0  0  0
   29.1810   45.0840   -0.3470 C   0  0  0  0  0  0  0  0  0  0  0  0
   29.8960   48.6590   -0.2320 C   0  0  0  0  0  0  0  0  0  0  0  0
  1  2  1  0
  2  3  2  3
  2  4  1  0
  3  5  1  0
  4  6  2  0
  4  7  1  0
  5  8  1  0
  6  9  1  0
  7 10  2  0
  8 11  2  3
  9 12  2  0
 10 12  1  0
 12 13  1  0
 11 14  1  0
 11 15  1  0
 14 16  1  0
 16 17  1  0
 16 18  2  0
 17 19  1  6
 17 20  1  0
 18 21  1  0
 20 21  2  0
 19 22  2  0
 20 23  1  0
 22 24  1  0
 22 25  1  0
 23 25  2  0
 24 26  1  0
M  END
