mac-x0455-mac-x0213
     RDKit          3D

 22 24  0  0  0  0  0  0  0  0999 V2000
   31.8890   48.6980   -5.7020 C   0  0  0  0  0  0  0  0  0  0  0  0
   31.6010   47.5990   -4.6900 C   0  0  1  0  0  0  0  0  0  0  0  0
   30.9610   48.3370   -3.6380 O   0  0  0  0  0  0  0  0  0  0  0  0
   30.8330   46.3200   -5.2420 S   0  0  0  0  0  0  0  0  0  0  0  0
   32.9510   47.3420   -4.0770 C   0  0  0  0  0  0  0  0  0  0  0  0
   29.5500   47.1490   -5.4150 O   0  0  0  0  0  0  0  0  0  0  0  0
   32.0590   46.4510   -6.6150 O   0  0  0  0  0  0  0  0  0  0  0  0
   30.2800   45.2980   -6.1790 O   0  0  0  0  0  0  0  0  0  0  0  0
   33.5200   48.1230   -3.1260 C   0  0  0  0  0  0  0  0  0  0  0  0
   33.6500   46.2180   -4.5260 C   0  0  0  0  0  0  0  0  0  0  0  0
   31.2640   45.1780   -4.1490 C   0  0  0  0  0  0  0  0  0  0  0  0
   34.7560   47.8120   -2.6160 C   0  0  0  0  0  0  0  0  0  0  0  0
   34.8930   45.9000   -4.0160 C   0  0  0  0  0  0  0  0  0  0  0  0
   31.4480   45.7670   -2.7250 C   0  0  0  0  0  0  0  0  0  0  0  0
   30.1820   44.1410   -3.7490 C   0  0  0  0  0  0  0  0  0  0  0  0
   35.4700   46.6930   -3.0490 C   0  0  0  0  0  0  0  0  0  0  0  0
   30.0400   45.8190   -2.2090 C   0  0  0  0  0  0  0  0  0  0  0  0
   29.2760   44.8460   -2.8190 C   0  0  0  0  0  0  0  0  0  0  0  0
   29.3860   46.6100   -1.2860 C   0  0  0  0  0  0  0  0  0  0  0  0
   27.9420   44.6530   -2.5450 C   0  0  0  0  0  0  0  0  0  0  0  0
   28.0490   46.4340   -0.9930 C   0  0  0  0  0  0  0  0  0  0  0  0
   27.3160   45.4610   -1.6160 C   0  0  0  0  0  0  0  0  0  0  0  0
  2  1  1  6
  2  3  1  0
  2  4  1  0
  2  5  1  0
  4  6  2  0
  4  7  1  0
  4  8  1  0
  5  9  2  0
  5 10  1  0
  4 11  1  0
  9 12  1  0
 10 13  2  0
 11 14  1  0
 11 15  1  0
 12 16  2  0
 13 16  1  0
 14 17  1  0
 15 18  1  0
 17 18  2  0
 17 19  1  0
 18 20  1  0
 19 21  2  0
 20 22  2  0
 21 22  1  0
M  END
