mac-x0412-mac-x0546
     RDKit          3D

 28 31  0  0  0  0  0  0  0  0999 V2000
   29.2100   54.4760   -3.8920 O   0  0  0  0  0  0  0  0  0  0  0  0
   29.2730   53.8660   -4.9590 C   0  0  0  0  0  0  0  0  0  0  0  0
   28.7750   54.3850   -6.1400 N   0  0  0  0  0  0  0  0  0  0  0  0
   29.9320   52.4740   -5.0690 C   0  0  2  0  0  0  0  0  0  0  0  0
   29.0580   51.5520   -5.9000 C   0  0  0  0  0  0  0  0  0  0  0  0
   28.3200   53.5390   -7.0100 C   0  0  0  0  0  0  0  0  0  0  0  0
   30.3210   51.8970   -3.7410 C   0  0  0  0  0  0  0  0  0  0  0  0
   28.2710   52.0650   -6.8570 C   0  0  0  0  0  0  0  0  0  0  0  0
   29.1330   50.1260   -5.6100 C   0  0  0  0  0  0  0  0  0  0  0  0
   30.2120   50.6010   -3.4530 C   0  0  0  0  0  0  0  0  0  0  0  0
   30.6500   50.0950   -2.1060 C   0  0  0  0  0  0  0  0  0  0  0  0
   29.6740   49.6810   -4.4560 C   0  0  0  0  0  0  0  0  0  0  0  0
   29.5130   49.6820   -1.1640 C   0  0  0  0  0  0  0  0  0  0  0  0
   29.8800   48.3650   -0.6250 N   0  0  0  0  0  0  0  0  0  0  0  0
   31.0870   48.5220    0.1770 C   0  0  0  0  0  0  0  0  0  0  0  0
   29.7150   47.3150   -1.5280 C   0  0  0  0  0  0  0  0  0  0  0  0
   30.6790   46.9990   -2.4210 C   0  0  0  0  0  0  0  0  0  0  0  0
   28.4710   46.5300   -1.5530 C   0  0  0  0  0  0  0  0  0  0  0  0
   30.4830   45.9260   -3.4250 C   0  0  2  0  0  0  0  0  0  0  0  0
   28.3360   45.3480   -2.1930 C   0  0  0  0  0  0  0  0  0  0  0  0
   29.5470   44.8790   -2.8720 C   0  0  0  0  0  0  0  0  0  0  0  0
   31.5520   44.9880   -3.8760 C   0  0  0  0  0  0  0  0  0  0  0  0
   32.8520   45.4180   -4.4690 C   0  0  0  0  0  0  0  0  0  0  0  0
   29.8980   43.6430   -3.0550 N   0  0  0  0  0  0  0  0  0  0  0  0
   31.1290   43.7330   -3.6630 C   0  0  0  0  0  0  0  0  0  0  0  0
   32.7070   46.0060   -5.8550 C   0  0  0  0  0  0  0  0  0  0  0  0
   31.7320   45.9460   -6.5890 O   0  0  0  0  0  0  0  0  0  0  0  0
   33.8240   46.6470   -6.2610 O   0  0  0  0  0  0  0  0  0  0  0  0
  1  2  2  0
  2  3  1  0
  2  4  1  0
  4  5  1  0
  3  6  2  0
  4  7  1  1
  5  8  2  0
  6  8  1  0
  5  9  1  0
  7 10  2  0
 10 11  1  0
  9 12  2  0
 10 12  1  0
 11 13  1  0
 13 14  1  0
 14 15  1  0
 14 16  1  0
 16 17  2  0
 16 18  1  0
 19 17  1  1
 18 20  2  0
 19 21  1  0
 20 21  1  0
 19 22  1  0
 22 23  1  0
 21 24  2  0
 22 25  2  0
 24 25  1  0
 23 26  1  0
 26 27  2  0
 26 28  1  0
M  END
