mac-x0302-mac-x0590
     RDKit          3D

 30 33  0  0  0  0  0  0  0  0999 V2000
   28.9610   45.1320   -3.1670 O   0  0  0  0  0  0  0  0  0  0  0  0
   28.9970   45.6930   -4.4000 C   0  0  0  0  0  0  0  0  0  0  0  0
   28.8310   44.9740   -5.3760 O   0  0  0  0  0  0  0  0  0  0  0  0
   29.2550   47.2340   -4.3560 C   0  0  1  0  0  0  0  0  0  0  0  0
   30.6080   47.7930   -4.0390 N   0  0  0  0  0  0  0  0  0  0  0  0
   28.4500   48.0650   -5.3070 N   0  0  0  0  0  0  0  0  0  0  0  0
   30.8130   48.9700   -3.2970 C   0  0  0  0  0  0  0  0  0  0  0  0
   31.6220   46.7580   -3.7520 C   0  0  0  0  0  0  0  0  0  0  0  0
   27.6530   49.0430   -4.5350 C   0  0  0  0  0  0  0  0  0  0  0  0
   29.1390   48.7890   -6.3640 C   0  0  2  0  0  0  0  0  0  0  0  0
   30.7960   49.0000   -2.0640 O   0  0  0  0  0  0  0  0  0  0  0  0
   31.0720   50.2710   -3.9510 C   0  0  0  0  0  0  0  0  0  0  0  0
   32.8300   46.6560   -4.6910 C   0  0  2  0  0  0  0  0  0  0  0  0
   27.4500   50.2820   -5.2810 N   0  0  0  0  0  0  0  0  0  0  0  0
   28.1260   49.3300   -7.3900 C   0  0  2  0  0  0  0  0  0  0  0  0
   29.9640   47.9880   -7.2520 N   0  0  0  0  0  0  0  0  0  0  0  0
   30.5950   51.4250   -3.3090 C   0  0  0  0  0  0  0  0  0  0  0  0
   31.7650   50.3730   -5.1580 C   0  0  0  0  0  0  0  0  0  0  0  0
   32.5160   46.4900   -6.1690 C   0  0  0  0  0  0  0  0  0  0  0  0
   33.6390   45.3940   -4.4310 C   0  0  0  0  0  0  0  0  0  0  0  0
   26.9920   50.0140   -6.6180 C   0  0  2  0  0  0  0  0  0  0  0  0
   27.8120   48.1730   -8.2470 N   0  0  0  0  0  0  0  0  0  0  0  0
   29.0320   47.3660   -8.1950 C   0  0  0  0  0  0  0  0  0  0  0  0
   26.6420   51.3150   -7.1420 N   0  0  0  0  0  0  0  0  0  0  0  0
   30.8190   52.6690   -3.8910 C   0  0  0  0  0  0  0  0  0  0  0  0
   31.9830   51.6310   -5.7290 C   0  0  0  0  0  0  0  0  0  0  0  0
   34.4300   45.2370   -5.7130 C   0  0  0  0  0  0  0  0  0  0  0  0
   33.6570   45.8380   -6.7590 O   0  0  0  0  0  0  0  0  0  0  0  0
   30.3740   53.8160   -3.3050 O   0  0  0  0  0  0  0  0  0  0  0  0
   31.5080   52.7800   -5.0940 C   0  0  0  0  0  0  0  0  0  0  0  0
  1  2  1  0
  2  3  2  0
  4  2  1  6
  4  5  1  0
  4  6  1  0
  5  7  1  0
  5  8  1  0
  6  9  1  0
  6 10  1  0
  7 11  2  0
  7 12  1  0
 13  8  1  1
  9 14  1  0
 10 15  1  0
 10 16  1  6
 12 17  2  0
 12 18  1  0
 13 19  1  0
 13 20  1  0
 14 21  1  0
 15 21  1  0
 15 22  1  1
 16 23  1  0
 22 23  1  0
 21 24  1  6
 17 25  1  0
 18 26  2  0
 20 27  1  0
 19 28  1  0
 27 28  1  0
 25 29  1  0
 25 30  2  0
 26 30  1  0
M  END
