mac-x0354-mac-x0333
     RDKit          3D

 28 31  0  0  0  0  0  0  0  0999 V2000
   35.3240   43.5330   -1.5230 C   0  0  0  0  0  0  0  0  0  0  0  0
   34.6650   43.5790   -2.8090 N   0  0  0  0  0  0  0  0  0  0  0  0
   33.8770   42.5500   -3.1850 N   0  0  0  0  0  0  0  0  0  0  0  0
   34.7410   44.5870   -3.7460 C   0  0  0  0  0  0  0  0  0  0  0  0
   33.4430   42.9170   -4.3920 C   0  0  0  0  0  0  0  0  0  0  0  0
   33.9380   44.1760   -4.8070 C   0  0  0  0  0  0  0  0  0  0  0  0
   35.5390   45.7950   -3.5440 C   0  0  0  0  0  0  0  0  0  0  0  0
   33.6650   44.8620   -6.0530 C   0  0  0  0  0  0  0  0  0  0  0  0
   36.9360   45.7290   -3.6100 C   0  0  0  0  0  0  0  0  0  0  0  0
   34.9190   47.0240   -3.2840 C   0  0  0  0  0  0  0  0  0  0  0  0
   32.5220   45.4080   -6.2830 N   0  0  0  0  0  0  0  0  0  0  0  0
   34.6760   44.8940   -6.9580 O   0  0  0  0  0  0  0  0  0  0  0  0
   37.7040   46.8790   -3.4190 C   0  0  0  0  0  0  0  0  0  0  0  0
   35.6880   48.1720   -3.0930 C   0  0  0  0  0  0  0  0  0  0  0  0
   31.5090   45.3090   -5.2300 C   0  0  0  0  0  0  0  0  0  0  0  0
   37.0800   48.0990   -3.1610 C   0  0  0  0  0  0  0  0  0  0  0  0
   31.4100   46.6390   -4.4890 C   0  0  0  0  0  0  0  0  0  0  0  0
   30.4230   47.5950   -5.1540 C   0  0  0  0  0  0  0  0  0  0  0  0
   29.8750   48.4430   -4.1380 O   0  0  0  0  0  0  0  0  0  0  0  0
   29.6790   49.7580   -4.4660 C   0  0  0  0  0  0  0  0  0  0  0  0
   30.1020   50.8590   -3.7110 C   0  0  0  0  0  0  0  0  0  0  0  0
   28.9860   49.9620   -5.6750 C   0  0  0  0  0  0  0  0  0  0  0  0
   29.8170   52.1210   -4.1970 C   0  0  0  0  0  0  0  0  0  0  0  0
   28.7090   51.2540   -6.1420 C   0  0  0  0  0  0  0  0  0  0  0  0
   29.1400   52.3120   -5.3770 C   0  0  0  0  0  0  0  0  0  0  0  0
   30.1530   53.2920   -3.5970 O   0  0  0  0  0  0  0  0  0  0  0  0
   28.9660   53.6270   -5.6660 O   0  0  0  0  0  0  0  0  0  0  0  0
   29.6150   54.2470   -4.5370 C   0  0  0  0  0  0  0  0  0  0  0  0
  1  2  1  0
  2  3  1  0
  2  4  1  0
  3  5  2  0
  4  6  2  0
  5  6  1  0
  4  7  1  0
  6  8  1  0
  7  9  2  0
  7 10  1  0
  8 11  2  3
  8 12  1  0
  9 13  1  0
 10 14  2  0
 11 15  1  0
 13 16  2  0
 14 16  1  0
 15 17  1  0
 17 18  1  0
 18 19  1  0
 19 20  1  0
 20 21  2  0
 20 22  1  0
 21 23  1  0
 22 24  2  0
 23 25  2  0
 24 25  1  0
 23 26  1  0
 25 27  1  0
 26 28  1  0
 27 28  1  0
M  END
