mac-x0398-mac-x0305
     RDKit          3D

 22 23  0  0  0  0  0  0  0  0999 V2000
   28.6040   54.0150   -6.3100 N   0  0  0  0  0  0  0  0  0  0  0  0
   29.3140   53.0700   -5.5640 C   0  0  0  0  0  0  0  0  0  0  0  0
   30.1010   52.1070   -6.2000 C   0  0  0  0  0  0  0  0  0  0  0  0
   29.2550   53.0690   -4.1690 C   0  0  0  0  0  0  0  0  0  0  0  0
   29.9630   52.1290   -3.4160 C   0  0  0  0  0  0  0  0  0  0  0  0
   30.8130   51.1620   -5.4530 C   0  0  0  0  0  0  0  0  0  0  0  0
   29.8180   52.2430   -2.0570 O   0  0  0  0  0  0  0  0  0  0  0  0
   30.7570   51.1570   -4.0490 C   0  0  0  0  0  0  0  0  0  0  0  0
   31.5520   50.1120   -3.3420 C   0  0  0  0  0  0  0  0  0  0  0  0
   31.9460   50.2270   -2.1910 O   0  0  0  0  0  0  0  0  0  0  0  0
   31.7680   49.0370   -4.1480 O   0  0  0  0  0  0  0  0  0  0  0  0
   30.8120   47.9730   -3.9810 C   0  0  0  0  0  0  0  0  0  0  0  0
   30.9090   46.9490   -5.0340 N   0  0  0  0  0  0  0  0  0  0  0  0
   30.0210   47.0180   -5.9720 C   0  0  0  0  0  0  0  0  0  0  0  0
   29.9620   46.1590   -7.0150 O   0  0  0  0  0  0  0  0  0  0  0  0
   28.9470   48.0470   -6.0430 C   0  0  0  0  0  0  0  0  0  0  0  0
   28.9010   48.9720   -7.0880 C   0  0  0  0  0  0  0  0  0  0  0  0
   28.0450   47.9960   -5.0160 N   0  0  0  0  0  0  0  0  0  0  0  0
   29.7960   49.0250   -8.1180 O   0  0  0  0  0  0  0  0  0  0  0  0
   27.8720   49.9070   -7.0830 C   0  0  0  0  0  0  0  0  0  0  0  0
   27.0620   48.9260   -5.0540 C   0  0  0  0  0  0  0  0  0  0  0  0
   26.9350   49.8880   -6.0510 C   0  0  0  0  0  0  0  0  0  0  0  0
  1  2  1  0
  2  3  2  0
  2  4  1  0
  4  5  2  0
  3  6  1  0
  5  7  1  0
  5  8  1  0
  6  8  2  0
  8  9  1  0
  9 10  2  0
  9 11  1  0
 11 12  1  0
 12 13  1  0
 13 14  2  3
 14 15  1  0
 14 16  1  0
 16 17  2  0
 16 18  1  0
 17 19  1  0
 17 20  1  0
 18 21  2  0
 20 22  2  0
 21 22  1  0
M  END
