mac-x0159-mac-x0226
     RDKit          3D

 32 36  0  0  0  0  0  0  0  0999 V2000
   28.2810   51.7710   -6.2060 N   0  0  0  0  0  0  0  0  0  0  0  0
   28.4680   50.3850   -5.8160 C   0  0  1  0  0  0  0  0  0  0  0  0
   29.1970   49.4860   -6.8520 C   0  0  1  0  0  0  0  0  0  0  0  0
   29.1380   50.4760   -4.5450 N   0  0  0  0  0  0  0  0  0  0  0  0
   30.0550   49.3870   -4.2240 C   0  0  0  0  0  0  0  0  0  0  0  0
   29.5610   48.1250   -6.2460 C   0  0  1  0  0  0  0  0  0  0  0  0
   28.4130   49.1670   -8.0720 N   0  0  0  0  0  0  0  0  0  0  0  0
   29.6770   48.1000   -4.7830 N   0  0  0  0  0  0  0  0  0  0  0  0
   28.5310   47.2320   -6.7890 N   0  0  0  0  0  0  0  0  0  0  0  0
   28.3000   47.7220   -8.1390 C   0  0  0  0  0  0  0  0  0  0  0  0
   30.5260   46.9790   -4.2700 C   0  0  2  0  0  0  0  0  0  0  0  0
   31.2120   46.0860   -5.3500 C   0  0  0  0  0  0  0  0  0  0  0  0
   29.6820   46.0690   -3.3820 C   0  0  0  0  0  0  0  0  0  0  0  0
   32.2970   46.7690   -6.0240 O   0  0  0  0  0  0  0  0  0  0  0  0
   29.2210   44.8070   -3.7150 C   0  0  0  0  0  0  0  0  0  0  0  0
   29.3120   46.4940   -2.1050 N   0  0  0  0  0  0  0  0  0  0  0  0
   33.3970   46.0080   -6.3160 C   0  0  0  0  0  0  0  0  0  0  0  0
   28.5960   45.5730   -1.5080 C   0  0  0  0  0  0  0  0  0  0  0  0
   28.3160   44.1440   -2.4220 S   0  0  0  0  0  0  0  0  0  0  0  0
   28.0370   45.7040   -0.1340 C   0  0  0  0  0  0  0  0  0  0  0  0
   33.9740   46.0120   -7.3980 O   0  0  0  0  0  0  0  0  0  0  0  0
   33.8200   45.1920   -5.1980 C   0  0  0  0  0  0  0  0  0  0  0  0
   33.4450   43.8800   -4.8410 C   0  0  0  0  0  0  0  0  0  0  0  0
   34.7140   45.5530   -4.2120 C   0  0  0  0  0  0  0  0  0  0  0  0
   34.0500   43.4520   -3.7330 N   0  0  0  0  0  0  0  0  0  0  0  0
   34.8350   44.4920   -3.3460 N   0  0  0  0  0  0  0  0  0  0  0  0
   35.6470   44.4120   -2.1850 C   0  0  0  0  0  0  0  0  0  0  0  0
   36.4430   45.4930   -1.7820 C   0  0  0  0  0  0  0  0  0  0  0  0
   35.6530   43.2290   -1.4250 C   0  0  0  0  0  0  0  0  0  0  0  0
   37.2320   45.3890   -0.6360 C   0  0  0  0  0  0  0  0  0  0  0  0
   36.4500   43.1390   -0.2800 C   0  0  0  0  0  0  0  0  0  0  0  0
   37.2380   44.2190    0.1140 C   0  0  0  0  0  0  0  0  0  0  0  0
  2  1  1  6
  2  3  1  0
  2  4  1  0
  4  5  1  0
  3  6  1  0
  3  7  1  6
  5  8  1  0
  6  8  1  0
  6  9  1  1
  7 10  1  0
  9 10  1  0
  8 11  1  0
 11 12  1  6
 11 13  1  0
 12 14  1  0
 13 15  2  0
 13 16  1  0
 14 17  1  0
 16 18  2  0
 15 19  1  0
 18 19  1  0
 18 20  1  0
 17 21  2  0
 17 22  1  0
 22 23  1  0
 22 24  2  0
 23 25  2  0
 24 26  1  0
 25 26  1  0
 26 27  1  0
 27 28  2  0
 27 29  1  0
 28 30  1  0
 29 31  2  0
 30 32  2  0
 31 32  1  0
M  END
