mac-x0587-mac-x0360
     RDKit          3D

 26 27  0  0  0  0  0  0  0  0999 V2000
   29.7740   46.3850   -3.9420 C   0  0  0  0  0  0  0  0  0  0  0  0
   30.7160   47.3180   -4.7220 C   0  0  2  0  0  0  0  0  0  0  0  0
   32.4000   46.8960   -4.0480 S   0  0  0  0  0  0  0  0  0  0  0  0
   30.3640   48.8520   -4.5280 C   0  0  1  0  0  0  0  0  0  0  0  0
   33.3730   46.9730   -5.5880 C   0  0  0  0  0  0  0  0  0  0  0  0
   31.1860   49.3390   -3.4420 O   0  0  0  0  0  0  0  0  0  0  0  0
   30.5880   49.7760   -6.2460 S   0  0  0  0  0  0  0  0  0  0  0  0
   28.9650   49.0470   -4.1220 N   0  0  0  0  0  0  0  0  0  0  0  0
   33.5840   45.5950   -6.1740 C   0  0  0  0  0  0  0  0  0  0  0  0
   31.2290   48.9240   -7.2230 O   0  0  0  0  0  0  0  0  0  0  0  0
   29.3240   50.3810   -6.6410 O   0  0  0  0  0  0  0  0  0  0  0  0
   28.5490   50.3000   -3.5110 C   0  0  0  0  0  0  0  0  0  0  0  0
   27.9850   48.7440   -5.0820 C   0  0  0  0  0  0  0  0  0  0  0  0
   31.7250   51.1210   -5.9750 C   0  0  0  0  0  0  0  0  0  0  0  0
   34.6600   45.1020   -6.4710 O   0  0  0  0  0  0  0  0  0  0  0  0
   32.4400   44.9010   -6.3570 O   0  0  0  0  0  0  0  0  0  0  0  0
   27.6590   47.6520   -5.5170 O   0  0  0  0  0  0  0  0  0  0  0  0
   27.8430   51.0230   -4.6490 C   0  0  0  0  0  0  0  0  0  0  0  0
   27.4120   49.9390   -5.4790 N   0  0  0  0  0  0  0  0  0  0  0  0
   33.0050   50.8480   -5.4880 C   0  0  0  0  0  0  0  0  0  0  0  0
   31.3280   52.4330   -6.2570 C   0  0  0  0  0  0  0  0  0  0  0  0
   33.8910   51.9050   -5.2870 C   0  0  0  0  0  0  0  0  0  0  0  0
   32.2290   53.4760   -6.0490 C   0  0  0  0  0  0  0  0  0  0  0  0
   31.7570   55.0940   -6.3940 Cl  0  0  0  0  0  0  0  0  0  0  0  0
   35.4750   51.5910   -4.6920 Cl  0  0  0  0  0  0  0  0  0  0  0  0
   33.5120   53.2190   -5.5640 C   0  0  0  0  0  0  0  0  0  0  0  0
  2  1  1  1
  2  3  1  0
  2  4  1  0
  3  5  1  0
  4  6  1  1
  4  7  1  0
  4  8  1  0
  5  9  1  0
  7 10  2  0
  7 11  2  0
  8 12  1  0
  8 13  1  0
  7 14  1  0
  9 15  2  0
  9 16  1  0
 13 17  2  0
 12 18  1  0
 13 19  1  0
 18 19  1  0
 14 20  2  0
 14 21  1  0
 20 22  1  0
 21 23  2  0
 23 24  1  0
 22 25  1  0
 22 26  2  0
 23 26  1  0
M  END
