mac-x0213-mac-x0379
     RDKit          3D

 20 22  0  0  0  0  0  0  0  0999 V2000
   32.9520   45.1520   -5.5740 O   0  0  0  0  0  0  0  0  0  0  0  0
   31.6920   45.1100   -6.0420 C   0  0  0  0  0  0  0  0  0  0  0  0
   31.4750   44.9370   -7.2380 O   0  0  0  0  0  0  0  0  0  0  0  0
   30.5740   45.2790   -5.0250 C   0  0  2  0  0  0  0  0  0  0  0  0
   29.9700   46.6720   -4.6540 C   0  0  1  0  0  0  0  0  0  0  0  0
   30.9860   44.6190   -3.6910 C   0  0  0  0  0  0  0  0  0  0  0  0
   29.4040   46.3600   -3.2840 C   0  0  0  0  0  0  0  0  0  0  0  0
   29.9800   45.2030   -2.7530 C   0  0  0  0  0  0  0  0  0  0  0  0
   30.9680   47.8460   -4.6320 C   0  0  1  0  0  0  0  0  0  0  0  0
   28.4450   47.0610   -2.5700 C   0  0  0  0  0  0  0  0  0  0  0  0
   29.6110   44.7240   -1.5060 C   0  0  0  0  0  0  0  0  0  0  0  0
   31.5380   47.9600   -5.9430 O   0  0  0  0  0  0  0  0  0  0  0  0
   30.3540   49.1830   -4.3420 C   0  0  0  0  0  0  0  0  0  0  0  0
   28.0660   46.5880   -1.3130 C   0  0  0  0  0  0  0  0  0  0  0  0
   28.6450   45.4260   -0.7840 C   0  0  0  0  0  0  0  0  0  0  0  0
   30.3430   49.8850   -3.1500 C   0  0  0  0  0  0  0  0  0  0  0  0
   29.5190   50.0950   -5.5360 S   0  0  0  0  0  0  0  0  0  0  0  0
   29.2220   51.3310   -4.3810 C   0  0  0  0  0  0  0  0  0  0  0  0
   29.6990   51.1060   -3.1780 N   0  0  0  0  0  0  0  0  0  0  0  0
   28.4710   52.5510   -4.7770 C   0  0  0  0  0  0  0  0  0  0  0  0
  1  2  1  0
  2  3  2  0
  4  2  1  6
  4  5  1  0
  4  6  1  0
  5  7  1  1
  6  8  1  0
  7  8  2  0
  5  9  1  0
  7 10  1  0
  8 11  1  0
  9 12  1  6
  9 13  1  0
 10 14  2  0
 11 15  2  0
 14 15  1  0
 13 16  2  0
 13 17  1  0
 17 18  1  0
 16 19  1  0
 18 19  2  0
 18 20  1  0
M  END
