mac-x0455-mac-x0404
     RDKit          3D

 26 28  0  0  0  0  0  0  0  0999 V2000
   31.4490   49.1040   -6.1320 C   0  0  0  0  0  0  0  0  0  0  0  0
   31.3130   47.9620   -5.1210 C   0  0  1  0  0  0  0  0  0  0  0  0
   30.2220   48.3580   -4.2660 O   0  0  0  0  0  0  0  0  0  0  0  0
   30.9020   46.6930   -5.9190 C   0  0  0  0  0  0  0  0  0  0  0  0
   32.5360   47.7440   -4.2220 C   0  0  0  0  0  0  0  0  0  0  0  0
   29.7230   46.4550   -6.1690 O   0  0  0  0  0  0  0  0  0  0  0  0
   31.9900   45.9600   -6.2670 O   0  0  0  0  0  0  0  0  0  0  0  0
   32.6240   48.2830   -2.9290 C   0  0  0  0  0  0  0  0  0  0  0  0
   33.6300   46.9830   -4.6850 C   0  0  0  0  0  0  0  0  0  0  0  0
   31.9370   44.6100   -6.1310 C   0  0  0  0  0  0  0  0  0  0  0  0
   33.7550   48.0690   -2.1320 C   0  0  0  0  0  0  0  0  0  0  0  0
   34.7580   46.7700   -3.8890 C   0  0  0  0  0  0  0  0  0  0  0  0
   31.6330   43.7840   -6.9800 O   0  0  0  0  0  0  0  0  0  0  0  0
   32.3390   44.1980   -4.7110 C   0  0  0  0  0  0  0  0  0  0  0  0
   34.8200   47.3140   -2.6120 C   0  0  0  0  0  0  0  0  0  0  0  0
   31.3020   43.9830   -3.7590 O   0  0  0  0  0  0  0  0  0  0  0  0
   31.2400   44.8120   -2.6600 C   0  0  0  0  0  0  0  0  0  0  0  0
   29.9440   45.0380   -2.1220 C   0  0  0  0  0  0  0  0  0  0  0  0
   32.3540   45.4200   -2.0730 C   0  0  0  0  0  0  0  0  0  0  0  0
   29.8050   45.8820   -0.9940 C   0  0  0  0  0  0  0  0  0  0  0  0
   32.2030   46.2490   -0.9630 C   0  0  0  0  0  0  0  0  0  0  0  0
   28.7780   44.4550   -2.6620 C   0  0  0  0  0  0  0  0  0  0  0  0
   30.9370   46.4780   -0.4280 C   0  0  0  0  0  0  0  0  0  0  0  0
   28.5310   46.1160   -0.4490 C   0  0  0  0  0  0  0  0  0  0  0  0
   27.5190   44.6940   -2.1100 C   0  0  0  0  0  0  0  0  0  0  0  0
   27.3950   45.5250   -1.0040 C   0  0  0  0  0  0  0  0  0  0  0  0
  2  1  1  6
  2  3  1  0
  2  4  1  0
  2  5  1  0
  4  6  2  0
  4  7  1  0
  5  8  2  0
  5  9  1  0
  7 10  1  0
  8 11  1  0
  9 12  2  0
 10 13  2  0
 10 14  1  0
 11 15  2  0
 12 15  1  0
 14 16  1  0
 16 17  1  0
 17 18  1  0
 17 19  2  0
 18 20  2  0
 19 21  1  0
 18 22  1  0
 20 23  1  0
 21 23  2  0
 20 24  1  0
 22 25  2  0
 24 26  2  0
 25 26  1  0
M  END
