mac-x0522-mac-x0584
     RDKit          3D

 35 40  0  0  0  0  0  0  0  0999 V2000
   38.4060   42.2280   -0.4340 O   0  0  0  0  0  0  0  0  0  0  0  0
   38.7780   41.1170   -0.7890 C   0  0  0  0  0  0  0  0  0  0  0  0
   39.4480   40.7870   -1.9460 N   0  0  0  0  0  0  0  0  0  0  0  0
   38.4850   39.9620    0.1130 C   0  0  0  0  0  0  0  0  0  0  0  0
   39.4880   41.6120   -3.0380 C   0  0  0  0  0  0  0  0  0  0  0  0
   39.2470   38.7940   -0.0230 C   0  0  0  0  0  0  0  0  0  0  0  0
   37.4750   40.0250    1.0820 C   0  0  0  0  0  0  0  0  0  0  0  0
   40.3360   41.7620   -3.9460 N   0  0  0  0  0  0  0  0  0  0  0  0
   38.1720   42.6230   -3.2280 S   0  0  0  0  0  0  0  0  0  0  0  0
   38.9970   37.6960    0.8080 C   0  0  0  0  0  0  0  0  0  0  0  0
   37.2290   38.9240    1.9110 C   0  0  0  0  0  0  0  0  0  0  0  0
   38.6470   43.4590   -4.7010 C   0  0  0  0  0  0  0  0  0  0  0  0
   39.8760   42.7360   -4.8080 C   0  0  0  0  0  0  0  0  0  0  0  0
   37.9910   37.7640    1.7700 C   0  0  0  0  0  0  0  0  0  0  0  0
   37.3250   44.1090   -4.4210 C   0  0  0  0  0  0  0  0  0  0  0  0
   36.3820   44.1120   -5.6310 C   0  0  0  0  0  0  0  0  0  0  0  0
   34.9030   43.9900   -5.2490 C   0  0  0  0  0  0  0  0  0  0  0  0
   34.0240   45.1550   -5.7190 C   0  0  1  0  0  0  0  0  0  0  0  0
   32.4990   45.1330   -5.4430 C   0  0  0  0  0  0  0  0  0  0  0  0
   34.0650   46.5150   -4.9800 C   0  0  0  0  0  0  0  0  0  0  0  0
   32.7380   46.1290   -4.2730 C   0  0  1  0  0  0  0  0  0  0  0  0
   31.7160   47.2510   -4.0430 C   0  0  2  0  0  0  0  0  0  0  0  0
   31.4360   47.4080   -2.5330 C   0  0  0  0  0  0  0  0  0  0  0  0
   30.4050   46.9300   -4.6450 N   0  0  0  0  0  0  0  0  0  0  0  0
   29.5980   46.3130   -3.5960 C   0  0  0  0  0  0  0  0  0  0  0  0
   29.9640   47.0840   -2.3410 C   0  0  0  0  0  0  0  0  0  0  0  0
   29.8430   47.6160   -5.7340 C   0  0  0  0  0  0  0  0  0  0  0  0
   29.5540   46.9500   -6.9160 N   0  0  0  0  0  0  0  0  0  0  0  0
   29.5370   48.9320   -5.7560 C   0  0  0  0  0  0  0  0  0  0  0  0
   29.0070   47.5610   -8.0080 C   0  0  0  0  0  0  0  0  0  0  0  0
   28.9410   49.5390   -6.9830 C   0  0  0  0  0  0  0  0  0  0  0  0
   29.6130   50.0590   -4.8720 C   0  0  0  0  0  0  0  0  0  0  0  0
   28.6870   48.8060   -8.1060 N   0  0  0  0  0  0  0  0  0  0  0  0
   28.6990   50.8150   -6.8520 N   0  0  0  0  0  0  0  0  0  0  0  0
   29.1180   51.1010   -5.5610 C   0  0  0  0  0  0  0  0  0  0  0  0
  1  2  2  0
  2  3  1  0
  2  4  1  0
  3  5  1  0
  4  6  2  0
  4  7  1  0
  5  8  2  0
  5  9  1  0
  6 10  1  0
  7 11  2  0
  9 12  1  0
  8 13  1  0
 12 13  2  0
 10 14  2  0
 11 14  1  0
 12 15  1  0
 15 16  1  0
 16 17  1  0
 18 17  1  1
 18 19  1  0
 18 20  1  0
 21 19  1  6
 20 21  1  0
 21 22  1  0
 22 23  1  1
 22 24  1  0
 24 25  1  0
 23 26  1  0
 25 26  1  0
 24 27  1  0
 27 28  1  0
 27 29  2  0
 28 30  1  0
 29 31  1  0
 29 32  1  0
 30 33  2  0
 31 33  1  0
 31 34  2  0
 32 35  2  0
 34 35  1  0
M  END
