mac-x0301-mac-x0415
     RDKit          3D

 26 29  0  0  0  0  0  0  0  0999 V2000
   27.6610   45.8650   -5.1280 O   0  0  0  0  0  0  0  0  0  0  0  0
   28.6110   46.6190   -4.3750 C   0  0  0  0  0  0  0  0  0  0  0  0
   28.8070   47.9720   -4.9890 C   0  0  0  0  0  0  0  0  0  0  0  0
   29.2170   48.1660   -6.3070 C   0  0  0  0  0  0  0  0  0  0  0  0
   28.5680   49.1220   -4.2040 C   0  0  0  0  0  0  0  0  0  0  0  0
   29.3690   49.4610   -6.7930 C   0  0  0  0  0  0  0  0  0  0  0  0
   28.7300   50.4160   -4.7190 C   0  0  0  0  0  0  0  0  0  0  0  0
   29.5250   47.2040   -7.3010 N   0  0  0  0  0  0  0  0  0  0  0  0
   29.1370   50.5930   -6.0370 C   0  0  0  0  0  0  0  0  0  0  0  0
   29.7750   49.4870   -8.0990 O   0  0  0  0  0  0  0  0  0  0  0  0
   29.8690   48.0850   -8.4360 C   0  0  0  0  0  0  0  0  0  0  0  0
   30.6130   46.2830   -6.9300 C   0  0  0  0  0  0  0  0  0  0  0  0
   31.7900   46.9000   -6.3160 N   0  0  0  0  0  0  0  0  0  0  0  0
   32.4920   46.1920   -5.5060 C   0  0  0  0  0  0  0  0  0  0  0  0
   33.5900   46.6620   -4.8930 O   0  0  0  0  0  0  0  0  0  0  0  0
   32.1470   44.7590   -5.1830 C   0  0  0  0  0  0  0  0  0  0  0  0
   31.3300   44.6650   -3.9490 C   0  0  0  0  0  0  0  0  0  0  0  0
   30.4400   43.5230   -3.6580 C   0  0  0  0  0  0  0  0  0  0  0  0
   31.1210   45.4200   -2.8640 C   0  0  0  0  0  0  0  0  0  0  0  0
   29.7510   43.5200   -2.5510 N   0  0  0  0  0  0  0  0  0  0  0  0
   30.1670   44.7750   -1.9060 C   0  0  2  0  0  0  0  0  0  0  0  0
   31.6310   46.7040   -2.4590 C   0  0  0  0  0  0  0  0  0  0  0  0
   29.0890   45.7490   -1.5570 C   0  0  0  0  0  0  0  0  0  0  0  0
   30.7750   47.5110   -1.7840 C   0  0  0  0  0  0  0  0  0  0  0  0
   31.2700   49.2070   -1.1760 Br  0  0  0  0  0  0  0  0  0  0  0  0
   29.4030   47.0610   -1.5020 C   0  0  0  0  0  0  0  0  0  0  0  0
  1  2  1  0
  2  3  1  0
  3  4  2  0
  3  5  1  0
  4  6  1  0
  5  7  2  0
  4  8  1  0
  6  9  2  0
  7  9  1  0
  6 10  1  0
  8 11  1  0
 10 11  1  0
  8 12  1  0
 12 13  1  0
 13 14  2  3
 14 15  1  0
 14 16  1  0
 16 17  1  0
 17 18  1  0
 17 19  2  0
 18 20  2  0
 19 21  1  0
 20 21  1  0
 19 22  1  0
 21 23  1  6
 22 24  2  0
 24 25  1  0
 23 26  2  0
 24 26  1  0
M  END
