mac-x0411-mac-x0375
     RDKit          3D

 13 13  0  0  0  0  0  0  0  0999 V2000
   37.3580   44.0560   -3.3520 Cl  0  0  0  0  0  0  0  0  0  0  0  0
   36.5640   45.5860   -3.2340 C   0  0  0  0  0  0  0  0  0  0  0  0
   35.1670   45.7090   -3.2940 C   0  0  0  0  0  0  0  0  0  0  0  0
   37.3760   46.7130   -3.0740 C   0  0  0  0  0  0  0  0  0  0  0  0
   34.3560   44.6050   -3.4480 O   0  0  0  0  0  0  0  0  0  0  0  0
   34.6050   47.0030   -3.1880 C   0  0  0  0  0  0  0  0  0  0  0  0
   36.8100   47.9810   -2.9690 C   0  0  0  0  0  0  0  0  0  0  0  0
   32.8990   47.2900   -3.2420 Cl  0  0  0  0  0  0  0  0  0  0  0  0
   33.2260   44.6900   -4.3160 C   0  0  0  0  0  0  0  0  0  0  0  0
   35.4250   48.1250   -3.0270 C   0  0  0  0  0  0  0  0  0  0  0  0
   33.3130   45.1290   -5.7850 C   0  0  0  0  0  0  0  0  0  0  0  0
   32.0950   45.1580   -6.3730 O   0  0  0  0  0  0  0  0  0  0  0  0
   34.2980   45.4300   -6.4350 O   0  0  0  0  0  0  0  0  0  0  0  0
  1  2  1  0
  2  3  2  0
  2  4  1  0
  3  5  1  0
  3  6  1  0
  4  7  2  0
  6  8  1  0
  5  9  1  0
  6 10  2  0
  7 10  1  0
  9 11  1  0
 11 12  1  0
 11 13  2  0
M  END
