mac-x0226-mac-x0305
     RDKit          3D

 23 25  0  0  0  0  0  0  0  0999 V2000
   31.8700   47.1200   -5.5140 O   0  0  0  0  0  0  0  0  0  0  0  0
   32.8320   46.2800   -5.9830 C   0  0  0  0  0  0  0  0  0  0  0  0
   33.2310   46.1660   -7.1330 O   0  0  0  0  0  0  0  0  0  0  0  0
   30.6390   47.1040   -6.0860 C   0  0  0  0  0  0  0  0  0  0  0  0
   30.1270   46.2020   -6.7290 O   0  0  0  0  0  0  0  0  0  0  0  0
   33.3880   45.4640   -4.9160 C   0  0  0  0  0  0  0  0  0  0  0  0
   29.9830   48.4270   -5.7870 C   0  0  0  0  0  0  0  0  0  0  0  0
   32.9480   44.2040   -4.4710 C   0  0  0  0  0  0  0  0  0  0  0  0
   34.4700   45.7410   -4.1010 C   0  0  0  0  0  0  0  0  0  0  0  0
   29.2400   49.1120   -6.7560 C   0  0  0  0  0  0  0  0  0  0  0  0
   30.1530   48.9170   -4.5180 N   0  0  0  0  0  0  0  0  0  0  0  0
   29.0620   48.6320   -8.0190 O   0  0  0  0  0  0  0  0  0  0  0  0
   33.6850   43.7230   -3.4650 N   0  0  0  0  0  0  0  0  0  0  0  0
   34.6270   44.6780   -3.2380 N   0  0  0  0  0  0  0  0  0  0  0  0
   28.6590   50.3330   -6.4130 C   0  0  0  0  0  0  0  0  0  0  0  0
   29.5740   50.1030   -4.2240 C   0  0  0  0  0  0  0  0  0  0  0  0
   35.6080   44.5090   -2.2180 C   0  0  0  0  0  0  0  0  0  0  0  0
   28.8260   50.8390   -5.1270 C   0  0  0  0  0  0  0  0  0  0  0  0
   36.4780   45.5730   -1.9140 C   0  0  0  0  0  0  0  0  0  0  0  0
   35.7270   43.3060   -1.5110 C   0  0  0  0  0  0  0  0  0  0  0  0
   37.4460   45.4280   -0.9180 C   0  0  0  0  0  0  0  0  0  0  0  0
   36.7010   43.1680   -0.5170 C   0  0  0  0  0  0  0  0  0  0  0  0
   37.5570   44.2280   -0.2220 C   0  0  0  0  0  0  0  0  0  0  0  0
  1  2  1  0
  2  3  2  0
  1  4  1  0
  4  5  2  0
  2  6  1  0
  4  7  1  0
  6  8  1  0
  6  9  2  0
  7 10  2  0
  7 11  1  0
 10 12  1  0
  8 13  2  0
  9 14  1  0
 13 14  1  0
 10 15  1  0
 11 16  2  0
 14 17  1  0
 15 18  2  0
 16 18  1  0
 17 19  2  0
 17 20  1  0
 19 21  1  0
 20 22  2  0
 21 23  2  0
 22 23  1  0
M  END
