mac-x0439-mac-x0142
     RDKit          3D

 30 35  0  0  0  0  0  0  0  0999 V2000
   27.7160   46.6190   -1.9190 Cl  0  0  0  0  0  0  0  0  0  0  0  0
   27.7570   44.9000   -1.8150 C   0  0  0  0  0  0  0  0  0  0  0  0
   27.8150   44.0970   -3.0740 C   0  0  1  0  0  0  0  0  0  0  0  0
   27.7310   44.2720   -0.6210 C   0  0  0  0  0  0  0  0  0  0  0  0
   28.6480   44.5000   -4.2410 C   0  0  0  0  0  0  0  0  0  0  0  0
   28.6220   42.8540   -2.7410 C   0  0  0  0  0  0  0  0  0  0  0  0
   27.7650   42.8190   -0.5460 C   0  0  0  0  0  0  0  0  0  0  0  0
   29.6380   43.6110   -4.4390 C   0  0  0  0  0  0  0  0  0  0  0  0
   29.6330   42.5790   -3.5090 N   0  0  0  0  0  0  0  0  0  0  0  0
   28.1990   42.0660   -1.5720 C   0  0  0  0  0  0  0  0  0  0  0  0
   30.7080   43.6290   -5.5250 C   0  0  0  0  0  0  0  0  0  0  0  0
   30.1330   44.1300   -6.7200 O   0  0  0  0  0  0  0  0  0  0  0  0
   31.0710   42.2890   -5.8060 O   0  0  0  0  0  0  0  0  0  0  0  0
   31.9650   44.3740   -5.1450 C   0  0  2  0  0  0  0  0  0  0  0  0
   32.1640   45.0320   -3.7970 C   0  0  0  0  0  0  0  0  0  0  0  0
   32.1510   45.8980   -5.0470 C   0  0  1  0  0  0  0  0  0  0  0  0
   33.4590   46.4140   -5.6030 C   0  0  0  0  0  0  0  0  0  0  0  0
   31.0130   46.8890   -5.1890 C   0  0  0  0  0  0  0  0  0  0  0  0
   33.8380   47.7490   -4.9710 C   0  0  0  0  0  0  0  0  0  0  0  0
   31.5310   48.1580   -5.7430 N   0  0  0  0  0  0  0  0  0  0  0  0
   32.6560   48.7120   -4.9740 C   0  0  0  0  0  0  0  0  0  0  0  0
   30.6880   49.0200   -6.4630 C   0  0  0  0  0  0  0  0  0  0  0  0
   30.5610   48.9340   -7.8360 N   0  0  0  0  0  0  0  0  0  0  0  0
   29.9500   49.9840   -5.8840 C   0  0  0  0  0  0  0  0  0  0  0  0
   29.7450   49.7680   -8.5520 C   0  0  0  0  0  0  0  0  0  0  0  0
   29.0820   50.8560   -6.7180 C   0  0  0  0  0  0  0  0  0  0  0  0
   29.7270   50.4760   -4.5630 C   0  0  0  0  0  0  0  0  0  0  0  0
   29.0060   50.7140   -8.0730 N   0  0  0  0  0  0  0  0  0  0  0  0
   28.4340   51.7390   -6.0040 N   0  0  0  0  0  0  0  0  0  0  0  0
   28.8470   51.4820   -4.7020 C   0  0  0  0  0  0  0  0  0  0  0  0
  1  2  1  0
  2  3  1  0
  2  4  2  0
  3  5  1  6
  3  6  1  0
  4  7  1  0
  5  8  2  0
  6  9  2  0
  8  9  1  0
  6 10  1  0
  7 10  2  0
  8 11  1  0
 11 12  1  0
 11 13  1  0
 14 11  1  1
 14 15  1  0
 14 16  1  0
 16 15  1  1
 16 17  1  0
 16 18  1  0
 17 19  1  0
 18 20  1  0
 19 21  1  0
 20 21  1  0
 20 22  1  0
 22 23  1  0
 22 24  2  0
 23 25  1  0
 24 26  1  0
 24 27  1  0
 25 28  2  0
 26 28  1  0
 26 29  2  0
 27 30  2  0
 29 30  1  0
M  END
