mac-x0212-mac-x0576
     RDKit          3D

 19 20  0  0  0  0  0  0  0  0999 V2000
   30.8110   53.8400   -6.5050 C   0  0  0  0  0  0  0  0  0  0  0  0
   29.2950   53.9300   -5.5810 S   0  0  0  0  0  0  0  0  0  0  0  0
   28.5090   55.0070   -6.1430 O   0  0  0  0  0  0  0  0  0  0  0  0
   29.6370   53.9160   -4.1750 O   0  0  0  0  0  0  0  0  0  0  0  0
   28.5470   52.4590   -6.0710 N   0  0  0  0  0  0  0  0  0  0  0  0
   29.1080   51.2460   -5.4920 C   0  0  0  0  0  0  0  0  0  0  0  0
   29.2500   50.0450   -6.2530 C   0  0  0  0  0  0  0  0  0  0  0  0
   29.5050   51.3040   -4.1460 C   0  0  0  0  0  0  0  0  0  0  0  0
   29.8040   48.9470   -5.5920 C   0  0  0  0  0  0  0  0  0  0  0  0
   30.0570   50.1840   -3.5310 C   0  0  0  0  0  0  0  0  0  0  0  0
   28.8720   49.9450   -7.5590 N   0  0  0  0  0  0  0  0  0  0  0  0
   30.2090   49.0070   -4.2590 C   0  0  0  0  0  0  0  0  0  0  0  0
   29.0500   48.7500   -8.1700 C   0  0  0  0  0  0  0  0  0  0  0  0
   29.9240   47.8010   -6.3420 C   0  0  0  0  0  0  0  0  0  0  0  0
   30.7970   47.7730   -3.6800 C   0  0  0  0  0  0  0  0  0  0  0  0
   28.6820   48.5980   -9.4830 N   0  0  0  0  0  0  0  0  0  0  0  0
   29.5600   47.6750   -7.6100 N   0  0  0  0  0  0  0  0  0  0  0  0
   31.1630   46.7910   -4.3050 O   0  0  0  0  0  0  0  0  0  0  0  0
   30.9100   47.8070   -2.3470 O   0  0  0  0  0  0  0  0  0  0  0  0
  1  2  1  0
  2  3  2  0
  2  4  2  0
  2  5  1  0
  5  6  1  0
  6  7  2  0
  6  8  1  0
  7  9  1  0
  8 10  2  0
  7 11  1  0
  9 12  2  0
 10 12  1  0
 11 13  2  0
  9 14  1  0
 12 15  1  0
 13 16  1  0
 13 17  1  0
 14 17  2  0
 15 18  2  0
 15 19  1  0
M  END
