mac-x0412-mac-x0302
     RDKit          3D

 17 18  0  0  0  0  0  0  0  0999 V2000
   29.3170   54.3220   -3.7130 O   0  0  0  0  0  0  0  0  0  0  0  0
   29.3480   53.7330   -4.7910 C   0  0  0  0  0  0  0  0  0  0  0  0
   28.8900   54.3370   -5.9540 N   0  0  0  0  0  0  0  0  0  0  0  0
   29.9180   52.2930   -4.9150 C   0  0  2  0  0  0  0  0  0  0  0  0
   29.1510   51.4970   -5.9540 C   0  0  0  0  0  0  0  0  0  0  0  0
   28.4880   53.5810   -6.9210 C   0  0  0  0  0  0  0  0  0  0  0  0
   30.0380   51.5530   -3.6030 C   0  0  0  0  0  0  0  0  0  0  0  0
   28.4600   52.1080   -6.9280 C   0  0  0  0  0  0  0  0  0  0  0  0
   29.2020   50.0480   -5.8440 C   0  0  0  0  0  0  0  0  0  0  0  0
   29.8710   50.2210   -3.5250 C   0  0  0  0  0  0  0  0  0  0  0  0
   29.5430   49.4080   -4.7020 C   0  0  0  0  0  0  0  0  0  0  0  0
   29.9840   49.5350   -2.3380 O   0  0  0  0  0  0  0  0  0  0  0  0
   29.5710   48.0110   -4.6390 N   0  0  0  0  0  0  0  0  0  0  0  0
   30.7290   47.1750   -4.2160 C   0  0  0  0  0  0  0  0  0  0  0  0
   30.9050   46.0240   -5.2080 C   0  0  0  0  0  0  0  0  0  0  0  0
   30.9370   44.8070   -4.6070 O   0  0  0  0  0  0  0  0  0  0  0  0
   31.0040   46.1690   -6.4170 O   0  0  0  0  0  0  0  0  0  0  0  0
  1  2  2  0
  2  3  1  0
  2  4  1  0
  4  5  1  0
  3  6  2  0
  4  7  1  1
  5  8  2  0
  6  8  1  0
  5  9  1  0
  7 10  2  0
  9 11  2  0
 10 11  1  0
 10 12  1  0
 11 13  1  0
 13 14  1  0
 14 15  1  0
 15 16  1  0
 15 17  2  0
M  END
