mac-x0472-mac-x0305
     RDKit          3D

 17 18  0  0  0  0  0  0  0  0999 V2000
   29.8580   50.1920   -3.6250 O   0  0  0  0  0  0  0  0  0  0  0  0
   30.8690   49.2690   -4.1310 S   0  0  0  0  0  0  0  0  0  0  0  0
   31.4070   48.2540   -3.2380 O   0  0  0  0  0  0  0  0  0  0  0  0
   30.2120   48.4430   -5.5890 N   0  0  1  0  0  0  0  0  0  0  0  0
   32.2390   50.2850   -4.6620 C   0  0  0  0  0  0  0  0  0  0  0  0
   31.2360   47.8360   -6.4160 O   0  0  0  0  0  0  0  0  0  0  0  0
   29.4780   47.3190   -5.2850 O   0  0  0  0  0  0  0  0  0  0  0  0
   29.4760   49.4730   -6.3950 C   0  0  0  0  0  0  0  0  0  0  0  0
   33.4230   49.6700   -5.0720 C   0  0  0  0  0  0  0  0  0  0  0  0
   32.1190   51.6790   -4.6650 C   0  0  0  0  0  0  0  0  0  0  0  0
   29.1210   49.2590   -7.6510 N   0  0  0  0  0  0  0  0  0  0  0  0
   29.0160   51.0400   -5.8210 S   0  0  0  0  0  0  0  0  0  0  0  0
   34.4960   50.4560   -5.4900 C   0  0  0  0  0  0  0  0  0  0  0  0
   33.1990   52.4580   -5.0850 C   0  0  0  0  0  0  0  0  0  0  0  0
   28.3440   51.3390   -7.3680 C   0  0  0  0  0  0  0  0  0  0  0  0
   28.4690   50.3420   -8.2160 N   0  0  0  0  0  0  0  0  0  0  0  0
   34.3850   51.8470   -5.4970 C   0  0  0  0  0  0  0  0  0  0  0  0
  1  2  2  0
  2  3  2  0
  2  4  1  0
  2  5  1  0
  4  6  1  6
  4  7  1  0
  4  8  1  0
  5  9  2  0
  5 10  1  0
  8 11  2  0
  8 12  1  0
  9 13  1  0
 10 14  2  0
 12 15  1  0
 11 16  1  0
 15 16  2  0
 13 17  2  0
 14 17  1  0
M  CHG  2   4   1   7  -1
M  END
