mac-x0193-mac-x0358
     RDKit          3D

 21 22  0  0  0  0  0  0  0  0999 V2000
   34.0500   45.7110   -6.7370 O   0  0  0  0  0  0  0  0  0  0  0  0
   33.1410   45.2530   -5.8430 C   0  0  0  0  0  0  0  0  0  0  0  0
   32.0200   44.9370   -6.2190 O   0  0  0  0  0  0  0  0  0  0  0  0
   33.7180   45.2110   -4.4160 C   0  0  2  0  0  0  0  0  0  0  0  0
   34.0640   43.8230   -4.0950 N   0  0  0  0  0  0  0  0  0  0  0  0
   32.8840   46.0170   -3.4160 C   0  0  0  0  0  0  0  0  0  0  0  0
   34.6020   43.4320   -2.8840 C   0  0  0  0  0  0  0  0  0  0  0  0
   33.4850   47.1720   -2.9210 C   0  0  0  0  0  0  0  0  0  0  0  0
   31.5810   45.7180   -2.9450 C   0  0  0  0  0  0  0  0  0  0  0  0
   33.9760   42.7470   -2.0990 O   0  0  0  0  0  0  0  0  0  0  0  0
   35.8980   43.8390   -2.6430 N   0  0  0  0  0  0  0  0  0  0  0  0
   34.7350   47.5530   -3.3130 O   0  0  0  0  0  0  0  0  0  0  0  0
   32.8590   48.0070   -2.0040 C   0  0  0  0  0  0  0  0  0  0  0  0
   30.9420   46.5610   -2.0160 C   0  0  0  0  0  0  0  0  0  0  0  0
   36.8090   42.9660   -1.8990 C   0  0  0  0  0  0  0  0  0  0  0  0
   31.5840   47.7060   -1.5460 C   0  0  0  0  0  0  0  0  0  0  0  0
   37.9820   42.5150   -2.7690 C   0  0  0  0  0  0  0  0  0  0  0  0
   37.3320   43.5950   -0.5950 C   0  0  0  0  0  0  0  0  0  0  0  0
   38.9100   41.5500   -2.0330 C   0  0  0  0  0  0  0  0  0  0  0  0
   38.2560   42.6380    0.1670 C   0  0  0  0  0  0  0  0  0  0  0  0
   39.4020   42.1290   -0.7080 C   0  0  0  0  0  0  0  0  0  0  0  0
  1  2  1  0
  2  3  2  0
  2  4  1  0
  4  5  1  1
  4  6  1  0
  5  7  1  0
  6  8  2  0
  6  9  1  0
  7 10  2  0
  7 11  1  0
  8 12  1  0
  8 13  1  0
  9 14  2  0
 11 15  1  0
 13 16  2  0
 14 16  1  0
 15 17  1  0
 15 18  1  0
 17 19  1  0
 18 20  1  0
 19 21  1  0
 20 21  1  0
M  END
