mac-x0357-mac-x0387
     RDKit          3D

 22 24  0  0  0  0  0  0  0  0999 V2000
   32.7020   43.0690   -4.1050 C   0  0  0  0  0  0  0  0  0  0  0  0
   33.1270   44.5140   -4.1430 C   0  0  0  0  0  0  0  0  0  0  0  0
   34.0490   45.0030   -3.2020 C   0  0  0  0  0  0  0  0  0  0  0  0
   32.6130   45.4040   -5.1160 C   0  0  0  0  0  0  0  0  0  0  0  0
   34.5520   44.1510   -2.2570 O   0  0  0  0  0  0  0  0  0  0  0  0
   31.6120   44.9640   -6.1700 C   0  0  2  0  0  0  0  0  0  0  0  0
   33.0430   46.7490   -5.1070 C   0  0  0  0  0  0  0  0  0  0  0  0
   34.4620   46.3360   -3.2080 C   0  0  0  0  0  0  0  0  0  0  0  0
   32.0290   45.4580   -7.4520 O   0  0  0  0  0  0  0  0  0  0  0  0
   33.9580   47.2100   -4.1630 C   0  0  0  0  0  0  0  0  0  0  0  0
   30.1740   45.4450   -5.8940 C   0  0  0  0  0  0  0  0  0  0  0  0
   30.0770   46.9200   -5.5460 C   0  0  0  0  0  0  0  0  0  0  0  0
   29.5230   47.8830   -6.4390 C   0  0  0  0  0  0  0  0  0  0  0  0
   30.5560   47.3270   -4.2890 C   0  0  0  0  0  0  0  0  0  0  0  0
   29.4660   49.2420   -6.0420 C   0  0  0  0  0  0  0  0  0  0  0  0
   29.0190   47.5590   -7.7130 C   0  0  0  0  0  0  0  0  0  0  0  0
   30.5000   48.6580   -3.9030 C   0  0  0  0  0  0  0  0  0  0  0  0
   28.9090   50.1760   -6.9500 C   0  0  0  0  0  0  0  0  0  0  0  0
   28.4960   48.5590   -8.5190 C   0  0  0  0  0  0  0  0  0  0  0  0
   29.9610   49.6060   -4.7720 C   0  0  0  0  0  0  0  0  0  0  0  0
   28.8130   51.5390   -6.6420 N   0  0  0  0  0  0  0  0  0  0  0  0
   28.4310   49.8530   -8.1640 N   0  0  0  0  0  0  0  0  0  0  0  0
  1  2  1  0
  2  3  2  0
  2  4  1  0
  3  5  1  0
  4  6  1  0
  4  7  2  0
  3  8  1  0
  6  9  1  6
  7 10  1  0
  8 10  2  0
  6 11  1  0
 11 12  1  0
 12 13  1  0
 12 14  2  0
 13 15  2  0
 13 16  1  0
 14 17  1  0
 15 18  1  0
 16 19  2  0
 15 20  1  0
 17 20  2  0
 18 21  1  0
 18 22  2  0
 19 22  1  0
M  END
