mac-x0163-mac-x0365
     RDKit          3D

 28 31  0  0  0  0  0  0  0  0999 V2000
   31.3270   50.6680   -6.9980 Cl  0  0  0  0  0  0  0  0  0  0  0  0
   30.4720   49.4190   -7.8450 C   0  0  0  0  0  0  0  0  0  0  0  0
   29.5700   49.8130   -8.8470 C   0  0  0  0  0  0  0  0  0  0  0  0
   30.6100   48.0460   -7.6110 C   0  0  0  0  0  0  0  0  0  0  0  0
   29.3600   51.1740   -9.1550 N   0  0  0  0  0  0  0  0  0  0  0  0
   29.8810   47.1720   -8.3500 N   0  0  0  0  0  0  0  0  0  0  0  0
   28.8550   48.9410   -9.5690 N   0  0  0  0  0  0  0  0  0  0  0  0
   31.4370   47.4410   -6.6740 N   0  0  0  0  0  0  0  0  0  0  0  0
   29.0480   47.6570   -9.2820 C   0  0  0  0  0  0  0  0  0  0  0  0
   32.7960   47.8690   -6.3820 C   0  0  0  0  0  0  0  0  0  0  0  0
   30.6950   46.8450   -5.5510 C   0  0  0  0  0  0  0  0  0  0  0  0
   33.3060   47.2840   -5.0490 C   0  0  0  0  0  0  0  0  0  0  0  0
   30.9110   47.6180   -4.2330 C   0  0  1  0  0  0  0  0  0  0  0  0
   30.0490   47.0620   -3.1700 N   0  0  0  0  0  0  0  0  0  0  0  0
   33.8020   45.8000   -5.1350 C   0  0  0  0  0  0  0  0  0  0  0  0
   34.8050   47.6510   -4.7900 C   0  0  0  0  0  0  0  0  0  0  0  0
   32.3840   47.5300   -3.8320 C   0  0  0  0  0  0  0  0  0  0  0  0
   29.2410   47.8630   -2.5780 C   0  0  0  0  0  0  0  0  0  0  0  0
   35.1990   46.3380   -5.4910 C   0  0  0  0  0  0  0  0  0  0  0  0
   28.4090   47.4660   -1.5970 O   0  0  0  0  0  0  0  0  0  0  0  0
   29.1510   49.3020   -2.9150 C   0  0  0  0  0  0  0  0  0  0  0  0
   29.7590   50.2730   -2.1150 C   0  0  0  0  0  0  0  0  0  0  0  0
   28.4380   49.6820   -4.0630 C   0  0  0  0  0  0  0  0  0  0  0  0
   29.6470   51.6150   -2.4720 C   0  0  0  0  0  0  0  0  0  0  0  0
   28.3320   51.0330   -4.4140 C   0  0  0  0  0  0  0  0  0  0  0  0
   30.2340   52.5400   -1.6980 F   0  0  0  0  0  0  0  0  0  0  0  0
   28.9400   51.9970   -3.6130 C   0  0  0  0  0  0  0  0  0  0  0  0
   28.8560   53.3240   -3.9250 O   0  0  0  0  0  0  0  0  0  0  0  0
  1  2  1  0
  2  3  2  0
  2  4  1  0
  3  5  1  0
  4  6  2  0
  3  7  1  0
  4  8  1  0
  6  9  1  0
  7  9  2  0
  8 10  1  0
  8 11  1  0
 12 10  1  0
 11 13  1  0
 13 14  1  1
 12 15  1  0
 12 16  1  0
 12 17  1  0
 13 17  1  0
 14 18  2  3
 15 19  1  0
 16 19  1  0
 18 20  1  0
 18 21  1  0
 21 22  2  0
 21 23  1  0
 22 24  1  0
 23 25  2  0
 24 26  1  0
 24 27  2  0
 25 27  1  0
 27 28  1  0
M  END
