mac-x0576-mac-x0365
     RDKit          3D

 16 17  0  0  0  0  0  0  0  0999 V2000
   29.0640   47.7210   -9.1860 N   0  0  0  0  0  0  0  0  0  0  0  0
   29.1910   48.4840   -8.0740 C   0  0  0  0  0  0  0  0  0  0  0  0
   28.9990   49.7620   -8.0900 N   0  0  0  0  0  0  0  0  0  0  0  0
   29.5270   47.7890   -6.9760 N   0  0  0  0  0  0  0  0  0  0  0  0
   29.6940   48.4210   -5.7650 C   0  0  0  0  0  0  0  0  0  0  0  0
   29.1510   50.4720   -6.9110 C   0  0  0  0  0  0  0  0  0  0  0  0
   30.0680   47.5390   -4.6420 C   0  0  0  0  0  0  0  0  0  0  0  0
   29.5300   49.7440   -5.6250 C   0  0  0  0  0  0  0  0  0  0  0  0
   28.9580   51.7500   -6.9830 N   0  0  0  0  0  0  0  0  0  0  0  0
   29.8530   46.2710   -5.0380 O   0  0  0  0  0  0  0  0  0  0  0  0
   30.5030   47.7830   -3.5360 O   0  0  0  0  0  0  0  0  0  0  0  0
   29.1180   52.4470   -5.8030 C   0  0  0  0  0  0  0  0  0  0  0  0
   29.6780   50.4440   -4.4450 N   0  0  0  0  0  0  0  0  0  0  0  0
   28.9720   53.6620   -5.7320 O   0  0  0  0  0  0  0  0  0  0  0  0
   29.4900   51.7270   -4.4960 C   0  0  0  0  0  0  0  0  0  0  0  0
   29.6410   52.4200   -3.3460 F   0  0  0  0  0  0  0  0  0  0  0  0
  1  2  1  0
  2  3  2  0
  2  4  1  0
  4  5  1  0
  3  6  1  0
  5  7  1  0
  5  8  2  0
  6  8  1  0
  6  9  2  0
  7 10  1  0
  7 11  2  0
  9 12  1  0
  8 13  1  0
 12 14  2  0
 12 15  1  0
 13 15  2  0
 15 16  1  0
M  END
