mac-x0206-mac-x0190
     RDKit          3D

 16 17  0  0  0  0  0  0  0  0999 V2000
   30.1150   49.6430   -6.1440 N   0  0  0  0  0  0  0  0  0  0  0  0
   30.2280   50.6700   -5.2440 C   0  0  0  0  0  0  0  0  0  0  0  0
   30.9200   50.5310   -4.2320 O   0  0  0  0  0  0  0  0  0  0  0  0
   29.4040   51.9560   -5.5210 C   0  0  1  0  0  0  0  0  0  0  0  0
   29.5930   53.0370   -4.3570 C   0  0  1  0  0  0  0  0  0  0  0  0
   29.4980   52.5290   -6.9180 C   0  0  0  0  0  0  0  0  0  0  0  0
   28.0910   51.2280   -5.5280 C   0  0  0  0  0  0  0  0  0  0  0  0
   30.9650   53.0820   -3.9200 O   0  0  0  0  0  0  0  0  0  0  0  0
   29.2510   54.4880   -4.8170 C   0  0  0  0  0  0  0  0  0  0  0  0
   29.3700   53.8360   -7.1680 C   0  0  0  0  0  0  0  0  0  0  0  0
   28.9390   52.4300   -3.1230 C   0  0  0  0  0  0  0  0  0  0  0  0
   27.4450   51.0020   -4.4100 C   0  0  0  0  0  0  0  0  0  0  0  0
   29.0280   55.6270   -3.8730 C   0  0  0  0  0  0  0  0  0  0  0  0
   29.1580   54.7890   -6.1230 C   0  0  0  0  0  0  0  0  0  0  0  0
   27.9760   51.4910   -3.1680 C   0  0  0  0  0  0  0  0  0  0  0  0
   28.7090   56.7620   -4.6860 O   0  0  0  0  0  0  0  0  0  0  0  0
  1  2  1  0
  2  3  2  0
  4  2  1  6
  4  5  1  0
  4  6  1  0
  4  7  1  0
  5  8  1  1
  5  9  1  0
  6 10  2  0
  5 11  1  0
  7 12  2  0
  9 13  1  0
  9 14  2  0
 10 14  1  0
 11 15  2  0
 12 15  1  0
 13 16  1  0
M  END
