mac-x0226-mac-x0455
     RDKit          3D

 19 21  0  0  0  0  0  0  0  0999 V2000
   31.7510   45.8800   -6.6060 O   0  0  0  0  0  0  0  0  0  0  0  0
   33.0690   46.1210   -6.3370 C   0  0  0  0  0  0  0  0  0  0  0  0
   33.8160   46.6610   -7.1420 O   0  0  0  0  0  0  0  0  0  0  0  0
   30.8050   45.8980   -5.6090 C   0  0  0  0  0  0  0  0  0  0  0  0
   31.2390   46.2840   -4.1650 C   0  0  1  0  0  0  0  0  0  0  0  0
   29.6360   45.6150   -5.8810 O   0  0  0  0  0  0  0  0  0  0  0  0
   33.5040   45.7210   -5.0430 C   0  0  0  0  0  0  0  0  0  0  0  0
   31.1620   47.8210   -4.1200 C   0  0  0  0  0  0  0  0  0  0  0  0
   30.3430   45.8360   -3.1440 O   0  0  0  0  0  0  0  0  0  0  0  0
   32.6470   45.7740   -3.9720 C   0  0  0  0  0  0  0  0  0  0  0  0
   34.6980   45.2590   -4.5440 C   0  0  0  0  0  0  0  0  0  0  0  0
   33.2220   45.3580   -2.8350 N   0  0  0  0  0  0  0  0  0  0  0  0
   34.5130   45.0570   -3.1940 N   0  0  0  0  0  0  0  0  0  0  0  0
   35.4720   44.6290   -2.2350 C   0  0  0  0  0  0  0  0  0  0  0  0
   36.4560   45.5530   -1.8570 C   0  0  0  0  0  0  0  0  0  0  0  0
   35.4690   43.3500   -1.6610 C   0  0  0  0  0  0  0  0  0  0  0  0
   37.4250   45.2110   -0.9170 C   0  0  0  0  0  0  0  0  0  0  0  0
   36.4480   43.0140   -0.7160 C   0  0  0  0  0  0  0  0  0  0  0  0
   37.4220   43.9460   -0.3460 C   0  0  0  0  0  0  0  0  0  0  0  0
  1  2  1  0
  2  3  2  0
  1  4  1  0
  4  5  1  0
  4  6  2  0
  2  7  1  0
  5  8  1  6
  5  9  1  0
  5 10  1  0
  7 10  1  0
  7 11  2  0
 10 12  2  0
 11 13  1  0
 12 13  1  0
 13 14  1  0
 14 15  2  0
 14 16  1  0
 15 17  1  0
 16 18  2  0
 17 19  2  0
 18 19  1  0
M  END
