mac-x0333-mac-x0357
     RDKit          3D

 23 25  0  0  0  0  0  0  0  0999 V2000
   30.0170   48.7820   -3.1890 O   0  0  0  0  0  0  0  0  0  0  0  0
   29.7460   49.8860   -3.9480 C   0  0  0  0  0  0  0  0  0  0  0  0
   29.2940   49.7650   -5.2690 C   0  0  0  0  0  0  0  0  0  0  0  0
   29.9400   51.1210   -3.3460 C   0  0  0  0  0  0  0  0  0  0  0  0
   29.1140   48.3900   -5.8450 C   0  0  0  0  0  0  0  0  0  0  0  0
   29.6710   52.2360   -4.0950 C   0  0  0  0  0  0  0  0  0  0  0  0
   29.0250   50.9300   -6.0150 C   0  0  0  0  0  0  0  0  0  0  0  0
   30.0340   47.3680   -5.1540 C   0  0  0  0  0  0  0  0  0  0  0  0
   29.2240   52.1540   -5.3960 C   0  0  0  0  0  0  0  0  0  0  0  0
   29.8030   53.5210   -3.6760 O   0  0  0  0  0  0  0  0  0  0  0  0
   30.6100   46.5470   -6.2060 N   0  0  0  0  0  0  0  0  0  0  0  0
   29.0230   53.3830   -5.9430 O   0  0  0  0  0  0  0  0  0  0  0  0
   29.5930   54.2210   -4.9160 C   0  0  0  0  0  0  0  0  0  0  0  0
   31.7290   45.9370   -6.0660 C   0  0  0  0  0  0  0  0  0  0  0  0
   32.1190   45.2350   -7.1310 O   0  0  0  0  0  0  0  0  0  0  0  0
   32.7490   45.7840   -5.0090 C   0  0  0  0  0  0  0  0  0  0  0  0
   33.0520   44.5020   -4.5070 C   0  0  0  0  0  0  0  0  0  0  0  0
   33.4110   46.9270   -4.5290 C   0  0  0  0  0  0  0  0  0  0  0  0
   32.3450   43.2780   -5.0170 C   0  0  0  0  0  0  0  0  0  0  0  0
   34.3880   46.7970   -3.5390 C   0  0  0  0  0  0  0  0  0  0  0  0
   34.0370   44.4040   -3.5170 C   0  0  0  0  0  0  0  0  0  0  0  0
   34.4150   43.2090   -2.9640 O   0  0  0  0  0  0  0  0  0  0  0  0
   34.7020   45.5320   -3.0350 C   0  0  0  0  0  0  0  0  0  0  0  0
  1  2  1  0
  2  3  2  0
  2  4  1  0
  3  5  1  0
  4  6  2  0
  3  7  1  0
  5  8  1  0
  6  9  1  0
  7  9  2  0
  6 10  1  0
  8 11  1  0
  9 12  1  0
 10 13  1  0
 12 13  1  0
 11 14  2  3
 14 15  1  0
 14 16  1  0
 16 17  2  0
 16 18  1  0
 17 19  1  0
 18 20  2  0
 17 21  1  0
 21 22  1  0
 20 23  1  0
 21 23  2  0
M  END
