mac-x0496-mac-x0139
     RDKit          3D

 34 37  0  0  0  0  0  0  0  0999 V2000
   24.6910   58.4880   -6.1640 C   0  0  0  0  0  0  0  0  0  0  0  0
   26.0040   58.1960   -5.5510 C   0  0  0  0  0  0  0  0  0  0  0  0
   26.3960   58.7550   -4.4050 N   0  0  0  0  0  0  0  0  0  0  0  0
   26.9080   57.3300   -6.1150 N   0  0  0  0  0  0  0  0  0  0  0  0
   27.6660   58.2080   -4.2010 O   0  0  0  0  0  0  0  0  0  0  0  0
   27.9030   57.3700   -5.2560 C   0  0  0  0  0  0  0  0  0  0  0  0
   29.2050   56.6550   -5.2660 C   0  0  0  0  0  0  0  0  0  0  0  0
   29.0380   55.2530   -5.6300 N   0  0  0  0  0  0  0  0  0  0  0  0
   29.1700   54.2550   -4.6770 C   0  0  0  0  0  0  0  0  0  0  0  0
   29.5700   54.4880   -3.5370 O   0  0  0  0  0  0  0  0  0  0  0  0
   28.7950   52.8510   -5.0470 C   0  0  0  0  0  0  0  0  0  0  0  0
   27.9450   52.6000   -6.1220 C   0  0  0  0  0  0  0  0  0  0  0  0
   29.3070   51.7600   -4.2940 C   0  0  0  0  0  0  0  0  0  0  0  0
   27.5930   51.2830   -6.4500 C   0  0  0  0  0  0  0  0  0  0  0  0
   28.9500   50.4300   -4.6350 C   0  0  0  0  0  0  0  0  0  0  0  0
   29.4910   49.2920   -3.8380 C   0  0  0  0  0  0  0  0  0  0  0  0
   28.0870   50.1990   -5.7130 C   0  0  0  0  0  0  0  0  0  0  0  0
   29.9370   48.0490   -4.0630 N   0  0  0  0  0  0  0  0  0  0  0  0
   29.5090   49.6860   -2.5500 O   0  0  0  0  0  0  0  0  0  0  0  0
   30.0530   47.3470   -5.3040 N   0  0  0  0  0  0  0  0  0  0  0  0
   30.4060   45.8740   -5.1990 C   0  0  0  0  0  0  0  0  0  0  0  0
   29.5170   47.7810   -6.5500 C   0  0  0  0  0  0  0  0  0  0  0  0
   31.9010   45.5310   -5.3280 C   0  0  0  0  0  0  0  0  0  0  0  0
   29.6000   49.0640   -6.9200 C   0  0  0  0  0  0  0  0  0  0  0  0
   28.9010   46.8420   -7.4020 N   0  0  0  0  0  0  0  0  0  0  0  0
   32.3760   45.1140   -6.6970 C   0  0  0  0  0  0  0  0  0  0  0  0
   29.0170   49.4680   -8.2100 C   0  0  0  0  0  0  0  0  0  0  0  0
   28.4240   47.2400   -8.5420 C   0  0  0  0  0  0  0  0  0  0  0  0
   30.1170   50.2760   -6.3990 C   0  0  0  0  0  0  0  0  0  0  0  0
   31.6740   44.7230   -7.6180 O   0  0  0  0  0  0  0  0  0  0  0  0
   33.7190   45.1990   -6.8580 O   0  0  0  0  0  0  0  0  0  0  0  0
   28.4610   48.5180   -8.9930 N   0  0  0  0  0  0  0  0  0  0  0  0
   29.1260   50.7530   -8.4150 N   0  0  0  0  0  0  0  0  0  0  0  0
   29.8030   51.2140   -7.2970 C   0  0  0  0  0  0  0  0  0  0  0  0
  1  2  1  0
  2  3  2  0
  2  4  1  0
  3  5  1  0
  4  6  2  0
  5  6  1  0
  6  7  1  0
  7  8  1  0
  8  9  1  0
  9 10  2  0
  9 11  1  0
 11 12  2  0
 11 13  1  0
 12 14  1  0
 13 15  2  0
 15 16  1  0
 14 17  2  0
 15 17  1  0
 16 18  2  3
 16 19  1  0
 18 20  1  0
 20 21  1  0
 20 22  1  0
 21 23  1  0
 22 24  2  0
 22 25  1  0
 23 26  1  0
 24 27  1  0
 25 28  2  0
 24 29  1  0
 26 30  2  0
 26 31  1  0
 27 32  1  0
 28 32  1  0
 27 33  2  0
 29 34  2  0
 33 34  1  0
M  END
