mac-x0303-mac-x0555
     RDKit          3D

 13 14  0  0  0  0  0  0  0  0999 V2000
   30.4690   56.3100   -6.7350 N   0  0  0  0  0  0  0  0  0  0  0  0
   29.1650   55.9970   -5.6960 S   0  0  0  0  0  0  0  0  0  0  0  0
   27.9840   56.2030   -6.4980 O   0  0  0  0  0  0  0  0  0  0  0  0
   29.4540   56.7390   -4.4950 O   0  0  0  0  0  0  0  0  0  0  0  0
   29.2320   54.2770   -5.3150 C   0  0  0  0  0  0  0  0  0  0  0  0
   29.5080   53.8170   -4.0540 N   0  0  0  0  0  0  0  0  0  0  0  0
   29.0340   53.2740   -6.1520 N   0  0  0  0  0  0  0  0  0  0  0  0
   29.4860   52.4470   -4.0820 C   0  0  0  0  0  0  0  0  0  0  0  0
   29.1860   52.1380   -5.4070 C   0  0  0  0  0  0  0  0  0  0  0  0
   29.6940   51.4760   -3.1010 C   0  0  0  0  0  0  0  0  0  0  0  0
   29.0850   50.7930   -5.7920 C   0  0  0  0  0  0  0  0  0  0  0  0
   29.5870   50.1400   -3.5080 C   0  0  0  0  0  0  0  0  0  0  0  0
   29.2890   49.8010   -4.8260 C   0  0  0  0  0  0  0  0  0  0  0  0
  2  1  1  0
  2  3  2  0
  2  4  2  0
  2  5  1  0
  5  6  1  0
  5  7  2  0
  6  8  1  0
  7  9  1  0
  8  9  2  0
  8 10  1  0
  9 11  1  0
 10 12  2  0
 11 13  2  0
 12 13  1  0
M  END
