mac-x0582-mac-x0590
     RDKit          3D

 26 30  0  0  0  0  0  0  0  0999 V2000
    6.4890   46.6950   14.1070 C   0  0  0  0  0  0  0  0  0  0  0  0
    5.6180   47.5220   13.2560 N   0  0  0  0  0  0  0  0  0  0  0  0
    4.3520   46.9730   13.0160 C   0  0  0  0  0  0  0  0  0  0  0  0
    6.2270   48.5410   12.5150 C   0  0  0  0  0  0  0  0  0  0  0  0
    4.0280   46.1830   12.0470 N   0  0  0  0  0  0  0  0  0  0  0  0
    3.1620   47.3060   13.9950 C   0  0  2  0  0  0  0  0  0  0  0  0
    7.4240   48.5410   11.9170 C   0  0  0  0  0  0  0  0  0  0  0  0
    5.7000   49.8970   12.1990 C   0  0  0  0  0  0  0  0  0  0  0  0
    4.9800   45.7450   11.0380 C   0  0  0  0  0  0  0  0  0  0  0  0
    1.9910   48.1620   13.4600 C   0  0  2  0  0  0  0  0  0  0  0  0
    3.6600   48.0540   15.2620 C   0  0  0  0  0  0  0  0  0  0  0  0
    6.8400   50.5600   11.5010 N   0  0  0  0  0  0  0  0  0  0  0  0
    7.7310   49.7030   11.2670 N   0  0  0  0  0  0  0  0  0  0  0  0
    5.1860   50.8060   13.3220 C   0  0  0  0  0  0  0  0  0  0  0  0
    4.3730   50.1750   11.5060 C   0  0  0  0  0  0  0  0  0  0  0  0
    2.4610   45.9860   14.3800 C   0  0  0  0  0  0  0  0  0  0  0  0
    1.4000   45.7830   13.3090 C   0  0  0  0  0  0  0  0  0  0  0  0
    1.5070   48.9730   14.6570 C   0  0  0  0  0  0  0  0  0  0  0  0
    2.7730   49.2860   15.4400 C   0  0  0  0  0  0  0  0  0  0  0  0
    4.4260   44.5670   10.2460 C   0  0  2  0  0  0  0  0  0  0  0  0
    4.1510   51.3290   12.4050 N   0  0  0  0  0  0  0  0  0  0  0  0
    0.9140   47.1830   12.9640 C   0  0  0  0  0  0  0  0  0  0  0  0
    3.0430   44.1030   10.6530 C   0  0  0  0  0  0  0  0  0  0  0  0
    5.1990   43.2640   10.3480 C   0  0  0  0  0  0  0  0  0  0  0  0
    4.1870   42.2590    9.8330 C   0  0  0  0  0  0  0  0  0  0  0  0
    2.8770   42.8080   10.0590 O   0  0  0  0  0  0  0  0  0  0  0  0
  1  2  1  0
  2  3  1  0
  2  4  1  0
  3  5  2  3
  6  3  1  6
  4  7  2  0
  4  8  1  0
  5  9  1  0
  6 10  1  0
  6 11  1  0
  8 12  1  0
  7 13  1  0
 12 13  2  0
  8 14  1  0
  8 15  1  0
  6 16  1  0
 16 17  1  0
 10 18  1  1
 11 19  1  0
 18 19  1  0
 20  9  1  1
 14 21  1  0
 15 21  1  0
 10 22  1  0
 17 22  1  0
 20 23  1  0
 20 24  1  0
 24 25  1  0
 23 26  1  0
 25 26  1  0
M  END
