mac-x0132-mac-x0301
     RDKit          3D

 21 24  0  0  0  0  0  0  0  0999 V2000
   29.2520   52.9120   -7.4380 N   0  0  0  0  0  0  0  0  0  0  0  0
   29.2700   53.1650   -6.0690 C   0  0  0  0  0  0  0  0  0  0  0  0
   28.9050   54.3930   -5.6990 N   0  0  0  0  0  0  0  0  0  0  0  0
   29.6450   52.1930   -5.1710 C   0  0  0  0  0  0  0  0  0  0  0  0
   29.5980   52.5430   -3.8440 C   0  0  0  0  0  0  0  0  0  0  0  0
   28.9160   54.6340   -4.3790 C   0  0  0  0  0  0  0  0  0  0  0  0
   30.0840   50.8300   -5.5780 C   0  0  0  0  0  0  0  0  0  0  0  0
   29.2430   53.7640   -3.4130 N   0  0  0  0  0  0  0  0  0  0  0  0
   29.9400   51.5390   -2.8330 C   0  0  0  0  0  0  0  0  0  0  0  0
   29.7160   49.7060   -4.5800 C   0  0  2  0  0  0  0  0  0  0  0  0
   29.9830   50.2240   -3.1600 C   0  0  0  0  0  0  0  0  0  0  0  0
   30.5030   48.3990   -5.0040 C   0  0  1  0  0  0  0  0  0  0  0  0
   28.2580   49.4490   -5.0430 C   0  0  0  0  0  0  0  0  0  0  0  0
   30.4870   47.1320   -4.1570 C   0  0  0  0  0  0  0  0  0  0  0  0
   29.8870   48.2830   -6.3820 C   0  0  2  0  0  0  0  0  0  0  0  0
   28.4340   48.3790   -6.1290 C   0  0  2  0  0  0  0  0  0  0  0  0
   30.0380   46.0200   -4.7650 O   0  0  0  0  0  0  0  0  0  0  0  0
   30.8710   47.0570   -2.9950 O   0  0  0  0  0  0  0  0  0  0  0  0
   28.0460   48.5990   -7.4720 O   0  0  0  0  0  0  0  0  0  0  0  0
   29.9150   47.1700   -7.2290 O   0  0  0  0  0  0  0  0  0  0  0  0
   28.8430   47.5750   -8.1170 C   0  0  0  0  0  0  0  0  0  0  0  0
  1  2  1  0
  2  3  2  0
  2  4  1  0
  4  5  2  0
  3  6  1  0
  4  7  1  0
  5  8  1  0
  6  8  2  0
  5  9  1  0
 10  7  1  6
  9 11  2  0
 10 11  1  0
 10 12  1  0
 10 13  1  0
 12 14  1  1
 12 15  1  0
 16 13  1  1
 15 16  1  0
 14 17  1  0
 14 18  2  0
 16 19  1  0
 15 20  1  1
 19 21  1  0
 20 21  1  0
M  END
