mac-x0417-mac-x0139
     RDKit          3D

 26 29  0  0  0  0  0  0  0  0999 V2000
   32.8270   46.2430   -6.6560 N   0  0  0  0  0  0  0  0  0  0  0  0
   32.4510   45.3700   -5.4990 C   0  0  1  0  0  0  0  0  0  0  0  0
   33.0060   44.0460   -5.6390 O   0  0  0  0  0  0  0  0  0  0  0  0
   32.5330   45.6660   -7.7210 O   0  0  0  0  0  0  0  0  0  0  0  0
   32.9090   45.9120   -4.1140 C   0  0  0  0  0  0  0  0  0  0  0  0
   30.8650   45.2950   -5.5380 C   0  0  0  0  0  0  0  0  0  0  0  0
   30.1350   46.6230   -5.4520 N   0  0  0  0  0  0  0  0  0  0  0  0
   34.1800   45.3780   -3.4880 C   0  0  0  0  0  0  0  0  0  0  0  0
   30.4340   47.4120   -4.2470 C   0  0  0  0  0  0  0  0  0  0  0  0
   34.3690   44.0740   -3.1990 N   0  0  0  0  0  0  0  0  0  0  0  0
   35.3130   46.1430   -3.1190 C   0  0  0  0  0  0  0  0  0  0  0  0
   29.5950   47.2840   -6.5970 C   0  0  0  0  0  0  0  0  0  0  0  0
   35.6390   43.9880   -2.6320 O   0  0  0  0  0  0  0  0  0  0  0  0
   36.1990   45.2270   -2.5860 C   0  0  0  0  0  0  0  0  0  0  0  0
   35.6820   47.4950   -3.1710 C   0  0  0  0  0  0  0  0  0  0  0  0
   29.4310   48.6400   -6.6100 C   0  0  0  0  0  0  0  0  0  0  0  0
   29.2280   46.5180   -7.7100 N   0  0  0  0  0  0  0  0  0  0  0  0
   37.4600   45.5590   -2.0880 C   0  0  0  0  0  0  0  0  0  0  0  0
   36.9400   47.8650   -2.6830 C   0  0  0  0  0  0  0  0  0  0  0  0
   28.8620   49.2730   -7.8260 C   0  0  0  0  0  0  0  0  0  0  0  0
   28.7350   47.1250   -8.7490 C   0  0  0  0  0  0  0  0  0  0  0  0
   29.6550   49.7490   -5.7370 C   0  0  0  0  0  0  0  0  0  0  0  0
   37.8130   46.9140   -2.1500 C   0  0  0  0  0  0  0  0  0  0  0  0
   28.5370   48.4660   -8.8600 N   0  0  0  0  0  0  0  0  0  0  0  0
   28.7580   50.5690   -7.7010 N   0  0  0  0  0  0  0  0  0  0  0  0
   29.2460   50.8280   -6.4270 C   0  0  0  0  0  0  0  0  0  0  0  0
  2  1  1  0
  2  3  1  6
  1  4  2  0
  2  5  1  0
  2  6  1  0
  6  7  1  0
  5  8  1  0
  7  9  1  0
  8 10  2  0
  8 11  1  0
  7 12  1  0
 10 13  1  0
 11 14  2  0
 13 14  1  0
 11 15  1  0
 12 16  2  0
 12 17  1  0
 14 18  1  0
 15 19  2  0
 16 20  1  0
 17 21  2  0
 16 22  1  0
 18 23  2  0
 19 23  1  0
 20 24  1  0
 21 24  1  0
 20 25  2  0
 22 26  2  0
 25 26  1  0
M  END
