mac-x0319-mac-x0436
     RDKit          3D

 23 25  0  0  0  0  0  0  0  0999 V2000
   31.8990   44.4040   -7.8490 O   0  0  0  0  0  0  0  0  0  0  0  0
   31.5100   45.0160   -6.7120 C   0  0  0  0  0  0  0  0  0  0  0  0
   30.4030   45.5350   -6.6590 O   0  0  0  0  0  0  0  0  0  0  0  0
   32.5420   44.9840   -5.5930 C   0  0  1  0  0  0  0  0  0  0  0  0
   33.8370   45.7120   -6.0050 C   0  0  0  0  0  0  0  0  0  0  0  0
   31.9340   45.4240   -4.2620 C   0  0  0  0  0  0  0  0  0  0  0  0
   31.1940   44.4990   -3.5000 C   0  0  0  0  0  0  0  0  0  0  0  0
   32.0880   46.7290   -3.7660 C   0  0  0  0  0  0  0  0  0  0  0  0
   34.6420   46.2040   -4.8220 C   0  0  0  0  0  0  0  0  0  0  0  0
   30.6330   44.8810   -2.2820 C   0  0  0  0  0  0  0  0  0  0  0  0
   31.5200   47.0990   -2.5430 C   0  0  0  0  0  0  0  0  0  0  0  0
   35.3230   47.5690   -4.9490 C   0  0  0  0  0  0  0  0  0  0  0  0
   34.7290   45.4670   -3.7530 N   0  0  0  0  0  0  0  0  0  0  0  0
   29.9140   44.0050   -1.5250 O   0  0  0  0  0  0  0  0  0  0  0  0
   35.1800   48.2480   -5.9540 O   0  0  0  0  0  0  0  0  0  0  0  0
   30.7920   46.1720   -1.8000 C   0  0  0  0  0  0  0  0  0  0  0  0
   36.0880   47.9570   -3.8800 N   0  0  0  0  0  0  0  0  0  0  0  0
   35.4740   45.9570   -2.6710 C   0  0  0  0  0  0  0  0  0  0  0  0
   36.1510   47.1860   -2.7150 C   0  0  0  0  0  0  0  0  0  0  0  0
   35.5400   45.1940   -1.5080 C   0  0  0  0  0  0  0  0  0  0  0  0
   36.2680   45.6460   -0.4040 C   0  0  0  0  0  0  0  0  0  0  0  0
   36.8810   47.6450   -1.6180 C   0  0  0  0  0  0  0  0  0  0  0  0
   36.9370   46.8690   -0.4600 C   0  0  0  0  0  0  0  0  0  0  0  0
  1  2  1  0
  2  3  2  0
  2  4  1  0
  4  5  1  6
  4  6  1  0
  6  7  2  0
  6  8  1  0
  5  9  1  0
  7 10  1  0
  8 11  2  0
  9 12  1  0
  9 13  2  0
 10 14  1  0
 12 15  2  0
 10 16  2  0
 11 16  1  0
 12 17  1  0
 13 18  1  0
 17 19  1  0
 18 19  2  0
 18 20  1  0
 20 21  2  0
 19 22  1  0
 21 23  1  0
 22 23  2  0
M  END
