mac-x0338-mac-x0341
     RDKit          3D

 19 21  0  0  0  0  0  0  0  0999 V2000
   32.1860   51.4050   -7.3120 N   0  0  0  0  0  0  0  0  0  0  0  0
   31.6740   52.1620   -6.1530 C   0  0  0  0  0  0  0  0  0  0  0  0
   31.4010   51.3140   -4.9280 C   0  0  0  0  0  0  0  0  0  0  0  0
   32.2380   50.2590   -4.6850 N   0  0  0  0  0  0  0  0  0  0  0  0
   30.3190   51.6050   -4.0730 C   0  0  0  0  0  0  0  0  0  0  0  0
   31.9570   49.5270   -3.5850 C   0  0  0  0  0  0  0  0  0  0  0  0
   30.0540   50.8540   -2.9640 N   0  0  0  0  0  0  0  0  0  0  0  0
   29.4530   52.6810   -4.3100 N   0  0  0  0  0  0  0  0  0  0  0  0
   30.8940   49.8200   -2.7500 C   0  0  0  0  0  0  0  0  0  0  0  0
   28.5750   52.6240   -5.2670 C   0  0  0  0  0  0  0  0  0  0  0  0
   27.6740   53.6200   -5.5720 N   0  0  0  0  0  0  0  0  0  0  0  0
   28.5320   51.3330   -6.1330 C   0  0  2  0  0  0  0  0  0  0  0  0
   27.2710   53.8080   -6.9280 C   0  0  0  0  0  0  0  0  0  0  0  0
   27.8360   51.5470   -7.5230 C   0  0  2  0  0  0  0  0  0  0  0  0
   27.9500   50.1780   -5.3410 C   0  0  0  0  0  0  0  0  0  0  0  0
   26.8550   52.6330   -7.6520 N   0  0  0  0  0  0  0  0  0  0  0  0
   27.2130   50.2840   -8.0800 C   0  0  0  0  0  0  0  0  0  0  0  0
   27.2140   49.2080   -5.9120 C   0  0  0  0  0  0  0  0  0  0  0  0
   26.9350   49.2150   -7.3220 C   0  0  0  0  0  0  0  0  0  0  0  0
  1  2  1  0
  2  3  1  0
  3  4  2  0
  3  5  1  0
  4  6  1  0
  5  7  2  0
  5  8  1  0
  6  9  2  0
  7  9  1  0
  8 10  2  3
 10 11  1  0
 10 12  1  0
 11 13  1  0
 12 14  1  0
 12 15  1  1
 13 16  1  0
 14 16  1  0
 14 17  1  1
 15 18  2  0
 17 19  2  0
 18 19  1  0
M  END
