mac-x0161-mac-x0213
     RDKit          3D

 30 34  0  0  0  0  0  0  0  0999 V2000
   27.7640   52.1600   -5.2960 N   0  0  0  0  0  0  0  0  0  0  0  0
   28.7180   51.0760   -5.1650 C   0  0  2  0  0  0  0  0  0  0  0  0
   28.9590   50.3270   -6.4980 C   0  0  1  0  0  0  0  0  0  0  0  0
   28.2170   50.2360   -4.0960 N   0  0  0  0  0  0  0  0  0  0  0  0
   29.1020   49.1330   -3.7340 C   0  0  0  0  0  0  0  0  0  0  0  0
   29.3300   48.8870   -6.1380 C   0  0  1  0  0  0  0  0  0  0  0  0
   27.8680   50.1950   -7.4850 N   0  0  0  0  0  0  0  0  0  0  0  0
   29.9900   48.8070   -4.8530 N   0  0  0  0  0  0  0  0  0  0  0  0
   28.0290   48.2510   -6.1780 N   0  0  0  0  0  0  0  0  0  0  0  0
   27.4760   48.7860   -7.4130 C   0  0  0  0  0  0  0  0  0  0  0  0
   31.0310   47.7350   -4.7110 C   0  0  1  0  0  0  0  0  0  0  0  0
   32.3770   48.1370   -4.2420 C   0  0  0  0  0  0  0  0  0  0  0  0
   30.7360   46.3460   -4.0760 C   0  0  2  0  0  0  0  0  0  0  0  0
   32.9780   48.2820   -3.0220 C   0  0  0  0  0  0  0  0  0  0  0  0
   33.2640   48.4200   -5.2330 O   0  0  0  0  0  0  0  0  0  0  0  0
   30.1060   45.3690   -5.1000 C   0  0  1  0  0  0  0  0  0  0  0  0
   29.7390   46.2380   -2.9420 C   0  0  0  0  0  0  0  0  0  0  0  0
   31.1650   44.8900   -6.0810 C   0  0  0  0  0  0  0  0  0  0  0  0
   34.4770   48.7520   -4.6690 N   0  0  0  0  0  0  0  0  0  0  0  0
   34.2820   48.6610   -3.3540 C   0  0  0  0  0  0  0  0  0  0  0  0
   29.0290   45.0370   -3.0570 C   0  0  0  0  0  0  0  0  0  0  0  0
   29.4770   44.2550   -4.2540 C   0  0  0  0  0  0  0  0  0  0  0  0
   29.4770   47.1090   -1.8920 C   0  0  0  0  0  0  0  0  0  0  0  0
   35.2630   48.9110   -2.4700 O   0  0  0  0  0  0  0  0  0  0  0  0
   32.4040   44.8500   -5.5440 O   0  0  0  0  0  0  0  0  0  0  0  0
   31.0090   44.5640   -7.2450 O   0  0  0  0  0  0  0  0  0  0  0  0
   28.4950   46.7630   -0.9620 C   0  0  0  0  0  0  0  0  0  0  0  0
   28.0520   44.6840   -2.1400 C   0  0  0  0  0  0  0  0  0  0  0  0
   35.4900   47.8530   -1.5500 C   0  0  0  0  0  0  0  0  0  0  0  0
   27.7870   45.5580   -1.0860 C   0  0  0  0  0  0  0  0  0  0  0  0
  2  1  1  6
  2  3  1  0
  2  4  1  0
  4  5  1  0
  3  6  1  0
  3  7  1  6
  5  8  1  0
  6  8  1  0
  6  9  1  1
  7 10  1  0
  9 10  1  0
  8 11  1  0
 11 12  1  1
 11 13  1  0
 12 14  2  0
 12 15  1  0
 13 16  1  0
 13 17  1  1
 16 18  1  6
 15 19  1  0
 14 20  1  0
 19 20  2  0
 17 21  2  0
 16 22  1  0
 21 22  1  0
 17 23  1  0
 20 24  1  0
 18 25  1  0
 18 26  2  0
 23 27  2  0
 21 28  1  0
 24 29  1  0
 27 30  1  0
 28 30  2  0
M  END
