mac-x0138-mac-x0398
     RDKit          3D

 22 24  0  0  0  0  0  0  0  0999 V2000
   30.0180   48.4000   -3.7570 C   0  0  0  0  0  0  0  0  0  0  0  0
   29.3450   49.4330   -2.8830 C   0  0  0  0  0  0  0  0  0  0  0  0
   29.0640   49.2280   -1.7000 O   0  0  0  0  0  0  0  0  0  0  0  0
   30.4000   49.0270   -4.9980 N   0  0  0  0  0  0  0  0  0  0  0  0
   31.3730   49.9810   -5.1130 C   0  0  0  0  0  0  0  0  0  0  0  0
   29.8760   48.8130   -6.2380 C   0  0  0  0  0  0  0  0  0  0  0  0
   29.0280   50.7480   -3.5110 C   0  0  0  0  0  0  0  0  0  0  0  0
   31.5060   50.4000   -6.3510 N   0  0  0  0  0  0  0  0  0  0  0  0
   30.5690   49.6800   -7.0600 C   0  0  0  0  0  0  0  0  0  0  0  0
   28.9030   47.9620   -6.6010 N   0  0  0  0  0  0  0  0  0  0  0  0
   29.4100   51.9840   -2.9720 C   0  0  0  0  0  0  0  0  0  0  0  0
   28.3120   50.7230   -4.7130 C   0  0  0  0  0  0  0  0  0  0  0  0
   30.1070   52.0410   -1.7980 O   0  0  0  0  0  0  0  0  0  0  0  0
   30.2110   49.6750   -8.4090 C   0  0  0  0  0  0  0  0  0  0  0  0
   28.6420   48.0340   -7.9160 C   0  0  0  0  0  0  0  0  0  0  0  0
   29.0770   53.1720   -3.6350 C   0  0  0  0  0  0  0  0  0  0  0  0
   27.9820   51.9130   -5.3710 C   0  0  0  0  0  0  0  0  0  0  0  0
   30.8130   50.4990   -9.3500 N   0  0  0  0  0  0  0  0  0  0  0  0
   27.6570   47.1950   -8.4000 N   0  0  0  0  0  0  0  0  0  0  0  0
   29.2350   48.8340   -8.8190 N   0  0  0  0  0  0  0  0  0  0  0  0
   28.3630   53.1440   -4.8390 C   0  0  0  0  0  0  0  0  0  0  0  0
   28.0320   54.3320   -5.5030 N   0  0  0  0  0  0  0  0  0  0  0  0
  1  2  1  0
  2  3  2  0
  1  4  1  0
  4  5  1  0
  4  6  1  0
  2  7  1  0
  5  8  2  0
  6  9  2  0
  8  9  1  0
  6 10  1  0
  7 11  2  0
  7 12  1  0
 11 13  1  0
  9 14  1  0
 10 15  2  0
 11 16  1  0
 12 17  2  0
 14 18  1  0
 15 19  1  0
 14 20  2  0
 15 20  1  0
 16 21  2  0
 17 21  1  0
 21 22  1  0
M  END
