mac-x0188-mac-x0347
     RDKit          3D

 27 30  0  0  0  0  0  0  0  0999 V2000
   32.5270   44.0040   -4.1160 C   0  0  0  0  0  0  0  0  0  0  0  0
   32.3640   45.4460   -3.8580 C   0  0  0  0  0  0  0  0  0  0  0  0
   33.1970   45.9780   -2.9320 O   0  0  0  0  0  0  0  0  0  0  0  0
   31.5290   46.4330   -4.3530 C   0  0  0  0  0  0  0  0  0  0  0  0
   30.4560   46.3270   -5.3750 C   0  0  0  0  0  0  0  0  0  0  0  0
   32.9430   47.3180   -2.7860 N   0  0  0  0  0  0  0  0  0  0  0  0
   31.9440   47.6080   -3.6330 C   0  0  0  0  0  0  0  0  0  0  0  0
   29.7510   45.1030   -5.3990 O   0  0  0  0  0  0  0  0  0  0  0  0
   30.9180   46.5080   -6.7030 O   0  0  0  0  0  0  0  0  0  0  0  0
   31.4450   48.9860   -3.7060 C   0  0  0  0  0  0  0  0  0  0  0  0
   29.6170   47.4780   -4.9050 C   0  0  0  0  0  0  0  0  0  0  0  0
   30.7400   49.5680   -2.6440 C   0  0  0  0  0  0  0  0  0  0  0  0
   31.6770   49.7410   -4.8650 C   0  0  0  0  0  0  0  0  0  0  0  0
   29.5750   48.7050   -5.5730 C   0  0  0  0  0  0  0  0  0  0  0  0
   28.8510   47.3630   -3.7530 C   0  0  0  0  0  0  0  0  0  0  0  0
   30.2800   50.8860   -2.7400 C   0  0  0  0  0  0  0  0  0  0  0  0
   31.2160   51.0560   -4.9580 C   0  0  0  0  0  0  0  0  0  0  0  0
   28.8000   49.7580   -5.0860 C   0  0  0  0  0  0  0  0  0  0  0  0
   28.0800   48.3450   -3.2420 N   0  0  0  0  0  0  0  0  0  0  0  0
   30.5190   51.6270   -3.8940 C   0  0  0  0  0  0  0  0  0  0  0  0
   28.0780   49.5160   -3.9200 C   0  0  0  0  0  0  0  0  0  0  0  0
   28.7680   51.0480   -5.7750 C   0  0  0  0  0  0  0  0  0  0  0  0
   28.9050   51.1220   -7.1660 C   0  0  0  0  0  0  0  0  0  0  0  0
   28.6090   52.2460   -5.0630 C   0  0  0  0  0  0  0  0  0  0  0  0
   28.8850   52.3520   -7.8230 C   0  0  0  0  0  0  0  0  0  0  0  0
   28.5900   53.4750   -5.7140 C   0  0  0  0  0  0  0  0  0  0  0  0
   28.7280   53.5300   -7.0960 C   0  0  0  0  0  0  0  0  0  0  0  0
  1  2  1  0
  2  3  1  0
  2  4  2  0
  4  5  1  0
  3  6  1  0
  4  7  1  0
  6  7  2  0
  5  8  1  0
  5  9  1  0
  7 10  1  0
  5 11  1  0
 10 12  2  0
 10 13  1  0
 11 14  2  0
 11 15  1  0
 12 16  1  0
 13 17  2  0
 14 18  1  0
 15 19  2  0
 16 20  2  0
 17 20  1  0
 18 21  2  0
 19 21  1  0
 18 22  1  0
 22 23  2  0
 22 24  1  0
 23 25  1  0
 24 26  2  0
 25 27  2  0
 26 27  1  0
M  END
