mac-x0411-mac-x0361
     RDKit          3D

 24 25  0  0  0  0  0  0  0  0999 V2000
   37.3000   44.1970   -3.6860 Cl  0  0  0  0  0  0  0  0  0  0  0  0
   36.4440   45.6690   -3.3820 C   0  0  0  0  0  0  0  0  0  0  0  0
   35.0390   45.7180   -3.2800 C   0  0  0  0  0  0  0  0  0  0  0  0
   37.2130   46.8260   -3.2340 C   0  0  0  0  0  0  0  0  0  0  0  0
   34.3000   44.5570   -3.4300 O   0  0  0  0  0  0  0  0  0  0  0  0
   34.3930   46.9570   -3.0130 C   0  0  0  0  0  0  0  0  0  0  0  0
   36.6000   48.0370   -2.9840 C   0  0  0  0  0  0  0  0  0  0  0  0
   32.8720   47.1180   -2.8530 C   0  0  0  0  0  0  0  0  0  0  0  0
   33.1060   44.6610   -4.2320 C   0  0  0  0  0  0  0  0  0  0  0  0
   35.2090   48.1010   -2.8740 C   0  0  0  0  0  0  0  0  0  0  0  0
   33.3220   45.0580   -5.6900 C   0  0  0  0  0  0  0  0  0  0  0  0
   32.0530   47.6980   -4.0240 C   0  0  0  0  0  0  0  0  0  0  0  0
   32.1920   45.0810   -6.4280 O   0  0  0  0  0  0  0  0  0  0  0  0
   34.3890   45.3450   -6.2220 O   0  0  0  0  0  0  0  0  0  0  0  0
   30.7390   48.1350   -3.6290 O   0  0  0  0  0  0  0  0  0  0  0  0
   30.3630   49.3900   -4.0190 C   0  0  0  0  0  0  0  0  0  0  0  0
   29.9890   49.7590   -5.3070 C   0  0  0  0  0  0  0  0  0  0  0  0
   30.3810   50.3530   -3.0020 C   0  0  0  0  0  0  0  0  0  0  0  0
   29.6420   51.0830   -5.5900 C   0  0  0  0  0  0  0  0  0  0  0  0
   30.0360   51.6780   -3.2750 C   0  0  0  0  0  0  0  0  0  0  0  0
   29.6690   52.0460   -4.5750 C   0  0  0  0  0  0  0  0  0  0  0  0
   29.3090   53.4400   -4.9190 C   0  0  0  0  0  0  0  0  0  0  0  0
   28.6330   53.6240   -6.0940 N   0  0  0  0  0  0  0  0  0  0  0  0
   29.6070   54.3830   -4.2010 O   0  0  0  0  0  0  0  0  0  0  0  0
  1  2  1  0
  2  3  2  0
  2  4  1  0
  3  5  1  0
  3  6  1  0
  4  7  2  0
  6  8  1  0
  5  9  1  0
  6 10  2  0
  7 10  1  0
  9 11  1  0
  8 12  1  0
 11 13  1  0
 11 14  2  0
 12 15  1  0
 15 16  1  0
 16 17  2  0
 16 18  1  0
 17 19  1  0
 18 20  2  0
 19 21  2  0
 20 21  1  0
 21 22  1  0
 22 23  1  0
 22 24  2  0
M  END
