mac-x0398-mac-x0142
     RDKit          3D

 24 27  0  0  0  0  0  0  0  0999 V2000
   30.9980   52.8070   -6.6880 N   0  0  0  0  0  0  0  0  0  0  0  0
   29.8610   52.0210   -6.1940 C   0  0  1  0  0  0  0  0  0  0  0  0
   30.1600   50.5120   -6.3240 C   0  0  0  0  0  0  0  0  0  0  0  0
   29.5130   52.4330   -4.7550 C   0  0  0  0  0  0  0  0  0  0  0  0
   29.9820   51.4080   -3.7250 C   0  0  1  0  0  0  0  0  0  0  0  0
   29.2010   49.6250   -5.4650 C   0  0  1  0  0  0  0  0  0  0  0  0
   29.7750   51.9070   -2.4050 O   0  0  0  0  0  0  0  0  0  0  0  0
   29.3760   50.0040   -3.9320 C   0  0  2  0  0  0  0  0  0  0  0  0
   27.7610   49.9310   -6.0190 C   0  0  0  0  0  0  0  0  0  0  0  0
   29.4210   48.0560   -5.6550 C   0  0  2  0  0  0  0  0  0  0  0  0
   28.1510   49.7220   -3.0730 C   0  0  0  0  0  0  0  0  0  0  0  0
   30.7160   47.4820   -5.2220 N   0  0  0  0  0  0  0  0  0  0  0  0
   29.1390   47.6380   -7.0210 N   0  0  0  0  0  0  0  0  0  0  0  0
   27.5290   49.4030   -7.3560 N   0  0  0  0  0  0  0  0  0  0  0  0
   27.9560   50.2260   -1.9720 O   0  0  0  0  0  0  0  0  0  0  0  0
   27.2500   48.8650   -3.5760 O   0  0  0  0  0  0  0  0  0  0  0  0
   31.5050   48.3390   -4.3160 C   0  0  0  0  0  0  0  0  0  0  0  0
   30.6950   46.1060   -4.7190 C   0  0  0  0  0  0  0  0  0  0  0  0
   27.7850   47.9780   -7.4230 C   0  0  0  0  0  0  0  0  0  0  0  0
   32.1380   45.6060   -4.6790 C   0  0  0  0  0  0  0  0  0  0  0  0
   32.9720   47.9030   -4.2000 C   0  0  0  0  0  0  0  0  0  0  0  0
   32.3590   44.1090   -4.7500 C   0  0  0  0  0  0  0  0  0  0  0  0
   32.7230   44.9650   -5.9220 C   0  0  0  0  0  0  0  0  0  0  0  0
   33.0780   46.4320   -3.8220 C   0  0  0  0  0  0  0  0  0  0  0  0
  2  1  1  1
  2  3  1  0
  2  4  1  0
  4  5  1  0
  6  3  1  6
  5  7  1  1
  5  8  1  0
  6  8  1  0
  6  9  1  0
  6 10  1  0
  8 11  1  1
 10 12  1  6
 10 13  1  0
  9 14  1  0
 11 15  2  0
 11 16  1  0
 12 17  1  0
 12 18  1  0
 13 19  1  0
 14 19  1  0
 20 18  1  0
 17 21  1  0
 20 22  1  0
 20 23  1  0
 22 23  1  0
 20 24  1  0
 21 24  1  0
M  END
