mac-x0347-mac-x0373
     RDKit          3D

 28 31  0  0  0  0  0  0  0  0999 V2000
   29.0610   46.0900   -5.8070 O   0  0  0  0  0  0  0  0  0  0  0  0
   30.3190   46.3530   -5.1960 C   0  0  0  0  0  0  0  0  0  0  0  0
   31.1150   45.1890   -5.3580 O   0  0  0  0  0  0  0  0  0  0  0  0
   30.2390   46.9910   -3.7610 C   0  0  0  0  0  0  0  0  0  0  0  0
   30.9690   47.5630   -5.7820 C   0  0  0  0  0  0  0  0  0  0  0  0
   30.2620   48.7610   -5.8100 C   0  0  0  0  0  0  0  0  0  0  0  0
   32.2550   47.5750   -6.2690 C   0  0  0  0  0  0  0  0  0  0  0  0
   31.6770   47.2910   -3.3000 C   0  0  0  0  0  0  0  0  0  0  0  0
   29.4450   48.3140   -3.8080 C   0  0  0  0  0  0  0  0  0  0  0  0
   30.8160   49.9240   -6.2930 C   0  0  0  0  0  0  0  0  0  0  0  0
   32.8480   48.6840   -6.7600 N   0  0  0  0  0  0  0  0  0  0  0  0
   32.4140   46.3240   -2.5980 C   0  0  0  0  0  0  0  0  0  0  0  0
   32.2980   48.5240   -3.5770 C   0  0  0  0  0  0  0  0  0  0  0  0
   29.7860   49.4210   -3.0120 C   0  0  0  0  0  0  0  0  0  0  0  0
   28.3450   48.4510   -4.6830 C   0  0  0  0  0  0  0  0  0  0  0  0
   32.1140   49.8230   -6.7550 C   0  0  0  0  0  0  0  0  0  0  0  0
   30.0650   51.1710   -6.3010 C   0  0  0  0  0  0  0  0  0  0  0  0
   33.7260   46.5840   -2.1920 C   0  0  0  0  0  0  0  0  0  0  0  0
   33.6060   48.7820   -3.1690 C   0  0  0  0  0  0  0  0  0  0  0  0
   29.0620   50.6150   -3.0900 C   0  0  0  0  0  0  0  0  0  0  0  0
   27.6250   49.6480   -4.7580 C   0  0  0  0  0  0  0  0  0  0  0  0
   28.8820   51.2950   -7.0400 C   0  0  0  0  0  0  0  0  0  0  0  0
   30.5120   52.2780   -5.5630 C   0  0  0  0  0  0  0  0  0  0  0  0
   34.3210   47.8120   -2.4770 C   0  0  0  0  0  0  0  0  0  0  0  0
   27.9850   50.7290   -3.9620 C   0  0  0  0  0  0  0  0  0  0  0  0
   28.1660   52.4900   -7.0460 C   0  0  0  0  0  0  0  0  0  0  0  0
   29.7970   53.4740   -5.5670 C   0  0  0  0  0  0  0  0  0  0  0  0
   28.6240   53.5790   -6.3090 C   0  0  0  0  0  0  0  0  0  0  0  0
  2  1  1  0
  2  3  1  0
  2  4  1  0
  2  5  1  0
  5  6  2  0
  5  7  1  0
  4  8  1  0
  4  9  1  0
  6 10  1  0
  7 11  2  0
  8 12  2  0
  8 13  1  0
  9 14  2  0
  9 15  1  0
 10 16  2  0
 11 16  1  0
 10 17  1  0
 12 18  1  0
 13 19  2  0
 14 20  1  0
 15 21  2  0
 17 22  2  0
 17 23  1  0
 18 24  2  0
 19 24  1  0
 20 25  2  0
 21 25  1  0
 22 26  1  0
 23 27  2  0
 26 28  2  0
 27 28  1  0
M  END
