mac-x0588-mac-x0472
     RDKit          3D

 32 36  0  0  0  0  0  0  0  0999 V2000
   26.1340   49.8110   -6.7000 N   0  0  0  0  0  0  0  0  0  0  0  0
   26.1630   48.5070   -6.0670 C   0  0  1  0  0  0  0  0  0  0  0  0
   27.0800   47.4920   -6.7680 C   0  0  2  0  0  0  0  0  0  0  0  0
   26.6520   48.7900   -4.7340 N   0  0  0  0  0  0  0  0  0  0  0  0
   27.1100   47.5830   -4.0400 C   0  0  0  0  0  0  0  0  0  0  0  0
   28.4090   47.4680   -6.0510 C   0  0  1  0  0  0  0  0  0  0  0  0
   27.4640   47.6450   -8.1930 N   0  0  0  0  0  0  0  0  0  0  0  0
   28.3270   47.0570   -4.6540 N   0  0  0  0  0  0  0  0  0  0  0  0
   29.0720   46.4680   -6.8960 N   0  0  0  0  0  0  0  0  0  0  0  0
   28.7440   46.9200   -8.2520 C   0  0  0  0  0  0  0  0  0  0  0  0
   29.5890   47.3250   -3.8750 C   0  0  2  0  0  0  0  0  0  0  0  0
   30.8420   47.7810   -4.7000 C   0  0  0  0  0  0  0  0  0  0  0  0
   29.9560   46.1290   -2.9430 C   0  0  1  0  0  0  0  0  0  0  0  0
   31.6680   48.7310   -3.9080 N   0  0  0  0  0  0  0  0  0  0  0  0
   29.5260   46.3470   -1.5800 O   0  0  0  0  0  0  0  0  0  0  0  0
   29.3310   44.7910   -3.3770 C   0  0  0  0  0  0  0  0  0  0  0  0
   31.4380   50.2380   -4.1160 S   0  0  2  0  0  0  0  0  0  0  0  0
   28.5870   44.2980   -2.1560 C   0  0  0  0  0  0  0  0  0  0  0  0
   28.3410   45.5660   -1.3790 C   0  0  0  0  0  0  0  0  0  0  0  0
   30.8900   51.1650   -3.1510 O   0  0  0  0  0  0  0  0  0  0  0  0
   30.4270   50.3040   -5.4540 N   0  0  0  0  0  0  0  0  0  0  0  0
   32.9980   50.9120   -4.6550 C   0  0  0  0  0  0  0  0  0  0  0  0
   30.5800   51.2880   -6.3720 C   0  0  0  0  0  0  0  0  0  0  0  0
   33.9480   50.0690   -5.2440 C   0  0  0  0  0  0  0  0  0  0  0  0
   33.2600   52.2730   -4.4850 C   0  0  0  0  0  0  0  0  0  0  0  0
   30.7300   51.1730   -7.6800 N   0  0  0  0  0  0  0  0  0  0  0  0
   30.5890   52.9430   -5.8480 S   0  0  0  0  0  0  0  0  0  0  0  0
   35.1690   50.6000   -5.6650 C   0  0  0  0  0  0  0  0  0  0  0  0
   34.4810   52.7950   -4.9080 C   0  0  0  0  0  0  0  0  0  0  0  0
   30.7990   53.3920   -7.4840 C   0  0  0  0  0  0  0  0  0  0  0  0
   30.8560   52.3870   -8.3300 N   0  0  0  0  0  0  0  0  0  0  0  0
   35.4330   51.9600   -5.4980 C   0  0  0  0  0  0  0  0  0  0  0  0
  2  1  1  6
  2  3  1  0
  2  4  1  0
  4  5  1  0
  3  6  1  0
  3  7  1  6
  5  8  1  0
  6  8  1  0
  6  9  1  6
  7 10  1  0
  9 10  1  0
  8 11  1  0
 11 12  1  6
 11 13  1  0
 12 14  1  0
 13 15  1  0
 13 16  1  6
 14 17  2  0
 16 18  1  0
 15 19  1  0
 18 19  1  0
 17 20  2  0
 17 21  1  6
 17 22  1  0
 21 23  1  0
 22 24  2  0
 22 25  1  0
 23 26  2  0
 23 27  1  0
 24 28  1  0
 25 29  2  0
 27 30  1  0
 26 31  1  0
 30 31  2  0
 28 32  2  0
 29 32  1  0
M  END
