mac-x0142-mac-x0588
     RDKit          3D

 23 27  0  0  0  0  0  0  0  0999 V2000
   29.1030   48.5310   -2.9920 C   0  0  0  0  0  0  0  0  0  0  0  0
   28.7460   47.0420   -2.8420 C   0  0  2  0  0  0  0  0  0  0  0  0
   27.5410   46.9170   -2.0520 O   0  0  0  0  0  0  0  0  0  0  0  0
   28.7510   49.0780   -4.3390 C   0  0  0  0  0  0  0  0  0  0  0  0
   29.2880   48.6840   -5.6130 C   0  0  0  0  0  0  0  0  0  0  0  0
   27.8600   50.0480   -4.6230 C   0  0  0  0  0  0  0  0  0  0  0  0
   29.7900   46.2450   -2.0680 C   0  0  0  0  0  0  0  0  0  0  0  0
   28.5460   49.5520   -6.5670 C   0  0  0  0  0  0  0  0  0  0  0  0
   30.2010   47.8190   -6.0930 C   0  0  0  0  0  0  0  0  0  0  0  0
   27.7120   50.3600   -5.9700 N   0  0  0  0  0  0  0  0  0  0  0  0
   28.9760   45.0990   -1.5270 C   0  0  0  0  0  0  0  0  0  0  0  0
   27.6690   45.7820   -1.1850 C   0  0  0  0  0  0  0  0  0  0  0  0
   30.9630   46.9670   -5.2950 N   0  0  0  0  0  0  0  0  0  0  0  0
   30.3590   47.8140   -7.4660 N   0  0  0  0  0  0  0  0  0  0  0  0
   28.7440   49.4870   -7.9190 N   0  0  0  0  0  0  0  0  0  0  0  0
   31.7810   47.5330   -4.2090 C   0  0  0  0  0  0  0  0  0  0  0  0
   30.6220   45.5400   -5.1530 C   0  0  0  0  0  0  0  0  0  0  0  0
   29.6320   48.6260   -8.2870 C   0  0  0  0  0  0  0  0  0  0  0  0
   31.8540   44.6940   -4.8720 C   0  0  0  0  0  0  0  0  0  0  0  0
   33.0430   46.7060   -3.9960 C   0  0  0  0  0  0  0  0  0  0  0  0
   31.7340   43.1920   -5.0210 C   0  0  0  0  0  0  0  0  0  0  0  0
   32.5210   43.9750   -6.0290 C   0  0  0  0  0  0  0  0  0  0  0  0
   32.7340   45.2290   -3.7700 C   0  0  0  0  0  0  0  0  0  0  0  0
  2  1  1  1
  2  3  1  0
  1  4  1  0
  4  5  1  0
  4  6  2  0
  2  7  1  0
  5  8  1  0
  5  9  2  0
  6 10  1  0
  8 10  2  0
  7 11  1  0
  3 12  1  0
 11 12  1  0
  9 13  1  0
  9 14  1  0
  8 15  1  0
 13 16  1  0
 13 17  1  0
 14 18  1  0
 15 18  2  0
 19 17  1  0
 16 20  1  0
 19 21  1  0
 19 22  1  0
 21 22  1  0
 19 23  1  0
 20 23  1  0
M  END
