mac-x0402-mac-x0348
     RDKit          3D

 25 28  0  0  0  0  0  0  0  0999 V2000
   30.4710   47.3680   -4.2840 N   0  0  0  0  0  0  0  0  0  0  0  0
   31.9070   47.2180   -4.6790 C   0  0  0  0  0  0  0  0  0  0  0  0
   32.1460   46.4320   -5.9730 C   0  0  0  0  0  0  0  0  0  0  0  0
   30.0840   48.7730   -4.4560 C   0  0  0  0  0  0  0  0  0  0  0  0
   30.1460   46.3940   -3.1530 C   0  0  2  0  0  0  0  0  0  0  0  0
   30.0150   49.6980   -3.3870 C   0  0  0  0  0  0  0  0  0  0  0  0
   29.7690   49.2740   -5.7430 C   0  0  0  0  0  0  0  0  0  0  0  0
   28.7660   45.6430   -3.0990 C   0  0  0  0  0  0  0  0  0  0  0  0
   30.2210   46.9270   -1.7060 C   0  0  2  0  0  0  0  0  0  0  0  0
   31.3390   45.9360   -6.7450 O   0  0  0  0  0  0  0  0  0  0  0  0
   33.4720   46.3200   -6.2290 O   0  0  0  0  0  0  0  0  0  0  0  0
   29.4100   50.6340   -5.9300 C   0  0  0  0  0  0  0  0  0  0  0  0
   29.6560   51.0540   -3.5810 C   0  0  0  0  0  0  0  0  0  0  0  0
   28.4690   45.4290   -1.6520 N   0  0  0  0  0  0  0  0  0  0  0  0
   28.7800   46.7940   -1.2230 C   0  0  1  0  0  0  0  0  0  0  0  0
   30.7480   48.2950   -1.4170 C   0  0  0  0  0  0  0  0  0  0  0  0
   27.0840   45.0250   -1.3970 C   0  0  0  0  0  0  0  0  0  0  0  0
   29.3480   51.5370   -4.8730 C   0  0  0  0  0  0  0  0  0  0  0  0
   28.9920   51.4680   -7.3810 S   0  0  0  0  0  0  0  0  0  0  0  0
   30.3840   48.8740   -0.2580 C   0  0  0  0  0  0  0  0  0  0  0  0
   28.7220   47.1520    0.2290 C   0  0  0  0  0  0  0  0  0  0  0  0
   28.7700   52.9270   -6.5090 C   0  0  0  0  0  0  0  0  0  0  0  0
   28.9830   52.8380   -5.2190 N   0  0  0  0  0  0  0  0  0  0  0  0
   29.5030   48.1620    0.6690 C   0  0  0  0  0  0  0  0  0  0  0  0
   28.4040   54.0700   -7.1250 N   0  0  0  0  0  0  0  0  0  0  0  0
  1  2  1  0
  2  3  1  0
  1  4  1  0
  5  1  1  6
  4  6  2  0
  4  7  1  0
  5  8  1  0
  5  9  1  0
  3 10  2  0
  3 11  1  0
  7 12  2  0
  6 13  1  0
  8 14  1  0
  9 15  1  0
 14 15  1  0
  9 16  1  6
 14 17  1  0
 12 18  1  0
 13 18  2  0
 12 19  1  0
 16 20  2  0
 15 21  1  1
 19 22  1  0
 18 23  1  0
 22 23  2  0
 20 24  1  0
 21 24  2  0
 22 25  1  0
M  END
