mac-x0441-mac-x0188
     RDKit          3D

 30 34  0  0  0  0  0  0  0  0999 V2000
   33.7070   44.0620   -6.3150 O   0  0  0  0  0  0  0  0  0  0  0  0
   33.0090   45.2130   -5.9290 C   0  0  1  0  0  0  0  0  0  0  0  0
   31.6040   44.9520   -5.9870 N   0  0  0  0  0  0  0  0  0  0  0  0
   33.4580   45.8450   -4.6220 C   0  0  2  0  0  0  0  0  0  0  0  0
   30.6570   45.8580   -5.5700 C   0  0  0  0  0  0  0  0  0  0  0  0
   34.4800   45.2800   -3.7740 N   0  0  0  0  0  0  0  0  0  0  0  0
   32.4180   46.7300   -3.9890 C   0  0  2  0  0  0  0  0  0  0  0  0
   29.4670   45.6880   -5.8310 O   0  0  0  0  0  0  0  0  0  0  0  0
   34.4830   43.9830   -3.3320 N   0  0  0  0  0  0  0  0  0  0  0  0
   35.5230   45.9790   -3.3350 C   0  0  0  0  0  0  0  0  0  0  0  0
   31.9560   46.3910   -2.6960 O   0  0  0  0  0  0  0  0  0  0  0  0
   31.1950   47.0400   -4.7930 C   0  0  2  0  0  0  0  0  0  0  0  0
   35.6190   43.9000   -2.5710 C   0  0  0  0  0  0  0  0  0  0  0  0
   36.2880   45.1520   -2.5650 C   0  0  0  0  0  0  0  0  0  0  0  0
   35.8040   47.4070   -3.6290 C   0  0  0  0  0  0  0  0  0  0  0  0
   31.0560   47.5030   -2.4480 N   0  0  0  0  0  0  0  0  0  0  0  0
   30.2770   47.5850   -3.7090 C   0  0  1  0  0  0  0  0  0  0  0  0
   36.0970   42.6640   -1.8440 C   0  0  0  0  0  0  0  0  0  0  0  0
   37.5430   45.5980   -1.9080 C   0  0  0  0  0  0  0  0  0  0  0  0
   36.8160   47.9430   -2.6190 C   0  0  0  0  0  0  0  0  0  0  0  0
   29.8280   48.9890   -4.0340 C   0  0  0  0  0  0  0  0  0  0  0  0
   37.1710   42.0730   -2.4360 F   0  0  0  0  0  0  0  0  0  0  0  0
   36.4860   42.9610   -0.5720 F   0  0  0  0  0  0  0  0  0  0  0  0
   35.1320   41.7110   -1.7290 F   0  0  0  0  0  0  0  0  0  0  0  0
   37.9930   46.9710   -2.4500 C   0  0  0  0  0  0  0  0  0  0  0  0
   29.7260   49.9480   -3.0150 C   0  0  0  0  0  0  0  0  0  0  0  0
   29.5010   49.3650   -5.3460 C   0  0  0  0  0  0  0  0  0  0  0  0
   29.3060   51.2470   -3.2990 C   0  0  0  0  0  0  0  0  0  0  0  0
   29.0800   50.6630   -5.6290 C   0  0  0  0  0  0  0  0  0  0  0  0
   28.9810   51.6040   -4.6070 C   0  0  0  0  0  0  0  0  0  0  0  0
  2  1  1  1
  2  3  1  0
  2  4  1  0
  3  5  1  0
  4  6  1  1
  4  7  1  0
  5  8  2  0
  6  9  1  0
  6 10  1  0
  7 11  1  1
 12  5  1  1
  7 12  1  0
  9 13  2  0
 10 14  2  0
 13 14  1  0
 10 15  1  0
 11 16  1  0
 12 17  1  0
 16 17  1  0
 13 18  1  0
 14 19  1  0
 15 20  1  0
 17 21  1  6
 18 22  1  0
 18 23  1  0
 18 24  1  0
 19 25  1  0
 20 25  1  0
 21 26  2  0
 21 27  1  0
 26 28  1  0
 27 29  2  0
 28 30  2  0
 29 30  1  0
M  END
