mac-x0411-mac-x0347
     RDKit          3D

 27 29  0  0  0  0  0  0  0  0999 V2000
   37.1920   43.6680   -3.8480 Cl  0  0  0  0  0  0  0  0  0  0  0  0
   36.9750   45.3160   -3.3790 C   0  0  0  0  0  0  0  0  0  0  0  0
   35.7000   45.8990   -3.2890 C   0  0  0  0  0  0  0  0  0  0  0  0
   38.1170   46.0730   -3.0860 C   0  0  0  0  0  0  0  0  0  0  0  0
   34.5760   45.1590   -3.5780 O   0  0  0  0  0  0  0  0  0  0  0  0
   35.5870   47.2410   -2.9030 C   0  0  0  0  0  0  0  0  0  0  0  0
   37.9920   47.4060   -2.7040 C   0  0  0  0  0  0  0  0  0  0  0  0
   34.0590   48.0290   -2.7620 Cl  0  0  0  0  0  0  0  0  0  0  0  0
   34.4940   44.8520   -4.9720 C   0  0  0  0  0  0  0  0  0  0  0  0
   36.7300   47.9910   -2.6110 C   0  0  0  0  0  0  0  0  0  0  0  0
   33.0590   44.9850   -5.4990 C   0  0  0  0  0  0  0  0  0  0  0  0
   32.4320   46.1300   -5.0570 N   0  0  0  0  0  0  0  0  0  0  0  0
   32.5360   44.1590   -6.2420 O   0  0  0  0  0  0  0  0  0  0  0  0
   31.1440   46.2030   -5.0650 C   0  0  0  0  0  0  0  0  0  0  0  0
   30.4640   45.1350   -5.5190 O   0  0  0  0  0  0  0  0  0  0  0  0
   30.2020   47.2560   -4.6610 C   0  0  0  0  0  0  0  0  0  0  0  0
   30.2120   48.4980   -5.3030 C   0  0  0  0  0  0  0  0  0  0  0  0
   29.2920   47.0460   -3.6390 C   0  0  0  0  0  0  0  0  0  0  0  0
   29.3130   49.4980   -4.9100 C   0  0  0  0  0  0  0  0  0  0  0  0
   28.4050   47.9810   -3.2220 N   0  0  0  0  0  0  0  0  0  0  0  0
   28.4380   49.1770   -3.8670 C   0  0  0  0  0  0  0  0  0  0  0  0
   29.2900   50.8170   -5.5580 C   0  0  0  0  0  0  0  0  0  0  0  0
   28.4550   51.0640   -6.6600 C   0  0  0  0  0  0  0  0  0  0  0  0
   30.1020   51.8650   -5.0950 C   0  0  0  0  0  0  0  0  0  0  0  0
   28.4340   52.3190   -7.2780 C   0  0  0  0  0  0  0  0  0  0  0  0
   30.0820   53.1180   -5.7120 C   0  0  0  0  0  0  0  0  0  0  0  0
   29.2470   53.3440   -6.8030 C   0  0  0  0  0  0  0  0  0  0  0  0
  1  2  1  0
  2  3  2  0
  2  4  1  0
  3  5  1  0
  3  6  1  0
  4  7  2  0
  6  8  1  0
  5  9  1  0
  6 10  2  0
  7 10  1  0
  9 11  1  0
 11 12  1  0
 11 13  2  0
 12 14  2  3
 14 15  1  0
 14 16  1  0
 16 17  2  0
 16 18  1  0
 17 19  1  0
 18 20  2  0
 19 21  2  0
 20 21  1  0
 19 22  1  0
 22 23  2  0
 22 24  1  0
 23 25  1  0
 24 26  2  0
 25 27  2  0
 26 27  1  0
M  END
