mac-x0360-mac-x0572
     RDKit          3D

 24 26  0  0  0  0  0  0  0  0999 V2000
   31.5980   54.1730   -7.7560 Cl  0  0  0  0  0  0  0  0  0  0  0  0
   32.0210   52.7080   -6.9480 C   0  0  0  0  0  0  0  0  0  0  0  0
   33.0550   52.7240   -6.0170 C   0  0  0  0  0  0  0  0  0  0  0  0
   31.3330   51.5250   -7.2320 C   0  0  0  0  0  0  0  0  0  0  0  0
   31.6770   50.3300   -6.5770 C   0  0  0  0  0  0  0  0  0  0  0  0
   33.3980   51.5420   -5.3660 C   0  0  0  0  0  0  0  0  0  0  0  0
   34.6810   51.5580   -4.2140 Cl  0  0  0  0  0  0  0  0  0  0  0  0
   30.7390   48.8220   -7.0050 S   0  0  0  0  0  0  0  0  0  0  0  0
   32.7190   50.3540   -5.6380 C   0  0  0  0  0  0  0  0  0  0  0  0
   30.9880   48.1060   -5.5180 N   0  0  0  0  0  0  0  0  0  0  0  0
   29.1740   49.4020   -6.6370 N   0  0  0  0  0  0  0  0  0  0  0  0
   29.1100   50.6700   -6.1860 C   0  0  0  0  0  0  0  0  0  0  0  0
   28.6210   51.8060   -6.7250 C   0  0  0  0  0  0  0  0  0  0  0  0
   29.7100   50.7460   -4.8510 C   0  0  0  0  0  0  0  0  0  0  0  0
   28.7020   53.0870   -5.9880 C   0  0  0  0  0  0  0  0  0  0  0  0
   29.5780   51.8110   -4.0520 C   0  0  0  0  0  0  0  0  0  0  0  0
   28.7940   53.0140   -4.4770 C   0  0  1  0  0  0  0  0  0  0  0  0
   28.7020   54.2020   -6.6610 N   0  0  0  0  0  0  0  0  0  0  0  0
   28.8000   55.3990   -6.0000 C   0  0  0  0  0  0  0  0  0  0  0  0
   29.3210   54.3020   -3.8860 C   0  0  0  0  0  0  0  0  0  0  0  0
   28.5460   56.5700   -6.9150 C   0  0  0  0  0  0  0  0  0  0  0  0
   29.9060   54.3660   -2.8000 O   0  0  0  0  0  0  0  0  0  0  0  0
   29.0920   55.5430   -4.6900 C   0  0  0  0  0  0  0  0  0  0  0  0
   29.1940   56.7540   -4.0310 O   0  0  0  0  0  0  0  0  0  0  0  0
  1  2  1  0
  2  3  2  0
  2  4  1  0
  4  5  2  0
  3  6  1  0
  6  7  1  0
  5  8  1  0
  5  9  1  0
  6  9  2  0
  8 10  1  0
  8 11  2  3
 11 12  1  0
 12 13  2  0
 12 14  1  0
 13 15  1  0
 14 16  2  0
 15 17  1  0
 17 16  1  6
 15 18  2  0
 18 19  1  0
 17 20  1  0
 19 21  1  0
 20 22  2  0
 19 23  2  0
 20 23  1  0
 23 24  1  0
M  END
