mac-x0357-mac-x0161
     RDKit          3D

 30 33  0  0  0  0  0  0  0  0999 V2000
   32.1550   42.6600   -4.2110 C   0  0  0  0  0  0  0  0  0  0  0  0
   33.0950   43.8250   -4.3490 C   0  0  0  0  0  0  0  0  0  0  0  0
   34.2250   43.9180   -3.5190 C   0  0  0  0  0  0  0  0  0  0  0  0
   32.8850   44.8490   -5.2970 C   0  0  0  0  0  0  0  0  0  0  0  0
   34.4490   42.9360   -2.5940 O   0  0  0  0  0  0  0  0  0  0  0  0
   31.7350   44.8670   -6.2290 C   0  0  0  0  0  0  0  0  0  0  0  0
   33.7880   45.9190   -5.3950 C   0  0  0  0  0  0  0  0  0  0  0  0
   35.1210   44.9840   -3.6170 C   0  0  0  0  0  0  0  0  0  0  0  0
   30.6330   45.4720   -5.9850 N   0  0  0  0  0  0  0  0  0  0  0  0
   31.9940   44.1750   -7.3510 O   0  0  0  0  0  0  0  0  0  0  0  0
   34.9030   45.9870   -4.5580 C   0  0  0  0  0  0  0  0  0  0  0  0
   30.4370   46.2080   -4.7320 C   0  0  0  0  0  0  0  0  0  0  0  0
   30.6320   47.7430   -4.9690 C   0  0  1  0  0  0  0  0  0  0  0  0
   29.4120   48.5940   -4.7910 N   0  0  0  0  0  0  0  0  0  0  0  0
   31.7660   48.1740   -4.0700 C   0  0  0  0  0  0  0  0  0  0  0  0
   29.6030   49.7530   -3.9310 C   0  0  0  0  0  0  0  0  0  0  0  0
   28.7900   48.8980   -6.0890 C   0  0  2  0  0  0  0  0  0  0  0  0
   32.2760   47.7270   -2.8710 C   0  0  0  0  0  0  0  0  0  0  0  0
   32.4940   49.2470   -4.4930 O   0  0  0  0  0  0  0  0  0  0  0  0
   28.5730   50.7760   -4.0950 N   0  0  0  0  0  0  0  0  0  0  0  0
   28.8270   50.3510   -6.5580 C   0  0  2  0  0  0  0  0  0  0  0  0
   27.3690   48.5750   -6.1810 N   0  0  0  0  0  0  0  0  0  0  0  0
   33.4970   49.5210   -3.5730 N   0  0  0  0  0  0  0  0  0  0  0  0
   33.3460   48.6000   -2.6180 C   0  0  0  0  0  0  0  0  0  0  0  0
   34.1590   48.5490   -1.5400 O   0  0  0  0  0  0  0  0  0  0  0  0
   28.5690   51.3560   -5.4040 C   0  0  1  0  0  0  0  0  0  0  0  0
   27.8170   50.3730   -7.6600 N   0  0  0  0  0  0  0  0  0  0  0  0
   26.9160   49.2480   -7.3920 C   0  0  0  0  0  0  0  0  0  0  0  0
   27.2480   51.9530   -5.5060 N   0  0  0  0  0  0  0  0  0  0  0  0
   35.1820   47.5660   -1.6360 C   0  0  0  0  0  0  0  0  0  0  0  0
  1  2  1  0
  2  3  2  0
  2  4  1  0
  3  5  1  0
  4  6  1  0
  4  7  2  0
  3  8  1  0
  6  9  2  3
  6 10  1  0
  7 11  1  0
  8 11  2  0
  9 12  1  0
 13 12  1  1
 13 14  1  0
 13 15  1  0
 14 16  1  0
 14 17  1  0
 15 18  2  0
 15 19  1  0
 16 20  1  0
 17 21  1  0
 17 22  1  1
 19 23  1  0
 18 24  1  0
 23 24  2  0
 24 25  1  0
 20 26  1  0
 21 26  1  0
 21 27  1  6
 22 28  1  0
 27 28  1  0
 26 29  1  6
 25 30  1  0
M  END
