mac-x0193-mac-x0284
     RDKit          3D

 26 27  0  0  0  0  0  0  0  0999 V2000
   34.5230   45.0880   -6.5130 O   0  0  0  0  0  0  0  0  0  0  0  0
   33.2680   44.9610   -6.0360 C   0  0  0  0  0  0  0  0  0  0  0  0
   32.3440   45.1870   -6.9080 N   0  0  0  0  0  0  0  0  0  0  0  0
   33.2480   44.5820   -4.5620 C   0  0  0  0  0  0  0  0  0  0  0  0
   34.6330   44.5200   -4.0780 N   0  0  0  0  0  0  0  0  0  0  0  0
   30.9410   45.1070   -6.5180 C   0  0  0  0  0  0  0  0  0  0  0  0
   34.9840   43.6880   -3.0380 C   0  0  0  0  0  0  0  0  0  0  0  0
   30.5120   46.4550   -6.2250 N   0  0  0  0  0  0  0  0  0  0  0  0
   34.4860   42.5900   -2.8260 O   0  0  0  0  0  0  0  0  0  0  0  0
   35.9720   44.2670   -2.2700 N   0  0  0  0  0  0  0  0  0  0  0  0
   30.3690   46.7990   -5.0060 C   0  0  0  0  0  0  0  0  0  0  0  0
   30.5620   45.9850   -3.9510 O   0  0  0  0  0  0  0  0  0  0  0  0
   37.1830   43.5660   -1.8400 C   0  0  0  0  0  0  0  0  0  0  0  0
   29.9930   48.1410   -4.5330 C   0  0  0  0  0  0  0  0  0  0  0  0
   37.4550   42.2930   -2.6450 C   0  0  0  0  0  0  0  0  0  0  0  0
   37.1180   43.2720   -0.3320 C   0  0  0  0  0  0  0  0  0  0  0  0
   29.3170   49.0260   -5.3900 C   0  0  0  0  0  0  0  0  0  0  0  0
   30.3090   48.5480   -3.2340 C   0  0  0  0  0  0  0  0  0  0  0  0
   30.9660   47.7020   -2.3850 O   0  0  0  0  0  0  0  0  0  0  0  0
   38.6830   41.5320   -2.1210 C   0  0  0  0  0  0  0  0  0  0  0  0
   38.3150   42.4750    0.2000 C   0  0  0  0  0  0  0  0  0  0  0  0
   28.9610   50.3100   -4.9480 C   0  0  0  0  0  0  0  0  0  0  0  0
   29.9590   49.8190   -2.7880 C   0  0  0  0  0  0  0  0  0  0  0  0
   28.2400   51.2580   -5.8580 C   0  0  0  0  0  0  0  0  0  0  0  0
   39.3310   42.1690   -0.8910 C   0  0  0  0  0  0  0  0  0  0  0  0
   29.2870   50.6970   -3.6430 C   0  0  0  0  0  0  0  0  0  0  0  0
  1  2  1  0
  2  3  2  3
  2  4  1  0
  4  5  1  0
  3  6  1  0
  5  7  1  0
  6  8  1  0
  7  9  2  0
  7 10  1  0
  8 11  2  3
 11 12  1  0
 10 13  1  0
 11 14  1  0
 13 15  1  0
 13 16  1  0
 14 17  2  0
 14 18  1  0
 18 19  1  0
 15 20  1  0
 16 21  1  0
 17 22  1  0
 18 23  2  0
 22 24  1  0
 20 25  1  0
 21 25  1  0
 22 26  2  0
 23 26  1  0
M  END
