mac-x0567-mac-x0436
     RDKit          3D

 28 31  0  0  0  0  0  0  0  0999 V2000
   29.7140   47.8880   -8.1120 N   0  0  0  0  0  0  0  0  0  0  0  0
   29.2440   49.0700   -7.6550 C   0  0  0  0  0  0  0  0  0  0  0  0
   28.4640   49.8710   -8.4510 N   0  0  0  0  0  0  0  0  0  0  0  0
   29.3530   49.7640   -6.4680 C   0  0  0  0  0  0  0  0  0  0  0  0
   28.0620   51.0160   -7.8810 N   0  0  0  0  0  0  0  0  0  0  0  0
   28.5940   50.9880   -6.6470 C   0  0  0  0  0  0  0  0  0  0  0  0
   30.0500   49.3880   -5.3070 C   0  0  0  0  0  0  0  0  0  0  0  0
   30.8480   48.1470   -5.0550 C   0  0  0  0  0  0  0  0  0  0  0  0
   28.4910   51.9400   -5.6200 C   0  0  0  0  0  0  0  0  0  0  0  0
   29.9190   50.3780   -4.2950 C   0  0  0  0  0  0  0  0  0  0  0  0
   32.1490   48.3440   -4.2740 C   0  0  0  0  0  0  0  0  0  0  0  0
   29.1810   51.5900   -4.4400 C   0  0  0  0  0  0  0  0  0  0  0  0
   32.6930   47.0150   -3.9760 N   0  0  0  0  0  0  0  0  0  0  0  0
   33.9050   46.8210   -3.5640 C   0  0  0  0  0  0  0  0  0  0  0  0
   34.1890   45.3290   -3.3490 C   0  0  0  0  0  0  0  0  0  0  0  0
   34.9300   47.7060   -3.3070 N   0  0  0  0  0  0  0  0  0  0  0  0
   33.0650   44.3600   -3.6490 C   0  0  0  0  0  0  0  0  0  0  0  0
   36.1770   47.2100   -2.8570 C   0  0  0  0  0  0  0  0  0  0  0  0
   35.3390   44.8890   -2.9330 N   0  0  0  0  0  0  0  0  0  0  0  0
   33.2750   43.7000   -5.0130 C   0  0  0  0  0  0  0  0  0  0  0  0
   36.3580   45.8220   -2.6790 C   0  0  0  0  0  0  0  0  0  0  0  0
   37.2360   48.0810   -2.5880 C   0  0  0  0  0  0  0  0  0  0  0  0
   32.5980   44.4100   -6.1740 C   0  0  0  0  0  0  0  0  0  0  0  0
   37.5880   45.3380   -2.2350 C   0  0  0  0  0  0  0  0  0  0  0  0
   38.4610   47.5800   -2.1470 C   0  0  0  0  0  0  0  0  0  0  0  0
   33.4270   44.9980   -7.0550 O   0  0  0  0  0  0  0  0  0  0  0  0
   31.3790   44.4520   -6.3270 O   0  0  0  0  0  0  0  0  0  0  0  0
   38.6390   46.2100   -1.9690 C   0  0  0  0  0  0  0  0  0  0  0  0
  1  2  1  0
  2  3  1  0
  2  4  2  0
  3  5  1  0
  4  6  1  0
  5  6  2  0
  4  7  1  0
  7  8  1  0
  6  9  1  0
  7 10  2  0
  8 11  1  0
  9 12  2  0
 10 12  1  0
 11 13  1  0
 13 14  2  3
 14 15  1  0
 14 16  1  0
 15 17  1  0
 16 18  1  0
 15 19  2  0
 17 20  1  0
 18 21  2  0
 19 21  1  0
 18 22  1  0
 20 23  1  0
 21 24  1  0
 22 25  2  0
 23 26  1  0
 23 27  2  0
 24 28  2  0
 25 28  1  0
M  END
