mac-x0283-mac-x0398
     RDKit          3D

 14 15  0  0  0  0  0  0  0  0999 V2000
   28.5610   54.4360   -7.0490 N   0  0  0  0  0  0  0  0  0  0  0  0
   28.9760   53.9660   -5.8590 C   0  0  0  0  0  0  0  0  0  0  0  0
   29.2920   54.7390   -4.8160 N   0  0  0  0  0  0  0  0  0  0  0  0
   29.1330   52.5900   -5.5580 C   0  0  0  0  0  0  0  0  0  0  0  0
   29.6650   53.8730   -3.8030 O   0  0  0  0  0  0  0  0  0  0  0  0
   29.5700   52.5890   -4.2440 C   0  0  0  0  0  0  0  0  0  0  0  0
   28.9660   51.3560   -6.2160 C   0  0  0  0  0  0  0  0  0  0  0  0
   29.8600   51.4350   -3.5100 C   0  0  0  0  0  0  0  0  0  0  0  0
   29.2470   50.1750   -5.5130 C   0  0  0  0  0  0  0  0  0  0  0  0
   30.2870   51.5460   -2.2110 O   0  0  0  0  0  0  0  0  0  0  0  0
   29.6880   50.2080   -4.1760 C   0  0  0  0  0  0  0  0  0  0  0  0
   29.9810   48.9550   -3.4450 C   0  0  0  0  0  0  0  0  0  0  0  0
   30.2790   48.9010   -2.2640 O   0  0  0  0  0  0  0  0  0  0  0  0
   29.8910   47.8500   -4.2050 O   0  0  0  0  0  0  0  0  0  0  0  0
  1  2  1  0
  2  3  2  0
  2  4  1  0
  3  5  1  0
  4  6  2  0
  5  6  1  0
  4  7  1  0
  6  8  1  0
  7  9  2  0
  8 10  1  0
  8 11  2  0
  9 11  1  0
 11 12  1  0
 12 13  2  0
 12 14  1  0
M  END
