mac-x0361-mac-x0398
     RDKit          3D

 12 12  0  0  0  0  0  0  0  0999 V2000
   28.6720   53.9120   -6.3580 N   0  0  0  0  0  0  0  0  0  0  0  0
   29.3360   53.7070   -5.1790 C   0  0  0  0  0  0  0  0  0  0  0  0
   29.7290   54.6530   -4.5030 O   0  0  0  0  0  0  0  0  0  0  0  0
   29.5590   52.2970   -4.7550 C   0  0  0  0  0  0  0  0  0  0  0  0
   29.6240   51.3040   -5.7450 C   0  0  0  0  0  0  0  0  0  0  0  0
   29.7050   51.9450   -3.4050 C   0  0  0  0  0  0  0  0  0  0  0  0
   29.8310   49.9690   -5.3900 C   0  0  0  0  0  0  0  0  0  0  0  0
   29.9140   50.6090   -3.0470 C   0  0  0  0  0  0  0  0  0  0  0  0
   29.9740   49.6350   -4.0450 C   0  0  0  0  0  0  0  0  0  0  0  0
   30.1820   48.2870   -3.7300 O   0  0  0  0  0  0  0  0  0  0  0  0
   30.1910   48.0070   -2.3740 C   0  0  0  0  0  0  0  0  0  0  0  0
   30.9800   48.3930   -1.5250 O   0  0  0  0  0  0  0  0  0  0  0  0
  1  2  1  0
  2  3  2  0
  2  4  1  0
  4  5  2  0
  4  6  1  0
  5  7  1  0
  6  8  2  0
  7  9  2  0
  8  9  1  0
  9 10  1  0
 10 11  1  0
 11 12  2  0
M  END
