mac-x0328-mac-x0587
     RDKit          3D

 17 17  0  0  0  0  0  0  0  0999 V2000
   30.6510   47.2600   -2.6450 N   0  0  0  0  0  0  0  0  0  0  0  0
   30.4460   47.7400   -3.9660 S   0  0  0  0  0  0  0  0  0  0  0  0
   31.6810   48.4490   -3.8640 O   0  0  0  0  0  0  0  0  0  0  0  0
   30.7610   47.3280   -1.5100 O   0  0  0  0  0  0  0  0  0  0  0  0
   28.8420   47.3300   -3.9160 C   0  0  0  0  0  0  0  0  0  0  0  0
   31.2420   47.0200   -5.3520 S   0  0  0  0  0  0  0  0  0  0  0  0
   30.0110   49.5070   -4.2650 C   0  0  0  0  0  0  0  0  0  0  0  0
   32.7700   46.5140   -5.3570 C   0  0  0  0  0  0  0  0  0  0  0  0
   29.6190   50.0070   -5.4590 C   0  0  0  0  0  0  0  0  0  0  0  0
   30.1250   50.2950   -3.1790 C   0  0  0  0  0  0  0  0  0  0  0  0
   33.2600   45.6730   -6.4770 C   0  0  0  0  0  0  0  0  0  0  0  0
   29.3460   51.3860   -5.4940 C   0  0  0  0  0  0  0  0  0  0  0  0
   29.8490   51.6560   -3.2320 C   0  0  0  0  0  0  0  0  0  0  0  0
   34.4770   45.6100   -6.7080 O   0  0  0  0  0  0  0  0  0  0  0  0
   32.3990   44.9580   -7.2920 O   0  0  0  0  0  0  0  0  0  0  0  0
   29.4530   52.2260   -4.4100 C   0  0  0  0  0  0  0  0  0  0  0  0
   29.1760   53.5900   -4.4830 O   0  0  0  0  0  0  0  0  0  0  0  0
  1  2  1  0
  2  3  2  0
  1  4  2  0
  2  5  1  0
  2  6  1  0
  2  7  1  0
  6  8  1  0
  7  9  2  0
  7 10  1  0
  8 11  1  0
  9 12  1  0
 10 13  2  0
 11 14  2  0
 11 15  1  0
 12 16  2  0
 13 16  1  0
 16 17  1  0
M  END
