mac-x0358-mac-x0204
     RDKit          3D

 13 13  0  0  0  0  0  0  0  0999 V2000
   31.9750   44.5760   -6.8720 O   0  0  0  0  0  0  0  0  0  0  0  0
   31.9160   45.5630   -5.8740 C   0  0  0  0  0  0  0  0  0  0  0  0
   32.8000   46.5750   -6.2760 O   0  0  0  0  0  0  0  0  0  0  0  0
   32.3720   45.0090   -4.5020 C   0  0  0  0  0  0  0  0  0  0  0  0
   30.5840   46.0350   -5.8450 O   0  0  0  0  0  0  0  0  0  0  0  0
   32.2590   46.0150   -3.3740 C   0  0  0  0  0  0  0  0  0  0  0  0
   33.3170   46.8710   -3.0520 C   0  0  0  0  0  0  0  0  0  0  0  0
   31.0740   46.1130   -2.6240 C   0  0  0  0  0  0  0  0  0  0  0  0
   34.4740   46.7810   -3.7740 O   0  0  0  0  0  0  0  0  0  0  0  0
   33.2140   47.8010   -2.0180 C   0  0  0  0  0  0  0  0  0  0  0  0
   30.9720   47.0440   -1.5910 C   0  0  0  0  0  0  0  0  0  0  0  0
   29.8090   47.1070   -0.8880 O   0  0  0  0  0  0  0  0  0  0  0  0
   32.0320   47.8870   -1.2830 C   0  0  0  0  0  0  0  0  0  0  0  0
  2  1  1  0
  2  3  1  0
  2  4  1  0
  2  5  1  0
  4  6  1  0
  6  7  2  0
  6  8  1  0
  7  9  1  0
  7 10  1  0
  8 11  2  0
 11 12  1  0
 10 13  2  0
 11 13  1  0
M  END
