mac-x0341-mac-x0358
     RDKit          3D

 25 27  0  0  0  0  0  0  0  0999 V2000
   28.1690   54.8510   -7.2580 N   0  0  0  0  0  0  0  0  0  0  0  0
   28.5660   53.6500   -6.7660 C   0  0  0  0  0  0  0  0  0  0  0  0
   28.3370   52.5650   -7.4330 N   0  0  0  0  0  0  0  0  0  0  0  0
   29.2040   53.6460   -5.5590 N   0  0  0  0  0  0  0  0  0  0  0  0
   29.4820   52.4960   -4.8540 C   0  0  0  0  0  0  0  0  0  0  0  0
   28.7840   51.3460   -6.8900 C   0  0  0  0  0  0  0  0  0  0  0  0
   29.8040   52.5160   -3.6730 O   0  0  0  0  0  0  0  0  0  0  0  0
   29.3640   51.2400   -5.6240 C   0  0  0  0  0  0  0  0  0  0  0  0
   28.6460   50.1950   -7.6580 C   0  0  0  0  0  0  0  0  0  0  0  0
   29.0830   48.9620   -7.1810 C   0  0  0  0  0  0  0  0  0  0  0  0
   29.8140   49.9990   -5.1210 C   0  0  0  0  0  0  0  0  0  0  0  0
   29.6740   48.8430   -5.9200 C   0  0  0  0  0  0  0  0  0  0  0  0
   30.1400   47.4740   -5.4910 C   0  0  0  0  0  0  0  0  0  0  0  0
   30.6440   46.7120   -6.7330 C   0  0  0  0  0  0  0  0  0  0  0  0
   31.3120   45.4720   -6.4270 O   0  0  0  0  0  0  0  0  0  0  0  0
   32.5450   45.5580   -5.8600 C   0  0  0  0  0  0  0  0  0  0  0  0
   33.5410   46.0480   -6.3850 O   0  0  0  0  0  0  0  0  0  0  0  0
   32.5110   44.9610   -4.4780 C   0  0  0  0  0  0  0  0  0  0  0  0
   32.2900   45.9940   -3.4050 C   0  0  0  0  0  0  0  0  0  0  0  0
   33.2870   46.9030   -3.0400 C   0  0  0  0  0  0  0  0  0  0  0  0
   31.0530   46.0620   -2.7470 C   0  0  0  0  0  0  0  0  0  0  0  0
   34.5170   46.9010   -3.6320 O   0  0  0  0  0  0  0  0  0  0  0  0
   33.0680   47.8540   -2.0480 C   0  0  0  0  0  0  0  0  0  0  0  0
   30.8270   47.0140   -1.7510 C   0  0  0  0  0  0  0  0  0  0  0  0
   31.8360   47.9110   -1.4030 C   0  0  0  0  0  0  0  0  0  0  0  0
  1  2  1  0
  2  3  2  0
  2  4  1  0
  4  5  1  0
  3  6  1  0
  5  7  2  0
  5  8  1  0
  6  8  2  0
  6  9  1  0
  9 10  2  0
  8 11  1  0
 10 12  1  0
 11 12  2  0
 12 13  1  0
 13 14  1  0
 14 15  1  0
 15 16  1  0
 16 17  2  0
 16 18  1  0
 18 19  1  0
 19 20  2  0
 19 21  1  0
 20 22  1  0
 20 23  1  0
 21 24  2  0
 23 25  2  0
 24 25  1  0
M  END
