mac-x0398-mac-x0137
     RDKit          3D

 22 25  0  0  0  0  0  0  0  0999 V2000
   29.3950   54.0260   -7.0850 N   0  0  0  0  0  0  0  0  0  0  0  0
   29.6530   52.9110   -6.1680 C   0  0  2  0  0  0  0  0  0  0  0  0
   29.4410   51.5760   -6.8870 C   0  0  0  0  0  0  0  0  0  0  0  0
   28.7290   53.0210   -4.9570 C   0  0  0  0  0  0  0  0  0  0  0  0
   29.1100   52.0000   -3.8910 C   0  0  1  0  0  0  0  0  0  0  0  0
   29.2660   50.3500   -5.9190 C   0  0  1  0  0  0  0  0  0  0  0  0
   27.9290   51.6510   -3.1510 O   0  0  0  0  0  0  0  0  0  0  0  0
   29.7510   50.7100   -4.4590 C   0  0  2  0  0  0  0  0  0  0  0  0
   27.7570   49.9280   -5.9050 C   0  0  0  0  0  0  0  0  0  0  0  0
   30.0700   49.1010   -6.4180 C   0  0  1  0  0  0  0  0  0  0  0  0
   29.7670   49.4990   -3.4760 C   0  0  0  0  0  0  0  0  0  0  0  0
   30.0110   47.9420   -5.5080 N   0  0  0  0  0  0  0  0  0  0  0  0
   29.5830   48.6090   -7.6970 N   0  0  0  0  0  0  0  0  0  0  0  0
   27.3510   49.1150   -7.0580 N   0  0  0  0  0  0  0  0  0  0  0  0
   30.4930   49.8540   -2.2970 O   0  0  0  0  0  0  0  0  0  0  0  0
   28.4660   49.2050   -2.9900 O   0  0  0  0  0  0  0  0  0  0  0  0
   30.4440   48.2350   -4.1090 C   0  0  1  0  0  0  0  0  0  0  0  0
   30.6640   46.7440   -6.0680 C   0  0  0  0  0  0  0  0  0  0  0  0
   28.3110   49.1290   -8.1330 C   0  0  0  0  0  0  0  0  0  0  0  0
   31.9910   48.2930   -3.9390 C   0  0  0  0  0  0  0  0  0  0  0  0
   32.1870   46.8640   -5.9770 C   0  0  0  0  0  0  0  0  0  0  0  0
   32.6680   47.0760   -4.5480 C   0  0  0  0  0  0  0  0  0  0  0  0
  2  1  1  6
  2  3  1  0
  2  4  1  0
  4  5  1  0
  6  3  1  6
  5  7  1  6
  5  8  1  0
  6  8  1  0
  6  9  1  0
  6 10  1  0
  8 11  1  1
 10 12  1  0
 10 13  1  6
  9 14  1  0
 11 15  1  0
 11 16  1  0
 11 17  1  0
 12 17  1  0
 12 18  1  0
 13 19  1  0
 14 19  1  0
 17 20  1  6
 18 21  1  0
 20 22  1  0
 21 22  1  0
M  END
