mac-x0124-mac-x0142
     RDKit          3D

 18 21  0  0  0  0  0  0  0  0999 V2000
   32.8380   47.7340   -5.1470 C   0  0  0  0  0  0  0  0  0  0  0  0
   31.8140   48.7290   -5.3950 N   0  0  0  0  0  0  0  0  0  0  0  0
   31.3010   49.5310   -4.3790 C   0  0  0  0  0  0  0  0  0  0  0  0
   30.6410   48.3940   -6.2430 C   0  0  2  0  0  0  0  0  0  0  0  0
   30.1940   50.1760   -4.7770 C   0  0  0  0  0  0  0  0  0  0  0  0
   29.9270   49.7800   -6.2030 C   0  0  2  0  0  0  0  0  0  0  0  0
   29.6920   47.2140   -5.8600 C   0  0  2  0  0  0  0  0  0  0  0  0
   28.5050   49.6350   -6.7710 C   0  0  2  0  0  0  0  0  0  0  0  0
   28.5110   47.2140   -6.9120 C   0  0  0  0  0  0  0  0  0  0  0  0
   29.0770   47.3640   -4.4330 C   0  0  0  0  0  0  0  0  0  0  0  0
   30.4660   45.8690   -6.0540 C   0  0  0  0  0  0  0  0  0  0  0  0
   27.5060   49.4740   -5.7400 N   0  0  0  0  0  0  0  0  0  0  0  0
   28.3700   48.4790   -7.6410 N   0  0  0  0  0  0  0  0  0  0  0  0
   31.0370   45.1850   -4.8090 C   0  0  0  0  0  0  0  0  0  0  0  0
   29.9720   46.8670   -3.3030 C   0  0  0  0  0  0  0  0  0  0  0  0
   31.6100   43.7990   -5.0370 C   0  0  0  0  0  0  0  0  0  0  0  0
   32.5320   44.9360   -4.7410 C   0  0  0  0  0  0  0  0  0  0  0  0
   30.3100   45.4080   -3.5010 C   0  0  0  0  0  0  0  0  0  0  0  0
  1  2  1  0
  2  3  1  0
  4  2  1  1
  3  5  2  0
  4  6  1  0
  6  5  1  1
  4  7  1  0
  6  8  1  0
  7  9  1  6
  7 10  1  0
  7 11  1  0
  8 12  1  1
  8 13  1  0
  9 13  1  0
 14 11  1  0
 10 15  1  0
 14 16  1  0
 14 17  1  0
 16 17  1  0
 14 18  1  0
 15 18  1  0
M  END
