mac-x0190-mac-x0328
     RDKit          3D

 15 16  0  0  0  0  0  0  0  0999 V2000
   28.4670   56.8510   -5.6220 O   0  0  0  0  0  0  0  0  0  0  0  0
   29.4180   56.2630   -4.7520 C   0  0  0  0  0  0  0  0  0  0  0  0
   29.3520   54.7950   -4.9520 C   0  0  0  0  0  0  0  0  0  0  0  0
   29.8000   53.9380   -3.9900 N   0  0  0  0  0  0  0  0  0  0  0  0
   28.8970   54.1320   -5.9920 N   0  0  0  0  0  0  0  0  0  0  0  0
   29.6340   52.6550   -4.4390 C   0  0  0  0  0  0  0  0  0  0  0  0
   29.0660   52.8050   -5.6910 C   0  0  0  0  0  0  0  0  0  0  0  0
   29.9240   51.4160   -3.8810 C   0  0  0  0  0  0  0  0  0  0  0  0
   28.7600   51.6590   -6.4380 C   0  0  0  0  0  0  0  0  0  0  0  0
   30.4750   51.4110   -2.6460 O   0  0  0  0  0  0  0  0  0  0  0  0
   29.6360   50.2350   -4.6400 C   0  0  0  0  0  0  0  0  0  0  0  0
   29.0510   50.3980   -5.9040 C   0  0  0  0  0  0  0  0  0  0  0  0
   29.8860   48.7750   -4.2870 C   0  0  0  0  0  0  0  0  0  0  0  0
   30.4150   48.4840   -3.0820 O   0  0  0  0  0  0  0  0  0  0  0  0
   29.6380   47.8790   -5.0910 O   0  0  0  0  0  0  0  0  0  0  0  0
  1  2  1  0
  2  3  1  0
  3  4  1  0
  3  5  2  0
  4  6  1  0
  5  7  1  0
  6  7  2  0
  6  8  1  0
  7  9  1  0
  8 10  1  0
  8 11  2  0
  9 12  2  0
 11 12  1  0
 11 13  1  0
 13 14  1  0
 13 15  2  0
M  END
