mac-x0255-mac-x0347
     RDKit          3D

 26 29  0  0  0  0  0  0  0  0999 V2000
   30.7480   45.6550   -6.4600 N   0  0  0  0  0  0  0  0  0  0  0  0
   32.1020   45.7600   -6.2360 C   0  0  0  0  0  0  0  0  0  0  0  0
   32.8470   46.5290   -6.8440 O   0  0  0  0  0  0  0  0  0  0  0  0
   29.9110   46.5880   -6.1050 C   0  0  0  0  0  0  0  0  0  0  0  0
   32.6170   44.8190   -5.1540 C   0  0  0  0  0  0  0  0  0  0  0  0
   30.1170   47.8910   -5.4410 C   0  0  0  0  0  0  0  0  0  0  0  0
   31.5800   44.5920   -4.0930 C   0  0  0  0  0  0  0  0  0  0  0  0
   29.8790   49.1050   -6.0850 C   0  0  0  0  0  0  0  0  0  0  0  0
   30.5630   47.9250   -4.1240 C   0  0  0  0  0  0  0  0  0  0  0  0
   30.2580   44.2280   -4.2490 C   0  0  0  0  0  0  0  0  0  0  0  0
   31.9780   44.7820   -2.4430 S   0  0  0  0  0  0  0  0  0  0  0  0
   30.0880   50.3170   -5.4140 C   0  0  0  0  0  0  0  0  0  0  0  0
   30.7810   49.0690   -3.4340 N   0  0  0  0  0  0  0  0  0  0  0  0
   29.5520   44.1010   -3.0050 C   0  0  0  0  0  0  0  0  0  0  0  0
   30.3860   44.3810   -1.9220 C   0  0  0  0  0  0  0  0  0  0  0  0
   30.5390   50.2290   -4.0960 C   0  0  0  0  0  0  0  0  0  0  0  0
   29.8410   51.6090   -6.0690 C   0  0  0  0  0  0  0  0  0  0  0  0
   28.2060   43.7540   -2.7440 C   0  0  0  0  0  0  0  0  0  0  0  0
   29.9160   44.3230   -0.5960 C   0  0  0  0  0  0  0  0  0  0  0  0
   28.8390   51.7420   -7.0460 C   0  0  0  0  0  0  0  0  0  0  0  0
   30.5960   52.7500   -5.7410 C   0  0  0  0  0  0  0  0  0  0  0  0
   27.7340   43.6960   -1.4280 C   0  0  0  0  0  0  0  0  0  0  0  0
   28.5820   43.9780   -0.3670 C   0  0  0  0  0  0  0  0  0  0  0  0
   28.6000   52.9670   -7.6700 C   0  0  0  0  0  0  0  0  0  0  0  0
   30.3560   53.9750   -6.3650 C   0  0  0  0  0  0  0  0  0  0  0  0
   29.3590   54.0840   -7.3300 C   0  0  0  0  0  0  0  0  0  0  0  0
  1  2  1  0
  2  3  2  0
  1  4  2  3
  2  5  1  0
  4  6  1  0
  5  7  1  0
  6  8  2  0
  6  9  1  0
  7 10  2  0
  7 11  1  0
  8 12  1  0
  9 13  2  0
 10 14  1  0
 11 15  1  0
 14 15  2  0
 12 16  2  0
 13 16  1  0
 12 17  1  0
 14 18  1  0
 15 19  1  0
 17 20  2  0
 17 21  1  0
 18 22  2  0
 19 23  2  0
 22 23  1  0
 20 24  1  0
 21 25  2  0
 24 26  2  0
 25 26  1  0
M  END
