mac-x0226-mac-x0341
     RDKit          3D

 29 32  0  0  0  0  0  0  0  0999 V2000
   32.2660   45.4480   -7.0750 O   0  0  0  0  0  0  0  0  0  0  0  0
   32.8760   46.2510   -6.0900 C   0  0  0  0  0  0  0  0  0  0  0  0
   33.9300   46.9330   -6.7550 O   0  0  0  0  0  0  0  0  0  0  0  0
   31.8410   47.2800   -5.6130 C   0  0  0  0  0  0  0  0  0  0  0  0
   33.4120   45.4320   -4.9610 C   0  0  0  0  0  0  0  0  0  0  0  0
   30.4460   46.6770   -5.4040 C   0  0  0  0  0  0  0  0  0  0  0  0
   32.9150   44.2150   -4.4500 C   0  0  0  0  0  0  0  0  0  0  0  0
   34.5090   45.6870   -4.1650 C   0  0  0  0  0  0  0  0  0  0  0  0
   29.4980   47.6350   -4.6900 C   0  0  0  0  0  0  0  0  0  0  0  0
   33.6290   43.7470   -3.4270 N   0  0  0  0  0  0  0  0  0  0  0  0
   34.6150   44.6660   -3.2530 N   0  0  0  0  0  0  0  0  0  0  0  0
   35.5920   44.5220   -2.2360 C   0  0  0  0  0  0  0  0  0  0  0  0
   29.2610   48.9190   -5.4420 C   0  0  0  0  0  0  0  0  0  0  0  0
   36.4590   45.5780   -1.9340 C   0  0  0  0  0  0  0  0  0  0  0  0
   35.6890   43.3190   -1.5280 C   0  0  0  0  0  0  0  0  0  0  0  0
   28.8640   48.9040   -6.7850 C   0  0  0  0  0  0  0  0  0  0  0  0
   29.4380   50.1470   -4.8000 C   0  0  0  0  0  0  0  0  0  0  0  0
   37.4160   45.4270   -0.9280 C   0  0  0  0  0  0  0  0  0  0  0  0
   36.6480   43.1750   -0.5230 C   0  0  0  0  0  0  0  0  0  0  0  0
   29.2100   51.3330   -5.5030 C   0  0  0  0  0  0  0  0  0  0  0  0
   28.6400   50.1010   -7.4770 C   0  0  0  0  0  0  0  0  0  0  0  0
   37.5090   44.2280   -0.2250 C   0  0  0  0  0  0  0  0  0  0  0  0
   29.3850   52.6400   -4.8490 C   0  0  0  0  0  0  0  0  0  0  0  0
   28.8110   51.3320   -6.8370 C   0  0  0  0  0  0  0  0  0  0  0  0
   29.8170   52.7420   -3.7080 O   0  0  0  0  0  0  0  0  0  0  0  0
   29.0330   53.7300   -5.6090 N   0  0  0  0  0  0  0  0  0  0  0  0
   28.5720   52.5210   -7.5550 N   0  0  0  0  0  0  0  0  0  0  0  0
   28.6870   53.6500   -6.9240 C   0  0  0  0  0  0  0  0  0  0  0  0
   28.4610   54.8190   -7.5720 N   0  0  0  0  0  0  0  0  0  0  0  0
  2  1  1  0
  2  3  1  0
  2  4  1  0
  2  5  1  0
  4  6  1  0
  5  7  1  0
  5  8  2  0
  6  9  1  0
  7 10  2  0
  8 11  1  0
 10 11  1  0
 11 12  1  0
  9 13  1  0
 12 14  2  0
 12 15  1  0
 13 16  2  0
 13 17  1  0
 14 18  1  0
 15 19  2  0
 17 20  2  0
 16 21  1  0
 18 22  2  0
 19 22  1  0
 20 23  1  0
 20 24  1  0
 21 24  2  0
 23 25  2  0
 23 26  1  0
 24 27  1  0
 26 28  1  0
 27 28  2  0
 28 29  1  0
M  END
