mac-x0555-mac-x0576
     RDKit          3D

 19 21  0  0  0  0  0  0  0  0999 V2000
   29.4180   55.1500   -7.4030 N   0  0  0  0  0  0  0  0  0  0  0  0
   29.4580   54.2100   -6.3740 C   0  0  0  0  0  0  0  0  0  0  0  0
   29.7490   54.5980   -5.0780 C   0  0  0  0  0  0  0  0  0  0  0  0
   29.2030   52.8360   -6.6070 C   0  0  0  0  0  0  0  0  0  0  0  0
   29.2390   51.8920   -5.5450 C   0  0  0  0  0  0  0  0  0  0  0  0
   29.7960   53.7550   -4.0490 N   0  0  0  0  0  0  0  0  0  0  0  0
   29.5380   52.4530   -4.3210 C   0  0  0  0  0  0  0  0  0  0  0  0
   28.9460   50.3530   -5.6710 C   0  0  2  0  0  0  0  0  0  0  0  0
   29.5890   51.6180   -3.1540 C   0  0  0  0  0  0  0  0  0  0  0  0
   28.4150   49.8490   -4.3370 C   0  0  0  0  0  0  0  0  0  0  0  0
   30.0230   49.2380   -5.7730 C   0  0  0  0  0  0  0  0  0  0  0  0
   27.9740   50.0900   -6.8400 C   0  0  0  0  0  0  0  0  0  0  0  0
   30.2860   51.9250   -2.2460 O   0  0  0  0  0  0  0  0  0  0  0  0
   30.8910   49.0250   -4.9310 O   0  0  0  0  0  0  0  0  0  0  0  0
   28.7250   50.4240   -3.1660 C   0  0  0  0  0  0  0  0  0  0  0  0
   29.9430   48.3740   -6.8360 N   0  0  0  0  0  0  0  0  0  0  0  0
   28.6200   49.8040   -8.1420 N   0  0  0  0  0  0  0  0  0  0  0  0
   29.5680   48.7290   -8.1420 C   0  0  2  0  0  0  0  0  0  0  0  0
   29.0000   47.5860   -8.7770 N   0  0  0  0  0  0  0  0  0  0  0  0
  1  2  1  0
  2  3  2  0
  2  4  1  0
  4  5  2  0
  3  6  1  0
  5  7  1  0
  6  7  2  0
  5  8  1  0
  7  9  1  0
  8 10  1  1
  8 11  1  0
  8 12  1  0
  9 13  2  0
 11 14  2  0
  9 15  1  0
 10 15  2  0
 11 16  1  0
 12 17  1  0
 16 18  1  0
 17 18  1  0
 18 19  1  1
M  END
