mac-x0392-mac-x0139
     RDKit          3D

 18 20  0  0  0  0  0  0  0  0999 V2000
   30.9000   48.3260   -8.0750 N   0  0  0  0  0  0  0  0  0  0  0  0
   29.6560   48.2950   -7.2240 C   0  0  2  0  0  0  0  0  0  0  0  0
   28.6900   49.4400   -7.6550 C   0  0  2  0  0  0  0  0  0  0  0  0
   29.9680   48.2620   -5.7470 C   0  0  1  0  0  0  0  0  0  0  0  0
   28.9340   46.9750   -7.2480 C   0  0  2  0  0  0  0  0  0  0  0  0
   30.6450   46.8690   -5.6780 C   0  0  2  0  0  0  0  0  0  0  0  0
   29.9000   46.0810   -6.6580 O   0  0  0  0  0  0  0  0  0  0  0  0
   30.5340   49.5840   -5.3520 C   0  0  0  0  0  0  0  0  0  0  0  0
   28.7120   50.4770   -6.5940 N   0  0  0  0  0  0  0  0  0  0  0  0
   27.4380   48.8080   -8.0590 N   0  0  0  0  0  0  0  0  0  0  0  0
   28.4820   46.6460   -8.5820 N   0  0  0  0  0  0  0  0  0  0  0  0
   30.3820   46.2570   -4.4040 O   0  0  0  0  0  0  0  0  0  0  0  0
   32.1470   46.7070   -5.9410 C   0  0  0  0  0  0  0  0  0  0  0  0
   29.8580   50.6430   -5.8100 C   0  0  0  0  0  0  0  0  0  0  0  0
   27.6410   47.7440   -9.0630 C   0  0  0  0  0  0  0  0  0  0  0  0
   32.6960   45.3280   -5.6740 C   0  0  0  0  0  0  0  0  0  0  0  0
   32.0240   44.3960   -5.2510 O   0  0  0  0  0  0  0  0  0  0  0  0
   34.0160   45.1880   -5.9400 O   0  0  0  0  0  0  0  0  0  0  0  0
  2  1  1  6
  2  3  1  0
  2  4  1  0
  2  5  1  0
  4  6  1  0
  5  7  1  0
  6  7  1  0
  4  8  1  6
  3  9  1  1
  3 10  1  0
  5 11  1  6
  6 12  1  1
  6 13  1  0
  8 14  2  0
  9 14  1  0
 10 15  1  0
 11 15  1  0
 13 16  1  0
 16 17  2  0
 16 18  1  0
M  END
