mac-x0412-mac-x0231
     RDKit          3D

 27 30  0  0  0  0  0  0  0  0999 V2000
   29.2720   54.9270   -4.5330 O   0  0  0  0  0  0  0  0  0  0  0  0
   29.3800   53.9610   -5.2850 C   0  0  0  0  0  0  0  0  0  0  0  0
   28.8830   53.9670   -6.5730 N   0  0  0  0  0  0  0  0  0  0  0  0
   30.0850   52.6560   -4.8550 C   0  0  2  0  0  0  0  0  0  0  0  0
   29.1690   51.4890   -5.1850 C   0  0  0  0  0  0  0  0  0  0  0  0
   28.4070   52.8460   -7.0040 C   0  0  0  0  0  0  0  0  0  0  0  0
   30.5260   52.6810   -3.4200 C   0  0  0  0  0  0  0  0  0  0  0  0
   28.3440   51.5760   -6.2440 C   0  0  0  0  0  0  0  0  0  0  0  0
   29.2310   50.3190   -4.3100 C   0  0  0  0  0  0  0  0  0  0  0  0
   30.3930   51.6310   -2.6150 C   0  0  0  0  0  0  0  0  0  0  0  0
   29.8110   50.3910   -3.0830 C   0  0  0  0  0  0  0  0  0  0  0  0
   29.9110   49.2440   -2.1040 C   0  0  0  0  0  0  0  0  0  0  0  0
   30.4380   47.9700   -2.6920 C   0  0  0  0  0  0  0  0  0  0  0  0
   29.6380   46.8320   -2.6540 C   0  0  0  0  0  0  0  0  0  0  0  0
   31.7080   47.8990   -3.2790 C   0  0  0  0  0  0  0  0  0  0  0  0
   30.0940   45.6370   -3.2020 C   0  0  0  0  0  0  0  0  0  0  0  0
   32.1640   46.6990   -3.8310 C   0  0  0  0  0  0  0  0  0  0  0  0
   31.3490   45.5600   -3.7950 C   0  0  0  0  0  0  0  0  0  0  0  0
   29.2350   44.4440   -3.1560 C   0  0  0  0  0  0  0  0  0  0  0  0
   28.1140   44.4860   -2.6630 O   0  0  0  0  0  0  0  0  0  0  0  0
   31.7430   44.2510   -4.3650 C   0  0  0  0  0  0  0  0  0  0  0  0
   29.7700   43.3020   -3.6950 N   0  0  0  0  0  0  0  0  0  0  0  0
   33.0790   44.1070   -5.0620 C   0  0  0  0  0  0  0  0  0  0  0  0
   30.9800   43.1960   -4.3080 N   0  0  0  0  0  0  0  0  0  0  0  0
   33.1610   44.8580   -6.3590 C   0  0  0  0  0  0  0  0  0  0  0  0
   34.4020   45.3320   -6.5950 O   0  0  0  0  0  0  0  0  0  0  0  0
   32.2650   45.0630   -7.1620 O   0  0  0  0  0  0  0  0  0  0  0  0
  1  2  2  0
  2  3  1  0
  2  4  1  0
  4  5  1  0
  3  6  2  0
  4  7  1  1
  5  8  2  0
  6  8  1  0
  5  9  1  0
  7 10  2  0
  9 11  2  0
 10 11  1  0
 11 12  1  0
 12 13  1  0
 13 14  2  0
 13 15  1  0
 14 16  1  0
 15 17  2  0
 16 18  2  0
 17 18  1  0
 16 19  1  0
 19 20  2  0
 18 21  1  0
 19 22  1  0
 21 23  1  0
 21 24  2  0
 22 24  1  0
 23 25  1  0
 25 26  1  0
 25 27  2  0
M  END
