mac-x0345-mac-x0204
     RDKit          3D

 21 22  0  0  0  0  0  0  0  0999 V2000
   29.5600   54.6230   -4.8280 C   0  0  0  0  0  0  0  0  0  0  0  0
   29.4160   53.1420   -4.6260 C   0  0  0  0  0  0  0  0  0  0  0  0
   29.8270   52.6630   -3.4130 N   0  0  0  0  0  0  0  0  0  0  0  0
   28.8950   52.3100   -5.6170 C   0  0  0  0  0  0  0  0  0  0  0  0
   28.3180   52.9400   -7.3070 Br  0  0  0  0  0  0  0  0  0  0  0  0
   28.7950   50.9500   -5.3510 C   0  0  0  0  0  0  0  0  0  0  0  0
   29.7280   51.3340   -3.1630 C   0  0  0  0  0  0  0  0  0  0  0  0
   30.1400   50.7760   -1.9330 N   0  0  0  0  0  0  0  0  0  0  0  0
   29.2130   50.4630   -4.1160 C   0  0  0  0  0  0  0  0  0  0  0  0
   29.1100   50.3330   -0.9840 C   0  0  0  0  0  0  0  0  0  0  0  0
   28.8690   48.8010   -0.9940 C   0  0  0  0  0  0  0  0  0  0  0  0
   30.0190   47.9630   -0.7890 O   0  0  0  0  0  0  0  0  0  0  0  0
   30.7640   47.6290   -1.8750 C   0  0  0  0  0  0  0  0  0  0  0  0
   30.3070   46.9830   -3.0150 C   0  0  0  0  0  0  0  0  0  0  0  0
   32.1130   47.9800   -1.8290 C   0  0  0  0  0  0  0  0  0  0  0  0
   31.2000   46.7200   -4.0550 C   0  0  0  0  0  0  0  0  0  0  0  0
   33.0060   47.7360   -2.8220 N   0  0  0  0  0  0  0  0  0  0  0  0
   30.7630   46.0410   -5.2880 C   0  0  0  0  0  0  0  0  0  0  0  0
   32.5270   47.1070   -3.9220 C   0  0  0  0  0  0  0  0  0  0  0  0
   31.6710   46.1180   -6.2830 O   0  0  0  0  0  0  0  0  0  0  0  0
   29.6920   45.4720   -5.3950 O   0  0  0  0  0  0  0  0  0  0  0  0
  1  2  1  0
  2  3  2  0
  2  4  1  0
  4  5  1  0
  4  6  2  0
  3  7  1  0
  7  8  1  0
  6  9  1  0
  7  9  2  0
  8 10  1  0
 10 11  1  0
 11 12  1  0
 12 13  1  0
 13 14  2  0
 13 15  1  0
 14 16  1  0
 15 17  2  0
 16 18  1  0
 16 19  2  0
 17 19  1  0
 18 20  1  0
 18 21  2  0
M  END
