mac-x0341-mac-x0306
     RDKit          3D

 16 18  0  0  0  0  0  0  0  0999 V2000
   28.8440   54.0930   -9.8960 N   0  0  0  0  0  0  0  0  0  0  0  0
   28.9050   53.5630   -8.6500 C   0  0  0  0  0  0  0  0  0  0  0  0
   28.7230   52.2990   -8.4610 N   0  0  0  0  0  0  0  0  0  0  0  0
   29.1620   54.4160   -7.6280 N   0  0  0  0  0  0  0  0  0  0  0  0
   29.4130   53.9910   -6.3530 C   0  0  0  0  0  0  0  0  0  0  0  0
   28.8010   51.8380   -7.1700 C   0  0  0  0  0  0  0  0  0  0  0  0
   29.8520   54.7680   -5.5130 O   0  0  0  0  0  0  0  0  0  0  0  0
   29.1230   52.5710   -6.0880 C   0  0  0  0  0  0  0  0  0  0  0  0
   28.4920   50.4240   -7.0440 C   0  0  0  0  0  0  0  0  0  0  0  0
   28.7930   49.7420   -5.9300 C   0  0  0  0  0  0  0  0  0  0  0  0
   29.1770   51.9550   -4.7120 C   0  0  0  0  0  0  0  0  0  0  0  0
   29.4660   50.4250   -4.7660 C   0  0  0  0  0  0  0  0  0  0  0  0
   27.9800   52.1860   -3.8640 N   0  0  0  0  0  0  0  0  0  0  0  0
   30.2350   52.6030   -3.8910 N   0  0  0  0  0  0  0  0  0  0  0  0
   29.7020   53.0090   -2.6840 C   0  0  0  0  0  0  0  0  0  0  0  0
   28.3890   52.7690   -2.6650 C   0  0  0  0  0  0  0  0  0  0  0  0
  1  2  1  0
  2  3  2  0
  2  4  1  0
  4  5  1  0
  3  6  1  0
  5  7  2  0
  5  8  1  0
  6  8  2  0
  6  9  1  0
  9 10  2  0
  8 11  1  0
 10 12  1  0
 11 12  1  0
 11 13  1  0
 11 14  1  0
 14 15  1  0
 13 16  1  0
 15 16  2  0
M  END
