mac-x0142-mac-x0328
     RDKit          3D

 21 24  0  0  0  0  0  0  0  0999 V2000
   31.4650   50.0720   -3.3220 O   0  0  0  0  0  0  0  0  0  0  0  0
   30.1750   49.6690   -3.4030 C   0  0  0  0  0  0  0  0  0  0  0  0
   29.6160   49.1660   -2.4450 O   0  0  0  0  0  0  0  0  0  0  0  0
   29.5430   49.8760   -4.7100 C   0  0  0  0  0  0  0  0  0  0  0  0
   29.4070   48.9230   -5.7630 C   0  0  0  0  0  0  0  0  0  0  0  0
   28.9560   50.9990   -5.1770 C   0  0  0  0  0  0  0  0  0  0  0  0
   28.8590   52.1850   -4.5040 O   0  0  0  0  0  0  0  0  0  0  0  0
   28.6560   49.6830   -6.7990 C   0  0  0  0  0  0  0  0  0  0  0  0
   29.7600   47.6590   -6.0200 C   0  0  0  0  0  0  0  0  0  0  0  0
   28.4130   50.9190   -6.4440 N   0  0  0  0  0  0  0  0  0  0  0  0
   30.4820   46.8560   -5.1540 N   0  0  0  0  0  0  0  0  0  0  0  0
   29.3770   47.1550   -7.2440 N   0  0  0  0  0  0  0  0  0  0  0  0
   28.2900   49.1220   -7.9900 N   0  0  0  0  0  0  0  0  0  0  0  0
   31.7480   47.3550   -4.5910 C   0  0  0  0  0  0  0  0  0  0  0  0
   30.2360   45.4160   -5.0190 C   0  0  0  0  0  0  0  0  0  0  0  0
   28.6690   47.8910   -8.1460 C   0  0  0  0  0  0  0  0  0  0  0  0
   31.5480   44.7590   -4.6300 C   0  0  0  0  0  0  0  0  0  0  0  0
   32.0700   46.7610   -3.2230 C   0  0  0  0  0  0  0  0  0  0  0  0
   31.7820   43.3070   -5.0090 C   0  0  0  0  0  0  0  0  0  0  0  0
   32.5060   44.3940   -5.7490 C   0  0  0  0  0  0  0  0  0  0  0  0
   32.1490   45.2460   -3.3230 C   0  0  0  0  0  0  0  0  0  0  0  0
  1  2  1  0
  2  3  2  0
  2  4  1  0
  4  5  1  0
  4  6  2  0
  6  7  1  0
  5  8  1  0
  5  9  2  0
  6 10  1  0
  8 10  2  0
  9 11  1  0
  9 12  1  0
  8 13  1  0
 11 14  1  0
 11 15  1  0
 12 16  1  0
 13 16  2  0
 17 15  1  0
 14 18  1  0
 17 19  1  0
 17 20  1  0
 19 20  1  0
 17 21  1  0
 18 21  1  0
M  END
