mac-x0306-mac-x0137
     RDKit          3D

 27 31  0  0  0  0  0  0  0  0999 V2000
   31.8170   49.4990   -3.3420 O   0  0  0  0  0  0  0  0  0  0  0  0
   31.4280   48.6620   -4.4430 C   0  0  1  0  0  0  0  0  0  0  0  0
   32.0450   47.2700   -4.2960 C   0  0  0  0  0  0  0  0  0  0  0  0
   31.3610   50.7950   -3.6010 N   0  0  0  0  0  0  0  0  0  0  0  0
   30.4010   51.3360   -2.7620 C   0  0  0  0  0  0  0  0  0  0  0  0
   31.4820   51.2820   -4.8920 C   0  0  0  0  0  0  0  0  0  0  0  0
   29.9020   48.5540   -4.4590 C   0  0  0  0  0  0  0  0  0  0  0  0
   29.4930   52.2370   -3.1740 C   0  0  0  0  0  0  0  0  0  0  0  0
   30.6340   52.1790   -5.4220 C   0  0  0  0  0  0  0  0  0  0  0  0
   29.4450   47.6390   -5.5240 N   0  0  0  0  0  0  0  0  0  0  0  0
   31.5400   46.3040   -5.3660 C   0  0  0  0  0  0  0  0  0  0  0  0
   29.4620   52.7290   -4.6170 C   0  0  0  0  0  0  0  0  0  0  0  0
   30.0150   46.2760   -5.4600 C   0  0  0  0  0  0  0  0  0  0  0  0
   28.7960   48.1090   -6.6740 C   0  0  0  0  0  0  0  0  0  0  0  0
   29.3530   54.2300   -4.7160 C   0  0  0  0  0  0  0  0  0  0  0  0
   28.9430   47.4450   -7.8840 N   0  0  0  0  0  0  0  0  0  0  0  0
   28.0000   49.2000   -6.7360 C   0  0  0  0  0  0  0  0  0  0  0  0
   29.1440   54.8750   -5.9130 N   0  0  0  0  0  0  0  0  0  0  0  0
   29.4380   55.1070   -3.7320 N   0  0  0  0  0  0  0  0  0  0  0  0
   28.3440   47.8590   -9.0370 C   0  0  0  0  0  0  0  0  0  0  0  0
   27.3740   49.5940   -8.0240 C   0  0  0  0  0  0  0  0  0  0  0  0
   27.5220   50.2080   -5.8360 C   0  0  0  0  0  0  0  0  0  0  0  0
   29.2790   56.3380   -4.3130 C   0  0  0  0  0  0  0  0  0  0  0  0
   29.0950   56.2160   -5.6690 C   0  0  0  0  0  0  0  0  0  0  0  0
   27.5730   48.8860   -9.1740 N   0  0  0  0  0  0  0  0  0  0  0  0
   26.6340   50.6660   -7.9200 N   0  0  0  0  0  0  0  0  0  0  0  0
   26.7450   51.0140   -6.5830 C   0  0  0  0  0  0  0  0  0  0  0  0
  2  1  1  1
  2  3  1  0
  1  4  1  0
  4  5  1  0
  4  6  1  0
  2  7  1  0
  5  8  2  0
  6  9  2  0
  7 10  1  0
  3 11  1  0
  8 12  1  0
  9 12  1  0
 10 13  1  0
 11 13  1  0
 10 14  1  0
 12 15  1  0
 14 16  1  0
 14 17  2  0
 15 18  1  0
 15 19  2  0
 16 20  1  0
 17 21  1  0
 17 22  1  0
 19 23  1  0
 18 24  1  0
 23 24  2  0
 20 25  2  0
 21 25  1  0
 21 26  2  0
 22 27  2  0
 26 27  1  0
M  END
