mac-x0283-mac-x0357
     RDKit          3D

 23 25  0  0  0  0  0  0  0  0999 V2000
   28.9680   54.8430   -6.6580 N   0  0  0  0  0  0  0  0  0  0  0  0
   29.1850   54.0010   -5.6280 C   0  0  0  0  0  0  0  0  0  0  0  0
   29.6360   54.3800   -4.4290 N   0  0  0  0  0  0  0  0  0  0  0  0
   28.9640   52.6030   -5.6890 C   0  0  0  0  0  0  0  0  0  0  0  0
   29.7190   53.2190   -3.6750 O   0  0  0  0  0  0  0  0  0  0  0  0
   29.3180   52.1600   -4.4260 C   0  0  0  0  0  0  0  0  0  0  0  0
   28.5170   51.6610   -6.6310 C   0  0  0  0  0  0  0  0  0  0  0  0
   29.2640   50.8300   -4.0150 C   0  0  0  0  0  0  0  0  0  0  0  0
   28.4480   50.3110   -6.2530 C   0  0  0  0  0  0  0  0  0  0  0  0
   28.8160   49.8940   -4.9600 C   0  0  0  0  0  0  0  0  0  0  0  0
   28.7300   48.4270   -4.5850 C   0  0  0  0  0  0  0  0  0  0  0  0
   29.6770   47.5440   -5.4030 C   0  0  0  0  0  0  0  0  0  0  0  0
   30.7730   47.0610   -4.5580 N   0  0  0  0  0  0  0  0  0  0  0  0
   31.7600   46.4420   -5.0860 C   0  0  0  0  0  0  0  0  0  0  0  0
   31.7410   46.2570   -6.4150 O   0  0  0  0  0  0  0  0  0  0  0  0
   32.9780   45.8550   -4.5110 C   0  0  0  0  0  0  0  0  0  0  0  0
   33.1180   44.4650   -4.3200 C   0  0  0  0  0  0  0  0  0  0  0  0
   33.9980   46.7490   -4.1620 C   0  0  0  0  0  0  0  0  0  0  0  0
   32.0300   43.4990   -4.6930 C   0  0  0  0  0  0  0  0  0  0  0  0
   35.1850   46.2720   -3.6110 C   0  0  0  0  0  0  0  0  0  0  0  0
   34.3270   44.0160   -3.7640 C   0  0  0  0  0  0  0  0  0  0  0  0
   34.5930   42.6950   -3.5260 O   0  0  0  0  0  0  0  0  0  0  0  0
   35.3460   44.9030   -3.4140 C   0  0  0  0  0  0  0  0  0  0  0  0
  1  2  1  0
  2  3  2  0
  2  4  1  0
  3  5  1  0
  4  6  2  0
  5  6  1  0
  4  7  1  0
  6  8  1  0
  7  9  2  0
  8 10  2  0
  9 10  1  0
 10 11  1  0
 11 12  1  0
 12 13  1  0
 13 14  2  3
 14 15  1  0
 14 16  1  0
 16 17  2  0
 16 18  1  0
 17 19  1  0
 18 20  2  0
 17 21  1  0
 21 22  1  0
 20 23  1  0
 21 23  2  0
M  END
