mac-x0354-mac-x0124
     RDKit          3D

 28 31  0  0  0  0  0  0  0  0999 V2000
   35.3460   43.6010   -1.5030 C   0  0  0  0  0  0  0  0  0  0  0  0
   34.7090   43.7170   -2.7950 N   0  0  0  0  0  0  0  0  0  0  0  0
   33.8470   42.7600   -3.1800 N   0  0  0  0  0  0  0  0  0  0  0  0
   34.8760   44.7230   -3.7240 C   0  0  0  0  0  0  0  0  0  0  0  0
   33.4500   43.1610   -4.3880 C   0  0  0  0  0  0  0  0  0  0  0  0
   34.0500   44.3730   -4.7900 C   0  0  0  0  0  0  0  0  0  0  0  0
   35.7600   45.8680   -3.5270 C   0  0  0  0  0  0  0  0  0  0  0  0
   33.8520   45.0940   -6.0320 C   0  0  0  0  0  0  0  0  0  0  0  0
   37.1520   45.6920   -3.5200 C   0  0  0  0  0  0  0  0  0  0  0  0
   35.2330   47.1500   -3.3420 C   0  0  0  0  0  0  0  0  0  0  0  0
   32.7370   45.4090   -6.5730 N   0  0  0  0  0  0  0  0  0  0  0  0
   34.9820   45.4630   -6.6750 O   0  0  0  0  0  0  0  0  0  0  0  0
   37.9990   46.7850   -3.3290 C   0  0  0  0  0  0  0  0  0  0  0  0
   36.0830   48.2420   -3.1520 C   0  0  0  0  0  0  0  0  0  0  0  0
   31.4490   45.0740   -5.9870 C   0  0  0  0  0  0  0  0  0  0  0  0
   37.4650   48.0580   -3.1460 C   0  0  0  0  0  0  0  0  0  0  0  0
   31.2840   45.7940   -4.6520 C   0  0  0  0  0  0  0  0  0  0  0  0
   29.8390   46.2230   -4.4270 C   0  0  0  0  0  0  0  0  0  0  0  0
   29.6320   47.6210   -4.7660 N   0  0  0  0  0  0  0  0  0  0  0  0
   29.8780   48.6850   -3.9320 C   0  0  0  0  0  0  0  0  0  0  0  0
   29.1610   48.0730   -5.9720 C   0  0  0  0  0  0  0  0  0  0  0  0
   29.5580   49.8380   -4.6200 C   0  0  0  0  0  0  0  0  0  0  0  0
   29.1020   49.4600   -5.9160 C   0  0  0  0  0  0  0  0  0  0  0  0
   28.8190   47.3030   -7.0200 N   0  0  0  0  0  0  0  0  0  0  0  0
   28.6420   50.1160   -7.0650 C   0  0  0  0  0  0  0  0  0  0  0  0
   28.3930   48.0420   -8.0580 C   0  0  0  0  0  0  0  0  0  0  0  0
   28.5270   51.4970   -7.1700 N   0  0  0  0  0  0  0  0  0  0  0  0
   28.2870   49.3840   -8.1410 N   0  0  0  0  0  0  0  0  0  0  0  0
  1  2  1  0
  2  3  1  0
  2  4  1  0
  3  5  2  0
  4  6  2  0
  5  6  1  0
  4  7  1  0
  6  8  1  0
  7  9  2  0
  7 10  1  0
  8 11  2  3
  8 12  1  0
  9 13  1  0
 10 14  2  0
 11 15  1  0
 13 16  2  0
 14 16  1  0
 15 17  1  0
 17 18  1  0
 18 19  1  0
 19 20  1  0
 19 21  1  0
 20 22  2  0
 21 23  2  0
 22 23  1  0
 21 24  1  0
 23 25  1  0
 24 26  2  0
 25 27  1  0
 25 28  2  0
 26 28  1  0
M  END
