mac-x0396-mac-x0402
     RDKit          3D

 15 16  0  0  0  0  0  0  0  0999 V2000
   27.9530   50.8950   -7.3480 N   0  0  0  0  0  0  0  0  0  0  0  0
   28.1830   50.9040   -6.0010 C   0  0  0  0  0  0  0  0  0  0  0  0
   27.4910   50.1820   -5.2790 O   0  0  0  0  0  0  0  0  0  0  0  0
   29.3120   51.8180   -5.4390 C   0  0  2  0  0  0  0  0  0  0  0  0
   29.4270   51.8560   -3.8780 C   0  0  2  0  0  0  0  0  0  0  0  0
   28.9740   53.2520   -5.9180 C   0  0  0  0  0  0  0  0  0  0  0  0
   30.5990   51.1830   -5.9580 C   0  0  0  0  0  0  0  0  0  0  0  0
   28.1660   53.4420   -7.0350 N   0  0  0  0  0  0  0  0  0  0  0  0
   30.3670   52.8840   -3.3660 N   0  0  0  0  0  0  0  0  0  0  0  0
   29.4790   54.2850   -5.2240 C   0  0  0  0  0  0  0  0  0  0  0  0
   29.7570   50.4980   -3.3190 C   0  0  0  0  0  0  0  0  0  0  0  0
   31.1830   50.1890   -5.2580 C   0  0  0  0  0  0  0  0  0  0  0  0
   30.3310   53.9870   -4.0450 C   0  0  0  0  0  0  0  0  0  0  0  0
   30.6060   49.7160   -4.0100 C   0  0  0  0  0  0  0  0  0  0  0  0
   31.0360   48.1460   -3.4430 Cl  0  0  0  0  0  0  0  0  0  0  0  0
  1  2  1  0
  2  3  2  0
  4  2  1  1
  4  5  1  0
  4  6  1  0
  4  7  1  0
  6  8  1  0
  5  9  1  0
  6 10  2  0
  5 11  1  6
  7 12  2  0
  9 13  2  0
 10 13  1  0
 11 14  2  0
 12 14  1  0
 14 15  1  0
M  END
