mac-x0139-mac-x0510
     RDKit          3D

 17 18  0  0  0  0  0  0  0  0999 V2000
   30.1470   47.1730   -4.3210 C   0  0  0  0  0  0  0  0  0  0  0  0
   29.9800   46.7610   -5.7110 N   0  0  0  0  0  0  0  0  0  0  0  0
   30.6380   45.4880   -6.0720 C   0  0  0  0  0  0  0  0  0  0  0  0
   29.3540   47.5340   -6.6880 C   0  0  0  0  0  0  0  0  0  0  0  0
   32.1070   45.4990   -5.6530 C   0  0  0  0  0  0  0  0  0  0  0  0
   29.2400   48.9990   -6.6630 C   0  0  0  0  0  0  0  0  0  0  0  0
   28.8160   46.9260   -7.7180 N   0  0  0  0  0  0  0  0  0  0  0  0
   32.9210   44.6000   -6.5480 C   0  0  0  0  0  0  0  0  0  0  0  0
   28.5630   49.6700   -7.7490 C   0  0  0  0  0  0  0  0  0  0  0  0
   28.1890   47.6470   -8.7040 C   0  0  0  0  0  0  0  0  0  0  0  0
   29.6060   50.0060   -5.8740 C   0  0  0  0  0  0  0  0  0  0  0  0
   32.4970   43.6070   -7.1170 O   0  0  0  0  0  0  0  0  0  0  0  0
   34.2050   45.0110   -6.6700 O   0  0  0  0  0  0  0  0  0  0  0  0
   28.0510   48.9310   -8.7560 N   0  0  0  0  0  0  0  0  0  0  0  0
   28.4960   50.9540   -7.6770 N   0  0  0  0  0  0  0  0  0  0  0  0
   29.1360   51.2540   -6.5060 C   0  0  0  0  0  0  0  0  0  0  0  0
   29.3210   52.3570   -6.0130 O   0  0  0  0  0  0  0  0  0  0  0  0
  1  2  1  0
  2  3  1  0
  2  4  1  0
  3  5  1  0
  4  6  1  0
  4  7  2  0
  5  8  1  0
  6  9  1  0
  7 10  1  0
  6 11  2  0
  8 12  2  0
  8 13  1  0
  9 14  1  0
 10 14  2  0
  9 15  2  0
 11 16  1  0
 15 16  1  0
 16 17  2  0
M  END
