mac-x0394
     RDKit          3D

 12 12  0  0  0  0  0  0  0  0999 V2000
   23.7210   50.1940   -3.9850 Cl  0  0  0  0  0  0  0  0  0  0  0  0
   25.9540   54.7970   -2.7700 Cl  0  0  0  0  0  0  0  0  0  0  0  0
   29.1260   53.4010   -7.4740 O   0  0  0  0  0  0  0  0  0  0  0  0
   28.0730   52.6930   -7.4200 C   0  0  0  0  0  0  0  0  0  0  0  0
   27.1380   52.6790   -8.2390 O   0  0  0  0  0  0  0  0  0  0  0  0
   28.0930   51.6770   -6.2690 C   0  0  0  0  0  0  0  0  0  0  0  0
   27.0080   51.9170   -5.2500 C   0  0  0  0  0  0  0  0  0  0  0  0
   25.9720   50.9980   -5.1240 C   0  0  0  0  0  0  0  0  0  0  0  0
   25.0060   51.3220   -4.2450 C   0  0  0  0  0  0  0  0  0  0  0  0
   24.9930   52.4250   -3.5080 C   0  0  0  0  0  0  0  0  0  0  0  0
   25.9510   53.3130   -3.6780 C   0  0  0  0  0  0  0  0  0  0  0  0
   26.9460   53.0760   -4.5890 C   0  0  0  0  0  0  0  0  0  0  0  0
  3  4  1  0
  4  5  2  0
  4  6  1  0
  6  7  1  0
  7  8  2  0
  1  9  1  0
  8  9  1  0
  9 10  2  0
  2 11  1  0
 10 11  1  0
  7 12  1  0
 11 12  2  0
M  END
