mac-x0204-mac-x0455
     RDKit          3D

 19 20  0  0  0  0  0  0  0  0999 V2000
   30.8660   44.9170   -4.7930 O   0  0  0  0  0  0  0  0  0  0  0  0
   30.6630   46.2920   -4.4890 C   0  0  0  0  0  0  0  0  0  0  0  0
   29.2990   46.5540   -4.8330 O   0  0  0  0  0  0  0  0  0  0  0  0
   31.6150   47.2500   -5.3460 C   0  0  1  0  0  0  0  0  0  0  0  0
   30.8170   46.5090   -2.9890 C   0  0  0  0  0  0  0  0  0  0  0  0
   31.4820   46.9930   -6.8550 C   0  0  0  0  0  0  0  0  0  0  0  0
   31.2050   48.6260   -5.1530 O   0  0  0  0  0  0  0  0  0  0  0  0
   29.7990   47.0610   -2.2000 C   0  0  0  0  0  0  0  0  0  0  0  0
   31.9980   46.1640   -2.3260 C   0  0  0  0  0  0  0  0  0  0  0  0
   33.0760   47.1270   -4.8570 C   0  0  0  0  0  0  0  0  0  0  0  0
   29.9950   47.2400   -0.8350 C   0  0  0  0  0  0  0  0  0  0  0  0
   32.2150   46.3270   -0.9970 N   0  0  0  0  0  0  0  0  0  0  0  0
   33.7900   48.2260   -4.3450 C   0  0  0  0  0  0  0  0  0  0  0  0
   33.7450   45.8880   -4.9090 C   0  0  0  0  0  0  0  0  0  0  0  0
   28.9820   47.7780   -0.1030 O   0  0  0  0  0  0  0  0  0  0  0  0
   31.2060   46.8640   -0.2820 C   0  0  0  0  0  0  0  0  0  0  0  0
   35.1110   48.0920   -3.9060 C   0  0  0  0  0  0  0  0  0  0  0  0
   35.0650   45.7560   -4.4690 C   0  0  0  0  0  0  0  0  0  0  0  0
   35.7470   46.8560   -3.9680 C   0  0  0  0  0  0  0  0  0  0  0  0
  2  1  1  0
  2  3  1  0
  2  4  1  0
  2  5  1  0
  4  6  1  6
  4  7  1  0
  5  8  2  0
  5  9  1  0
  4 10  1  0
  8 11  1  0
  9 12  2  0
 10 13  2  0
 10 14  1  0
 11 15  1  0
 11 16  2  0
 12 16  1  0
 13 17  1  0
 14 18  2  0
 17 19  2  0
 18 19  1  0
M  END
