mac-x0358-mac-x0344
     RDKit          3D

 18 19  0  0  0  0  0  0  0  0999 V2000
   31.5230   45.3330   -6.8600 O   0  0  0  0  0  0  0  0  0  0  0  0
   32.5290   45.4880   -5.9750 C   0  0  0  0  0  0  0  0  0  0  0  0
   33.5420   46.0860   -6.3090 O   0  0  0  0  0  0  0  0  0  0  0  0
   32.2650   44.8660   -4.5960 C   0  0  2  0  0  0  0  0  0  0  0  0
   31.1480   43.9920   -4.5760 O   0  0  0  0  0  0  0  0  0  0  0  0
   32.1060   45.8800   -3.4890 C   0  0  0  0  0  0  0  0  0  0  0  0
   33.1810   46.6740   -3.1350 C   0  0  0  0  0  0  0  0  0  0  0  0
   30.8950   46.0480   -2.7990 C   0  0  0  0  0  0  0  0  0  0  0  0
   34.3290   46.4640   -3.8360 O   0  0  0  0  0  0  0  0  0  0  0  0
   33.0850   47.6310   -2.1160 C   0  0  0  0  0  0  0  0  0  0  0  0
   30.7840   47.0000   -1.7790 C   0  0  0  0  0  0  0  0  0  0  0  0
   31.8810   47.7930   -1.4370 C   0  0  0  0  0  0  0  0  0  0  0  0
   35.4820   46.8130   -3.2210 C   0  0  0  0  0  0  0  0  0  0  0  0
   36.2240   45.7980   -2.6190 C   0  0  0  0  0  0  0  0  0  0  0  0
   35.9120   48.1280   -3.1890 C   0  0  0  0  0  0  0  0  0  0  0  0
   37.4160   46.1150   -1.9770 C   0  0  0  0  0  0  0  0  0  0  0  0
   37.0990   48.4460   -2.5500 C   0  0  0  0  0  0  0  0  0  0  0  0
   37.8510   47.4420   -1.9420 C   0  0  0  0  0  0  0  0  0  0  0  0
  1  2  1  0
  2  3  2  0
  2  4  1  0
  4  5  1  6
  4  6  1  0
  6  7  2  0
  6  8  1  0
  7  9  1  0
  7 10  1  0
  8 11  2  0
 10 12  2  0
 11 12  1  0
  9 13  1  0
 13 14  2  0
 13 15  1  0
 14 16  1  0
 15 17  2  0
 16 18  2  0
 17 18  1  0
M  END
