mac-x0564-mac-x0496
     RDKit          3D

 27 30  0  0  0  0  0  0  0  0999 V2000
   30.4350   47.0390   -7.6290 O   0  0  0  0  0  0  0  0  0  0  0  0
   30.5040   47.1580   -6.4120 C   0  0  0  0  0  0  0  0  0  0  0  0
   30.8420   46.1030   -5.5650 N   0  0  0  0  0  0  0  0  0  0  0  0
   30.2480   48.3840   -5.6930 C   0  0  0  0  0  0  0  0  0  0  0  0
   30.0450   48.4500   -4.3440 C   0  0  0  0  0  0  0  0  0  0  0  0
   30.6240   46.2380   -4.2930 C   0  0  0  0  0  0  0  0  0  0  0  0
   30.1730   49.6280   -6.2440 O   0  0  0  0  0  0  0  0  0  0  0  0
   30.0840   47.3150   -3.6260 N   0  0  0  0  0  0  0  0  0  0  0  0
   29.9180   50.4920   -5.2070 C   0  0  0  0  0  0  0  0  0  0  0  0
   29.8260   49.8010   -3.9940 C   0  0  0  0  0  0  0  0  0  0  0  0
   29.5630   50.5440   -2.8210 C   0  0  0  0  0  0  0  0  0  0  0  0
   29.7680   51.8770   -5.3350 C   0  0  0  0  0  0  0  0  0  0  0  0
   29.4560   49.8390   -1.5210 C   0  0  0  0  0  0  0  0  0  0  0  0
   29.4080   51.9410   -2.9160 C   0  0  0  0  0  0  0  0  0  0  0  0
   29.5110   52.5970   -4.1550 C   0  0  0  0  0  0  0  0  0  0  0  0
   29.3510   54.0790   -4.2380 C   0  0  0  0  0  0  0  0  0  0  0  0
   28.5550   49.0610   -1.2540 O   0  0  0  0  0  0  0  0  0  0  0  0
   30.4460   50.1390   -0.6550 O   0  0  0  0  0  0  0  0  0  0  0  0
   28.6610   54.5950   -5.3110 N   0  0  0  0  0  0  0  0  0  0  0  0
   29.8330   54.7860   -3.3630 O   0  0  0  0  0  0  0  0  0  0  0  0
   28.9730   55.9300   -5.8000 C   0  0  0  0  0  0  0  0  0  0  0  0
   27.7920   56.8220   -5.6470 C   0  0  0  0  0  0  0  0  0  0  0  0
   27.8360   57.7420   -4.6400 O   0  0  0  0  0  0  0  0  0  0  0  0
   26.6780   56.8690   -6.3530 N   0  0  0  0  0  0  0  0  0  0  0  0
   25.9950   57.8870   -5.7330 C   0  0  0  0  0  0  0  0  0  0  0  0
   26.6340   58.4510   -4.7010 N   0  0  0  0  0  0  0  0  0  0  0  0
   24.6580   58.3280   -6.1710 C   0  0  0  0  0  0  0  0  0  0  0  0
  1  2  2  0
  2  3  1  0
  2  4  1  0
  4  5  2  0
  3  6  2  0
  4  7  1  0
  5  8  1  0
  6  8  1  0
  7  9  1  0
  5 10  1  0
  9 10  2  0
 10 11  1  0
  9 12  1  0
 11 13  1  0
 11 14  2  0
 12 15  2  0
 14 15  1  0
 15 16  1  0
 13 17  2  0
 13 18  1  0
 16 19  1  0
 16 20  2  0
 19 21  1  0
 21 22  1  0
 22 23  1  0
 22 24  2  0
 24 25  1  0
 23 26  1  0
 25 26  2  0
 25 27  1  0
M  END
