mac-x0375-mac-x0348
     RDKit          3D

 22 24  0  0  0  0  0  0  0  0999 V2000
   31.8000   45.2280   -6.7570 O   0  0  0  0  0  0  0  0  0  0  0  0
   32.8560   45.4410   -5.9500 C   0  0  0  0  0  0  0  0  0  0  0  0
   33.9890   45.3850   -6.4150 O   0  0  0  0  0  0  0  0  0  0  0  0
   32.4980   45.7370   -4.4910 C   0  0  2  0  0  0  0  0  0  0  0  0
   33.4260   45.1420   -3.5570 O   0  0  0  0  0  0  0  0  0  0  0  0
   30.9860   45.3490   -4.3250 C   0  0  0  0  0  0  0  0  0  0  0  0
   34.6000   45.8590   -3.3960 C   0  0  0  0  0  0  0  0  0  0  0  0
   30.1450   45.6100   -3.0700 C   0  0  0  0  0  0  0  0  0  0  0  0
   35.9080   45.3490   -3.3370 C   0  0  0  0  0  0  0  0  0  0  0  0
   34.4100   47.2420   -3.2850 C   0  0  0  0  0  0  0  0  0  0  0  0
   29.1280   44.7470   -2.6930 C   0  0  0  0  0  0  0  0  0  0  0  0
   30.1520   46.6630   -2.0710 C   0  0  0  0  0  0  0  0  0  0  0  0
   36.9950   46.2200   -3.1710 C   0  0  0  0  0  0  0  0  0  0  0  0
   35.4900   48.1050   -3.1190 C   0  0  0  0  0  0  0  0  0  0  0  0
   28.5390   45.2010   -1.5550 N   0  0  0  0  0  0  0  0  0  0  0  0
   29.1330   46.3670   -1.1390 C   0  0  0  0  0  0  0  0  0  0  0  0
   30.9090   47.8390   -1.8510 C   0  0  0  0  0  0  0  0  0  0  0  0
   27.4400   44.5320   -0.8900 C   0  0  0  0  0  0  0  0  0  0  0  0
   36.7860   47.5970   -3.0610 C   0  0  0  0  0  0  0  0  0  0  0  0
   30.6370   48.6540   -0.7410 C   0  0  0  0  0  0  0  0  0  0  0  0
   28.8580   47.1770   -0.0260 C   0  0  0  0  0  0  0  0  0  0  0  0
   29.6270   48.3280    0.1590 C   0  0  0  0  0  0  0  0  0  0  0  0
  1  2  1  0
  2  3  2  0
  2  4  1  0
  4  5  1  0
  4  6  1  1
  5  7  1  0
  6  8  1  0
  7  9  2  0
  7 10  1  0
  8 11  2  0
  8 12  1  0
  9 13  1  0
 10 14  2  0
 11 15  1  0
 12 16  2  0
 15 16  1  0
 12 17  1  0
 15 18  1  0
 13 19  2  0
 14 19  1  0
 17 20  2  0
 16 21  1  0
 20 22  1  0
 21 22  2  0
M  END
