mac-x0204-mac-x0568
     RDKit          3D

 22 23  0  0  0  0  0  0  0  0999 V2000
   32.1590   46.1070   -6.2140 O   0  0  0  0  0  0  0  0  0  0  0  0
   31.0700   46.5420   -5.4050 C   0  0  0  0  0  0  0  0  0  0  0  0
   30.0750   45.5270   -5.4400 O   0  0  0  0  0  0  0  0  0  0  0  0
   30.4730   47.7860   -6.0900 C   0  0  0  0  0  0  0  0  0  0  0  0
   31.5520   46.7490   -3.9750 C   0  0  0  0  0  0  0  0  0  0  0  0
   29.0370   48.0790   -5.6410 C   0  0  0  0  0  0  0  0  0  0  0  0
   30.7440   46.5770   -2.8400 C   0  0  0  0  0  0  0  0  0  0  0  0
   32.8790   47.1350   -3.7370 C   0  0  0  0  0  0  0  0  0  0  0  0
   28.5740   49.3820   -6.1160 N   0  0  0  0  0  0  0  0  0  0  0  0
   31.2750   46.7890   -1.5700 C   0  0  0  0  0  0  0  0  0  0  0  0
   33.4200   47.3470   -2.5150 N   0  0  0  0  0  0  0  0  0  0  0  0
   30.5290   46.6370   -0.4410 O   0  0  0  0  0  0  0  0  0  0  0  0
   28.0680   50.4260   -5.3780 C   0  0  0  0  0  0  0  0  0  0  0  0
   32.6010   47.1690   -1.4550 C   0  0  0  0  0  0  0  0  0  0  0  0
   27.1190   50.2400   -4.6210 O   0  0  0  0  0  0  0  0  0  0  0  0
   28.6540   51.7730   -5.4840 C   0  0  0  0  0  0  0  0  0  0  0  0
   29.2030   52.3570   -4.3530 C   0  0  0  0  0  0  0  0  0  0  0  0
   28.6820   52.4950   -6.6760 C   0  0  0  0  0  0  0  0  0  0  0  0
   29.7670   53.5920   -4.3370 N   0  0  0  0  0  0  0  0  0  0  0  0
   29.2570   53.7670   -6.6850 C   0  0  0  0  0  0  0  0  0  0  0  0
   29.7860   54.2800   -5.5030 C   0  0  0  0  0  0  0  0  0  0  0  0
   30.4080   55.6440   -5.4870 C   0  0  0  0  0  0  0  0  0  0  0  0
  2  1  1  0
  2  3  1  0
  2  4  1  0
  2  5  1  0
  4  6  1  0
  5  7  2  0
  5  8  1  0
  6  9  1  0
  7 10  1  0
  8 11  2  0
 10 12  1  0
  9 13  1  0
 10 14  2  0
 11 14  1  0
 13 15  2  0
 13 16  1  0
 16 17  2  0
 16 18  1  0
 17 19  1  0
 18 20  2  0
 19 21  2  0
 20 21  1  0
 21 22  1  0
M  END
