mac-x0116-mac-x0301
     RDKit          3D

 19 21  0  0  0  0  0  0  0  0999 V2000
   29.3620   53.2340   -6.2520 C   0  0  0  0  0  0  0  0  0  0  0  0
   29.0010   51.9180   -6.7570 N   0  0  0  0  0  0  0  0  0  0  0  0
   29.3200   50.7250   -6.1170 C   0  0  0  0  0  0  0  0  0  0  0  0
   30.6090   53.8040   -6.8370 C   0  0  0  0  0  0  0  0  0  0  0  0
   31.7660   53.6080   -6.1410 O   0  0  0  0  0  0  0  0  0  0  0  0
   30.8700   54.5240   -7.9860 C   0  0  0  0  0  0  0  0  0  0  0  0
   32.2620   54.7800   -7.9920 C   0  0  0  0  0  0  0  0  0  0  0  0
   32.7620   54.2020   -6.8490 C   0  0  0  0  0  0  0  0  0  0  0  0
   29.6320   50.6940   -4.7710 N   0  0  0  0  0  0  0  0  0  0  0  0
   29.3200   49.5820   -6.8270 C   0  0  0  0  0  0  0  0  0  0  0  0
   29.9260   49.5520   -4.2230 C   0  0  0  0  0  0  0  0  0  0  0  0
   29.6540   48.3250   -6.1740 C   0  0  0  0  0  0  0  0  0  0  0  0
   29.0530   49.3140   -8.1440 N   0  0  0  0  0  0  0  0  0  0  0  0
   29.9640   48.3270   -4.8480 N   0  0  0  0  0  0  0  0  0  0  0  0
   29.5850   47.3670   -7.0530 N   0  0  0  0  0  0  0  0  0  0  0  0
   29.2210   48.0250   -8.2190 C   0  0  0  0  0  0  0  0  0  0  0  0
   30.4770   47.2480   -4.1420 C   0  0  0  0  0  0  0  0  0  0  0  0
   30.1490   46.0260   -4.6100 O   0  0  0  0  0  0  0  0  0  0  0  0
   31.1910   47.3030   -3.1480 O   0  0  0  0  0  0  0  0  0  0  0  0
  1  2  1  0
  2  3  1  0
  1  4  1  0
  4  5  1  0
  4  6  2  0
  6  7  1  0
  5  8  1  0
  7  8  2  0
  3  9  1  0
  3 10  2  0
  9 11  2  0
 10 12  1  0
 10 13  1  0
 11 14  1  0
 12 14  1  0
 12 15  2  0
 13 16  2  0
 15 16  1  0
 14 17  1  0
 17 18  1  0
 17 19  2  0
M  END
