mac-x0509-mac-x0131
     RDKit          3D

 29 33  0  0  0  0  0  0  0  0999 V2000
   37.9120   47.2600   -5.6300 O   0  0  0  0  0  0  0  0  0  0  0  0
   37.8280   46.1600   -5.1120 C   0  0  0  0  0  0  0  0  0  0  0  0
   36.8900   45.0020   -5.5010 C   0  0  2  0  0  0  0  0  0  0  0  0
   38.5790   45.6950   -4.0400 N   0  0  0  0  0  0  0  0  0  0  0  0
   35.5530   45.4680   -6.0920 C   0  0  0  0  0  0  0  0  0  0  0  0
   36.8750   44.2000   -4.2240 C   0  0  0  0  0  0  0  0  0  0  0  0
   37.9070   44.6610   -3.4060 C   0  0  0  0  0  0  0  0  0  0  0  0
   36.0530   43.1690   -3.8110 C   0  0  0  0  0  0  0  0  0  0  0  0
   38.1630   44.1230   -2.1650 C   0  0  0  0  0  0  0  0  0  0  0  0
   34.4490   45.8510   -5.1500 C   0  0  0  0  0  0  0  0  0  0  0  0
   36.2930   42.6060   -2.5510 C   0  0  0  0  0  0  0  0  0  0  0  0
   37.3400   43.0800   -1.7380 C   0  0  0  0  0  0  0  0  0  0  0  0
   33.0540   45.7730   -5.4190 C   0  0  0  0  0  0  0  0  0  0  0  0
   34.5430   46.3480   -3.8640 C   0  0  0  0  0  0  0  0  0  0  0  0
   32.3970   46.2250   -4.2940 C   0  0  0  0  0  0  0  0  0  0  0  0
   33.3090   46.5770   -3.3410 O   0  0  0  0  0  0  0  0  0  0  0  0
   30.9620   46.3890   -3.9520 C   0  0  0  0  0  0  0  0  0  0  0  0
   30.4730   47.7130   -4.3380 N   0  0  0  0  0  0  0  0  0  0  0  0
   30.5760   48.8760   -3.5930 C   0  0  0  0  0  0  0  0  0  0  0  0
   29.8310   47.9760   -5.5250 C   0  0  0  0  0  0  0  0  0  0  0  0
   31.2250   48.9100   -2.2500 C   0  0  0  0  0  0  0  0  0  0  0  0
   29.9840   49.8980   -4.3280 C   0  0  0  0  0  0  0  0  0  0  0  0
   29.5110   49.3260   -5.5570 C   0  0  0  0  0  0  0  0  0  0  0  0
   29.5610   47.0720   -6.4860 N   0  0  0  0  0  0  0  0  0  0  0  0
   29.8560   51.3290   -3.9290 C   0  0  0  0  0  0  0  0  0  0  0  0
   28.8450   49.7830   -6.7080 C   0  0  0  0  0  0  0  0  0  0  0  0
   28.9260   47.6250   -7.5290 C   0  0  0  0  0  0  0  0  0  0  0  0
   28.4490   51.1000   -6.9160 N   0  0  0  0  0  0  0  0  0  0  0  0
   28.5580   48.9090   -7.6940 N   0  0  0  0  0  0  0  0  0  0  0  0
  1  2  2  0
  2  3  1  0
  2  4  1  0
  3  5  1  1
  3  6  1  0
  4  7  1  0
  6  7  2  0
  6  8  1  0
  7  9  1  0
  5 10  1  0
  8 11  2  0
  9 12  2  0
 11 12  1  0
 10 13  1  0
 10 14  2  0
 13 15  2  0
 14 16  1  0
 15 16  1  0
 15 17  1  0
 17 18  1  0
 18 19  1  0
 18 20  1  0
 19 21  1  0
 19 22  2  0
 20 23  2  0
 22 23  1  0
 20 24  1  0
 22 25  1  0
 23 26  1  0
 24 27  2  0
 26 28  1  0
 26 29  2  0
 27 29  1  0
M  END
