mac-x0255-mac-x0398
     RDKit          3D

 25 27  0  0  0  0  0  0  0  0999 V2000
   31.4800   44.6840   -7.0760 O   0  0  0  0  0  0  0  0  0  0  0  0
   32.5070   45.5150   -6.8020 C   0  0  0  0  0  0  0  0  0  0  0  0
   33.0150   46.1620   -7.7050 O   0  0  0  0  0  0  0  0  0  0  0  0
   32.8930   45.5060   -5.3390 C   0  0  0  0  0  0  0  0  0  0  0  0
   31.7040   45.4640   -4.4070 C   0  0  0  0  0  0  0  0  0  0  0  0
   30.6050   46.3120   -4.3000 C   0  0  0  0  0  0  0  0  0  0  0  0
   31.6270   44.1960   -3.2650 S   0  0  0  0  0  0  0  0  0  0  0  0
   30.3470   47.5360   -5.1430 C   0  0  0  0  0  0  0  0  0  0  0  0
   29.6920   45.8890   -3.2510 C   0  0  0  0  0  0  0  0  0  0  0  0
   30.1430   44.7410   -2.6060 C   0  0  0  0  0  0  0  0  0  0  0  0
   29.4750   48.4510   -4.4580 O   0  0  0  0  0  0  0  0  0  0  0  0
   28.4660   46.4490   -2.8090 C   0  0  0  0  0  0  0  0  0  0  0  0
   29.4180   44.1540   -1.5510 C   0  0  0  0  0  0  0  0  0  0  0  0
   30.0670   49.5070   -3.8460 C   0  0  0  0  0  0  0  0  0  0  0  0
   27.7420   45.8710   -1.7630 C   0  0  0  0  0  0  0  0  0  0  0  0
   28.2190   44.7310   -1.1400 C   0  0  0  0  0  0  0  0  0  0  0  0
   30.7880   49.4810   -2.8610 O   0  0  0  0  0  0  0  0  0  0  0  0
   29.6830   50.7310   -4.5730 C   0  0  0  0  0  0  0  0  0  0  0  0
   29.6520   51.9730   -3.9350 C   0  0  0  0  0  0  0  0  0  0  0  0
   29.3440   50.6480   -5.9320 C   0  0  0  0  0  0  0  0  0  0  0  0
   29.9800   52.0740   -2.6090 O   0  0  0  0  0  0  0  0  0  0  0  0
   29.2860   53.1230   -4.6410 C   0  0  0  0  0  0  0  0  0  0  0  0
   28.9800   51.8010   -6.6330 C   0  0  0  0  0  0  0  0  0  0  0  0
   28.9480   53.0430   -5.9970 C   0  0  0  0  0  0  0  0  0  0  0  0
   28.5850   54.1940   -6.7040 N   0  0  0  0  0  0  0  0  0  0  0  0
  1  2  1  0
  2  3  2  0
  2  4  1  0
  4  5  1  0
  5  6  2  0
  5  7  1  0
  6  8  1  0
  6  9  1  0
  7 10  1  0
  9 10  2  0
  8 11  1  0
  9 12  1  0
 10 13  1  0
 11 14  1  0
 12 15  2  0
 13 16  2  0
 15 16  1  0
 14 17  2  0
 14 18  1  0
 18 19  2  0
 18 20  1  0
 19 21  1  0
 19 22  1  0
 20 23  2  0
 22 24  2  0
 23 24  1  0
 24 25  1  0
M  END
