mac-x0190-mac-x0115
     RDKit          3D

 27 30  0  0  0  0  0  0  0  0999 V2000
   28.5920   56.5460   -5.4710 O   0  0  0  0  0  0  0  0  0  0  0  0
   29.7930   56.0020   -4.9270 C   0  0  0  0  0  0  0  0  0  0  0  0
   29.6900   54.5140   -4.9480 C   0  0  0  0  0  0  0  0  0  0  0  0
   29.1470   53.8120   -3.9020 N   0  0  0  0  0  0  0  0  0  0  0  0
   30.0810   53.6900   -5.9100 N   0  0  0  0  0  0  0  0  0  0  0  0
   29.2060   52.4880   -4.2330 C   0  0  0  0  0  0  0  0  0  0  0  0
   29.7880   52.4310   -5.4600 C   0  0  0  0  0  0  0  0  0  0  0  0
   28.7580   51.4160   -3.4620 C   0  0  0  0  0  0  0  0  0  0  0  0
   30.0470   51.1340   -6.1560 C   0  0  0  0  0  0  0  0  0  0  0  0
   28.8670   50.1850   -4.0170 C   0  0  0  0  0  0  0  0  0  0  0  0
   29.4640   49.8600   -5.4000 C   0  0  1  0  0  0  0  0  0  0  0  0
   28.4960   49.2320   -6.3390 N   0  0  0  0  0  0  0  0  0  0  0  0
   30.4670   48.6700   -5.1050 C   0  0  0  0  0  0  0  0  0  0  0  0
   28.8950   47.8370   -6.6430 C   0  0  2  0  0  0  0  0  0  0  0  0
   30.3200   47.6800   -6.2630 C   0  0  2  0  0  0  0  0  0  0  0  0
   30.7030   46.2540   -6.2500 N   0  0  0  0  0  0  0  0  0  0  0  0
   28.8200   47.3770   -8.0710 C   0  0  0  0  0  0  0  0  0  0  0  0
   31.1800   45.6390   -4.9770 C   0  0  0  0  0  0  0  0  0  0  0  0
   28.3080   47.9950   -9.0070 O   0  0  0  0  0  0  0  0  0  0  0  0
   30.2160   45.4880   -7.3180 C   0  0  0  0  0  0  0  0  0  0  0  0
   29.4290   46.1550   -8.2420 N   0  0  0  0  0  0  0  0  0  0  0  0
   30.1770   44.7070   -4.2700 C   0  0  0  0  0  0  0  0  0  0  0  0
   30.4730   43.8570   -7.6160 S   0  0  0  0  0  0  0  0  0  0  0  0
   30.0780   45.0670   -2.8870 O   0  0  0  0  0  0  0  0  0  0  0  0
   28.8880   44.6430   -2.2130 C   0  0  0  0  0  0  0  0  0  0  0  0
   27.9580   45.8150   -1.9150 C   0  0  0  0  0  0  0  0  0  0  0  0
   28.1710   43.6050   -3.0630 C   0  0  0  0  0  0  0  0  0  0  0  0
  1  2  1  0
  2  3  1  0
  3  4  1  0
  3  5  2  0
  4  6  1  0
  5  7  1  0
  6  7  2  0
  6  8  1  0
  7  9  1  0
  8 10  2  0
 11  9  1  6
 11 10  1  0
 11 12  1  0
 11 13  1  0
 14 12  1  6
 15 13  1  1
 14 15  1  0
 15 16  1  0
 14 17  1  0
 16 18  1  0
 17 19  2  0
 16 20  1  0
 17 21  1  0
 20 21  1  0
 18 22  1  0
 20 23  2  0
 22 24  1  0
 24 25  1  0
 25 26  1  0
 25 27  1  0
M  END
