mac-x0411-mac-x0385
     RDKit          3D

 24 25  0  0  0  0  0  0  0  0999 V2000
   37.2380   44.1950   -4.1880 Cl  0  0  0  0  0  0  0  0  0  0  0  0
   36.5830   45.6590   -3.5420 C   0  0  0  0  0  0  0  0  0  0  0  0
   35.2080   45.8180   -3.2870 C   0  0  0  0  0  0  0  0  0  0  0  0
   37.4780   46.6980   -3.2740 C   0  0  0  0  0  0  0  0  0  0  0  0
   34.3060   44.8060   -3.5460 O   0  0  0  0  0  0  0  0  0  0  0  0
   34.7600   47.0400   -2.7520 C   0  0  0  0  0  0  0  0  0  0  0  0
   37.0190   47.9020   -2.7490 C   0  0  0  0  0  0  0  0  0  0  0  0
   33.0950   47.3410   -2.3920 Cl  0  0  0  0  0  0  0  0  0  0  0  0
   33.1960   45.1970   -4.3670 C   0  0  0  0  0  0  0  0  0  0  0  0
   35.6600   48.0720   -2.4870 C   0  0  0  0  0  0  0  0  0  0  0  0
   33.2500   44.9040   -5.8670 C   0  0  0  0  0  0  0  0  0  0  0  0
   32.0040   45.0000   -6.4080 O   0  0  0  0  0  0  0  0  0  0  0  0
   34.2660   44.6250   -6.4910 O   0  0  0  0  0  0  0  0  0  0  0  0
   31.4030   46.3050   -6.3880 C   0  0  0  0  0  0  0  0  0  0  0  0
   29.9220   46.1630   -6.0430 C   0  0  0  0  0  0  0  0  0  0  0  0
   29.0840   47.3530   -6.5200 C   0  0  0  0  0  0  0  0  0  0  0  0
   29.0950   48.4640   -5.5070 C   0  0  0  0  0  0  0  0  0  0  0  0
   28.8520   49.7160   -5.9460 N   0  0  0  0  0  0  0  0  0  0  0  0
   29.3460   48.1460   -4.2250 N   0  0  0  0  0  0  0  0  0  0  0  0
   28.8650   50.7040   -5.0440 C   0  0  0  0  0  0  0  0  0  0  0  0
   29.3500   49.1660   -3.3520 C   0  0  0  0  0  0  0  0  0  0  0  0
   28.6090   51.9930   -5.5320 N   0  0  0  0  0  0  0  0  0  0  0  0
   29.1140   50.4810   -3.6990 C   0  0  0  0  0  0  0  0  0  0  0  0
   29.1330   51.5650   -2.6720 C   0  0  0  0  0  0  0  0  0  0  0  0
  1  2  1  0
  2  3  2  0
  2  4  1  0
  3  5  1  0
  3  6  1  0
  4  7  2  0
  6  8  1  0
  5  9  1  0
  6 10  2  0
  7 10  1  0
  9 11  1  0
 11 12  1  0
 11 13  2  0
 12 14  1  0
 14 15  1  0
 15 16  1  0
 16 17  1  0
 17 18  2  0
 17 19  1  0
 18 20  1  0
 19 21  2  0
 20 22  1  0
 20 23  2  0
 21 23  1  0
 23 24  1  0
M  END
