mac-x0360-mac-x0565
     RDKit          3D

 23 25  0  0  0  0  0  0  0  0999 V2000
   32.3280   55.4900   -6.4060 Cl  0  0  0  0  0  0  0  0  0  0  0  0
   32.3560   53.7380   -6.1670 C   0  0  0  0  0  0  0  0  0  0  0  0
   33.4670   53.0870   -5.7290 C   0  0  0  0  0  0  0  0  0  0  0  0
   31.2420   52.9630   -6.4190 C   0  0  0  0  0  0  0  0  0  0  0  0
   31.2250   51.5710   -6.2450 C   0  0  0  0  0  0  0  0  0  0  0  0
   33.5620   51.7380   -5.5230 C   0  0  0  0  0  0  0  0  0  0  0  0
   34.9890   50.9160   -4.9630 Cl  0  0  0  0  0  0  0  0  0  0  0  0
   29.7170   50.8350   -6.6310 S   0  0  0  0  0  0  0  0  0  0  0  0
   32.3920   51.0350   -5.8040 C   0  0  0  0  0  0  0  0  0  0  0  0
   30.3730   49.5550   -7.1360 N   0  0  0  0  0  0  0  0  0  0  0  0
   28.9750   51.1990   -5.1550 C   0  0  0  0  0  0  0  0  0  0  0  0
   29.4550   52.1750   -7.8210 O   0  0  0  0  0  0  0  0  0  0  0  0
   27.7120   50.5340   -5.1040 O   0  0  0  0  0  0  0  0  0  0  0  0
   28.6220   52.5050   -4.8680 O   0  0  0  0  0  0  0  0  0  0  0  0
   29.7080   50.7280   -3.9470 C   0  0  0  0  0  0  0  0  0  0  0  0
   30.2850   51.6270   -3.0820 C   0  0  0  0  0  0  0  0  0  0  0  0
   29.8520   49.3870   -3.6280 C   0  0  0  0  0  0  0  0  0  0  0  0
   30.5340   48.9590   -2.5090 C   0  0  0  0  0  0  0  0  0  0  0  0
   30.9690   51.2140   -1.9580 C   0  0  0  0  0  0  0  0  0  0  0  0
   29.3760   48.2760   -4.3170 O   0  0  0  0  0  0  0  0  0  0  0  0
   31.0970   49.8810   -1.6660 C   0  0  0  0  0  0  0  0  0  0  0  0
   30.4720   47.5740   -2.5180 O   0  0  0  0  0  0  0  0  0  0  0  0
   29.4730   47.1810   -3.4270 C   0  0  0  0  0  0  0  0  0  0  0  0
  1  2  1  0
  2  3  2  0
  2  4  1  0
  4  5  2  0
  3  6  1  0
  6  7  1  0
  5  8  1  0
  5  9  1  0
  6  9  2  0
  8 10  1  0
  8 11  1  0
  8 12  2  0
 11 13  1  0
 11 14  1  0
 11 15  1  0
 15 16  2  0
 15 17  1  0
 17 18  2  0
 16 19  1  0
 17 20  1  0
 18 21  1  0
 19 21  2  0
 18 22  1  0
 20 23  1  0
 22 23  1  0
M  END
