mac-x0360-mac-x0123
     RDKit          3D

 24 27  0  0  0  0  0  0  0  0999 V2000
   32.5420   55.2720   -7.4090 Cl  0  0  0  0  0  0  0  0  0  0  0  0
   32.5300   53.6320   -6.8870 C   0  0  0  0  0  0  0  0  0  0  0  0
   33.6350   53.1160   -6.2110 C   0  0  0  0  0  0  0  0  0  0  0  0
   31.4190   52.8360   -7.1430 C   0  0  0  0  0  0  0  0  0  0  0  0
   31.4180   51.5050   -6.7140 C   0  0  0  0  0  0  0  0  0  0  0  0
   33.6200   51.7860   -5.7900 C   0  0  0  0  0  0  0  0  0  0  0  0
   34.9880   51.1520   -4.9590 Cl  0  0  0  0  0  0  0  0  0  0  0  0
   29.9980   50.5080   -7.0430 S   0  0  2  0  0  0  0  0  0  0  0  0
   32.5180   50.9700   -6.0350 C   0  0  0  0  0  0  0  0  0  0  0  0
   30.1060   49.1140   -6.1080 N   0  0  0  0  0  0  0  0  0  0  0  0
   30.0720   49.9580   -8.3720 O   0  0  0  0  0  0  0  0  0  0  0  0
   28.7690   51.1500   -6.4010 N   0  0  0  0  0  0  0  0  0  0  0  0
   29.0120   51.9890   -5.2000 C   0  0  0  0  0  0  0  0  0  0  0  0
   29.3090   51.4460   -3.9340 N   0  0  0  0  0  0  0  0  0  0  0  0
   28.9520   53.3220   -5.3210 C   0  0  0  0  0  0  0  0  0  0  0  0
   29.5420   52.2760   -2.8240 C   0  0  0  0  0  0  0  0  0  0  0  0
   29.2150   54.1090   -4.0900 C   0  0  0  0  0  0  0  0  0  0  0  0
   28.6750   54.2700   -6.4320 C   0  0  0  0  0  0  0  0  0  0  0  0
   29.4260   50.1410   -3.5500 N   0  0  0  0  0  0  0  0  0  0  0  0
   29.4900   53.6430   -2.9140 N   0  0  0  0  0  0  0  0  0  0  0  0
   29.1200   55.5710   -4.3960 C   0  0  0  0  0  0  0  0  0  0  0  0
   29.3010   55.5720   -5.9190 C   0  0  0  0  0  0  0  0  0  0  0  0
   29.7970   51.5250   -1.7750 N   0  0  0  0  0  0  0  0  0  0  0  0
   29.7170   50.2570   -2.2580 C   0  0  0  0  0  0  0  0  0  0  0  0
  1  2  1  0
  2  3  2  0
  2  4  1  0
  4  5  2  0
  3  6  1  0
  6  7  1  0
  5  8  1  0
  5  9  1  0
  6  9  2  0
  8 10  1  1
  8 11  2  0
  8 12  2  0
 12 13  1  0
 13 14  1  0
 13 15  2  0
 14 16  1  0
 15 17  1  0
 15 18  1  0
 14 19  1  0
 16 20  1  0
 17 20  2  0
 17 21  1  0
 18 22  1  0
 21 22  1  0
 16 23  2  0
 19 24  2  0
 23 24  1  0
M  END
