mac-x0226-mac-x0412
     RDKit          3D

 28 31  0  0  0  0  0  0  0  0999 V2000
   32.0950   45.5390   -6.9410 O   0  0  0  0  0  0  0  0  0  0  0  0
   32.8500   46.3310   -6.0420 C   0  0  0  0  0  0  0  0  0  0  0  0
   33.8960   46.9030   -6.8040 O   0  0  0  0  0  0  0  0  0  0  0  0
   31.9650   47.4660   -5.4790 C   0  0  0  0  0  0  0  0  0  0  0  0
   33.3930   45.4850   -4.9330 C   0  0  0  0  0  0  0  0  0  0  0  0
   30.4460   47.2300   -5.5420 C   0  0  0  0  0  0  0  0  0  0  0  0
   32.8950   44.2530   -4.4570 C   0  0  0  0  0  0  0  0  0  0  0  0
   34.4890   45.7180   -4.1300 C   0  0  0  0  0  0  0  0  0  0  0  0
   29.5650   47.9710   -4.5290 C   0  0  0  0  0  0  0  0  0  0  0  0
   33.6090   43.7590   -3.4460 N   0  0  0  0  0  0  0  0  0  0  0  0
   34.5960   44.6720   -3.2460 N   0  0  0  0  0  0  0  0  0  0  0  0
   35.5700   44.4980   -2.2320 C   0  0  0  0  0  0  0  0  0  0  0  0
   29.5110   49.4760   -4.6570 C   0  0  0  0  0  0  0  0  0  0  0  0
   36.4350   45.5650   -1.9420 C   0  0  0  0  0  0  0  0  0  0  0  0
   35.6860   43.3010   -1.5200 C   0  0  0  0  0  0  0  0  0  0  0  0
   29.1800   50.0750   -5.8220 C   0  0  0  0  0  0  0  0  0  0  0  0
   29.8230   50.2850   -3.4900 C   0  0  0  0  0  0  0  0  0  0  0  0
   37.4040   45.4310   -0.9490 C   0  0  0  0  0  0  0  0  0  0  0  0
   36.6590   43.1740   -0.5260 C   0  0  0  0  0  0  0  0  0  0  0  0
   29.1280   51.5210   -5.9490 C   0  0  0  0  0  0  0  0  0  0  0  0
   30.0030   51.6090   -3.5960 C   0  0  0  0  0  0  0  0  0  0  0  0
   37.5160   44.2380   -0.2430 C   0  0  0  0  0  0  0  0  0  0  0  0
   29.8990   52.3300   -4.9190 C   0  0  2  0  0  0  0  0  0  0  0  0
   28.4370   52.1190   -6.9310 C   0  0  0  0  0  0  0  0  0  0  0  0
   29.3300   53.7690   -4.8140 C   0  0  0  0  0  0  0  0  0  0  0  0
   28.4710   53.5930   -6.9420 C   0  0  0  0  0  0  0  0  0  0  0  0
   29.2970   54.3710   -3.7440 O   0  0  0  0  0  0  0  0  0  0  0  0
   28.8740   54.3610   -5.9840 N   0  0  0  0  0  0  0  0  0  0  0  0
  2  1  1  0
  2  3  1  0
  2  4  1  0
  2  5  1  0
  4  6  1  0
  5  7  1  0
  5  8  2  0
  6  9  1  0
  7 10  2  0
  8 11  1  0
 10 11  1  0
 11 12  1  0
  9 13  1  0
 12 14  2  0
 12 15  1  0
 13 16  2  0
 13 17  1  0
 14 18  1  0
 15 19  2  0
 16 20  1  0
 17 21  2  0
 18 22  2  0
 19 22  1  0
 20 23  1  0
 23 21  1  1
 20 24  2  0
 23 25  1  0
 24 26  1  0
 25 27  2  0
 25 28  1  0
 26 28  2  0
M  END
