mac-x0396-mac-x0263
     RDKit          3D

 18 19  0  0  0  0  0  0  0  0999 V2000
   28.8590   51.0440   -6.9280 N   0  0  0  0  0  0  0  0  0  0  0  0
   29.4260   50.9110   -5.6890 C   0  0  0  0  0  0  0  0  0  0  0  0
   29.3200   49.8550   -5.0700 O   0  0  0  0  0  0  0  0  0  0  0  0
   30.1800   52.1290   -5.1520 C   0  0  2  0  0  0  0  0  0  0  0  0
   29.8810   52.3040   -3.6640 C   0  0  0  0  0  0  0  0  0  0  0  0
   29.9470   53.4520   -5.9340 C   0  0  0  0  0  0  0  0  0  0  0  0
   30.2060   53.6570   -3.1940 N   0  0  0  0  0  0  0  0  0  0  0  0
   28.8810   54.3120   -5.2380 C   0  0  1  0  0  0  0  0  0  0  0  0
   29.2850   54.6310   -3.7800 C   0  0  0  0  0  0  0  0  0  0  0  0
   28.0500   55.4720   -5.9570 C   0  0  1  0  0  0  0  0  0  0  0  0
   27.7310   53.3300   -5.2790 C   0  0  0  0  0  0  0  0  0  0  0  0
   28.5520   56.8460   -6.4380 C   0  0  0  0  0  0  0  0  0  0  0  0
   27.0230   53.5800   -6.3920 C   0  0  0  0  0  0  0  0  0  0  0  0
   27.5550   54.6500   -7.0570 N   0  0  0  0  0  0  0  0  0  0  0  0
   27.8710   57.9510   -5.6110 C   0  0  0  0  0  0  0  0  0  0  0  0
   27.2510   59.0650   -6.4210 C   0  0  0  0  0  0  0  0  0  0  0  0
   28.1440   59.9980   -6.7780 O   0  0  0  0  0  0  0  0  0  0  0  0
   26.0700   59.1720   -6.7340 O   0  0  0  0  0  0  0  0  0  0  0  0
  1  2  1  0
  2  3  2  0
  4  2  1  6
  4  5  1  0
  4  6  1  0
  5  7  1  0
  8  6  1  6
  7  9  1  0
  8  9  1  0
  8 10  1  0
  8 11  1  0
 10 12  1  6
 11 13  2  0
 10 14  1  0
 13 14  1  0
 12 15  1  0
 15 16  1  0
 16 17  1  0
 16 18  2  0
M  END
