mac-x0131-mac-x0568
     RDKit          3D

 25 28  0  0  0  0  0  0  0  0999 V2000
   29.9210   49.6520   -2.4470 C   0  0  0  0  0  0  0  0  0  0  0  0
   30.5120   49.3750   -3.8300 C   0  0  2  0  0  0  0  0  0  0  0  0
   30.1410   50.2810   -5.0660 C   0  0  1  0  0  0  0  0  0  0  0  0
   30.0840   48.0030   -4.2660 N   0  0  0  0  0  0  0  0  0  0  0  0
   30.7780   46.8420   -3.6730 C   0  0  0  0  0  0  0  0  0  0  0  0
   29.1480   49.3650   -5.8080 C   0  0  2  0  0  0  0  0  0  0  0  0
   29.9740   48.0830   -5.7240 C   0  0  2  0  0  0  0  0  0  0  0  0
   29.7100   51.7370   -5.1080 C   0  0  0  0  0  0  0  0  0  0  0  0
   28.8280   49.6190   -7.3120 C   0  0  1  0  0  0  0  0  0  0  0  0
   29.3090   46.9330   -6.2960 N   0  0  0  0  0  0  0  0  0  0  0  0
   32.0880   46.5200   -4.3190 C   0  0  0  0  0  0  0  0  0  0  0  0
   30.4290   52.7750   -4.5950 N   0  0  0  0  0  0  0  0  0  0  0  0
   28.4980   51.9540   -5.7510 C   0  0  0  0  0  0  0  0  0  0  0  0
   27.8620   49.2440   -5.0490 N   0  0  0  0  0  0  0  0  0  0  0  0
   29.6030   50.7070   -7.9020 N   0  0  0  0  0  0  0  0  0  0  0  0
   29.1930   48.4870   -8.1410 N   0  0  0  0  0  0  0  0  0  0  0  0
   28.7350   47.2120   -7.6060 C   0  0  0  0  0  0  0  0  0  0  0  0
   32.5370   45.4770   -5.1090 C   0  0  0  0  0  0  0  0  0  0  0  0
   33.0980   47.4150   -4.1160 O   0  0  0  0  0  0  0  0  0  0  0  0
   29.9190   54.0340   -4.7480 C   0  0  0  0  0  0  0  0  0  0  0  0
   28.0000   53.2290   -5.8920 C   0  0  0  0  0  0  0  0  0  0  0  0
   30.7030   55.1850   -4.1990 C   0  0  0  0  0  0  0  0  0  0  0  0
   34.1860   46.9390   -4.7750 C   0  0  0  0  0  0  0  0  0  0  0  0
   33.8950   45.7520   -5.4020 C   0  0  0  0  0  0  0  0  0  0  0  0
   28.7170   54.2930   -5.3880 C   0  0  0  0  0  0  0  0  0  0  0  0
  2  1  1  1
  2  3  1  0
  2  4  1  0
  4  5  1  0
  3  6  1  0
  4  7  1  0
  6  7  1  0
  3  8  1  1
  6  9  1  0
  7 10  1  1
  5 11  1  0
  8 12  2  0
  8 13  1  0
  6 14  1  1
  9 15  1  6
  9 16  1  0
 10 17  1  0
 16 17  1  0
 11 18  2  0
 11 19  1  0
 12 20  1  0
 13 21  2  0
 20 22  1  0
 19 23  1  0
 18 24  1  0
 23 24  2  0
 20 25  2  0
 21 25  1  0
M  END
