mac-x0387-mac-x0303
     RDKit          3D

 22 25  0  0  0  0  0  0  0  0999 V2000
   28.1620   49.8260   -8.8590 N   0  0  0  0  0  0  0  0  0  0  0  0
   28.5830   48.8270   -8.0150 C   0  0  0  0  0  0  0  0  0  0  0  0
   28.4680   47.5520   -8.5530 N   0  0  0  0  0  0  0  0  0  0  0  0
   29.0820   48.9910   -6.7440 C   0  0  0  0  0  0  0  0  0  0  0  0
   29.4760   47.7290   -6.0230 C   0  0  0  0  0  0  0  0  0  0  0  0
   28.8300   46.4030   -7.8990 C   0  0  0  0  0  0  0  0  0  0  0  0
   29.2710   50.2800   -6.0130 C   0  0  0  0  0  0  0  0  0  0  0  0
   29.3290   46.4230   -6.6590 C   0  0  0  0  0  0  0  0  0  0  0  0
   29.9740   47.8070   -4.7750 C   0  0  0  0  0  0  0  0  0  0  0  0
   29.8340   50.2540   -4.6260 C   0  0  0  0  0  0  0  0  0  0  0  0
   28.9590   51.4860   -6.5430 C   0  0  0  0  0  0  0  0  0  0  0  0
   30.1520   49.0650   -4.0780 C   0  0  0  0  0  0  0  0  0  0  0  0
   29.1760   52.7100   -5.7600 C   0  0  0  0  0  0  0  0  0  0  0  0
   30.0460   51.4730   -3.8550 C   0  0  0  0  0  0  0  0  0  0  0  0
   29.7290   52.6400   -4.4070 C   0  0  0  0  0  0  0  0  0  0  0  0
   28.9500   53.9480   -6.0730 N   0  0  0  0  0  0  0  0  0  0  0  0
   29.3590   54.6370   -4.9220 C   0  0  0  0  0  0  0  0  0  0  0  0
   29.8210   53.9150   -3.9240 N   0  0  0  0  0  0  0  0  0  0  0  0
   29.2770   56.4320   -4.7570 S   0  0  0  0  0  0  0  0  0  0  0  0
   30.4890   57.0430   -5.7870 N   0  0  0  0  0  0  0  0  0  0  0  0
   28.0030   56.8560   -5.2920 O   0  0  0  0  0  0  0  0  0  0  0  0
   29.7160   56.7570   -3.4170 O   0  0  0  0  0  0  0  0  0  0  0  0
  1  2  1  0
  2  3  1  0
  2  4  2  0
  4  5  1  0
  3  6  1  0
  4  7  1  0
  5  8  1  0
  6  8  2  0
  5  9  2  0
  7 10  1  0
  7 11  2  0
  9 12  1  0
 10 12  2  0
 11 13  1  0
 10 14  1  0
 13 15  1  0
 14 15  2  0
 13 16  2  0
 16 17  1  0
 15 18  1  0
 17 18  2  0
 17 19  1  0
 19 20  1  0
 19 21  2  0
 19 22  2  0
M  END
