mac-x0365-mac-x0394
     RDKit          3D

 23 24  0  0  0  0  0  0  0  0999 V2000
   29.8030   47.5940   -5.9770 O   0  0  0  0  0  0  0  0  0  0  0  0
   30.2160   48.0740   -4.7950 C   0  0  0  0  0  0  0  0  0  0  0  0
   30.7400   47.3500   -3.9690 O   0  0  0  0  0  0  0  0  0  0  0  0
   29.9690   49.5200   -4.6030 C   0  0  0  0  0  0  0  0  0  0  0  0
   30.5240   50.1830   -3.5050 C   0  0  0  0  0  0  0  0  0  0  0  0
   29.1650   50.2340   -5.5200 C   0  0  0  0  0  0  0  0  0  0  0  0
   30.2840   51.5330   -3.3240 C   0  0  0  0  0  0  0  0  0  0  0  0
   28.9300   51.6070   -5.3080 C   0  0  0  0  0  0  0  0  0  0  0  0
   30.8020   52.1870   -2.2790 F   0  0  0  0  0  0  0  0  0  0  0  0
   28.0650   52.4950   -6.1420 C   0  0  1  0  0  0  0  0  0  0  0  0
   29.5020   52.2330   -4.2140 C   0  0  0  0  0  0  0  0  0  0  0  0
   29.2810   53.5720   -4.0030 O   0  0  0  0  0  0  0  0  0  0  0  0
   28.0160   52.4160   -7.6590 C   0  0  0  0  0  0  0  0  0  0  0  0
   26.8220   52.4220   -5.2830 C   0  0  0  0  0  0  0  0  0  0  0  0
   29.1420   52.9220   -8.2130 O   0  0  0  0  0  0  0  0  0  0  0  0
   27.1280   52.0040   -8.3820 O   0  0  0  0  0  0  0  0  0  0  0  0
   26.6250   53.5070   -4.4350 C   0  0  0  0  0  0  0  0  0  0  0  0
   25.8980   51.3600   -5.2580 C   0  0  0  0  0  0  0  0  0  0  0  0
   25.5470   53.5510   -3.5750 C   0  0  0  0  0  0  0  0  0  0  0  0
   24.8070   51.4180   -4.3810 C   0  0  0  0  0  0  0  0  0  0  0  0
   23.6670   50.1290   -4.3280 Cl  0  0  0  0  0  0  0  0  0  0  0  0
   25.3700   54.9200   -2.5500 Cl  0  0  0  0  0  0  0  0  0  0  0  0
   24.6290   52.5110   -3.5370 C   0  0  0  0  0  0  0  0  0  0  0  0
  1  2  1  0
  2  3  2  0
  2  4  1  0
  4  5  2  0
  4  6  1  0
  5  7  1  0
  6  8  2  0
  7  9  1  0
  8 10  1  0
  7 11  2  0
  8 11  1  0
 11 12  1  0
 10 13  1  6
 10 14  1  0
 13 15  1  0
 13 16  2  0
 14 17  2  0
 14 18  1  0
 17 19  1  0
 18 20  2  0
 20 21  1  0
 19 22  1  0
 19 23  2  0
 20 23  1  0
M  END
