mac-x0348-mac-x0182
     RDKit          3D

 26 29  0  0  0  0  0  0  0  0999 V2000
   27.3570   44.4250   -0.7090 C   0  0  0  0  0  0  0  0  0  0  0  0
   28.2940   45.2520   -1.4300 N   0  0  0  0  0  0  0  0  0  0  0  0
   28.7030   45.0020   -2.7100 C   0  0  0  0  0  0  0  0  0  0  0  0
   28.9010   46.3910   -0.9450 C   0  0  0  0  0  0  0  0  0  0  0  0
   29.5880   45.9870   -3.0750 C   0  0  0  0  0  0  0  0  0  0  0  0
   29.7240   46.8750   -1.9630 C   0  0  0  0  0  0  0  0  0  0  0  0
   28.8010   47.0430    0.2980 C   0  0  0  0  0  0  0  0  0  0  0  0
   30.2750   46.1050   -4.3890 C   0  0  0  0  0  0  0  0  0  0  0  0
   30.4750   48.0460   -1.7390 C   0  0  0  0  0  0  0  0  0  0  0  0
   29.5560   48.2040    0.4950 C   0  0  0  0  0  0  0  0  0  0  0  0
   31.1970   44.9310   -4.6670 C   0  0  0  0  0  0  0  0  0  0  0  0
   30.3840   48.7020   -0.5070 C   0  0  0  0  0  0  0  0  0  0  0  0
   32.0320   45.2660   -5.8630 C   0  0  0  0  0  0  0  0  0  0  0  0
   31.9100   44.7880   -6.9800 O   0  0  0  0  0  0  0  0  0  0  0  0
   32.9210   46.2210   -5.5840 N   0  0  0  0  0  0  0  0  0  0  0  0
   33.8600   46.1010   -4.7050 C   0  0  0  0  0  0  0  0  0  0  0  0
   34.4190   45.0440   -3.7140 C   0  0  0  0  0  0  0  0  0  0  0  0
   34.7570   47.6470   -4.5970 S   0  0  0  0  0  0  0  0  0  0  0  0
   33.9610   43.9360   -3.4720 O   0  0  0  0  0  0  0  0  0  0  0  0
   33.8240   48.4570   -3.7470 O   0  0  0  0  0  0  0  0  0  0  0  0
   35.8950   46.9080   -3.4620 C   0  0  0  0  0  0  0  0  0  0  0  0
   35.6390   45.5960   -3.0790 C   0  0  0  0  0  0  0  0  0  0  0  0
   36.9840   47.6080   -2.9870 C   0  0  0  0  0  0  0  0  0  0  0  0
   36.4920   44.9450   -2.1890 C   0  0  0  0  0  0  0  0  0  0  0  0
   37.8450   46.9750   -2.1010 C   0  0  0  0  0  0  0  0  0  0  0  0
   37.6020   45.6530   -1.7040 C   0  0  0  0  0  0  0  0  0  0  0  0
  1  2  1  0
  2  3  1  0
  2  4  1  0
  3  5  2  0
  4  6  2  0
  5  6  1  0
  4  7  1  0
  5  8  1  0
  6  9  1  0
  7 10  2  0
  8 11  1  0
  9 12  2  0
 10 12  1  0
 11 13  1  0
 13 14  2  0
 13 15  1  0
 15 16  2  3
 16 17  1  0
 18 16  1  1
 17 19  2  0
 18 20  2  0
 18 21  1  0
 17 22  1  0
 21 22  2  0
 21 23  1  0
 22 24  1  0
 23 25  2  0
 24 26  2  0
 25 26  1  0
M  END
