mac-x0193-mac-x0179
     RDKit          3D

 24 27  0  0  0  0  0  0  0  0999 V2000
   33.4410   46.3680   -6.3260 O   0  0  0  0  0  0  0  0  0  0  0  0
   33.0170   45.5190   -5.3570 C   0  0  0  0  0  0  0  0  0  0  0  0
   31.8280   45.2500   -5.2830 O   0  0  0  0  0  0  0  0  0  0  0  0
   34.1980   45.0100   -4.5040 C   0  0  2  0  0  0  0  0  0  0  0  0
   34.0080   43.6120   -3.9910 N   0  0  0  0  0  0  0  0  0  0  0  0
   34.5200   45.6220   -3.2500 N   0  0  0  0  0  0  0  0  0  0  0  0
   34.9070   43.4860   -2.8230 C   0  0  1  0  0  0  0  0  0  0  0  0
   35.6600   44.8330   -2.9520 C   0  0  2  0  0  0  0  0  0  0  0  0
   34.7980   46.9550   -2.9780 C   0  0  0  0  0  0  0  0  0  0  0  0
   34.1280   43.3360   -1.6730 O   0  0  0  0  0  0  0  0  0  0  0  0
   35.7590   42.3560   -3.0570 N   0  0  0  0  0  0  0  0  0  0  0  0
   34.3040   47.9620   -3.4450 O   0  0  0  0  0  0  0  0  0  0  0  0
   36.3750   45.6100   -1.9140 C   0  0  0  0  0  0  0  0  0  0  0  0
   35.8610   46.9070   -1.9360 C   0  0  0  0  0  0  0  0  0  0  0  0
   36.8340   42.0250   -2.0980 C   0  0  0  0  0  0  0  0  0  0  0  0
   37.3830   45.2490   -1.0410 C   0  0  0  0  0  0  0  0  0  0  0  0
   36.3330   47.8920   -1.0970 C   0  0  0  0  0  0  0  0  0  0  0  0
   38.2000   42.4010   -2.6940 C   0  0  0  0  0  0  0  0  0  0  0  0
   36.7040   42.7090   -0.7250 C   0  0  0  0  0  0  0  0  0  0  0  0
   37.8760   46.2270   -0.1820 C   0  0  0  0  0  0  0  0  0  0  0  0
   37.3570   47.5380   -0.2080 C   0  0  0  0  0  0  0  0  0  0  0  0
   39.3640   41.9510   -1.8230 C   0  0  0  0  0  0  0  0  0  0  0  0
   37.8920   42.4150    0.2110 C   0  0  0  0  0  0  0  0  0  0  0  0
   39.2890   42.5350   -0.4210 C   0  0  0  0  0  0  0  0  0  0  0  0
  1  2  1  0
  2  3  2  0
  4  2  1  1
  4  5  1  0
  4  6  1  0
  5  7  1  0
  6  8  1  0
  7  8  1  0
  6  9  1  0
  7 10  1  1
  7 11  1  0
  9 12  2  0
  8 13  1  1
  9 14  1  0
 13 14  2  0
 11 15  1  0
 13 16  1  0
 14 17  1  0
 15 18  1  0
 15 19  1  0
 16 20  2  0
 17 21  2  0
 20 21  1  0
 18 22  1  0
 19 23  1  0
 22 24  1  0
 23 24  1  0
M  END
