mac-x0341-mac-x0441
     RDKit          3D

 32 35  0  0  0  0  0  0  0  0999 V2000
   28.3350   54.8500   -7.4160 N   0  0  0  0  0  0  0  0  0  0  0  0
   28.6380   53.6560   -6.8460 C   0  0  0  0  0  0  0  0  0  0  0  0
   28.4670   52.5540   -7.5080 N   0  0  0  0  0  0  0  0  0  0  0  0
   29.1220   53.6770   -5.5710 N   0  0  0  0  0  0  0  0  0  0  0  0
   29.4310   52.5480   -4.8510 C   0  0  0  0  0  0  0  0  0  0  0  0
   28.8000   51.3400   -6.8830 C   0  0  0  0  0  0  0  0  0  0  0  0
   29.8050   52.5930   -3.6850 O   0  0  0  0  0  0  0  0  0  0  0  0
   29.2810   51.2710   -5.5760 C   0  0  0  0  0  0  0  0  0  0  0  0
   28.6460   50.1530   -7.5980 C   0  0  0  0  0  0  0  0  0  0  0  0
   28.9670   48.9240   -7.0190 C   0  0  0  0  0  0  0  0  0  0  0  0
   29.6090   50.0440   -4.9790 C   0  0  0  0  0  0  0  0  0  0  0  0
   29.4500   48.8530   -5.7120 C   0  0  0  0  0  0  0  0  0  0  0  0
   29.7920   47.5080   -5.1220 C   0  0  0  0  0  0  0  0  0  0  0  0
   29.7650   46.3860   -6.1720 C   0  0  0  0  0  0  0  0  0  0  0  0
   30.5760   45.1300   -5.8400 C   0  0  0  0  0  0  0  0  0  0  0  0
   31.9060   45.2200   -6.4320 N   0  0  0  0  0  0  0  0  0  0  0  0
   32.9410   45.2760   -5.6770 C   0  0  0  0  0  0  0  0  0  0  0  0
   34.2080   45.3590   -6.1380 O   0  0  0  0  0  0  0  0  0  0  0  0
   32.8560   45.2530   -4.1770 C   0  0  0  0  0  0  0  0  0  0  0  0
   34.1140   44.9830   -3.5090 N   0  0  0  0  0  0  0  0  0  0  0  0
   34.3390   43.7500   -2.9970 N   0  0  0  0  0  0  0  0  0  0  0  0
   35.1560   45.8330   -3.3050 C   0  0  0  0  0  0  0  0  0  0  0  0
   35.5700   43.8210   -2.4480 C   0  0  0  0  0  0  0  0  0  0  0  0
   36.1180   45.1210   -2.6210 C   0  0  0  0  0  0  0  0  0  0  0  0
   35.2600   47.2550   -3.7230 C   0  0  0  0  0  0  0  0  0  0  0  0
   36.2230   42.6560   -1.7540 C   0  0  0  0  0  0  0  0  0  0  0  0
   37.4240   45.7040   -2.2030 C   0  0  0  0  0  0  0  0  0  0  0  0
   36.3560   47.9370   -2.8860 C   0  0  0  0  0  0  0  0  0  0  0  0
   37.3020   42.1540   -2.4070 F   0  0  0  0  0  0  0  0  0  0  0  0
   36.6410   42.9910   -0.5020 F   0  0  0  0  0  0  0  0  0  0  0  0
   35.3510   41.6180   -1.5900 F   0  0  0  0  0  0  0  0  0  0  0  0
   37.6470   47.0970   -2.8310 C   0  0  0  0  0  0  0  0  0  0  0  0
  1  2  1  0
  2  3  2  0
  2  4  1  0
  4  5  1  0
  3  6  1  0
  5  7  2  0
  5  8  1  0
  6  8  2  0
  6  9  1  0
  9 10  2  0
  8 11  1  0
 10 12  1  0
 11 12  2  0
 12 13  1  0
 13 14  1  0
 14 15  1  0
 15 16  1  0
 16 17  2  3
 17 18  1  0
 17 19  1  0
 19 20  1  0
 20 21  1  0
 20 22  1  0
 21 23  2  0
 22 24  2  0
 23 24  1  0
 22 25  1  0
 23 26  1  0
 24 27  1  0
 25 28  1  0
 26 29  1  0
 26 30  1  0
 26 31  1  0
 27 32  1  0
 28 32  1  0
M  END
