mac-x0190-mac-x0358
     RDKit          3D

 24 26  0  0  0  0  0  0  0  0999 V2000
   28.6570   56.6510   -5.4800 O   0  0  0  0  0  0  0  0  0  0  0  0
   29.9150   55.9940   -5.5920 C   0  0  0  0  0  0  0  0  0  0  0  0
   29.7090   54.5800   -5.1940 C   0  0  0  0  0  0  0  0  0  0  0  0
   29.6880   54.2020   -3.8720 N   0  0  0  0  0  0  0  0  0  0  0  0
   29.5260   53.5420   -5.9850 N   0  0  0  0  0  0  0  0  0  0  0  0
   29.4810   52.8490   -3.8180 C   0  0  0  0  0  0  0  0  0  0  0  0
   29.3830   52.4590   -5.1480 C   0  0  0  0  0  0  0  0  0  0  0  0
   29.3730   51.9600   -2.7460 C   0  0  0  0  0  0  0  0  0  0  0  0
   29.1650   51.1090   -5.4490 C   0  0  0  0  0  0  0  0  0  0  0  0
   29.1530   50.6060   -3.0540 C   0  0  0  0  0  0  0  0  0  0  0  0
   29.0530   50.1930   -4.3950 C   0  0  0  0  0  0  0  0  0  0  0  0
   29.0260   49.6010   -1.9320 C   0  0  0  0  0  0  0  0  0  0  0  0
   30.3770   49.1760   -1.3370 C   0  0  0  0  0  0  0  0  0  0  0  0
   31.0780   48.1260   -2.1660 C   0  0  0  0  0  0  0  0  0  0  0  0
   32.4600   48.1860   -2.3800 C   0  0  0  0  0  0  0  0  0  0  0  0
   30.3450   47.0770   -2.7320 C   0  0  0  0  0  0  0  0  0  0  0  0
   33.0900   47.2080   -3.1520 C   0  0  0  0  0  0  0  0  0  0  0  0
   30.9820   46.1030   -3.5030 C   0  0  0  0  0  0  0  0  0  0  0  0
   34.4400   47.2660   -3.3600 O   0  0  0  0  0  0  0  0  0  0  0  0
   32.3650   46.1560   -3.7240 C   0  0  0  0  0  0  0  0  0  0  0  0
   33.0470   45.0990   -4.5600 C   0  0  0  0  0  0  0  0  0  0  0  0
   32.8820   45.2930   -6.0500 C   0  0  0  0  0  0  0  0  0  0  0  0
   31.7400   44.7340   -6.5140 O   0  0  0  0  0  0  0  0  0  0  0  0
   33.6250   45.8660   -6.8290 O   0  0  0  0  0  0  0  0  0  0  0  0
  1  2  1  0
  2  3  1  0
  3  4  1  0
  3  5  2  0
  4  6  1  0
  5  7  1  0
  6  7  2  0
  6  8  1  0
  7  9  1  0
  8 10  2  0
  9 11  2  0
 10 11  1  0
 10 12  1  0
 12 13  1  0
 13 14  1  0
 14 15  2  0
 14 16  1  0
 15 17  1  0
 16 18  2  0
 17 19  1  0
 17 20  2  0
 18 20  1  0
 20 21  1  0
 21 22  1  0
 22 23  1  0
 22 24  2  0
M  END
