mac-x0348-mac-x0159
     RDKit          3D

 25 28  0  0  0  0  0  0  0  0999 V2000
   27.4390   44.4450   -1.1210 C   0  0  0  0  0  0  0  0  0  0  0  0
   28.4160   45.3660   -1.6570 N   0  0  0  0  0  0  0  0  0  0  0  0
   28.9550   45.2950   -2.9200 C   0  0  0  0  0  0  0  0  0  0  0  0
   28.9470   46.4480   -0.9780 C   0  0  0  0  0  0  0  0  0  0  0  0
   29.8530   46.3440   -3.0760 C   0  0  0  0  0  0  0  0  0  0  0  0
   29.8440   47.0630   -1.8480 C   0  0  0  0  0  0  0  0  0  0  0  0
   28.7240   46.9430    0.3180 C   0  0  0  0  0  0  0  0  0  0  0  0
   30.7300   46.7490   -4.2620 C   0  0  1  0  0  0  0  0  0  0  0  0
   30.5430   48.2050   -1.4150 C   0  0  0  0  0  0  0  0  0  0  0  0
   29.4320   48.0820    0.7190 C   0  0  0  0  0  0  0  0  0  0  0  0
   31.2250   45.5610   -5.0880 C   0  0  0  0  0  0  0  0  0  0  0  0
   30.3320   48.7080   -0.1340 C   0  0  0  0  0  0  0  0  0  0  0  0
   30.1640   47.9830   -4.9020 N   0  0  0  0  0  0  0  0  0  0  0  0
   32.2050   45.9790   -6.1430 C   0  0  0  0  0  0  0  0  0  0  0  0
   29.9470   49.1100   -3.9700 C   0  0  0  0  0  0  0  0  0  0  0  0
   29.1440   47.9190   -5.9340 C   0  0  1  0  0  0  0  0  0  0  0  0
   32.0280   45.9010   -7.3430 O   0  0  0  0  0  0  0  0  0  0  0  0
   33.3640   46.4710   -5.6580 O   0  0  0  0  0  0  0  0  0  0  0  0
   29.6010   50.3900   -4.6020 N   0  0  0  0  0  0  0  0  0  0  0  0
   29.1190   49.2290   -6.7130 C   0  0  2  0  0  0  0  0  0  0  0  0
   29.3920   46.9720   -7.0020 N   0  0  0  0  0  0  0  0  0  0  0  0
   28.6520   50.2640   -5.6840 C   0  0  2  0  0  0  0  0  0  0  0  0
   28.2900   48.8910   -7.8730 N   0  0  0  0  0  0  0  0  0  0  0  0
   28.8370   47.5730   -8.2140 C   0  0  0  0  0  0  0  0  0  0  0  0
   28.4910   51.5960   -6.2290 N   0  0  0  0  0  0  0  0  0  0  0  0
  1  2  1  0
  2  3  1  0
  2  4  1  0
  3  5  2  0
  4  6  2  0
  5  6  1  0
  4  7  1  0
  5  8  1  0
  6  9  1  0
  7 10  2  0
  8 11  1  6
  9 12  2  0
 10 12  1  0
  8 13  1  0
 11 14  1  0
 13 15  1  0
 13 16  1  0
 14 17  2  0
 14 18  1  0
 15 19  1  0
 16 20  1  0
 16 21  1  6
 19 22  1  0
 20 22  1  0
 20 23  1  6
 21 24  1  0
 23 24  1  0
 22 25  1  6
M  END
