mac-x0568-mac-x0387
     RDKit          3D

 21 23  0  0  0  0  0  0  0  0999 V2000
   29.7550   56.2490   -5.8340 C   0  0  0  0  0  0  0  0  0  0  0  0
   29.6850   54.8150   -5.4330 C   0  0  0  0  0  0  0  0  0  0  0  0
   29.3610   53.8380   -6.3700 C   0  0  0  0  0  0  0  0  0  0  0  0
   29.9510   54.5490   -4.1350 N   0  0  0  0  0  0  0  0  0  0  0  0
   29.8900   53.2710   -3.7530 C   0  0  0  0  0  0  0  0  0  0  0  0
   29.3070   52.5240   -5.9410 C   0  0  0  0  0  0  0  0  0  0  0  0
   29.5760   52.2580   -4.6050 C   0  0  0  0  0  0  0  0  0  0  0  0
   29.5180   50.9200   -4.1160 C   0  0  0  0  0  0  0  0  0  0  0  0
   30.2730   50.5330   -3.2310 O   0  0  0  0  0  0  0  0  0  0  0  0
   28.6510   50.0850   -4.6440 N   0  0  0  0  0  0  0  0  0  0  0  0
   29.1700   48.9610   -5.1070 C   0  0  0  0  0  0  0  0  0  0  0  0
   29.0970   48.6120   -6.4470 C   0  0  0  0  0  0  0  0  0  0  0  0
   29.7820   48.2150   -4.1110 C   0  0  0  0  0  0  0  0  0  0  0  0
   28.4920   49.3520   -7.5070 C   0  0  0  0  0  0  0  0  0  0  0  0
   29.6930   47.3950   -6.7680 C   0  0  0  0  0  0  0  0  0  0  0  0
   30.3690   47.0270   -4.4420 C   0  0  0  0  0  0  0  0  0  0  0  0
   27.8690   50.5890   -7.3280 N   0  0  0  0  0  0  0  0  0  0  0  0
   29.6600   46.9570   -8.0850 C   0  0  0  0  0  0  0  0  0  0  0  0
   28.4610   48.9310   -8.7780 N   0  0  0  0  0  0  0  0  0  0  0  0
   30.3210   46.6160   -5.7720 C   0  0  0  0  0  0  0  0  0  0  0  0
   29.0420   47.7470   -9.0370 C   0  0  0  0  0  0  0  0  0  0  0  0
  1  2  1  0
  2  3  2  0
  2  4  1  0
  4  5  2  0
  3  6  1  0
  5  7  1  0
  6  7  2  0
  7  8  1  0
  8  9  2  0
  8 10  1  0
 10 11  1  0
 11 12  1  0
 11 13  2  0
 12 14  2  0
 12 15  1  0
 13 16  1  0
 14 17  1  0
 15 18  2  0
 14 19  1  0
 15 20  1  0
 16 20  2  0
 18 21  1  0
 19 21  2  0
M  END
