mac-x0283-mac-x0392
     RDKit          3D

 18 20  0  0  0  0  0  0  0  0999 V2000
   28.6320   55.0390   -6.0500 N   0  0  0  0  0  0  0  0  0  0  0  0
   29.0700   54.1210   -5.1620 C   0  0  0  0  0  0  0  0  0  0  0  0
   29.4690   54.3540   -3.9160 N   0  0  0  0  0  0  0  0  0  0  0  0
   29.1580   52.7660   -5.4750 C   0  0  0  0  0  0  0  0  0  0  0  0
   29.8270   53.1070   -3.3950 O   0  0  0  0  0  0  0  0  0  0  0  0
   29.6400   52.1440   -4.3480 C   0  0  0  0  0  0  0  0  0  0  0  0
   28.8850   52.0180   -6.5770 C   0  0  0  0  0  0  0  0  0  0  0  0
   29.8760   50.7510   -4.2650 C   0  0  0  0  0  0  0  0  0  0  0  0
   29.0900   50.6760   -6.5780 C   0  0  0  0  0  0  0  0  0  0  0  0
   29.5880   49.9740   -5.4520 C   0  0  0  0  0  0  0  0  0  0  0  0
   28.7690   50.1610   -7.7430 N   0  0  0  0  0  0  0  0  0  0  0  0
   29.7300   48.5570   -5.6970 C   0  0  0  0  0  0  0  0  0  0  0  0
   28.9210   48.8620   -7.9160 C   0  0  0  0  0  0  0  0  0  0  0  0
   30.2280   47.5640   -4.7070 C   0  0  0  0  0  0  0  0  0  0  0  0
   29.3910   48.0030   -6.9580 C   0  0  0  0  0  0  0  0  0  0  0  0
   29.4960   46.6490   -7.3110 N   0  0  0  0  0  0  0  0  0  0  0  0
   30.6980   47.8050   -3.6140 O   0  0  0  0  0  0  0  0  0  0  0  0
   30.1110   46.2980   -5.1520 O   0  0  0  0  0  0  0  0  0  0  0  0
  1  2  1  0
  2  3  2  0
  2  4  1  0
  3  5  1  0
  4  6  2  0
  5  6  1  0
  4  7  1  0
  6  8  1  0
  7  9  2  0
  8 10  2  0
  9 10  1  0
  9 11  1  0
 10 12  1  0
 11 13  2  0
 12 14  1  0
 12 15  2  0
 13 15  1  0
 15 16  1  0
 14 17  2  0
 14 18  1  0
M  END
