mac-x0301-mac-x0584
     RDKit          3D

 20 23  0  0  0  0  0  0  0  0999 V2000
   28.2240   46.4610   -2.6590 O   0  0  0  0  0  0  0  0  0  0  0  0
   29.0640   47.5080   -2.7970 C   0  0  0  0  0  0  0  0  0  0  0  0
   29.8810   47.7640   -1.9350 O   0  0  0  0  0  0  0  0  0  0  0  0
   28.8260   48.2310   -4.0710 C   0  0  0  0  0  0  0  0  0  0  0  0
   29.6820   48.1830   -5.1790 C   0  0  0  0  0  0  0  0  0  0  0  0
   27.6570   49.0180   -4.1570 C   0  0  0  0  0  0  0  0  0  0  0  0
   29.3330   48.9180   -6.3190 C   0  0  0  0  0  0  0  0  0  0  0  0
   27.3430   49.7390   -5.3160 C   0  0  0  0  0  0  0  0  0  0  0  0
   30.9790   47.4870   -5.4720 C   0  0  2  0  0  0  0  0  0  0  0  0
   28.1910   49.6900   -6.4140 C   0  0  0  0  0  0  0  0  0  0  0  0
   30.2220   48.8180   -7.3580 O   0  0  0  0  0  0  0  0  0  0  0  0
   30.9760   47.6410   -7.0170 C   0  0  0  0  0  0  0  0  0  0  0  0
   31.0880   46.0220   -4.9750 C   0  0  1  0  0  0  0  0  0  0  0  0
   32.2600   48.1220   -4.9090 C   0  0  0  0  0  0  0  0  0  0  0  0
   31.8820   45.0360   -5.8400 C   0  0  0  0  0  0  0  0  0  0  0  0
   31.7000   46.1520   -3.5690 C   0  0  0  0  0  0  0  0  0  0  0  0
   32.4270   47.4970   -3.5270 C   0  0  0  0  0  0  0  0  0  0  0  0
   32.7940   45.6590   -6.9400 C   0  0  0  0  0  0  0  0  0  0  0  0
   33.1990   44.4440   -5.2560 C   0  0  0  0  0  0  0  0  0  0  0  0
   33.7630   44.4910   -6.6880 C   0  0  0  0  0  0  0  0  0  0  0  0
  1  2  1  0
  2  3  2  0
  2  4  1  0
  4  5  2  0
  4  6  1  0
  5  7  1  0
  6  8  2  0
  5  9  1  0
  7 10  2  0
  8 10  1  0
  7 11  1  0
  9 12  1  6
 11 12  1  0
  9 13  1  0
  9 14  1  0
 13 15  1  6
 13 16  1  0
 14 17  1  0
 16 17  1  0
 15 18  1  0
 15 19  1  0
 18 20  1  0
 19 20  1  0
M  END
