mac-x0139-mac-x0415
     RDKit          3D

 27 30  0  0  0  0  0  0  0  0999 V2000
   30.3680   47.3110   -4.9090 C   0  0  0  0  0  0  0  0  0  0  0  0
   29.6550   46.7310   -6.0510 N   0  0  0  0  0  0  0  0  0  0  0  0
   30.1020   45.4300   -6.5210 C   0  0  0  0  0  0  0  0  0  0  0  0
   29.2400   47.6130   -7.0090 C   0  0  0  0  0  0  0  0  0  0  0  0
   31.0720   44.7390   -5.6220 C   0  0  1  0  0  0  0  0  0  0  0  0
   29.1810   48.9480   -6.8620 C   0  0  0  0  0  0  0  0  0  0  0  0
   28.8750   46.9760   -8.1970 N   0  0  0  0  0  0  0  0  0  0  0  0
   32.4570   44.8260   -6.2530 C   0  0  0  0  0  0  0  0  0  0  0  0
   28.7130   49.7240   -8.0250 C   0  0  0  0  0  0  0  0  0  0  0  0
   28.4760   47.6940   -9.1800 C   0  0  0  0  0  0  0  0  0  0  0  0
   29.4450   49.9480   -5.8760 C   0  0  0  0  0  0  0  0  0  0  0  0
   30.4890   44.8090   -4.1720 C   0  0  1  0  0  0  0  0  0  0  0  0
   32.6160   44.4080   -7.4000 O   0  0  0  0  0  0  0  0  0  0  0  0
   33.4370   45.3900   -5.5450 O   0  0  0  0  0  0  0  0  0  0  0  0
   28.3770   49.0460   -9.1510 N   0  0  0  0  0  0  0  0  0  0  0  0
   28.6930   51.0030   -7.7830 N   0  0  0  0  0  0  0  0  0  0  0  0
   29.1400   51.1100   -6.4720 C   0  0  0  0  0  0  0  0  0  0  0  0
   30.0910   43.4040   -3.7990 C   0  0  0  0  0  0  0  0  0  0  0  0
   31.0500   45.2960   -2.8190 C   0  0  2  0  0  0  0  0  0  0  0  0
   33.3250   46.8070   -5.5300 C   0  0  0  0  0  0  0  0  0  0  0  0
   29.2620   43.6600   -2.6400 N   0  0  0  0  0  0  0  0  0  0  0  0
   29.9250   44.7440   -1.8880 C   0  0  2  0  0  0  0  0  0  0  0  0
   31.3430   46.8050   -2.5560 C   0  0  0  0  0  0  0  0  0  0  0  0
   28.8690   45.7150   -1.4420 C   0  0  0  0  0  0  0  0  0  0  0  0
   30.2480   47.7160   -1.9590 C   0  0  2  0  0  0  0  0  0  0  0  0
   30.9170   48.8270   -0.4980 Br  0  0  0  0  0  0  0  0  0  0  0  0
   29.0140   47.0390   -1.4710 C   0  0  0  0  0  0  0  0  0  0  0  0
  1  2  1  0
  2  3  1  0
  2  4  1  0
  5  3  1  6
  4  6  2  0
  4  7  1  0
  5  8  1  0
  6  9  1  0
  7 10  2  0
  6 11  1  0
  5 12  1  0
  8 13  2  0
  8 14  1  0
  9 15  1  0
 10 15  1  0
  9 16  2  0
 11 17  2  0
 16 17  1  0
 12 18  1  1
 12 19  1  0
 14 20  1  0
 18 21  1  0
 19 22  1  0
 21 22  1  0
 19 23  1  6
 22 24  1  6
 23 25  1  0
 25 26  1  1
 24 27  2  0
 25 27  1  0
M  END
