mac-x0341-mac-x0116
     RDKit          3D

 22 25  0  0  0  0  0  0  0  0999 V2000
   27.3440   55.2470   -5.8170 N   0  0  0  0  0  0  0  0  0  0  0  0
   27.8780   54.0310   -5.5480 C   0  0  0  0  0  0  0  0  0  0  0  0
   28.2160   53.2720   -6.6240 N   0  0  0  0  0  0  0  0  0  0  0  0
   28.0250   53.6850   -4.3130 N   0  0  0  0  0  0  0  0  0  0  0  0
   28.5520   52.4800   -3.9520 C   0  0  0  0  0  0  0  0  0  0  0  0
   28.6950   52.0830   -6.4190 C   0  0  0  0  0  0  0  0  0  0  0  0
   28.7570   52.1610   -2.7860 O   0  0  0  0  0  0  0  0  0  0  0  0
   28.8720   51.5600   -5.0580 C   0  0  0  0  0  0  0  0  0  0  0  0
   29.0710   51.2000   -7.5930 C   0  0  0  0  0  0  0  0  0  0  0  0
   28.9290   51.7950   -8.8460 N   0  0  0  0  0  0  0  0  0  0  0  0
   29.4890   49.9590   -7.2990 C   0  0  0  0  0  0  0  0  0  0  0  0
   29.2970   50.3180   -4.8000 C   0  0  0  0  0  0  0  0  0  0  0  0
   29.7300   52.9170   -9.3240 C   0  0  0  0  0  0  0  0  0  0  0  0
   29.6030   49.4590   -5.9310 C   0  0  0  0  0  0  0  0  0  0  0  0
   29.8770   48.9240   -8.1200 N   0  0  0  0  0  0  0  0  0  0  0  0
   30.9580   53.1830   -8.5200 C   0  0  0  0  0  0  0  0  0  0  0  0
   29.9990   48.2270   -5.9420 N   0  0  0  0  0  0  0  0  0  0  0  0
   30.1500   47.9560   -7.2920 C   0  0  0  0  0  0  0  0  0  0  0  0
   31.9820   52.2860   -8.6430 O   0  0  0  0  0  0  0  0  0  0  0  0
   31.3130   54.1810   -7.6350 C   0  0  0  0  0  0  0  0  0  0  0  0
   32.6220   53.8780   -7.1930 C   0  0  0  0  0  0  0  0  0  0  0  0
   32.9840   52.7160   -7.8330 C   0  0  0  0  0  0  0  0  0  0  0  0
  1  2  1  0
  2  3  1  0
  2  4  2  0
  4  5  1  0
  3  6  2  0
  5  7  2  0
  5  8  1  0
  6  8  1  0
  6  9  1  0
  9 10  1  0
  9 11  2  0
  8 12  2  0
 10 13  1  0
 11 14  1  0
 12 14  1  0
 11 15  1  0
 13 16  1  0
 14 17  2  0
 15 18  2  0
 17 18  1  0
 16 19  1  0
 16 20  2  0
 20 21  1  0
 19 22  1  0
 21 22  2  0
M  END
