mac-x0178-mac-x0360
     RDKit          3D

 27 28  0  0  0  0  0  0  0  0999 V2000
   28.9640   44.4340   -0.1890 N   0  0  0  0  0  0  0  0  0  0  0  0
   29.3670   46.0630   -0.3180 S   0  0  0  0  0  0  0  0  0  0  0  0
   30.4550   46.2770    0.6100 O   0  0  0  0  0  0  0  0  0  0  0  0
   28.1450   46.8280   -0.2740 O   0  0  0  0  0  0  0  0  0  0  0  0
   30.0180   46.1420   -1.9670 C   0  0  0  0  0  0  0  0  0  0  0  0
   29.3550   45.4920   -3.0090 C   0  0  0  0  0  0  0  0  0  0  0  0
   31.1910   46.8570   -2.2100 C   0  0  0  0  0  0  0  0  0  0  0  0
   29.8730   45.5600   -4.3080 C   0  0  0  0  0  0  0  0  0  0  0  0
   31.7030   46.9210   -3.5090 C   0  0  0  0  0  0  0  0  0  0  0  0
   31.0550   46.2750   -4.5840 C   0  0  0  0  0  0  0  0  0  0  0  0
   31.6340   46.3640   -5.9910 C   0  0  0  0  0  0  0  0  0  0  0  0
   31.4040   45.1170   -6.6240 O   0  0  0  0  0  0  0  0  0  0  0  0
   33.0410   46.4970   -5.9880 O   0  0  0  0  0  0  0  0  0  0  0  0
   31.0110   47.4820   -6.8440 C   0  0  0  0  0  0  0  0  0  0  0  0
   31.2170   48.8970   -6.2960 C   0  0  0  0  0  0  0  0  0  0  0  0
   29.9180   49.4690   -5.8960 N   0  0  0  0  0  0  0  0  0  0  0  0
   29.5740   51.0620   -6.3120 S   0  0  0  0  0  0  0  0  0  0  0  0
   28.6450   51.5980   -5.3440 O   0  0  0  0  0  0  0  0  0  0  0  0
   29.2700   51.0430   -7.7260 O   0  0  0  0  0  0  0  0  0  0  0  0
   31.1380   51.8720   -6.1090 C   0  0  0  0  0  0  0  0  0  0  0  0
   32.0450   51.4250   -5.1420 C   0  0  0  0  0  0  0  0  0  0  0  0
   31.4430   52.9610   -6.9300 C   0  0  0  0  0  0  0  0  0  0  0  0
   33.2670   52.0870   -5.0080 C   0  0  0  0  0  0  0  0  0  0  0  0
   32.6680   53.6050   -6.7780 C   0  0  0  0  0  0  0  0  0  0  0  0
   33.0540   54.9460   -7.7830 Cl  0  0  0  0  0  0  0  0  0  0  0  0
   34.4000   51.5530   -3.8250 Cl  0  0  0  0  0  0  0  0  0  0  0  0
   33.5830   53.1730   -5.8210 C   0  0  0  0  0  0  0  0  0  0  0  0
  2  1  1  0
  2  3  2  0
  2  4  2  0
  2  5  1  0
  5  6  2  0
  5  7  1  0
  6  8  1  0
  7  9  2  0
  8 10  2  0
  9 10  1  0
 10 11  1  0
 11 12  1  0
 11 13  1  0
 11 14  1  0
 14 15  1  0
 15 16  1  0
 17 16  1  0
 17 18  2  0
 17 19  2  0
 17 20  1  0
 20 21  2  0
 20 22  1  0
 21 23  1  0
 22 24  2  0
 24 25  1  0
 23 26  1  0
 23 27  2  0
 24 27  1  0
M  END
