mac-x0138-mac-x0328
     RDKit          3D

 15 16  0  0  0  0  0  0  0  0999 V2000
   30.0390   47.3500   -4.3140 C   0  0  0  0  0  0  0  0  0  0  0  0
   31.4460   47.9040   -4.2130 C   0  0  0  0  0  0  0  0  0  0  0  0
   32.3530   47.3480   -3.5900 O   0  0  0  0  0  0  0  0  0  0  0  0
   29.0450   48.4370   -4.3760 N   0  0  0  0  0  0  0  0  0  0  0  0
   29.4480   49.6730   -3.6440 C   0  0  0  0  0  0  0  0  0  0  0  0
   28.7340   48.8950   -5.7350 C   0  0  1  0  0  0  0  0  0  0  0  0
   29.2630   50.8090   -4.5780 N   0  0  0  0  0  0  0  0  0  0  0  0
   29.5740   50.1600   -5.8610 C   0  0  2  0  0  0  0  0  0  0  0  0
   29.0680   47.9220   -6.7510 N   0  0  0  0  0  0  0  0  0  0  0  0
   30.3300   51.7680   -4.3330 O   0  0  0  0  0  0  0  0  0  0  0  0
   29.1780   50.8030   -7.2100 C   0  0  2  0  0  0  0  0  0  0  0  0
   29.2890   48.5410   -8.0290 C   0  0  1  0  0  0  0  0  0  0  0  0
   28.1530   51.8320   -7.1280 N   0  0  0  0  0  0  0  0  0  0  0  0
   28.5790   47.7300   -8.9570 N   0  0  0  0  0  0  0  0  0  0  0  0
   28.6650   49.8220   -8.1570 N   0  0  0  0  0  0  0  0  0  0  0  0
  1  2  1  0
  2  3  2  0
  1  4  1  0
  4  5  1  0
  4  6  1  0
  5  7  1  0
  6  8  1  0
  8  7  1  1
  6  9  1  6
  7 10  1  0
  8 11  1  0
  9 12  1  0
 11 13  1  1
 12 14  1  6
 11 15  1  0
 12 15  1  0
M  END
