mac-x0263
     RDKit          3D

 14 15  0  0  0  0  0  0  0  0999 V2000
   27.9560   59.9610   -6.4300 O   0  0  0  0  0  0  0  0  0  0  0  0
   27.0020   59.1590   -6.3810 C   0  0  0  0  0  0  0  0  0  0  0  0
   25.8370   59.5520   -6.5640 O   0  0  0  0  0  0  0  0  0  0  0  0
   27.2280   57.7190   -6.0400 C   0  0  0  0  0  0  0  0  0  0  0  0
   28.5550   57.1120   -6.4730 C   0  0  0  0  0  0  0  0  0  0  0  0
   28.4620   55.6610   -6.1160 C   0  0  0  0  0  0  0  0  0  0  0  0
   28.5600   55.1360   -4.9160 N   0  0  0  0  0  0  0  0  0  0  0  0
   28.3320   53.8060   -5.0260 C   0  0  0  0  0  0  0  0  0  0  0  0
   28.3120   52.7500   -4.0890 C   0  0  0  0  0  0  0  0  0  0  0  0
   28.0830   51.4590   -4.5470 C   0  0  0  0  0  0  0  0  0  0  0  0
   27.8580   51.2050   -5.8920 C   0  0  0  0  0  0  0  0  0  0  0  0
   27.8650   52.2460   -6.8020 C   0  0  0  0  0  0  0  0  0  0  0  0
   28.1070   53.5570   -6.3580 C   0  0  0  0  0  0  0  0  0  0  0  0
   28.1990   54.7230   -7.0040 N   0  0  0  0  0  0  0  0  0  0  0  0
  1  2  1  0
  2  3  2  0
  2  4  1  0
  4  5  1  0
  5  6  1  0
  6  7  2  0
  7  8  1  0
  8  9  2  0
  9 10  1  0
 10 11  2  0
 11 12  1  0
  8 13  1  0
 12 13  2  0
  6 14  1  0
 13 14  1  0
M  END
