mac-x0472-mac-x0357
     RDKit          3D

 27 29  0  0  0  0  0  0  0  0999 V2000
   29.5630   50.6760   -3.4770 O   0  0  0  0  0  0  0  0  0  0  0  0
   30.3910   49.6130   -4.0120 S   0  0  0  0  0  0  0  0  0  0  0  0
   30.8300   48.5590   -3.1200 O   0  0  0  0  0  0  0  0  0  0  0  0
   29.5650   48.9380   -5.3450 N   0  0  0  0  0  0  0  0  0  0  0  0
   31.8660   50.4000   -4.6570 C   0  0  0  0  0  0  0  0  0  0  0  0
   29.9970   47.6130   -5.8120 C   0  0  0  0  0  0  0  0  0  0  0  0
   29.1990   49.9150   -6.3610 C   0  0  0  0  0  0  0  0  0  0  0  0
   32.8930   49.6260   -5.2080 C   0  0  0  0  0  0  0  0  0  0  0  0
   31.9870   51.7950   -4.6030 C   0  0  0  0  0  0  0  0  0  0  0  0
   31.0430   47.1480   -4.9140 N   0  0  0  0  0  0  0  0  0  0  0  0
   28.9540   49.5720   -7.6070 N   0  0  0  0  0  0  0  0  0  0  0  0
   29.0470   51.5910   -6.0410 S   0  0  0  0  0  0  0  0  0  0  0  0
   34.0380   50.2490   -5.7020 C   0  0  0  0  0  0  0  0  0  0  0  0
   33.1370   52.4100   -5.1010 C   0  0  0  0  0  0  0  0  0  0  0  0
   31.9400   46.3410   -5.3250 C   0  0  0  0  0  0  0  0  0  0  0  0
   28.6360   51.7760   -7.6950 C   0  0  0  0  0  0  0  0  0  0  0  0
   28.6240   50.6580   -8.3920 N   0  0  0  0  0  0  0  0  0  0  0  0
   34.1620   51.6390   -5.6500 C   0  0  0  0  0  0  0  0  0  0  0  0
   31.9000   45.9060   -6.5980 O   0  0  0  0  0  0  0  0  0  0  0  0
   33.0730   45.7770   -4.6040 C   0  0  0  0  0  0  0  0  0  0  0  0
   33.2090   44.3960   -4.3680 C   0  0  0  0  0  0  0  0  0  0  0  0
   34.0280   46.6980   -4.1480 C   0  0  0  0  0  0  0  0  0  0  0  0
   32.1840   43.4100   -4.8560 C   0  0  0  0  0  0  0  0  0  0  0  0
   35.1400   46.2580   -3.4460 C   0  0  0  0  0  0  0  0  0  0  0  0
   34.3420   43.9840   -3.6550 C   0  0  0  0  0  0  0  0  0  0  0  0
   34.5960   42.6750   -3.3550 O   0  0  0  0  0  0  0  0  0  0  0  0
   35.2970   44.8970   -3.1990 C   0  0  0  0  0  0  0  0  0  0  0  0
  1  2  2  0
  2  3  2  0
  2  4  1  0
  2  5  1  0
  4  6  1  0
  4  7  1  0
  5  8  2  0
  5  9  1  0
  6 10  1  0
  7 11  2  0
  7 12  1  0
  8 13  1  0
  9 14  2  0
 10 15  2  3
 12 16  1  0
 11 17  1  0
 16 17  2  0
 13 18  2  0
 14 18  1  0
 15 19  1  0
 15 20  1  0
 20 21  2  0
 20 22  1  0
 21 23  1  0
 22 24  2  0
 21 25  1  0
 25 26  1  0
 24 27  1  0
 25 27  2  0
M  END
