mac-x0576-mac-x0417
     RDKit          3D

 28 31  0  0  0  0  0  0  0  0999 V2000
   29.2580   47.6500   -9.2550 N   0  0  0  0  0  0  0  0  0  0  0  0
   28.8030   48.2480   -8.0300 C   0  0  2  0  0  0  0  0  0  0  0  0
   29.1620   49.6390   -8.1770 N   0  0  0  0  0  0  0  0  0  0  0  0
   29.2010   47.5530   -6.8500 N   0  0  0  0  0  0  0  0  0  0  0  0
   29.7190   48.1840   -5.7300 C   0  0  0  0  0  0  0  0  0  0  0  0
   28.8930   50.2590   -6.9000 C   0  0  1  0  0  0  0  0  0  0  0  0
   30.1530   47.6220   -4.6500 N   0  0  0  0  0  0  0  0  0  0  0  0
   29.7880   49.7270   -5.7690 C   0  0  1  0  0  0  0  0  0  0  0  0
   29.0760   51.6760   -7.0570 N   0  0  0  0  0  0  0  0  0  0  0  0
   30.1750   46.1740   -4.4090 C   0  0  0  0  0  0  0  0  0  0  0  0
   29.1310   52.4740   -5.9280 C   0  0  0  0  0  0  0  0  0  0  0  0
   29.3230   50.3600   -4.5200 N   0  0  0  0  0  0  0  0  0  0  0  0
   28.8460   53.6740   -5.9910 O   0  0  0  0  0  0  0  0  0  0  0  0
   30.7640   45.3870   -5.5960 C   0  0  0  0  0  0  0  0  0  0  0  0
   29.5620   51.8160   -4.5890 C   0  0  0  0  0  0  0  0  0  0  0  0
   32.0030   45.9770   -6.0650 O   0  0  0  0  0  0  0  0  0  0  0  0
   33.1500   45.4990   -5.5140 C   0  0  0  0  0  0  0  0  0  0  0  0
   34.1870   45.2920   -6.1500 O   0  0  0  0  0  0  0  0  0  0  0  0
   33.0400   45.2540   -4.0250 C   0  0  0  0  0  0  0  0  0  0  0  0
   34.3380   45.0080   -3.3480 C   0  0  0  0  0  0  0  0  0  0  0  0
   34.6670   43.7780   -2.9330 N   0  0  0  0  0  0  0  0  0  0  0  0
   35.3630   45.9450   -3.0470 C   0  0  0  0  0  0  0  0  0  0  0  0
   35.9180   43.8950   -2.3520 O   0  0  0  0  0  0  0  0  0  0  0  0
   36.3340   45.1850   -2.4210 C   0  0  0  0  0  0  0  0  0  0  0  0
   35.5880   47.3210   -3.2210 C   0  0  0  0  0  0  0  0  0  0  0  0
   37.5390   45.6840   -1.9430 C   0  0  0  0  0  0  0  0  0  0  0  0
   36.7950   47.8590   -2.7510 C   0  0  0  0  0  0  0  0  0  0  0  0
   37.7530   47.0560   -2.1230 C   0  0  0  0  0  0  0  0  0  0  0  0
  2  1  1  6
  2  3  1  0
  2  4  1  0
  4  5  1  0
  6  3  1  6
  5  7  2  3
  5  8  1  0
  6  8  1  0
  6  9  1  0
  7 10  1  0
  9 11  1  0
  8 12  1  1
 11 13  2  0
 10 14  1  0
 11 15  1  0
 12 15  1  0
 14 16  1  0
 16 17  1  0
 17 18  2  0
 17 19  1  0
 19 20  1  0
 20 21  2  0
 20 22  1  0
 21 23  1  0
 22 24  2  0
 23 24  1  0
 22 25  1  0
 24 26  1  0
 25 27  2  0
 26 28  2  0
 27 28  1  0
M  END
