mac-x0412-mac-x0397
     RDKit          3D

 12 13  0  0  0  0  0  0  0  0999 V2000
   30.1920   54.2710   -4.2350 O   0  0  0  0  0  0  0  0  0  0  0  0
   29.3090   53.7070   -4.8730 C   0  0  0  0  0  0  0  0  0  0  0  0
   28.6470   54.3400   -5.9160 N   0  0  0  0  0  0  0  0  0  0  0  0
   28.8380   52.2590   -4.5990 C   0  0  1  0  0  0  0  0  0  0  0  0
   29.0060   51.5270   -5.9370 C   0  0  0  0  0  0  0  0  0  0  0  0
   28.4160   53.6030   -6.9520 C   0  0  0  0  0  0  0  0  0  0  0  0
   29.5140   51.5500   -3.4510 C   0  0  0  0  0  0  0  0  0  0  0  0
   29.6880   52.4120   -1.9610 Cl  0  0  0  0  0  0  0  0  0  0  0  0
   28.7990   52.1810   -7.0920 C   0  0  0  0  0  0  0  0  0  0  0  0
   29.3880   50.1260   -5.9090 C   0  0  0  0  0  0  0  0  0  0  0  0
   29.9750   50.2920   -3.5500 C   0  0  0  0  0  0  0  0  0  0  0  0
   29.8420   49.5510   -4.7840 C   0  0  0  0  0  0  0  0  0  0  0  0
  1  2  2  0
  2  3  1  0
  4  2  1  6
  4  5  1  0
  3  6  2  0
  4  7  1  0
  7  8  1  0
  5  9  2  0
  6  9  1  0
  5 10  1  0
  7 11  2  0
 10 12  2  0
 11 12  1  0
M  END
