mac-x0397-mac-x0231
     RDKit          3D

 27 30  0  0  0  0  0  0  0  0999 V2000
   29.0180   54.1060   -2.6700 Cl  0  0  0  0  0  0  0  0  0  0  0  0
   29.3980   52.5480   -3.2580 C   0  0  0  0  0  0  0  0  0  0  0  0
   29.2440   52.3390   -4.6390 C   0  0  0  0  0  0  0  0  0  0  0  0
   29.8350   51.5450   -2.4060 C   0  0  0  0  0  0  0  0  0  0  0  0
   28.8200   53.2530   -5.5960 N   0  0  0  0  0  0  0  0  0  0  0  0
   29.5480   51.0670   -5.1340 C   0  0  0  0  0  0  0  0  0  0  0  0
   30.1380   50.2840   -2.9030 C   0  0  0  0  0  0  0  0  0  0  0  0
   30.6110   49.2250   -1.9350 C   0  0  0  0  0  0  0  0  0  0  0  0
   28.8000   52.7010   -6.7770 C   0  0  0  0  0  0  0  0  0  0  0  0
   29.2830   51.0580   -6.8380 S   0  0  0  0  0  0  0  0  0  0  0  0
   29.9970   50.0240   -4.2870 C   0  0  0  0  0  0  0  0  0  0  0  0
   28.4280   53.3720   -7.8800 N   0  0  0  0  0  0  0  0  0  0  0  0
   30.9160   47.9150   -2.6000 C   0  0  0  0  0  0  0  0  0  0  0  0
   29.9790   46.8780   -2.5750 C   0  0  0  0  0  0  0  0  0  0  0  0
   32.1380   47.7170   -3.2520 C   0  0  0  0  0  0  0  0  0  0  0  0
   30.2630   45.6610   -3.2000 C   0  0  0  0  0  0  0  0  0  0  0  0
   32.4200   46.5010   -3.8780 C   0  0  0  0  0  0  0  0  0  0  0  0
   31.4780   45.4670   -3.8550 C   0  0  0  0  0  0  0  0  0  0  0  0
   29.2760   44.5680   -3.1750 C   0  0  0  0  0  0  0  0  0  0  0  0
   28.1780   44.7070   -2.6450 O   0  0  0  0  0  0  0  0  0  0  0  0
   31.6980   44.1480   -4.5010 C   0  0  0  0  0  0  0  0  0  0  0  0
   29.6620   43.3950   -3.7740 N   0  0  0  0  0  0  0  0  0  0  0  0
   32.9780   43.8760   -5.2610 C   0  0  0  0  0  0  0  0  0  0  0  0
   30.8240   43.1820   -4.4490 N   0  0  0  0  0  0  0  0  0  0  0  0
   33.1030   44.6350   -6.5510 C   0  0  0  0  0  0  0  0  0  0  0  0
   34.3530   45.1010   -6.7490 O   0  0  0  0  0  0  0  0  0  0  0  0
   32.2300   44.8510   -7.3770 O   0  0  0  0  0  0  0  0  0  0  0  0
  1  2  1  0
  2  3  2  0
  2  4  1  0
  3  5  1  0
  3  6  1  0
  4  7  2  0
  7  8  1  0
  5  9  2  0
  6 10  1  0
  9 10  1  0
  6 11  2  0
  7 11  1  0
  9 12  1  0
  8 13  1  0
 13 14  2  0
 13 15  1  0
 14 16  1  0
 15 17  2  0
 16 18  2  0
 17 18  1  0
 16 19  1  0
 19 20  2  0
 18 21  1  0
 19 22  1  0
 21 23  1  0
 21 24  2  0
 22 24  1  0
 23 25  1  0
 25 26  1  0
 25 27  2  0
M  END
