mac-x0319-mac-x0139
     RDKit          3D

 23 25  0  0  0  0  0  0  0  0999 V2000
   34.4490   45.5020   -5.9630 O   0  0  0  0  0  0  0  0  0  0  0  0
   33.1780   45.0730   -6.1370 C   0  0  0  0  0  0  0  0  0  0  0  0
   32.9550   44.1010   -6.8150 O   0  0  0  0  0  0  0  0  0  0  0  0
   32.1640   45.9440   -5.4710 C   0  0  1  0  0  0  0  0  0  0  0  0
   31.0120   46.0790   -6.4360 C   0  0  0  0  0  0  0  0  0  0  0  0
   31.4510   45.7020   -4.1790 C   0  0  0  0  0  0  0  0  0  0  0  0
   29.9100   46.9220   -5.9430 N   0  0  0  0  0  0  0  0  0  0  0  0
   30.4160   44.7590   -4.1240 C   0  0  0  0  0  0  0  0  0  0  0  0
   31.7740   46.4410   -3.0380 C   0  0  0  0  0  0  0  0  0  0  0  0
   30.0830   47.5080   -4.6090 C   0  0  0  0  0  0  0  0  0  0  0  0
   29.7100   44.5720   -2.9570 C   0  0  0  0  0  0  0  0  0  0  0  0
   31.0580   46.2450   -1.8640 C   0  0  0  0  0  0  0  0  0  0  0  0
   29.3330   47.6460   -6.9510 C   0  0  0  0  0  0  0  0  0  0  0  0
   28.6910   43.6660   -2.8930 O   0  0  0  0  0  0  0  0  0  0  0  0
   30.0200   45.3100   -1.8240 C   0  0  0  0  0  0  0  0  0  0  0  0
   29.2110   48.9780   -6.8950 C   0  0  0  0  0  0  0  0  0  0  0  0
   28.8970   46.9070   -8.0580 N   0  0  0  0  0  0  0  0  0  0  0  0
   28.6030   49.6510   -8.0550 C   0  0  0  0  0  0  0  0  0  0  0  0
   28.3760   47.5420   -9.0470 C   0  0  0  0  0  0  0  0  0  0  0  0
   29.5110   50.0560   -6.0020 C   0  0  0  0  0  0  0  0  0  0  0  0
   28.2090   48.8860   -9.1000 N   0  0  0  0  0  0  0  0  0  0  0  0
   28.5360   50.9440   -7.8910 N   0  0  0  0  0  0  0  0  0  0  0  0
   29.0930   51.1570   -6.6400 C   0  0  0  0  0  0  0  0  0  0  0  0
  1  2  1  0
  2  3  2  0
  2  4  1  0
  4  5  1  6
  4  6  1  0
  5  7  1  0
  6  8  2  0
  6  9  1  0
  7 10  1  0
  8 11  1  0
  9 12  2  0
  7 13  1  0
 11 14  1  0
 11 15  2  0
 12 15  1  0
 13 16  2  0
 13 17  1  0
 16 18  1  0
 17 19  2  0
 16 20  1  0
 18 21  1  0
 19 21  1  0
 18 22  2  0
 20 23  2  0
 22 23  1  0
M  END
