mac-x0212-mac-x0213
     RDKit          3D

 25 27  0  0  0  0  0  0  0  0999 V2000
   29.7930   53.2970   -5.7060 C   0  0  0  0  0  0  0  0  0  0  0  0
   28.1770   53.3180   -4.9560 S   0  0  0  0  0  0  0  0  0  0  0  0
   27.2160   53.7550   -5.9440 O   0  0  0  0  0  0  0  0  0  0  0  0
   28.3000   53.9990   -3.6830 O   0  0  0  0  0  0  0  0  0  0  0  0
   27.9340   51.6940   -4.5830 N   0  0  0  0  0  0  0  0  0  0  0  0
   29.0230   50.7800   -4.6430 C   0  0  0  0  0  0  0  0  0  0  0  0
   29.1740   49.8880   -5.7020 C   0  0  0  0  0  0  0  0  0  0  0  0
   29.9600   50.7850   -3.6130 C   0  0  0  0  0  0  0  0  0  0  0  0
   30.2610   49.0040   -5.7330 C   0  0  0  0  0  0  0  0  0  0  0  0
   31.0410   49.9020   -3.6460 C   0  0  0  0  0  0  0  0  0  0  0  0
   31.2180   48.9920   -4.7070 C   0  0  0  0  0  0  0  0  0  0  0  0
   32.4200   48.0570   -4.6920 C   0  0  2  0  0  0  0  0  0  0  0  0
   32.2570   46.4890   -4.7500 C   0  0  0  0  0  0  0  0  0  0  0  0
   33.3020   48.3830   -3.5970 O   0  0  0  0  0  0  0  0  0  0  0  0
   33.5030   45.8110   -4.8000 O   0  0  0  0  0  0  0  0  0  0  0  0
   31.7070   46.2460   -6.0670 O   0  0  0  0  0  0  0  0  0  0  0  0
   31.2600   45.8390   -3.7350 C   0  0  2  0  0  0  0  0  0  0  0  0
   30.4570   44.6680   -4.3760 C   0  0  0  0  0  0  0  0  0  0  0  0
   30.1010   46.6490   -3.2140 C   0  0  0  0  0  0  0  0  0  0  0  0
   28.9140   46.3290   -3.8810 C   0  0  0  0  0  0  0  0  0  0  0  0
   29.1530   45.2770   -4.9140 C   0  0  0  0  0  0  0  0  0  0  0  0
   30.1050   47.6070   -2.2100 C   0  0  0  0  0  0  0  0  0  0  0  0
   28.9030   48.2400   -1.8850 C   0  0  0  0  0  0  0  0  0  0  0  0
   27.7180   46.9490   -3.5670 C   0  0  0  0  0  0  0  0  0  0  0  0
   27.7180   47.9120   -2.5600 C   0  0  0  0  0  0  0  0  0  0  0  0
  1  2  1  0
  2  3  2  0
  2  4  2  0
  2  5  1  0
  5  6  1  0
  6  7  2  0
  6  8  1  0
  7  9  1  0
  8 10  2  0
  9 11  2  0
 10 11  1  0
 11 12  1  0
 12 13  1  0
 12 14  1  1
 13 15  1  0
 13 16  1  0
 17 13  1  6
 17 18  1  0
 17 19  1  0
 19 20  2  0
 18 21  1  0
 20 21  1  0
 19 22  1  0
 22 23  2  0
 20 24  1  0
 23 25  1  0
 24 25  2  0
M  END
