mac-x0223-mac-x0338
     RDKit          3D

 24 25  0  0  0  0  0  0  0  0999 V2000
   27.3410   44.0710   -2.0980 C   0  0  0  0  0  0  0  0  0  0  0  0
   27.6530   45.4550   -2.1640 O   0  0  0  0  0  0  0  0  0  0  0  0
   28.9510   45.7970   -2.4590 C   0  0  0  0  0  0  0  0  0  0  0  0
   29.4620   46.9340   -1.7990 C   0  0  0  0  0  0  0  0  0  0  0  0
   29.7670   45.0950   -3.3550 C   0  0  0  0  0  0  0  0  0  0  0  0
   28.6040   47.5750   -0.9430 O   0  0  0  0  0  0  0  0  0  0  0  0
   30.7760   47.3380   -2.0470 C   0  0  0  0  0  0  0  0  0  0  0  0
   31.0850   45.5080   -3.6040 C   0  0  0  0  0  0  0  0  0  0  0  0
   31.9630   44.7510   -4.5750 C   0  0  0  0  0  0  0  0  0  0  0  0
   28.1320   48.8750   -1.3020 C   0  0  0  0  0  0  0  0  0  0  0  0
   31.5790   46.6320   -2.9410 C   0  0  0  0  0  0  0  0  0  0  0  0
   32.4170   45.5740   -5.7580 C   0  0  0  0  0  0  0  0  0  0  0  0
   29.2980   49.8430   -1.5050 C   0  0  0  0  0  0  0  0  0  0  0  0
   33.4070   46.2790   -5.8590 O   0  0  0  0  0  0  0  0  0  0  0  0
   31.5670   45.4610   -6.8040 O   0  0  0  0  0  0  0  0  0  0  0  0
   29.2410   50.5200   -2.8480 C   0  0  0  0  0  0  0  0  0  0  0  0
   29.0500   49.8020   -4.0290 C   0  0  0  0  0  0  0  0  0  0  0  0
   29.3850   51.8700   -2.8620 N   0  0  0  0  0  0  0  0  0  0  0  0
   28.9920   50.3940   -5.2500 N   0  0  0  0  0  0  0  0  0  0  0  0
   29.3260   52.4600   -4.0830 C   0  0  0  0  0  0  0  0  0  0  0  0
   29.1330   51.7450   -5.2540 C   0  0  0  0  0  0  0  0  0  0  0  0
   29.0710   52.4390   -6.5700 C   0  0  0  0  0  0  0  0  0  0  0  0
   28.8210   51.6740   -7.6860 N   0  0  0  0  0  0  0  0  0  0  0  0
   29.2280   53.6500   -6.6860 O   0  0  0  0  0  0  0  0  0  0  0  0
  1  2  1  0
  2  3  1  0
  3  4  2  0
  3  5  1  0
  4  6  1  0
  4  7  1  0
  5  8  2  0
  8  9  1  0
  6 10  1  0
  7 11  2  0
  8 11  1  0
  9 12  1  0
 10 13  1  0
 12 14  2  0
 12 15  1  0
 13 16  1  0
 16 17  2  0
 16 18  1  0
 17 19  1  0
 18 20  2  0
 19 21  2  0
 20 21  1  0
 21 22  1  0
 22 23  1  0
 22 24  2  0
M  END
