mac-x0357-mac-x0301
     RDKit          3D

 21 23  0  0  0  0  0  0  0  0999 V2000
   32.5460   43.3010   -4.7420 C   0  0  0  0  0  0  0  0  0  0  0  0
   33.3110   44.5260   -4.3070 C   0  0  0  0  0  0  0  0  0  0  0  0
   34.4540   44.3600   -3.5050 C   0  0  0  0  0  0  0  0  0  0  0  0
   32.9260   45.8400   -4.6750 C   0  0  0  0  0  0  0  0  0  0  0  0
   34.8320   43.0950   -3.1450 O   0  0  0  0  0  0  0  0  0  0  0  0
   31.7080   46.1580   -5.5430 C   0  0  2  0  0  0  0  0  0  0  0  0
   33.7020   46.9310   -4.2240 C   0  0  0  0  0  0  0  0  0  0  0  0
   35.2100   45.4480   -3.0670 C   0  0  0  0  0  0  0  0  0  0  0  0
   30.4960   46.6660   -4.7300 C   0  0  0  0  0  0  0  0  0  0  0  0
   31.4630   45.0510   -6.4040 O   0  0  0  0  0  0  0  0  0  0  0  0
   34.8310   46.7340   -3.4280 C   0  0  0  0  0  0  0  0  0  0  0  0
   29.9870   46.0410   -3.8010 O   0  0  0  0  0  0  0  0  0  0  0  0
   29.9180   47.9820   -5.0960 C   0  0  0  0  0  0  0  0  0  0  0  0
   29.3830   48.1920   -6.3540 C   0  0  0  0  0  0  0  0  0  0  0  0
   29.8990   49.0430   -4.1770 C   0  0  0  0  0  0  0  0  0  0  0  0
   28.8450   49.4120   -6.6970 C   0  0  0  0  0  0  0  0  0  0  0  0
   29.3450   50.2840   -4.5410 C   0  0  0  0  0  0  0  0  0  0  0  0
   29.3050   47.3030   -7.3820 O   0  0  0  0  0  0  0  0  0  0  0  0
   28.8090   50.4760   -5.8170 C   0  0  0  0  0  0  0  0  0  0  0  0
   28.3670   49.4380   -7.9720 O   0  0  0  0  0  0  0  0  0  0  0  0
   28.6600   48.0900   -8.3960 C   0  0  0  0  0  0  0  0  0  0  0  0
  1  2  1  0
  2  3  2  0
  2  4  1  0
  3  5  1  0
  4  6  1  0
  4  7  2  0
  3  8  1  0
  6  9  1  0
  6 10  1  1
  7 11  1  0
  8 11  2  0
  9 12  2  0
  9 13  1  0
 13 14  1  0
 13 15  2  0
 14 16  2  0
 15 17  1  0
 14 18  1  0
 16 19  1  0
 17 19  2  0
 16 20  1  0
 18 21  1  0
 20 21  1  0
M  END
