mac-x0132-mac-x0212
     RDKit          3D

 18 19  0  0  0  0  0  0  0  0999 V2000
   29.0820   52.9250   -6.5080 N   0  0  0  0  0  0  0  0  0  0  0  0
   29.4260   54.4220   -7.2200 S   0  0  0  0  0  0  0  0  0  0  0  0
   30.7200   53.9350   -8.3350 C   0  0  0  0  0  0  0  0  0  0  0  0
   29.1450   52.9730   -5.0950 C   0  0  0  0  0  0  0  0  0  0  0  0
   30.0020   55.3360   -6.2610 O   0  0  0  0  0  0  0  0  0  0  0  0
   28.2630   54.7710   -7.9930 O   0  0  0  0  0  0  0  0  0  0  0  0
   29.4950   51.8870   -4.2890 C   0  0  0  0  0  0  0  0  0  0  0  0
   28.8250   54.1970   -4.6600 N   0  0  0  0  0  0  0  0  0  0  0  0
   29.4910   52.1840   -2.9220 C   0  0  0  0  0  0  0  0  0  0  0  0
   28.8600   54.3460   -3.3360 C   0  0  0  0  0  0  0  0  0  0  0  0
   29.8380   50.5800   -4.7360 C   0  0  0  0  0  0  0  0  0  0  0  0
   29.1780   53.3980   -2.4450 N   0  0  0  0  0  0  0  0  0  0  0  0
   29.8270   51.1760   -2.0300 C   0  0  0  0  0  0  0  0  0  0  0  0
   30.1720   49.5790   -3.8170 C   0  0  0  0  0  0  0  0  0  0  0  0
   30.5280   48.2240   -4.3130 C   0  0  0  0  0  0  0  0  0  0  0  0
   30.1640   49.8860   -2.4570 C   0  0  0  0  0  0  0  0  0  0  0  0
   30.5170   47.8580   -5.4750 O   0  0  0  0  0  0  0  0  0  0  0  0
   30.8810   47.3870   -3.3230 O   0  0  0  0  0  0  0  0  0  0  0  0
  2  1  1  0
  2  3  1  0
  1  4  1  0
  2  5  2  0
  2  6  2  0
  4  7  2  0
  4  8  1  0
  7  9  1  0
  8 10  2  0
  7 11  1  0
  9 12  2  0
 10 12  1  0
  9 13  1  0
 11 14  2  0
 14 15  1  0
 13 16  2  0
 14 16  1  0
 15 17  2  0
 15 18  1  0
M  END
