mac-x0346-mac-x0212
     RDKit          3D

 16 16  0  0  0  0  0  0  0  0999 V2000
   29.5280   54.7200   -5.6750 C   0  0  0  0  0  0  0  0  0  0  0  0
   29.4180   54.4720   -4.3370 N   0  0  0  0  0  0  0  0  0  0  0  0
   29.5150   53.1970   -3.8240 C   0  0  0  0  0  0  0  0  0  0  0  0
   30.6970   54.1320   -6.4240 C   0  0  0  0  0  0  0  0  0  0  0  0
   28.6800   55.4120   -6.2320 O   0  0  0  0  0  0  0  0  0  0  0  0
   29.7940   53.0420   -2.6400 O   0  0  0  0  0  0  0  0  0  0  0  0
   29.3010   51.9890   -4.6780 C   0  0  0  0  0  0  0  0  0  0  0  0
   29.8070   50.7380   -4.2890 C   0  0  0  0  0  0  0  0  0  0  0  0
   28.5900   52.1070   -5.8830 C   0  0  0  0  0  0  0  0  0  0  0  0
   30.4870   50.6730   -3.1050 O   0  0  0  0  0  0  0  0  0  0  0  0
   29.6270   49.5940   -5.0830 C   0  0  0  0  0  0  0  0  0  0  0  0
   28.3910   50.9810   -6.6900 C   0  0  0  0  0  0  0  0  0  0  0  0
   30.1820   48.2360   -4.6900 C   0  0  0  0  0  0  0  0  0  0  0  0
   28.9050   49.7310   -6.2950 C   0  0  0  0  0  0  0  0  0  0  0  0
   30.4330   47.3030   -5.4340 O   0  0  0  0  0  0  0  0  0  0  0  0
   30.4260   48.0990   -3.3630 O   0  0  0  0  0  0  0  0  0  0  0  0
  1  2  1  0
  2  3  1  0
  1  4  1  0
  1  5  2  0
  3  6  2  0
  3  7  1  0
  7  8  2  0
  7  9  1  0
  8 10  1  0
  8 11  1  0
  9 12  2  0
 11 13  1  0
 11 14  2  0
 12 14  1  0
 13 15  2  0
 13 16  1  0
M  END
