mac-x0319-mac-x0411
     RDKit          3D

 21 22  0  0  0  0  0  0  0  0999 V2000
   32.9390   46.1790   -7.6160 O   0  0  0  0  0  0  0  0  0  0  0  0
   32.6510   45.2160   -6.7110 C   0  0  0  0  0  0  0  0  0  0  0  0
   32.2320   44.1330   -7.0930 O   0  0  0  0  0  0  0  0  0  0  0  0
   32.9080   45.6500   -5.2780 C   0  0  2  0  0  0  0  0  0  0  0  0
   33.9680   44.7140   -4.6740 C   0  0  0  0  0  0  0  0  0  0  0  0
   31.6360   45.7250   -4.4390 C   0  0  0  0  0  0  0  0  0  0  0  0
   34.1080   45.0060   -3.2680 O   0  0  0  0  0  0  0  0  0  0  0  0
   30.9300   44.5770   -4.0340 C   0  0  0  0  0  0  0  0  0  0  0  0
   31.1390   46.9830   -4.0480 C   0  0  0  0  0  0  0  0  0  0  0  0
   29.7710   44.6990   -3.2680 C   0  0  0  0  0  0  0  0  0  0  0  0
   29.9830   47.0910   -3.2780 C   0  0  0  0  0  0  0  0  0  0  0  0
   35.1420   45.8820   -3.0380 C   0  0  0  0  0  0  0  0  0  0  0  0
   29.0650   43.6040   -2.8630 O   0  0  0  0  0  0  0  0  0  0  0  0
   29.2940   45.9470   -2.8890 C   0  0  0  0  0  0  0  0  0  0  0  0
   34.8820   47.1780   -2.5660 C   0  0  0  0  0  0  0  0  0  0  0  0
   36.4690   45.4920   -3.2700 C   0  0  0  0  0  0  0  0  0  0  0  0
   36.8710   43.9130   -3.8460 Cl  0  0  0  0  0  0  0  0  0  0  0  0
   33.2760   47.7320   -2.2520 Cl  0  0  0  0  0  0  0  0  0  0  0  0
   35.9310   48.0680   -2.3350 C   0  0  0  0  0  0  0  0  0  0  0  0
   37.5170   46.3880   -3.0370 C   0  0  0  0  0  0  0  0  0  0  0  0
   37.2480   47.6760   -2.5690 C   0  0  0  0  0  0  0  0  0  0  0  0
  1  2  1  0
  2  3  2  0
  2  4  1  0
  4  5  1  1
  4  6  1  0
  5  7  1  0
  6  8  2  0
  6  9  1  0
  8 10  1  0
  9 11  2  0
  7 12  1  0
 10 13  1  0
 10 14  2  0
 11 14  1  0
 12 15  2  0
 12 16  1  0
 16 17  1  0
 15 18  1  0
 15 19  1  0
 16 20  2  0
 19 21  2  0
 20 21  1  0
M  END
