mac-x0358-mac-x0132
     RDKit          3D

 23 25  0  0  0  0  0  0  0  0999 V2000
   31.7880   44.8360   -6.4220 O   0  0  0  0  0  0  0  0  0  0  0  0
   32.9340   45.0980   -5.7490 C   0  0  0  0  0  0  0  0  0  0  0  0
   33.8980   45.5260   -6.3610 O   0  0  0  0  0  0  0  0  0  0  0  0
   32.8110   44.8120   -4.2650 C   0  0  0  0  0  0  0  0  0  0  0  0
   32.2900   46.0190   -3.5350 C   0  0  0  0  0  0  0  0  0  0  0  0
   33.1310   47.0980   -3.2490 C   0  0  0  0  0  0  0  0  0  0  0  0
   30.9480   46.0800   -3.1460 C   0  0  0  0  0  0  0  0  0  0  0  0
   34.4430   47.0250   -3.6240 O   0  0  0  0  0  0  0  0  0  0  0  0
   32.6430   48.2310   -2.6040 C   0  0  0  0  0  0  0  0  0  0  0  0
   30.4550   47.2100   -2.5000 C   0  0  0  0  0  0  0  0  0  0  0  0
   31.2940   48.2980   -2.2350 C   0  0  0  0  0  0  0  0  0  0  0  0
   30.7260   49.5290   -1.5820 C   0  0  0  0  0  0  0  0  0  0  0  0
   30.2140   50.4240   -2.6970 C   0  0  0  0  0  0  0  0  0  0  0  0
   30.2270   51.8290   -2.6130 C   0  0  0  0  0  0  0  0  0  0  0  0
   29.7110   49.8350   -3.8640 C   0  0  0  0  0  0  0  0  0  0  0  0
   29.7640   52.6400   -3.6510 C   0  0  0  0  0  0  0  0  0  0  0  0
   29.2440   50.6240   -4.9100 C   0  0  0  0  0  0  0  0  0  0  0  0
   29.2680   52.0320   -4.8130 C   0  0  0  0  0  0  0  0  0  0  0  0
   29.8090   53.9710   -3.5080 N   0  0  0  0  0  0  0  0  0  0  0  0
   28.8250   52.9130   -5.8140 C   0  0  0  0  0  0  0  0  0  0  0  0
   29.3560   54.7070   -4.5360 C   0  0  0  0  0  0  0  0  0  0  0  0
   28.3090   52.4460   -7.0270 N   0  0  0  0  0  0  0  0  0  0  0  0
   28.8640   54.2440   -5.6900 N   0  0  0  0  0  0  0  0  0  0  0  0
  1  2  1  0
  2  3  2  0
  2  4  1  0
  4  5  1  0
  5  6  2  0
  5  7  1  0
  6  8  1  0
  6  9  1  0
  7 10  2  0
  9 11  2  0
 10 11  1  0
 11 12  1  0
 12 13  1  0
 13 14  2  0
 13 15  1  0
 14 16  1  0
 15 17  2  0
 16 18  2  0
 17 18  1  0
 16 19  1  0
 18 20  1  0
 19 21  2  0
 20 22  1  0
 20 23  2  0
 21 23  1  0
M  END
