mac-x0357-mac-x0303
     RDKit          3D

 26 28  0  0  0  0  0  0  0  0999 V2000
   32.3210   43.3280   -4.9590 C   0  0  0  0  0  0  0  0  0  0  0  0
   33.0660   44.5350   -4.4620 C   0  0  0  0  0  0  0  0  0  0  0  0
   34.0970   44.3850   -3.5210 C   0  0  0  0  0  0  0  0  0  0  0  0
   32.7620   45.8320   -4.9170 C   0  0  0  0  0  0  0  0  0  0  0  0
   34.4070   43.1290   -3.0740 O   0  0  0  0  0  0  0  0  0  0  0  0
   31.6950   46.0900   -5.9180 C   0  0  0  0  0  0  0  0  0  0  0  0
   33.4780   46.9420   -4.4280 C   0  0  0  0  0  0  0  0  0  0  0  0
   34.8100   45.4830   -3.0360 C   0  0  0  0  0  0  0  0  0  0  0  0
   30.6600   46.8240   -5.7560 N   0  0  0  0  0  0  0  0  0  0  0  0
   31.9490   45.4400   -7.0580 O   0  0  0  0  0  0  0  0  0  0  0  0
   34.4990   46.7650   -3.4900 C   0  0  0  0  0  0  0  0  0  0  0  0
   30.3370   47.5510   -4.5500 C   0  0  0  0  0  0  0  0  0  0  0  0
   29.0680   48.3580   -4.8490 C   0  0  0  0  0  0  0  0  0  0  0  0
   29.2220   49.8370   -4.5870 C   0  0  0  0  0  0  0  0  0  0  0  0
   29.5940   50.2570   -3.3070 C   0  0  0  0  0  0  0  0  0  0  0  0
   28.9950   50.7860   -5.6040 C   0  0  0  0  0  0  0  0  0  0  0  0
   29.1460   52.1520   -5.2990 C   0  0  0  0  0  0  0  0  0  0  0  0
   29.7490   51.6060   -2.9890 C   0  0  0  0  0  0  0  0  0  0  0  0
   29.5150   52.5190   -4.0090 C   0  0  0  0  0  0  0  0  0  0  0  0
   28.9830   53.2600   -6.0970 N   0  0  0  0  0  0  0  0  0  0  0  0
   29.2460   54.2910   -5.3050 C   0  0  0  0  0  0  0  0  0  0  0  0
   29.5720   53.8860   -4.0420 N   0  0  0  0  0  0  0  0  0  0  0  0
   29.1970   55.9920   -5.7730 S   0  0  0  0  0  0  0  0  0  0  0  0
   30.5110   56.2450   -6.7920 N   0  0  0  0  0  0  0  0  0  0  0  0
   27.9780   56.1230   -6.5330 O   0  0  0  0  0  0  0  0  0  0  0  0
   29.4330   56.7290   -4.5540 O   0  0  0  0  0  0  0  0  0  0  0  0
  1  2  1  0
  2  3  2  0
  2  4  1  0
  3  5  1  0
  4  6  1  0
  4  7  2  0
  3  8  1  0
  6  9  2  3
  6 10  1  0
  7 11  1  0
  8 11  2  0
  9 12  1  0
 12 13  1  0
 13 14  1  0
 14 15  2  0
 14 16  1  0
 16 17  2  0
 15 18  1  0
 17 19  1  0
 18 19  2  0
 17 20  1  0
 20 21  2  0
 19 22  1  0
 21 22  1  0
 21 23  1  0
 23 24  1  0
 23 25  2  0
 23 26  2  0
M  END
