mac-x0396-mac-x0568
     RDKit          3D

 11 11  0  0  0  0  0  0  0  0999 V2000
   28.7260   50.7690   -6.8850 N   0  0  0  0  0  0  0  0  0  0  0  0
   28.9710   50.7580   -5.4410 C   0  0  1  0  0  0  0  0  0  0  0  0
   29.9860   49.7540   -4.9580 N   0  0  0  0  0  0  0  0  0  0  0  0
   29.2900   52.1420   -4.9230 C   0  0  0  0  0  0  0  0  0  0  0  0
   29.5050   48.8640   -4.2450 O   0  0  0  0  0  0  0  0  0  0  0  0
   29.7320   52.3590   -3.6190 C   0  0  0  0  0  0  0  0  0  0  0  0
   29.1540   53.2760   -5.7390 C   0  0  0  0  0  0  0  0  0  0  0  0
   30.0320   53.5720   -3.1040 N   0  0  0  0  0  0  0  0  0  0  0  0
   29.4550   54.5480   -5.2410 C   0  0  0  0  0  0  0  0  0  0  0  0
   29.3190   55.7730   -6.0880 C   0  0  0  0  0  0  0  0  0  0  0  0
   29.8880   54.6340   -3.9230 C   0  0  0  0  0  0  0  0  0  0  0  0
  2  1  1  6
  2  3  1  0
  2  4  1  0
  3  5  2  0
  4  6  2  0
  4  7  1  0
  6  8  1  0
  7  9  2  0
  9 10  1  0
  8 11  2  0
  9 11  1  0
M  END
