mac-x0392-mac-x0123
     RDKit          3D

 23 26  0  0  0  0  0  0  0  0999 V2000
   30.3300   47.2220   -8.2740 N   0  0  0  0  0  0  0  0  0  0  0  0
   29.3100   47.9470   -7.4620 C   0  0  2  0  0  0  0  0  0  0  0  0
   29.2700   49.4650   -7.8340 C   0  0  0  0  0  0  0  0  0  0  0  0
   29.6100   47.7350   -5.9540 C   0  0  2  0  0  0  0  0  0  0  0  0
   29.4630   46.2610   -5.5670 C   0  0  0  0  0  0  0  0  0  0  0  0
   28.6910   48.5760   -5.1110 C   0  0  0  0  0  0  0  0  0  0  0  0
   28.7840   50.3450   -6.7270 N   0  0  0  0  0  0  0  0  0  0  0  0
   29.4850   45.8280   -4.4230 O   0  0  0  0  0  0  0  0  0  0  0  0
   29.3020   45.4350   -6.6310 O   0  0  0  0  0  0  0  0  0  0  0  0
   29.2790   51.6240   -6.7680 N   0  0  0  0  0  0  0  0  0  0  0  0
   28.3450   49.7900   -5.5370 C   0  0  0  0  0  0  0  0  0  0  0  0
   29.4670   52.5510   -5.7490 C   0  0  0  0  0  0  0  0  0  0  0  0
   30.0550   52.0760   -4.5490 N   0  0  0  0  0  0  0  0  0  0  0  0
   29.1540   53.8560   -5.7820 C   0  0  0  0  0  0  0  0  0  0  0  0
   30.2990   52.9150   -3.4460 C   0  0  0  0  0  0  0  0  0  0  0  0
   29.4520   54.6640   -4.5620 C   0  0  0  0  0  0  0  0  0  0  0  0
   28.5440   54.7640   -6.7890 C   0  0  0  0  0  0  0  0  0  0  0  0
   30.4660   50.8110   -4.2520 N   0  0  0  0  0  0  0  0  0  0  0  0
   29.9850   54.2450   -3.4610 N   0  0  0  0  0  0  0  0  0  0  0  0
   29.0400   56.0870   -4.7780 C   0  0  0  0  0  0  0  0  0  0  0  0
   28.9730   56.1540   -6.3040 C   0  0  0  0  0  0  0  0  0  0  0  0
   30.8460   52.2050   -2.4810 N   0  0  0  0  0  0  0  0  0  0  0  0
   30.9250   50.9550   -3.0100 C   0  0  0  0  0  0  0  0  0  0  0  0
  2  1  1  6
  2  3  1  0
  2  4  1  0
  4  5  1  1
  4  6  1  0
  3  7  1  0
  5  8  2  0
  5  9  1  0
  7 10  1  0
  6 11  2  0
  7 11  1  0
 10 12  1  0
 12 13  1  0
 12 14  2  0
 13 15  1  0
 14 16  1  0
 14 17  1  0
 13 18  1  0
 15 19  1  0
 16 19  2  0
 16 20  1  0
 17 21  1  0
 20 21  1  0
 15 22  2  0
 18 23  2  0
 22 23  1  0
M  END
