mac-x0404-mac-x0417
     RDKit          3D

 24 27  0  0  0  0  0  0  0  0999 V2000
   31.8350   45.3900   -6.6470 O   0  0  0  0  0  0  0  0  0  0  0  0
   33.0260   45.3540   -5.9810 C   0  0  0  0  0  0  0  0  0  0  0  0
   34.0700   45.1650   -6.5860 O   0  0  0  0  0  0  0  0  0  0  0  0
   32.9120   45.5840   -4.4600 C   0  0  1  0  0  0  0  0  0  0  0  0
   31.7250   44.9800   -3.9180 O   0  0  0  0  0  0  0  0  0  0  0  0
   34.1750   45.1920   -3.7180 C   0  0  0  0  0  0  0  0  0  0  0  0
   31.2080   45.8260   -2.9640 C   0  0  0  0  0  0  0  0  0  0  0  0
   34.4180   43.9010   -3.4100 N   0  0  0  0  0  0  0  0  0  0  0  0
   35.2280   46.0310   -3.2540 C   0  0  0  0  0  0  0  0  0  0  0  0
   29.9370   45.5920   -2.3900 C   0  0  0  0  0  0  0  0  0  0  0  0
   31.9840   46.9250   -2.5850 C   0  0  0  0  0  0  0  0  0  0  0  0
   35.6360   43.8920   -2.7400 O   0  0  0  0  0  0  0  0  0  0  0  0
   36.1170   45.1600   -2.6480 C   0  0  0  0  0  0  0  0  0  0  0  0
   35.5360   47.4030   -3.2700 C   0  0  0  0  0  0  0  0  0  0  0  0
   29.4730   46.5090   -1.4140 C   0  0  0  0  0  0  0  0  0  0  0  0
   31.5150   47.8120   -1.6300 C   0  0  0  0  0  0  0  0  0  0  0  0
   29.1110   44.5020   -2.7330 C   0  0  0  0  0  0  0  0  0  0  0  0
   37.3150   45.5510   -2.0440 C   0  0  0  0  0  0  0  0  0  0  0  0
   36.7320   47.8310   -2.6730 C   0  0  0  0  0  0  0  0  0  0  0  0
   30.2700   47.6040   -1.0500 C   0  0  0  0  0  0  0  0  0  0  0  0
   28.2160   46.3120   -0.8180 C   0  0  0  0  0  0  0  0  0  0  0  0
   27.8640   44.3210   -2.1310 C   0  0  0  0  0  0  0  0  0  0  0  0
   37.6030   46.9200   -2.0730 C   0  0  0  0  0  0  0  0  0  0  0  0
   27.4190   45.2270   -1.1740 C   0  0  0  0  0  0  0  0  0  0  0  0
  1  2  1  0
  2  3  2  0
  2  4  1  0
  4  5  1  1
  4  6  1  0
  5  7  1  0
  6  8  2  0
  6  9  1  0
  7 10  1  0
  7 11  2  0
  8 12  1  0
  9 13  2  0
 12 13  1  0
  9 14  1  0
 10 15  2  0
 11 16  1  0
 10 17  1  0
 13 18  1  0
 14 19  2  0
 15 20  1  0
 16 20  2  0
 15 21  1  0
 17 22  2  0
 18 23  2  0
 19 23  1  0
 21 24  2  0
 22 24  1  0
M  END
