mac-x0568-mac-x0496
     RDKit          3D

 20 21  0  0  0  0  0  0  0  0999 V2000
   29.0500   55.5440   -4.7520 C   0  0  2  0  0  0  0  0  0  0  0  0
   28.9390   56.5550   -5.8890 C   0  0  0  0  0  0  0  0  0  0  0  0
   27.7310   57.3850   -5.6740 C   0  0  0  0  0  0  0  0  0  0  0  0
   30.1800   55.8730   -3.8310 C   0  0  0  0  0  0  0  0  0  0  0  0
   29.1670   54.0690   -5.0220 C   0  0  0  0  0  0  0  0  0  0  0  0
   30.3260   55.3400   -2.7360 O   0  0  0  0  0  0  0  0  0  0  0  0
   29.5950   53.3960   -3.9300 N   0  0  0  0  0  0  0  0  0  0  0  0
   28.8780   53.4220   -6.2240 C   0  0  0  0  0  0  0  0  0  0  0  0
   29.7350   52.0600   -4.0140 C   0  0  0  0  0  0  0  0  0  0  0  0
   29.0310   52.0300   -6.2880 C   0  0  0  0  0  0  0  0  0  0  0  0
   27.7100   58.2050   -4.5790 O   0  0  0  0  0  0  0  0  0  0  0  0
   26.6400   57.4520   -6.3970 N   0  0  0  0  0  0  0  0  0  0  0  0
   29.4670   51.3330   -5.1520 C   0  0  0  0  0  0  0  0  0  0  0  0
   25.8930   58.3660   -5.7030 C   0  0  0  0  0  0  0  0  0  0  0  0
   26.4760   58.8610   -4.6020 N   0  0  0  0  0  0  0  0  0  0  0  0
   29.6370   49.8560   -5.1670 C   0  0  0  0  0  0  0  0  0  0  0  0
   24.5470   58.7730   -6.1430 C   0  0  0  0  0  0  0  0  0  0  0  0
   29.7910   49.0880   -4.1150 N   0  0  0  0  0  0  0  0  0  0  0  0
   29.6250   49.2240   -6.3850 N   0  0  0  0  0  0  0  0  0  0  0  0
   29.7870   49.7610   -2.8900 O   0  0  0  0  0  0  0  0  0  0  0  0
  1  2  1  6
  2  3  1  0
  1  4  1  0
  1  5  1  0
  4  6  2  0
  5  7  2  0
  5  8  1  0
  7  9  1  0
  8 10  2  0
  3 11  1  0
  3 12  2  0
  9 13  2  0
 10 13  1  0
 12 14  1  0
 11 15  1  0
 14 15  2  0
 13 16  1  0
 14 17  1  0
 16 18  2  3
 16 19  1  0
 18 20  1  0
M  END
