mac-x0472-mac-x0546
     RDKit          3D

 31 34  0  0  0  0  0  0  0  0999 V2000
   29.7400   51.0990   -3.5140 O   0  0  0  0  0  0  0  0  0  0  0  0
   30.6370   50.0180   -3.8470 S   0  0  1  0  0  0  0  0  0  0  0  0
   31.1060   48.9180   -2.9000 N   0  0  0  0  0  0  0  0  0  0  0  0
   29.9070   49.2210   -5.1280 N   0  0  0  0  0  0  0  0  0  0  0  0
   32.1240   50.7420   -4.5120 C   0  0  0  0  0  0  0  0  0  0  0  0
   31.7040   49.3280   -1.6180 C   0  0  0  0  0  0  0  0  0  0  0  0
   29.3470   49.9150   -6.1430 C   0  0  0  0  0  0  0  0  0  0  0  0
   33.1950   49.9100   -4.8510 C   0  0  0  0  0  0  0  0  0  0  0  0
   32.2040   52.1240   -4.6880 C   0  0  0  0  0  0  0  0  0  0  0  0
   30.6700   49.2350   -0.4900 C   0  0  0  0  0  0  0  0  0  0  0  0
   29.1010   49.3630   -7.3190 N   0  0  0  0  0  0  0  0  0  0  0  0
   28.8740   51.5770   -6.0820 S   0  0  0  0  0  0  0  0  0  0  0  0
   34.3620   50.4700   -5.3720 C   0  0  0  0  0  0  0  0  0  0  0  0
   33.3740   52.6760   -5.2100 C   0  0  0  0  0  0  0  0  0  0  0  0
   30.2160   47.8870   -0.2850 O   0  0  0  0  0  0  0  0  0  0  0  0
   28.3580   51.4260   -7.7010 C   0  0  0  0  0  0  0  0  0  0  0  0
   28.5290   50.2350   -8.2230 N   0  0  0  0  0  0  0  0  0  0  0  0
   34.4470   51.8530   -5.5500 C   0  0  0  0  0  0  0  0  0  0  0  0
   30.0560   47.0760   -1.3810 C   0  0  0  0  0  0  0  0  0  0  0  0
   31.0000   46.7130   -2.2790 C   0  0  0  0  0  0  0  0  0  0  0  0
   28.6850   46.5870   -1.5350 C   0  0  0  0  0  0  0  0  0  0  0  0
   30.6300   45.8370   -3.4240 C   0  0  2  0  0  0  0  0  0  0  0  0
   28.3750   45.5160   -2.2920 C   0  0  0  0  0  0  0  0  0  0  0  0
   29.5390   44.8960   -2.9430 C   0  0  0  0  0  0  0  0  0  0  0  0
   31.5500   44.7740   -3.9210 C   0  0  0  0  0  0  0  0  0  0  0  0
   32.8860   45.0600   -4.5180 C   0  0  0  0  0  0  0  0  0  0  0  0
   29.7360   43.6300   -3.1460 N   0  0  0  0  0  0  0  0  0  0  0  0
   30.9730   43.5770   -3.7430 C   0  0  0  0  0  0  0  0  0  0  0  0
   32.8000   45.5040   -5.9600 C   0  0  0  0  0  0  0  0  0  0  0  0
   31.8420   45.3810   -6.7070 O   0  0  0  0  0  0  0  0  0  0  0  0
   33.9360   46.0830   -6.3990 O   0  0  0  0  0  0  0  0  0  0  0  0
  1  2  2  0
  2  3  2  0
  2  4  1  6
  2  5  1  0
  3  6  1  0
  4  7  1  0
  5  8  2  0
  5  9  1  0
  6 10  1  0
  7 11  2  0
  7 12  1  0
  8 13  1  0
  9 14  2  0
 10 15  1  0
 12 16  1  0
 11 17  1  0
 16 17  2  0
 13 18  2  0
 14 18  1  0
 15 19  1  0
 19 20  2  0
 19 21  1  0
 22 20  1  1
 21 23  2  0
 22 24  1  0
 23 24  1  0
 22 25  1  0
 25 26  1  0
 24 27  2  0
 25 28  2  0
 27 28  1  0
 26 29  1  0
 29 30  2  0
 29 31  1  0
M  END
