mac-x0305-mac-x0565
     RDKit          3D

 22 24  0  0  0  0  0  0  0  0999 V2000
   30.5440   46.0370   -7.2090 O   0  0  0  0  0  0  0  0  0  0  0  0
   30.2450   46.8350   -6.1460 C   0  0  0  0  0  0  0  0  0  0  0  0
   29.8130   46.3510   -5.0310 N   0  0  0  0  0  0  0  0  0  0  0  0
   30.4970   48.2660   -6.5060 C   0  0  0  0  0  0  0  0  0  0  0  0
   29.5370   49.1110   -7.0730 C   0  0  0  0  0  0  0  0  0  0  0  0
   31.7800   48.6710   -6.2230 N   0  0  0  0  0  0  0  0  0  0  0  0
   29.5070   47.2770   -3.9250 C   0  0  1  0  0  0  0  0  0  0  0  0
   28.2670   48.7020   -7.3570 O   0  0  0  0  0  0  0  0  0  0  0  0
   29.9070   50.4250   -7.3560 C   0  0  0  0  0  0  0  0  0  0  0  0
   32.0930   49.9550   -6.5150 C   0  0  0  0  0  0  0  0  0  0  0  0
   30.6700   47.9370   -3.3410 O   0  0  0  0  0  0  0  0  0  0  0  0
   28.4580   48.2410   -4.2480 O   0  0  0  0  0  0  0  0  0  0  0  0
   31.2000   50.8540   -7.0730 C   0  0  0  0  0  0  0  0  0  0  0  0
   28.9590   49.3860   -3.7180 C   0  0  0  0  0  0  0  0  0  0  0  0
   30.2200   49.2110   -3.2010 C   0  0  0  0  0  0  0  0  0  0  0  0
   28.3190   50.6100   -3.6760 C   0  0  0  0  0  0  0  0  0  0  0  0
   30.9150   50.2480   -2.6120 C   0  0  0  0  0  0  0  0  0  0  0  0
   28.9950   51.6850   -3.0860 C   0  0  0  0  0  0  0  0  0  0  0  0
   30.2910   51.5010   -2.5550 C   0  0  0  0  0  0  0  0  0  0  0  0
   28.3120   53.0030   -3.0390 C   0  0  0  0  0  0  0  0  0  0  0  0
   26.9810   52.9160   -3.1980 O   0  0  0  0  0  0  0  0  0  0  0  0
   28.8530   54.0840   -2.8720 O   0  0  0  0  0  0  0  0  0  0  0  0
  1  2  1  0
  2  3  2  3
  2  4  1  0
  4  5  2  0
  4  6  1  0
  7  3  1  6
  5  8  1  0
  5  9  1  0
  6 10  2  0
  7 11  1  0
  7 12  1  0
  9 13  2  0
 10 13  1  0
 12 14  1  0
 11 15  1  0
 14 15  2  0
 14 16  1  0
 15 17  1  0
 16 18  2  0
 17 19  2  0
 18 19  1  0
 18 20  1  0
 20 21  1  0
 20 22  2  0
M  END
