mac-x0441-mac-x0398
     RDKit          3D

 30 32  0  0  0  0  0  0  0  0999 V2000
   34.0660   44.9980   -6.5280 O   0  0  0  0  0  0  0  0  0  0  0  0
   32.9100   45.2150   -5.8630 C   0  0  0  0  0  0  0  0  0  0  0  0
   31.8320   44.9260   -6.3690 O   0  0  0  0  0  0  0  0  0  0  0  0
   33.0360   45.8450   -4.4900 C   0  0  1  0  0  0  0  0  0  0  0  0
   31.6770   46.0250   -3.7760 C   0  0  0  0  0  0  0  0  0  0  0  0
   34.1450   45.2910   -3.6740 N   0  0  0  0  0  0  0  0  0  0  0  0
   31.4580   47.4690   -3.2720 C   0  0  0  0  0  0  0  0  0  0  0  0
   34.2230   44.0030   -3.2010 N   0  0  0  0  0  0  0  0  0  0  0  0
   35.2260   46.0240   -3.3200 C   0  0  0  0  0  0  0  0  0  0  0  0
   30.4870   48.2630   -4.0180 O   0  0  0  0  0  0  0  0  0  0  0  0
   35.4200   43.9560   -2.5260 C   0  0  0  0  0  0  0  0  0  0  0  0
   36.0600   45.2170   -2.5930 C   0  0  0  0  0  0  0  0  0  0  0  0
   35.4560   47.4480   -3.6690 C   0  0  0  0  0  0  0  0  0  0  0  0
   35.9820   42.7360   -1.8180 C   0  0  0  0  0  0  0  0  0  0  0  0
   30.0950   49.4020   -3.3590 C   0  0  0  0  0  0  0  0  0  0  0  0
   37.3630   45.6950   -2.0410 C   0  0  0  0  0  0  0  0  0  0  0  0
   36.5620   48.0150   -2.7660 C   0  0  0  0  0  0  0  0  0  0  0  0
   37.0600   42.1990   -2.4530 F   0  0  0  0  0  0  0  0  0  0  0  0
   36.4020   43.0400   -0.5580 F   0  0  0  0  0  0  0  0  0  0  0  0
   35.0710   41.7370   -1.6850 F   0  0  0  0  0  0  0  0  0  0  0  0
   30.0630   49.5000   -2.1490 O   0  0  0  0  0  0  0  0  0  0  0  0
   37.7560   47.0530   -2.6580 C   0  0  0  0  0  0  0  0  0  0  0  0
   29.7240   50.5260   -4.2780 C   0  0  0  0  0  0  0  0  0  0  0  0
   29.6830   51.8300   -3.7670 C   0  0  0  0  0  0  0  0  0  0  0  0
   29.4120   50.3290   -5.6340 C   0  0  0  0  0  0  0  0  0  0  0  0
   29.9770   52.0610   -2.4540 O   0  0  0  0  0  0  0  0  0  0  0  0
   29.3410   52.9160   -4.5800 C   0  0  0  0  0  0  0  0  0  0  0  0
   29.0690   51.4260   -6.4480 C   0  0  0  0  0  0  0  0  0  0  0  0
   29.0310   52.7270   -5.9270 C   0  0  0  0  0  0  0  0  0  0  0  0
   28.6900   53.8180   -6.7350 N   0  0  0  0  0  0  0  0  0  0  0  0
  1  2  1  0
  2  3  2  0
  2  4  1  0
  4  5  1  1
  4  6  1  0
  5  7  1  0
  6  8  1  0
  6  9  1  0
  7 10  1  0
  8 11  2  0
  9 12  2  0
 11 12  1  0
  9 13  1  0
 11 14  1  0
 10 15  1  0
 12 16  1  0
 13 17  1  0
 14 18  1  0
 14 19  1  0
 14 20  1  0
 15 21  2  0
 16 22  1  0
 17 22  1  0
 15 23  1  0
 23 24  2  0
 23 25  1  0
 24 26  1  0
 24 27  1  0
 25 28  2  0
 27 29  2  0
 28 29  1  0
 29 30  1  0
M  END
