mac-x0271-mac-x0451
     RDKit          3D

 17 19  0  0  0  0  0  0  0  0999 V2000
   29.8010   49.7340   -2.8730 O   0  0  0  0  0  0  0  0  0  0  0  0
   30.3790   50.6240   -3.8270 C   0  0  1  0  0  0  0  0  0  0  0  0
   30.0180   50.2190   -5.2540 C   0  0  1  0  0  0  0  0  0  0  0  0
   29.9990   52.0690   -3.5370 C   0  0  0  0  0  0  0  0  0  0  0  0
   29.7290   48.8640   -5.2430 F   0  0  0  0  0  0  0  0  0  0  0  0
   30.0640   52.9820   -4.7860 C   0  0  1  0  0  0  0  0  0  0  0  0
   28.8390   51.0040   -5.8510 C   0  0  1  0  0  0  0  0  0  0  0  0
   29.0120   52.6180   -5.8840 C   0  0  1  0  0  0  0  0  0  0  0  0
   30.1250   54.3690   -4.3470 O   0  0  0  0  0  0  0  0  0  0  0  0
   28.6240   50.4380   -7.2240 C   0  0  0  0  0  0  0  0  0  0  0  0
   27.7730   53.4200   -5.5240 C   0  0  0  0  0  0  0  0  0  0  0  0
   29.0990   55.2250   -4.4940 C   0  0  0  0  0  0  0  0  0  0  0  0
   29.1960   53.1770   -7.3630 C   0  0  2  0  0  0  0  0  0  0  0  0
   28.8400   51.7230   -8.4090 S   0  0  0  0  0  0  0  0  0  0  0  0
   29.1920   56.4320   -4.2930 O   0  0  0  0  0  0  0  0  0  0  0  0
   30.4560   53.7440   -7.7740 N   0  0  0  0  0  0  0  0  0  0  0  0
   27.8370   54.6120   -4.9060 C   0  0  0  0  0  0  0  0  0  0  0  0
  2  1  1  1
  2  3  1  0
  2  4  1  0
  3  5  1  1
  6  4  1  1
  3  7  1  0
  6  8  1  0
  7  8  1  0
  6  9  1  0
  7 10  1  6
  8 11  1  1
  9 12  1  0
  8 13  1  0
 10 14  2  0
 13 14  1  0
 12 15  2  0
 13 16  1  1
 11 17  2  0
 12 17  1  0
M  END
