mac-x0190-mac-x0453
     RDKit          3D

 14 15  0  0  0  0  0  0  0  0999 V2000
   28.8130   57.0480   -4.7710 O   0  0  0  0  0  0  0  0  0  0  0  0
   29.7910   56.3680   -3.9920 C   0  0  0  0  0  0  0  0  0  0  0  0
   29.6010   54.9130   -4.2130 C   0  0  0  0  0  0  0  0  0  0  0  0
   29.6890   54.0030   -3.1870 N   0  0  0  0  0  0  0  0  0  0  0  0
   29.3370   54.3080   -5.3510 N   0  0  0  0  0  0  0  0  0  0  0  0
   29.4670   52.7480   -3.6980 C   0  0  0  0  0  0  0  0  0  0  0  0
   29.2530   52.9660   -5.0530 C   0  0  0  0  0  0  0  0  0  0  0  0
   29.4420   51.4840   -3.1110 C   0  0  0  0  0  0  0  0  0  0  0  0
   28.9890   51.8830   -5.9120 C   0  0  0  0  0  0  0  0  0  0  0  0
   28.7500   52.0680   -7.3910 C   0  0  0  0  0  0  0  0  0  0  0  0
   29.1800   50.4060   -3.9610 C   0  0  0  0  0  0  0  0  0  0  0  0
   28.9590   50.5960   -5.3300 C   0  0  0  0  0  0  0  0  0  0  0  0
   29.7920   52.9820   -8.0600 C   0  0  0  0  0  0  0  0  0  0  0  0
   29.2110   54.0410   -8.8940 N   0  0  0  0  0  0  0  0  0  0  0  0
  1  2  1  0
  2  3  1  0
  3  4  1  0
  3  5  2  0
  4  6  1  0
  5  7  1  0
  6  7  2  0
  6  8  1  0
  7  9  1  0
  9 10  1  0
  8 11  2  0
  9 12  2  0
 11 12  1  0
 10 13  1  0
 13 14  1  0
M  END
