mac-x0206-mac-x0433
     RDKit          3D

 10 10  0  0  0  0  0  0  0  0999 V2000
   29.2200   49.9920   -5.7170 N   0  0  0  0  0  0  0  0  0  0  0  0
   29.4400   50.8970   -4.7110 C   0  0  0  0  0  0  0  0  0  0  0  0
   29.7290   50.5320   -3.5820 O   0  0  0  0  0  0  0  0  0  0  0  0
   29.3040   52.3240   -5.0900 C   0  0  0  0  0  0  0  0  0  0  0  0
   29.7640   53.3480   -4.2550 C   0  0  0  0  0  0  0  0  0  0  0  0
   28.6970   52.6460   -6.3140 C   0  0  0  0  0  0  0  0  0  0  0  0
   30.3580   53.0550   -3.0600 O   0  0  0  0  0  0  0  0  0  0  0  0
   29.6240   54.6830   -4.6390 C   0  0  0  0  0  0  0  0  0  0  0  0
   28.5580   53.9820   -6.6960 C   0  0  0  0  0  0  0  0  0  0  0  0
   29.0190   54.9980   -5.8590 C   0  0  0  0  0  0  0  0  0  0  0  0
  1  2  1  0
  2  3  2  0
  2  4  1  0
  4  5  2  0
  4  6  1  0
  5  7  1  0
  5  8  1  0
  6  9  2  0
  8 10  2  0
  9 10  1  0
M  END
