mac-x0321-mac-x0206
     RDKit          3D

 20 21  0  0  0  0  0  0  0  0999 V2000
   27.7630   52.8920   -4.2150 Cl  0  0  0  0  0  0  0  0  0  0  0  0
   28.2850   51.3280   -3.6750 C   0  0  0  0  0  0  0  0  0  0  0  0
   29.2950   50.5580   -4.3260 C   0  0  0  0  0  0  0  0  0  0  0  0
   27.6200   50.8770   -2.5260 C   0  0  0  0  0  0  0  0  0  0  0  0
   30.0150   51.0800   -5.5980 C   0  0  1  0  0  0  0  0  0  0  0  0
   29.5720   49.2920   -3.7150 C   0  0  0  0  0  0  0  0  0  0  0  0
   27.9200   49.6450   -1.9670 C   0  0  0  0  0  0  0  0  0  0  0  0
   30.5630   48.3070   -4.1890 C   0  0  0  0  0  0  0  0  0  0  0  0
   31.4410   50.7460   -5.5530 N   0  0  0  0  0  0  0  0  0  0  0  0
   29.6020   50.3910   -6.7590 O   0  0  0  0  0  0  0  0  0  0  0  0
   28.8930   48.8550   -2.5610 C   0  0  0  0  0  0  0  0  0  0  0  0
   29.7950   52.5680   -5.9140 C   0  0  0  0  0  0  0  0  0  0  0  0
   29.9920   47.4560   -5.0660 O   0  0  0  0  0  0  0  0  0  0  0  0
   31.7280   48.2280   -3.8470 O   0  0  0  0  0  0  0  0  0  0  0  0
   30.6140   53.6070   -5.4240 C   0  0  0  0  0  0  0  0  0  0  0  0
   28.7160   52.9490   -6.7440 C   0  0  0  0  0  0  0  0  0  0  0  0
   31.6990   53.3910   -4.6110 O   0  0  0  0  0  0  0  0  0  0  0  0
   30.3710   54.9430   -5.7400 C   0  0  0  0  0  0  0  0  0  0  0  0
   28.4720   54.2900   -7.0620 C   0  0  0  0  0  0  0  0  0  0  0  0
   29.3020   55.2900   -6.5600 C   0  0  0  0  0  0  0  0  0  0  0  0
  1  2  1  0
  2  3  2  0
  2  4  1  0
  3  5  1  0
  3  6  1  0
  4  7  2  0
  6  8  1  0
  5  9  1  1
  5 10  1  0
  6 11  2  0
  7 11  1  0
  5 12  1  0
  8 13  1  0
  8 14  2  0
 12 15  2  0
 12 16  1  0
 15 17  1  0
 15 18  1  0
 16 19  2  0
 18 20  2  0
 19 20  1  0
M  END
