mac-x0365-mac-x0226
     RDKit          3D

 27 29  0  0  0  0  0  0  0  0999 V2000
   28.7990   47.5790   -5.6050 O   0  0  0  0  0  0  0  0  0  0  0  0
   29.7400   48.1150   -4.6930 C   0  0  0  0  0  0  0  0  0  0  0  0
   29.3590   47.5930   -3.4360 O   0  0  0  0  0  0  0  0  0  0  0  0
   31.1600   47.6600   -5.0490 C   0  0  0  0  0  0  0  0  0  0  0  0
   29.6430   49.6380   -4.6790 C   0  0  0  0  0  0  0  0  0  0  0  0
   31.3340   47.2760   -6.5170 C   0  0  0  0  0  0  0  0  0  0  0  0
   29.9380   50.3560   -3.5040 C   0  0  0  0  0  0  0  0  0  0  0  0
   29.2600   50.3690   -5.8200 C   0  0  0  0  0  0  0  0  0  0  0  0
   31.9920   45.9980   -6.5700 O   0  0  0  0  0  0  0  0  0  0  0  0
   29.8510   51.7460   -3.4830 C   0  0  0  0  0  0  0  0  0  0  0  0
   29.1740   51.7650   -5.7940 C   0  0  0  0  0  0  0  0  0  0  0  0
   30.1420   52.3970   -2.3450 F   0  0  0  0  0  0  0  0  0  0  0  0
   33.3430   46.0480   -6.3800 C   0  0  0  0  0  0  0  0  0  0  0  0
   29.4710   52.4520   -4.6200 C   0  0  0  0  0  0  0  0  0  0  0  0
   29.3960   53.8140   -4.5660 O   0  0  0  0  0  0  0  0  0  0  0  0
   34.1260   46.6350   -7.1160 O   0  0  0  0  0  0  0  0  0  0  0  0
   33.7640   45.3230   -5.1980 C   0  0  0  0  0  0  0  0  0  0  0  0
   33.1990   44.1540   -4.6610 C   0  0  0  0  0  0  0  0  0  0  0  0
   34.8040   45.6100   -4.3370 C   0  0  0  0  0  0  0  0  0  0  0  0
   33.8210   43.7350   -3.5590 N   0  0  0  0  0  0  0  0  0  0  0  0
   34.8180   44.6370   -3.3570 N   0  0  0  0  0  0  0  0  0  0  0  0
   35.7080   44.5160   -2.2580 C   0  0  0  0  0  0  0  0  0  0  0  0
   36.5400   45.5770   -1.8700 C   0  0  0  0  0  0  0  0  0  0  0  0
   35.7600   43.3070   -1.5390 C   0  0  0  0  0  0  0  0  0  0  0  0
   37.4060   45.4290   -0.7840 C   0  0  0  0  0  0  0  0  0  0  0  0
   36.6290   43.1670   -0.4560 C   0  0  0  0  0  0  0  0  0  0  0  0
   37.4520   44.2280   -0.0780 C   0  0  0  0  0  0  0  0  0  0  0  0
  2  1  1  0
  2  3  1  0
  2  4  1  0
  2  5  1  0
  4  6  1  0
  5  7  2  0
  5  8  1  0
  6  9  1  0
  7 10  1  0
  8 11  2  0
 10 12  1  0
  9 13  1  0
 10 14  2  0
 11 14  1  0
 14 15  1  0
 13 16  2  0
 13 17  1  0
 17 18  1  0
 17 19  2  0
 18 20  2  0
 19 21  1  0
 20 21  1  0
 21 22  1  0
 22 23  2  0
 22 24  1  0
 23 25  1  0
 24 26  2  0
 25 27  2  0
 26 27  1  0
M  END
