mac-x0417-mac-x0301
     RDKit          3D

 26 29  0  0  0  0  0  0  0  0999 V2000
   32.6970   43.5830   -5.5280 O   0  0  0  0  0  0  0  0  0  0  0  0
   33.6340   44.5500   -5.6580 C   0  0  0  0  0  0  0  0  0  0  0  0
   34.3500   44.5640   -6.6500 O   0  0  0  0  0  0  0  0  0  0  0  0
   33.6530   45.5210   -4.4940 C   0  0  1  0  0  0  0  0  0  0  0  0
   32.2620   45.6190   -3.8440 C   0  0  0  0  0  0  0  0  0  0  0  0
   34.7180   45.1660   -3.5040 C   0  0  0  0  0  0  0  0  0  0  0  0
   31.6770   46.9350   -4.1630 N   0  0  0  0  0  0  0  0  0  0  0  0
   34.8020   43.9370   -2.9650 N   0  0  0  0  0  0  0  0  0  0  0  0
   35.7420   46.0140   -3.0100 C   0  0  0  0  0  0  0  0  0  0  0  0
   30.4600   47.0470   -4.5450 C   0  0  0  0  0  0  0  0  0  0  0  0
   35.8900   43.9730   -2.1080 O   0  0  0  0  0  0  0  0  0  0  0  0
   36.4500   45.2110   -2.1350 C   0  0  0  0  0  0  0  0  0  0  0  0
   36.1520   47.3460   -3.1910 C   0  0  0  0  0  0  0  0  0  0  0  0
   29.7320   45.9210   -4.6400 O   0  0  0  0  0  0  0  0  0  0  0  0
   37.5590   45.6300   -1.4070 C   0  0  0  0  0  0  0  0  0  0  0  0
   37.2650   47.8030   -2.4740 C   0  0  0  0  0  0  0  0  0  0  0  0
   29.6540   48.2010   -4.9290 C   0  0  0  0  0  0  0  0  0  0  0  0
   37.9560   46.9600   -1.5980 C   0  0  0  0  0  0  0  0  0  0  0  0
   29.2000   48.3690   -6.2230 C   0  0  0  0  0  0  0  0  0  0  0  0
   29.3300   49.1770   -3.9720 C   0  0  0  0  0  0  0  0  0  0  0  0
   28.4460   49.4690   -6.5690 C   0  0  0  0  0  0  0  0  0  0  0  0
   28.5590   50.2950   -4.3380 C   0  0  0  0  0  0  0  0  0  0  0  0
   29.4080   47.5410   -7.2870 O   0  0  0  0  0  0  0  0  0  0  0  0
   28.1090   50.4450   -5.6520 C   0  0  0  0  0  0  0  0  0  0  0  0
   28.0900   49.4650   -7.8810 O   0  0  0  0  0  0  0  0  0  0  0  0
   28.6260   48.1960   -8.3030 C   0  0  0  0  0  0  0  0  0  0  0  0
  1  2  1  0
  2  3  2  0
  2  4  1  0
  4  5  1  1
  4  6  1  0
  5  7  1  0
  6  8  2  0
  6  9  1  0
  7 10  2  3
  8 11  1  0
  9 12  2  0
 11 12  1  0
  9 13  1  0
 10 14  1  0
 12 15  1  0
 13 16  2  0
 10 17  1  0
 15 18  2  0
 16 18  1  0
 17 19  1  0
 17 20  2  0
 19 21  2  0
 20 22  1  0
 19 23  1  0
 21 24  1  0
 22 24  2  0
 21 25  1  0
 23 26  1  0
 25 26  1  0
M  END
