mac-x0345-mac-x0347
     RDKit          3D

 17 18  0  0  0  0  0  0  0  0999 V2000
   29.3780   54.4430   -4.5610 C   0  0  0  0  0  0  0  0  0  0  0  0
   29.7260   52.9470   -4.5430 C   0  0  1  0  0  0  0  0  0  0  0  0
   28.8480   52.2910   -3.5570 N   0  0  0  0  0  0  0  0  0  0  0  0
   29.7100   52.2800   -5.9140 C   0  0  2  0  0  0  0  0  0  0  0  0
   28.2620   52.8990   -7.0850 Br  0  0  0  0  0  0  0  0  0  0  0  0
   29.7510   50.7590   -5.8820 C   0  0  0  0  0  0  0  0  0  0  0  0
   28.9450   50.8430   -3.3590 C   0  0  2  0  0  0  0  0  0  0  0  0
   29.5090   50.7420   -2.0260 N   0  0  0  0  0  0  0  0  0  0  0  0
   29.7350   50.0470   -4.4770 C   0  0  1  0  0  0  0  0  0  0  0  0
   29.2350   48.5640   -4.7890 C   0  0  0  0  0  0  0  0  0  0  0  0
   31.1380   49.8100   -3.8620 C   0  0  0  0  0  0  0  0  0  0  0  0
   30.4150   47.5580   -4.9100 C   0  0  2  0  0  0  0  0  0  0  0  0
   31.1950   48.6840   -2.9000 N   0  0  0  0  0  0  0  0  0  0  0  0
   30.2970   46.2210   -5.6430 C   0  0  0  0  0  0  0  0  0  0  0  0
   31.0080   47.3860   -3.5350 C   0  0  0  0  0  0  0  0  0  0  0  0
   30.1630   45.1240   -4.8720 O   0  0  0  0  0  0  0  0  0  0  0  0
   30.3400   46.0830   -6.8570 O   0  0  0  0  0  0  0  0  0  0  0  0
  2  1  1  6
  2  3  1  0
  2  4  1  0
  4  5  1  1
  4  6  1  0
  3  7  1  0
  7  8  1  1
  9  6  1  6
  7  9  1  0
  9 10  1  0
  9 11  1  0
 10 12  1  0
 11 13  1  0
 12 14  1  1
 12 15  1  0
 13 15  1  0
 14 16  1  0
 14 17  2  0
M  END
