mac-x0436-mac-x0179
     RDKit          3D

 17 18  0  0  0  0  0  0  0  0999 V2000
   33.6770   45.6650   -6.5720 O   0  0  0  0  0  0  0  0  0  0  0  0
   32.4490   45.2950   -6.1570 C   0  0  0  0  0  0  0  0  0  0  0  0
   31.4590   45.6090   -6.7950 O   0  0  0  0  0  0  0  0  0  0  0  0
   32.4790   44.4850   -4.8830 C   0  0  0  0  0  0  0  0  0  0  0  0
   32.4520   45.3600   -3.6280 C   0  0  0  0  0  0  0  0  0  0  0  0
   33.8050   45.9760   -3.3650 C   0  0  0  0  0  0  0  0  0  0  0  0
   34.0040   47.4310   -3.6450 C   0  0  0  0  0  0  0  0  0  0  0  0
   34.7800   45.2260   -2.9010 N   0  0  0  0  0  0  0  0  0  0  0  0
   33.0670   48.1020   -4.0440 O   0  0  0  0  0  0  0  0  0  0  0  0
   34.5990   43.9780   -2.6450 O   0  0  0  0  0  0  0  0  0  0  0  0
   35.2450   47.9380   -3.4210 N   0  0  0  0  0  0  0  0  0  0  0  0
   36.0900   45.8150   -2.6800 C   0  0  0  0  0  0  0  0  0  0  0  0
   36.2940   47.1660   -2.9490 C   0  0  0  0  0  0  0  0  0  0  0  0
   37.1490   45.0310   -2.2040 C   0  0  0  0  0  0  0  0  0  0  0  0
   38.4010   45.6110   -2.0040 C   0  0  0  0  0  0  0  0  0  0  0  0
   37.5450   47.7470   -2.7480 C   0  0  0  0  0  0  0  0  0  0  0  0
   38.6000   46.9650   -2.2750 C   0  0  0  0  0  0  0  0  0  0  0  0
  1  2  1  0
  2  3  2  0
  2  4  1  0
  4  5  1  0
  5  6  1  0
  6  7  1  0
  6  8  2  0
  7  9  2  0
  8 10  1  0
  7 11  1  0
  8 12  1  0
 11 13  1  0
 12 13  2  0
 12 14  1  0
 14 15  2  0
 13 16  1  0
 15 17  1  0
 16 17  2  0
M  CHG  2   8   1  10  -1
M  END
