mac-x0402-mac-x0178
     RDKit          3D

 25 27  0  0  0  0  0  0  0  0999 V2000
   29.1100   47.4400   -5.2470 Cl  0  0  0  0  0  0  0  0  0  0  0  0
   29.4630   49.1290   -5.3180 C   0  0  0  0  0  0  0  0  0  0  0  0
   30.6230   49.6900   -4.7570 C   0  0  0  0  0  0  0  0  0  0  0  0
   28.5140   49.9120   -5.9760 C   0  0  0  0  0  0  0  0  0  0  0  0
   31.6770   48.8640   -4.0400 C   0  0  0  0  0  0  0  0  0  0  0  0
   28.7340   51.2890   -6.0720 C   0  0  0  0  0  0  0  0  0  0  0  0
   30.8100   51.0860   -4.8690 C   0  0  0  0  0  0  0  0  0  0  0  0
   29.8620   51.8960   -5.5310 C   0  0  0  0  0  0  0  0  0  0  0  0
   27.7570   52.4890   -6.8190 S   0  0  0  0  0  0  0  0  0  0  0  0
   31.1960   47.5020   -3.5830 C   0  0  0  0  0  0  0  0  0  0  0  0
   28.8900   53.6910   -6.3710 C   0  0  0  0  0  0  0  0  0  0  0  0
   29.9370   53.2680   -5.7080 N   0  0  0  0  0  0  0  0  0  0  0  0
   31.4870   46.2730   -4.2280 C   0  0  0  0  0  0  0  0  0  0  0  0
   30.3920   47.4720   -2.4270 C   0  0  0  0  0  0  0  0  0  0  0  0
   28.6950   54.9810   -6.6890 N   0  0  0  0  0  0  0  0  0  0  0  0
   32.3160   46.1250   -5.4510 C   0  0  0  0  0  0  0  0  0  0  0  0
   29.8880   46.2690   -1.9230 C   0  0  0  0  0  0  0  0  0  0  0  0
   30.9710   45.0690   -3.7090 C   0  0  0  0  0  0  0  0  0  0  0  0
   28.8850   46.2970   -0.4640 S   0  0  0  0  0  0  0  0  0  0  0  0
   31.9460   45.6780   -6.5210 O   0  0  0  0  0  0  0  0  0  0  0  0
   33.5800   46.5420   -5.2580 O   0  0  0  0  0  0  0  0  0  0  0  0
   30.1750   45.0630   -2.5620 C   0  0  0  0  0  0  0  0  0  0  0  0
   28.5660   44.6690   -0.2140 N   0  0  0  0  0  0  0  0  0  0  0  0
   29.6950   46.7230    0.6550 O   0  0  0  0  0  0  0  0  0  0  0  0
   27.6130   46.9090   -0.7680 O   0  0  0  0  0  0  0  0  0  0  0  0
  1  2  1  0
  2  3  2  0
  2  4  1  0
  3  5  1  0
  4  6  2  0
  3  7  1  0
  6  8  1  0
  7  8  2  0
  6  9  1  0
  5 10  1  0
  9 11  1  0
  8 12  1  0
 11 12  2  0
 10 13  2  0
 10 14  1  0
 11 15  1  0
 13 16  1  0
 14 17  2  0
 13 18  1  0
 17 19  1  0
 16 20  2  0
 16 21  1  0
 17 22  1  0
 18 22  2  0
 19 23  1  0
 19 24  2  0
 19 25  2  0
M  END
