mac-x0437-mac-x0255
     RDKit          3D

 24 27  0  0  0  0  0  0  0  0999 V2000
   31.4610   44.3300   -6.9980 O   0  0  0  0  0  0  0  0  0  0  0  0
   32.0830   45.0620   -5.9250 C   0  0  2  0  0  0  0  0  0  0  0  0
   32.5290   46.2930   -6.4830 O   0  0  0  0  0  0  0  0  0  0  0  0
   31.4360   45.1710   -8.1930 O   0  0  0  0  0  0  0  0  0  0  0  0
   33.3280   44.3440   -5.3800 C   0  0  0  0  0  0  0  0  0  0  0  0
   31.0420   45.3110   -4.8520 C   0  0  0  0  0  0  0  0  0  0  0  0
   33.5430   44.4790   -3.8660 C   0  0  0  0  0  0  0  0  0  0  0  0
   30.0680   44.4480   -4.3780 C   0  0  0  0  0  0  0  0  0  0  0  0
   30.9540   46.8150   -4.0300 S   0  0  0  0  0  0  0  0  0  0  0  0
   34.5350   45.4400   -3.4460 N   0  0  0  0  0  0  0  0  0  0  0  0
   29.2520   45.0090   -3.3430 C   0  0  0  0  0  0  0  0  0  0  0  0
   29.6350   46.3170   -3.0510 C   0  0  0  0  0  0  0  0  0  0  0  0
   34.3910   46.8020   -3.4830 C   0  0  0  0  0  0  0  0  0  0  0  0
   35.7760   45.1570   -2.9420 C   0  0  0  0  0  0  0  0  0  0  0  0
   28.1720   44.4490   -2.6180 C   0  0  0  0  0  0  0  0  0  0  0  0
   28.9810   47.0760   -2.0650 C   0  0  0  0  0  0  0  0  0  0  0  0
   35.4620   47.4180   -3.0360 N   0  0  0  0  0  0  0  0  0  0  0  0
   36.3320   46.4120   -2.6960 C   0  0  0  0  0  0  0  0  0  0  0  0
   36.4560   43.9630   -2.6790 C   0  0  0  0  0  0  0  0  0  0  0  0
   27.5180   45.1990   -1.6370 C   0  0  0  0  0  0  0  0  0  0  0  0
   27.9200   46.4990   -1.3640 C   0  0  0  0  0  0  0  0  0  0  0  0
   37.6260   46.4960   -2.1650 C   0  0  0  0  0  0  0  0  0  0  0  0
   37.7450   44.0680   -2.1510 C   0  0  0  0  0  0  0  0  0  0  0  0
   38.3240   45.3120   -1.8960 C   0  0  0  0  0  0  0  0  0  0  0  0
  2  1  1  0
  2  3  1  6
  1  4  1  0
  2  5  1  0
  2  6  1  0
  5  7  1  0
  6  8  2  0
  6  9  1  0
  7 10  1  0
  8 11  1  0
  9 12  1  0
 11 12  2  0
 10 13  1  0
 10 14  1  0
 11 15  1  0
 12 16  1  0
 13 17  2  0
 14 18  2  0
 17 18  1  0
 14 19  1  0
 15 20  2  0
 16 21  2  0
 20 21  1  0
 18 22  1  0
 19 23  2  0
 22 24  2  0
 23 24  1  0
M  END
