mac-x0283-mac-x0319
     RDKit          3D

 24 26  0  0  0  0  0  0  0  0999 V2000
   28.6020   54.4440   -6.6850 N   0  0  0  0  0  0  0  0  0  0  0  0
   29.0390   53.8120   -5.5750 C   0  0  0  0  0  0  0  0  0  0  0  0
   29.3780   54.4290   -4.4390 N   0  0  0  0  0  0  0  0  0  0  0  0
   29.1990   52.4050   -5.4700 C   0  0  0  0  0  0  0  0  0  0  0  0
   29.7630   53.4160   -3.5760 O   0  0  0  0  0  0  0  0  0  0  0  0
   29.6430   52.2290   -4.2260 C   0  0  0  0  0  0  0  0  0  0  0  0
   29.0120   51.2820   -6.2980 C   0  0  0  0  0  0  0  0  0  0  0  0
   29.9070   50.9850   -3.7790 C   0  0  0  0  0  0  0  0  0  0  0  0
   29.2270   49.8670   -6.0580 C   0  0  0  0  0  0  0  0  0  0  0  0
   29.5140   48.4470   -5.6120 C   0  0  0  0  0  0  0  0  0  0  0  0
   29.6930   49.9260   -4.6810 C   0  0  0  0  0  0  0  0  0  0  0  0
   29.8660   47.5730   -6.8240 C   0  0  0  0  0  0  0  0  0  0  0  0
   30.5790   46.2870   -6.4160 C   0  0  0  0  0  0  0  0  0  0  0  0
   31.9380   46.2670   -6.9660 N   0  0  0  0  0  0  0  0  0  0  0  0
   32.8970   45.7050   -6.3230 C   0  0  0  0  0  0  0  0  0  0  0  0
   34.1020   45.7560   -6.9080 O   0  0  0  0  0  0  0  0  0  0  0  0
   32.9080   44.9830   -5.0050 C   0  0  0  0  0  0  0  0  0  0  0  0
   31.7210   45.3390   -4.1550 C   0  0  0  0  0  0  0  0  0  0  0  0
   30.6180   44.4750   -4.0800 C   0  0  0  0  0  0  0  0  0  0  0  0
   31.6970   46.5430   -3.4350 C   0  0  0  0  0  0  0  0  0  0  0  0
   29.5220   44.8210   -3.2980 C   0  0  0  0  0  0  0  0  0  0  0  0
   30.5910   46.8780   -2.6540 C   0  0  0  0  0  0  0  0  0  0  0  0
   28.4360   44.0000   -3.2060 O   0  0  0  0  0  0  0  0  0  0  0  0
   29.5000   46.0140   -2.5860 C   0  0  0  0  0  0  0  0  0  0  0  0
  1  2  1  0
  2  3  2  0
  2  4  1  0
  3  5  1  0
  4  6  2  0
  5  6  1  0
  4  7  1  0
  6  8  1  0
  7  9  2  0
  9 10  1  0
  8 11  2  0
  9 11  1  0
 10 12  1  0
 12 13  1  0
 13 14  1  0
 14 15  2  3
 15 16  1  0
 15 17  1  0
 17 18  1  0
 18 19  2  0
 18 20  1  0
 19 21  1  0
 20 22  2  0
 21 23  1  0
 21 24  2  0
 22 24  1  0
M  END
