mac-x0116-mac-x1494
     RDKit          3D

 21 24  0  0  0  0  0  0  0  0999 V2000
   29.3750   53.4210   -6.8230 C   0  0  0  0  0  0  0  0  0  0  0  0
   29.2210   52.0110   -7.1440 N   0  0  0  0  0  0  0  0  0  0  0  0
   29.4290   50.9820   -6.2270 C   0  0  0  0  0  0  0  0  0  0  0  0
   30.6040   54.0590   -7.3840 C   0  0  0  0  0  0  0  0  0  0  0  0
   31.6070   54.3560   -6.5030 O   0  0  0  0  0  0  0  0  0  0  0  0
   30.9740   54.4360   -8.6580 C   0  0  0  0  0  0  0  0  0  0  0  0
   32.2720   54.9930   -8.5530 C   0  0  0  0  0  0  0  0  0  0  0  0
   32.6110   54.9210   -7.2210 C   0  0  0  0  0  0  0  0  0  0  0  0
   29.5440   51.2580   -4.8740 N   0  0  0  0  0  0  0  0  0  0  0  0
   29.5170   49.7170   -6.6930 C   0  0  0  0  0  0  0  0  0  0  0  0
   29.7490   50.2720   -4.0320 C   0  0  0  0  0  0  0  0  0  0  0  0
   29.7440   48.6180   -5.7410 C   0  0  0  0  0  0  0  0  0  0  0  0
   29.4340   49.2000   -7.9590 N   0  0  0  0  0  0  0  0  0  0  0  0
   29.8640   48.9070   -4.3910 N   0  0  0  0  0  0  0  0  0  0  0  0
   29.7850   47.5180   -6.4430 N   0  0  0  0  0  0  0  0  0  0  0  0
   29.5960   47.9270   -7.7540 C   0  0  0  0  0  0  0  0  0  0  0  0
   29.8590   50.6940   -2.5980 C   0  0  0  0  0  0  0  0  0  0  0  0
   30.3360   48.0360   -3.3950 C   0  0  0  0  0  0  0  0  0  0  0  0
   30.2340   49.7680   -1.7090 C   0  0  0  0  0  0  0  0  0  0  0  0
   30.7010   46.4000   -3.8100 Cl  0  0  0  0  0  0  0  0  0  0  0  0
   30.5230   48.4130   -2.1180 C   0  0  0  0  0  0  0  0  0  0  0  0
  1  2  1  0
  2  3  1  0
  1  4  1  0
  4  5  1  0
  4  6  2  0
  6  7  1  0
  5  8  1  0
  7  8  2  0
  3  9  1  0
  3 10  2  0
  9 11  2  0
 10 12  1  0
 10 13  1  0
 11 14  1  0
 12 14  1  0
 12 15  2  0
 13 16  2  0
 15 16  1  0
 11 17  1  0
 14 18  1  0
 17 19  2  0
 18 20  1  0
 18 21  2  0
 19 21  1  0
M  END
