mac-x0385-mac-x0190
     RDKit          3D

 20 22  0  0  0  0  0  0  0  0999 V2000
   30.4830   50.4850   -3.4560 C   0  0  0  0  0  0  0  0  0  0  0  0
   30.0200   49.4380   -4.4300 C   0  0  0  0  0  0  0  0  0  0  0  0
   30.3190   48.1150   -4.2030 C   0  0  0  0  0  0  0  0  0  0  0  0
   29.2860   49.7050   -5.5890 C   0  0  0  0  0  0  0  0  0  0  0  0
   28.9540   51.0340   -5.8430 N   0  0  0  0  0  0  0  0  0  0  0  0
   28.9010   48.7330   -6.4240 N   0  0  0  0  0  0  0  0  0  0  0  0
   29.9470   47.1180   -5.0190 N   0  0  0  0  0  0  0  0  0  0  0  0
   29.2450   47.4770   -6.1070 C   0  0  0  0  0  0  0  0  0  0  0  0
   28.6730   51.8340   -4.7600 C   0  0  0  0  0  0  0  0  0  0  0  0
   28.8130   46.3990   -7.0400 C   0  0  0  0  0  0  0  0  0  0  0  0
   28.9980   53.2000   -4.7160 C   0  0  0  0  0  0  0  0  0  0  0  0
   28.0520   51.2750   -3.6410 C   0  0  0  0  0  0  0  0  0  0  0  0
   28.6980   53.9250   -3.5750 C   0  0  0  0  0  0  0  0  0  0  0  0
   29.6030   53.9990   -5.6680 N   0  0  0  0  0  0  0  0  0  0  0  0
   27.7620   52.0220   -2.5120 C   0  0  0  0  0  0  0  0  0  0  0  0
   29.6690   55.1920   -5.1120 C   0  0  0  0  0  0  0  0  0  0  0  0
   29.1350   55.1850   -3.8510 N   0  0  0  0  0  0  0  0  0  0  0  0
   28.0830   53.3760   -2.4510 C   0  0  0  0  0  0  0  0  0  0  0  0
   30.2250   56.4330   -5.6950 C   0  0  0  0  0  0  0  0  0  0  0  0
   29.1450   57.3530   -5.7970 O   0  0  0  0  0  0  0  0  0  0  0  0
  1  2  1  0
  2  3  2  0
  2  4  1  0
  4  5  1  0
  4  6  2  0
  3  7  1  0
  6  8  1  0
  7  8  2  0
  5  9  1  0
  8 10  1  0
  9 11  1  0
  9 12  2  0
 11 13  2  0
 11 14  1  0
 12 15  1  0
 14 16  2  0
 13 17  1  0
 16 17  1  0
 13 18  1  0
 15 18  2  0
 16 19  1  0
 19 20  1  0
M  END
