mac-x0223-mac-x0179
     RDKit          3D

 25 27  0  0  0  0  0  0  0  0999 V2000
   27.6240   43.6740   -2.1990 C   0  0  0  0  0  0  0  0  0  0  0  0
   27.7140   45.0590   -1.8860 O   0  0  0  0  0  0  0  0  0  0  0  0
   28.8680   45.6970   -2.2630 C   0  0  0  0  0  0  0  0  0  0  0  0
   29.0600   46.9540   -1.6840 C   0  0  0  0  0  0  0  0  0  0  0  0
   29.8330   45.2130   -3.1510 C   0  0  0  0  0  0  0  0  0  0  0  0
   28.1340   47.4620   -0.8150 O   0  0  0  0  0  0  0  0  0  0  0  0
   30.1780   47.7200   -1.9690 C   0  0  0  0  0  0  0  0  0  0  0  0
   30.9830   45.9770   -3.4600 C   0  0  0  0  0  0  0  0  0  0  0  0
   32.0020   45.4090   -4.4470 C   0  0  1  0  0  0  0  0  0  0  0  0
   31.1380   47.2320   -2.8550 C   0  0  0  0  0  0  0  0  0  0  0  0
   32.1480   46.1530   -5.7640 C   0  0  0  0  0  0  0  0  0  0  0  0
   33.4090   45.0770   -3.8930 C   0  0  0  0  0  0  0  0  0  0  0  0
   33.0790   46.8480   -6.1330 O   0  0  0  0  0  0  0  0  0  0  0  0
   31.0920   45.9790   -6.5870 O   0  0  0  0  0  0  0  0  0  0  0  0
   33.8780   45.5960   -2.6160 N   0  0  0  0  0  0  0  0  0  0  0  0
   34.5910   44.7210   -1.8380 C   0  0  0  0  0  0  0  0  0  0  0  0
   34.4000   46.8630   -2.4670 C   0  0  0  0  0  0  0  0  0  0  0  0
   34.3040   43.5850   -1.5260 O   0  0  0  0  0  0  0  0  0  0  0  0
   33.9250   47.9360   -2.7870 O   0  0  0  0  0  0  0  0  0  0  0  0
   35.8240   45.3960   -1.4410 C   0  0  0  0  0  0  0  0  0  0  0  0
   35.7100   46.7130   -1.8250 C   0  0  0  0  0  0  0  0  0  0  0  0
   36.9490   44.9110   -0.8020 C   0  0  0  0  0  0  0  0  0  0  0  0
   36.7180   47.6330   -1.5920 C   0  0  0  0  0  0  0  0  0  0  0  0
   37.9850   45.8180   -0.5540 C   0  0  0  0  0  0  0  0  0  0  0  0
   37.8710   47.1690   -0.9460 C   0  0  0  0  0  0  0  0  0  0  0  0
  1  2  1  0
  2  3  1  0
  3  4  2  0
  3  5  1  0
  4  6  1  0
  4  7  1  0
  5  8  2  0
  8  9  1  0
  7 10  2  0
  8 10  1  0
  9 11  1  0
  9 12  1  1
 11 13  2  0
 11 14  1  0
 12 15  1  0
 15 16  1  0
 15 17  1  0
 16 18  2  0
 17 19  2  0
 16 20  1  0
 17 21  1  0
 20 21  2  0
 20 22  1  0
 21 23  1  0
 22 24  2  0
 23 25  2  0
 24 25  1  0
M  END
