mac-x0433-mac-x0380
     RDKit          3D

 18 19  0  0  0  0  0  0  0  0999 V2000
   28.9330   50.6530   -6.5800 C   0  0  0  0  0  0  0  0  0  0  0  0
   28.6660   51.3250   -5.2230 C   0  0  2  0  0  0  0  0  0  0  0  0
   28.6990   52.8940   -5.2370 C   0  0  1  0  0  0  0  0  0  0  0  0
   29.5320   50.7570   -4.1420 N   0  0  0  0  0  0  0  0  0  0  0  0
   29.4190   49.4150   -3.8290 C   0  0  0  0  0  0  0  0  0  0  0  0
   30.3630   51.5780   -3.2930 C   0  0  2  0  0  0  0  0  0  0  0  0
   30.1560   53.3170   -5.0690 C   0  0  1  0  0  0  0  0  0  0  0  0
   28.0360   53.6300   -6.3160 N   0  0  0  0  0  0  0  0  0  0  0  0
   28.0900   53.3480   -3.9610 C   0  0  0  0  0  0  0  0  0  0  0  0
   30.4160   54.8220   -5.2810 C   0  0  0  0  0  0  0  0  0  0  0  0
   29.7780   51.6200   -1.9810 N   0  0  0  0  0  0  0  0  0  0  0  0
   29.4120   48.5590   -4.8690 O   0  0  0  0  0  0  0  0  0  0  0  0
   29.3390   48.9560   -2.7020 O   0  0  0  0  0  0  0  0  0  0  0  0
   30.5560   52.9490   -3.7040 N   0  0  0  0  0  0  0  0  0  0  0  0
   28.1090   54.9980   -6.3790 C   0  0  0  0  0  0  0  0  0  0  0  0
   27.5510   54.9740   -3.7040 S   0  0  0  0  0  0  0  0  0  0  0  0
   28.4620   55.6340   -7.3600 O   0  0  0  0  0  0  0  0  0  0  0  0
   27.7010   55.8150   -5.2090 C   0  0  0  0  0  0  0  0  0  0  0  0
  2  1  1  6
  2  3  1  0
  2  4  1  0
  4  5  1  0
  4  6  1  0
  3  7  1  0
  3  8  1  0
  3  9  1  1
  7 10  1  1
  6 11  1  1
  5 12  1  0
  5 13  2  0
  6 14  1  0
  7 14  1  0
  8 15  1  0
  9 16  2  0
 15 17  2  0
 15 18  1  0
 16 18  2  0
M  END
