mac-x0565-mac-x0567
     RDKit          3D

 17 19  0  0  0  0  0  0  0  0999 V2000
   28.8050   52.9370   -5.8300 O   0  0  0  0  0  0  0  0  0  0  0  0
   29.1740   52.6210   -4.5770 C   0  0  0  0  0  0  0  0  0  0  0  0
   29.5810   53.5060   -3.8300 O   0  0  0  0  0  0  0  0  0  0  0  0
   29.0350   51.1400   -4.1980 C   0  0  1  0  0  0  0  0  0  0  0  0
   29.5580   50.0840   -5.2970 C   0  0  2  0  0  0  0  0  0  0  0  0
   29.6550   51.0910   -2.7980 C   0  0  0  0  0  0  0  0  0  0  0  0
   30.7520   49.2570   -4.7150 C   0  0  1  0  0  0  0  0  0  0  0  0
   30.4330   50.1110   -2.3470 C   0  0  0  0  0  0  0  0  0  0  0  0
   29.8190   50.7440   -6.6420 N   0  0  0  0  0  0  0  0  0  0  0  0
   28.5360   49.0550   -5.8250 C   0  0  0  0  0  0  0  0  0  0  0  0
   30.7630   48.9540   -3.2070 C   0  0  1  0  0  0  0  0  0  0  0  0
   30.9070   47.9190   -5.2110 O   0  0  0  0  0  0  0  0  0  0  0  0
   29.2460   48.5650   -7.0880 C   0  0  2  0  0  0  0  0  0  0  0  0
   29.3920   49.8370   -7.7270 N   0  0  0  0  0  0  0  0  0  0  0  0
   28.5470   47.6980   -8.0070 N   0  0  0  0  0  0  0  0  0  0  0  0
   29.9010   47.8400   -3.0790 O   0  0  0  0  0  0  0  0  0  0  0  0
   30.2160   47.0810   -4.2550 C   0  0  0  0  0  0  0  0  0  0  0  0
  1  2  1  0
  2  3  2  0
  4  2  1  6
  4  5  1  0
  4  6  1  0
  5  7  1  0
  6  8  2  0
  5  9  1  0
  5 10  1  6
  7 11  1  0
 11  8  1  1
  7 12  1  6
 10 13  1  0
  9 14  1  0
 13 14  1  0
 13 15  1  6
 11 16  1  0
 12 17  1  0
 16 17  1  0
M  END
