mac-x0415-mac-x0333
     RDKit          3D

 24 27  0  0  0  0  0  0  0  0999 V2000
   33.5720   46.6520   -6.1860 O   0  0  0  0  0  0  0  0  0  0  0  0
   32.4230   45.9840   -5.9410 C   0  0  0  0  0  0  0  0  0  0  0  0
   31.5220   45.9290   -6.7640 O   0  0  0  0  0  0  0  0  0  0  0  0
   32.3830   45.3280   -4.5750 C   0  0  0  0  0  0  0  0  0  0  0  0
   31.0190   45.2610   -3.9860 C   0  0  0  0  0  0  0  0  0  0  0  0
   30.1940   44.0430   -4.0160 C   0  0  0  0  0  0  0  0  0  0  0  0
   30.2050   46.1060   -3.3260 C   0  0  0  0  0  0  0  0  0  0  0  0
   29.0220   44.0680   -3.4460 N   0  0  0  0  0  0  0  0  0  0  0  0
   28.9260   45.4440   -2.9340 C   0  0  1  0  0  0  0  0  0  0  0  0
   30.3200   47.4910   -2.8970 C   0  0  0  0  0  0  0  0  0  0  0  0
   30.8660   48.3930   -3.8080 O   0  0  0  0  0  0  0  0  0  0  0  0
   28.8120   45.5580   -1.4470 C   0  0  0  0  0  0  0  0  0  0  0  0
   29.8870   47.7560   -1.6350 C   0  0  0  0  0  0  0  0  0  0  0  0
   29.9740   49.4230   -0.7940 Br  0  0  0  0  0  0  0  0  0  0  0  0
   29.2890   46.6720   -0.8430 C   0  0  0  0  0  0  0  0  0  0  0  0
   30.3060   49.6180   -4.2360 C   0  0  0  0  0  0  0  0  0  0  0  0
   30.4340   50.8370   -3.5480 C   0  0  0  0  0  0  0  0  0  0  0  0
   29.5860   49.5910   -5.4590 C   0  0  0  0  0  0  0  0  0  0  0  0
   29.8580   51.9710   -4.1030 C   0  0  0  0  0  0  0  0  0  0  0  0
   29.0100   50.7630   -5.9950 C   0  0  0  0  0  0  0  0  0  0  0  0
   29.1700   51.9370   -5.2920 C   0  0  0  0  0  0  0  0  0  0  0  0
   29.8930   53.2270   -3.5770 O   0  0  0  0  0  0  0  0  0  0  0  0
   28.7030   53.1720   -5.6450 O   0  0  0  0  0  0  0  0  0  0  0  0
   29.4460   53.9890   -4.7160 C   0  0  0  0  0  0  0  0  0  0  0  0
  1  2  1  0
  2  3  2  0
  2  4  1  0
  4  5  1  0
  5  6  1  0
  5  7  2  0
  6  8  2  0
  7  9  1  0
  8  9  1  0
  7 10  1  0
 10 11  1  0
  9 12  1  1
 10 13  2  0
 13 14  1  0
 12 15  2  0
 13 15  1  0
 11 16  1  0
 16 17  2  0
 16 18  1  0
 17 19  1  0
 18 20  2  0
 19 21  2  0
 20 21  1  0
 19 22  1  0
 21 23  1  0
 22 24  1  0
 23 24  1  0
M  END
