mac-x0555-mac-x0182
     RDKit          3D

 25 28  0  0  0  0  0  0  0  0999 V2000
   28.5530   55.6270   -6.1820 N   0  0  0  0  0  0  0  0  0  0  0  0
   29.0450   54.5050   -5.5040 C   0  0  0  0  0  0  0  0  0  0  0  0
   29.6230   54.5820   -4.2420 C   0  0  0  0  0  0  0  0  0  0  0  0
   28.9800   53.2380   -6.0670 C   0  0  0  0  0  0  0  0  0  0  0  0
   29.4830   52.1360   -5.3590 C   0  0  0  0  0  0  0  0  0  0  0  0
   30.1140   53.5220   -3.5490 N   0  0  0  0  0  0  0  0  0  0  0  0
   30.0330   52.3100   -4.1260 C   0  0  0  0  0  0  0  0  0  0  0  0
   29.4700   50.8590   -5.8140 C   0  0  0  0  0  0  0  0  0  0  0  0
   30.5270   51.2030   -3.4400 C   0  0  0  0  0  0  0  0  0  0  0  0
   29.9920   49.8160   -5.0470 C   0  0  0  0  0  0  0  0  0  0  0  0
   30.6070   49.7900   -3.7430 C   0  0  0  0  0  0  0  0  0  0  0  0
   30.5810   48.3690   -4.2730 C   0  0  0  0  0  0  0  0  0  0  0  0
   31.4910   47.4260   -3.4760 C   0  0  0  0  0  0  0  0  0  0  0  0
   32.9120   47.7570   -3.7110 N   0  0  0  0  0  0  0  0  0  0  0  0
   33.8310   46.6910   -4.2990 S   0  0  2  0  0  0  0  0  0  0  0  0
   34.0400   46.3500   -5.6840 O   0  0  0  0  0  0  0  0  0  0  0  0
   33.2900   45.2750   -3.5620 N   0  0  0  0  0  0  0  0  0  0  0  0
   35.3610   46.7180   -3.4850 C   0  0  0  0  0  0  0  0  0  0  0  0
   34.3130   44.6540   -2.8880 C   0  0  0  0  0  0  0  0  0  0  0  0
   35.4900   45.5450   -2.7530 C   0  0  0  0  0  0  0  0  0  0  0  0
   36.3310   47.6990   -3.5120 C   0  0  0  0  0  0  0  0  0  0  0  0
   34.2830   43.5170   -2.4440 O   0  0  0  0  0  0  0  0  0  0  0  0
   37.4860   47.4700   -2.7570 C   0  0  0  0  0  0  0  0  0  0  0  0
   36.6290   45.3100   -2.0010 C   0  0  0  0  0  0  0  0  0  0  0  0
   37.6340   46.2850   -2.0080 C   0  0  0  0  0  0  0  0  0  0  0  0
  1  2  1  0
  2  3  2  0
  2  4  1  0
  4  5  2  0
  3  6  1  0
  5  7  1  0
  6  7  2  0
  5  8  1  0
  7  9  1  0
  8 10  2  0
  9 11  2  0
 10 11  1  0
 11 12  1  0
 12 13  1  0
 13 14  1  0
 14 15  2  0
 15 16  2  0
 15 17  1  1
 15 18  1  0
 17 19  1  0
 18 20  2  0
 19 20  1  0
 18 21  1  0
 19 22  2  0
 21 23  2  0
 20 24  1  0
 23 25  1  0
 24 25  2  0
M  END
