mac-x0380-mac-x0565
     RDKit          3D

 26 29  0  0  0  0  0  0  0  0999 V2000
   26.9420   47.6950   -4.4190 O   0  0  0  0  0  0  0  0  0  0  0  0
   27.0670   48.7530   -3.5910 C   0  0  0  0  0  0  0  0  0  0  0  0
   26.8400   48.7120   -2.3940 O   0  0  0  0  0  0  0  0  0  0  0  0
   27.5180   49.9770   -4.2860 C   0  0  0  0  0  0  0  0  0  0  0  0
   27.5280   51.1850   -3.5810 C   0  0  0  0  0  0  0  0  0  0  0  0
   27.9280   49.9340   -5.6210 C   0  0  0  0  0  0  0  0  0  0  0  0
   27.9560   52.3580   -4.2140 C   0  0  0  0  0  0  0  0  0  0  0  0
   28.3550   51.1070   -6.2470 C   0  0  0  0  0  0  0  0  0  0  0  0
   28.3720   52.3190   -5.5420 C   0  0  0  0  0  0  0  0  0  0  0  0
   27.9680   53.8880   -3.3020 S   0  0  0  0  0  0  0  0  0  0  0  0
   28.8070   53.5060   -6.1340 N   0  0  0  0  0  0  0  0  0  0  0  0
   27.6180   55.0680   -4.6310 C   0  0  0  0  0  0  0  0  0  0  0  0
   30.2240   53.6120   -6.1500 O   0  0  0  0  0  0  0  0  0  0  0  0
   28.1910   54.7300   -5.9930 C   0  0  0  0  0  0  0  0  0  0  0  0
   28.0920   55.5460   -6.9210 O   0  0  0  0  0  0  0  0  0  0  0  0
   30.7740   53.4950   -4.8960 C   0  0  0  0  0  0  0  0  0  0  0  0
   31.1820   54.4260   -4.2130 O   0  0  0  0  0  0  0  0  0  0  0  0
   30.8320   52.0720   -4.4290 C   0  0  0  0  0  0  0  0  0  0  0  0
   30.9790   50.9750   -5.3000 C   0  0  0  0  0  0  0  0  0  0  0  0
   30.7350   51.8450   -3.0340 C   0  0  0  0  0  0  0  0  0  0  0  0
   31.0250   49.7070   -4.7410 C   0  0  0  0  0  0  0  0  0  0  0  0
   30.7850   50.5490   -2.5020 C   0  0  0  0  0  0  0  0  0  0  0  0
   30.9320   49.5010   -3.3810 C   0  0  0  0  0  0  0  0  0  0  0  0
   31.1640   48.5310   -5.4230 O   0  0  0  0  0  0  0  0  0  0  0  0
   31.0040   48.1810   -3.0520 O   0  0  0  0  0  0  0  0  0  0  0  0
   30.8930   47.5870   -4.3610 C   0  0  0  0  0  0  0  0  0  0  0  0
  1  2  1  0
  2  3  2  0
  2  4  1  0
  4  5  2  0
  4  6  1  0
  5  7  1  0
  6  8  2  0
  7  9  2  0
  8  9  1  0
  7 10  1  0
  9 11  1  0
 10 12  1  0
 11 13  1  0
 11 14  1  0
 12 14  1  0
 14 15  2  0
 13 16  1  0
 16 17  2  0
 16 18  1  0
 18 19  2  0
 18 20  1  0
 19 21  1  0
 20 22  2  0
 21 23  2  0
 22 23  1  0
 21 24  1  0
 23 25  1  0
 24 26  1  0
 25 26  1  0
M  END
