mac-x0159-mac-x0179
     RDKit          3D

 33 37  0  0  0  0  0  0  0  0999 V2000
   28.1310   51.5940   -5.9950 N   0  0  0  0  0  0  0  0  0  0  0  0
   29.2580   50.6890   -5.8240 C   0  0  2  0  0  0  0  0  0  0  0  0
   29.3490   49.5710   -6.9100 C   0  0  1  0  0  0  0  0  0  0  0  0
   29.1960   50.2760   -4.4400 N   0  0  0  0  0  0  0  0  0  0  0  0
   29.1640   48.8570   -4.1350 C   0  0  0  0  0  0  0  0  0  0  0  0
   29.9390   48.2380   -6.4260 C   0  0  1  0  0  0  0  0  0  0  0  0
   28.0690   49.1610   -7.5360 N   0  0  0  0  0  0  0  0  0  0  0  0
   29.9910   48.0550   -4.9990 N   0  0  0  0  0  0  0  0  0  0  0  0
   29.2010   47.2100   -7.1430 N   0  0  0  0  0  0  0  0  0  0  0  0
   28.4250   47.8940   -8.1490 C   0  0  0  0  0  0  0  0  0  0  0  0
   30.4210   46.7250   -4.5360 C   0  0  2  0  0  0  0  0  0  0  0  0
   30.9260   45.7830   -5.6760 C   0  0  0  0  0  0  0  0  0  0  0  0
   29.5130   45.9890   -3.5400 C   0  0  0  0  0  0  0  0  0  0  0  0
   32.1450   45.0710   -5.5060 O   0  0  0  0  0  0  0  0  0  0  0  0
   28.8750   44.7820   -3.7770 C   0  0  0  0  0  0  0  0  0  0  0  0
   29.2580   46.5010   -2.2640 N   0  0  0  0  0  0  0  0  0  0  0  0
   33.1070   45.6430   -4.7480 C   0  0  0  0  0  0  0  0  0  0  0  0
   28.4610   45.6920   -1.5900 C   0  0  0  0  0  0  0  0  0  0  0  0
   27.9630   44.2810   -2.4240 S   0  0  0  0  0  0  0  0  0  0  0  0
   27.9870   45.9290   -0.2010 C   0  0  0  0  0  0  0  0  0  0  0  0
   34.1060   46.1980   -5.1850 O   0  0  0  0  0  0  0  0  0  0  0  0
   32.7950   45.5050   -3.2640 C   0  0  0  0  0  0  0  0  0  0  0  0
   33.9500   45.7760   -2.4390 N   0  0  0  0  0  0  0  0  0  0  0  0
   34.7410   44.7770   -1.9540 C   0  0  0  0  0  0  0  0  0  0  0  0
   34.5640   46.9910   -2.3700 C   0  0  0  0  0  0  0  0  0  0  0  0
   34.5180   43.5820   -1.8980 O   0  0  0  0  0  0  0  0  0  0  0  0
   34.1720   48.0800   -2.7360 O   0  0  0  0  0  0  0  0  0  0  0  0
   35.9730   45.4120   -1.4870 C   0  0  0  0  0  0  0  0  0  0  0  0
   35.8630   46.7670   -1.7450 C   0  0  0  0  0  0  0  0  0  0  0  0
   37.0910   44.8700   -0.8930 C   0  0  0  0  0  0  0  0  0  0  0  0
   36.8700   47.6570   -1.4220 C   0  0  0  0  0  0  0  0  0  0  0  0
   38.1270   45.7510   -0.5550 C   0  0  0  0  0  0  0  0  0  0  0  0
   38.0140   47.1330   -0.8180 C   0  0  0  0  0  0  0  0  0  0  0  0
  2  1  1  6
  2  3  1  0
  2  4  1  0
  4  5  1  0
  3  6  1  0
  3  7  1  1
  5  8  1  0
  6  8  1  0
  6  9  1  6
  7 10  1  0
  9 10  1  0
  8 11  1  0
 11 12  1  6
 11 13  1  0
 12 14  1  0
 13 15  2  0
 13 16  1  0
 14 17  1  0
 16 18  2  0
 15 19  1  0
 18 19  1  0
 18 20  1  0
 17 21  2  0
 17 22  1  0
 22 23  1  0
 23 24  1  0
 23 25  1  0
 24 26  2  0
 25 27  2  0
 24 28  1  0
 25 29  1  0
 28 29  2  0
 28 30  1  0
 29 31  1  0
 30 32  2  0
 31 33  2  0
 32 33  1  0
M  END
