mac-x0341-mac-x0398
     RDKit          3D

 15 16  0  0  0  0  0  0  0  0999 V2000
   28.3200   54.4240   -7.3350 N   0  0  0  0  0  0  0  0  0  0  0  0
   28.6480   53.3410   -6.5780 C   0  0  0  0  0  0  0  0  0  0  0  0
   28.2150   52.1280   -7.0120 N   0  0  0  0  0  0  0  0  0  0  0  0
   29.3490   53.5210   -5.5060 N   0  0  0  0  0  0  0  0  0  0  0  0
   29.7250   52.4630   -4.6840 C   0  0  0  0  0  0  0  0  0  0  0  0
   28.6000   51.0460   -6.3800 C   0  0  0  0  0  0  0  0  0  0  0  0
   30.1990   52.6910   -3.5790 O   0  0  0  0  0  0  0  0  0  0  0  0
   29.5230   51.0230   -5.1660 C   0  0  2  0  0  0  0  0  0  0  0  0
   28.1840   49.7180   -6.8660 C   0  0  0  0  0  0  0  0  0  0  0  0
   29.2880   50.0820   -3.9650 C   0  0  0  0  0  0  0  0  0  0  0  0
   29.1690   48.8150   -6.8890 C   0  0  0  0  0  0  0  0  0  0  0  0
   30.7050   50.2500   -5.6600 C   0  0  0  0  0  0  0  0  0  0  0  0
   29.2710   50.3770   -2.7770 O   0  0  0  0  0  0  0  0  0  0  0  0
   29.1420   48.7690   -4.2780 O   0  0  0  0  0  0  0  0  0  0  0  0
   30.5090   49.1880   -6.4730 C   0  0  0  0  0  0  0  0  0  0  0  0
  1  2  1  0
  2  3  1  0
  2  4  2  0
  4  5  1  0
  3  6  2  0
  5  7  2  0
  5  8  1  0
  6  8  1  0
  6  9  1  0
  8 10  1  1
  9 11  2  0
  8 12  1  0
 10 13  2  0
 10 14  1  0
 11 15  1  0
 12 15  2  0
M  END
