mac-x0179-mac-x0212
     RDKit          3D

 28 30  0  0  0  0  0  0  0  0999 V2000
   32.0160   47.1670   -5.1000 N   0  0  0  0  0  0  0  0  0  0  0  0
   32.6520   46.0030   -4.7060 C   0  0  0  0  0  0  0  0  0  0  0  0
   33.2370   45.2650   -5.4970 O   0  0  0  0  0  0  0  0  0  0  0  0
   31.0800   47.7510   -4.4130 C   0  0  0  0  0  0  0  0  0  0  0  0
   32.6490   45.6490   -3.2110 C   0  0  0  0  0  0  0  0  0  0  0  0
   30.6520   47.2240   -3.2470 O   0  0  0  0  0  0  0  0  0  0  0  0
   30.3680   49.0070   -4.7270 C   0  0  0  0  0  0  0  0  0  0  0  0
   33.9510   45.8220   -2.5970 N   0  0  0  0  0  0  0  0  0  0  0  0
   30.0390   49.3030   -6.0520 C   0  0  0  0  0  0  0  0  0  0  0  0
   30.0360   49.8940   -3.6980 C   0  0  0  0  0  0  0  0  0  0  0  0
   34.6720   44.8040   -2.0360 C   0  0  0  0  0  0  0  0  0  0  0  0
   34.5560   47.0340   -2.4240 C   0  0  0  0  0  0  0  0  0  0  0  0
   29.3820   50.5020   -6.3500 C   0  0  0  0  0  0  0  0  0  0  0  0
   29.3770   51.0890   -4.0040 C   0  0  0  0  0  0  0  0  0  0  0  0
   34.3840   43.6230   -1.9430 O   0  0  0  0  0  0  0  0  0  0  0  0
   34.1600   48.1420   -2.7220 O   0  0  0  0  0  0  0  0  0  0  0  0
   35.9130   45.4050   -1.5420 C   0  0  0  0  0  0  0  0  0  0  0  0
   35.8390   46.7660   -1.7810 C   0  0  0  0  0  0  0  0  0  0  0  0
   29.0510   51.3960   -5.3290 C   0  0  0  0  0  0  0  0  0  0  0  0
   28.3900   52.6320   -5.5870 N   0  0  0  0  0  0  0  0  0  0  0  0
   37.0140   44.8300   -0.9380 C   0  0  0  0  0  0  0  0  0  0  0  0
   36.8570   47.6300   -1.4330 C   0  0  0  0  0  0  0  0  0  0  0  0
   29.2320   54.0880   -5.4440 S   0  0  0  0  0  0  0  0  0  0  0  0
   38.0610   45.6860   -0.5740 C   0  0  0  0  0  0  0  0  0  0  0  0
   37.9830   47.0730   -0.8200 C   0  0  0  0  0  0  0  0  0  0  0  0
   30.6880   53.8120   -6.4350 C   0  0  0  0  0  0  0  0  0  0  0  0
   28.4680   55.1630   -6.0340 O   0  0  0  0  0  0  0  0  0  0  0  0
   29.6580   54.1500   -4.0610 O   0  0  0  0  0  0  0  0  0  0  0  0
  1  2  1  0
  2  3  2  0
  1  4  2  3
  2  5  1  0
  4  6  1  0
  4  7  1  0
  5  8  1  0
  7  9  2  0
  7 10  1  0
  8 11  1  0
  8 12  1  0
  9 13  1  0
 10 14  2  0
 11 15  2  0
 12 16  2  0
 11 17  1  0
 12 18  1  0
 17 18  2  0
 13 19  2  0
 14 19  1  0
 19 20  1  0
 17 21  1  0
 18 22  1  0
 23 20  1  0
 21 24  2  0
 22 25  2  0
 24 25  1  0
 23 26  1  0
 23 27  2  0
 23 28  2  0
M  END
