mac-x0213-mac-x0284
     RDKit          3D

 21 23  0  0  0  0  0  0  0  0999 V2000
   32.3160   44.9820   -6.8860 O   0  0  0  0  0  0  0  0  0  0  0  0
   32.2280   45.8610   -5.7790 C   0  0  1  0  0  0  0  0  0  0  0  0
   31.2710   46.9100   -6.0220 N   0  0  0  0  0  0  0  0  0  0  0  0
   31.7670   45.1190   -4.4850 C   0  0  0  0  0  0  0  0  0  0  0  0
   31.0990   47.5550   -4.9370 C   0  0  0  0  0  0  0  0  0  0  0  0
   31.9010   46.0370   -3.2260 C   0  0  0  0  0  0  0  0  0  0  0  0
   30.2830   44.6630   -4.5620 C   0  0  0  0  0  0  0  0  0  0  0  0
   30.5300   46.0340   -2.6030 C   0  0  0  0  0  0  0  0  0  0  0  0
   29.6360   45.2650   -3.3480 C   0  0  0  0  0  0  0  0  0  0  0  0
   30.2920   48.6950   -4.5460 C   0  0  0  0  0  0  0  0  0  0  0  0
   30.1150   46.6770   -1.4450 C   0  0  0  0  0  0  0  0  0  0  0  0
   28.3160   45.1180   -2.9470 C   0  0  0  0  0  0  0  0  0  0  0  0
   29.4760   49.3450   -5.4660 C   0  0  0  0  0  0  0  0  0  0  0  0
   30.3680   49.1180   -3.2310 C   0  0  0  0  0  0  0  0  0  0  0  0
   31.1590   48.5090   -2.3020 O   0  0  0  0  0  0  0  0  0  0  0  0
   28.7860   46.5350   -1.0350 C   0  0  0  0  0  0  0  0  0  0  0  0
   27.8940   45.7580   -1.7850 C   0  0  0  0  0  0  0  0  0  0  0  0
   28.7220   50.4480   -5.0440 C   0  0  0  0  0  0  0  0  0  0  0  0
   29.6290   50.2000   -2.8020 C   0  0  0  0  0  0  0  0  0  0  0  0
   27.8310   51.1830   -6.0110 C   0  0  0  0  0  0  0  0  0  0  0  0
   28.8070   50.8680   -3.7060 C   0  0  0  0  0  0  0  0  0  0  0  0
  2  1  1  6
  2  3  1  0
  2  4  1  0
  3  5  2  3
  4  6  1  0
  4  7  1  0
  6  8  1  0
  7  9  1  0
  8  9  2  0
  5 10  1  0
  8 11  1  0
  9 12  1  0
 10 13  2  0
 10 14  1  0
 14 15  1  0
 11 16  2  0
 12 17  2  0
 16 17  1  0
 13 18  1  0
 14 19  2  0
 18 20  1  0
 18 21  2  0
 19 21  1  0
M  END
