mac-x0455-mac-x0303
     RDKit          3D

 27 29  0  0  0  0  0  0  0  0999 V2000
   30.9240   48.3940   -4.7540 C   0  0  0  0  0  0  0  0  0  0  0  0
   31.0920   46.9460   -4.2680 C   0  0  1  0  0  0  0  0  0  0  0  0
   30.1920   46.7620   -3.1360 O   0  0  0  0  0  0  0  0  0  0  0  0
   30.5870   46.1190   -5.4860 C   0  0  0  0  0  0  0  0  0  0  0  0
   32.5500   46.7550   -3.8460 C   0  0  0  0  0  0  0  0  0  0  0  0
   29.5130   45.5450   -5.5910 O   0  0  0  0  0  0  0  0  0  0  0  0
   31.4980   46.0840   -6.5000 O   0  0  0  0  0  0  0  0  0  0  0  0
   29.0850   47.6770   -3.0280 C   0  0  0  0  0  0  0  0  0  0  0  0
   33.4270   47.8330   -3.6470 C   0  0  0  0  0  0  0  0  0  0  0  0
   33.0580   45.4580   -3.6430 C   0  0  0  0  0  0  0  0  0  0  0  0
   29.5750   49.0320   -2.4970 C   0  0  0  0  0  0  0  0  0  0  0  0
   34.7530   47.6260   -3.2650 C   0  0  0  0  0  0  0  0  0  0  0  0
   34.3850   45.2480   -3.2600 C   0  0  0  0  0  0  0  0  0  0  0  0
   35.2340   46.3350   -3.0710 C   0  0  0  0  0  0  0  0  0  0  0  0
   29.3980   50.1620   -3.4980 C   0  0  0  0  0  0  0  0  0  0  0  0
   29.6000   51.4960   -3.1030 C   0  0  0  0  0  0  0  0  0  0  0  0
   29.0270   49.8670   -4.8230 C   0  0  0  0  0  0  0  0  0  0  0  0
   29.4130   52.4810   -4.0770 C   0  0  0  0  0  0  0  0  0  0  0  0
   28.8530   50.8730   -5.7740 C   0  0  0  0  0  0  0  0  0  0  0  0
   29.5140   53.8470   -4.0500 N   0  0  0  0  0  0  0  0  0  0  0  0
   29.0500   52.1960   -5.3870 C   0  0  0  0  0  0  0  0  0  0  0  0
   29.2160   54.3240   -5.3020 C   0  0  0  0  0  0  0  0  0  0  0  0
   28.9360   53.3380   -6.1280 N   0  0  0  0  0  0  0  0  0  0  0  0
   29.2210   56.0410   -5.6920 S   0  0  0  0  0  0  0  0  0  0  0  0
   30.5400   56.3030   -6.7240 N   0  0  0  0  0  0  0  0  0  0  0  0
   28.0510   56.2850   -6.4990 O   0  0  0  0  0  0  0  0  0  0  0  0
   29.5230   56.7710   -4.4860 O   0  0  0  0  0  0  0  0  0  0  0  0
  2  1  1  6
  2  3  1  0
  2  4  1  0
  2  5  1  0
  4  6  2  0
  4  7  1  0
  3  8  1  0
  5  9  2  0
  5 10  1  0
  8 11  1  0
  9 12  1  0
 10 13  2  0
 12 14  2  0
 13 14  1  0
 11 15  1  0
 15 16  2  0
 15 17  1  0
 16 18  1  0
 17 19  2  0
 18 20  1  0
 18 21  2  0
 19 21  1  0
 20 22  1  0
 21 23  1  0
 22 23  2  0
 22 24  1  0
 24 25  1  0
 24 26  2  0
 24 27  2  0
M  END
