mac-x0584-mac-x0188
     RDKit          3D

 22 25  0  0  0  0  0  0  0  0999 V2000
   31.7970   44.5890   -2.8600 C   0  0  0  0  0  0  0  0  0  0  0  0
   30.8100   45.6820   -3.3070 C   0  0  2  0  0  0  0  0  0  0  0  0
   30.8590   46.0530   -4.8390 C   0  0  2  0  0  0  0  0  0  0  0  0
   31.1340   47.0080   -2.6110 C   0  0  0  0  0  0  0  0  0  0  0  0
   29.9690   45.0700   -5.6680 C   0  0  0  0  0  0  0  0  0  0  0  0
   32.3210   46.0690   -5.3740 C   0  0  0  0  0  0  0  0  0  0  0  0
   30.3400   47.4740   -4.8050 N   0  0  0  0  0  0  0  0  0  0  0  0
   30.3990   48.0400   -3.4510 C   0  0  0  0  0  0  0  0  0  0  0  0
   28.8500   44.6770   -5.3680 O   0  0  0  0  0  0  0  0  0  0  0  0
   30.5440   44.6400   -6.8240 O   0  0  0  0  0  0  0  0  0  0  0  0
   33.1580   44.7520   -5.4960 C   0  0  0  0  0  0  0  0  0  0  0  0
   33.5100   46.6130   -4.5100 C   0  0  0  0  0  0  0  0  0  0  0  0
   29.7590   48.1700   -5.8650 C   0  0  0  0  0  0  0  0  0  0  0  0
   34.4150   45.6040   -5.2460 C   0  0  0  0  0  0  0  0  0  0  0  0
   29.5150   47.5450   -7.0700 N   0  0  0  0  0  0  0  0  0  0  0  0
   29.3960   49.4650   -5.8170 C   0  0  0  0  0  0  0  0  0  0  0  0
   28.9440   48.1890   -8.1330 C   0  0  0  0  0  0  0  0  0  0  0  0
   28.7810   50.1080   -7.0080 C   0  0  0  0  0  0  0  0  0  0  0  0
   29.4250   50.5250   -4.8600 C   0  0  0  0  0  0  0  0  0  0  0  0
   28.5660   49.4230   -8.1700 N   0  0  0  0  0  0  0  0  0  0  0  0
   28.4870   51.3620   -6.8010 N   0  0  0  0  0  0  0  0  0  0  0  0
   28.8890   51.5850   -5.4880 C   0  0  0  0  0  0  0  0  0  0  0  0
  2  1  1  6
  2  3  1  0
  2  4  1  0
  3  5  1  6
  3  6  1  0
  3  7  1  0
  4  8  1  0
  7  8  1  0
  5  9  2  0
  5 10  1  0
  6 11  1  0
  6 12  1  0
  7 13  1  0
 11 14  1  0
 12 14  1  0
 13 15  1  0
 13 16  2  0
 15 17  1  0
 16 18  1  0
 16 19  1  0
 17 20  2  0
 18 20  1  0
 18 21  2  0
 19 22  2  0
 21 22  1  0
M  END
