mac-x0226-mac-x0303
     RDKit          3D

 30 33  0  0  0  0  0  0  0  0999 V2000
   32.1390   45.7620   -7.0240 O   0  0  0  0  0  0  0  0  0  0  0  0
   32.7860   46.5610   -6.0440 C   0  0  0  0  0  0  0  0  0  0  0  0
   33.8710   47.1990   -6.7160 O   0  0  0  0  0  0  0  0  0  0  0  0
   31.8190   47.6870   -5.6270 C   0  0  0  0  0  0  0  0  0  0  0  0
   33.3100   45.7400   -4.9070 C   0  0  0  0  0  0  0  0  0  0  0  0
   30.3640   47.5900   -6.1160 C   0  0  0  0  0  0  0  0  0  0  0  0
   32.7320   44.5740   -4.3580 C   0  0  0  0  0  0  0  0  0  0  0  0
   34.4510   45.9160   -4.1450 C   0  0  0  0  0  0  0  0  0  0  0  0
   29.2870   48.1770   -5.1990 C   0  0  0  0  0  0  0  0  0  0  0  0
   33.4390   44.0680   -3.3510 N   0  0  0  0  0  0  0  0  0  0  0  0
   34.5060   44.8980   -3.2160 N   0  0  0  0  0  0  0  0  0  0  0  0
   35.4960   44.6660   -2.2210 C   0  0  0  0  0  0  0  0  0  0  0  0
   29.4160   49.6450   -4.8500 C   0  0  0  0  0  0  0  0  0  0  0  0
   36.3950   45.6730   -1.8420 C   0  0  0  0  0  0  0  0  0  0  0  0
   35.5740   43.4060   -1.6070 C   0  0  0  0  0  0  0  0  0  0  0  0
   29.8490   50.0000   -3.5610 C   0  0  0  0  0  0  0  0  0  0  0  0
   29.1160   50.6590   -5.7760 C   0  0  0  0  0  0  0  0  0  0  0  0
   37.3610   45.4160   -0.8580 C   0  0  0  0  0  0  0  0  0  0  0  0
   36.5410   43.1580   -0.6250 C   0  0  0  0  0  0  0  0  0  0  0  0
   29.2550   52.0050   -5.3970 C   0  0  0  0  0  0  0  0  0  0  0  0
   29.9920   51.3370   -3.1640 C   0  0  0  0  0  0  0  0  0  0  0  0
   37.4310   44.1630   -0.2550 C   0  0  0  0  0  0  0  0  0  0  0  0
   29.6850   52.3090   -4.1120 C   0  0  0  0  0  0  0  0  0  0  0  0
   29.0230   53.1490   -6.1240 N   0  0  0  0  0  0  0  0  0  0  0  0
   29.3060   54.1450   -5.2980 C   0  0  0  0  0  0  0  0  0  0  0  0
   29.7100   53.6760   -4.0740 N   0  0  0  0  0  0  0  0  0  0  0  0
   29.1950   55.8680   -5.6700 S   0  0  0  0  0  0  0  0  0  0  0  0
   30.4950   56.2120   -6.6850 N   0  0  0  0  0  0  0  0  0  0  0  0
   27.9730   56.0230   -6.4230 O   0  0  0  0  0  0  0  0  0  0  0  0
   29.4260   56.5250   -4.4040 O   0  0  0  0  0  0  0  0  0  0  0  0
  2  1  1  0
  2  3  1  0
  2  4  1  0
  2  5  1  0
  4  6  1  0
  5  7  1  0
  5  8  2  0
  6  9  1  0
  7 10  2  0
  8 11  1  0
 10 11  1  0
 11 12  1  0
  9 13  1  0
 12 14  2  0
 12 15  1  0
 13 16  2  0
 13 17  1  0
 14 18  1  0
 15 19  2  0
 17 20  2  0
 16 21  1  0
 18 22  2  0
 19 22  1  0
 20 23  1  0
 21 23  2  0
 20 24  1  0
 24 25  2  0
 23 26  1  0
 25 26  1  0
 25 27  1  0
 27 28  1  0
 27 29  2  0
 27 30  2  0
M  END
