mac-x0302-mac-x0190
     RDKit          3D

 19 20  0  0  0  0  0  0  0  0999 V2000
   30.8930   44.6950   -4.8040 O   0  0  0  0  0  0  0  0  0  0  0  0
   30.8190   45.9710   -5.2270 C   0  0  0  0  0  0  0  0  0  0  0  0
   30.9130   46.2390   -6.4140 O   0  0  0  0  0  0  0  0  0  0  0  0
   30.6090   46.9590   -4.0910 C   0  0  0  0  0  0  0  0  0  0  0  0
   30.3290   48.2850   -4.6200 N   0  0  0  0  0  0  0  0  0  0  0  0
   30.1060   49.3110   -3.7310 C   0  0  0  0  0  0  0  0  0  0  0  0
   30.3230   49.2080   -2.5310 O   0  0  0  0  0  0  0  0  0  0  0  0
   29.5570   50.5950   -4.2870 C   0  0  0  0  0  0  0  0  0  0  0  0
   29.7340   51.7540   -3.6110 C   0  0  0  0  0  0  0  0  0  0  0  0
   28.8120   50.5820   -5.5590 C   0  0  0  0  0  0  0  0  0  0  0  0
   29.1360   53.0020   -4.1390 C   0  0  2  0  0  0  0  0  0  0  0  0
   28.5180   51.6990   -6.2620 C   0  0  0  0  0  0  0  0  0  0  0  0
   27.8750   53.0880   -3.5570 O   0  0  0  0  0  0  0  0  0  0  0  0
   29.0080   52.9380   -5.6450 C   0  0  0  0  0  0  0  0  0  0  0  0
   29.7650   54.2880   -3.9200 N   0  0  0  0  0  0  0  0  0  0  0  0
   29.7770   54.8060   -5.1090 C   0  0  0  0  0  0  0  0  0  0  0  0
   29.3550   54.0440   -6.1950 N   0  0  0  0  0  0  0  0  0  0  0  0
   30.2450   56.2130   -5.3790 C   0  0  0  0  0  0  0  0  0  0  0  0
   29.1240   57.0780   -5.5180 O   0  0  0  0  0  0  0  0  0  0  0  0
  1  2  1  0
  2  3  2  0
  2  4  1  0
  4  5  1  0
  5  6  1  0
  6  7  2  0
  6  8  1  0
  8  9  2  0
  8 10  1  0
  9 11  1  0
 10 12  2  0
 11 13  1  1
 11 14  1  0
 12 14  1  0
 11 15  1  0
 15 16  2  0
 14 17  2  0
 16 17  1  0
 16 18  1  0
 18 19  1  0
M  END
