mac-x0142-mac-x0348
     RDKit          3D

 32 37  0  0  0  0  0  0  0  0999 V2000
   28.1070   44.9860    0.0170 C   0  0  0  0  0  0  0  0  0  0  0  0
   28.9590   45.9220   -0.6840 N   0  0  0  0  0  0  0  0  0  0  0  0
   29.6670   45.6260   -1.8150 C   0  0  0  0  0  0  0  0  0  0  0  0
   29.1760   47.2310   -0.3160 C   0  0  0  0  0  0  0  0  0  0  0  0
   30.3660   46.7530   -2.2090 C   0  0  0  0  0  0  0  0  0  0  0  0
   30.0550   47.7770   -1.2570 C   0  0  0  0  0  0  0  0  0  0  0  0
   28.6770   47.9830    0.7600 C   0  0  0  0  0  0  0  0  0  0  0  0
   31.2740   46.8800   -3.4060 C   0  0  0  0  0  0  0  0  0  0  0  0
   30.4460   49.1230   -1.1140 C   0  0  0  0  0  0  0  0  0  0  0  0
   29.0820   49.3140    0.8770 C   0  0  0  0  0  0  0  0  0  0  0  0
   32.0750   45.6050   -3.7050 C   0  0  2  0  0  0  0  0  0  0  0  0
   29.9550   49.8820   -0.0460 C   0  0  0  0  0  0  0  0  0  0  0  0
   33.4810   45.9560   -4.1690 C   0  0  0  0  0  0  0  0  0  0  0  0
   31.4760   44.5580   -4.7040 C   0  0  2  0  0  0  0  0  0  0  0  0
   33.7860   46.3940   -5.2690 O   0  0  0  0  0  0  0  0  0  0  0  0
   34.4410   45.7550   -3.2470 O   0  0  0  0  0  0  0  0  0  0  0  0
   31.6970   44.7540   -6.2070 C   0  0  0  0  0  0  0  0  0  0  0  0
   29.9630   44.3670   -4.5000 C   0  0  0  0  0  0  0  0  0  0  0  0
   32.1680   43.5050   -6.9480 C   0  0  0  0  0  0  0  0  0  0  0  0
   33.0940   44.6620   -6.8060 C   0  0  0  0  0  0  0  0  0  0  0  0
   29.1350   45.5720   -4.9540 C   0  0  0  0  0  0  0  0  0  0  0  0
   30.5820   45.4890   -6.9560 C   0  0  0  0  0  0  0  0  0  0  0  0
   29.7520   46.3180   -6.0680 N   0  0  0  0  0  0  0  0  0  0  0  0
   29.1600   47.5000   -6.5550 C   0  0  0  0  0  0  0  0  0  0  0  0
   28.7220   47.5760   -7.8690 N   0  0  0  0  0  0  0  0  0  0  0  0
   28.9630   48.6290   -5.8360 C   0  0  0  0  0  0  0  0  0  0  0  0
   28.1450   48.6960   -8.3970 C   0  0  0  0  0  0  0  0  0  0  0  0
   28.3270   49.8140   -6.4750 C   0  0  0  0  0  0  0  0  0  0  0  0
   29.2040   49.0910   -4.5020 C   0  0  0  0  0  0  0  0  0  0  0  0
   27.9250   49.8060   -7.7800 N   0  0  0  0  0  0  0  0  0  0  0  0
   28.2110   50.8260   -5.6580 N   0  0  0  0  0  0  0  0  0  0  0  0
   28.7530   50.3550   -4.4690 C   0  0  0  0  0  0  0  0  0  0  0  0
  1  2  1  0
  2  3  1  0
  2  4  1  0
  3  5  2  0
  4  6  2  0
  5  6  1  0
  4  7  1  0
  5  8  1  0
  6  9  1  0
  7 10  2  0
 11  8  1  6
  9 12  2  0
 10 12  1  0
 11 13  1  0
 11 14  1  0
 13 15  2  0
 13 16  1  0
 14 17  1  0
 14 18  1  6
 17 19  1  0
 17 20  1  0
 19 20  1  0
 18 21  1  0
 17 22  1  0
 21 23  1  0
 22 23  1  0
 23 24  1  0
 24 25  1  0
 24 26  2  0
 25 27  1  0
 26 28  1  0
 26 29  1  0
 27 30  2  0
 28 30  1  0
 28 31  2  0
 29 32  2  0
 31 32  1  0
M  END
