mac-x0346-mac-x0124
     RDKit          3D

 21 23  0  0  0  0  0  0  0  0999 V2000
   31.1240   54.9660   -5.6320 O   0  0  0  0  0  0  0  0  0  0  0  0
   30.1110   54.8620   -4.6470 N   0  0  0  0  0  0  0  0  0  0  0  0
   29.9980   53.6220   -4.0570 C   0  0  0  0  0  0  0  0  0  0  0  0
   30.6990   53.2910   -3.0980 O   0  0  0  0  0  0  0  0  0  0  0  0
   28.9920   52.6730   -4.6140 C   0  0  0  0  0  0  0  0  0  0  0  0
   27.6320   52.9880   -4.5390 C   0  0  0  0  0  0  0  0  0  0  0  0
   29.3770   51.4650   -5.2150 C   0  0  0  0  0  0  0  0  0  0  0  0
   27.1480   54.1360   -3.9740 O   0  0  0  0  0  0  0  0  0  0  0  0
   26.6740   52.1170   -5.0530 C   0  0  0  0  0  0  0  0  0  0  0  0
   28.4240   50.5680   -5.7400 C   0  0  0  0  0  0  0  0  0  0  0  0
   27.0690   50.9170   -5.6490 C   0  0  0  0  0  0  0  0  0  0  0  0
   28.8650   49.3120   -6.3530 C   0  0  0  0  0  0  0  0  0  0  0  0
   29.5170   48.3090   -5.6270 C   0  0  0  0  0  0  0  0  0  0  0  0
   28.6250   49.1240   -7.6800 N   0  0  0  0  0  0  0  0  0  0  0  0
   29.9440   48.1080   -4.2840 C   0  0  0  0  0  0  0  0  0  0  0  0
   29.8780   47.1690   -6.3360 C   0  0  0  0  0  0  0  0  0  0  0  0
   29.0320   47.9660   -8.2380 C   0  0  0  0  0  0  0  0  0  0  0  0
   30.4990   46.3100   -5.4650 N   0  0  0  0  0  0  0  0  0  0  0  0
   30.5470   46.8680   -4.2120 C   0  0  0  0  0  0  0  0  0  0  0  0
   29.6630   46.9380   -7.6420 N   0  0  0  0  0  0  0  0  0  0  0  0
   31.0220   45.0130   -5.8230 C   0  0  0  0  0  0  0  0  0  0  0  0
  1  2  1  0
  2  3  1  0
  3  4  2  0
  3  5  1  0
  5  6  2  0
  5  7  1  0
  6  8  1  0
  6  9  1  0
  7 10  2  0
  9 11  2  0
 10 11  1  0
 10 12  1  0
 12 13  1  0
 12 14  2  0
 13 15  1  0
 13 16  2  0
 14 17  1  0
 16 18  1  0
 15 19  2  0
 18 19  1  0
 16 20  1  0
 17 20  2  0
 18 21  1  0
M  END
