mac-x0365-mac-x0212
     RDKit          3D

 16 17  0  0  0  0  0  0  0  0999 V2000
   28.6240   47.5280   -5.1050 O   0  0  0  0  0  0  0  0  0  0  0  0
   29.7530   48.0340   -4.5790 C   0  0  0  0  0  0  0  0  0  0  0  0
   30.6820   47.2020   -4.2380 N   0  0  0  0  0  0  0  0  0  0  0  0
   29.6780   49.5080   -4.5000 C   0  0  0  0  0  0  0  0  0  0  0  0
   31.8040   47.8460   -3.7030 O   0  0  0  0  0  0  0  0  0  0  0  0
   29.7150   50.1170   -3.2070 C   0  0  0  0  0  0  0  0  0  0  0  0
   29.5710   50.2250   -5.7140 C   0  0  0  0  0  0  0  0  0  0  0  0
   29.6490   51.5080   -3.0020 C   0  0  0  0  0  0  0  0  0  0  0  0
   29.5040   51.6100   -5.5460 C   0  0  0  0  0  0  0  0  0  0  0  0
   29.6890   52.0160   -1.7640 F   0  0  0  0  0  0  0  0  0  0  0  0
   29.3950   52.5090   -6.6060 N   0  0  0  0  0  0  0  0  0  0  0  0
   29.5410   52.3160   -4.1530 C   0  0  0  0  0  0  0  0  0  0  0  0
   29.4600   53.6900   -4.2330 N   0  0  0  0  0  0  0  0  0  0  0  0
   29.3620   53.8920   -5.7990 S   0  0  0  0  0  0  0  0  0  0  0  0
   29.2660   55.5890   -5.8020 C   0  0  0  0  0  0  0  0  0  0  0  0
   29.2350   54.8790   -7.0870 O   0  0  0  0  0  0  0  0  0  0  0  0
  1  2  1  0
  2  3  2  3
  2  4  1  0
  3  5  1  0
  4  6  2  0
  4  7  1  0
  6  8  1  0
  7  9  2  0
  8 10  1  0
  9 11  1  0
  8 12  2  0
  9 12  1  0
 12 13  1  0
 11 14  1  0
 13 14  2  0
 14 15  1  0
 14 16  2  0
M  END
