mac-x0509-mac-x0277
     RDKit          3D

 24 26  0  0  0  0  0  0  0  0999 V2000
   37.9760   47.2080   -5.2960 O   0  0  0  0  0  0  0  0  0  0  0  0
   37.7610   46.1550   -4.7190 C   0  0  0  0  0  0  0  0  0  0  0  0
   36.9150   45.9560   -3.4420 C   0  0  1  0  0  0  0  0  0  0  0  0
   38.2420   44.9080   -5.0950 N   0  0  0  0  0  0  0  0  0  0  0  0
   35.3940   46.1330   -3.6580 C   0  0  0  0  0  0  0  0  0  0  0  0
   37.3070   44.5440   -3.0550 C   0  0  0  0  0  0  0  0  0  0  0  0
   38.0820   43.9860   -4.0740 C   0  0  0  0  0  0  0  0  0  0  0  0
   34.8540   45.7490   -5.0520 C   0  0  0  0  0  0  0  0  0  0  0  0
   37.0150   43.8110   -1.9180 C   0  0  0  0  0  0  0  0  0  0  0  0
   38.5830   42.7020   -4.0080 C   0  0  0  0  0  0  0  0  0  0  0  0
   33.7000   46.5660   -5.4100 O   0  0  0  0  0  0  0  0  0  0  0  0
   37.5120   42.5060   -1.8270 C   0  0  0  0  0  0  0  0  0  0  0  0
   38.2900   41.9550   -2.8660 C   0  0  0  0  0  0  0  0  0  0  0  0
   32.4940   45.9420   -5.6490 C   0  0  0  0  0  0  0  0  0  0  0  0
   31.7600   46.1660   -6.6050 O   0  0  0  0  0  0  0  0  0  0  0  0
   32.2090   44.9440   -4.5450 C   0  0  0  0  0  0  0  0  0  0  0  0
   31.0400   45.3220   -3.6630 C   0  0  0  0  0  0  0  0  0  0  0  0
   31.1220   46.4410   -2.8260 C   0  0  0  0  0  0  0  0  0  0  0  0
   29.8600   44.5620   -3.6680 C   0  0  0  0  0  0  0  0  0  0  0  0
   30.0490   46.8010   -2.0030 C   0  0  0  0  0  0  0  0  0  0  0  0
   28.7860   44.9200   -2.8450 C   0  0  0  0  0  0  0  0  0  0  0  0
   30.2340   48.1940   -1.0010 Cl  0  0  0  0  0  0  0  0  0  0  0  0
   28.8800   46.0360   -2.0140 C   0  0  0  0  0  0  0  0  0  0  0  0
   27.5180   46.4230   -1.0230 Cl  0  0  0  0  0  0  0  0  0  0  0  0
  1  2  2  0
  2  3  1  0
  2  4  1  0
  3  5  1  6
  3  6  1  0
  4  7  1  0
  6  7  2  0
  5  8  1  0
  6  9  1  0
  7 10  1  0
  8 11  1  0
  9 12  2  0
 10 13  2  0
 12 13  1  0
 11 14  1  0
 14 15  2  0
 14 16  1  0
 16 17  1  0
 17 18  2  0
 17 19  1  0
 18 20  1  0
 19 21  2  0
 20 22  1  0
 20 23  2  0
 21 23  1  0
 23 24  1  0
M  END
