mac-x0338-mac-x0224
     RDKit          3D

 13 13  0  0  0  0  0  0  0  0999 V2000
   28.5460   51.6920   -7.5840 N   0  0  0  0  0  0  0  0  0  0  0  0
   28.9540   52.1390   -6.3550 C   0  0  0  0  0  0  0  0  0  0  0  0
   28.9170   53.3290   -6.0600 O   0  0  0  0  0  0  0  0  0  0  0  0
   29.4460   51.0930   -5.3950 C   0  0  0  0  0  0  0  0  0  0  0  0
   29.5860   49.7950   -5.8450 N   0  0  0  0  0  0  0  0  0  0  0  0
   29.7480   51.4520   -4.0860 C   0  0  0  0  0  0  0  0  0  0  0  0
   30.0450   48.8630   -4.9300 C   0  0  0  0  0  0  0  0  0  0  0  0
   30.2000   50.5450   -3.1680 N   0  0  0  0  0  0  0  0  0  0  0  0
   30.2250   47.4020   -5.3770 C   0  0  0  0  0  0  0  0  0  0  0  0
   30.3350   49.2710   -3.6260 C   0  0  0  0  0  0  0  0  0  0  0  0
   30.7920   48.3820   -2.6890 O   0  0  0  0  0  0  0  0  0  0  0  0
   30.0160   47.0040   -6.5160 O   0  0  0  0  0  0  0  0  0  0  0  0
   30.6470   46.5120   -4.4320 O   0  0  0  0  0  0  0  0  0  0  0  0
  1  2  1  0
  2  3  2  0
  2  4  1  0
  4  5  2  0
  4  6  1  0
  5  7  1  0
  6  8  2  0
  7  9  1  0
  7 10  2  0
  8 10  1  0
 10 11  1  0
  9 12  2  0
  9 13  1  0
M  END
