mac-x0301-mac-x0387
     RDKit          3D

 13 14  0  0  0  0  0  0  0  0999 V2000
   29.8380   45.6830   -4.7300 O   0  0  0  0  0  0  0  0  0  0  0  0
   30.5180   46.7390   -4.2250 C   0  0  0  0  0  0  0  0  0  0  0  0
   31.4800   46.6360   -3.4850 O   0  0  0  0  0  0  0  0  0  0  0  0
   29.9580   48.0230   -4.6830 C   0  0  0  0  0  0  0  0  0  0  0  0
   29.6210   48.2280   -6.0090 C   0  0  0  0  0  0  0  0  0  0  0  0
   29.7560   49.0710   -3.7700 C   0  0  0  0  0  0  0  0  0  0  0  0
   29.0950   49.4330   -6.4470 C   0  0  0  0  0  0  0  0  0  0  0  0
   29.2220   50.2920   -4.2100 C   0  0  0  0  0  0  0  0  0  0  0  0
   29.7470   47.3280   -7.0360 O   0  0  0  0  0  0  0  0  0  0  0  0
   28.8890   50.4790   -5.5540 C   0  0  0  0  0  0  0  0  0  0  0  0
   28.8270   49.4190   -7.8310 N   0  0  0  0  0  0  0  0  0  0  0  0
   29.1170   48.0030   -8.1540 C   0  0  0  0  0  0  0  0  0  0  0  0
   27.6720   50.0840   -8.2830 N   0  0  0  0  0  0  0  0  0  0  0  0
  1  2  1  0
  2  3  2  0
  2  4  1  0
  4  5  2  0
  4  6  1  0
  5  7  1  0
  6  8  2  0
  5  9  1  0
  7 10  2  0
  8 10  1  0
  7 11  1  0
  9 12  1  0
 11 12  1  0
 11 13  1  0
M  END
