mac-x0360-mac-x0137
     RDKit          3D

 27 30  0  0  0  0  0  0  0  0999 V2000
   32.1140   55.3610   -7.3290 Cl  0  0  0  0  0  0  0  0  0  0  0  0
   32.6450   53.9790   -6.4520 C   0  0  0  0  0  0  0  0  0  0  0  0
   33.9860   53.5960   -6.5150 C   0  0  0  0  0  0  0  0  0  0  0  0
   31.7320   53.2570   -5.6850 C   0  0  0  0  0  0  0  0  0  0  0  0
   32.1770   52.1360   -4.9800 C   0  0  0  0  0  0  0  0  0  0  0  0
   34.4130   52.4770   -5.8040 C   0  0  0  0  0  0  0  0  0  0  0  0
   36.0660   52.0010   -5.8800 Cl  0  0  0  0  0  0  0  0  0  0  0  0
   31.0430   51.1950   -3.9930 S   0  0  0  0  0  0  0  0  0  0  0  0
   33.5190   51.7380   -5.0300 C   0  0  0  0  0  0  0  0  0  0  0  0
   30.9170   49.7770   -4.8660 N   0  0  0  0  0  0  0  0  0  0  0  0
   31.7300   50.8760   -2.7660 O   0  0  0  0  0  0  0  0  0  0  0  0
   29.7610   51.8650   -4.0020 O   0  0  0  0  0  0  0  0  0  0  0  0
   29.8390   48.8430   -4.5810 C   0  0  2  0  0  0  0  0  0  0  0  0
   30.2700   47.9540   -3.4050 C   0  0  0  0  0  0  0  0  0  0  0  0
   29.6090   48.0420   -5.8080 N   0  0  0  0  0  0  0  0  0  0  0  0
   30.4450   46.8250   -5.9310 C   0  0  0  0  0  0  0  0  0  0  0  0
   31.5650   47.2060   -3.7060 C   0  0  0  0  0  0  0  0  0  0  0  0
   28.7500   48.4080   -6.8710 C   0  0  0  0  0  0  0  0  0  0  0  0
   31.7720   47.0030   -5.2010 C   0  0  0  0  0  0  0  0  0  0  0  0
   28.8440   47.7060   -8.0670 N   0  0  0  0  0  0  0  0  0  0  0  0
   27.8140   49.3870   -6.8740 C   0  0  0  0  0  0  0  0  0  0  0  0
   28.0650   47.9760   -9.1570 C   0  0  0  0  0  0  0  0  0  0  0  0
   26.9970   49.6230   -8.1020 C   0  0  0  0  0  0  0  0  0  0  0  0
   27.3000   50.3780   -5.9760 C   0  0  0  0  0  0  0  0  0  0  0  0
   27.1580   48.8870   -9.2380 N   0  0  0  0  0  0  0  0  0  0  0  0
   26.1390   50.5960   -7.9600 N   0  0  0  0  0  0  0  0  0  0  0  0
   26.3450   51.0330   -6.6620 C   0  0  0  0  0  0  0  0  0  0  0  0
  1  2  1  0
  2  3  2  0
  2  4  1  0
  4  5  2  0
  3  6  1  0
  6  7  1  0
  5  8  1  0
  5  9  1  0
  6  9  2  0
  8 10  1  0
  8 11  2  0
  8 12  2  0
 13 10  1  6
 13 14  1  0
 13 15  1  0
 15 16  1  0
 14 17  1  0
 15 18  1  0
 16 19  1  0
 17 19  1  0
 18 20  1  0
 18 21  2  0
 20 22  1  0
 21 23  1  0
 21 24  1  0
 22 25  2  0
 23 25  1  0
 23 26  2  0
 24 27  2  0
 26 27  1  0
M  END
