mac-x0306-mac-x0373
     RDKit          3D

 21 23  0  0  0  0  0  0  0  0999 V2000
   31.1510   46.9460   -6.6340 O   0  0  0  0  0  0  0  0  0  0  0  0
   30.2020   46.9190   -5.6580 C   0  0  0  0  0  0  0  0  0  0  0  0
   29.2360   46.1860   -5.8190 O   0  0  0  0  0  0  0  0  0  0  0  0
   30.5390   47.8430   -4.4590 C   0  0  2  0  0  0  0  0  0  0  0  0
   29.9440   49.2450   -4.5450 N   0  0  0  0  0  0  0  0  0  0  0  0
   32.0290   47.9000   -4.1230 C   0  0  0  0  0  0  0  0  0  0  0  0
   30.2090   50.1780   -3.5250 C   0  0  0  0  0  0  0  0  0  0  0  0
   29.5690   49.8030   -5.7720 C   0  0  0  0  0  0  0  0  0  0  0  0
   32.6300   46.7900   -3.4900 C   0  0  0  0  0  0  0  0  0  0  0  0
   32.8390   49.0050   -4.4160 C   0  0  0  0  0  0  0  0  0  0  0  0
   29.7790   51.4590   -3.5490 C   0  0  0  0  0  0  0  0  0  0  0  0
   29.1060   51.0630   -5.9110 C   0  0  0  0  0  0  0  0  0  0  0  0
   33.9890   46.7920   -3.1650 C   0  0  0  0  0  0  0  0  0  0  0  0
   34.1970   49.0070   -4.0900 C   0  0  0  0  0  0  0  0  0  0  0  0
   28.9490   51.9800   -4.7100 C   0  0  0  0  0  0  0  0  0  0  0  0
   34.7720   47.9030   -3.4660 C   0  0  0  0  0  0  0  0  0  0  0  0
   29.1620   53.4520   -5.0190 C   0  0  0  0  0  0  0  0  0  0  0  0
   28.7930   54.0010   -6.2290 N   0  0  0  0  0  0  0  0  0  0  0  0
   29.6850   54.3810   -4.2370 N   0  0  0  0  0  0  0  0  0  0  0  0
   29.6490   55.5460   -4.9610 C   0  0  0  0  0  0  0  0  0  0  0  0
   29.1010   55.3320   -6.2020 C   0  0  0  0  0  0  0  0  0  0  0  0
  1  2  1  0
  2  3  2  0
  4  2  1  6
  4  5  1  0
  4  6  1  0
  5  7  1  0
  5  8  1  0
  6  9  2  0
  6 10  1  0
  7 11  2  0
  8 12  2  0
  9 13  1  0
 10 14  2  0
 11 15  1  0
 12 15  1  0
 13 16  2  0
 14 16  1  0
 15 17  1  0
 17 18  1  0
 17 19  2  0
 19 20  1  0
 18 21  1  0
 20 21  2  0
M  END
