mac-x0509-mac-x0373
     RDKit          3D

 27 30  0  0  0  0  0  0  0  0999 V2000
   38.4960   47.4500   -4.8090 O   0  0  0  0  0  0  0  0  0  0  0  0
   38.1810   46.3160   -4.4840 C   0  0  0  0  0  0  0  0  0  0  0  0
   36.8250   45.8350   -3.9410 C   0  0  2  0  0  0  0  0  0  0  0  0
   38.9870   45.1860   -4.5360 N   0  0  0  0  0  0  0  0  0  0  0  0
   36.0370   46.8960   -3.1600 C   0  0  0  0  0  0  0  0  0  0  0  0
   37.2370   44.5750   -3.2210 C   0  0  0  0  0  0  0  0  0  0  0  0
   38.5280   44.2450   -3.6270 C   0  0  0  0  0  0  0  0  0  0  0  0
   36.5580   43.7900   -2.3070 C   0  0  0  0  0  0  0  0  0  0  0  0
   39.1940   43.1320   -3.1540 C   0  0  0  0  0  0  0  0  0  0  0  0
   34.6820   47.1630   -3.7760 C   0  0  0  0  0  0  0  0  0  0  0  0
   37.2120   42.6560   -1.8110 C   0  0  0  0  0  0  0  0  0  0  0  0
   38.5160   42.3310   -2.2320 C   0  0  0  0  0  0  0  0  0  0  0  0
   33.7330   46.1370   -3.8160 C   0  0  0  0  0  0  0  0  0  0  0  0
   34.3520   48.4100   -4.3190 C   0  0  0  0  0  0  0  0  0  0  0  0
   32.4830   46.3480   -4.3940 C   0  0  0  0  0  0  0  0  0  0  0  0
   33.0990   48.6260   -4.9000 C   0  0  0  0  0  0  0  0  0  0  0  0
   32.1480   47.5910   -4.9480 C   0  0  0  0  0  0  0  0  0  0  0  0
   30.7850   47.8160   -5.6000 C   0  0  1  0  0  0  0  0  0  0  0  0
   29.9400   46.5320   -5.7210 C   0  0  0  0  0  0  0  0  0  0  0  0
   30.0670   49.0630   -5.0860 C   0  0  0  0  0  0  0  0  0  0  0  0
   30.2320   45.7760   -6.8140 O   0  0  0  0  0  0  0  0  0  0  0  0
   29.0710   46.1650   -4.9380 O   0  0  0  0  0  0  0  0  0  0  0  0
   30.0780   49.4600   -3.7390 C   0  0  0  0  0  0  0  0  0  0  0  0
   29.3610   49.8530   -6.0080 C   0  0  0  0  0  0  0  0  0  0  0  0
   29.4000   50.6150   -3.3350 C   0  0  0  0  0  0  0  0  0  0  0  0
   28.6860   51.0040   -5.6040 C   0  0  0  0  0  0  0  0  0  0  0  0
   28.7060   51.3850   -4.2650 C   0  0  0  0  0  0  0  0  0  0  0  0
  1  2  2  0
  2  3  1  0
  2  4  1  0
  3  5  1  1
  3  6  1  0
  4  7  1  0
  6  7  2  0
  6  8  1  0
  7  9  1  0
  5 10  1  0
  8 11  2  0
  9 12  2  0
 11 12  1  0
 10 13  2  0
 10 14  1  0
 13 15  1  0
 14 16  2  0
 15 17  2  0
 16 17  1  0
 17 18  1  0
 18 19  1  1
 18 20  1  0
 19 21  1  0
 19 22  2  0
 20 23  2  0
 20 24  1  0
 23 25  1  0
 24 26  2  0
 25 27  2  0
 26 27  1  0
M  END
