mac-x0124-mac-x0213
     RDKit          3D

 24 27  0  0  0  0  0  0  0  0999 V2000
   27.3250   48.2950   -5.5120 C   0  0  0  0  0  0  0  0  0  0  0  0
   28.0320   49.3640   -6.1770 N   0  0  0  0  0  0  0  0  0  0  0  0
   27.9070   50.6960   -5.8560 C   0  0  0  0  0  0  0  0  0  0  0  0
   29.3680   49.0880   -6.7660 C   0  0  2  0  0  0  0  0  0  0  0  0
   28.8730   51.4410   -6.3950 C   0  0  0  0  0  0  0  0  0  0  0  0
   29.8020   50.5470   -7.1940 C   0  0  2  0  0  0  0  0  0  0  0  0
   29.6500   48.0390   -7.7630 N   0  0  0  0  0  0  0  0  0  0  0  0
   30.2440   46.8330   -7.1630 C   0  0  0  0  0  0  0  0  0  0  0  0
   29.7580   50.7820   -8.7250 C   0  0  2  0  0  0  0  0  0  0  0  0
   30.5550   48.5150   -8.7990 C   0  0  0  0  0  0  0  0  0  0  0  0
   28.5690   51.3790   -9.2890 N   0  0  0  0  0  0  0  0  0  0  0  0
   29.6120   46.4120   -5.9160 N   0  0  0  0  0  0  0  0  0  0  0  0
   29.9520   49.6020   -9.5250 N   0  0  0  0  0  0  0  0  0  0  0  0
   30.3910   46.0160   -4.9740 C   0  0  0  0  0  0  0  0  0  0  0  0
   31.7350   45.9770   -5.1160 O   0  0  0  0  0  0  0  0  0  0  0  0
   29.8850   45.5530   -3.6230 C   0  0  0  0  0  0  0  0  0  0  0  0
   30.4900   46.3450   -2.4460 C   0  0  0  0  0  0  0  0  0  0  0  0
   30.2070   44.0670   -3.3900 C   0  0  0  0  0  0  0  0  0  0  0  0
   30.5820   45.3000   -1.3790 C   0  0  0  0  0  0  0  0  0  0  0  0
   30.4220   44.0200   -1.9110 C   0  0  0  0  0  0  0  0  0  0  0  0
   30.7950   45.4880   -0.0220 C   0  0  0  0  0  0  0  0  0  0  0  0
   30.4700   42.8990   -1.0980 C   0  0  0  0  0  0  0  0  0  0  0  0
   30.8450   44.3630    0.8040 C   0  0  0  0  0  0  0  0  0  0  0  0
   30.6830   43.0780    0.2680 C   0  0  0  0  0  0  0  0  0  0  0  0
  1  2  1  0
  2  3  1  0
  4  2  1  6
  3  5  2  0
  4  6  1  0
  6  5  1  1
  4  7  1  0
  7  8  1  0
  6  9  1  0
  7 10  1  0
  9 11  1  1
  8 12  1  0
  9 13  1  0
 10 13  1  0
 12 14  2  3
 14 15  1  0
 14 16  1  0
 16 17  1  0
 16 18  1  0
 17 19  1  0
 18 20  1  0
 19 20  2  0
 19 21  1  0
 20 22  1  0
 21 23  2  0
 22 24  2  0
 23 24  1  0
M  END
