mac-x0226-mac-x0255
     RDKit          3D

 25 28  0  0  0  0  0  0  0  0999 V2000
   32.3750   45.0630   -6.9050 N   0  0  0  0  0  0  0  0  0  0  0  0
   33.0370   45.7860   -5.8940 C   0  0  0  0  0  0  0  0  0  0  0  0
   33.0870   47.0190   -5.9350 O   0  0  0  0  0  0  0  0  0  0  0  0
   32.7090   45.6270   -8.1920 O   0  0  0  0  0  0  0  0  0  0  0  0
   30.9150   44.9210   -6.8600 C   0  0  0  0  0  0  0  0  0  0  0  0
   33.6610   45.0390   -4.8220 C   0  0  0  0  0  0  0  0  0  0  0  0
   30.3570   45.2080   -5.4990 C   0  0  0  0  0  0  0  0  0  0  0  0
   33.4260   43.7020   -4.4470 C   0  0  0  0  0  0  0  0  0  0  0  0
   34.6240   45.4600   -3.9260 C   0  0  0  0  0  0  0  0  0  0  0  0
   30.0140   44.3030   -4.5120 C   0  0  0  0  0  0  0  0  0  0  0  0
   30.0640   46.8150   -4.9890 S   0  0  0  0  0  0  0  0  0  0  0  0
   34.1710   43.3120   -3.4110 N   0  0  0  0  0  0  0  0  0  0  0  0
   34.9140   44.4050   -3.0890 N   0  0  0  0  0  0  0  0  0  0  0  0
   29.5050   44.9230   -3.3240 C   0  0  0  0  0  0  0  0  0  0  0  0
   29.4790   46.3130   -3.4520 C   0  0  0  0  0  0  0  0  0  0  0  0
   35.8460   44.3680   -2.0110 C   0  0  0  0  0  0  0  0  0  0  0  0
   29.0520   44.3510   -2.1110 C   0  0  0  0  0  0  0  0  0  0  0  0
   29.0180   47.1380   -2.4090 C   0  0  0  0  0  0  0  0  0  0  0  0
   36.6360   45.4990   -1.7500 C   0  0  0  0  0  0  0  0  0  0  0  0
   35.9880   43.2290   -1.2080 C   0  0  0  0  0  0  0  0  0  0  0  0
   28.5940   45.1680   -1.0740 C   0  0  0  0  0  0  0  0  0  0  0  0
   28.5780   46.5470   -1.2220 C   0  0  0  0  0  0  0  0  0  0  0  0
   37.5580   45.4870   -0.7000 C   0  0  0  0  0  0  0  0  0  0  0  0
   36.9120   43.2270   -0.1590 C   0  0  0  0  0  0  0  0  0  0  0  0
   37.6950   44.3480    0.0950 C   0  0  0  0  0  0  0  0  0  0  0  0
  1  2  1  0
  2  3  2  0
  1  4  1  0
  1  5  1  0
  2  6  1  0
  5  7  1  0
  6  8  1  0
  6  9  2  0
  7 10  2  0
  7 11  1  0
  8 12  2  0
  9 13  1  0
 12 13  1  0
 10 14  1  0
 11 15  1  0
 14 15  2  0
 13 16  1  0
 14 17  1  0
 15 18  1  0
 16 19  2  0
 16 20  1  0
 17 21  2  0
 18 22  2  0
 21 22  1  0
 19 23  1  0
 20 24  2  0
 23 25  2  0
 24 25  1  0
M  END
