mac-x0387-mac-x0204
     RDKit          3D

 21 23  0  0  0  0  0  0  0  0999 V2000
   27.5900   51.1130   -8.2300 N   0  0  0  0  0  0  0  0  0  0  0  0
   28.2200   49.8920   -7.9630 C   0  0  0  0  0  0  0  0  0  0  0  0
   28.1600   49.0140   -8.9760 N   0  0  0  0  0  0  0  0  0  0  0  0
   28.8540   49.6330   -6.7260 C   0  0  0  0  0  0  0  0  0  0  0  0
   29.4680   48.3680   -6.5290 C   0  0  0  0  0  0  0  0  0  0  0  0
   28.7430   47.8190   -8.7780 C   0  0  0  0  0  0  0  0  0  0  0  0
   28.8930   50.5850   -5.6880 C   0  0  0  0  0  0  0  0  0  0  0  0
   29.3920   47.4580   -7.6070 C   0  0  0  0  0  0  0  0  0  0  0  0
   30.1190   48.0850   -5.2760 C   0  0  0  0  0  0  0  0  0  0  0  0
   29.5170   50.3180   -4.4770 C   0  0  0  0  0  0  0  0  0  0  0  0
   30.8130   46.7440   -4.9710 C   0  0  0  0  0  0  0  0  0  0  0  0
   30.1220   49.0850   -4.2740 C   0  0  0  0  0  0  0  0  0  0  0  0
   31.7640   46.4670   -5.9870 O   0  0  0  0  0  0  0  0  0  0  0  0
   29.8900   45.6630   -5.0610 O   0  0  0  0  0  0  0  0  0  0  0  0
   31.4420   46.6770   -3.5920 C   0  0  0  0  0  0  0  0  0  0  0  0
   30.6610   46.7160   -2.4230 C   0  0  0  0  0  0  0  0  0  0  0  0
   32.8240   46.5750   -3.4210 C   0  0  0  0  0  0  0  0  0  0  0  0
   31.2770   46.6550   -1.1770 C   0  0  0  0  0  0  0  0  0  0  0  0
   33.4470   46.5140   -2.2200 N   0  0  0  0  0  0  0  0  0  0  0  0
   30.5640   46.6890   -0.0170 O   0  0  0  0  0  0  0  0  0  0  0  0
   32.6570   46.5550   -1.1240 C   0  0  0  0  0  0  0  0  0  0  0  0
  1  2  1  0
  2  3  2  0
  2  4  1  0
  4  5  2  0
  3  6  1  0
  4  7  1  0
  5  8  1  0
  6  8  2  0
  5  9  1  0
  7 10  2  0
  9 11  1  0
  9 12  2  0
 10 12  1  0
 11 13  1  0
 11 14  1  0
 11 15  1  0
 15 16  2  0
 15 17  1  0
 16 18  1  0
 17 19  2  0
 18 20  1  0
 18 21  2  0
 19 21  1  0
M  END
