mac-x0161-mac-x0588
     RDKit          3D

 23 26  0  0  0  0  0  0  0  0999 V2000
   28.1130   52.4580   -5.6910 N   0  0  0  0  0  0  0  0  0  0  0  0
   28.7470   51.1700   -5.4860 C   0  0  2  0  0  0  0  0  0  0  0  0
   28.0470   50.0440   -6.2660 C   0  0  2  0  0  0  0  0  0  0  0  0
   28.6400   50.9260   -4.0720 N   0  0  0  0  0  0  0  0  0  0  0  0
   29.5210   49.8160   -3.7190 C   0  0  0  0  0  0  0  0  0  0  0  0
   28.3050   48.6750   -5.6190 C   0  0  2  0  0  0  0  0  0  0  0  0
   28.5420   49.9070   -7.6610 N   0  0  0  0  0  0  0  0  0  0  0  0
   29.1560   48.6130   -4.4500 N   0  0  0  0  0  0  0  0  0  0  0  0
   28.7310   47.8170   -6.7040 N   0  0  0  0  0  0  0  0  0  0  0  0
   28.4150   48.4810   -7.9350 C   0  0  0  0  0  0  0  0  0  0  0  0
   29.8080   47.3170   -4.1420 C   0  0  1  0  0  0  0  0  0  0  0  0
   31.3050   47.3100   -4.0620 C   0  0  0  0  0  0  0  0  0  0  0  0
   29.0330   46.3100   -3.2360 C   0  0  2  0  0  0  0  0  0  0  0  0
   32.2560   47.5290   -3.0850 C   0  0  0  0  0  0  0  0  0  0  0  0
   31.9370   47.0090   -5.2300 O   0  0  0  0  0  0  0  0  0  0  0  0
   28.7600   46.7760   -1.9160 O   0  0  0  0  0  0  0  0  0  0  0  0
   29.6060   44.9160   -3.0490 C   0  0  0  0  0  0  0  0  0  0  0  0
   33.3040   47.0230   -5.0470 N   0  0  0  0  0  0  0  0  0  0  0  0
   33.4760   47.3320   -3.7640 C   0  0  0  0  0  0  0  0  0  0  0  0
   28.6720   44.3890   -1.9810 C   0  0  0  0  0  0  0  0  0  0  0  0
   28.3260   45.6300   -1.1710 C   0  0  0  0  0  0  0  0  0  0  0  0
   34.7200   47.4270   -3.2450 O   0  0  0  0  0  0  0  0  0  0  0  0
   34.8090   48.1250   -2.0100 C   0  0  0  0  0  0  0  0  0  0  0  0
  2  1  1  1
  2  3  1  0
  2  4  1  0
  4  5  1  0
  3  6  1  0
  3  7  1  6
  5  8  1  0
  6  8  1  0
  6  9  1  6
  7 10  1  0
  9 10  1  0
  8 11  1  0
 11 12  1  1
 11 13  1  0
 12 14  2  0
 12 15  1  0
 13 16  1  0
 13 17  1  1
 15 18  1  0
 14 19  1  0
 18 19  2  0
 17 20  1  0
 16 21  1  0
 20 21  1  0
 19 22  1  0
 22 23  1  0
M  END
