mac-x0178-mac-x0397
     RDKit          3D

 26 28  0  0  0  0  0  0  0  0999 V2000
   28.4430   44.8780   -0.2100 N   0  0  0  0  0  0  0  0  0  0  0  0
   28.8400   46.4580   -0.5960 S   0  0  0  0  0  0  0  0  0  0  0  0
   29.7770   46.9050    0.4080 O   0  0  0  0  0  0  0  0  0  0  0  0
   27.6030   47.1510   -0.8590 O   0  0  0  0  0  0  0  0  0  0  0  0
   29.6950   46.2620   -2.1290 C   0  0  0  0  0  0  0  0  0  0  0  0
   29.3280   45.2660   -3.0360 C   0  0  0  0  0  0  0  0  0  0  0  0
   30.7360   47.1320   -2.4060 C   0  0  0  0  0  0  0  0  0  0  0  0
   30.0260   45.1510   -4.2430 C   0  0  0  0  0  0  0  0  0  0  0  0
   31.4310   47.0260   -3.6070 C   0  0  0  0  0  0  0  0  0  0  0  0
   31.0770   46.0310   -4.5290 C   0  0  0  0  0  0  0  0  0  0  0  0
   32.5250   47.9660   -3.9300 C   0  0  0  0  0  0  0  0  0  0  0  0
   31.7690   45.8540   -5.8390 C   0  0  0  0  0  0  0  0  0  0  0  0
   32.1710   48.6920   -5.2190 C   0  0  0  0  0  0  0  0  0  0  0  0
   31.2450   45.5260   -6.8870 O   0  0  0  0  0  0  0  0  0  0  0  0
   33.0880   46.1070   -5.7640 O   0  0  0  0  0  0  0  0  0  0  0  0
   31.1690   49.8220   -5.0840 C   0  0  0  0  0  0  0  0  0  0  0  0
   30.7930   50.3770   -3.8500 C   0  0  0  0  0  0  0  0  0  0  0  0
   30.6350   50.3250   -6.2650 C   0  0  0  0  0  0  0  0  0  0  0  0
   29.7570   51.4010   -6.2160 C   0  0  0  0  0  0  0  0  0  0  0  0
   29.9020   51.4570   -3.8270 C   0  0  0  0  0  0  0  0  0  0  0  0
   29.4180   52.1970   -2.3590 Cl  0  0  0  0  0  0  0  0  0  0  0  0
   29.3710   52.0030   -5.0190 C   0  0  0  0  0  0  0  0  0  0  0  0
   29.0110   52.1930   -7.5420 S   0  0  0  0  0  0  0  0  0  0  0  0
   28.2650   53.2780   -6.4580 C   0  0  0  0  0  0  0  0  0  0  0  0
   28.5090   53.0810   -5.1840 N   0  0  0  0  0  0  0  0  0  0  0  0
   27.4830   54.2660   -6.9140 N   0  0  0  0  0  0  0  0  0  0  0  0
  2  1  1  0
  2  3  2  0
  2  4  2  0
  2  5  1  0
  5  6  2  0
  5  7  1  0
  6  8  1  0
  7  9  2  0
  8 10  2  0
  9 10  1  0
  9 11  1  0
 10 12  1  0
 11 13  1  0
 12 14  2  0
 12 15  1  0
 13 16  1  0
 16 17  2  0
 16 18  1  0
 18 19  2  0
 17 20  1  0
 20 21  1  0
 19 22  1  0
 20 22  2  0
 19 23  1  0
 23 24  1  0
 22 25  1  0
 24 25  2  0
 24 26  1  0
M  END
