mac-x0188-mac-x0282
     RDKit          3D

 20 22  0  0  0  0  0  0  0  0999 V2000
   31.9160   44.3930   -3.1300 C   0  0  0  0  0  0  0  0  0  0  0  0
   31.5420   45.7880   -3.4260 C   0  0  0  0  0  0  0  0  0  0  0  0
   31.2000   46.5540   -2.3620 O   0  0  0  0  0  0  0  0  0  0  0  0
   31.4540   46.5340   -4.5850 C   0  0  0  0  0  0  0  0  0  0  0  0
   31.7520   46.0090   -5.8970 C   0  0  0  0  0  0  0  0  0  0  0  0
   30.8780   47.8200   -2.7900 N   0  0  0  0  0  0  0  0  0  0  0  0
   31.0260   47.8210   -4.1280 C   0  0  0  0  0  0  0  0  0  0  0  0
   31.1410   45.1090   -6.4550 O   0  0  0  0  0  0  0  0  0  0  0  0
   32.8010   46.5810   -6.5200 O   0  0  0  0  0  0  0  0  0  0  0  0
   30.7420   49.0950   -4.9140 C   0  0  2  0  0  0  0  0  0  0  0  0
   30.9540   50.3160   -4.0190 C   0  0  0  0  0  0  0  0  0  0  0  0
   29.3400   49.1210   -5.6730 C   0  0  2  0  0  0  0  0  0  0  0  0
   29.9460   51.0900   -3.5940 C   0  0  0  0  0  0  0  0  0  0  0  0
   28.2790   49.9160   -4.9090 C   0  0  0  0  0  0  0  0  0  0  0  0
   28.7980   47.7190   -5.9540 C   0  0  0  0  0  0  0  0  0  0  0  0
   29.5190   49.8600   -7.0510 C   0  0  0  0  0  0  0  0  0  0  0  0
   28.5820   50.8120   -3.9610 C   0  0  0  0  0  0  0  0  0  0  0  0
   28.2710   47.3730   -7.1400 C   0  0  0  0  0  0  0  0  0  0  0  0
   28.3550   49.7170   -7.9440 N   0  0  0  0  0  0  0  0  0  0  0  0
   28.1580   48.3110   -8.3030 C   0  0  0  0  0  0  0  0  0  0  0  0
  1  2  1  0
  2  3  1  0
  2  4  2  0
  4  5  1  0
  3  6  1  0
  4  7  1  0
  6  7  2  0
  5  8  2  0
  5  9  1  0
 10  7  1  1
 10 11  1  0
 10 12  1  0
 11 13  2  0
 12 14  1  1
 12 15  1  0
 12 16  1  0
 13 17  1  0
 14 17  2  0
 15 18  2  0
 16 19  1  0
 18 20  1  0
 19 20  1  0
M  END
