mac-x0587-mac-x0328
     RDKit          3D

 16 16  0  0  0  0  0  0  0  0999 V2000
   29.3910   45.6390   -3.6510 C   0  0  0  0  0  0  0  0  0  0  0  0
   30.4890   46.6040   -4.0930 C   0  0  2  0  0  0  0  0  0  0  0  0
   32.1600   45.9450   -3.6500 S   0  0  0  0  0  0  0  0  0  0  0  0
   30.2920   48.0120   -3.5080 C   0  0  0  0  0  0  0  0  0  0  0  0
   33.2480   46.6120   -4.9660 C   0  0  0  0  0  0  0  0  0  0  0  0
   30.5850   48.2220   -2.3310 O   0  0  0  0  0  0  0  0  0  0  0  0
   29.7870   49.0220   -4.3060 N   0  0  0  0  0  0  0  0  0  0  0  0
   33.2700   45.8400   -6.2630 C   0  0  0  0  0  0  0  0  0  0  0  0
   29.5530   50.3930   -3.8760 C   0  0  0  0  0  0  0  0  0  0  0  0
   29.4780   48.9250   -5.6760 C   0  0  0  0  0  0  0  0  0  0  0  0
   34.2840   45.6050   -6.9020 O   0  0  0  0  0  0  0  0  0  0  0  0
   32.0680   45.4120   -6.6930 O   0  0  0  0  0  0  0  0  0  0  0  0
   29.3690   47.9230   -6.3740 O   0  0  0  0  0  0  0  0  0  0  0  0
   28.8930   51.0660   -5.0690 C   0  0  2  0  0  0  0  0  0  0  0  0
   29.2930   50.2270   -6.1540 N   0  0  0  0  0  0  0  0  0  0  0  0
   29.3900   52.3920   -5.2370 O   0  0  0  0  0  0  0  0  0  0  0  0
  2  1  1  1
  2  3  1  0
  2  4  1  0
  3  5  1  0
  4  6  2  0
  4  7  1  0
  5  8  1  0
  7  9  1  0
  7 10  1  0
  8 11  2  0
  8 12  1  0
 10 13  2  0
  9 14  1  0
 10 15  1  0
 14 15  1  0
 14 16  1  6
M  END
