mac-x0178-mac-x0301
     RDKit          3D

 25 27  0  0  0  0  0  0  0  0999 V2000
   28.9030   44.9540    0.3650 N   0  0  0  0  0  0  0  0  0  0  0  0
   29.3170   46.5440   -0.0040 S   0  0  0  0  0  0  0  0  0  0  0  0
   30.1770   46.9770    1.0730 O   0  0  0  0  0  0  0  0  0  0  0  0
   28.1140   47.2490   -0.3680 O   0  0  0  0  0  0  0  0  0  0  0  0
   30.3080   46.3310   -1.4660 C   0  0  0  0  0  0  0  0  0  0  0  0
   29.7000   46.4580   -2.7220 C   0  0  0  0  0  0  0  0  0  0  0  0
   31.6650   46.0450   -1.3590 C   0  0  0  0  0  0  0  0  0  0  0  0
   30.4320   46.3000   -3.9210 C   0  0  0  0  0  0  0  0  0  0  0  0
   32.4140   45.8830   -2.5220 C   0  0  0  0  0  0  0  0  0  0  0  0
   29.7060   46.4570   -5.2620 C   0  0  0  0  0  0  0  0  0  0  0  0
   31.8200   46.0050   -3.7920 C   0  0  0  0  0  0  0  0  0  0  0  0
   32.7580   45.8020   -4.9240 C   0  0  0  0  0  0  0  0  0  0  0  0
   30.5160   45.9490   -6.3140 O   0  0  0  0  0  0  0  0  0  0  0  0
   28.5500   45.6420   -5.2860 O   0  0  0  0  0  0  0  0  0  0  0  0
   29.3370   47.8940   -5.6040 C   0  0  0  0  0  0  0  0  0  0  0  0
   32.8160   44.8370   -5.6650 O   0  0  0  0  0  0  0  0  0  0  0  0
   33.6010   46.8490   -5.0490 O   0  0  0  0  0  0  0  0  0  0  0  0
   28.9680   48.3130   -6.8800 C   0  0  0  0  0  0  0  0  0  0  0  0
   29.3510   48.9000   -4.6090 C   0  0  0  0  0  0  0  0  0  0  0  0
   28.6380   49.6230   -7.1540 C   0  0  0  0  0  0  0  0  0  0  0  0
   29.0140   50.2340   -4.8930 C   0  0  0  0  0  0  0  0  0  0  0  0
   28.8770   47.5360   -7.9960 O   0  0  0  0  0  0  0  0  0  0  0  0
   28.6510   50.6060   -6.1880 C   0  0  0  0  0  0  0  0  0  0  0  0
   28.3090   49.8240   -8.4590 O   0  0  0  0  0  0  0  0  0  0  0  0
   28.5350   48.5090   -8.9980 C   0  0  0  0  0  0  0  0  0  0  0  0
  2  1  1  0
  2  3  2  0
  2  4  2  0
  2  5  1  0
  5  6  2  0
  5  7  1  0
  6  8  1  0
  7  9  2  0
  8 10  1  0
  8 11  2  0
  9 11  1  0
 11 12  1  0
 10 13  1  0
 10 14  1  0
 10 15  1  0
 12 16  2  0
 12 17  1  0
 15 18  1  0
 15 19  2  0
 18 20  2  0
 19 21  1  0
 18 22  1  0
 20 23  1  0
 21 23  2  0
 20 24  1  0
 22 25  1  0
 24 25  1  0
M  END
