mac-x0139-mac-x0346
     RDKit          3D

 21 22  0  0  0  0  0  0  0  0999 V2000
   30.5100   47.3630   -4.1900 C   0  0  0  0  0  0  0  0  0  0  0  0
   29.8870   46.7790   -5.3860 N   0  0  0  0  0  0  0  0  0  0  0  0
   30.3480   45.4060   -5.7050 C   0  0  0  0  0  0  0  0  0  0  0  0
   29.4710   47.6470   -6.4170 C   0  0  0  0  0  0  0  0  0  0  0  0
   31.8610   45.2870   -5.5520 C   0  0  0  0  0  0  0  0  0  0  0  0
   29.4020   49.0030   -6.2410 C   0  0  0  0  0  0  0  0  0  0  0  0
   29.1260   47.0450   -7.6400 N   0  0  0  0  0  0  0  0  0  0  0  0
   32.4940   45.0050   -6.8840 C   0  0  0  0  0  0  0  0  0  0  0  0
   28.9500   49.8120   -7.4130 C   0  0  0  0  0  0  0  0  0  0  0  0
   28.7350   47.7920   -8.6200 C   0  0  0  0  0  0  0  0  0  0  0  0
   29.6320   50.0270   -5.2380 C   0  0  0  0  0  0  0  0  0  0  0  0
   31.8750   44.6710   -7.8810 O   0  0  0  0  0  0  0  0  0  0  0  0
   33.8370   45.1530   -6.8860 O   0  0  0  0  0  0  0  0  0  0  0  0
   30.0560   49.8220   -3.9440 O   0  0  0  0  0  0  0  0  0  0  0  0
   28.6260   49.1480   -8.5640 N   0  0  0  0  0  0  0  0  0  0  0  0
   28.9340   51.1170   -7.1540 N   0  0  0  0  0  0  0  0  0  0  0  0
   29.3600   51.2170   -5.8030 C   0  0  0  0  0  0  0  0  0  0  0  0
   29.5400   52.4890   -4.9430 C   0  0  0  0  0  0  0  0  0  0  0  0
   29.7410   53.7030   -5.5270 N   0  0  0  0  0  0  0  0  0  0  0  0
   29.5220   52.4040   -3.7000 O   0  0  0  0  0  0  0  0  0  0  0  0
   29.1560   54.9150   -5.1240 O   0  0  0  0  0  0  0  0  0  0  0  0
  1  2  1  0
  2  3  1  0
  2  4  1  0
  3  5  1  0
  4  6  2  0
  4  7  1  0
  5  8  1  0
  6  9  1  0
  7 10  2  0
  6 11  1  0
  8 12  2  0
  8 13  1  0
 11 14  1  0
  9 15  1  0
 10 15  1  0
  9 16  2  0
 11 17  2  0
 16 17  1  0
 17 18  1  0
 18 19  1  0
 18 20  2  0
 19 21  1  0
M  END
