mac-x0396-mac-x0346
     RDKit          3D

 19 21  0  0  0  0  0  0  0  0999 V2000
   30.3060   50.5830   -8.2820 N   0  0  0  0  0  0  0  0  0  0  0  0
   31.2900   51.5770   -7.8600 C   0  0  0  0  0  0  0  0  0  0  0  0
   30.8240   52.3180   -6.6520 C   0  0  0  0  0  0  0  0  0  0  0  0
   31.2870   51.9560   -5.3810 C   0  0  0  0  0  0  0  0  0  0  0  0
   29.9180   53.3790   -6.7630 C   0  0  0  0  0  0  0  0  0  0  0  0
   30.9080   52.5490   -4.2370 N   0  0  0  0  0  0  0  0  0  0  0  0
   29.5320   53.9790   -5.5990 C   0  0  0  0  0  0  0  0  0  0  0  0
   30.0310   53.5300   -4.4010 C   0  0  0  0  0  0  0  0  0  0  0  0
   28.6580   55.0220   -5.4600 O   0  0  0  0  0  0  0  0  0  0  0  0
   29.4200   54.2420   -3.4300 N   0  0  0  0  0  0  0  0  0  0  0  0
   28.9900   55.4410   -4.1150 C   0  0  0  0  0  0  0  0  0  0  0  0
   28.4720   53.4670   -2.8670 C   0  0  0  0  0  0  0  0  0  0  0  0
   27.9450   53.6480   -1.7730 O   0  0  0  0  0  0  0  0  0  0  0  0
   28.1240   52.3010   -3.7340 C   0  0  0  0  0  0  0  0  0  0  0  0
   28.5720   51.0190   -3.3870 C   0  0  0  0  0  0  0  0  0  0  0  0
   27.3700   52.4840   -4.9040 C   0  0  0  0  0  0  0  0  0  0  0  0
   28.2640   49.9280   -4.2100 C   0  0  0  0  0  0  0  0  0  0  0  0
   27.0680   51.3890   -5.7210 C   0  0  0  0  0  0  0  0  0  0  0  0
   27.5170   50.1150   -5.3730 C   0  0  0  0  0  0  0  0  0  0  0  0
  1  2  1  0
  2  3  1  0
  3  4  2  0
  3  5  1  0
  4  6  1  0
  5  7  2  0
  6  8  2  0
  7  8  1  0
  7  9  1  0
  8 10  1  0
  9 11  1  0
 10 11  1  0
 10 12  1  0
 12 13  2  0
 12 14  1  0
 14 15  2  0
 14 16  1  0
 15 17  1  0
 16 18  2  0
 17 19  2  0
 18 19  1  0
M  END
