mac-x0223-mac-x0437
     RDKit          3D

 23 25  0  0  0  0  0  0  0  0999 V2000
   27.8110   43.5660   -2.2770 C   0  0  0  0  0  0  0  0  0  0  0  0
   27.8390   44.9640   -2.0430 O   0  0  0  0  0  0  0  0  0  0  0  0
   28.9950   45.6480   -2.3340 C   0  0  0  0  0  0  0  0  0  0  0  0
   29.0740   46.9320   -1.7800 C   0  0  0  0  0  0  0  0  0  0  0  0
   30.0720   45.1810   -3.1190 C   0  0  0  0  0  0  0  0  0  0  0  0
   28.0420   47.4040   -1.0170 O   0  0  0  0  0  0  0  0  0  0  0  0
   30.1840   47.7300   -1.9990 C   0  0  0  0  0  0  0  0  0  0  0  0
   31.2280   45.9860   -3.3590 C   0  0  0  0  0  0  0  0  0  0  0  0
   32.4500   45.5040   -4.2360 C   0  0  2  0  0  0  0  0  0  0  0  0
   31.2420   47.2650   -2.7750 C   0  0  0  0  0  0  0  0  0  0  0  0
   32.3020   46.0170   -5.7000 C   0  0  0  0  0  0  0  0  0  0  0  0
   32.4060   43.9570   -4.2690 C   0  0  0  0  0  0  0  0  0  0  0  0
   33.7770   46.0060   -3.7280 N   0  0  0  0  0  0  0  0  0  0  0  0
   33.1300   46.6780   -6.3070 O   0  0  0  0  0  0  0  0  0  0  0  0
   31.1510   45.6950   -6.3350 O   0  0  0  0  0  0  0  0  0  0  0  0
   33.9840   47.4360   -3.7270 C   0  0  0  0  0  0  0  0  0  0  0  0
   34.6310   45.4600   -2.6420 C   0  0  2  0  0  0  0  0  0  0  0  0
   35.4270   47.5420   -3.5910 N   0  0  0  0  0  0  0  0  0  0  0  0
   35.6780   46.6250   -2.4700 C   0  0  2  0  0  0  0  0  0  0  0  0
   35.3010   44.1090   -2.7850 C   0  0  0  0  0  0  0  0  0  0  0  0
   37.1370   46.2620   -2.4450 C   0  0  0  0  0  0  0  0  0  0  0  0
   36.6380   43.9200   -2.7440 C   0  0  0  0  0  0  0  0  0  0  0  0
   37.5640   45.0040   -2.5690 C   0  0  0  0  0  0  0  0  0  0  0  0
  1  2  1  0
  2  3  1  0
  3  4  2  0
  3  5  1  0
  4  6  1  0
  4  7  1  0
  5  8  2  0
  8  9  1  0
  7 10  2  0
  8 10  1  0
  9 11  1  0
  9 12  1  6
  9 13  1  0
 11 14  2  0
 11 15  1  0
 13 16  1  0
 13 17  1  0
 16 18  1  0
 17 19  1  0
 18 19  1  0
 17 20  1  6
 19 21  1  6
 20 22  2  0
 21 23  2  0
 22 23  1  0
M  END
