mac-x0398-mac-x0341
     RDKit          3D

 15 16  0  0  0  0  0  0  0  0999 V2000
   28.0490   53.8500   -6.9340 N   0  0  0  0  0  0  0  0  0  0  0  0
   28.6570   53.0580   -6.0080 C   0  0  0  0  0  0  0  0  0  0  0  0
   28.8750   51.6170   -6.1500 C   0  0  0  0  0  0  0  0  0  0  0  0
   29.1550   53.3920   -4.8010 C   0  0  0  0  0  0  0  0  0  0  0  0
   29.7370   52.2210   -4.1860 C   0  0  0  0  0  0  0  0  0  0  0  0
   28.4880   50.7650   -7.1190 C   0  0  0  0  0  0  0  0  0  0  0  0
   29.6190   51.1550   -4.9870 C   0  0  0  0  0  0  0  0  0  0  0  0
   30.3420   52.2700   -2.9680 O   0  0  0  0  0  0  0  0  0  0  0  0
   30.0890   49.7330   -4.8790 C   0  0  2  0  0  0  0  0  0  0  0  0
   28.7860   49.3510   -7.0200 C   0  0  0  0  0  0  0  0  0  0  0  0
   29.8190   49.0840   -3.4960 C   0  0  0  0  0  0  0  0  0  0  0  0
   31.5940   49.7270   -5.1170 C   0  0  0  0  0  0  0  0  0  0  0  0
   29.5090   48.8660   -5.9980 C   0  0  0  0  0  0  0  0  0  0  0  0
   29.9070   49.6600   -2.4160 O   0  0  0  0  0  0  0  0  0  0  0  0
   29.4770   47.7720   -3.5440 O   0  0  0  0  0  0  0  0  0  0  0  0
  1  2  1  0
  2  3  1  0
  2  4  2  0
  4  5  1  0
  3  6  2  0
  3  7  1  0
  5  7  2  0
  5  8  1  0
  7  9  1  0
  6 10  1  0
  9 11  1  0
  9 12  1  6
  9 13  1  0
 10 13  2  0
 11 14  2  0
 11 15  1  0
M  END
