mac-x0224-mac-x0132
     RDKit          3D

 21 23  0  0  0  0  0  0  0  0999 V2000
   27.9920   49.6270   -6.6860 S   0  0  0  0  0  0  0  0  0  0  0  0
   29.1550   48.8020   -5.5990 C   0  0  0  0  0  0  0  0  0  0  0  0
   29.8200   49.4470   -4.5330 C   0  0  0  0  0  0  0  0  0  0  0  0
   29.3920   47.4380   -5.8530 C   0  0  0  0  0  0  0  0  0  0  0  0
   30.2840   46.6980   -5.0610 C   0  0  0  0  0  0  0  0  0  0  0  0
   30.7120   48.6940   -3.7470 C   0  0  0  0  0  0  0  0  0  0  0  0
   29.6290   50.8630   -4.2030 C   0  0  0  0  0  0  0  0  0  0  0  0
   30.4700   45.2660   -5.4090 C   0  0  0  0  0  0  0  0  0  0  0  0
   30.9390   47.3400   -4.0070 C   0  0  0  0  0  0  0  0  0  0  0  0
   29.4670   51.2790   -2.8770 C   0  0  0  0  0  0  0  0  0  0  0  0
   29.6050   51.8350   -5.2100 C   0  0  0  0  0  0  0  0  0  0  0  0
   31.8300   46.7190   -3.1710 O   0  0  0  0  0  0  0  0  0  0  0  0
   30.7440   44.8220   -6.5110 O   0  0  0  0  0  0  0  0  0  0  0  0
   30.3040   44.4410   -4.3530 O   0  0  0  0  0  0  0  0  0  0  0  0
   29.4200   53.1970   -4.8900 C   0  0  0  0  0  0  0  0  0  0  0  0
   29.2850   52.6360   -2.5740 C   0  0  0  0  0  0  0  0  0  0  0  0
   29.3840   54.2090   -5.8380 C   0  0  0  0  0  0  0  0  0  0  0  0
   29.2570   53.6120   -3.5640 C   0  0  0  0  0  0  0  0  0  0  0  0
   29.0790   54.8990   -3.2310 N   0  0  0  0  0  0  0  0  0  0  0  0
   29.2060   55.5120   -5.5440 N   0  0  0  0  0  0  0  0  0  0  0  0
   29.0630   55.7850   -4.2390 C   0  0  0  0  0  0  0  0  0  0  0  0
  1  2  1  0
  2  3  2  0
  2  4  1  0
  4  5  2  0
  3  6  1  0
  3  7  1  0
  5  8  1  0
  5  9  1  0
  6  9  2  0
  7 10  2  0
  7 11  1  0
  9 12  1  0
  8 13  2  0
  8 14  1  0
 11 15  2  0
 10 16  1  0
 15 17  1  0
 15 18  1  0
 16 18  2  0
 18 19  1  0
 17 20  2  0
 19 21  2  0
 20 21  1  0
M  END
