mac-x0436-mac-x0568
     RDKit          3D

 28 30  0  0  0  0  0  0  0  0999 V2000
   33.5970   45.3680   -6.9590 O   0  0  0  0  0  0  0  0  0  0  0  0
   32.4560   44.9830   -6.3470 C   0  0  0  0  0  0  0  0  0  0  0  0
   31.3780   45.1230   -6.8950 O   0  0  0  0  0  0  0  0  0  0  0  0
   32.7030   44.3950   -4.9840 C   0  0  0  0  0  0  0  0  0  0  0  0
   32.5000   45.4070   -3.8700 C   0  0  0  0  0  0  0  0  0  0  0  0
   33.8230   46.0230   -3.4610 C   0  0  0  0  0  0  0  0  0  0  0  0
   33.9740   47.5660   -3.3720 C   0  0  0  0  0  0  0  0  0  0  0  0
   34.8360   45.2440   -3.2010 N   0  0  0  0  0  0  0  0  0  0  0  0
   32.9450   48.2880   -3.0460 N   0  0  0  0  0  0  0  0  0  0  0  0
   35.2420   48.0160   -3.6480 N   0  0  0  0  0  0  0  0  0  0  0  0
   36.0590   45.8640   -2.8590 C   0  0  0  0  0  0  0  0  0  0  0  0
   31.6220   47.7290   -2.7350 C   0  0  0  0  0  0  0  0  0  0  0  0
   36.2780   47.2450   -3.0790 C   0  0  0  0  0  0  0  0  0  0  0  0
   37.0720   45.0890   -2.2950 C   0  0  0  0  0  0  0  0  0  0  0  0
   30.5720   48.0140   -3.8130 C   0  0  0  0  0  0  0  0  0  0  0  0
   38.2970   45.6730   -1.9500 C   0  0  0  0  0  0  0  0  0  0  0  0
   37.5060   47.8220   -2.7310 C   0  0  0  0  0  0  0  0  0  0  0  0
   30.3950   49.4250   -4.0420 N   0  0  0  0  0  0  0  0  0  0  0  0
   38.5130   47.0330   -2.1660 C   0  0  0  0  0  0  0  0  0  0  0  0
   29.7970   50.0850   -4.9720 C   0  0  0  0  0  0  0  0  0  0  0  0
   29.2340   49.2390   -5.9100 N   0  0  0  0  0  0  0  0  0  0  0  0
   29.6450   51.5640   -5.1730 C   0  0  0  0  0  0  0  0  0  0  0  0
   29.9670   52.4150   -4.1140 C   0  0  0  0  0  0  0  0  0  0  0  0
   29.2080   52.1910   -6.3330 C   0  0  0  0  0  0  0  0  0  0  0  0
   29.8840   53.7730   -4.1410 N   0  0  0  0  0  0  0  0  0  0  0  0
   29.1100   53.5850   -6.3980 C   0  0  0  0  0  0  0  0  0  0  0  0
   29.4560   54.3430   -5.2870 C   0  0  0  0  0  0  0  0  0  0  0  0
   29.3630   55.8390   -5.3250 C   0  0  0  0  0  0  0  0  0  0  0  0
  1  2  1  0
  2  3  2  0
  2  4  1  0
  4  5  1  0
  5  6  1  0
  6  7  1  0
  6  8  2  0
  7  9  2  3
  7 10  1  0
  8 11  1  0
  9 12  1  0
 10 13  1  0
 11 13  2  0
 11 14  1  0
 12 15  1  0
 14 16  2  0
 13 17  1  0
 15 18  1  0
 16 19  1  0
 17 19  2  0
 18 20  2  3
 20 21  1  0
 20 22  1  0
 22 23  2  0
 22 24  1  0
 23 25  1  0
 24 26  2  0
 25 27  2  0
 26 27  1  0
 27 28  1  0
M  END
