mac-x0159-mac-x0161
     RDKit          3D

 23 26  0  0  0  0  0  0  0  0999 V2000
   28.3280   51.7090   -6.1170 N   0  0  0  0  0  0  0  0  0  0  0  0
   29.3180   50.6610   -5.9410 C   0  0  2  0  0  0  0  0  0  0  0  0
   28.8540   49.3050   -6.4910 C   0  0  2  0  0  0  0  0  0  0  0  0
   29.5430   50.6130   -4.5170 N   0  0  0  0  0  0  0  0  0  0  0  0
   30.3620   49.4790   -4.0380 C   0  0  0  0  0  0  0  0  0  0  0  0
   29.9020   48.3050   -6.0460 C   0  0  1  0  0  0  0  0  0  0  0  0
   28.8800   49.1330   -7.9520 N   0  0  0  0  0  0  0  0  0  0  0  0
   29.9310   48.1820   -4.5980 N   0  0  0  0  0  0  0  0  0  0  0  0
   29.3910   47.1440   -6.7690 N   0  0  0  0  0  0  0  0  0  0  0  0
   29.1070   47.6940   -8.1040 C   0  0  0  0  0  0  0  0  0  0  0  0
   30.7060   47.0200   -4.0190 C   0  0  2  0  0  0  0  0  0  0  0  0
   29.7740   46.0510   -3.2720 C   0  0  0  0  0  0  0  0  0  0  0  0
   31.8880   47.4370   -3.1320 C   0  0  0  0  0  0  0  0  0  0  0  0
   31.3940   46.2790   -5.0890 O   0  0  0  0  0  0  0  0  0  0  0  0
   29.2680   44.8430   -3.7320 C   0  0  0  0  0  0  0  0  0  0  0  0
   29.3540   46.3620   -1.9720 N   0  0  0  0  0  0  0  0  0  0  0  0
   32.8580   46.3590   -4.9180 N   0  0  0  0  0  0  0  0  0  0  0  0
   33.0450   47.5390   -4.0930 C   0  0  2  0  0  0  0  0  0  0  0  0
   34.3040   47.4810   -3.4360 O   0  0  0  0  0  0  0  0  0  0  0  0
   28.5680   45.4230   -1.4940 C   0  0  0  0  0  0  0  0  0  0  0  0
   28.2720   44.1050   -2.5490 S   0  0  0  0  0  0  0  0  0  0  0  0
   27.9510   45.4500   -0.1400 C   0  0  0  0  0  0  0  0  0  0  0  0
   34.5200   48.5650   -2.5430 C   0  0  0  0  0  0  0  0  0  0  0  0
  2  1  1  1
  2  3  1  0
  2  4  1  0
  4  5  1  0
  3  6  1  0
  3  7  1  6
  5  8  1  0
  6  8  1  0
  6  9  1  6
  7 10  1  0
  9 10  1  0
  8 11  1  0
 11 12  1  1
 11 13  1  0
 11 14  1  0
 12 15  2  0
 12 16  1  0
 14 17  1  0
 13 18  1  0
 17 18  1  0
 18 19  1  1
 16 20  2  0
 15 21  1  0
 20 21  1  0
 20 22  1  0
 19 23  1  0
M  END
