mac-x0361-mac-x0510
     RDKit          3D

 14 15  0  0  0  0  0  0  0  0999 V2000
   28.8300   53.3600   -6.1930 N   0  0  0  0  0  0  0  0  0  0  0  0
   29.5590   53.3360   -5.0340 C   0  0  0  0  0  0  0  0  0  0  0  0
   29.6070   54.3440   -4.3380 O   0  0  0  0  0  0  0  0  0  0  0  0
   30.2890   52.0160   -4.6950 C   0  0  2  0  0  0  0  0  0  0  0  0
   30.2610   50.9500   -5.8230 C   0  0  0  0  0  0  0  0  0  0  0  0
   29.9240   51.5340   -3.3220 C   0  0  0  0  0  0  0  0  0  0  0  0
   29.4280   49.6540   -5.6040 C   0  0  2  0  0  0  0  0  0  0  0  0
   29.4990   50.3000   -3.0560 C   0  0  0  0  0  0  0  0  0  0  0  0
   29.3180   49.2230   -4.0850 C   0  0  2  0  0  0  0  0  0  0  0  0
   30.0390   48.5170   -6.3730 N   0  0  0  0  0  0  0  0  0  0  0  0
   28.0700   49.7780   -6.3150 C   0  0  0  0  0  0  0  0  0  0  0  0
   30.3020   48.2160   -3.7960 O   0  0  0  0  0  0  0  0  0  0  0  0
   28.3500   49.3510   -7.6910 N   0  0  0  0  0  0  0  0  0  0  0  0
   29.1910   48.2000   -7.5100 C   0  0  0  0  0  0  0  0  0  0  0  0
  1  2  1  0
  2  3  2  0
  4  2  1  6
  4  5  1  0
  4  6  1  0
  7  5  1  1
  6  8  2  0
  7  9  1  0
  8  9  1  0
  7 10  1  0
  7 11  1  0
  9 12  1  1
 11 13  1  0
 10 14  1  0
 13 14  1  0
M  END
