mac-x0441-mac-x0567
     RDKit          3D

 29 32  0  0  0  0  0  0  0  0999 V2000
   34.2730   45.1870   -6.2660 O   0  0  0  0  0  0  0  0  0  0  0  0
   33.0120   45.3170   -5.8050 C   0  0  0  0  0  0  0  0  0  0  0  0
   32.0170   45.5010   -6.6140 N   0  0  0  0  0  0  0  0  0  0  0  0
   32.8310   45.2400   -4.3080 C   0  0  0  0  0  0  0  0  0  0  0  0
   30.6660   45.6440   -6.0270 C   0  0  0  0  0  0  0  0  0  0  0  0
   34.0790   44.9890   -3.5940 N   0  0  0  0  0  0  0  0  0  0  0  0
   29.6070   45.9930   -7.1040 C   0  0  0  0  0  0  0  0  0  0  0  0
   34.2950   43.7520   -3.0710 N   0  0  0  0  0  0  0  0  0  0  0  0
   35.1120   45.8410   -3.3560 C   0  0  0  0  0  0  0  0  0  0  0  0
   29.9590   47.2240   -7.8310 N   0  0  0  0  0  0  0  0  0  0  0  0
   35.5110   43.8300   -2.4790 C   0  0  0  0  0  0  0  0  0  0  0  0
   36.0570   45.1320   -2.6410 C   0  0  0  0  0  0  0  0  0  0  0  0
   35.2350   47.2630   -3.7680 C   0  0  0  0  0  0  0  0  0  0  0  0
   36.1620   42.6730   -1.7570 C   0  0  0  0  0  0  0  0  0  0  0  0
   37.3490   45.7150   -2.1820 C   0  0  0  0  0  0  0  0  0  0  0  0
   36.3150   47.9420   -2.9080 C   0  0  0  0  0  0  0  0  0  0  0  0
   29.4900   48.4590   -7.4930 C   0  0  0  0  0  0  0  0  0  0  0  0
   37.2410   42.1900   -2.4320 F   0  0  0  0  0  0  0  0  0  0  0  0
   36.5970   43.0000   -0.5110 F   0  0  0  0  0  0  0  0  0  0  0  0
   35.3040   41.6260   -1.6020 F   0  0  0  0  0  0  0  0  0  0  0  0
   37.6020   47.0960   -2.8210 C   0  0  0  0  0  0  0  0  0  0  0  0
   28.8520   49.3130   -8.3630 N   0  0  0  0  0  0  0  0  0  0  0  0
   29.5070   49.1550   -6.3090 C   0  0  0  0  0  0  0  0  0  0  0  0
   28.4640   50.4920   -7.8270 N   0  0  0  0  0  0  0  0  0  0  0  0
   28.8590   50.4250   -6.5450 C   0  0  0  0  0  0  0  0  0  0  0  0
   30.0500   48.7140   -5.1050 C   0  0  0  0  0  0  0  0  0  0  0  0
   28.7270   51.3630   -5.5060 C   0  0  0  0  0  0  0  0  0  0  0  0
   29.9030   49.6710   -4.0830 C   0  0  0  0  0  0  0  0  0  0  0  0
   29.2700   50.9400   -4.2720 C   0  0  0  0  0  0  0  0  0  0  0  0
  1  2  1  0
  2  3  2  3
  2  4  1  0
  3  5  1  0
  4  6  1  0
  5  7  1  0
  6  8  1  0
  6  9  1  0
  7 10  1  0
  8 11  2  0
  9 12  2  0
 11 12  1  0
  9 13  1  0
 11 14  1  0
 12 15  1  0
 13 16  1  0
 10 17  1  0
 14 18  1  0
 14 19  1  0
 14 20  1  0
 15 21  1  0
 16 21  1  0
 17 22  1  0
 17 23  2  0
 22 24  1  0
 23 25  1  0
 24 25  2  0
 23 26  1  0
 25 27  1  0
 26 28  2  0
 27 29  2  0
 28 29  1  0
M  END
