mac-x0223-mac-x0277
     RDKit          3D

 14 14  0  0  0  0  0  0  0  0999 V2000
   27.4870   43.6170   -2.1560 C   0  0  0  0  0  0  0  0  0  0  0  0
   27.5490   45.0350   -2.0780 O   0  0  0  0  0  0  0  0  0  0  0  0
   28.7580   45.6060   -2.3720 C   0  0  0  0  0  0  0  0  0  0  0  0
   29.0090   46.8180   -1.7230 C   0  0  0  0  0  0  0  0  0  0  0  0
   29.7220   45.0840   -3.2390 C   0  0  0  0  0  0  0  0  0  0  0  0
   28.0600   47.3290   -0.8730 O   0  0  0  0  0  0  0  0  0  0  0  0
   30.1990   47.4980   -1.9290 C   0  0  0  0  0  0  0  0  0  0  0  0
   30.9320   45.7660   -3.4600 C   0  0  0  0  0  0  0  0  0  0  0  0
   31.9690   45.1920   -4.3970 C   0  0  0  0  0  0  0  0  0  0  0  0
   30.5080   48.9800   -1.1240 Cl  0  0  0  0  0  0  0  0  0  0  0  0
   31.1630   46.9790   -2.7960 C   0  0  0  0  0  0  0  0  0  0  0  0
   32.2310   46.0520   -5.6060 C   0  0  0  0  0  0  0  0  0  0  0  0
   33.2190   46.7420   -5.8000 O   0  0  0  0  0  0  0  0  0  0  0  0
   31.2410   46.0040   -6.5200 O   0  0  0  0  0  0  0  0  0  0  0  0
  1  2  1  0
  2  3  1  0
  3  4  2  0
  3  5  1  0
  4  6  1  0
  4  7  1  0
  5  8  2  0
  8  9  1  0
  7 10  1  0
  7 11  2  0
  8 11  1  0
  9 12  1  0
 12 13  2  0
 12 14  1  0
M  END
