mac-x0193-mac-x0223
     RDKit          3D

 23 24  0  0  0  0  0  0  0  0999 V2000
   34.0580   45.5050   -5.9880 O   0  0  0  0  0  0  0  0  0  0  0  0
   32.9050   45.1430   -5.3740 C   0  0  0  0  0  0  0  0  0  0  0  0
   31.9870   44.6930   -6.0500 O   0  0  0  0  0  0  0  0  0  0  0  0
   32.9230   45.3910   -3.8400 C   0  0  2  0  0  0  0  0  0  0  0  0
   33.4570   44.2760   -3.0160 N   0  0  0  0  0  0  0  0  0  0  0  0
   31.5740   45.8850   -3.2120 C   0  0  0  0  0  0  0  0  0  0  0  0
   34.6450   43.5730   -3.1820 C   0  0  0  0  0  0  0  0  0  0  0  0
   31.5050   47.2050   -2.7200 C   0  0  0  0  0  0  0  0  0  0  0  0
   30.3900   45.0800   -3.0880 C   0  0  0  0  0  0  0  0  0  0  0  0
   34.7060   42.5860   -3.8880 O   0  0  0  0  0  0  0  0  0  0  0  0
   35.7320   44.0330   -2.4530 N   0  0  0  0  0  0  0  0  0  0  0  0
   29.2130   45.6050   -2.4870 C   0  0  0  0  0  0  0  0  0  0  0  0
   30.3470   47.7160   -2.1300 C   0  0  0  0  0  0  0  0  0  0  0  0
   28.0010   44.9770   -2.2880 O   0  0  0  0  0  0  0  0  0  0  0  0
   36.6620   43.0870   -1.8040 C   0  0  0  0  0  0  0  0  0  0  0  0
   29.2230   46.9210   -2.0160 C   0  0  0  0  0  0  0  0  0  0  0  0
   27.9840   43.5560   -2.2270 C   0  0  0  0  0  0  0  0  0  0  0  0
   28.1100   47.4610   -1.4260 O   0  0  0  0  0  0  0  0  0  0  0  0
   37.7760   42.6360   -2.7690 C   0  0  0  0  0  0  0  0  0  0  0  0
   37.2490   43.6540   -0.4970 C   0  0  0  0  0  0  0  0  0  0  0  0
   38.7240   41.6360   -2.1100 C   0  0  0  0  0  0  0  0  0  0  0  0
   38.1920   42.6620    0.1810 C   0  0  0  0  0  0  0  0  0  0  0  0
   39.2740   42.1470   -0.7770 C   0  0  0  0  0  0  0  0  0  0  0  0
  1  2  1  0
  2  3  2  0
  2  4  1  0
  4  5  1  1
  4  6  1  0
  5  7  1  0
  6  8  2  0
  6  9  1  0
  7 10  2  0
  7 11  1  0
  9 12  2  0
  8 13  1  0
 12 14  1  0
 11 15  1  0
 12 16  1  0
 13 16  2  0
 14 17  1  0
 16 18  1  0
 15 19  1  0
 15 20  1  0
 19 21  1  0
 20 22  1  0
 21 23  1  0
 22 23  1  0
M  END
