mac-x0360-mac-x0306
     RDKit          3D

 23 25  0  0  0  0  0  0  0  0999 V2000
   32.8030   55.2050   -7.3150 Cl  0  0  0  0  0  0  0  0  0  0  0  0
   32.6800   53.5650   -6.8030 C   0  0  0  0  0  0  0  0  0  0  0  0
   33.7310   52.9850   -6.0960 C   0  0  0  0  0  0  0  0  0  0  0  0
   31.5330   52.8320   -7.1010 C   0  0  0  0  0  0  0  0  0  0  0  0
   31.4450   51.5020   -6.6830 C   0  0  0  0  0  0  0  0  0  0  0  0
   33.6310   51.6550   -5.6840 C   0  0  0  0  0  0  0  0  0  0  0  0
   34.9320   50.9430   -4.8120 Cl  0  0  0  0  0  0  0  0  0  0  0  0
   30.0010   50.5600   -7.0520 S   0  0  1  0  0  0  0  0  0  0  0  0
   32.4930   50.9040   -5.9710 C   0  0  0  0  0  0  0  0  0  0  0  0
   30.1680   48.9990   -6.4560 N   0  0  0  0  0  0  0  0  0  0  0  0
   28.8570   51.0750   -6.1710 N   0  0  0  0  0  0  0  0  0  0  0  0
   29.9570   50.3120   -8.4690 O   0  0  0  0  0  0  0  0  0  0  0  0
   29.1080   51.1070   -4.7120 C   0  0  0  0  0  0  0  0  0  0  0  0
   29.3090   49.9050   -4.0270 C   0  0  0  0  0  0  0  0  0  0  0  0
   29.1570   52.3010   -3.9700 C   0  0  0  0  0  0  0  0  0  0  0  0
   28.9660   53.6450   -4.5360 C   0  0  0  0  0  0  0  0  0  0  0  0
   29.4070   52.2080   -2.5940 C   0  0  0  0  0  0  0  0  0  0  0  0
   29.5490   49.8060   -2.6980 N   0  0  0  0  0  0  0  0  0  0  0  0
   28.2090   53.9180   -5.6600 N   0  0  0  0  0  0  0  0  0  0  0  0
   29.4770   54.7700   -4.0630 N   0  0  0  0  0  0  0  0  0  0  0  0
   29.5930   50.9620   -2.0120 C   0  0  0  0  0  0  0  0  0  0  0  0
   29.0450   55.7690   -4.8970 C   0  0  0  0  0  0  0  0  0  0  0  0
   28.2550   55.2610   -5.8970 C   0  0  0  0  0  0  0  0  0  0  0  0
  1  2  1  0
  2  3  2  0
  2  4  1  0
  4  5  2  0
  3  6  1  0
  6  7  1  0
  5  8  1  0
  5  9  1  0
  6  9  2  0
  8 10  1  1
  8 11  2  0
  8 12  2  0
 11 13  1  0
 13 14  2  0
 13 15  1  0
 15 16  1  0
 15 17  2  0
 14 18  1  0
 16 19  1  0
 16 20  2  0
 17 21  1  0
 18 21  2  0
 20 22  1  0
 19 23  1  0
 22 23  2  0
M  END
