mac-x0116-mac-x0263
     RDKit          3D

 30 34  0  0  0  0  0  0  0  0999 V2000
   30.4010   53.2950   -5.1030 C   0  0  0  0  0  0  0  0  0  0  0  0
   31.2170   53.6910   -6.2590 C   0  0  0  0  0  0  0  0  0  0  0  0
   32.5560   53.6730   -6.0690 O   0  0  0  0  0  0  0  0  0  0  0  0
   30.9100   54.0880   -7.5230 C   0  0  0  0  0  0  0  0  0  0  0  0
   32.1560   54.3410   -8.1680 C   0  0  0  0  0  0  0  0  0  0  0  0
   33.1230   54.0680   -7.2300 C   0  0  0  0  0  0  0  0  0  0  0  0
   29.5460   54.2170   -8.0560 C   0  0  0  0  0  0  0  0  0  0  0  0
   28.6560   54.3220   -6.9130 N   0  0  0  0  0  0  0  0  0  0  0  0
   28.0510   55.5170   -6.5130 C   0  0  0  0  0  0  0  0  0  0  0  0
   28.2520   53.3050   -5.9900 C   0  0  0  0  0  0  0  0  0  0  0  0
   28.1380   56.8990   -7.0840 C   0  0  0  0  0  0  0  0  0  0  0  0
   27.3160   55.3340   -5.4730 N   0  0  0  0  0  0  0  0  0  0  0  0
   27.4090   54.0430   -5.1410 C   0  0  0  0  0  0  0  0  0  0  0  0
   28.3950   51.8990   -5.6180 C   0  0  0  0  0  0  0  0  0  0  0  0
   27.5890   57.8670   -6.0250 C   0  0  0  0  0  0  0  0  0  0  0  0
   29.1040   50.6860   -5.9690 C   0  0  0  0  0  0  0  0  0  0  0  0
   26.7400   53.4880   -4.0550 C   0  0  0  0  0  0  0  0  0  0  0  0
   27.6880   51.4200   -4.5280 C   0  0  0  0  0  0  0  0  0  0  0  0
   27.0810   59.1780   -6.5560 C   0  0  0  0  0  0  0  0  0  0  0  0
   29.9610   50.4930   -4.9060 N   0  0  0  0  0  0  0  0  0  0  0  0
   29.0910   49.7740   -6.9510 C   0  0  0  0  0  0  0  0  0  0  0  0
   26.8810   52.1690   -3.7610 C   0  0  0  0  0  0  0  0  0  0  0  0
   28.0680   60.0840   -6.6960 O   0  0  0  0  0  0  0  0  0  0  0  0
   25.9260   59.4690   -6.8320 O   0  0  0  0  0  0  0  0  0  0  0  0
   30.7060   49.3870   -4.7600 C   0  0  0  0  0  0  0  0  0  0  0  0
   29.9820   48.6120   -6.7120 C   0  0  0  0  0  0  0  0  0  0  0  0
   28.4560   49.5470   -8.1330 N   0  0  0  0  0  0  0  0  0  0  0  0
   30.7630   48.4360   -5.6090 N   0  0  0  0  0  0  0  0  0  0  0  0
   29.8710   47.7720   -7.6840 N   0  0  0  0  0  0  0  0  0  0  0  0
   28.9450   48.3890   -8.5060 C   0  0  0  0  0  0  0  0  0  0  0  0
  1  2  1  0
  2  3  1  0
  2  4  2  0
  4  5  1  0
  3  6  1  0
  5  6  2  0
  4  7  1  0
  7  8  1  0
  8  9  1  0
  8 10  1  0
  9 11  1  0
  9 12  2  0
 10 13  2  0
 12 13  1  0
 10 14  1  0
 11 15  1  0
 14 16  1  0
 13 17  1  0
 14 18  2  0
 15 19  1  0
 16 20  1  0
 16 21  2  0
 17 22  2  0
 18 22  1  0
 19 23  1  0
 19 24  2  0
 20 25  1  0
 21 26  1  0
 21 27  1  0
 25 28  2  0
 26 28  1  0
 26 29  2  0
 27 30  2  0
 29 30  1  0
M  END
