mac-x0137-mac-x0131
     RDKit          3D

 25 28  0  0  0  0  0  0  0  0999 V2000
   32.3380   51.0590   -2.5340 F   0  0  0  0  0  0  0  0  0  0  0  0
   31.9540   49.9180   -3.1730 C   0  0  2  0  0  0  0  0  0  0  0  0
   32.9330   49.6300   -4.3050 C   0  0  0  0  0  0  0  0  0  0  0  0
   30.4860   50.0330   -3.6900 C   0  0  0  0  0  0  0  0  0  0  0  0
   29.5340   49.8490   -2.4910 C   0  0  0  0  0  0  0  0  0  0  0  0
   30.2600   51.4530   -4.2610 C   0  0  0  0  0  0  0  0  0  0  0  0
   30.1820   48.9430   -4.7030 N   0  0  0  0  0  0  0  0  0  0  0  0
   32.5680   48.3350   -5.0380 C   0  0  0  0  0  0  0  0  0  0  0  0
   31.1670   47.8140   -4.6680 C   0  0  2  0  0  0  0  0  0  0  0  0
   29.5520   49.2610   -5.9270 C   0  0  0  0  0  0  0  0  0  0  0  0
   30.7920   46.5790   -5.5120 C   0  0  0  0  0  0  0  0  0  0  0  0
   30.2550   49.0780   -7.1250 N   0  0  0  0  0  0  0  0  0  0  0  0
   28.2860   49.7340   -5.9140 C   0  0  0  0  0  0  0  0  0  0  0  0
   29.6470   49.3780   -8.2390 C   0  0  0  0  0  0  0  0  0  0  0  0
   27.6280   50.0630   -7.2000 C   0  0  0  0  0  0  0  0  0  0  0  0
   27.2970   50.0430   -4.9350 C   0  0  0  0  0  0  0  0  0  0  0  0
   31.7870   45.4670   -5.4230 C   0  0  0  0  0  0  0  0  0  0  0  0
   28.3640   49.8580   -8.3380 N   0  0  0  0  0  0  0  0  0  0  0  0
   26.4100   50.5170   -7.0170 N   0  0  0  0  0  0  0  0  0  0  0  0
   26.2410   50.4900   -5.6380 C   0  0  0  0  0  0  0  0  0  0  0  0
   32.1760   44.4560   -6.2730 C   0  0  0  0  0  0  0  0  0  0  0  0
   32.4990   45.3900   -4.2580 O   0  0  0  0  0  0  0  0  0  0  0  0
   27.8890   50.3590   -9.5660 N   0  0  0  0  0  0  0  0  0  0  0  0
   33.3380   44.3320   -4.3690 C   0  0  0  0  0  0  0  0  0  0  0  0
   33.1800   43.7220   -5.5910 C   0  0  0  0  0  0  0  0  0  0  0  0
  2  1  1  6
  2  3  1  0
  2  4  1  0
  4  5  1  0
  4  6  1  0
  4  7  1  0
  3  8  1  0
  7  9  1  0
  8  9  1  0
  7 10  1  0
  9 11  1  6
 10 12  1  0
 10 13  2  0
 12 14  2  0
 13 15  1  0
 13 16  1  0
 11 17  1  0
 14 18  1  0
 15 18  1  0
 15 19  2  0
 16 20  2  0
 19 20  1  0
 17 21  2  0
 17 22  1  0
 18 23  1  0
 22 24  1  0
 21 25  1  0
 24 25  2  0
M  END
