mac-x0411-mac-x0137
     RDKit          3D

 28 31  0  0  0  0  0  0  0  0999 V2000
   36.4220   44.3940   -2.7950 Cl  0  0  0  0  0  0  0  0  0  0  0  0
   35.9160   46.0260   -3.0450 C   0  0  0  0  0  0  0  0  0  0  0  0
   34.6590   46.3570   -3.5970 C   0  0  0  0  0  0  0  0  0  0  0  0
   36.8100   47.0280   -2.6750 C   0  0  0  0  0  0  0  0  0  0  0  0
   33.7680   45.3680   -3.9640 O   0  0  0  0  0  0  0  0  0  0  0  0
   34.2950   47.7220   -3.7810 C   0  0  0  0  0  0  0  0  0  0  0  0
   36.4660   48.3620   -2.8510 C   0  0  0  0  0  0  0  0  0  0  0  0
   33.5420   45.2990   -5.3790 C   0  0  0  0  0  0  0  0  0  0  0  0
   35.2290   48.7000   -3.3940 C   0  0  0  0  0  0  0  0  0  0  0  0
   32.9550   48.1870   -4.3730 C   0  0  2  0  0  0  0  0  0  0  0  0
   33.4870   43.8630   -5.8790 C   0  0  0  0  0  0  0  0  0  0  0  0
   31.6650   47.7020   -3.6670 C   0  0  1  0  0  0  0  0  0  0  0  0
   32.8650   48.0490   -5.9060 C   0  0  0  0  0  0  0  0  0  0  0  0
   32.2580   43.3180   -5.7350 O   0  0  0  0  0  0  0  0  0  0  0  0
   34.3920   43.2090   -6.3750 O   0  0  0  0  0  0  0  0  0  0  0  0
   31.6920   48.0140   -2.3330 F   0  0  0  0  0  0  0  0  0  0  0  0
   30.3920   48.3320   -4.2580 C   0  0  0  0  0  0  0  0  0  0  0  0
   31.4900   47.6190   -6.4070 C   0  0  0  0  0  0  0  0  0  0  0  0
   30.4060   48.3610   -5.7410 N   0  0  0  0  0  0  0  0  0  0  0  0
   29.3330   48.8550   -6.4960 C   0  0  0  0  0  0  0  0  0  0  0  0
   28.7750   48.0990   -7.5140 N   0  0  0  0  0  0  0  0  0  0  0  0
   28.7710   50.0620   -6.3100 C   0  0  0  0  0  0  0  0  0  0  0  0
   27.7330   48.5560   -8.2770 C   0  0  0  0  0  0  0  0  0  0  0  0
   27.6400   50.4940   -7.1690 C   0  0  0  0  0  0  0  0  0  0  0  0
   28.9590   51.1710   -5.4350 C   0  0  0  0  0  0  0  0  0  0  0  0
   27.1410   49.7000   -8.1610 N   0  0  0  0  0  0  0  0  0  0  0  0
   27.2080   51.6850   -6.8590 N   0  0  0  0  0  0  0  0  0  0  0  0
   28.0270   52.0690   -5.8030 C   0  0  0  0  0  0  0  0  0  0  0  0
  1  2  1  0
  2  3  2  0
  2  4  1  0
  3  5  1  0
  3  6  1  0
  4  7  2  0
  5  8  1  0
  6  9  2  0
  7  9  1  0
 10  6  1  1
  8 11  1  0
 10 12  1  0
 10 13  1  0
 11 14  1  0
 11 15  2  0
 12 16  1  1
 12 17  1  0
 13 18  1  0
 17 19  1  0
 18 19  1  0
 19 20  1  0
 20 21  1  0
 20 22  2  0
 21 23  1  0
 22 24  1  0
 22 25  1  0
 23 26  2  0
 24 26  1  0
 24 27  2  0
 25 28  2  0
 27 28  1  0
M  END
