mac-x0568-mac-x0357
     RDKit          3D

 22 23  0  0  0  0  0  0  0  0999 V2000
   29.6360   55.7070   -5.4390 C   0  0  0  0  0  0  0  0  0  0  0  0
   29.4980   54.2120   -5.3880 C   0  0  0  0  0  0  0  0  0  0  0  0
   29.0960   53.5090   -6.5210 C   0  0  0  0  0  0  0  0  0  0  0  0
   29.7770   53.6020   -4.2140 N   0  0  0  0  0  0  0  0  0  0  0  0
   29.6540   52.2480   -4.1680 C   0  0  0  0  0  0  0  0  0  0  0  0
   28.9760   52.1170   -6.4480 C   0  0  0  0  0  0  0  0  0  0  0  0
   29.2600   51.4690   -5.2480 C   0  0  0  0  0  0  0  0  0  0  0  0
   29.1660   49.9970   -5.0640 C   0  0  0  0  0  0  0  0  0  0  0  0
   28.4090   49.5340   -4.2160 O   0  0  0  0  0  0  0  0  0  0  0  0
   29.9510   49.2210   -5.8800 N   0  0  0  0  0  0  0  0  0  0  0  0
   29.8990   47.7900   -5.8390 C   0  0  0  0  0  0  0  0  0  0  0  0
   30.9840   47.3820   -4.9620 N   0  0  0  0  0  0  0  0  0  0  0  0
   31.7650   46.4810   -5.4450 C   0  0  0  0  0  0  0  0  0  0  0  0
   31.6160   45.9360   -6.6690 O   0  0  0  0  0  0  0  0  0  0  0  0
   32.9210   45.9350   -4.7110 C   0  0  0  0  0  0  0  0  0  0  0  0
   33.0330   44.5550   -4.4320 C   0  0  0  0  0  0  0  0  0  0  0  0
   33.9080   46.8460   -4.3020 C   0  0  0  0  0  0  0  0  0  0  0  0
   31.9750   43.5860   -4.8730 C   0  0  0  0  0  0  0  0  0  0  0  0
   35.0280   46.3980   -3.6060 C   0  0  0  0  0  0  0  0  0  0  0  0
   34.1720   44.1370   -3.7280 C   0  0  0  0  0  0  0  0  0  0  0  0
   34.4010   42.8290   -3.3950 O   0  0  0  0  0  0  0  0  0  0  0  0
   35.1560   45.0390   -3.3220 C   0  0  0  0  0  0  0  0  0  0  0  0
  1  2  1  0
  2  3  2  0
  2  4  1  0
  4  5  2  0
  3  6  1  0
  5  7  1  0
  6  7  2  0
  7  8  1  0
  8  9  2  0
  8 10  1  0
 10 11  1  0
 11 12  1  0
 12 13  2  3
 13 14  1  0
 13 15  1  0
 15 16  2  0
 15 17  1  0
 16 18  1  0
 17 19  2  0
 16 20  1  0
 20 21  1  0
 19 22  1  0
 20 22  2  0
M  END
