mac-x0206-mac-x0132
     RDKit          3D

 14 15  0  0  0  0  0  0  0  0999 V2000
   30.1850   49.9150   -6.5520 N   0  0  0  0  0  0  0  0  0  0  0  0
   30.3940   50.6860   -5.4450 C   0  0  0  0  0  0  0  0  0  0  0  0
   31.3970   50.4700   -4.7660 O   0  0  0  0  0  0  0  0  0  0  0  0
   29.3400   51.7780   -5.0950 C   0  0  1  0  0  0  0  0  0  0  0  0
   29.8590   52.7980   -3.9770 C   0  0  1  0  0  0  0  0  0  0  0  0
   28.9210   52.5120   -6.3700 C   0  0  0  0  0  0  0  0  0  0  0  0
   28.1890   50.9070   -4.6090 C   0  0  0  0  0  0  0  0  0  0  0  0
   31.2740   53.0270   -4.0710 O   0  0  0  0  0  0  0  0  0  0  0  0
   29.2560   54.1850   -4.0950 C   0  0  0  0  0  0  0  0  0  0  0  0
   28.6310   53.8220   -6.4080 C   0  0  0  0  0  0  0  0  0  0  0  0
   29.6720   52.2410   -2.5810 C   0  0  0  0  0  0  0  0  0  0  0  0
   27.9640   50.6800   -3.3110 C   0  0  0  0  0  0  0  0  0  0  0  0
   28.6950   54.6410   -5.2290 C   0  0  0  0  0  0  0  0  0  0  0  0
   28.8000   51.2620   -2.2940 C   0  0  0  0  0  0  0  0  0  0  0  0
  1  2  1  0
  2  3  2  0
  4  2  1  6
  4  5  1  0
  4  6  1  0
  4  7  1  0
  5  8  1  6
  5  9  1  0
  6 10  2  0
  5 11  1  0
  7 12  2  0
  9 13  2  0
 10 13  1  0
 11 14  2  0
 12 14  1  0
M  END
