mac-x0321-mac-x0398
     RDKit          3D

 12 12  0  0  0  0  0  0  0  0999 V2000
   28.7680   51.8770   -7.4620 Cl  0  0  0  0  0  0  0  0  0  0  0  0
   29.2100   51.3480   -5.8720 C   0  0  0  0  0  0  0  0  0  0  0  0
   29.6330   50.0250   -5.7050 C   0  0  0  0  0  0  0  0  0  0  0  0
   29.1420   52.2330   -4.7850 C   0  0  0  0  0  0  0  0  0  0  0  0
   28.7220   53.5680   -4.9260 N   0  0  0  0  0  0  0  0  0  0  0  0
   29.9980   49.5600   -4.4330 C   0  0  0  0  0  0  0  0  0  0  0  0
   29.5090   51.7600   -3.5190 C   0  0  0  0  0  0  0  0  0  0  0  0
   30.4380   48.1440   -4.3310 C   0  0  0  0  0  0  0  0  0  0  0  0
   29.9320   50.4380   -3.3440 C   0  0  0  0  0  0  0  0  0  0  0  0
   29.6450   47.2870   -5.0090 O   0  0  0  0  0  0  0  0  0  0  0  0
   31.4070   47.7370   -3.7180 O   0  0  0  0  0  0  0  0  0  0  0  0
   30.2660   50.0890   -2.0610 O   0  0  0  0  0  0  0  0  0  0  0  0
  1  2  1  0
  2  3  2  0
  2  4  1  0
  4  5  1  0
  3  6  1  0
  4  7  2  0
  6  8  1  0
  6  9  2  0
  7  9  1  0
  8 10  1  0
  8 11  2  0
  9 12  1  0
M  END
