mac-x0213-mac-x0116
     RDKit          3D

 29 33  0  0  0  0  0  0  0  0999 V2000
   31.6460   45.5040   -5.4090 O   0  0  0  0  0  0  0  0  0  0  0  0
   30.3700   45.9100   -5.2570 C   0  0  0  0  0  0  0  0  0  0  0  0
   29.7570   46.5960   -6.1480 N   0  0  0  0  0  0  0  0  0  0  0  0
   29.7230   45.4920   -3.9490 C   0  0  0  0  0  0  0  0  0  0  0  0
   30.4550   46.9640   -7.3830 C   0  0  0  0  0  0  0  0  0  0  0  0
   30.1030   46.4010   -2.7640 C   0  0  0  0  0  0  0  0  0  0  0  0
   30.1500   44.0660   -3.5520 C   0  0  0  0  0  0  0  0  0  0  0  0
   29.9990   45.4480   -1.6140 C   0  0  0  0  0  0  0  0  0  0  0  0
   30.0260   44.1240   -2.0590 C   0  0  0  0  0  0  0  0  0  0  0  0
   30.2560   48.3500   -7.7870 N   0  0  0  0  0  0  0  0  0  0  0  0
   29.8880   45.7480   -0.2670 C   0  0  0  0  0  0  0  0  0  0  0  0
   29.9420   43.0700   -1.1650 C   0  0  0  0  0  0  0  0  0  0  0  0
   29.7200   49.3430   -7.0050 C   0  0  0  0  0  0  0  0  0  0  0  0
   30.5650   48.9030   -9.0030 C   0  0  0  0  0  0  0  0  0  0  0  0
   29.8030   44.6920    0.6420 C   0  0  0  0  0  0  0  0  0  0  0  0
   29.8290   43.3620    0.1960 C   0  0  0  0  0  0  0  0  0  0  0  0
   29.2760   49.2540   -5.7400 N   0  0  0  0  0  0  0  0  0  0  0  0
   29.7350   50.4720   -7.8100 C   0  0  0  0  0  0  0  0  0  0  0  0
   30.2640   50.1850   -9.0550 N   0  0  0  0  0  0  0  0  0  0  0  0
   28.8180   50.4460   -5.3050 C   0  0  0  0  0  0  0  0  0  0  0  0
   29.2320   51.6680   -7.2500 C   0  0  0  0  0  0  0  0  0  0  0  0
   29.2070   52.8590   -7.9820 N   0  0  0  0  0  0  0  0  0  0  0  0
   28.7700   51.6200   -5.9700 N   0  0  0  0  0  0  0  0  0  0  0  0
   29.5360   54.0750   -7.2470 C   0  0  0  0  0  0  0  0  0  0  0  0
   30.8880   54.6580   -7.5070 C   0  0  0  0  0  0  0  0  0  0  0  0
   31.6980   54.8150   -6.4160 O   0  0  0  0  0  0  0  0  0  0  0  0
   31.5450   55.0970   -8.6390 C   0  0  0  0  0  0  0  0  0  0  0  0
   32.8200   55.5420   -8.2160 C   0  0  0  0  0  0  0  0  0  0  0  0
   32.8630   55.3500   -6.8570 C   0  0  0  0  0  0  0  0  0  0  0  0
  1  2  1  0
  2  3  2  3
  2  4  1  0
  3  5  1  0
  4  6  1  0
  4  7  1  0
  6  8  1  0
  7  9  1  0
  8  9  2  0
  5 10  1  0
  8 11  1  0
  9 12  1  0
 10 13  1  0
 10 14  1  0
 11 15  2  0
 12 16  2  0
 15 16  1  0
 13 17  2  0
 13 18  1  0
 14 19  2  0
 18 19  1  0
 17 20  1  0
 18 21  2  0
 21 22  1  0
 20 23  2  0
 21 23  1  0
 22 24  1  0
 24 25  1  0
 25 26  1  0
 25 27  2  0
 27 28  1  0
 26 29  1  0
 28 29  2  0
M  END
