mac-x0338-mac-x0255
     RDKit          3D

 24 26  0  0  0  0  0  0  0  0999 V2000
   28.5580   51.7150   -7.5440 N   0  0  0  0  0  0  0  0  0  0  0  0
   28.8100   52.6100   -6.5380 C   0  0  0  0  0  0  0  0  0  0  0  0
   28.6350   53.8130   -6.6830 O   0  0  0  0  0  0  0  0  0  0  0  0
   29.3080   52.0210   -5.2620 C   0  0  0  0  0  0  0  0  0  0  0  0
   29.4230   50.6620   -5.2010 N   0  0  0  0  0  0  0  0  0  0  0  0
   29.6310   52.8500   -4.2000 C   0  0  0  0  0  0  0  0  0  0  0  0
   29.8810   50.1730   -4.0160 C   0  0  0  0  0  0  0  0  0  0  0  0
   30.0880   52.3620   -3.0190 N   0  0  0  0  0  0  0  0  0  0  0  0
   30.0310   48.6830   -3.8870 C   0  0  0  0  0  0  0  0  0  0  0  0
   30.2040   51.0140   -2.9550 C   0  0  0  0  0  0  0  0  0  0  0  0
   29.6770   48.1720   -2.4840 C   0  0  0  0  0  0  0  0  0  0  0  0
   29.3450   46.6940   -2.4750 C   0  0  0  0  0  0  0  0  0  0  0  0
   30.0230   45.7390   -3.2730 C   0  0  0  0  0  0  0  0  0  0  0  0
   28.3140   46.2290   -1.6360 C   0  0  0  0  0  0  0  0  0  0  0  0
   29.6920   44.3800   -3.2440 C   0  0  0  0  0  0  0  0  0  0  0  0
   31.3170   46.0210   -4.3830 S   0  0  0  0  0  0  0  0  0  0  0  0
   27.9700   44.8830   -1.5910 C   0  0  0  0  0  0  0  0  0  0  0  0
   31.4380   44.3810   -4.8210 C   0  0  0  0  0  0  0  0  0  0  0  0
   30.5140   43.6170   -4.1380 C   0  0  0  0  0  0  0  0  0  0  0  0
   28.6480   43.9610   -2.3850 C   0  0  0  0  0  0  0  0  0  0  0  0
   32.4540   43.9340   -5.8260 C   0  0  0  0  0  0  0  0  0  0  0  0
   32.7280   45.0020   -6.8630 C   0  0  0  0  0  0  0  0  0  0  0  0
   31.7540   45.0490   -7.8010 O   0  0  0  0  0  0  0  0  0  0  0  0
   33.6720   45.7700   -6.9390 O   0  0  0  0  0  0  0  0  0  0  0  0
  1  2  1  0
  2  3  2  0
  2  4  1  0
  4  5  2  0
  4  6  1  0
  5  7  1  0
  6  8  2  0
  7  9  1  0
  7 10  2  0
  8 10  1  0
  9 11  1  0
 11 12  1  0
 12 13  1  0
 12 14  2  0
 13 15  2  0
 13 16  1  0
 14 17  1  0
 16 18  1  0
 15 19  1  0
 18 19  2  0
 15 20  1  0
 17 20  2  0
 18 21  1  0
 21 22  1  0
 22 23  1  0
 22 24  2  0
M  END
