mac-x0392-mac-x0361
     RDKit          3D

 19 20  0  0  0  0  0  0  0  0999 V2000
   30.3550   46.7410   -7.7800 N   0  0  0  0  0  0  0  0  0  0  0  0
   29.4310   47.7320   -7.4070 C   0  0  0  0  0  0  0  0  0  0  0  0
   28.5940   48.3160   -8.3580 C   0  0  0  0  0  0  0  0  0  0  0  0
   29.2740   48.2060   -6.0990 C   0  0  0  0  0  0  0  0  0  0  0  0
   30.0720   47.7100   -4.9700 C   0  0  0  0  0  0  0  0  0  0  0  0
   28.3320   49.1980   -5.8010 C   0  0  0  0  0  0  0  0  0  0  0  0
   27.6700   49.2800   -8.1080 N   0  0  0  0  0  0  0  0  0  0  0  0
   30.6260   48.3660   -4.0120 N   0  0  0  0  0  0  0  0  0  0  0  0
   30.2040   46.3740   -5.0020 O   0  0  0  0  0  0  0  0  0  0  0  0
   27.5630   49.6970   -6.8330 C   0  0  0  0  0  0  0  0  0  0  0  0
   30.4560   49.7540   -4.0330 C   0  0  0  0  0  0  0  0  0  0  0  0
   30.7950   50.5080   -5.1600 C   0  0  0  0  0  0  0  0  0  0  0  0
   29.9300   50.4070   -2.9150 C   0  0  0  0  0  0  0  0  0  0  0  0
   30.6110   51.8910   -5.1760 C   0  0  0  0  0  0  0  0  0  0  0  0
   29.7420   51.7950   -2.9210 C   0  0  0  0  0  0  0  0  0  0  0  0
   30.0820   52.5400   -4.0580 C   0  0  0  0  0  0  0  0  0  0  0  0
   29.9020   54.0140   -4.1300 C   0  0  0  0  0  0  0  0  0  0  0  0
   29.2860   54.5230   -5.2440 N   0  0  0  0  0  0  0  0  0  0  0  0
   30.2850   54.7560   -3.2340 O   0  0  0  0  0  0  0  0  0  0  0  0
  1  2  1  0
  2  3  2  0
  2  4  1  0
  4  5  1  0
  4  6  2  0
  3  7  1  0
  5  8  2  3
  5  9  1  0
  6 10  1  0
  7 10  2  0
  8 11  1  0
 11 12  2  0
 11 13  1  0
 12 14  1  0
 13 15  2  0
 14 16  2  0
 15 16  1  0
 16 17  1  0
 17 18  1  0
 17 19  2  0
M  END
