mac-x0360-mac-x0354
     RDKit          3D

 30 32  0  0  0  0  0  0  0  0999 V2000
   32.0070   55.2300   -6.9970 Cl  0  0  0  0  0  0  0  0  0  0  0  0
   32.1660   53.6190   -6.4040 C   0  0  0  0  0  0  0  0  0  0  0  0
   33.4290   53.1250   -6.0980 C   0  0  0  0  0  0  0  0  0  0  0  0
   31.0290   52.8310   -6.2360 C   0  0  0  0  0  0  0  0  0  0  0  0
   31.1720   51.5230   -5.7510 C   0  0  0  0  0  0  0  0  0  0  0  0
   33.5600   51.8210   -5.6160 C   0  0  0  0  0  0  0  0  0  0  0  0
   35.1260   51.2200   -5.2400 Cl  0  0  0  0  0  0  0  0  0  0  0  0
   29.7180   50.5160   -5.5360 S   0  0  0  0  0  0  0  0  0  0  0  0
   32.4360   51.0110   -5.4390 C   0  0  0  0  0  0  0  0  0  0  0  0
   30.3200   49.0940   -4.8570 N   0  0  0  0  0  0  0  0  0  0  0  0
   28.8720   51.1670   -4.5600 O   0  0  0  0  0  0  0  0  0  0  0  0
   29.2250   50.2000   -6.8570 O   0  0  0  0  0  0  0  0  0  0  0  0
   30.8370   48.0280   -5.7350 C   0  0  0  0  0  0  0  0  0  0  0  0
   30.2170   46.6680   -5.3720 C   0  0  0  0  0  0  0  0  0  0  0  0
   31.1240   45.4400   -5.5270 C   0  0  0  0  0  0  0  0  0  0  0  0
   32.3410   45.7830   -6.2340 N   0  0  0  0  0  0  0  0  0  0  0  0
   33.5300   45.4400   -5.9210 C   0  0  0  0  0  0  0  0  0  0  0  0
   34.6190   45.8100   -6.6180 O   0  0  0  0  0  0  0  0  0  0  0  0
   33.8160   44.6100   -4.7640 C   0  0  0  0  0  0  0  0  0  0  0  0
   33.2010   43.3870   -4.4030 C   0  0  0  0  0  0  0  0  0  0  0  0
   34.7560   44.8260   -3.7580 C   0  0  0  0  0  0  0  0  0  0  0  0
   34.6340   43.7520   -2.9040 N   0  0  0  0  0  0  0  0  0  0  0  0
   33.6940   42.8640   -3.2770 N   0  0  0  0  0  0  0  0  0  0  0  0
   35.7110   45.9120   -3.5530 C   0  0  0  0  0  0  0  0  0  0  0  0
   35.3960   43.5110   -1.6980 C   0  0  0  0  0  0  0  0  0  0  0  0
   37.0870   45.6510   -3.5150 C   0  0  0  0  0  0  0  0  0  0  0  0
   35.2570   47.2260   -3.3930 C   0  0  0  0  0  0  0  0  0  0  0  0
   37.9950   46.6940   -3.3220 C   0  0  0  0  0  0  0  0  0  0  0  0
   36.1660   48.2670   -3.2000 C   0  0  0  0  0  0  0  0  0  0  0  0
   37.5330   48.0000   -3.1640 C   0  0  0  0  0  0  0  0  0  0  0  0
  1  2  1  0
  2  3  2  0
  2  4  1  0
  4  5  2  0
  3  6  1  0
  6  7  1  0
  5  8  1  0
  5  9  1  0
  6  9  2  0
  8 10  1  0
  8 11  2  0
  8 12  2  0
 10 13  1  0
 13 14  1  0
 14 15  1  0
 15 16  1  0
 16 17  2  3
 17 18  1  0
 17 19  1  0
 19 20  1  0
 19 21  2  0
 21 22  1  0
 20 23  2  0
 22 23  1  0
 21 24  1  0
 22 25  1  0
 24 26  2  0
 24 27  1  0
 26 28  1  0
 27 29  2  0
 28 30  2  0
 29 30  1  0
M  END
