mac-x0394-mac-x0123
     RDKit          3D

 24 27  0  0  0  0  0  0  0  0999 V2000
   23.4950   49.6570   -4.6330 Cl  0  0  0  0  0  0  0  0  0  0  0  0
   24.4800   51.0660   -4.5320 C   0  0  0  0  0  0  0  0  0  0  0  0
   24.2010   52.0250   -3.5630 C   0  0  0  0  0  0  0  0  0  0  0  0
   25.5510   51.2310   -5.4220 C   0  0  0  0  0  0  0  0  0  0  0  0
   26.3630   52.3790   -5.3490 C   0  0  0  0  0  0  0  0  0  0  0  0
   24.9980   53.1620   -3.4840 C   0  0  0  0  0  0  0  0  0  0  0  0
   24.6670   54.3580   -2.2930 Cl  0  0  0  0  0  0  0  0  0  0  0  0
   27.5500   52.6490   -6.2780 C   0  0  2  0  0  0  0  0  0  0  0  0
   26.0660   53.3410   -4.3640 C   0  0  0  0  0  0  0  0  0  0  0  0
   27.7540   51.6590   -7.4430 C   0  0  0  0  0  0  0  0  0  0  0  0
   28.8350   52.9410   -5.5040 C   0  0  0  0  0  0  0  0  0  0  0  0
   28.3100   52.2280   -8.5460 O   0  0  0  0  0  0  0  0  0  0  0  0
   27.4570   50.4710   -7.4370 O   0  0  0  0  0  0  0  0  0  0  0  0
   29.4900   51.8780   -4.8380 N   0  0  0  0  0  0  0  0  0  0  0  0
   29.4050   54.1560   -5.3960 C   0  0  0  0  0  0  0  0  0  0  0  0
   30.6770   52.0750   -4.0950 C   0  0  0  0  0  0  0  0  0  0  0  0
   30.6620   54.2620   -4.5920 C   0  0  0  0  0  0  0  0  0  0  0  0
   29.0860   55.5220   -5.9040 C   0  0  0  0  0  0  0  0  0  0  0  0
   29.1450   50.5640   -4.7720 N   0  0  0  0  0  0  0  0  0  0  0  0
   31.2710   53.3010   -3.9770 N   0  0  0  0  0  0  0  0  0  0  0  0
   31.1500   55.6770   -4.5840 C   0  0  0  0  0  0  0  0  0  0  0  0
   30.4260   56.2540   -5.8000 C   0  0  0  0  0  0  0  0  0  0  0  0
   31.0610   50.9240   -3.5850 N   0  0  0  0  0  0  0  0  0  0  0  0
   30.1140   50.0510   -4.0150 C   0  0  0  0  0  0  0  0  0  0  0  0
  1  2  1  0
  2  3  2  0
  2  4  1  0
  4  5  2  0
  3  6  1  0
  6  7  1  0
  5  8  1  0
  5  9  1  0
  6  9  2  0
  8 10  1  6
  8 11  1  0
 10 12  1  0
 10 13  2  0
 11 14  1  0
 11 15  2  0
 14 16  1  0
 15 17  1  0
 15 18  1  0
 14 19  1  0
 16 20  1  0
 17 20  2  0
 17 21  1  0
 18 22  1  0
 21 22  1  0
 16 23  2  0
 19 24  2  0
 23 24  1  0
M  END
