mac-x0212-mac-x0124
     RDKit          3D

 21 23  0  0  0  0  0  0  0  0999 V2000
   31.2050   54.1080   -6.7760 C   0  0  0  0  0  0  0  0  0  0  0  0
   29.5180   53.9130   -6.2360 S   0  0  0  0  0  0  0  0  0  0  0  0
   28.7010   54.7560   -7.0860 O   0  0  0  0  0  0  0  0  0  0  0  0
   29.4740   54.0410   -4.7950 O   0  0  0  0  0  0  0  0  0  0  0  0
   29.1960   52.2980   -6.6300 N   0  0  0  0  0  0  0  0  0  0  0  0
   30.3480   51.3710   -6.7010 C   0  0  0  0  0  0  0  0  0  0  0  0
   27.9380   51.7260   -6.0810 C   0  0  0  0  0  0  0  0  0  0  0  0
   28.1320   50.6060   -5.0340 C   0  0  2  0  0  0  0  0  0  0  0  0
   29.8980   49.8930   -6.7660 C   0  0  1  0  0  0  0  0  0  0  0  0
   28.3240   51.2130   -3.6480 C   0  0  0  0  0  0  0  0  0  0  0  0
   29.1620   49.4700   -5.4520 C   0  0  1  0  0  0  0  0  0  0  0  0
   29.1740   49.5590   -8.0130 N   0  0  0  0  0  0  0  0  0  0  0  0
   30.2320   49.2400   -4.3020 C   0  0  2  0  0  0  0  0  0  0  0  0
   29.0030   50.5900   -2.6720 C   0  0  0  0  0  0  0  0  0  0  0  0
   28.7780   48.1790   -8.1550 C   0  0  0  0  0  0  0  0  0  0  0  0
   28.3580   48.1640   -5.7330 C   0  0  0  0  0  0  0  0  0  0  0  0
   31.1580   48.0470   -4.4850 C   0  0  0  0  0  0  0  0  0  0  0  0
   29.6110   49.2470   -2.9070 C   0  0  0  0  0  0  0  0  0  0  0  0
   28.8340   47.4480   -6.9060 N   0  0  0  0  0  0  0  0  0  0  0  0
   32.1490   48.0180   -5.1980 O   0  0  0  0  0  0  0  0  0  0  0  0
   30.8200   46.9600   -3.7640 O   0  0  0  0  0  0  0  0  0  0  0  0
  2  1  1  0
  2  3  2  0
  2  4  2  0
  2  5  1  0
  5  6  1  0
  5  7  1  0
  8  7  1  6
  9  6  1  1
  8 10  1  0
  8 11  1  0
  9 11  1  0
  9 12  1  0
 11 13  1  0
 10 14  2  0
 12 15  1  0
 11 16  1  6
 13 17  1  6
 13 18  1  0
 14 18  1  0
 15 19  1  0
 16 19  1  0
 17 20  2  0
 17 21  1  0
M  END
