mac-x0283-mac-x0277
     RDKit          3D

 24 26  0  0  0  0  0  0  0  0999 V2000
   28.6120   54.4170   -6.9750 N   0  0  0  0  0  0  0  0  0  0  0  0
   29.0350   53.9170   -5.7970 C   0  0  0  0  0  0  0  0  0  0  0  0
   29.4230   54.6660   -4.7620 N   0  0  0  0  0  0  0  0  0  0  0  0
   29.1260   52.5310   -5.5090 C   0  0  0  0  0  0  0  0  0  0  0  0
   29.7770   53.7750   -3.7640 O   0  0  0  0  0  0  0  0  0  0  0  0
   29.5990   52.5060   -4.2110 C   0  0  0  0  0  0  0  0  0  0  0  0
   28.8750   51.3090   -6.1590 C   0  0  0  0  0  0  0  0  0  0  0  0
   29.8510   51.3530   -3.4880 C   0  0  0  0  0  0  0  0  0  0  0  0
   29.1200   50.1160   -5.4540 C   0  0  0  0  0  0  0  0  0  0  0  0
   29.6010   50.1360   -4.1320 C   0  0  0  0  0  0  0  0  0  0  0  0
   29.8620   48.8690   -3.3680 C   0  0  0  0  0  0  0  0  0  0  0  0
   30.2090   49.1440   -1.8990 C   0  0  0  0  0  0  0  0  0  0  0  0
   30.2380   47.8640   -1.0660 C   0  0  0  0  0  0  0  0  0  0  0  0
   30.0340   46.6780   -1.9720 C   0  0  0  0  0  0  0  0  0  0  0  0
   31.0760   46.3350   -2.8520 C   0  0  0  0  0  0  0  0  0  0  0  0
   28.8640   45.9100   -1.9820 C   0  0  0  0  0  0  0  0  0  0  0  0
   27.5310   46.2570   -0.9370 Cl  0  0  0  0  0  0  0  0  0  0  0  0
   30.9650   45.2500   -3.7280 C   0  0  0  0  0  0  0  0  0  0  0  0
   28.7420   44.8250   -2.8500 C   0  0  0  0  0  0  0  0  0  0  0  0
   32.1020   44.9090   -4.6660 C   0  0  0  0  0  0  0  0  0  0  0  0
   29.7850   44.4940   -3.7210 C   0  0  0  0  0  0  0  0  0  0  0  0
   32.2450   45.8470   -5.8400 C   0  0  0  0  0  0  0  0  0  0  0  0
   33.4150   46.5250   -5.8030 O   0  0  0  0  0  0  0  0  0  0  0  0
   31.4630   46.0390   -6.7580 O   0  0  0  0  0  0  0  0  0  0  0  0
  1  2  1  0
  2  3  2  0
  2  4  1  0
  3  5  1  0
  4  6  2  0
  5  6  1  0
  4  7  1  0
  6  8  1  0
  7  9  2  0
  8 10  2  0
  9 10  1  0
 10 11  1  0
 11 12  1  0
 12 13  1  0
 13 14  1  0
 14 15  2  0
 14 16  1  0
 16 17  1  0
 15 18  1  0
 16 19  2  0
 18 20  1  0
 18 21  2  0
 19 21  1  0
 20 22  1  0
 22 23  1  0
 22 24  2  0
M  END
