mac-x0455-mac-x0302
     RDKit          3D

 21 22  0  0  0  0  0  0  0  0999 V2000
   30.4730   48.1390   -5.0410 C   0  0  0  0  0  0  0  0  0  0  0  0
   30.9380   46.8330   -4.3650 C   0  0  1  0  0  0  0  0  0  0  0  0
   30.0490   46.5920   -3.2520 O   0  0  0  0  0  0  0  0  0  0  0  0
   29.6930   49.1000   -4.1560 C   0  0  0  0  0  0  0  0  0  0  0  0
   30.7210   45.6580   -5.3660 C   0  0  0  0  0  0  0  0  0  0  0  0
   29.1890   48.7180   -3.0970 O   0  0  0  0  0  0  0  0  0  0  0  0
   32.3970   46.8490   -3.8920 C   0  0  0  0  0  0  0  0  0  0  0  0
   29.5160   50.5290   -4.5580 C   0  0  0  0  0  0  0  0  0  0  0  0
   30.1480   44.5960   -5.1710 O   0  0  0  0  0  0  0  0  0  0  0  0
   31.2580   45.9110   -6.5910 O   0  0  0  0  0  0  0  0  0  0  0  0
   33.1220   48.0480   -3.7610 C   0  0  0  0  0  0  0  0  0  0  0  0
   33.0530   45.6450   -3.5700 C   0  0  0  0  0  0  0  0  0  0  0  0
   29.9770   51.5940   -3.7790 C   0  0  0  0  0  0  0  0  0  0  0  0
   28.8580   50.7890   -5.7690 C   0  0  0  0  0  0  0  0  0  0  0  0
   34.4500   48.0420   -3.3250 C   0  0  0  0  0  0  0  0  0  0  0  0
   34.3820   45.6450   -3.1340 C   0  0  0  0  0  0  0  0  0  0  0  0
   29.7740   52.9020   -4.2220 C   0  0  0  0  0  0  0  0  0  0  0  0
   28.6630   52.1020   -6.2000 C   0  0  0  0  0  0  0  0  0  0  0  0
   30.2090   53.9730   -3.4950 O   0  0  0  0  0  0  0  0  0  0  0  0
   35.0800   46.8410   -3.0110 C   0  0  0  0  0  0  0  0  0  0  0  0
   29.1220   53.1620   -5.4230 C   0  0  0  0  0  0  0  0  0  0  0  0
  1  2  1  0
  2  3  1  1
  1  4  1  0
  2  5  1  0
  4  6  2  0
  2  7  1  0
  4  8  1  0
  5  9  2  0
  5 10  1  0
  7 11  2  0
  7 12  1  0
  8 13  2  0
  8 14  1  0
 11 15  1  0
 12 16  2  0
 13 17  1  0
 14 18  2  0
 17 19  1  0
 15 20  2  0
 16 20  1  0
 17 21  2  0
 18 21  1  0
M  END
