mac-x0226-mac-x0380
     RDKit          3D

 31 34  0  0  0  0  0  0  0  0999 V2000
   32.3660   45.3680   -7.1140 O   0  0  0  0  0  0  0  0  0  0  0  0
   33.0200   46.1840   -6.1620 C   0  0  0  0  0  0  0  0  0  0  0  0
   34.1190   46.7540   -6.8590 O   0  0  0  0  0  0  0  0  0  0  0  0
   32.0750   47.3190   -5.7350 C   0  0  0  0  0  0  0  0  0  0  0  0
   33.5080   45.3890   -4.9930 C   0  0  0  0  0  0  0  0  0  0  0  0
   30.6930   47.2610   -6.3970 C   0  0  0  0  0  0  0  0  0  0  0  0
   32.9610   44.2090   -4.4490 C   0  0  0  0  0  0  0  0  0  0  0  0
   34.6030   45.6340   -4.1870 C   0  0  0  0  0  0  0  0  0  0  0  0
   29.8500   48.4780   -6.0370 C   0  0  0  0  0  0  0  0  0  0  0  0
   33.6430   43.7540   -3.4000 N   0  0  0  0  0  0  0  0  0  0  0  0
   34.6620   44.6390   -3.2380 N   0  0  0  0  0  0  0  0  0  0  0  0
   29.1560   48.2470   -4.7970 O   0  0  0  0  0  0  0  0  0  0  0  0
   35.6180   44.4820   -2.1990 C   0  0  0  0  0  0  0  0  0  0  0  0
   29.1820   49.2700   -3.9090 C   0  0  0  0  0  0  0  0  0  0  0  0
   36.4740   45.5510   -1.8890 C   0  0  0  0  0  0  0  0  0  0  0  0
   35.7250   43.2840   -1.4780 C   0  0  0  0  0  0  0  0  0  0  0  0
   29.4830   49.1890   -2.7280 O   0  0  0  0  0  0  0  0  0  0  0  0
   37.4220   45.4240   -0.8740 C   0  0  0  0  0  0  0  0  0  0  0  0
   36.6780   43.1650   -0.4620 C   0  0  0  0  0  0  0  0  0  0  0  0
   28.7870   50.5470   -4.5670 C   0  0  0  0  0  0  0  0  0  0  0  0
   37.5250   44.2310   -0.1600 C   0  0  0  0  0  0  0  0  0  0  0  0
   29.0590   51.7990   -4.0040 C   0  0  0  0  0  0  0  0  0  0  0  0
   28.1180   50.4810   -5.7990 C   0  0  0  0  0  0  0  0  0  0  0  0
   28.6710   52.9750   -4.6610 C   0  0  0  0  0  0  0  0  0  0  0  0
   27.7310   51.6510   -6.4570 C   0  0  0  0  0  0  0  0  0  0  0  0
   28.0060   52.8980   -5.8920 C   0  0  0  0  0  0  0  0  0  0  0  0
   29.0390   54.5410   -3.9030 S   0  0  0  0  0  0  0  0  0  0  0  0
   27.6010   54.0470   -6.5850 N   0  0  0  0  0  0  0  0  0  0  0  0
   29.1980   55.5380   -5.4000 C   0  0  0  0  0  0  0  0  0  0  0  0
   28.0970   55.3100   -6.4130 C   0  0  0  0  0  0  0  0  0  0  0  0
   27.6390   56.2370   -7.0850 O   0  0  0  0  0  0  0  0  0  0  0  0
  2  1  1  0
  2  3  1  0
  2  4  1  0
  2  5  1  0
  4  6  1  0
  5  7  1  0
  5  8  2  0
  6  9  1  0
  7 10  2  0
  8 11  1  0
 10 11  1  0
  9 12  1  0
 11 13  1  0
 12 14  1  0
 13 15  2  0
 13 16  1  0
 14 17  2  0
 15 18  1  0
 16 19  2  0
 14 20  1  0
 18 21  2  0
 19 21  1  0
 20 22  2  0
 20 23  1  0
 22 24  1  0
 23 25  2  0
 24 26  2  0
 25 26  1  0
 24 27  1  0
 26 28  1  0
 27 29  1  0
 28 30  1  0
 29 30  1  0
 30 31  2  0
M  END
