mac-x0404-mac-x0124
     RDKit          3D

 25 28  0  0  0  0  0  0  0  0999 V2000
   32.1810   45.7300   -7.3350 O   0  0  0  0  0  0  0  0  0  0  0  0
   32.7040   45.8280   -6.0940 C   0  0  0  0  0  0  0  0  0  0  0  0
   33.8240   46.3050   -5.9440 O   0  0  0  0  0  0  0  0  0  0  0  0
   31.7990   45.3050   -4.9940 C   0  0  0  0  0  0  0  0  0  0  0  0
   30.7720   46.2820   -4.5350 N   0  0  0  0  0  0  0  0  0  0  0  0
   30.7400   46.3580   -3.1130 C   0  0  0  0  0  0  0  0  0  0  0  0
   30.6010   47.5180   -5.1550 N   0  0  0  0  0  0  0  0  0  0  0  0
   29.6510   45.8370   -2.3530 C   0  0  0  0  0  0  0  0  0  0  0  0
   31.8090   46.9760   -2.4480 C   0  0  0  0  0  0  0  0  0  0  0  0
   30.5100   48.6710   -4.3960 C   0  0  0  0  0  0  0  0  0  0  0  0
   29.9360   47.7600   -6.4720 C   0  0  2  0  0  0  0  0  0  0  0  0
   29.6800   45.9680   -0.9440 C   0  0  0  0  0  0  0  0  0  0  0  0
   31.8260   47.0960   -1.0660 C   0  0  0  0  0  0  0  0  0  0  0  0
   28.5290   45.1930   -2.9220 C   0  0  0  0  0  0  0  0  0  0  0  0
   30.0970   49.7330   -5.0850 C   0  0  0  0  0  0  0  0  0  0  0  0
   29.8590   49.3270   -6.5180 C   0  0  2  0  0  0  0  0  0  0  0  0
   28.6460   47.1750   -6.8670 N   0  0  0  0  0  0  0  0  0  0  0  0
   30.7660   46.5970   -0.3200 C   0  0  0  0  0  0  0  0  0  0  0  0
   28.6210   45.4720   -0.1680 C   0  0  0  0  0  0  0  0  0  0  0  0
   27.4830   44.7020   -2.1390 C   0  0  0  0  0  0  0  0  0  0  0  0
   28.4730   49.7230   -7.0340 C   0  0  1  0  0  0  0  0  0  0  0  0
   28.3430   47.5920   -8.2140 C   0  0  0  0  0  0  0  0  0  0  0  0
   28.4190   51.1180   -7.4250 N   0  0  0  0  0  0  0  0  0  0  0  0
   27.5290   44.8440   -0.7600 C   0  0  0  0  0  0  0  0  0  0  0  0
   28.0420   49.0110   -8.2260 N   0  0  0  0  0  0  0  0  0  0  0  0
  1  2  1  0
  2  3  2  0
  2  4  1  0
  4  5  1  0
  5  6  1  0
  5  7  1  0
  6  8  1  0
  6  9  2  0
  7 10  1  0
  7 11  1  0
  8 12  2  0
  9 13  1  0
  8 14  1  0
 10 15  2  0
 11 16  1  0
 16 15  1  1
 11 17  1  1
 12 18  1  0
 13 18  2  0
 12 19  1  0
 14 20  2  0
 16 21  1  0
 17 22  1  0
 21 23  1  6
 19 24  2  0
 20 24  1  0
 21 25  1  0
 22 25  1  0
M  END
