mac-x0584-mac-x0588
     RDKit          3D

 24 28  0  0  0  0  0  0  0  0999 V2000
   28.6080   48.7630   -3.1150 C   0  0  0  0  0  0  0  0  0  0  0  0
   27.8000   47.5110   -2.7150 C   0  0  2  0  0  0  0  0  0  0  0  0
   28.0030   47.2470   -1.3090 O   0  0  0  0  0  0  0  0  0  0  0  0
   28.4750   49.1230   -4.5530 C   0  0  0  0  0  0  0  0  0  0  0  0
   29.2890   48.6990   -5.6640 C   0  0  0  0  0  0  0  0  0  0  0  0
   27.5400   49.9300   -5.0970 C   0  0  0  0  0  0  0  0  0  0  0  0
   28.2630   46.2540   -3.4450 C   0  0  0  0  0  0  0  0  0  0  0  0
   28.6310   49.3730   -6.8220 C   0  0  0  0  0  0  0  0  0  0  0  0
   30.3780   47.9360   -5.8940 C   0  0  0  0  0  0  0  0  0  0  0  0
   27.6100   50.1040   -6.4690 N   0  0  0  0  0  0  0  0  0  0  0  0
   28.0420   45.1660   -2.4270 C   0  0  0  0  0  0  0  0  0  0  0  0
   28.3810   45.8750   -1.1370 C   0  0  0  0  0  0  0  0  0  0  0  0
   31.1030   47.2570   -4.9180 N   0  0  0  0  0  0  0  0  0  0  0  0
   30.7750   47.8470   -7.2160 N   0  0  0  0  0  0  0  0  0  0  0  0
   29.0720   49.2270   -8.1060 N   0  0  0  0  0  0  0  0  0  0  0  0
   31.2380   45.7930   -4.7810 C   0  0  1  0  0  0  0  0  0  0  0  0
   31.6910   47.8970   -3.7460 C   0  0  0  0  0  0  0  0  0  0  0  0
   30.1130   48.4760   -8.2290 C   0  0  0  0  0  0  0  0  0  0  0  0
   32.3490   45.1900   -5.6300 C   0  0  0  0  0  0  0  0  0  0  0  0
   31.4380   45.5640   -3.2670 C   0  0  0  0  0  0  0  0  0  0  0  0
   31.3290   46.9420   -2.6190 C   0  0  0  0  0  0  0  0  0  0  0  0
   33.0280   43.8370   -5.2620 C   0  0  0  0  0  0  0  0  0  0  0  0
   33.7670   45.8280   -5.5290 C   0  0  0  0  0  0  0  0  0  0  0  0
   34.3430   44.4260   -5.8120 C   0  0  0  0  0  0  0  0  0  0  0  0
  2  1  1  6
  2  3  1  0
  1  4  1  0
  4  5  1  0
  4  6  2  0
  2  7  1  0
  5  8  1  0
  5  9  2  0
  6 10  1  0
  8 10  2  0
  7 11  1  0
  3 12  1  0
 11 12  1  0
  9 13  1  0
  9 14  1  0
  8 15  1  0
 13 16  1  0
 13 17  1  0
 14 18  1  0
 15 18  2  0
 16 19  1  6
 16 20  1  0
 17 21  1  0
 20 21  1  0
 19 22  1  0
 19 23  1  0
 22 24  1  0
 23 24  1  0
M  END
