mac-x0159-mac-x0437
     RDKit          3D

 32 36  0  0  0  0  0  0  0  0999 V2000
   28.5860   51.3170   -6.2170 N   0  0  0  0  0  0  0  0  0  0  0  0
   28.7790   50.1450   -5.3940 C   0  0  1  0  0  0  0  0  0  0  0  0
   28.4370   48.8230   -6.1010 C   0  0  2  0  0  0  0  0  0  0  0  0
   30.1690   50.1910   -5.0180 N   0  0  0  0  0  0  0  0  0  0  0  0
   30.4330   49.1320   -4.0520 C   0  0  0  0  0  0  0  0  0  0  0  0
   28.9600   47.6370   -5.2690 C   0  0  2  0  0  0  0  0  0  0  0  0
   29.0340   48.6370   -7.4460 N   0  0  0  0  0  0  0  0  0  0  0  0
   30.3120   47.8250   -4.7000 N   0  0  0  0  0  0  0  0  0  0  0  0
   28.9710   46.5730   -6.2800 N   0  0  0  0  0  0  0  0  0  0  0  0
   29.2390   47.2020   -7.5700 C   0  0  0  0  0  0  0  0  0  0  0  0
   30.7530   46.7240   -3.7770 C   0  0  2  0  0  0  0  0  0  0  0  0
   31.6050   45.5480   -4.3570 C   0  0  0  0  0  0  0  0  0  0  0  0
   29.5380   46.1560   -3.0560 C   0  0  0  0  0  0  0  0  0  0  0  0
   32.9990   45.8830   -4.9600 C   0  0  2  0  0  0  0  0  0  0  0  0
   28.6520   45.2300   -3.5820 C   0  0  0  0  0  0  0  0  0  0  0  0
   29.2480   46.5580   -1.7530 N   0  0  0  0  0  0  0  0  0  0  0  0
   33.6160   44.6790   -5.6950 C   0  0  0  0  0  0  0  0  0  0  0  0
   28.1660   45.9420   -1.3220 C   0  0  0  0  0  0  0  0  0  0  0  0
   27.4380   44.8530   -2.4350 S   0  0  0  0  0  0  0  0  0  0  0  0
   33.9840   46.3790   -3.9820 N   0  0  0  0  0  0  0  0  0  0  0  0
   27.5710   46.1340    0.0280 C   0  0  0  0  0  0  0  0  0  0  0  0
   33.4640   44.8410   -7.1840 C   0  0  0  0  0  0  0  0  0  0  0  0
   34.0910   47.6800   -3.5590 C   0  0  0  0  0  0  0  0  0  0  0  0
   34.9640   45.6460   -3.3310 C   0  0  0  0  0  0  0  0  0  0  0  0
   32.3960   44.1960   -7.7040 O   0  0  0  0  0  0  0  0  0  0  0  0
   34.2350   45.4940   -7.8720 O   0  0  0  0  0  0  0  0  0  0  0  0
   35.0630   47.8360   -2.6930 N   0  0  0  0  0  0  0  0  0  0  0  0
   35.6170   46.5900   -2.5400 C   0  0  0  0  0  0  0  0  0  0  0  0
   35.3470   44.2910   -3.3470 C   0  0  0  0  0  0  0  0  0  0  0  0
   36.6920   46.1960   -1.7300 C   0  0  0  0  0  0  0  0  0  0  0  0
   36.4230   43.9170   -2.5320 C   0  0  0  0  0  0  0  0  0  0  0  0
   37.0870   44.8510   -1.7350 C   0  0  0  0  0  0  0  0  0  0  0  0
  2  1  1  6
  2  3  1  0
  2  4  1  0
  4  5  1  0
  3  6  1  0
  3  7  1  6
  5  8  1  0
  6  8  1  0
  6  9  1  6
  7 10  1  0
  9 10  1  0
  8 11  1  0
 11 12  1  6
 11 13  1  0
 14 12  1  1
 13 15  2  0
 13 16  1  0
 14 17  1  0
 16 18  2  0
 15 19  1  0
 18 19  1  0
 14 20  1  0
 18 21  1  0
 17 22  1  0
 20 23  1  0
 20 24  1  0
 22 25  1  0
 22 26  2  0
 23 27  2  0
 24 28  2  0
 27 28  1  0
 24 29  1  0
 28 30  1  0
 29 31  2  0
 30 32  2  0
 31 32  1  0
M  END
