mac-x0404-mac-x0333
     RDKit          3D

 25 28  0  0  0  0  0  0  0  0999 V2000
   31.6400   45.7470   -6.6580 O   0  0  0  0  0  0  0  0  0  0  0  0
   32.7570   45.4890   -5.9490 C   0  0  0  0  0  0  0  0  0  0  0  0
   33.8200   46.0040   -6.2710 O   0  0  0  0  0  0  0  0  0  0  0  0
   32.5610   44.5390   -4.7690 C   0  0  0  0  0  0  0  0  0  0  0  0
   31.2750   44.4740   -4.1660 O   0  0  0  0  0  0  0  0  0  0  0  0
   30.8030   45.5770   -3.4970 C   0  0  0  0  0  0  0  0  0  0  0  0
   29.7250   45.3820   -2.5930 C   0  0  0  0  0  0  0  0  0  0  0  0
   31.3220   46.8500   -3.6750 C   0  0  0  0  0  0  0  0  0  0  0  0
   29.2060   46.4880   -1.8750 C   0  0  0  0  0  0  0  0  0  0  0  0
   30.7800   47.9120   -2.9690 C   0  0  0  0  0  0  0  0  0  0  0  0
   29.1320   44.1280   -2.3720 C   0  0  0  0  0  0  0  0  0  0  0  0
   31.2400   49.1690   -3.1370 O   0  0  0  0  0  0  0  0  0  0  0  0
   29.7480   47.7460   -2.0720 C   0  0  0  0  0  0  0  0  0  0  0  0
   28.1470   46.3210   -0.9760 C   0  0  0  0  0  0  0  0  0  0  0  0
   28.0710   43.9720   -1.4770 C   0  0  0  0  0  0  0  0  0  0  0  0
   27.5800   45.0690   -0.7780 C   0  0  0  0  0  0  0  0  0  0  0  0
   30.5320   50.1120   -3.8760 C   0  0  0  0  0  0  0  0  0  0  0  0
   30.4860   51.4090   -3.3900 C   0  0  0  0  0  0  0  0  0  0  0  0
   29.8820   49.7770   -5.0960 C   0  0  0  0  0  0  0  0  0  0  0  0
   29.8180   52.3500   -4.1170 C   0  0  0  0  0  0  0  0  0  0  0  0
   29.1980   50.7730   -5.8250 C   0  0  0  0  0  0  0  0  0  0  0  0
   29.1930   52.0550   -5.3020 C   0  0  0  0  0  0  0  0  0  0  0  0
   29.6960   53.6550   -3.7730 O   0  0  0  0  0  0  0  0  0  0  0  0
   28.6090   53.1650   -5.8390 O   0  0  0  0  0  0  0  0  0  0  0  0
   29.2400   54.1800   -5.0270 C   0  0  0  0  0  0  0  0  0  0  0  0
  1  2  1  0
  2  3  2  0
  2  4  1  0
  4  5  1  0
  5  6  1  0
  6  7  2  0
  6  8  1  0
  7  9  1  0
  8 10  2  0
  7 11  1  0
 10 12  1  0
  9 13  2  0
 10 13  1  0
  9 14  1  0
 11 15  2  0
 14 16  2  0
 15 16  1  0
 12 17  1  0
 17 18  2  0
 17 19  1  0
 18 20  1  0
 19 21  2  0
 20 22  2  0
 21 22  1  0
 20 23  1  0
 22 24  1  0
 23 25  1  0
 24 25  1  0
M  END
