mac-x0321-mac-x0371
     RDKit          3D

 21 22  0  0  0  0  0  0  0  0999 V2000
   28.6490   52.5350   -6.8870 Cl  0  0  0  0  0  0  0  0  0  0  0  0
   29.1580   51.7380   -5.4500 C   0  0  0  0  0  0  0  0  0  0  0  0
   29.3000   50.3520   -5.4410 C   0  0  0  0  0  0  0  0  0  0  0  0
   29.4260   52.4870   -4.3020 C   0  0  0  0  0  0  0  0  0  0  0  0
   29.7150   49.7220   -4.2650 C   0  0  0  0  0  0  0  0  0  0  0  0
   29.8400   51.8470   -3.1310 C   0  0  0  0  0  0  0  0  0  0  0  0
   29.8650   48.2590   -4.2490 C   0  0  0  0  0  0  0  0  0  0  0  0
   29.9860   50.4600   -3.1090 C   0  0  0  0  0  0  0  0  0  0  0  0
   28.7500   47.6490   -4.7010 O   0  0  0  0  0  0  0  0  0  0  0  0
   30.8770   47.5450   -3.8760 N   0  0  0  0  0  0  0  0  0  0  0  0
   30.8190   46.1410   -3.9390 C   0  0  0  0  0  0  0  0  0  0  0  0
   31.9460   45.3830   -4.3340 C   0  0  0  0  0  0  0  0  0  0  0  0
   29.6220   45.4920   -3.5970 C   0  0  0  0  0  0  0  0  0  0  0  0
   33.2390   46.0950   -4.6990 C   0  0  0  0  0  0  0  0  0  0  0  0
   29.5210   44.1040   -3.6420 C   0  0  0  0  0  0  0  0  0  0  0  0
   31.8240   43.9770   -4.3730 C   0  0  0  0  0  0  0  0  0  0  0  0
   33.1330   42.9430   -4.8360 Cl  0  0  0  0  0  0  0  0  0  0  0  0
   33.5290   46.1700   -6.1840 C   0  0  0  0  0  0  0  0  0  0  0  0
   30.6220   43.3490   -4.0290 C   0  0  0  0  0  0  0  0  0  0  0  0
   32.4370   45.9300   -6.9440 O   0  0  0  0  0  0  0  0  0  0  0  0
   34.5940   46.4170   -6.7290 O   0  0  0  0  0  0  0  0  0  0  0  0
  1  2  1  0
  2  3  2  0
  2  4  1  0
  3  5  1  0
  4  6  2  0
  5  7  1  0
  5  8  2  0
  6  8  1  0
  7  9  1  0
  7 10  2  3
 10 11  1  0
 11 12  2  0
 11 13  1  0
 12 14  1  0
 13 15  2  0
 12 16  1  0
 16 17  1  0
 14 18  1  0
 15 19  1  0
 16 19  2  0
 18 20  1  0
 18 21  2  0
M  END
