mac-x0380-mac-x0433
     RDKit          3D

 16 17  0  0  0  0  0  0  0  0999 V2000
   29.7270   48.3320   -4.7840 O   0  0  0  0  0  0  0  0  0  0  0  0
   29.5520   49.3490   -3.9190 C   0  0  0  0  0  0  0  0  0  0  0  0
   30.0060   49.2590   -2.7860 O   0  0  0  0  0  0  0  0  0  0  0  0
   28.7620   50.5560   -4.4450 C   0  0  1  0  0  0  0  0  0  0  0  0
   29.1870   51.9840   -3.9400 C   0  0  2  0  0  0  0  0  0  0  0  0
   28.5080   50.5620   -5.9280 C   0  0  0  0  0  0  0  0  0  0  0  0
   30.4060   52.5850   -4.7080 C   0  0  0  0  0  0  0  0  0  0  0  0
   29.5460   52.0410   -2.4940 N   0  0  0  0  0  0  0  0  0  0  0  0
   28.0530   52.9830   -4.2970 C   0  0  2  0  0  0  0  0  0  0  0  0
   28.0060   51.6390   -6.5460 C   0  0  0  0  0  0  0  0  0  0  0  0
   27.6480   52.9210   -5.8200 C   0  0  2  0  0  0  0  0  0  0  0  0
   28.6480   54.6590   -3.8170 S   0  0  0  0  0  0  0  0  0  0  0  0
   28.0420   54.0200   -6.7090 N   0  0  0  0  0  0  0  0  0  0  0  0
   28.6040   55.8060   -5.1610 C   0  0  0  0  0  0  0  0  0  0  0  0
   28.1050   55.3650   -6.4760 C   0  0  0  0  0  0  0  0  0  0  0  0
   27.7740   56.2160   -7.2830 O   0  0  0  0  0  0  0  0  0  0  0  0
  1  2  1  0
  2  3  2  0
  4  2  1  6
  4  5  1  0
  4  6  1  0
  5  7  1  6
  5  8  1  0
  5  9  1  0
  6 10  2  0
  9 11  1  0
 11 10  1  6
  9 12  1  6
 11 13  1  0
 12 14  2  0
 13 15  1  0
 14 15  1  0
 15 16  2  0
M  END
