mac-x0161-mac-x0398
     RDKit          3D

 22 24  0  0  0  0  0  0  0  0999 V2000
   27.2850   52.3420   -6.6730 N   0  0  0  0  0  0  0  0  0  0  0  0
   27.6540   51.2280   -5.7940 C   0  0  1  0  0  0  0  0  0  0  0  0
   28.4450   50.1010   -6.4660 C   0  0  1  0  0  0  0  0  0  0  0  0
   28.4540   51.7520   -4.7050 N   0  0  0  0  0  0  0  0  0  0  0  0
   29.2760   52.8920   -5.2130 N   0  0  0  0  0  0  0  0  0  0  0  0
   29.1320   50.7530   -3.8160 C   0  0  2  0  0  0  0  0  0  0  0  0
   28.7500   49.0180   -5.4570 C   0  0  2  0  0  0  0  0  0  0  0  0
   27.8220   49.3600   -7.5710 N   0  0  0  0  0  0  0  0  0  0  0  0
   30.1990   51.4260   -3.1400 O   0  0  0  0  0  0  0  0  0  0  0  0
   29.6400   49.5310   -4.4510 N   0  0  0  0  0  0  0  0  0  0  0  0
   29.3440   48.0120   -6.3490 N   0  0  0  0  0  0  0  0  0  0  0  0
   28.6360   48.1460   -7.6330 C   0  0  0  0  0  0  0  0  0  0  0  0
   30.2350   48.5890   -3.4750 C   0  0  2  0  0  0  0  0  0  0  0  0
   31.5260   47.9050   -3.7960 C   0  0  0  0  0  0  0  0  0  0  0  0
   29.3050   47.8080   -2.5370 C   0  0  0  0  0  0  0  0  0  0  0  0
   32.6810   47.9110   -3.0720 C   0  0  0  0  0  0  0  0  0  0  0  0
   31.6990   47.1610   -4.9320 O   0  0  0  0  0  0  0  0  0  0  0  0
   29.2150   48.5240   -1.3110 O   0  0  0  0  0  0  0  0  0  0  0  0
   33.0040   46.6770   -4.9480 N   0  0  0  0  0  0  0  0  0  0  0  0
   33.5570   47.1480   -3.8270 C   0  0  0  0  0  0  0  0  0  0  0  0
   34.8340   46.9060   -3.4660 O   0  0  0  0  0  0  0  0  0  0  0  0
   35.2690   47.7200   -2.3800 C   0  0  0  0  0  0  0  0  0  0  0  0
  2  1  1  6
  2  3  1  0
  2  4  1  0
  4  5  1  0
  4  6  1  0
  3  7  1  0
  3  8  1  6
  6  9  1  6
  6 10  1  0
  7 10  1  0
  7 11  1  6
  8 12  1  0
 11 12  1  0
 10 13  1  0
 13 14  1  0
 13 15  1  6
 14 16  2  0
 14 17  1  0
 15 18  1  0
 17 19  1  0
 16 20  1  0
 19 20  2  0
 20 21  1  0
 21 22  1  0
M  END
