mac-x0509-mac-x0436
     RDKit          3D

 21 23  0  0  0  0  0  0  0  0999 V2000
   37.7460   47.0450   -5.4420 O   0  0  0  0  0  0  0  0  0  0  0  0
   37.6460   46.0330   -4.7620 C   0  0  0  0  0  0  0  0  0  0  0  0
   36.6310   45.7660   -3.6030 C   0  0  1  0  0  0  0  0  0  0  0  0
   38.4400   44.9020   -4.8930 N   0  0  0  0  0  0  0  0  0  0  0  0
   37.2090   44.4970   -3.0140 C   0  0  0  0  0  0  0  0  0  0  0  0
   38.2600   44.0450   -3.8130 C   0  0  0  0  0  0  0  0  0  0  0  0
   36.6680   46.9120   -2.6140 C   0  0  0  0  0  0  0  0  0  0  0  0
   35.3050   45.5210   -4.2140 N   0  0  0  0  0  0  0  0  0  0  0  0
   36.8450   43.7980   -1.8760 C   0  0  0  0  0  0  0  0  0  0  0  0
   38.9780   42.9070   -3.5250 C   0  0  0  0  0  0  0  0  0  0  0  0
   34.3110   46.2580   -3.8450 C   0  0  0  0  0  0  0  0  0  0  0  0
   35.6670   47.6550   -2.2400 N   0  0  0  0  0  0  0  0  0  0  0  0
   32.9440   46.0350   -4.4450 C   0  0  0  0  0  0  0  0  0  0  0  0
   37.5620   42.6360   -1.5590 C   0  0  0  0  0  0  0  0  0  0  0  0
   38.6190   42.1950   -2.3790 C   0  0  0  0  0  0  0  0  0  0  0  0
   34.4480   47.3680   -2.8050 C   0  0  0  0  0  0  0  0  0  0  0  0
   32.9840   44.8950   -5.4550 C   0  0  0  0  0  0  0  0  0  0  0  0
   33.4270   47.9780   -2.5120 O   0  0  0  0  0  0  0  0  0  0  0  0
   31.9200   45.0530   -6.5060 C   0  0  0  0  0  0  0  0  0  0  0  0
   32.4480   45.2810   -7.7250 O   0  0  0  0  0  0  0  0  0  0  0  0
   30.7120   44.9970   -6.3530 O   0  0  0  0  0  0  0  0  0  0  0  0
  1  2  2  0
  2  3  1  0
  2  4  1  0
  3  5  1  0
  4  6  1  0
  5  6  2  0
  3  7  1  1
  3  8  1  0
  5  9  1  0
  6 10  1  0
  8 11  2  0
  7 12  2  0
 11 13  1  0
  9 14  2  0
 10 15  2  0
 14 15  1  0
 11 16  1  0
 12 16  1  0
 13 17  1  0
 16 18  2  0
 17 19  1  0
 19 20  1  0
 19 21  2  0
M  END
