mac-x0417-mac-x0392
     RDKit          3D

 25 27  0  0  0  0  0  0  0  0999 V2000
   32.5160   44.3790   -6.3340 O   0  0  0  0  0  0  0  0  0  0  0  0
   33.3140   45.3190   -5.6220 C   0  0  0  0  0  0  0  0  0  0  0  0
   34.6480   45.1360   -6.0680 O   0  0  0  0  0  0  0  0  0  0  0  0
   33.1570   45.0820   -4.1000 C   0  0  0  0  0  0  0  0  0  0  0  0
   32.8560   46.7280   -6.0500 C   0  0  0  0  0  0  0  0  0  0  0  0
   31.4690   46.8070   -6.6890 C   0  0  0  0  0  0  0  0  0  0  0  0
   34.4550   44.9220   -3.3700 C   0  0  0  0  0  0  0  0  0  0  0  0
   30.4170   46.4930   -5.7560 O   0  0  0  0  0  0  0  0  0  0  0  0
   34.8120   43.7070   -2.9200 N   0  0  0  0  0  0  0  0  0  0  0  0
   35.4300   45.9040   -3.0510 C   0  0  0  0  0  0  0  0  0  0  0  0
   29.9650   47.5100   -4.9720 C   0  0  0  0  0  0  0  0  0  0  0  0
   36.0390   43.8850   -2.2960 O   0  0  0  0  0  0  0  0  0  0  0  0
   36.4060   45.1910   -2.3750 C   0  0  0  0  0  0  0  0  0  0  0  0
   35.6120   47.2840   -3.2430 C   0  0  0  0  0  0  0  0  0  0  0  0
   29.9120   47.4890   -3.7520 O   0  0  0  0  0  0  0  0  0  0  0  0
   37.5750   45.7500   -1.8630 C   0  0  0  0  0  0  0  0  0  0  0  0
   36.7790   47.8800   -2.7400 C   0  0  0  0  0  0  0  0  0  0  0  0
   29.5300   48.6830   -5.7820 C   0  0  0  0  0  0  0  0  0  0  0  0
   37.7420   47.1250   -2.0620 C   0  0  0  0  0  0  0  0  0  0  0  0
   29.1120   48.6240   -7.1240 C   0  0  0  0  0  0  0  0  0  0  0  0
   29.5550   49.9170   -5.1120 C   0  0  0  0  0  0  0  0  0  0  0  0
   29.0480   47.4440   -7.8840 N   0  0  0  0  0  0  0  0  0  0  0  0
   29.1660   51.0530   -5.7940 C   0  0  0  0  0  0  0  0  0  0  0  0
   28.7430   49.8420   -7.7020 C   0  0  0  0  0  0  0  0  0  0  0  0
   28.7600   51.0450   -7.0770 N   0  0  0  0  0  0  0  0  0  0  0  0
  2  1  1  0
  2  3  1  0
  2  4  1  0
  2  5  1  0
  5  6  1  0
  4  7  1  0
  6  8  1  0
  7  9  2  0
  7 10  1  0
  8 11  1  0
  9 12  1  0
 10 13  2  0
 12 13  1  0
 10 14  1  0
 11 15  2  0
 13 16  1  0
 14 17  2  0
 11 18  1  0
 16 19  2  0
 17 19  1  0
 18 20  2  0
 18 21  1  0
 20 22  1  0
 21 23  2  0
 20 24  1  0
 23 25  1  0
 24 25  2  0
M  END
