mac-x0271-mac-x0392
     RDKit          3D

 20 22  0  0  0  0  0  0  0  0999 V2000
   31.3100   49.8140   -3.5490 O   0  0  0  0  0  0  0  0  0  0  0  0
   30.0780   50.4520   -3.8790 C   0  0  2  0  0  0  0  0  0  0  0  0
   29.5990   50.1690   -5.3500 C   0  0  2  0  0  0  0  0  0  0  0  0
   30.1520   51.9140   -3.4170 C   0  0  0  0  0  0  0  0  0  0  0  0
   29.5110   52.8940   -4.3290 C   0  0  0  0  0  0  0  0  0  0  0  0
   28.3630   51.0790   -5.6210 C   0  0  0  0  0  0  0  0  0  0  0  0
   29.8010   48.7090   -5.8640 C   0  0  1  0  0  0  0  0  0  0  0  0
   30.4040   50.6960   -6.5050 N   0  0  0  0  0  0  0  0  0  0  0  0
   29.6860   47.5160   -4.9420 C   0  0  0  0  0  0  0  0  0  0  0  0
   28.7010   52.5440   -5.3420 C   0  0  0  0  0  0  0  0  0  0  0  0
   29.8400   54.2410   -4.0320 O   0  0  0  0  0  0  0  0  0  0  0  0
   29.1220   48.7400   -7.2140 C   0  0  1  0  0  0  0  0  0  0  0  0
   29.7350   50.0710   -7.6990 C   0  0  0  0  0  0  0  0  0  0  0  0
   29.4540   47.5780   -8.0620 N   0  0  0  0  0  0  0  0  0  0  0  0
   29.8240   47.5460   -3.7300 O   0  0  0  0  0  0  0  0  0  0  0  0
   29.4500   46.3320   -5.5340 O   0  0  0  0  0  0  0  0  0  0  0  0
   28.1690   53.6150   -6.1620 C   0  0  0  0  0  0  0  0  0  0  0  0
   29.1830   55.2650   -4.6440 C   0  0  0  0  0  0  0  0  0  0  0  0
   29.2290   56.4240   -4.2380 O   0  0  0  0  0  0  0  0  0  0  0  0
   28.3960   54.9050   -5.8390 C   0  0  0  0  0  0  0  0  0  0  0  0
  2  1  1  6
  2  3  1  0
  2  4  1  0
  4  5  1  0
  3  6  1  1
  3  7  1  0
  3  8  1  0
  7  9  1  1
  5 10  2  0
  6 10  1  0
  5 11  1  0
  7 12  1  0
  8 13  1  0
 12 13  1  0
 12 14  1  6
  9 15  2  0
  9 16  1  0
 10 17  1  0
 11 18  1  0
 18 19  2  0
 17 20  2  0
 18 20  1  0
M  END
