mac-x0263-mac-x0564
     RDKit          3D

 27 31  0  0  0  0  0  0  0  0999 V2000
   28.1270   59.8460   -6.4320 O   0  0  0  0  0  0  0  0  0  0  0  0
   26.9860   59.1390   -6.3330 C   0  0  0  0  0  0  0  0  0  0  0  0
   25.9260   59.6210   -6.6990 O   0  0  0  0  0  0  0  0  0  0  0  0
   27.1590   57.7640   -5.7420 C   0  0  0  0  0  0  0  0  0  0  0  0
   28.5090   57.1080   -6.0100 C   0  0  0  0  0  0  0  0  0  0  0  0
   28.3870   55.6210   -5.9300 C   0  0  0  0  0  0  0  0  0  0  0  0
   28.9230   54.8430   -4.9030 N   0  0  0  0  0  0  0  0  0  0  0  0
   27.7590   54.8760   -6.8190 N   0  0  0  0  0  0  0  0  0  0  0  0
   28.5940   53.5440   -5.2000 C   0  0  0  0  0  0  0  0  0  0  0  0
   27.8820   53.6020   -6.3660 C   0  0  0  0  0  0  0  0  0  0  0  0
   28.8430   52.1860   -4.5640 C   0  0  2  0  0  0  0  0  0  0  0  0
   27.3320   52.3740   -7.0060 C   0  0  0  0  0  0  0  0  0  0  0  0
   27.5750   51.3540   -4.7350 C   0  0  0  0  0  0  0  0  0  0  0  0
   26.8870   51.4400   -5.8830 C   0  0  0  0  0  0  0  0  0  0  0  0
   29.4130   52.0040   -3.1340 C   0  0  0  0  0  0  0  0  0  0  0  0
   29.7660   51.4730   -5.5920 C   0  0  0  0  0  0  0  0  0  0  0  0
   30.0250   50.8270   -2.7830 C   0  0  0  0  0  0  0  0  0  0  0  0
   29.9920   50.1200   -5.0790 C   0  0  0  0  0  0  0  0  0  0  0  0
   30.1260   49.7760   -3.7590 C   0  0  0  0  0  0  0  0  0  0  0  0
   30.0890   49.0640   -5.9230 O   0  0  0  0  0  0  0  0  0  0  0  0
   30.3080   47.9960   -5.1080 C   0  0  0  0  0  0  0  0  0  0  0  0
   30.3420   48.3850   -3.7850 C   0  0  0  0  0  0  0  0  0  0  0  0
   30.4830   46.6410   -5.5720 C   0  0  0  0  0  0  0  0  0  0  0  0
   30.5570   47.4410   -2.8500 N   0  0  0  0  0  0  0  0  0  0  0  0
   30.2080   46.2500   -6.7020 O   0  0  0  0  0  0  0  0  0  0  0  0
   31.0140   46.2380   -3.3580 C   0  0  0  0  0  0  0  0  0  0  0  0
   31.0080   45.8100   -4.5840 N   0  0  0  0  0  0  0  0  0  0  0  0
  1  2  1  0
  2  3  2  0
  2  4  1  0
  4  5  1  0
  5  6  1  0
  6  7  1  0
  6  8  2  0
  7  9  1  0
  8 10  1  0
  9 10  2  0
  9 11  1  0
 10 12  1  0
 11 13  1  1
 12 14  1  0
 13 14  2  0
 11 15  1  0
 11 16  1  0
 15 17  2  0
 16 18  1  0
 17 19  1  0
 18 19  2  0
 18 20  1  0
 20 21  1  0
 19 22  1  0
 21 22  2  0
 21 23  1  0
 22 24  1  0
 23 25  2  0
 24 26  1  0
 23 27  1  0
 26 27  2  0
M  END
