mac-x0436-mac-x0321
     RDKit          3D

 27 29  0  0  0  0  0  0  0  0999 V2000
   33.7880   45.5660   -6.7510 O   0  0  0  0  0  0  0  0  0  0  0  0
   32.6110   45.0700   -6.3060 C   0  0  0  0  0  0  0  0  0  0  0  0
   31.5810   45.2170   -6.9440 O   0  0  0  0  0  0  0  0  0  0  0  0
   32.7320   44.3440   -4.9830 C   0  0  0  0  0  0  0  0  0  0  0  0
   32.5870   45.2610   -3.7660 C   0  0  0  0  0  0  0  0  0  0  0  0
   33.8940   45.9270   -3.4100 C   0  0  0  0  0  0  0  0  0  0  0  0
   34.0360   47.4620   -3.3520 C   0  0  0  0  0  0  0  0  0  0  0  0
   34.9260   45.1630   -3.1580 N   0  0  0  0  0  0  0  0  0  0  0  0
   33.1590   48.3490   -3.0100 N   0  0  0  0  0  0  0  0  0  0  0  0
   35.2890   47.9160   -3.7060 N   0  0  0  0  0  0  0  0  0  0  0  0
   36.1490   45.8070   -2.8510 C   0  0  0  0  0  0  0  0  0  0  0  0
   31.8010   48.0870   -2.5730 C   0  0  0  0  0  0  0  0  0  0  0  0
   36.3480   47.1780   -3.1200 C   0  0  0  0  0  0  0  0  0  0  0  0
   37.1800   45.0610   -2.2740 C   0  0  0  0  0  0  0  0  0  0  0  0
   31.0350   47.4960   -3.6520 N   0  0  0  0  0  0  0  0  0  0  0  0
   38.3980   45.6720   -1.9670 C   0  0  0  0  0  0  0  0  0  0  0  0
   37.5690   47.7850   -2.8110 C   0  0  0  0  0  0  0  0  0  0  0  0
   30.2340   48.1950   -4.3570 C   0  0  0  0  0  0  0  0  0  0  0  0
   38.5910   47.0270   -2.2340 C   0  0  0  0  0  0  0  0  0  0  0  0
   29.5830   47.5380   -5.3290 O   0  0  0  0  0  0  0  0  0  0  0  0
   29.8450   49.6090   -4.3510 C   0  0  0  0  0  0  0  0  0  0  0  0
   29.4430   50.2260   -5.5370 C   0  0  0  0  0  0  0  0  0  0  0  0
   29.8780   50.3330   -3.1520 C   0  0  0  0  0  0  0  0  0  0  0  0
   29.0750   51.5680   -5.5160 C   0  0  0  0  0  0  0  0  0  0  0  0
   29.5090   51.6770   -3.1410 C   0  0  0  0  0  0  0  0  0  0  0  0
   28.5770   52.3400   -6.9710 Cl  0  0  0  0  0  0  0  0  0  0  0  0
   29.1060   52.2970   -4.3230 C   0  0  0  0  0  0  0  0  0  0  0  0
  1  2  1  0
  2  3  2  0
  2  4  1  0
  4  5  1  0
  5  6  1  0
  6  7  1  0
  6  8  2  0
  7  9  2  3
  7 10  1  0
  8 11  1  0
  9 12  1  0
 10 13  1  0
 11 13  2  0
 11 14  1  0
 12 15  1  0
 14 16  2  0
 13 17  1  0
 15 18  2  3
 16 19  1  0
 17 19  2  0
 18 20  1  0
 18 21  1  0
 21 22  2  0
 21 23  1  0
 22 24  1  0
 23 25  2  0
 24 26  1  0
 24 27  2  0
 25 27  1  0
M  END
