mac-x0223-mac-x0568
     RDKit          3D

 25 26  0  0  0  0  0  0  0  0999 V2000
   27.5040   43.4760   -2.1700 C   0  0  0  0  0  0  0  0  0  0  0  0
   27.7390   44.8120   -1.7570 O   0  0  0  0  0  0  0  0  0  0  0  0
   28.9030   45.4100   -2.1700 C   0  0  0  0  0  0  0  0  0  0  0  0
   29.1970   46.6520   -1.5970 C   0  0  0  0  0  0  0  0  0  0  0  0
   29.7940   44.8680   -3.1040 C   0  0  0  0  0  0  0  0  0  0  0  0
   28.3310   47.1890   -0.6800 O   0  0  0  0  0  0  0  0  0  0  0  0
   30.3550   47.3470   -1.9440 C   0  0  0  0  0  0  0  0  0  0  0  0
   30.9660   45.5590   -3.4630 C   0  0  0  0  0  0  0  0  0  0  0  0
   31.9200   44.9650   -4.4730 C   0  0  0  0  0  0  0  0  0  0  0  0
   31.2390   46.8020   -2.8760 C   0  0  0  0  0  0  0  0  0  0  0  0
   32.3350   45.9440   -5.5460 C   0  0  0  0  0  0  0  0  0  0  0  0
   33.4870   46.3210   -5.7230 O   0  0  0  0  0  0  0  0  0  0  0  0
   31.2590   46.3390   -6.2830 O   0  0  0  0  0  0  0  0  0  0  0  0
   31.0300   47.7630   -6.3310 C   0  0  0  0  0  0  0  0  0  0  0  0
   29.5650   48.1010   -6.0360 C   0  0  0  0  0  0  0  0  0  0  0  0
   29.2840   49.5250   -6.1770 N   0  0  0  0  0  0  0  0  0  0  0  0
   29.1040   50.3200   -5.0580 C   0  0  0  0  0  0  0  0  0  0  0  0
   28.8040   49.8720   -3.9590 O   0  0  0  0  0  0  0  0  0  0  0  0
   29.2840   51.7770   -5.2260 C   0  0  0  0  0  0  0  0  0  0  0  0
   29.7330   52.5940   -4.1980 C   0  0  0  0  0  0  0  0  0  0  0  0
   28.9980   52.3780   -6.4520 C   0  0  0  0  0  0  0  0  0  0  0  0
   29.9080   53.9320   -4.3130 N   0  0  0  0  0  0  0  0  0  0  0  0
   29.1680   53.7550   -6.5980 C   0  0  0  0  0  0  0  0  0  0  0  0
   29.6220   54.4960   -5.5130 C   0  0  0  0  0  0  0  0  0  0  0  0
   29.8130   55.9790   -5.6400 C   0  0  0  0  0  0  0  0  0  0  0  0
  1  2  1  0
  2  3  1  0
  3  4  2  0
  3  5  1  0
  4  6  1  0
  4  7  1  0
  5  8  2  0
  8  9  1  0
  7 10  2  0
  8 10  1  0
  9 11  1  0
 11 12  2  0
 11 13  1  0
 13 14  1  0
 14 15  1  0
 15 16  1  0
 16 17  1  0
 17 18  2  0
 17 19  1  0
 19 20  2  0
 19 21  1  0
 20 22  1  0
 21 23  2  0
 22 24  2  0
 23 24  1  0
 24 25  1  0
M  END
