mac-x0131-mac-x0371
     RDKit          3D

 29 32  0  0  0  0  0  0  0  0999 V2000
   31.1490   47.7850   -3.5300 C   0  0  0  0  0  0  0  0  0  0  0  0
   30.2260   48.4550   -4.5200 C   0  0  0  0  0  0  0  0  0  0  0  0
   29.5760   49.6940   -4.4290 C   0  0  0  0  0  0  0  0  0  0  0  0
   31.0250   46.2670   -3.4270 C   0  0  0  0  0  0  0  0  0  0  0  0
   29.8670   47.9050   -5.7420 N   0  0  0  0  0  0  0  0  0  0  0  0
   32.1220   45.3600   -3.3230 C   0  0  0  0  0  0  0  0  0  0  0  0
   29.7140   45.7490   -3.4410 C   0  0  0  0  0  0  0  0  0  0  0  0
   29.6350   50.6760   -3.3100 C   0  0  0  0  0  0  0  0  0  0  0  0
   30.2850   46.6240   -6.3050 C   0  0  0  0  0  0  0  0  0  0  0  0
   33.5630   45.8550   -3.3020 C   0  0  0  0  0  0  0  0  0  0  0  0
   28.8130   49.8750   -5.6360 C   0  0  0  0  0  0  0  0  0  0  0  0
   29.0210   48.7510   -6.4150 C   0  0  0  0  0  0  0  0  0  0  0  0
   29.4600   44.3860   -3.3570 C   0  0  0  0  0  0  0  0  0  0  0  0
   31.8330   43.9710   -3.2370 C   0  0  0  0  0  0  0  0  0  0  0  0
   33.0630   42.7610   -3.1040 Cl  0  0  0  0  0  0  0  0  0  0  0  0
   34.6640   44.9730   -3.8660 C   0  0  0  0  0  0  0  0  0  0  0  0
   27.9640   50.8550   -6.1780 C   0  0  0  0  0  0  0  0  0  0  0  0
   28.4930   48.5090   -7.6290 N   0  0  0  0  0  0  0  0  0  0  0  0
   31.7620   46.5460   -6.4060 C   0  0  0  0  0  0  0  0  0  0  0  0
   30.5190   43.4970   -3.2550 C   0  0  0  0  0  0  0  0  0  0  0  0
   27.6330   52.0480   -5.5540 N   0  0  0  0  0  0  0  0  0  0  0  0
   34.3130   44.0720   -4.8060 O   0  0  0  0  0  0  0  0  0  0  0  0
   35.8290   45.0730   -3.4880 O   0  0  0  0  0  0  0  0  0  0  0  0
   27.4140   50.6490   -7.3930 N   0  0  0  0  0  0  0  0  0  0  0  0
   27.7040   49.5080   -8.0390 C   0  0  0  0  0  0  0  0  0  0  0  0
   32.6760   45.5130   -6.4870 C   0  0  0  0  0  0  0  0  0  0  0  0
   32.4220   47.7440   -6.4280 O   0  0  0  0  0  0  0  0  0  0  0  0
   33.7470   47.4710   -6.5210 C   0  0  0  0  0  0  0  0  0  0  0  0
   33.9550   46.1140   -6.5610 C   0  0  0  0  0  0  0  0  0  0  0  0
  1  2  1  0
  2  3  2  0
  1  4  1  0
  2  5  1  0
  4  6  2  0
  4  7  1  0
  3  8  1  0
  5  9  1  0
  6 10  1  0
  3 11  1  0
  5 12  1  0
 11 12  2  0
  7 13  2  0
  6 14  1  0
 14 15  1  0
 10 16  1  0
 11 17  1  0
 12 18  1  0
  9 19  1  0
 13 20  1  0
 14 20  2  0
 17 21  1  0
 16 22  1  0
 16 23  2  0
 17 24  2  0
 18 25  2  0
 24 25  1  0
 19 26  2  0
 19 27  1  0
 27 28  1  0
 26 29  1  0
 28 29  2  0
M  END
