mac-x0341-mac-x0301
     RDKit          3D

 19 21  0  0  0  0  0  0  0  0999 V2000
   28.3320   54.7100   -7.4500 N   0  0  0  0  0  0  0  0  0  0  0  0
   28.6840   53.5780   -6.7920 C   0  0  0  0  0  0  0  0  0  0  0  0
   28.6690   52.4310   -7.3930 N   0  0  0  0  0  0  0  0  0  0  0  0
   29.0560   53.7070   -5.4890 N   0  0  0  0  0  0  0  0  0  0  0  0
   29.4040   52.6380   -4.7120 C   0  0  0  0  0  0  0  0  0  0  0  0
   29.0450   51.3120   -6.6730 C   0  0  0  0  0  0  0  0  0  0  0  0
   29.7010   52.7580   -3.5320 O   0  0  0  0  0  0  0  0  0  0  0  0
   29.4070   51.3250   -5.3910 C   0  0  0  0  0  0  0  0  0  0  0  0
   29.0310   50.0270   -7.4510 C   0  0  0  0  0  0  0  0  0  0  0  0
   29.2290   48.7050   -6.6690 C   0  0  1  0  0  0  0  0  0  0  0  0
   29.8210   50.1120   -4.5970 C   0  0  0  0  0  0  0  0  0  0  0  0
   29.2580   48.7730   -5.1120 C   0  0  2  0  0  0  0  0  0  0  0  0
   28.1640   47.8690   -7.1290 O   0  0  0  0  0  0  0  0  0  0  0  0
   30.4870   47.9790   -7.1340 C   0  0  0  0  0  0  0  0  0  0  0  0
   30.0560   47.5950   -4.4730 C   0  0  0  0  0  0  0  0  0  0  0  0
   30.0370   46.8300   -7.8550 O   0  0  0  0  0  0  0  0  0  0  0  0
   28.7240   47.1860   -8.2350 C   0  0  0  0  0  0  0  0  0  0  0  0
   29.8150   46.3850   -5.0290 O   0  0  0  0  0  0  0  0  0  0  0  0
   30.8510   47.6460   -3.5390 O   0  0  0  0  0  0  0  0  0  0  0  0
  1  2  1  0
  2  3  2  0
  2  4  1  0
  4  5  1  0
  3  6  1  0
  5  7  2  0
  5  8  1  0
  6  8  2  0
  6  9  1  0
 10  9  1  6
  8 11  1  0
 10 12  1  0
 11 12  1  0
 10 13  1  0
 10 14  1  0
 12 15  1  6
 14 16  1  0
 13 17  1  0
 16 17  1  0
 15 18  1  0
 15 19  2  0
M  END
