mac-x0436-mac-x0212
     RDKit          3D

 31 33  0  0  0  0  0  0  0  0999 V2000
   33.5300   44.8940   -7.7630 O   0  0  0  0  0  0  0  0  0  0  0  0
   32.8190   44.2990   -6.7750 C   0  0  0  0  0  0  0  0  0  0  0  0
   31.7090   43.8280   -6.9710 O   0  0  0  0  0  0  0  0  0  0  0  0
   33.5560   44.2960   -5.4590 C   0  0  0  0  0  0  0  0  0  0  0  0
   33.1040   45.4410   -4.5610 C   0  0  0  0  0  0  0  0  0  0  0  0
   34.2970   46.0370   -3.8490 C   0  0  0  0  0  0  0  0  0  0  0  0
   34.2900   47.5260   -3.4220 C   0  0  0  0  0  0  0  0  0  0  0  0
   35.3350   45.2850   -3.6090 N   0  0  0  0  0  0  0  0  0  0  0  0
   33.1570   48.1120   -3.1880 N   0  0  0  0  0  0  0  0  0  0  0  0
   35.5410   48.0820   -3.3230 N   0  0  0  0  0  0  0  0  0  0  0  0
   36.4450   45.8700   -2.9620 C   0  0  0  0  0  0  0  0  0  0  0  0
   31.8880   47.3930   -3.3170 C   0  0  0  0  0  0  0  0  0  0  0  0
   36.5600   47.2660   -2.8150 C   0  0  0  0  0  0  0  0  0  0  0  0
   37.4490   45.0410   -2.4590 C   0  0  0  0  0  0  0  0  0  0  0  0
   30.7330   48.0540   -2.7770 O   0  0  0  0  0  0  0  0  0  0  0  0
   38.5600   45.5900   -1.8150 C   0  0  0  0  0  0  0  0  0  0  0  0
   37.6750   47.8120   -2.1700 C   0  0  0  0  0  0  0  0  0  0  0  0
   29.6330   47.9580   -3.5610 C   0  0  0  0  0  0  0  0  0  0  0  0
   38.6720   46.9730   -1.6720 C   0  0  0  0  0  0  0  0  0  0  0  0
   28.9510   46.9590   -3.7200 O   0  0  0  0  0  0  0  0  0  0  0  0
   29.3550   49.2590   -4.2240 C   0  0  0  0  0  0  0  0  0  0  0  0
   29.4070   49.4250   -5.6160 C   0  0  0  0  0  0  0  0  0  0  0  0
   29.0280   50.3550   -3.4140 C   0  0  0  0  0  0  0  0  0  0  0  0
   29.1350   50.6730   -6.1830 C   0  0  0  0  0  0  0  0  0  0  0  0
   28.7570   51.6020   -3.9850 C   0  0  0  0  0  0  0  0  0  0  0  0
   28.8110   51.7630   -5.3720 C   0  0  0  0  0  0  0  0  0  0  0  0
   28.5310   53.0370   -5.9300 N   0  0  0  0  0  0  0  0  0  0  0  0
   29.5440   54.3430   -5.6020 S   0  0  0  0  0  0  0  0  0  0  0  0
   31.0900   53.7970   -6.2990 C   0  0  0  0  0  0  0  0  0  0  0  0
   29.0590   55.4340   -6.4240 O   0  0  0  0  0  0  0  0  0  0  0  0
   29.7110   54.4980   -4.1740 O   0  0  0  0  0  0  0  0  0  0  0  0
  1  2  1  0
  2  3  2  0
  2  4  1  0
  4  5  1  0
  5  6  1  0
  6  7  1  0
  6  8  2  0
  7  9  2  3
  7 10  1  0
  8 11  1  0
  9 12  1  0
 10 13  1  0
 11 13  2  0
 11 14  1  0
 12 15  1  0
 14 16  2  0
 13 17  1  0
 15 18  1  0
 16 19  1  0
 17 19  2  0
 18 20  2  0
 18 21  1  0
 21 22  2  0
 21 23  1  0
 22 24  1  0
 23 25  2  0
 24 26  2  0
 25 26  1  0
 26 27  1  0
 28 27  1  0
 28 29  1  0
 28 30  2  0
 28 31  2  0
M  END
