mac-x0441-mac-x0358
     RDKit          3D

 24 26  0  0  0  0  0  0  0  0999 V2000
   33.4900   45.0760   -6.6520 O   0  0  0  0  0  0  0  0  0  0  0  0
   32.8970   44.9920   -5.4400 C   0  0  0  0  0  0  0  0  0  0  0  0
   31.9720   44.1940   -5.3090 O   0  0  0  0  0  0  0  0  0  0  0  0
   33.4410   45.9100   -4.3550 C   0  0  2  0  0  0  0  0  0  0  0  0
   34.6080   45.3310   -3.6540 N   0  0  0  0  0  0  0  0  0  0  0  0
   32.3980   46.4940   -3.4030 C   0  0  0  0  0  0  0  0  0  0  0  0
   34.5470   44.0300   -3.2500 N   0  0  0  0  0  0  0  0  0  0  0  0
   35.8070   45.9100   -3.3220 C   0  0  0  0  0  0  0  0  0  0  0  0
   32.2590   47.8890   -3.2690 C   0  0  0  0  0  0  0  0  0  0  0  0
   31.5450   45.6800   -2.6310 C   0  0  0  0  0  0  0  0  0  0  0  0
   33.0690   48.7080   -4.0010 O   0  0  0  0  0  0  0  0  0  0  0  0
   35.7320   43.7840   -2.6470 C   0  0  0  0  0  0  0  0  0  0  0  0
   36.5490   44.9450   -2.6750 C   0  0  0  0  0  0  0  0  0  0  0  0
   36.2590   47.3050   -3.5880 C   0  0  0  0  0  0  0  0  0  0  0  0
   31.3160   48.4520   -2.4070 C   0  0  0  0  0  0  0  0  0  0  0  0
   30.5980   46.2430   -1.7670 C   0  0  0  0  0  0  0  0  0  0  0  0
   36.0950   42.4510   -2.0430 C   0  0  0  0  0  0  0  0  0  0  0  0
   37.9220   45.1780   -2.1500 C   0  0  0  0  0  0  0  0  0  0  0  0
   37.5060   47.6260   -2.7420 C   0  0  0  0  0  0  0  0  0  0  0  0
   30.4850   47.6250   -1.6570 C   0  0  0  0  0  0  0  0  0  0  0  0
   36.7970   41.6740   -2.9170 F   0  0  0  0  0  0  0  0  0  0  0  0
   36.8550   42.5430   -0.9210 F   0  0  0  0  0  0  0  0  0  0  0  0
   34.9900   41.7270   -1.7040 F   0  0  0  0  0  0  0  0  0  0  0  0
   38.5220   46.4690   -2.7380 C   0  0  0  0  0  0  0  0  0  0  0  0
  1  2  1  0
  2  3  2  0
  4  2  1  1
  4  5  1  0
  4  6  1  0
  5  7  1  0
  5  8  1  0
  6  9  2  0
  6 10  1  0
  9 11  1  0
  7 12  2  0
  8 13  2  0
 12 13  1  0
  8 14  1  0
  9 15  1  0
 10 16  2  0
 12 17  1  0
 13 18  1  0
 14 19  1  0
 15 20  2  0
 16 20  1  0
 17 21  1  0
 17 22  1  0
 17 23  1  0
 18 24  1  0
 19 24  1  0
M  END
