mac-x0231-mac-x0576
     RDKit          3D

 28 31  0  0  0  0  0  0  0  0999 V2000
   34.5470   43.9440   -5.5980 O   0  0  0  0  0  0  0  0  0  0  0  0
   33.2700   43.5200   -5.7010 C   0  0  0  0  0  0  0  0  0  0  0  0
   32.7000   43.5610   -6.7810 O   0  0  0  0  0  0  0  0  0  0  0  0
   32.6980   43.0410   -4.3850 C   0  0  0  0  0  0  0  0  0  0  0  0
   31.5130   43.8920   -3.9990 C   0  0  0  0  0  0  0  0  0  0  0  0
   31.7520   45.3280   -3.7780 C   0  0  0  0  0  0  0  0  0  0  0  0
   30.3390   43.3440   -3.9400 N   0  0  0  0  0  0  0  0  0  0  0  0
   30.6480   46.1870   -3.8090 C   0  0  0  0  0  0  0  0  0  0  0  0
   29.3170   44.1840   -3.6700 N   0  0  0  0  0  0  0  0  0  0  0  0
   33.0540   45.8080   -3.5670 C   0  0  0  0  0  0  0  0  0  0  0  0
   29.3210   45.5270   -3.9900 C   0  0  0  0  0  0  0  0  0  0  0  0
   30.8980   47.5740   -3.6730 C   0  0  0  0  0  0  0  0  0  0  0  0
   33.2790   47.1590   -3.4000 C   0  0  0  0  0  0  0  0  0  0  0  0
   28.2860   46.0680   -4.3580 O   0  0  0  0  0  0  0  0  0  0  0  0
   30.0300   48.6550   -3.7330 N   0  0  0  0  0  0  0  0  0  0  0  0
   32.2080   48.0240   -3.4620 C   0  0  0  0  0  0  0  0  0  0  0  0
   29.8850   49.1230   -4.9560 C   0  0  0  0  0  0  0  0  0  0  0  0
   30.4260   48.5880   -6.1190 N   0  0  0  0  0  0  0  0  0  0  0  0
   29.0950   50.4130   -5.2060 C   0  0  1  0  0  0  0  0  0  0  0  0
   29.5880   48.5580   -7.2810 C   0  0  2  0  0  0  0  0  0  0  0  0
   28.2620   50.2970   -6.5070 C   0  0  2  0  0  0  0  0  0  0  0  0
   28.2480   50.8690   -4.1000 N   0  0  0  0  0  0  0  0  0  0  0  0
   30.1890   48.1560   -8.5210 N   0  0  0  0  0  0  0  0  0  0  0  0
   28.9650   49.7910   -7.6750 N   0  0  0  0  0  0  0  0  0  0  0  0
   27.8440   51.6180   -6.8560 N   0  0  0  0  0  0  0  0  0  0  0  0
   27.8530   52.2480   -4.4350 C   0  0  0  0  0  0  0  0  0  0  0  0
   28.0490   52.6180   -5.9260 C   0  0  0  0  0  0  0  0  0  0  0  0
   28.3810   53.7450   -6.2870 O   0  0  0  0  0  0  0  0  0  0  0  0
  1  2  1  0
  2  3  2  0
  2  4  1  0
  4  5  1  0
  5  6  1  0
  5  7  2  0
  6  8  2  0
  7  9  1  0
  6 10  1  0
  8 11  1  0
  9 11  1  0
  8 12  1  0
 10 13  2  0
 11 14  2  0
 12 15  1  0
 12 16  2  0
 13 16  1  0
 15 17  2  3
 17 18  1  0
 17 19  1  0
 18 20  1  0
 19 21  1  0
 19 22  1  1
 20 23  1  6
 20 24  1  0
 21 24  1  6
 21 25  1  0
 22 26  1  0
 25 27  1  0
 26 27  1  0
 27 28  2  0
M  END
