mac-x0345-mac-x0337
     RDKit          3D

 20 21  0  0  0  0  0  0  0  0999 V2000
   29.1570   55.3580   -4.5060 C   0  0  0  0  0  0  0  0  0  0  0  0
   29.2230   53.8840   -4.2400 C   0  0  0  0  0  0  0  0  0  0  0  0
   29.5660   53.5340   -2.9690 N   0  0  0  0  0  0  0  0  0  0  0  0
   28.9550   52.9370   -5.2250 C   0  0  0  0  0  0  0  0  0  0  0  0
   28.4770   53.4310   -7.0010 Br  0  0  0  0  0  0  0  0  0  0  0  0
   29.0520   51.5950   -4.8670 C   0  0  0  0  0  0  0  0  0  0  0  0
   29.6490   52.2300   -2.6590 C   0  0  0  0  0  0  0  0  0  0  0  0
   30.0020   51.9120   -1.3520 N   0  0  0  0  0  0  0  0  0  0  0  0
   28.8070   50.5640   -5.8070 N   0  0  0  0  0  0  0  0  0  0  0  0
   29.4010   51.2340   -3.5740 C   0  0  0  0  0  0  0  0  0  0  0  0
   29.9870   49.3620   -5.8670 S   0  0  0  0  0  0  0  0  0  0  0  0
   29.8280   48.4950   -4.7220 O   0  0  0  0  0  0  0  0  0  0  0  0
   29.9490   48.8470   -7.2160 O   0  0  0  0  0  0  0  0  0  0  0  0
   31.5070   50.2780   -5.6650 C   0  0  0  0  0  0  0  0  0  0  0  0
   32.6340   49.6310   -5.1520 C   0  0  0  0  0  0  0  0  0  0  0  0
   31.5680   51.6300   -6.0200 C   0  0  0  0  0  0  0  0  0  0  0  0
   33.8250   50.3410   -4.9930 C   0  0  0  0  0  0  0  0  0  0  0  0
   32.7650   52.3340   -5.8570 C   0  0  0  0  0  0  0  0  0  0  0  0
   33.9030   51.6940   -5.3440 C   0  0  0  0  0  0  0  0  0  0  0  0
   35.1860   52.4470   -5.1710 C   0  0  0  0  0  0  0  0  0  0  0  0
  1  2  1  0
  2  3  2  0
  2  4  1  0
  4  5  1  0
  4  6  2  0
  3  7  1  0
  7  8  1  0
  6  9  1  0
  6 10  1  0
  7 10  2  0
 11  9  1  0
 11 12  2  0
 11 13  2  0
 11 14  1  0
 14 15  2  0
 14 16  1  0
 15 17  1  0
 16 18  2  0
 17 19  2  0
 18 19  1  0
 19 20  1  0
M  END
