mac-x0271-mac-x0404
     RDKit          3D

 29 32  0  0  0  0  0  0  0  0999 V2000
   29.8080   50.6890   -2.0670 O   0  0  0  0  0  0  0  0  0  0  0  0
   29.8020   51.4990   -3.1660 C   0  0  0  0  0  0  0  0  0  0  0  0
   30.3640   51.1440   -4.4050 C   0  0  0  0  0  0  0  0  0  0  0  0
   29.1890   52.7360   -2.9850 C   0  0  0  0  0  0  0  0  0  0  0  0
   31.0440   49.8220   -4.6760 C   0  0  0  0  0  0  0  0  0  0  0  0
   29.1350   53.6280   -4.0490 C   0  0  0  0  0  0  0  0  0  0  0  0
   30.2920   52.0720   -5.4650 C   0  0  0  0  0  0  0  0  0  0  0  0
   31.6420   49.1870   -3.4170 C   0  0  0  0  0  0  0  0  0  0  0  0
   29.6780   53.3150   -5.2920 C   0  0  0  0  0  0  0  0  0  0  0  0
   28.5070   54.8690   -3.8250 O   0  0  0  0  0  0  0  0  0  0  0  0
   29.5900   54.2920   -6.3670 C   0  0  0  0  0  0  0  0  0  0  0  0
   28.5480   55.8690   -4.7860 C   0  0  0  0  0  0  0  0  0  0  0  0
   31.0220   47.8350   -3.1690 C   0  0  0  0  0  0  0  0  0  0  0  0
   28.1860   57.0180   -4.5580 O   0  0  0  0  0  0  0  0  0  0  0  0
   29.0550   55.4920   -6.1190 C   0  0  0  0  0  0  0  0  0  0  0  0
   30.1880   47.6190   -2.0640 C   0  0  0  0  0  0  0  0  0  0  0  0
   31.2730   46.7790   -4.0430 C   0  0  0  0  0  0  0  0  0  0  0  0
   30.7000   45.5270   -3.8190 C   0  0  0  0  0  0  0  0  0  0  0  0
   29.6010   46.3630   -1.8250 C   0  0  0  0  0  0  0  0  0  0  0  0
   30.9850   44.5240   -4.7200 O   0  0  0  0  0  0  0  0  0  0  0  0
   29.8550   45.2910   -2.7120 C   0  0  0  0  0  0  0  0  0  0  0  0
   28.7660   46.1600   -0.7140 C   0  0  0  0  0  0  0  0  0  0  0  0
   32.3800   44.2010   -4.7110 C   0  0  0  0  0  0  0  0  0  0  0  0
   28.1830   44.9160   -0.4740 C   0  0  0  0  0  0  0  0  0  0  0  0
   29.2550   44.0410   -2.4480 C   0  0  0  0  0  0  0  0  0  0  0  0
   33.0030   44.1010   -6.0970 C   0  0  0  0  0  0  0  0  0  0  0  0
   28.4260   43.8570   -1.3400 C   0  0  0  0  0  0  0  0  0  0  0  0
   32.1120   43.6880   -7.0270 O   0  0  0  0  0  0  0  0  0  0  0  0
   34.1550   44.3420   -6.4260 O   0  0  0  0  0  0  0  0  0  0  0  0
  1  2  1  0
  2  3  2  0
  2  4  1  0
  3  5  1  0
  4  6  2  0
  3  7  1  0
  5  8  1  0
  6  9  1  0
  7  9  2  0
  6 10  1  0
  9 11  1  0
 10 12  1  0
  8 13  1  0
 12 14  2  0
 11 15  2  0
 12 15  1  0
 13 16  2  0
 13 17  1  0
 17 18  2  0
 16 19  1  0
 18 20  1  0
 18 21  1  0
 19 21  2  0
 19 22  1  0
 20 23  1  0
 22 24  2  0
 21 25  1  0
 23 26  1  0
 24 27  1  0
 25 27  2  0
 26 28  1  0
 26 29  2  0
M  END
