mac-x0572-mac-x0398
     RDKit          3D

 17 18  0  0  0  0  0  0  0  0999 V2000
   28.4020   56.1820   -6.8640 C   0  0  0  0  0  0  0  0  0  0  0  0
   28.9040   54.9930   -6.0840 C   0  0  0  0  0  0  0  0  0  0  0  0
   28.4800   53.7810   -6.5870 N   0  0  0  0  0  0  0  0  0  0  0  0
   29.6890   55.1470   -5.0030 C   0  0  0  0  0  0  0  0  0  0  0  0
   30.1030   56.3690   -4.5130 O   0  0  0  0  0  0  0  0  0  0  0  0
   30.1370   53.9250   -4.2940 C   0  0  0  0  0  0  0  0  0  0  0  0
   29.0260   52.6770   -6.1480 C   0  0  0  0  0  0  0  0  0  0  0  0
   30.4880   54.0280   -3.1180 O   0  0  0  0  0  0  0  0  0  0  0  0
   30.1230   52.6450   -5.0960 C   0  0  2  0  0  0  0  0  0  0  0  0
   28.5550   51.3550   -6.7050 C   0  0  0  0  0  0  0  0  0  0  0  0
   27.9320   51.3690   -7.9360 N   0  0  0  0  0  0  0  0  0  0  0  0
   28.7760   50.2580   -5.9600 C   0  0  0  0  0  0  0  0  0  0  0  0
   30.0680   51.3990   -4.2520 C   0  0  0  0  0  0  0  0  0  0  0  0
   29.4340   50.2810   -4.6660 C   0  0  0  0  0  0  0  0  0  0  0  0
   29.4430   49.1000   -3.7540 C   0  0  0  0  0  0  0  0  0  0  0  0
   29.2520   49.1110   -2.5520 O   0  0  0  0  0  0  0  0  0  0  0  0
   29.6940   47.9480   -4.3990 O   0  0  0  0  0  0  0  0  0  0  0  0
  1  2  1  0
  2  3  1  0
  2  4  2  0
  4  5  1  0
  4  6  1  0
  3  7  2  0
  6  8  2  0
  6  9  1  0
  7  9  1  0
  7 10  1  0
 10 11  1  0
 10 12  2  0
  9 13  1  1
 12 14  1  0
 13 14  2  0
 14 15  1  0
 15 16  2  0
 15 17  1  0
M  END
