mac-x0380-mac-x0365
     RDKit          3D

 17 18  0  0  0  0  0  0  0  0999 V2000
   30.1380   48.7150   -5.0100 O   0  0  0  0  0  0  0  0  0  0  0  0
   29.5740   49.3650   -3.9340 C   0  0  0  0  0  0  0  0  0  0  0  0
   29.7800   49.0500   -2.7670 O   0  0  0  0  0  0  0  0  0  0  0  0
   29.4720   47.4220   -5.2290 O   0  0  0  0  0  0  0  0  0  0  0  0
   28.6770   50.5110   -4.3900 C   0  0  1  0  0  0  0  0  0  0  0  0
   29.1320   51.9200   -3.9760 C   0  0  2  0  0  0  0  0  0  0  0  0
   28.4430   50.4960   -5.8780 C   0  0  0  0  0  0  0  0  0  0  0  0
   30.3570   52.3560   -4.5150 O   0  0  0  0  0  0  0  0  0  0  0  0
   29.3690   51.9590   -2.6190 F   0  0  0  0  0  0  0  0  0  0  0  0
   28.0930   52.9910   -4.3080 C   0  0  2  0  0  0  0  0  0  0  0  0
   27.9810   51.5850   -6.5150 C   0  0  0  0  0  0  0  0  0  0  0  0
   27.6570   52.8940   -5.8120 C   0  0  2  0  0  0  0  0  0  0  0  0
   28.7700   54.6330   -3.8720 S   0  0  0  0  0  0  0  0  0  0  0  0
   28.0290   53.9800   -6.7260 N   0  0  0  0  0  0  0  0  0  0  0  0
   28.7000   55.7650   -5.2230 C   0  0  0  0  0  0  0  0  0  0  0  0
   28.1290   55.3310   -6.5100 C   0  0  0  0  0  0  0  0  0  0  0  0
   27.7690   56.1830   -7.3020 O   0  0  0  0  0  0  0  0  0  0  0  0
  1  2  1  0
  2  3  2  0
  1  4  1  0
  5  2  1  6
  5  6  1  0
  5  7  1  0
  6  8  1  6
  6  9  1  0
  6 10  1  0
  7 11  2  0
 10 12  1  0
 12 11  1  6
 10 13  1  6
 12 14  1  0
 13 15  2  0
 14 16  1  0
 15 16  1  0
 16 17  2  0
M  END
