mac-x0255-mac-x0305
     RDKit          3D

 22 24  0  0  0  0  0  0  0  0999 V2000
   31.7970   47.0000   -6.0680 O   0  0  0  0  0  0  0  0  0  0  0  0
   32.5460   45.8970   -6.3290 C   0  0  0  0  0  0  0  0  0  0  0  0
   33.6630   45.8450   -6.8330 O   0  0  0  0  0  0  0  0  0  0  0  0
   31.0060   47.4920   -7.0540 C   0  0  0  0  0  0  0  0  0  0  0  0
   31.8040   44.6410   -5.9020 C   0  0  0  0  0  0  0  0  0  0  0  0
   30.8800   47.1100   -8.2040 O   0  0  0  0  0  0  0  0  0  0  0  0
   30.2580   48.6490   -6.4790 C   0  0  0  0  0  0  0  0  0  0  0  0
   30.9970   44.8640   -4.6550 C   0  0  0  0  0  0  0  0  0  0  0  0
   28.9760   48.9770   -6.9340 C   0  0  0  0  0  0  0  0  0  0  0  0
   30.9000   49.3470   -5.4980 N   0  0  0  0  0  0  0  0  0  0  0  0
   28.3580   48.2610   -7.9150 O   0  0  0  0  0  0  0  0  0  0  0  0
   29.7640   44.3330   -4.3370 C   0  0  0  0  0  0  0  0  0  0  0  0
   31.5760   45.8810   -3.4090 S   0  0  0  0  0  0  0  0  0  0  0  0
   28.3260   50.0670   -6.3580 C   0  0  0  0  0  0  0  0  0  0  0  0
   30.2420   50.3950   -4.9620 C   0  0  0  0  0  0  0  0  0  0  0  0
   29.2760   44.7580   -3.0590 C   0  0  0  0  0  0  0  0  0  0  0  0
   30.1820   45.6210   -2.4360 C   0  0  0  0  0  0  0  0  0  0  0  0
   28.9690   50.7880   -5.3540 C   0  0  0  0  0  0  0  0  0  0  0  0
   28.0750   44.4440   -2.3810 C   0  0  0  0  0  0  0  0  0  0  0  0
   29.9170   46.1720   -1.1660 C   0  0  0  0  0  0  0  0  0  0  0  0
   27.8090   44.9870   -1.1220 C   0  0  0  0  0  0  0  0  0  0  0  0
   28.7230   45.8440   -0.5210 C   0  0  0  0  0  0  0  0  0  0  0  0
  1  2  1  0
  2  3  2  0
  1  4  1  0
  2  5  1  0
  4  6  2  0
  4  7  1  0
  5  8  1  0
  7  9  2  0
  7 10  1  0
  9 11  1  0
  8 12  2  0
  8 13  1  0
  9 14  1  0
 10 15  2  0
 12 16  1  0
 13 17  1  0
 16 17  2  0
 14 18  2  0
 15 18  1  0
 16 19  1  0
 17 20  1  0
 19 21  2  0
 20 22  2  0
 21 22  1  0
M  END
