mac-x0190-mac-x0348
     RDKit          3D

 29 32  0  0  0  0  0  0  0  0999 V2000
   28.7390   56.8590   -5.3990 O   0  0  0  0  0  0  0  0  0  0  0  0
   29.8340   56.2040   -4.7650 C   0  0  0  0  0  0  0  0  0  0  0  0
   29.5880   54.7460   -4.8760 C   0  0  0  0  0  0  0  0  0  0  0  0
   29.7040   53.9020   -3.7940 N   0  0  0  0  0  0  0  0  0  0  0  0
   29.2430   54.0830   -5.9570 N   0  0  0  0  0  0  0  0  0  0  0  0
   29.4130   52.6290   -4.2150 C   0  0  0  0  0  0  0  0  0  0  0  0
   29.1310   52.7740   -5.5650 C   0  0  0  0  0  0  0  0  0  0  0  0
   29.3720   51.3920   -3.5520 C   0  0  0  0  0  0  0  0  0  0  0  0
   28.7900   51.6550   -6.3230 C   0  0  0  0  0  0  0  0  0  0  0  0
   29.0210   50.2700   -4.3340 C   0  0  0  0  0  0  0  0  0  0  0  0
   28.7390   50.4110   -5.6940 C   0  0  0  0  0  0  0  0  0  0  0  0
   28.9360   48.8870   -3.7410 C   0  0  0  0  0  0  0  0  0  0  0  0
   28.4290   47.8290   -4.7390 C   0  0  0  0  0  0  0  0  0  0  0  0
   29.5780   47.0100   -5.3490 C   0  0  0  0  0  0  0  0  0  0  0  0
   30.5620   46.5000   -4.2800 C   0  0  2  0  0  0  0  0  0  0  0  0
   31.5620   45.4660   -4.7960 C   0  0  0  0  0  0  0  0  0  0  0  0
   29.7850   46.1700   -3.0330 C   0  0  0  0  0  0  0  0  0  0  0  0
   32.2110   45.9520   -6.0600 C   0  0  0  0  0  0  0  0  0  0  0  0
   28.9240   45.1190   -2.7770 C   0  0  0  0  0  0  0  0  0  0  0  0
   29.8240   46.9680   -1.8570 C   0  0  0  0  0  0  0  0  0  0  0  0
   31.7050   45.9360   -7.1700 O   0  0  0  0  0  0  0  0  0  0  0  0
   33.4540   46.4410   -5.8830 O   0  0  0  0  0  0  0  0  0  0  0  0
   28.4430   45.2590   -1.5010 N   0  0  0  0  0  0  0  0  0  0  0  0
   28.9820   46.3910   -0.9140 C   0  0  0  0  0  0  0  0  0  0  0  0
   30.5180   48.1510   -1.5280 C   0  0  0  0  0  0  0  0  0  0  0  0
   27.5110   44.3540   -0.8750 C   0  0  0  0  0  0  0  0  0  0  0  0
   30.3500   48.7240   -0.2710 C   0  0  0  0  0  0  0  0  0  0  0  0
   28.8030   46.9570    0.3590 C   0  0  0  0  0  0  0  0  0  0  0  0
   29.5030   48.1350    0.6600 C   0  0  0  0  0  0  0  0  0  0  0  0
  1  2  1  0
  2  3  1  0
  3  4  1  0
  3  5  2  0
  4  6  1  0
  5  7  1  0
  6  7  2  0
  6  8  1  0
  7  9  1  0
  8 10  2  0
  9 11  2  0
 10 11  1  0
 10 12  1  0
 12 13  1  0
 13 14  1  0
 15 14  1  6
 15 16  1  0
 15 17  1  0
 16 18  1  0
 17 19  2  0
 17 20  1  0
 18 21  2  0
 18 22  1  0
 19 23  1  0
 20 24  2  0
 23 24  1  0
 20 25  1  0
 23 26  1  0
 25 27  2  0
 24 28  1  0
 27 29  1  0
 28 29  2  0
M  END
