mac-x0213-mac-x0441
     RDKit          3D

 27 30  0  0  0  0  0  0  0  0999 V2000
   33.0950   45.8880   -5.5060 N   0  0  0  0  0  0  0  0  0  0  0  0
   31.8600   46.2080   -5.9740 C   0  0  0  0  0  0  0  0  0  0  0  0
   31.6120   46.3450   -7.1740 O   0  0  0  0  0  0  0  0  0  0  0  0
   34.0950   45.4770   -6.4100 O   0  0  0  0  0  0  0  0  0  0  0  0
   33.0420   45.0070   -4.3460 C   0  0  0  0  0  0  0  0  0  0  0  0
   30.7400   46.3830   -4.9620 C   0  0  0  0  0  0  0  0  0  0  0  0
   34.2640   44.8400   -3.5870 N   0  0  0  0  0  0  0  0  0  0  0  0
   31.0760   47.2240   -3.7200 C   0  0  0  0  0  0  0  0  0  0  0  0
   30.1450   45.0540   -4.4660 C   0  0  0  0  0  0  0  0  0  0  0  0
   34.5160   43.6340   -3.0460 N   0  0  0  0  0  0  0  0  0  0  0  0
   35.2380   45.7540   -3.3220 C   0  0  0  0  0  0  0  0  0  0  0  0
   30.0480   46.7130   -2.7570 C   0  0  0  0  0  0  0  0  0  0  0  0
   29.5220   45.4880   -3.1780 C   0  0  0  0  0  0  0  0  0  0  0  0
   35.6870   43.7730   -2.4140 C   0  0  0  0  0  0  0  0  0  0  0  0
   36.1840   45.0990   -2.5640 C   0  0  0  0  0  0  0  0  0  0  0  0
   35.2940   47.1770   -3.7550 C   0  0  0  0  0  0  0  0  0  0  0  0
   36.3180   42.6290   -1.6720 C   0  0  0  0  0  0  0  0  0  0  0  0
   29.6160   47.3100   -1.5850 C   0  0  0  0  0  0  0  0  0  0  0  0
   28.5530   44.8330   -2.4390 C   0  0  0  0  0  0  0  0  0  0  0  0
   37.4230   45.7540   -2.0680 C   0  0  0  0  0  0  0  0  0  0  0  0
   36.3390   47.9200   -2.9020 C   0  0  0  0  0  0  0  0  0  0  0  0
   37.4100   42.1470   -2.3210 F   0  0  0  0  0  0  0  0  0  0  0  0
   36.7370   43.0050   -0.4300 F   0  0  0  0  0  0  0  0  0  0  0  0
   35.4700   41.5810   -1.4860 F   0  0  0  0  0  0  0  0  0  0  0  0
   28.6380   46.6570   -0.8330 C   0  0  0  0  0  0  0  0  0  0  0  0
   28.1100   45.4270   -1.2570 C   0  0  0  0  0  0  0  0  0  0  0  0
   37.6460   47.1160   -2.7580 C   0  0  0  0  0  0  0  0  0  0  0  0
  1  2  1  0
  2  3  2  0
  1  4  1  0
  1  5  1  0
  2  6  1  0
  5  7  1  0
  6  8  1  0
  6  9  1  0
  7 10  1  0
  7 11  1  0
  8 12  1  0
  9 13  1  0
 12 13  2  0
 10 14  2  0
 11 15  2  0
 14 15  1  0
 11 16  1  0
 14 17  1  0
 12 18  1  0
 13 19  1  0
 15 20  1  0
 16 21  1  0
 17 22  1  0
 17 23  1  0
 17 24  1  0
 18 25  2  0
 19 26  2  0
 25 26  1  0
 20 27  1  0
 21 27  1  0
M  END
