mac-x0228-mac-x0510
     RDKit          3D

 22 25  0  0  0  0  0  0  0  0999 V2000
   31.0400   48.6460   -4.9300 O   0  0  0  0  0  0  0  0  0  0  0  0
   29.8200   49.3120   -4.7160 C   0  0  0  0  0  0  0  0  0  0  0  0
   29.0420   48.5030   -3.8350 O   0  0  0  0  0  0  0  0  0  0  0  0
   30.2080   50.6280   -4.0320 C   0  0  0  0  0  0  0  0  0  0  0  0
   28.9080   49.4720   -5.9390 C   0  0  0  0  0  0  0  0  0  0  0  0
   30.3240   51.8430   -4.7280 C   0  0  0  0  0  0  0  0  0  0  0  0
   30.4640   50.6340   -2.6280 C   0  0  0  0  0  0  0  0  0  0  0  0
   28.9290   48.4320   -6.9670 C   0  0  0  0  0  0  0  0  0  0  0  0
   28.1060   50.4740   -6.1460 N   0  0  0  0  0  0  0  0  0  0  0  0
   30.6770   52.9920   -4.0400 C   0  0  0  0  0  0  0  0  0  0  0  0
   30.8190   51.8020   -1.9470 C   0  0  0  0  0  0  0  0  0  0  0  0
   27.3130   50.5480   -7.2840 C   0  0  0  0  0  0  0  0  0  0  0  0
   28.0730   48.5910   -8.1300 C   0  0  0  0  0  0  0  0  0  0  0  0
   29.5840   47.3200   -7.0880 N   0  0  0  0  0  0  0  0  0  0  0  0
   26.5790   51.5220   -7.4020 O   0  0  0  0  0  0  0  0  0  0  0  0
   30.9180   52.9660   -2.6770 C   0  0  0  0  0  0  0  0  0  0  0  0
   30.8600   54.3720   -4.5400 C   0  0  0  0  0  0  0  0  0  0  0  0
   27.2990   49.5950   -8.2870 N   0  0  0  0  0  0  0  0  0  0  0  0
   28.2500   47.5240   -8.9560 N   0  0  0  0  0  0  0  0  0  0  0  0
   29.1320   46.8130   -8.3100 C   0  0  0  0  0  0  0  0  0  0  0  0
   31.2530   54.1860   -2.1550 O   0  0  0  0  0  0  0  0  0  0  0  0
   30.8880   55.1140   -3.2040 C   0  0  0  0  0  0  0  0  0  0  0  0
  2  1  1  0
  2  3  1  0
  2  4  1  0
  2  5  1  0
  4  6  2  0
  4  7  1  0
  5  8  1  0
  5  9  2  0
  6 10  1  0
  7 11  2  0
  9 12  1  0
  8 13  1  0
  8 14  2  0
 12 15  2  0
 10 16  2  0
 11 16  1  0
 10 17  1  0
 12 18  1  0
 13 18  2  0
 13 19  1  0
 14 20  1  0
 19 20  2  0
 16 21  1  0
 17 22  1  0
 21 22  1  0
M  END
