mac-x0385-mac-x0360
     RDKit          3D

 20 21  0  0  0  0  0  0  0  0999 V2000
   29.8080   51.3490   -2.7620 C   0  0  0  0  0  0  0  0  0  0  0  0
   29.4150   50.0670   -3.4120 C   0  0  0  0  0  0  0  0  0  0  0  0
   29.4960   48.8580   -2.7570 C   0  0  0  0  0  0  0  0  0  0  0  0
   28.9450   49.9790   -4.7050 C   0  0  0  0  0  0  0  0  0  0  0  0
   28.8070   51.1750   -5.5230 N   0  0  0  0  0  0  0  0  0  0  0  0
   28.5870   48.8360   -5.3110 N   0  0  0  0  0  0  0  0  0  0  0  0
   29.1510   47.6810   -3.3130 N   0  0  0  0  0  0  0  0  0  0  0  0
   29.6920   51.2570   -6.7570 S   0  0  1  0  0  0  0  0  0  0  0  0
   28.7070   47.7190   -4.5810 C   0  0  0  0  0  0  0  0  0  0  0  0
   28.3170   46.4290   -5.2290 C   0  0  0  0  0  0  0  0  0  0  0  0
   30.0160   49.6210   -6.9850 N   0  0  0  0  0  0  0  0  0  0  0  0
   29.2940   51.6450   -8.0880 O   0  0  0  0  0  0  0  0  0  0  0  0
   31.2030   52.0720   -6.3480 C   0  0  0  0  0  0  0  0  0  0  0  0
   32.2810   51.3440   -5.8360 C   0  0  0  0  0  0  0  0  0  0  0  0
   31.2930   53.4510   -6.5480 C   0  0  0  0  0  0  0  0  0  0  0  0
   33.4600   52.0200   -5.5220 C   0  0  0  0  0  0  0  0  0  0  0  0
   32.4800   54.1030   -6.2290 C   0  0  0  0  0  0  0  0  0  0  0  0
   32.6050   55.8030   -6.4720 Cl  0  0  0  0  0  0  0  0  0  0  0  0
   34.8030   51.1480   -4.8870 Cl  0  0  0  0  0  0  0  0  0  0  0  0
   33.5660   53.3960   -5.7160 C   0  0  0  0  0  0  0  0  0  0  0  0
  1  2  1  0
  2  3  2  0
  2  4  1  0
  4  5  1  0
  4  6  2  0
  3  7  1  0
  5  8  2  0
  6  9  1  0
  7  9  2  0
  9 10  1  0
  8 11  1  6
  8 12  2  0
  8 13  1  0
 13 14  2  0
 13 15  1  0
 14 16  1  0
 15 17  2  0
 17 18  1  0
 16 19  1  0
 16 20  2  0
 17 20  1  0
M  END
