mac-x0223-mac-x0496
     RDKit          3D

 32 34  0  0  0  0  0  0  0  0999 V2000
   27.5010   43.8170   -1.5320 C   0  0  0  0  0  0  0  0  0  0  0  0
   28.2920   44.8930   -1.0290 O   0  0  0  0  0  0  0  0  0  0  0  0
   29.1080   45.4560   -1.9660 C   0  0  0  0  0  0  0  0  0  0  0  0
   28.7130   46.7250   -2.3870 C   0  0  0  0  0  0  0  0  0  0  0  0
   30.2520   44.8600   -2.5180 C   0  0  0  0  0  0  0  0  0  0  0  0
   27.5950   47.3030   -1.8340 O   0  0  0  0  0  0  0  0  0  0  0  0
   29.4520   47.3730   -3.3770 C   0  0  0  0  0  0  0  0  0  0  0  0
   30.9920   45.5410   -3.4960 C   0  0  0  0  0  0  0  0  0  0  0  0
   32.2260   45.0110   -4.1720 C   0  0  0  0  0  0  0  0  0  0  0  0
   29.2020   48.5820   -3.9840 N   0  0  0  0  0  0  0  0  0  0  0  0
   30.5710   46.7770   -3.8970 C   0  0  0  0  0  0  0  0  0  0  0  0
   32.4990   45.7710   -5.4710 C   0  0  0  0  0  0  0  0  0  0  0  0
   29.3710   49.7720   -3.6250 C   0  0  0  0  0  0  0  0  0  0  0  0
   33.4950   46.4380   -5.7200 O   0  0  0  0  0  0  0  0  0  0  0  0
   31.4940   45.6570   -6.3770 O   0  0  0  0  0  0  0  0  0  0  0  0
   29.8670   50.0820   -2.4160 O   0  0  0  0  0  0  0  0  0  0  0  0
   29.0640   50.9030   -4.4950 C   0  0  0  0  0  0  0  0  0  0  0  0
   28.5410   50.5770   -5.7550 C   0  0  0  0  0  0  0  0  0  0  0  0
   29.2720   52.2240   -4.1280 C   0  0  0  0  0  0  0  0  0  0  0  0
   28.2210   51.5780   -6.6590 C   0  0  0  0  0  0  0  0  0  0  0  0
   28.9540   53.2360   -5.0310 C   0  0  0  0  0  0  0  0  0  0  0  0
   29.1530   54.6730   -4.7090 C   0  0  0  0  0  0  0  0  0  0  0  0
   28.4290   52.9070   -6.2950 C   0  0  0  0  0  0  0  0  0  0  0  0
   29.1840   55.5910   -5.7310 N   0  0  0  0  0  0  0  0  0  0  0  0
   29.2880   55.0010   -3.5350 O   0  0  0  0  0  0  0  0  0  0  0  0
   29.2510   57.0110   -5.4460 C   0  0  0  0  0  0  0  0  0  0  0  0
   27.8930   57.6140   -5.3250 C   0  0  0  0  0  0  0  0  0  0  0  0
   27.6040   58.3680   -4.2170 O   0  0  0  0  0  0  0  0  0  0  0  0
   26.8810   57.5300   -6.1620 N   0  0  0  0  0  0  0  0  0  0  0  0
   25.9170   58.2690   -5.5380 C   0  0  0  0  0  0  0  0  0  0  0  0
   26.2810   58.8030   -4.3650 N   0  0  0  0  0  0  0  0  0  0  0  0
   24.5760   58.4570   -6.1240 C   0  0  0  0  0  0  0  0  0  0  0  0
  1  2  1  0
  2  3  1  0
  3  4  2  0
  3  5  1  0
  4  6  1  0
  4  7  1  0
  5  8  2  0
  8  9  1  0
  7 10  1  0
  7 11  2  0
  8 11  1  0
  9 12  1  0
 10 13  2  3
 12 14  2  0
 12 15  1  0
 13 16  1  0
 13 17  1  0
 17 18  2  0
 17 19  1  0
 18 20  1  0
 19 21  2  0
 21 22  1  0
 20 23  2  0
 21 23  1  0
 22 24  1  0
 22 25  2  0
 24 26  1  0
 26 27  1  0
 27 28  1  0
 27 29  2  0
 29 30  1  0
 28 31  1  0
 30 31  2  0
 30 32  1  0
M  END
