mac-x0347-mac-x0441
     RDKit          3D

 31 34  0  0  0  0  0  0  0  0999 V2000
   30.6240   45.4390   -5.1520 O   0  0  0  0  0  0  0  0  0  0  0  0
   31.3290   46.5700   -5.0030 C   0  0  0  0  0  0  0  0  0  0  0  0
   32.5850   46.5400   -5.2440 N   0  0  0  0  0  0  0  0  0  0  0  0
   30.4480   47.6500   -4.5680 C   0  0  0  0  0  0  0  0  0  0  0  0
   33.2190   45.2840   -5.6670 C   0  0  2  0  0  0  0  0  0  0  0  0
   30.3610   48.8310   -5.3050 C   0  0  0  0  0  0  0  0  0  0  0  0
   29.6880   47.5100   -3.4220 C   0  0  0  0  0  0  0  0  0  0  0  0
   32.5530   44.7240   -6.7900 O   0  0  0  0  0  0  0  0  0  0  0  0
   33.1880   44.3150   -4.4730 C   0  0  0  0  0  0  0  0  0  0  0  0
   29.5090   49.8570   -4.8720 C   0  0  0  0  0  0  0  0  0  0  0  0
   28.8520   48.4740   -2.9680 N   0  0  0  0  0  0  0  0  0  0  0  0
   28.7860   49.6160   -3.7010 C   0  0  0  0  0  0  0  0  0  0  0  0
   29.3900   51.1160   -5.6170 C   0  0  0  0  0  0  0  0  0  0  0  0
   34.4250   44.2930   -3.7000 N   0  0  0  0  0  0  0  0  0  0  0  0
   28.5090   51.2270   -6.7060 C   0  0  0  0  0  0  0  0  0  0  0  0
   30.1510   52.2410   -5.2650 C   0  0  0  0  0  0  0  0  0  0  0  0
   34.8910   43.1120   -3.2380 N   0  0  0  0  0  0  0  0  0  0  0  0
   35.2250   45.3440   -3.3560 C   0  0  0  0  0  0  0  0  0  0  0  0
   28.3930   52.4250   -7.4180 C   0  0  0  0  0  0  0  0  0  0  0  0
   30.0360   53.4400   -5.9760 C   0  0  0  0  0  0  0  0  0  0  0  0
   36.0270   43.4150   -2.5760 C   0  0  0  0  0  0  0  0  0  0  0  0
   36.2720   44.8160   -2.6270 C   0  0  0  0  0  0  0  0  0  0  0  0
   35.0390   46.7850   -3.6820 C   0  0  0  0  0  0  0  0  0  0  0  0
   36.8860   42.3810   -1.8890 C   0  0  0  0  0  0  0  0  0  0  0  0
   29.1580   53.5290   -7.0510 C   0  0  0  0  0  0  0  0  0  0  0  0
   37.3720   45.6400   -2.0630 C   0  0  0  0  0  0  0  0  0  0  0  0
   35.9790   47.6470   -2.8200 C   0  0  0  0  0  0  0  0  0  0  0  0
   37.9520   42.0250   -2.6600 F   0  0  0  0  0  0  0  0  0  0  0  0
   37.3910   42.7850   -0.6950 F   0  0  0  0  0  0  0  0  0  0  0  0
   36.1930   41.2320   -1.6510 F   0  0  0  0  0  0  0  0  0  0  0  0
   37.3910   47.0400   -2.7080 C   0  0  0  0  0  0  0  0  0  0  0  0
  1  2  1  0
  2  3  2  3
  2  4  1  0
  3  5  1  0
  4  6  2  0
  4  7  1  0
  5  8  1  6
  5  9  1  0
  6 10  1  0
  7 11  2  0
 10 12  2  0
 11 12  1  0
 10 13  1  0
  9 14  1  0
 13 15  2  0
 13 16  1  0
 14 17  1  0
 14 18  1  0
 15 19  1  0
 16 20  2  0
 17 21  2  0
 18 22  2  0
 21 22  1  0
 18 23  1  0
 21 24  1  0
 19 25  2  0
 20 25  1  0
 22 26  1  0
 23 27  1  0
 24 28  1  0
 24 29  1  0
 24 30  1  0
 26 31  1  0
 27 31  1  0
M  END
