mac-x0341-mac-x0379
     RDKit          3D

 15 16  0  0  0  0  0  0  0  0999 V2000
   28.3420   54.6460   -7.4830 N   0  0  0  0  0  0  0  0  0  0  0  0
   28.6580   53.4830   -6.8560 C   0  0  0  0  0  0  0  0  0  0  0  0
   28.5240   52.3430   -7.4610 N   0  0  0  0  0  0  0  0  0  0  0  0
   29.1180   53.5840   -5.5750 N   0  0  0  0  0  0  0  0  0  0  0  0
   29.4480   52.4970   -4.7940 C   0  0  0  0  0  0  0  0  0  0  0  0
   28.8730   51.1640   -6.7650 C   0  0  0  0  0  0  0  0  0  0  0  0
   29.8130   52.6190   -3.6350 O   0  0  0  0  0  0  0  0  0  0  0  0
   29.3370   51.1770   -5.4440 C   0  0  0  0  0  0  0  0  0  0  0  0
   28.7540   49.9270   -7.4100 C   0  0  0  0  0  0  0  0  0  0  0  0
   29.0930   48.7290   -6.7520 C   0  0  0  0  0  0  0  0  0  0  0  0
   29.6820   49.9870   -4.7660 C   0  0  0  0  0  0  0  0  0  0  0  0
   29.5600   48.7510   -5.4260 C   0  0  0  0  0  0  0  0  0  0  0  0
   29.9270   47.4720   -4.7170 C   0  0  0  0  0  0  0  0  0  0  0  0
   30.5780   47.4090   -3.6810 O   0  0  0  0  0  0  0  0  0  0  0  0
   29.4670   46.3740   -5.3490 O   0  0  0  0  0  0  0  0  0  0  0  0
  1  2  1  0
  2  3  2  0
  2  4  1  0
  4  5  1  0
  3  6  1  0
  5  7  2  0
  5  8  1  0
  6  8  2  0
  6  9  1  0
  9 10  2  0
  8 11  1  0
 10 12  1  0
 11 12  2  0
 12 13  1  0
 13 14  2  0
 13 15  1  0
M  END
