mac-x0213-mac-x0123
     RDKit          3D

 26 30  0  0  0  0  0  0  0  0999 V2000
   33.1570   46.5390   -5.2510 O   0  0  0  0  0  0  0  0  0  0  0  0
   31.9780   46.1880   -5.8130 C   0  0  0  0  0  0  0  0  0  0  0  0
   31.8870   45.9600   -7.0080 O   0  0  0  0  0  0  0  0  0  0  0  0
   30.7930   46.1080   -4.8660 C   0  0  2  0  0  0  0  0  0  0  0  0
   30.6670   47.2940   -3.8600 C   0  0  1  0  0  0  0  0  0  0  0  0
   30.6190   44.7940   -4.0990 C   0  0  0  0  0  0  0  0  0  0  0  0
   29.5930   48.2220   -4.4130 C   0  0  0  0  0  0  0  0  0  0  0  0
   29.9310   46.6360   -2.7400 C   0  0  0  0  0  0  0  0  0  0  0  0
   29.8780   45.2540   -2.8860 C   0  0  0  0  0  0  0  0  0  0  0  0
   29.3250   47.2770   -1.6720 C   0  0  0  0  0  0  0  0  0  0  0  0
   29.1950   44.4810   -1.9630 C   0  0  0  0  0  0  0  0  0  0  0  0
   29.6700   49.7060   -4.4220 C   0  0  0  0  0  0  0  0  0  0  0  0
   28.6400   46.5060   -0.7380 C   0  0  0  0  0  0  0  0  0  0  0  0
   28.5730   45.1170   -0.8870 C   0  0  0  0  0  0  0  0  0  0  0  0
   30.1260   50.6180   -3.4700 N   0  0  0  0  0  0  0  0  0  0  0  0
   29.1940   50.2210   -5.5210 N   0  0  0  0  0  0  0  0  0  0  0  0
   29.3070   51.5260   -5.3270 N   0  0  0  0  0  0  0  0  0  0  0  0
   29.8760   51.7920   -4.0730 C   0  0  0  0  0  0  0  0  0  0  0  0
   28.9090   52.5030   -6.2370 C   0  0  0  0  0  0  0  0  0  0  0  0
   30.0760   53.0940   -3.6620 N   0  0  0  0  0  0  0  0  0  0  0  0
   28.3690   52.0800   -7.4440 N   0  0  0  0  0  0  0  0  0  0  0  0
   29.6790   54.0000   -4.5260 C   0  0  0  0  0  0  0  0  0  0  0  0
   29.0720   53.7610   -5.8710 C   0  0  0  0  0  0  0  0  0  0  0  0
   28.7770   55.0600   -6.5210 C   0  0  0  0  0  0  0  0  0  0  0  0
   29.7740   55.4820   -4.3080 C   0  0  0  0  0  0  0  0  0  0  0  0
   29.6560   56.0320   -5.7410 C   0  0  0  0  0  0  0  0  0  0  0  0
  1  2  1  0
  2  3  2  0
  4  2  1  1
  4  5  1  0
  4  6  1  0
  5  7  1  6
  5  8  1  0
  6  9  1  0
  8  9  2  0
  8 10  1  0
  9 11  1  0
  7 12  1  0
 10 13  2  0
 11 14  2  0
 13 14  1  0
 12 15  1  0
 12 16  2  0
 16 17  1  0
 15 18  2  0
 17 18  1  0
 17 19  1  0
 18 20  1  0
 19 21  1  0
 20 22  2  0
 19 23  2  0
 22 23  1  0
 23 24  1  0
 22 25  1  0
 24 26  1  0
 25 26  1  0
M  END
