mac-x0344-mac-x0565
     RDKit          3D

 25 27  0  0  0  0  0  0  0  0999 V2000
   31.6920   44.6160   -4.1880 O   0  0  0  0  0  0  0  0  0  0  0  0
   32.1530   45.5820   -5.1210 C   0  0  0  0  0  0  0  0  0  0  0  0
   31.7320   45.1700   -6.4020 O   0  0  0  0  0  0  0  0  0  0  0  0
   33.7070   45.6980   -5.0400 C   0  0  0  0  0  0  0  0  0  0  0  0
   31.6550   46.9830   -4.7860 C   0  0  0  0  0  0  0  0  0  0  0  0
   34.3450   45.9650   -6.0530 O   0  0  0  0  0  0  0  0  0  0  0  0
   34.2060   45.5010   -3.7670 N   0  0  0  0  0  0  0  0  0  0  0  0
   30.2670   47.0760   -4.1750 C   0  0  1  0  0  0  0  0  0  0  0  0
   35.3210   46.1380   -3.1940 C   0  0  0  0  0  0  0  0  0  0  0  0
   30.3650   47.5700   -2.8200 O   0  0  0  0  0  0  0  0  0  0  0  0
   29.5330   48.0090   -5.0110 O   0  0  0  0  0  0  0  0  0  0  0  0
   36.3240   45.4650   -2.4970 C   0  0  0  0  0  0  0  0  0  0  0  0
   35.4180   47.5280   -3.3460 C   0  0  0  0  0  0  0  0  0  0  0  0
   29.7050   49.1550   -4.2990 C   0  0  0  0  0  0  0  0  0  0  0  0
   30.1830   48.9020   -3.0350 C   0  0  0  0  0  0  0  0  0  0  0  0
   37.4060   46.1680   -1.9570 C   0  0  0  0  0  0  0  0  0  0  0  0
   36.5000   48.2310   -2.8080 C   0  0  0  0  0  0  0  0  0  0  0  0
   29.4470   50.4390   -4.7390 C   0  0  0  0  0  0  0  0  0  0  0  0
   30.4320   49.9150   -2.1310 C   0  0  0  0  0  0  0  0  0  0  0  0
   37.4950   47.5490   -2.1140 C   0  0  0  0  0  0  0  0  0  0  0  0
   29.6880   51.4910   -3.8420 C   0  0  0  0  0  0  0  0  0  0  0  0
   30.1790   51.2300   -2.5420 C   0  0  0  0  0  0  0  0  0  0  0  0
   29.4170   52.8810   -4.2860 C   0  0  0  0  0  0  0  0  0  0  0  0
   28.9020   52.9520   -5.5310 O   0  0  0  0  0  0  0  0  0  0  0  0
   29.6340   53.8560   -3.5900 O   0  0  0  0  0  0  0  0  0  0  0  0
  2  1  1  0
  2  3  1  0
  2  4  1  0
  2  5  1  0
  4  6  2  0
  4  7  1  0
  8  5  1  6
  7  9  1  0
  8 10  1  0
  8 11  1  0
  9 12  2  0
  9 13  1  0
 11 14  1  0
 10 15  1  0
 14 15  2  0
 12 16  1  0
 13 17  2  0
 14 18  1  0
 15 19  1  0
 16 20  2  0
 17 20  1  0
 18 21  2  0
 19 22  2  0
 21 22  1  0
 21 23  1  0
 23 24  1  0
 23 25  2  0
M  END
