mac-x0373-mac-x0371
     RDKit          3D

 26 29  0  0  0  0  0  0  0  0999 V2000
   32.9130   46.8840   -6.7110 O   0  0  0  0  0  0  0  0  0  0  0  0
   31.6490   47.3310   -6.4980 C   0  0  0  0  0  0  0  0  0  0  0  0
   30.9140   47.5350   -7.4650 O   0  0  0  0  0  0  0  0  0  0  0  0
   33.0490   45.5510   -6.5250 C   0  0  0  0  0  0  0  0  0  0  0  0
   31.2370   47.5550   -4.9660 C   0  0  0  0  0  0  0  0  0  0  0  0
   34.1410   44.9970   -6.4960 O   0  0  0  0  0  0  0  0  0  0  0  0
   31.7470   44.8250   -6.3670 C   0  0  0  0  0  0  0  0  0  0  0  0
   32.5010   48.1210   -4.2040 C   0  0  0  0  0  0  0  0  0  0  0  0
   30.0770   48.6000   -4.8460 C   0  0  0  0  0  0  0  0  0  0  0  0
   31.0530   44.9160   -5.0110 C   0  0  0  0  0  0  0  0  0  0  0  0
   30.8070   46.1590   -4.3480 C   0  0  0  0  0  0  0  0  0  0  0  0
   33.1780   47.3140   -3.2570 C   0  0  0  0  0  0  0  0  0  0  0  0
   33.0030   49.4200   -4.4190 C   0  0  0  0  0  0  0  0  0  0  0  0
   29.9040   49.3630   -3.6730 C   0  0  0  0  0  0  0  0  0  0  0  0
   29.1660   48.8150   -5.9040 C   0  0  0  0  0  0  0  0  0  0  0  0
   30.1530   46.1150   -3.0930 C   0  0  0  0  0  0  0  0  0  0  0  0
   30.6320   43.7110   -4.3820 C   0  0  0  0  0  0  0  0  0  0  0  0
   30.8770   42.1450   -5.0910 Cl  0  0  0  0  0  0  0  0  0  0  0  0
   34.2930   47.7870   -2.5660 C   0  0  0  0  0  0  0  0  0  0  0  0
   34.1200   49.8880   -3.7240 C   0  0  0  0  0  0  0  0  0  0  0  0
   28.8730   50.2960   -3.5600 C   0  0  0  0  0  0  0  0  0  0  0  0
   28.1360   49.7500   -5.7840 C   0  0  0  0  0  0  0  0  0  0  0  0
   29.7510   44.9210   -2.4980 C   0  0  0  0  0  0  0  0  0  0  0  0
   29.9910   43.7210   -3.1440 C   0  0  0  0  0  0  0  0  0  0  0  0
   34.7660   49.0740   -2.7980 C   0  0  0  0  0  0  0  0  0  0  0  0
   27.9880   50.4900   -4.6170 C   0  0  0  0  0  0  0  0  0  0  0  0
  1  2  1  0
  2  3  2  0
  1  4  1  0
  2  5  1  0
  4  6  2  0
  4  7  1  0
  5  8  1  0
  5  9  1  0
  7 10  1  0
  5 11  1  0
 10 11  2  0
  8 12  2  0
  8 13  1  0
  9 14  2  0
  9 15  1  0
 11 16  1  0
 10 17  1  0
 17 18  1  0
 12 19  1  0
 13 20  2  0
 14 21  1  0
 15 22  2  0
 16 23  2  0
 17 24  2  0
 23 24  1  0
 19 25  2  0
 20 25  1  0
 21 26  2  0
 22 26  1  0
M  END
