mac-x0392-mac-x0341
     RDKit          3D

 16 17  0  0  0  0  0  0  0  0999 V2000
   29.4390   47.5030   -7.8420 N   0  0  0  0  0  0  0  0  0  0  0  0
   29.3670   48.6740   -7.1090 C   0  0  0  0  0  0  0  0  0  0  0  0
   29.0340   49.8670   -7.6590 C   0  0  0  0  0  0  0  0  0  0  0  0
   29.6640   48.6680   -5.6610 C   0  0  0  0  0  0  0  0  0  0  0  0
   30.2420   47.4670   -4.9910 C   0  0  0  0  0  0  0  0  0  0  0  0
   29.4000   49.7740   -4.9220 C   0  0  0  0  0  0  0  0  0  0  0  0
   28.9510   51.0710   -6.9630 N   0  0  0  0  0  0  0  0  0  0  0  0
   30.8330   47.4680   -3.9210 O   0  0  0  0  0  0  0  0  0  0  0  0
   30.0610   46.3110   -5.6600 O   0  0  0  0  0  0  0  0  0  0  0  0
   28.7970   51.0330   -5.4950 C   0  0  2  0  0  0  0  0  0  0  0  0
   28.6180   52.2430   -7.6160 N   0  0  0  0  0  0  0  0  0  0  0  0
   28.7230   53.3760   -6.9680 C   0  0  0  0  0  0  0  0  0  0  0  0
   29.3420   52.3440   -4.8920 C   0  0  0  0  0  0  0  0  0  0  0  0
   28.4020   54.5500   -7.5790 N   0  0  0  0  0  0  0  0  0  0  0  0
   29.9040   52.4410   -3.7990 O   0  0  0  0  0  0  0  0  0  0  0  0
   29.1480   53.4600   -5.6720 N   0  0  0  0  0  0  0  0  0  0  0  0
  1  2  1  0
  2  3  2  0
  2  4  1  0
  4  5  1  0
  4  6  2  0
  3  7  1  0
  5  8  2  0
  5  9  1  0
 10  6  1  1
  7 10  1  0
  7 11  1  0
 11 12  2  0
 10 13  1  0
 12 14  1  0
 13 15  2  0
 12 16  1  0
 13 16  1  0
M  END
