mac-x0148-mac-x0305
     RDKit          3D

 22 25  0  0  0  0  0  0  0  0999 V2000
   33.0050   49.1960   -6.5060 O   0  0  0  0  0  0  0  0  0  0  0  0
   31.9860   49.4860   -5.6700 C   0  0  0  0  0  0  0  0  0  0  0  0
   32.2220   49.7640   -4.5040 O   0  0  0  0  0  0  0  0  0  0  0  0
   30.6660   49.4500   -6.2670 C   0  0  0  0  0  0  0  0  0  0  0  0
   29.6800   48.3950   -6.3500 C   0  0  0  0  0  0  0  0  0  0  0  0
   30.1270   50.5580   -6.9100 C   0  0  0  0  0  0  0  0  0  0  0  0
   28.5970   48.9350   -7.0490 C   0  0  0  0  0  0  0  0  0  0  0  0
   29.5300   47.0440   -5.9390 C   0  0  0  0  0  0  0  0  0  0  0  0
   28.8970   50.2230   -7.3660 N   0  0  0  0  0  0  0  0  0  0  0  0
   28.0600   51.0840   -8.0650 O   0  0  0  0  0  0  0  0  0  0  0  0
   30.5050   46.3390   -5.2330 N   0  0  0  0  0  0  0  0  0  0  0  0
   28.3700   46.4130   -6.2600 N   0  0  0  0  0  0  0  0  0  0  0  0
   27.4420   48.3310   -7.3760 N   0  0  0  0  0  0  0  0  0  0  0  0
   30.6240   46.4300   -3.7620 C   0  0  2  0  0  0  0  0  0  0  0  0
   31.6490   45.7730   -5.9930 C   0  0  0  0  0  0  0  0  0  0  0  0
   27.4170   47.0680   -6.9390 C   0  0  0  0  0  0  0  0  0  0  0  0
   29.7890   47.4030   -2.9520 C   0  0  0  0  0  0  0  0  0  0  0  0
   32.0030   46.8290   -3.2950 C   0  0  1  0  0  0  0  0  0  0  0  0
   33.0370   45.9820   -5.3560 C   0  0  0  0  0  0  0  0  0  0  0  0
   31.7740   46.9130   -1.8040 C   0  0  0  0  0  0  0  0  0  0  0  0
   30.4340   47.4370   -1.6450 O   0  0  0  0  0  0  0  0  0  0  0  0
   33.0350   45.8590   -3.8300 C   0  0  0  0  0  0  0  0  0  0  0  0
  1  2  1  0
  2  3  2  0
  2  4  1  0
  4  5  1  0
  4  6  2  0
  5  7  2  0
  5  8  1  0
  6  9  1  0
  7  9  1  0
  9 10  1  0
  8 11  1  0
  8 12  2  0
  7 13  1  0
 11 14  1  0
 11 15  1  0
 12 16  1  0
 13 16  2  0
 14 17  1  6
 14 18  1  0
 15 19  1  0
 18 20  1  1
 17 21  1  0
 20 21  1  0
 18 22  1  0
 19 22  1  0
M  END
