mac-x0433-mac-x0159
     RDKit          3D

 24 27  0  0  0  0  0  0  0  0999 V2000
   28.9550   55.2330   -5.1010 C   0  0  0  0  0  0  0  0  0  0  0  0
   29.1770   53.8130   -4.6930 C   0  0  0  0  0  0  0  0  0  0  0  0
   29.1600   53.5380   -3.3650 N   0  0  0  0  0  0  0  0  0  0  0  0
   29.3980   52.8450   -5.6540 C   0  0  0  0  0  0  0  0  0  0  0  0
   29.6100   51.5750   -5.1710 C   0  0  0  0  0  0  0  0  0  0  0  0
   29.3670   52.2720   -3.0090 C   0  0  0  0  0  0  0  0  0  0  0  0
   29.3650   51.9460   -1.6680 N   0  0  0  0  0  0  0  0  0  0  0  0
   29.5870   51.2900   -3.8570 N   0  0  0  0  0  0  0  0  0  0  0  0
   29.9350   50.3790   -6.0180 C   0  0  1  0  0  0  0  0  0  0  0  0
   31.0020   49.7220   -5.2620 N   0  0  0  0  0  0  0  0  0  0  0  0
   28.8600   49.3540   -6.4240 C   0  0  2  0  0  0  0  0  0  0  0  0
   30.4840   48.9080   -4.1760 C   0  0  0  0  0  0  0  0  0  0  0  0
   29.5990   48.0360   -6.1860 C   0  0  1  0  0  0  0  0  0  0  0  0
   28.4540   49.2280   -7.8460 N   0  0  0  0  0  0  0  0  0  0  0  0
   29.8660   47.7850   -4.7910 N   0  0  0  0  0  0  0  0  0  0  0  0
   28.7970   47.0860   -6.9140 N   0  0  0  0  0  0  0  0  0  0  0  0
   28.4340   47.7930   -8.1260 C   0  0  0  0  0  0  0  0  0  0  0  0
   30.3910   46.4950   -4.4090 C   0  0  0  0  0  0  0  0  0  0  0  0
   29.5110   45.7560   -3.4410 C   0  0  0  0  0  0  0  0  0  0  0  0
   28.9160   44.5410   -3.6920 C   0  0  0  0  0  0  0  0  0  0  0  0
   29.2300   46.2790   -2.1770 N   0  0  0  0  0  0  0  0  0  0  0  0
   28.4400   45.4680   -1.5070 C   0  0  0  0  0  0  0  0  0  0  0  0
   27.9930   44.0390   -2.3420 S   0  0  0  0  0  0  0  0  0  0  0  0
   27.9480   45.7290   -0.1260 C   0  0  0  0  0  0  0  0  0  0  0  0
  1  2  1  0
  2  3  2  0
  2  4  1  0
  4  5  2  0
  3  6  1  0
  6  7  1  0
  5  8  1  0
  6  8  2  0
  9  5  1  1
  9 10  1  0
  9 11  1  0
 10 12  1  0
 11 13  1  0
 11 14  1  6
 12 15  1  0
 13 15  1  0
 13 16  1  1
 14 17  1  0
 16 17  1  0
 15 18  1  0
 18 19  1  0
 19 20  2  0
 19 21  1  0
 21 22  2  0
 20 23  1  0
 22 23  1  0
 22 24  1  0
M  END
