mac-x0437-mac-x0375
     RDKit          3D

 14 15  0  0  0  0  0  0  0  0999 V2000
   31.6610   45.3760   -6.6760 O   0  0  0  0  0  0  0  0  0  0  0  0
   32.8370   45.0290   -6.1160 C   0  0  0  0  0  0  0  0  0  0  0  0
   33.8870   45.3590   -6.6440 O   0  0  0  0  0  0  0  0  0  0  0  0
   32.6920   44.2330   -4.8500 C   0  0  0  0  0  0  0  0  0  0  0  0
   32.6730   45.0930   -3.5880 C   0  0  0  0  0  0  0  0  0  0  0  0
   33.8940   45.8520   -3.3920 N   0  0  0  0  0  0  0  0  0  0  0  0
   34.0030   47.2020   -3.5770 C   0  0  0  0  0  0  0  0  0  0  0  0
   35.1200   45.3740   -3.0030 C   0  0  0  0  0  0  0  0  0  0  0  0
   35.2210   47.6290   -3.3320 N   0  0  0  0  0  0  0  0  0  0  0  0
   35.9290   46.5100   -2.9760 C   0  0  0  0  0  0  0  0  0  0  0  0
   35.6030   44.0990   -2.6780 C   0  0  0  0  0  0  0  0  0  0  0  0
   37.2790   46.3880   -2.6150 C   0  0  0  0  0  0  0  0  0  0  0  0
   36.9520   44.0010   -2.3190 C   0  0  0  0  0  0  0  0  0  0  0  0
   37.7780   45.1220   -2.2880 C   0  0  0  0  0  0  0  0  0  0  0  0
  1  2  1  0
  2  3  2  0
  2  4  1  0
  4  5  1  0
  5  6  1  0
  6  7  1  0
  6  8  1  0
  7  9  2  0
  8 10  2  0
  9 10  1  0
  8 11  1  0
 10 12  1  0
 11 13  2  0
 12 14  2  0
 13 14  1  0
M  END
