mac-x0398-mac-x0346
     RDKit          3D

 19 21  0  0  0  0  0  0  0  0999 V2000
   29.8740   54.2580   -4.6840 N   0  0  0  0  0  0  0  0  0  0  0  0
   29.1090   53.3760   -5.4860 N   0  0  0  0  0  0  0  0  0  0  0  0
   28.8350   52.1010   -4.9920 C   0  0  0  0  0  0  0  0  0  0  0  0
   31.0300   53.5300   -4.1660 C   0  0  1  0  0  0  0  0  0  0  0  0
   30.6210   52.2500   -3.4030 C   0  0  1  0  0  0  0  0  0  0  0  0
   31.9770   52.9840   -5.2010 C   0  0  0  0  0  0  0  0  0  0  0  0
   29.4900   51.5090   -4.0330 N   0  0  0  0  0  0  0  0  0  0  0  0
   31.9170   51.4070   -3.4690 C   0  0  2  0  0  0  0  0  0  0  0  0
   32.4710   51.7980   -4.8130 C   0  0  0  0  0  0  0  0  0  0  0  0
   27.6850   51.3410   -5.6260 C   0  0  0  0  0  0  0  0  0  0  0  0
   31.6760   49.9030   -3.4070 C   0  0  0  0  0  0  0  0  0  0  0  0
   26.6480   50.7350   -4.8910 C   0  0  0  0  0  0  0  0  0  0  0  0
   27.6530   51.2330   -7.0290 C   0  0  0  0  0  0  0  0  0  0  0  0
   31.1140   49.3100   -2.4980 O   0  0  0  0  0  0  0  0  0  0  0  0
   32.1650   49.2440   -4.4920 O   0  0  0  0  0  0  0  0  0  0  0  0
   26.6190   50.8050   -3.5210 O   0  0  0  0  0  0  0  0  0  0  0  0
   25.6150   50.0490   -5.5400 C   0  0  0  0  0  0  0  0  0  0  0  0
   26.6220   50.5450   -7.6770 C   0  0  0  0  0  0  0  0  0  0  0  0
   25.6060   49.9540   -6.9330 C   0  0  0  0  0  0  0  0  0  0  0  0
  1  2  1  0
  2  3  1  0
  1  4  1  0
  4  5  1  0
  4  6  1  6
  3  7  2  0
  5  7  1  6
  5  8  1  0
  6  9  2  0
  8  9  1  0
  3 10  1  0
  8 11  1  6
 10 12  2  0
 10 13  1  0
 11 14  2  0
 11 15  1  0
 12 16  1  0
 12 17  1  0
 13 18  2  0
 17 19  2  0
 18 19  1  0
M  END
