mac-x0301-mac-x0224
     RDKit          3D

 15 16  0  0  0  0  0  0  0  0999 V2000
   29.6760   45.6380   -4.0580 O   0  0  0  0  0  0  0  0  0  0  0  0
   30.6430   46.5710   -4.4720 C   0  0  0  0  0  0  0  0  0  0  0  0
   31.5030   46.7520   -3.3800 O   0  0  0  0  0  0  0  0  0  0  0  0
   31.4160   46.0180   -5.5000 O   0  0  0  0  0  0  0  0  0  0  0  0
   29.9390   47.8000   -5.0030 C   0  0  0  0  0  0  0  0  0  0  0  0
   29.4880   47.9590   -6.3060 C   0  0  0  0  0  0  0  0  0  0  0  0
   29.7010   48.8960   -4.1430 C   0  0  0  0  0  0  0  0  0  0  0  0
   28.8480   49.1070   -6.7480 C   0  0  0  0  0  0  0  0  0  0  0  0
   29.0530   50.0630   -4.5880 C   0  0  0  0  0  0  0  0  0  0  0  0
   29.6100   47.0300   -7.3060 O   0  0  0  0  0  0  0  0  0  0  0  0
   28.6140   50.1850   -5.9110 C   0  0  0  0  0  0  0  0  0  0  0  0
   28.5010   49.0220   -8.0660 O   0  0  0  0  0  0  0  0  0  0  0  0
   28.9540   47.7010   -8.3970 C   0  0  0  0  0  0  0  0  0  0  0  0
   27.8020   51.6890   -6.4090 S   0  0  0  0  0  0  0  0  0  0  0  0
   29.0970   52.9010   -6.0310 C   0  0  0  0  0  0  0  0  0  0  0  0
  2  1  1  0
  2  3  1  0
  2  4  1  0
  2  5  1  0
  5  6  2  0
  5  7  1  0
  6  8  1  0
  7  9  2  0
  6 10  1  0
  8 11  2  0
  9 11  1  0
  8 12  1  0
 10 13  1  0
 12 13  1  0
 11 14  1  0
 14 15  1  0
M  END
