mac-x0213-mac-x0124
     RDKit          3D

 23 26  0  0  0  0  0  0  0  0999 V2000
   33.5740   46.4820   -5.3180 O   0  0  0  0  0  0  0  0  0  0  0  0
   32.3660   45.8910   -5.4470 C   0  0  0  0  0  0  0  0  0  0  0  0
   31.8920   45.6660   -6.5550 O   0  0  0  0  0  0  0  0  0  0  0  0
   31.6810   45.5610   -4.1170 C   0  0  1  0  0  0  0  0  0  0  0  0
   32.0030   46.4410   -2.8650 C   0  0  0  0  0  0  0  0  0  0  0  0
   30.2790   46.0660   -4.2090 C   0  0  1  0  0  0  0  0  0  0  0  0
   29.3960   45.9810   -5.3590 C   0  0  0  0  0  0  0  0  0  0  0  0
   30.7200   46.2270   -2.0530 C   0  0  0  0  0  0  0  0  0  0  0  0
   29.6830   45.9510   -2.8970 C   0  0  0  0  0  0  0  0  0  0  0  0
   30.4780   46.2630   -0.6990 C   0  0  0  0  0  0  0  0  0  0  0  0
   28.3900   45.6680   -2.4990 C   0  0  0  0  0  0  0  0  0  0  0  0
   29.2300   47.4120   -5.4690 N   0  0  0  0  0  0  0  0  0  0  0  0
   29.1730   45.9930   -0.2450 C   0  0  0  0  0  0  0  0  0  0  0  0
   28.1360   45.6900   -1.1380 C   0  0  0  0  0  0  0  0  0  0  0  0
   29.3660   48.3060   -4.4110 C   0  0  0  0  0  0  0  0  0  0  0  0
   28.9410   48.0640   -6.5890 C   0  0  0  0  0  0  0  0  0  0  0  0
   29.1500   49.5680   -4.9040 C   0  0  0  0  0  0  0  0  0  0  0  0
   28.8770   49.4170   -6.2920 C   0  0  0  0  0  0  0  0  0  0  0  0
   28.7550   47.4670   -7.7670 N   0  0  0  0  0  0  0  0  0  0  0  0
   28.5800   50.2560   -7.3580 C   0  0  0  0  0  0  0  0  0  0  0  0
   28.4770   48.3760   -8.7100 C   0  0  0  0  0  0  0  0  0  0  0  0
   28.4760   51.6300   -7.2490 N   0  0  0  0  0  0  0  0  0  0  0  0
   28.3820   49.7090   -8.5720 N   0  0  0  0  0  0  0  0  0  0  0  0
  1  2  1  0
  2  3  2  0
  4  2  1  6
  4  5  1  0
  4  6  1  0
  6  7  1  6
  5  8  1  0
  6  9  1  0
  8  9  2  0
  8 10  1  0
  9 11  1  0
  7 12  1  0
 10 13  2  0
 11 14  2  0
 13 14  1  0
 12 15  1  0
 12 16  1  0
 15 17  2  0
 16 18  2  0
 17 18  1  0
 16 19  1  0
 18 20  1  0
 19 21  2  0
 20 22  1  0
 20 23  2  0
 21 23  1  0
M  END
