mac-x0396-mac-x0204
     RDKit          3D

 21 22  0  0  0  0  0  0  0  0999 V2000
   28.6880   50.6720   -7.1310 N   0  0  0  0  0  0  0  0  0  0  0  0
   28.9840   50.7320   -5.7920 C   0  0  0  0  0  0  0  0  0  0  0  0
   29.0270   49.7160   -4.9990 N   0  0  0  0  0  0  0  0  0  0  0  0
   29.2760   52.0730   -5.1920 C   0  0  0  0  0  0  0  0  0  0  0  0
   28.7490   48.3750   -5.5140 C   0  0  0  0  0  0  0  0  0  0  0  0
   29.7330   52.2050   -3.8870 C   0  0  0  0  0  0  0  0  0  0  0  0
   29.0950   53.2400   -5.9400 C   0  0  0  0  0  0  0  0  0  0  0  0
   30.0310   47.8060   -6.1240 C   0  0  0  0  0  0  0  0  0  0  0  0
   30.0140   53.3960   -3.2970 N   0  0  0  0  0  0  0  0  0  0  0  0
   29.3750   54.4760   -5.3590 C   0  0  0  0  0  0  0  0  0  0  0  0
   30.6090   46.5840   -5.3810 C   0  0  0  0  0  0  0  0  0  0  0  0
   29.8260   54.5030   -4.0500 C   0  0  0  0  0  0  0  0  0  0  0  0
   31.6420   46.0550   -6.2060 O   0  0  0  0  0  0  0  0  0  0  0  0
   29.6620   45.5380   -5.2560 O   0  0  0  0  0  0  0  0  0  0  0  0
   31.1860   46.9530   -4.0290 C   0  0  0  0  0  0  0  0  0  0  0  0
   30.4050   46.9160   -2.8630 C   0  0  0  0  0  0  0  0  0  0  0  0
   32.5160   47.3460   -3.8790 C   0  0  0  0  0  0  0  0  0  0  0  0
   30.9670   47.2630   -1.6410 C   0  0  0  0  0  0  0  0  0  0  0  0
   33.0900   47.6900   -2.6970 N   0  0  0  0  0  0  0  0  0  0  0  0
   30.1760   47.2170   -0.5310 O   0  0  0  0  0  0  0  0  0  0  0  0
   32.2980   47.6400   -1.6030 C   0  0  0  0  0  0  0  0  0  0  0  0
  1  2  1  0
  2  3  2  3
  2  4  1  0
  3  5  1  0
  4  6  2  0
  4  7  1  0
  5  8  1  0
  6  9  1  0
  7 10  2  0
  8 11  1  0
  9 12  2  0
 10 12  1  0
 11 13  1  0
 11 14  1  0
 11 15  1  0
 15 16  2  0
 15 17  1  0
 16 18  1  0
 17 19  2  0
 18 20  1  0
 18 21  2  0
 19 21  1  0
M  END
