mac-x0328-mac-x0124
     RDKit          3D

 19 21  0  0  0  0  0  0  0  0999 V2000
   31.1050   47.8620   -2.9090 O   0  0  0  0  0  0  0  0  0  0  0  0
   30.9770   48.4460   -4.1910 C   0  0  2  0  0  0  0  0  0  0  0  0
   30.6610   49.9170   -4.0140 C   0  0  0  0  0  0  0  0  0  0  0  0
   29.8710   47.8060   -4.8680 N   0  0  0  0  0  0  0  0  0  0  0  0
   30.8650   50.8100   -5.0800 C   0  0  0  0  0  0  0  0  0  0  0  0
   30.1550   50.4230   -2.8040 C   0  0  0  0  0  0  0  0  0  0  0  0
   28.5990   48.0750   -4.3860 C   0  0  0  0  0  0  0  0  0  0  0  0
   29.7790   48.0920   -6.3220 C   0  0  2  0  0  0  0  0  0  0  0  0
   30.5680   52.1650   -4.9440 C   0  0  0  0  0  0  0  0  0  0  0  0
   29.8580   51.7820   -2.6660 C   0  0  0  0  0  0  0  0  0  0  0  0
   27.9800   49.0050   -5.1290 C   0  0  0  0  0  0  0  0  0  0  0  0
   28.9200   49.3970   -6.2420 C   0  0  2  0  0  0  0  0  0  0  0  0
   29.1370   47.0900   -7.1800 N   0  0  0  0  0  0  0  0  0  0  0  0
   30.0670   52.6400   -3.7400 C   0  0  0  0  0  0  0  0  0  0  0  0
   28.4070   49.7660   -7.6350 C   0  0  2  0  0  0  0  0  0  0  0  0
   28.8170   47.6070   -8.4870 C   0  0  0  0  0  0  0  0  0  0  0  0
   29.7900   53.9720   -3.6510 O   0  0  0  0  0  0  0  0  0  0  0  0
   27.3980   50.8000   -7.6740 N   0  0  0  0  0  0  0  0  0  0  0  0
   27.8170   48.6450   -8.3230 N   0  0  0  0  0  0  0  0  0  0  0  0
  2  1  1  1
  2  3  1  0
  2  4  1  0
  3  5  2  0
  3  6  1  0
  4  7  1  0
  4  8  1  0
  5  9  1  0
  6 10  2  0
  7 11  2  0
  8 12  1  0
 12 11  1  1
  8 13  1  6
  9 14  2  0
 10 14  1  0
 12 15  1  0
 13 16  1  0
 14 17  1  0
 15 18  1  1
 15 19  1  0
 16 19  1  0
M  END
