mac-x0380-mac-x0213
     RDKit          3D

 27 30  0  0  0  0  0  0  0  0999 V2000
   28.0230   49.4100   -2.4260 O   0  0  0  0  0  0  0  0  0  0  0  0
   29.1490   49.8900   -2.9750 C   0  0  0  0  0  0  0  0  0  0  0  0
   30.2700   49.4220   -2.5740 N   0  0  0  0  0  0  0  0  0  0  0  0
   28.8190   50.9050   -3.9710 C   0  0  0  0  0  0  0  0  0  0  0  0
   30.2540   48.3780   -1.5410 C   0  0  0  0  0  0  0  0  0  0  0  0
   28.8320   52.2550   -3.6120 C   0  0  0  0  0  0  0  0  0  0  0  0
   28.4960   50.5090   -5.2700 C   0  0  0  0  0  0  0  0  0  0  0  0
   28.5180   53.2280   -4.5640 C   0  0  0  0  0  0  0  0  0  0  0  0
   28.1820   51.4810   -6.2210 C   0  0  0  0  0  0  0  0  0  0  0  0
   29.7120   47.0520   -2.0260 C   0  0  0  0  0  0  0  0  0  0  0  0
   28.1920   52.8370   -5.8720 C   0  0  0  0  0  0  0  0  0  0  0  0
   28.5440   54.9380   -4.0720 S   0  0  0  0  0  0  0  0  0  0  0  0
   30.2340   46.3840   -3.1350 C   0  0  0  0  0  0  0  0  0  0  0  0
   28.6370   46.4460   -1.3520 C   0  0  0  0  0  0  0  0  0  0  0  0
   27.8670   53.7670   -6.8670 N   0  0  0  0  0  0  0  0  0  0  0  0
   28.8840   55.6950   -5.6750 C   0  0  0  0  0  0  0  0  0  0  0  0
   31.3640   46.7840   -4.0360 C   0  0  0  0  0  0  0  0  0  0  0  0
   29.7000   45.1560   -3.5540 C   0  0  0  0  0  0  0  0  0  0  0  0
   28.1110   45.2160   -1.7790 C   0  0  0  0  0  0  0  0  0  0  0  0
   28.0780   55.1150   -6.8130 C   0  0  0  0  0  0  0  0  0  0  0  0
   31.7270   45.4450   -4.7040 C   0  0  1  0  0  0  0  0  0  0  0  0
   30.4210   44.6360   -4.7600 C   0  0  0  0  0  0  0  0  0  0  0  0
   28.6430   44.5630   -2.8870 C   0  0  0  0  0  0  0  0  0  0  0  0
   27.6060   55.8310   -7.6990 O   0  0  0  0  0  0  0  0  0  0  0  0
   32.3510   45.6400   -6.0590 C   0  0  0  0  0  0  0  0  0  0  0  0
   33.6570   45.9630   -5.9850 O   0  0  0  0  0  0  0  0  0  0  0  0
   31.8050   45.5330   -7.1440 O   0  0  0  0  0  0  0  0  0  0  0  0
  1  2  1  0
  2  3  2  3
  2  4  1  0
  3  5  1  0
  4  6  2  0
  4  7  1  0
  6  8  1  0
  7  9  2  0
  5 10  1  0
  8 11  2  0
  9 11  1  0
  8 12  1  0
 10 13  1  0
 10 14  2  0
 11 15  1  0
 12 16  1  0
 13 17  1  0
 13 18  2  0
 14 19  1  0
 15 20  1  0
 16 20  1  0
 17 21  1  0
 18 22  1  0
 21 22  1  0
 18 23  1  0
 19 23  2  0
 20 24  2  0
 21 25  1  6
 25 26  1  0
 25 27  2  0
M  END
