mac-x0115-mac-x0412
     RDKit          3D

 27 30  0  0  0  0  0  0  0  0999 V2000
   27.9270   45.8240   -1.8520 C   0  0  0  0  0  0  0  0  0  0  0  0
   28.8010   44.5960   -2.0850 C   0  0  0  0  0  0  0  0  0  0  0  0
   28.0380   43.5550   -2.8990 C   0  0  0  0  0  0  0  0  0  0  0  0
   29.9650   45.0440   -2.7850 O   0  0  0  0  0  0  0  0  0  0  0  0
   30.1740   44.4910   -4.0830 C   0  0  0  0  0  0  0  0  0  0  0  0
   31.0500   45.3940   -4.9660 C   0  0  0  0  0  0  0  0  0  0  0  0
   30.3340   45.9600   -6.1310 N   0  0  0  0  0  0  0  0  0  0  0  0
   30.2970   45.3220   -7.3600 C   0  0  0  0  0  0  0  0  0  0  0  0
   29.3310   47.0040   -5.8900 C   0  0  2  0  0  0  0  0  0  0  0  0
   30.5880   43.7090   -7.6930 S   0  0  0  0  0  0  0  0  0  0  0  0
   29.9730   46.1290   -8.4150 N   0  0  0  0  0  0  0  0  0  0  0  0
   29.2400   48.0280   -7.0110 C   0  0  2  0  0  0  0  0  0  0  0  0
   29.5360   47.9020   -4.6490 C   0  0  0  0  0  0  0  0  0  0  0  0
   29.5400   47.4290   -8.3820 C   0  0  0  0  0  0  0  0  0  0  0  0
   30.2330   49.0340   -6.5770 N   0  0  0  0  0  0  0  0  0  0  0  0
   29.7210   49.3220   -5.2400 C   0  0  1  0  0  0  0  0  0  0  0  0
   29.3860   48.0690   -9.4210 O   0  0  0  0  0  0  0  0  0  0  0  0
   28.4060   50.1160   -5.4340 C   0  0  0  0  0  0  0  0  0  0  0  0
   30.6920   50.1350   -4.3870 C   0  0  0  0  0  0  0  0  0  0  0  0
   28.8340   51.5180   -5.8700 C   0  0  2  0  0  0  0  0  0  0  0  0
   30.5100   51.4440   -4.0820 C   0  0  0  0  0  0  0  0  0  0  0  0
   29.3100   52.2110   -4.5820 C   0  0  1  0  0  0  0  0  0  0  0  0
   27.8340   52.3360   -6.6430 C   0  0  0  0  0  0  0  0  0  0  0  0
   29.4790   53.7310   -4.7640 C   0  0  0  0  0  0  0  0  0  0  0  0
   27.9690   53.6620   -6.6520 C   0  0  0  0  0  0  0  0  0  0  0  0
   29.9910   54.4740   -3.9310 O   0  0  0  0  0  0  0  0  0  0  0  0
   28.9940   54.2370   -5.9590 N   0  0  0  0  0  0  0  0  0  0  0  0
  1  2  1  0
  2  3  1  0
  2  4  1  0
  4  5  1  0
  5  6  1  0
  6  7  1  0
  7  8  1  0
  7  9  1  0
  8 10  2  0
  8 11  1  0
  9 12  1  0
  9 13  1  1
 11 14  1  0
 12 14  1  0
 12 15  1  1
 16 13  1  1
 15 16  1  0
 14 17  2  0
 16 18  1  0
 16 19  1  0
 20 18  1  1
 19 21  2  0
 20 22  1  0
 22 21  1  6
 20 23  1  0
 22 24  1  0
 23 25  2  0
 24 26  2  0
 24 27  1  0
 25 27  1  0
M  END
