mac-x0306-mac-x0271
     RDKit          3D

 13 14  0  0  0  0  0  0  0  0999 V2000
   30.3870   49.6730   -2.4440 O   0  0  0  0  0  0  0  0  0  0  0  0
   29.9490   50.2700   -3.5690 C   0  0  0  0  0  0  0  0  0  0  0  0
   29.8670   51.6420   -3.6660 C   0  0  0  0  0  0  0  0  0  0  0  0
   29.6220   49.3950   -4.5250 N   0  0  0  0  0  0  0  0  0  0  0  0
   29.1760   49.9230   -5.6830 C   0  0  0  0  0  0  0  0  0  0  0  0
   29.4040   52.1520   -4.8760 C   0  0  0  0  0  0  0  0  0  0  0  0
   29.2940   53.6130   -5.0580 C   0  0  0  0  0  0  0  0  0  0  0  0
   29.0510   51.2830   -5.9060 C   0  0  0  0  0  0  0  0  0  0  0  0
   28.8740   54.1310   -6.2850 N   0  0  0  0  0  0  0  0  0  0  0  0
   29.5750   54.4780   -4.1280 N   0  0  0  0  0  0  0  0  0  0  0  0
   29.3340   55.6850   -4.7200 C   0  0  0  0  0  0  0  0  0  0  0  0
   28.8920   55.4080   -6.1210 C   0  0  0  0  0  0  0  0  0  0  0  0
   29.4290   56.8030   -4.2630 O   0  0  0  0  0  0  0  0  0  0  0  0
  1  2  1  0
  2  3  2  0
  2  4  1  0
  4  5  2  0
  3  6  1  0
  6  7  1  0
  5  8  1  0
  6  8  2  0
  7  9  1  0
  7 10  2  0
 10 11  1  0
  9 12  2  0
 11 12  1  0
 11 13  2  0
M  END
