mac-x0588-mac-x0231
     RDKit          3D

 30 34  0  0  0  0  0  0  0  0999 V2000
   29.2580   51.9550   -6.1360 N   0  0  0  0  0  0  0  0  0  0  0  0
   28.3690   50.8260   -5.9270 C   0  0  1  0  0  0  0  0  0  0  0  0
   28.1280   49.8590   -7.1280 C   0  0  2  0  0  0  0  0  0  0  0  0
   28.9640   50.1960   -4.7710 N   0  0  0  0  0  0  0  0  0  0  0  0
   28.3640   48.9250   -4.3880 C   0  0  0  0  0  0  0  0  0  0  0  0
   27.7270   48.4560   -6.6530 C   0  0  2  0  0  0  0  0  0  0  0  0
   29.2630   49.5730   -8.0280 N   0  0  0  0  0  0  0  0  0  0  0  0
   28.4630   47.9770   -5.4910 N   0  0  0  0  0  0  0  0  0  0  0  0
   27.9950   47.6030   -7.8120 N   0  0  0  0  0  0  0  0  0  0  0  0
   28.8590   48.3530   -8.7130 C   0  0  0  0  0  0  0  0  0  0  0  0
   28.1270   46.5830   -5.1100 C   0  0  0  0  0  0  0  0  0  0  0  0
   27.2960   46.3190   -3.8230 C   0  0  2  0  0  0  0  0  0  0  0  0
   27.5800   47.3120   -2.8050 O   0  0  0  0  0  0  0  0  0  0  0  0
   27.6870   45.0140   -3.1470 C   0  0  0  0  0  0  0  0  0  0  0  0
   29.0060   45.4800   -2.6510 C   0  0  0  0  0  0  0  0  0  0  0  0
   28.6790   46.8010   -2.0300 C   0  0  0  0  0  0  0  0  0  0  0  0
   30.2280   44.9270   -2.7250 C   0  0  0  0  0  0  0  0  0  0  0  0
   31.4560   45.5640   -2.1970 C   0  0  0  0  0  0  0  0  0  0  0  0
   30.4860   43.7060   -3.3260 N   0  0  0  0  0  0  0  0  0  0  0  0
   32.6640   45.2330   -2.8380 C   0  0  0  0  0  0  0  0  0  0  0  0
   31.5160   43.5330   -4.1940 N   0  0  0  0  0  0  0  0  0  0  0  0
   31.4970   46.4640   -1.1230 C   0  0  0  0  0  0  0  0  0  0  0  0
   32.5760   44.2660   -3.9780 C   0  0  0  0  0  0  0  0  0  0  0  0
   32.7020   47.0240   -0.6950 C   0  0  0  0  0  0  0  0  0  0  0  0
   33.8740   45.7960   -2.4080 C   0  0  0  0  0  0  0  0  0  0  0  0
   33.7360   44.0980   -4.9360 C   0  0  0  0  0  0  0  0  0  0  0  0
   33.8900   46.6900   -1.3390 C   0  0  0  0  0  0  0  0  0  0  0  0
   33.4880   44.6240   -6.3200 C   0  0  0  0  0  0  0  0  0  0  0  0
   34.3980   45.5600   -6.6740 O   0  0  0  0  0  0  0  0  0  0  0  0
   32.6100   44.3090   -7.1030 O   0  0  0  0  0  0  0  0  0  0  0  0
  2  1  1  6
  2  3  1  0
  2  4  1  0
  4  5  1  0
  3  6  1  0
  3  7  1  1
  5  8  1  0
  6  8  1  0
  6  9  1  6
  7 10  1  0
  9 10  1  0
  8 11  1  0
 12 11  1  6
 12 13  1  0
 12 14  1  0
 14 15  1  0
 13 16  1  0
 15 16  1  0
 15 17  2  3
 17 18  1  0
 17 19  1  0
 18 20  2  0
 19 21  1  0
 18 22  1  0
 20 23  1  0
 21 23  2  0
 22 24  2  0
 20 25  1  0
 23 26  1  0
 24 27  1  0
 25 27  2  0
 26 28  1  0
 28 29  1  0
 28 30  2  0
M  END
