mac-x0433-mac-x0385
     RDKit          3D

 17 18  0  0  0  0  0  0  0  0999 V2000
   29.6700   53.2810   -7.7550 C   0  0  0  0  0  0  0  0  0  0  0  0
   29.6610   53.3350   -6.2570 C   0  0  0  0  0  0  0  0  0  0  0  0
   29.7570   54.5440   -5.6030 C   0  0  0  0  0  0  0  0  0  0  0  0
   29.5550   52.1650   -5.5990 N   0  0  0  0  0  0  0  0  0  0  0  0
   29.5460   52.1980   -4.2570 C   0  0  0  0  0  0  0  0  0  0  0  0
   29.7410   54.4930   -4.2250 C   0  0  0  0  0  0  0  0  0  0  0  0
   29.8410   55.7550   -3.4230 C   0  0  0  0  0  0  0  0  0  0  0  0
   29.4440   51.0360   -3.5020 N   0  0  0  0  0  0  0  0  0  0  0  0
   29.6360   53.3320   -3.5460 N   0  0  0  0  0  0  0  0  0  0  0  0
   29.2780   49.6860   -3.8350 C   0  0  0  0  0  0  0  0  0  0  0  0
   28.2250   49.2830   -4.6610 C   0  0  0  0  0  0  0  0  0  0  0  0
   30.0810   48.6420   -3.4180 C   0  0  0  0  0  0  0  0  0  0  0  0
   27.3200   50.2370   -5.1670 N   0  0  0  0  0  0  0  0  0  0  0  0
   27.9900   48.0130   -5.0300 N   0  0  0  0  0  0  0  0  0  0  0  0
   29.8890   47.3460   -3.7580 N   0  0  0  0  0  0  0  0  0  0  0  0
   28.8410   47.0870   -4.5580 C   0  0  0  0  0  0  0  0  0  0  0  0
   28.6070   45.6630   -4.9530 C   0  0  0  0  0  0  0  0  0  0  0  0
  1  2  1  0
  2  3  2  0
  2  4  1  0
  4  5  2  0
  3  6  1  0
  6  7  1  0
  5  8  1  0
  5  9  1  0
  6  9  2  0
  8 10  1  0
 10 11  2  0
 10 12  1  0
 11 13  1  0
 11 14  1  0
 12 15  2  0
 14 16  2  0
 15 16  1  0
 16 17  1  0
M  END
