mac-x0412-mac-x0138
     RDKit          3D

 19 21  0  0  0  0  0  0  0  0999 V2000
   30.0480   54.4330   -3.5920 O   0  0  0  0  0  0  0  0  0  0  0  0
   29.5740   53.8240   -4.5530 C   0  0  0  0  0  0  0  0  0  0  0  0
   29.4810   54.4380   -5.7680 N   0  0  0  0  0  0  0  0  0  0  0  0
   29.0660   52.3790   -4.4510 C   0  0  1  0  0  0  0  0  0  0  0  0
   28.7100   51.6820   -5.8040 C   0  0  1  0  0  0  0  0  0  0  0  0
   29.5130   53.7750   -6.9470 C   0  0  0  0  0  0  0  0  0  0  0  0
   30.0130   51.6070   -3.5640 C   0  0  0  0  0  0  0  0  0  0  0  0
   29.1660   52.4890   -7.0120 C   0  0  0  0  0  0  0  0  0  0  0  0
   29.0310   50.1100   -5.8870 C   0  0  1  0  0  0  0  0  0  0  0  0
   30.0590   50.2750   -3.5630 C   0  0  0  0  0  0  0  0  0  0  0  0
   29.1680   49.4480   -4.4520 C   0  0  2  0  0  0  0  0  0  0  0  0
   27.8660   49.3900   -6.6910 C   0  0  1  0  0  0  0  0  0  0  0  0
   30.3120   49.8440   -6.7540 C   0  0  0  0  0  0  0  0  0  0  0  0
   29.6700   47.9940   -4.3810 C   0  0  0  0  0  0  0  0  0  0  0  0
   26.6950   50.1720   -7.0080 N   0  0  0  0  0  0  0  0  0  0  0  0
   28.3290   48.9570   -7.9870 N   0  0  0  0  0  0  0  0  0  0  0  0
   30.4560   48.4320   -7.1240 N   0  0  0  0  0  0  0  0  0  0  0  0
   29.2970   47.9340   -7.7960 C   0  0  2  0  0  0  0  0  0  0  0  0
   29.7140   47.5720   -9.1070 N   0  0  0  0  0  0  0  0  0  0  0  0
  1  2  2  0
  2  3  1  0
  2  4  1  0
  4  5  1  0
  3  6  1  0
  4  7  1  6
  5  8  1  6
  6  8  2  0
  5  9  1  0
  7 10  2  0
  9 11  1  0
 10 11  1  0
  9 12  1  0
  9 13  1  6
 11 14  1  6
 12 15  1  6
 12 16  1  0
 13 17  1  0
 16 18  1  0
 17 18  1  0
 18 19  1  6
M  END
