mac-x0387-mac-x0392
     RDKit          3D

 14 15  0  0  0  0  0  0  0  0999 V2000
   28.2070   51.0450   -7.7570 N   0  0  0  0  0  0  0  0  0  0  0  0
   28.7100   49.8310   -7.2760 C   0  0  0  0  0  0  0  0  0  0  0  0
   28.6760   48.8260   -8.1710 N   0  0  0  0  0  0  0  0  0  0  0  0
   29.2050   49.6940   -5.9600 C   0  0  0  0  0  0  0  0  0  0  0  0
   29.6960   48.4260   -5.5560 C   0  0  0  0  0  0  0  0  0  0  0  0
   29.1490   47.6250   -7.7650 C   0  0  0  0  0  0  0  0  0  0  0  0
   29.2310   50.7650   -5.0350 C   0  0  0  0  0  0  0  0  0  0  0  0
   29.6590   47.3760   -6.4970 C   0  0  0  0  0  0  0  0  0  0  0  0
   30.1930   48.2940   -4.2320 C   0  0  0  0  0  0  0  0  0  0  0  0
   29.7250   50.6020   -3.7420 C   0  0  0  0  0  0  0  0  0  0  0  0
   30.1280   45.9990   -6.2500 C   0  0  0  0  0  0  0  0  0  0  0  0
   30.2070   49.3660   -3.3410 C   0  0  0  0  0  0  0  0  0  0  0  0
   30.9840   45.6810   -5.4430 O   0  0  0  0  0  0  0  0  0  0  0  0
   29.5070   45.0870   -7.0140 O   0  0  0  0  0  0  0  0  0  0  0  0
  1  2  1  0
  2  3  2  0
  2  4  1  0
  4  5  2  0
  3  6  1  0
  4  7  1  0
  5  8  1  0
  6  8  2  0
  5  9  1  0
  7 10  2  0
  8 11  1  0
  9 12  2  0
 10 12  1  0
 11 13  2  0
 11 14  1  0
M  END
