mac-x0354-mac-x0348
     RDKit          3D

 28 31  0  0  0  0  0  0  0  0999 V2000
   35.3360   43.4480   -1.6610 C   0  0  0  0  0  0  0  0  0  0  0  0
   34.6930   43.6710   -2.9340 N   0  0  0  0  0  0  0  0  0  0  0  0
   33.9460   42.6850   -3.4620 N   0  0  0  0  0  0  0  0  0  0  0  0
   34.7470   44.8080   -3.7120 C   0  0  0  0  0  0  0  0  0  0  0  0
   33.5100   43.2030   -4.6080 C   0  0  0  0  0  0  0  0  0  0  0  0
   33.9700   44.5270   -4.8320 C   0  0  0  0  0  0  0  0  0  0  0  0
   35.5010   46.0030   -3.3360 C   0  0  0  0  0  0  0  0  0  0  0  0
   33.6390   45.3520   -6.0380 C   0  0  2  0  0  0  0  0  0  0  0  0
   36.9000   45.9790   -3.3220 C   0  0  0  0  0  0  0  0  0  0  0  0
   34.8370   47.1840   -2.9870 C   0  0  0  0  0  0  0  0  0  0  0  0
   32.1170   45.5140   -6.1910 C   0  0  0  0  0  0  0  0  0  0  0  0
   34.2740   44.9000   -7.2300 O   0  0  0  0  0  0  0  0  0  0  0  0
   37.6230   47.1190   -2.9650 C   0  0  0  0  0  0  0  0  0  0  0  0
   35.5590   48.3250   -2.6300 C   0  0  0  0  0  0  0  0  0  0  0  0
   31.2490   45.1890   -4.9870 C   0  0  0  0  0  0  0  0  0  0  0  0
   31.6320   45.8990   -7.2610 O   0  0  0  0  0  0  0  0  0  0  0  0
   36.9540   48.2910   -2.6190 C   0  0  0  0  0  0  0  0  0  0  0  0
   30.2740   46.3070   -4.6310 C   0  0  0  0  0  0  0  0  0  0  0  0
   29.7100   46.1680   -3.2510 C   0  0  0  0  0  0  0  0  0  0  0  0
   28.7370   45.2640   -2.8650 C   0  0  0  0  0  0  0  0  0  0  0  0
   30.0560   46.9240   -2.0860 C   0  0  0  0  0  0  0  0  0  0  0  0
   28.4850   45.4400   -1.5330 N   0  0  0  0  0  0  0  0  0  0  0  0
   29.2750   46.4480   -1.0280 C   0  0  0  0  0  0  0  0  0  0  0  0
   30.9650   47.9710   -1.8370 C   0  0  0  0  0  0  0  0  0  0  0  0
   27.5260   44.6740   -0.7690 C   0  0  0  0  0  0  0  0  0  0  0  0
   31.0650   48.5100   -0.5480 C   0  0  0  0  0  0  0  0  0  0  0  0
   29.3700   46.9820    0.2680 C   0  0  0  0  0  0  0  0  0  0  0  0
   30.2770   48.0190    0.4870 C   0  0  0  0  0  0  0  0  0  0  0  0
  1  2  1  0
  2  3  1  0
  2  4  1  0
  3  5  2  0
  4  6  2  0
  5  6  1  0
  4  7  1  0
  6  8  1  0
  7  9  2  0
  7 10  1  0
  8 11  1  0
  8 12  1  6
  9 13  1  0
 10 14  2  0
 11 15  1  0
 11 16  2  0
 13 17  2  0
 14 17  1  0
 15 18  1  0
 18 19  1  0
 19 20  2  0
 19 21  1  0
 20 22  1  0
 21 23  2  0
 22 23  1  0
 21 24  1  0
 22 25  1  0
 24 26  2  0
 23 27  1  0
 26 28  1  0
 27 28  2  0
M  END
