mac-x0228-mac-x0139
     RDKit          3D

 26 29  0  0  0  0  0  0  0  0999 V2000
   30.2360   47.3140   -5.5020 N   0  0  0  0  0  0  0  0  0  0  0  0
   30.4690   48.0140   -4.2930 C   0  0  0  0  0  0  0  0  0  0  0  0
   30.8910   47.4710   -3.2770 O   0  0  0  0  0  0  0  0  0  0  0  0
   30.6850   45.9110   -5.6730 C   0  0  0  0  0  0  0  0  0  0  0  0
   29.1260   47.7720   -6.3790 C   0  0  1  0  0  0  0  0  0  0  0  0
   32.1950   45.6970   -5.5960 C   0  0  0  0  0  0  0  0  0  0  0  0
   30.2200   49.4700   -4.1500 C   0  0  0  0  0  0  0  0  0  0  0  0
   29.3770   49.1830   -6.9460 C   0  0  1  0  0  0  0  0  0  0  0  0
   28.9970   46.7400   -7.4170 N   0  0  0  0  0  0  0  0  0  0  0  0
   32.7690   45.0310   -6.8230 C   0  0  0  0  0  0  0  0  0  0  0  0
   30.6780   50.3670   -5.1290 C   0  0  0  0  0  0  0  0  0  0  0  0
   29.5200   49.9360   -3.0190 C   0  0  0  0  0  0  0  0  0  0  0  0
   28.8130   49.3250   -8.3890 C   0  0  1  0  0  0  0  0  0  0  0  0
   28.2960   47.0490   -8.6460 C   0  0  0  0  0  0  0  0  0  0  0  0
   28.6340   50.2950   -6.2420 C   0  0  0  0  0  0  0  0  0  0  0  0
   32.0960   44.4550   -7.6690 O   0  0  0  0  0  0  0  0  0  0  0  0
   34.1160   45.1230   -6.9190 O   0  0  0  0  0  0  0  0  0  0  0  0
   30.4110   51.7160   -4.9460 C   0  0  0  0  0  0  0  0  0  0  0  0
   29.2680   51.3020   -2.8560 C   0  0  0  0  0  0  0  0  0  0  0  0
   27.7610   48.3820   -8.6750 N   0  0  0  0  0  0  0  0  0  0  0  0
   28.4630   50.7430   -8.4330 N   0  0  0  0  0  0  0  0  0  0  0  0
   28.1530   51.1390   -7.1530 C   0  0  0  0  0  0  0  0  0  0  0  0
   29.7220   52.1650   -3.8310 C   0  0  0  0  0  0  0  0  0  0  0  0
   30.7550   52.8770   -5.8010 C   0  0  0  0  0  0  0  0  0  0  0  0
   29.5440   53.5250   -3.8040 O   0  0  0  0  0  0  0  0  0  0  0  0
   29.8370   53.9230   -5.1640 C   0  0  0  0  0  0  0  0  0  0  0  0
  1  2  1  0
  2  3  2  0
  1  4  1  0
  5  1  1  1
  4  6  1  0
  2  7  1  0
  5  8  1  0
  5  9  1  0
  6 10  1  0
  7 11  2  0
  7 12  1  0
  8 13  1  0
  9 14  1  0
  8 15  1  1
 10 16  2  0
 10 17  1  0
 11 18  1  0
 12 19  2  0
 13 20  1  1
 14 20  1  0
 13 21  1  0
 15 22  2  0
 21 22  1  0
 18 23  2  0
 19 23  1  0
 18 24  1  0
 23 25  1  0
 24 26  1  0
 25 26  1  0
M  END
