mac-x0231-mac-x0163
     RDKit          3D

 30 33  0  0  0  0  0  0  0  0999 V2000
   33.7510   43.3310   -6.6330 O   0  0  0  0  0  0  0  0  0  0  0  0
   32.6400   43.0370   -5.9350 C   0  0  0  0  0  0  0  0  0  0  0  0
   31.5810   42.8500   -6.5170 O   0  0  0  0  0  0  0  0  0  0  0  0
   32.8490   42.9690   -4.4510 C   0  0  0  0  0  0  0  0  0  0  0  0
   31.6330   43.2760   -3.5990 C   0  0  0  0  0  0  0  0  0  0  0  0
   31.4460   44.6420   -3.0390 C   0  0  0  0  0  0  0  0  0  0  0  0
   30.7880   42.3110   -3.3860 N   0  0  0  0  0  0  0  0  0  0  0  0
   30.3790   44.8360   -2.1670 C   0  0  0  0  0  0  0  0  0  0  0  0
   29.6920   42.5710   -2.6180 N   0  0  0  0  0  0  0  0  0  0  0  0
   32.2800   45.7200   -3.3490 C   0  0  0  0  0  0  0  0  0  0  0  0
   29.5050   43.6950   -1.8520 C   0  0  0  0  0  0  0  0  0  0  0  0
   30.1390   46.0930   -1.6010 C   0  0  0  0  0  0  0  0  0  0  0  0
   32.0510   46.9890   -2.7940 C   0  0  0  0  0  0  0  0  0  0  0  0
   28.6640   43.7550   -0.9610 O   0  0  0  0  0  0  0  0  0  0  0  0
   30.9760   47.1650   -1.9170 C   0  0  0  0  0  0  0  0  0  0  0  0
   32.9560   48.1390   -3.1520 C   0  0  0  0  0  0  0  0  0  0  0  0
   32.9570   48.5610   -4.6440 C   0  0  2  0  0  0  0  0  0  0  0  0
   31.7420   49.4140   -5.0620 C   0  0  0  0  0  0  0  0  0  0  0  0
   33.2110   47.4120   -5.6170 C   0  0  0  0  0  0  0  0  0  0  0  0
   30.5210   48.6200   -5.3470 N   0  0  0  0  0  0  0  0  0  0  0  0
   31.9370   46.7610   -6.1490 C   0  0  0  0  0  0  0  0  0  0  0  0
   29.8410   49.1330   -6.4810 C   0  0  0  0  0  0  0  0  0  0  0  0
   30.6700   47.1610   -5.3950 C   0  0  0  0  0  0  0  0  0  0  0  0
   29.1170   50.3200   -6.3970 C   0  0  0  0  0  0  0  0  0  0  0  0
   29.9150   48.4370   -7.6440 N   0  0  0  0  0  0  0  0  0  0  0  0
   29.0020   51.2350   -4.9280 Cl  0  0  0  0  0  0  0  0  0  0  0  0
   28.4800   50.7510   -7.5540 C   0  0  0  0  0  0  0  0  0  0  0  0
   29.2610   48.9470   -8.6960 C   0  0  0  0  0  0  0  0  0  0  0  0
   27.7200   51.9240   -7.6060 N   0  0  0  0  0  0  0  0  0  0  0  0
   28.5430   50.0740   -8.7140 N   0  0  0  0  0  0  0  0  0  0  0  0
  1  2  1  0
  2  3  2  0
  2  4  1  0
  4  5  1  0
  5  6  1  0
  5  7  2  0
  6  8  2  0
  7  9  1  0
  6 10  1  0
  8 11  1  0
  9 11  1  0
  8 12  1  0
 10 13  2  0
 11 14  2  0
 12 15  2  0
 13 15  1  0
 13 16  1  0
 17 16  1  1
 17 18  1  0
 17 19  1  0
 18 20  1  0
 19 21  1  0
 20 22  1  0
 20 23  1  0
 21 23  1  0
 22 24  2  0
 22 25  1  0
 24 26  1  0
 24 27  1  0
 25 28  2  0
 27 29  1  0
 27 30  2  0
 28 30  1  0
M  END
