mac-x0555-mac-x0411
     RDKit          3D

 26 28  0  0  0  0  0  0  0  0999 V2000
   28.7070   55.5290   -6.5210 N   0  0  0  0  0  0  0  0  0  0  0  0
   29.1180   54.4760   -5.6920 C   0  0  0  0  0  0  0  0  0  0  0  0
   29.7430   54.6930   -4.4690 C   0  0  0  0  0  0  0  0  0  0  0  0
   28.9210   53.1490   -6.0590 C   0  0  0  0  0  0  0  0  0  0  0  0
   29.3520   52.1030   -5.2220 C   0  0  0  0  0  0  0  0  0  0  0  0
   30.1700   53.7150   -3.6310 N   0  0  0  0  0  0  0  0  0  0  0  0
   29.9820   52.4370   -4.0080 C   0  0  0  0  0  0  0  0  0  0  0  0
   29.1730   50.7540   -5.5690 C   0  0  0  0  0  0  0  0  0  0  0  0
   30.4260   51.4020   -3.1860 C   0  0  0  0  0  0  0  0  0  0  0  0
   29.6280   49.7350   -4.7300 C   0  0  0  0  0  0  0  0  0  0  0  0
   30.2720   50.0400   -3.5260 C   0  0  0  0  0  0  0  0  0  0  0  0
   30.8010   48.9380   -2.6200 C   0  0  0  0  0  0  0  0  0  0  0  0
   32.3430   48.7140   -2.6890 C   0  0  0  0  0  0  0  0  0  0  0  0
   32.8520   47.3290   -3.1760 C   0  0  0  0  0  0  0  0  0  0  0  0
   34.3730   47.0940   -3.1470 C   0  0  0  0  0  0  0  0  0  0  0  0
   34.9850   45.8020   -3.2510 C   0  0  0  0  0  0  0  0  0  0  0  0
   35.2130   48.2170   -3.0090 C   0  0  0  0  0  0  0  0  0  0  0  0
   34.1580   44.7080   -3.3820 O   0  0  0  0  0  0  0  0  0  0  0  0
   36.6030   48.0900   -2.9710 C   0  0  0  0  0  0  0  0  0  0  0  0
   36.3910   45.6960   -3.2110 C   0  0  0  0  0  0  0  0  0  0  0  0
   37.2380   44.1900   -3.3250 Cl  0  0  0  0  0  0  0  0  0  0  0  0
   33.0970   44.6930   -4.3310 C   0  0  0  0  0  0  0  0  0  0  0  0
   37.1890   46.8350   -3.0720 C   0  0  0  0  0  0  0  0  0  0  0  0
   33.2770   45.1410   -5.7820 C   0  0  0  0  0  0  0  0  0  0  0  0
   32.0950   45.1880   -6.4390 O   0  0  0  0  0  0  0  0  0  0  0  0
   34.3020   45.4380   -6.3680 O   0  0  0  0  0  0  0  0  0  0  0  0
  1  2  1  0
  2  3  2  0
  2  4  1  0
  4  5  2  0
  3  6  1  0
  5  7  1  0
  6  7  2  0
  5  8  1  0
  7  9  1  0
  8 10  2  0
  9 11  2  0
 10 11  1  0
 11 12  1  0
 12 13  1  0
 13 14  1  0
 14 15  1  0
 15 16  2  0
 15 17  1  0
 16 18  1  0
 17 19  2  0
 16 20  1  0
 20 21  1  0
 18 22  1  0
 19 23  1  0
 20 23  2  0
 22 24  1  0
 24 25  1  0
 24 26  2  0
M  END
