mac-x0472-mac-x0396
     RDKit          3D

 23 25  0  0  0  0  0  0  0  0999 V2000
   30.2930   50.2980   -3.0710 O   0  0  0  0  0  0  0  0  0  0  0  0
   30.6470   49.7910   -4.3860 S   0  0  0  0  0  0  0  0  0  0  0  0
   30.8170   48.3560   -4.5410 O   0  0  0  0  0  0  0  0  0  0  0  0
   29.5730   50.4310   -5.6070 C   0  0  0  0  0  0  0  0  0  0  0  0
   32.2050   50.5700   -4.7720 C   0  0  0  0  0  0  0  0  0  0  0  0
   29.0790   51.6910   -5.6690 C   0  0  0  0  0  0  0  0  0  0  0  0
   29.1700   49.5760   -6.6580 C   0  0  0  0  0  0  0  0  0  0  0  0
   33.2820   49.7770   -5.1770 C   0  0  0  0  0  0  0  0  0  0  0  0
   32.3370   51.9560   -4.6700 C   0  0  0  0  0  0  0  0  0  0  0  0
   28.2250   52.1160   -6.6830 N   0  0  0  0  0  0  0  0  0  0  0  0
   28.7660   48.3220   -6.5770 N   0  0  0  0  0  0  0  0  0  0  0  0
   29.1730   50.1870   -8.2810 S   0  0  0  0  0  0  0  0  0  0  0  0
   34.5020   50.3810   -5.4820 C   0  0  0  0  0  0  0  0  0  0  0  0
   33.5580   52.5530   -4.9770 C   0  0  0  0  0  0  0  0  0  0  0  0
   29.3520   52.7870   -4.7250 C   0  0  0  0  0  0  0  0  0  0  0  0
   28.6040   48.6590   -8.7790 C   0  0  0  0  0  0  0  0  0  0  0  0
   28.4370   47.7920   -7.8070 N   0  0  0  0  0  0  0  0  0  0  0  0
   34.6380   51.7660   -5.3820 C   0  0  0  0  0  0  0  0  0  0  0  0
   29.1380   52.6790   -3.3520 C   0  0  0  0  0  0  0  0  0  0  0  0
   29.8450   54.0000   -5.2030 C   0  0  0  0  0  0  0  0  0  0  0  0
   29.3780   53.6770   -2.4660 N   0  0  0  0  0  0  0  0  0  0  0  0
   30.1030   55.0420   -4.3190 C   0  0  0  0  0  0  0  0  0  0  0  0
   29.8550   54.8330   -2.9740 C   0  0  0  0  0  0  0  0  0  0  0  0
  1  2  2  0
  2  3  2  0
  2  4  1  0
  2  5  1  0
  4  6  2  3
  4  7  1  0
  5  8  2  0
  5  9  1  0
  6 10  1  0
  7 11  2  0
  7 12  1  0
  8 13  1  0
  9 14  2  0
  6 15  1  0
 12 16  1  0
 11 17  1  0
 16 17  2  0
 13 18  2  0
 14 18  1  0
 15 19  2  0
 15 20  1  0
 19 21  1  0
 20 22  2  0
 21 23  2  0
 22 23  1  0
M  END
