mac-x0588-mac-x0337
     RDKit          3D

 26 29  0  0  0  0  0  0  0  0999 V2000
   30.0250   50.7150   -6.1470 N   0  0  0  0  0  0  0  0  0  0  0  0
   30.3610   51.7040   -4.8320 S   0  0  0  0  0  0  0  0  0  0  0  0
   29.5250   52.8870   -4.8890 O   0  0  0  0  0  0  0  0  0  0  0  0
   28.7780   49.9520   -6.2160 C   0  0  2  0  0  0  0  0  0  0  0  0
   30.3550   50.8390   -3.6650 O   0  0  0  0  0  0  0  0  0  0  0  0
   28.4700   49.5840   -4.8250 N   0  0  0  0  0  0  0  0  0  0  0  0
   28.9050   48.7560   -7.2040 C   0  0  1  0  0  0  0  0  0  0  0  0
   32.0590   52.1580   -5.0800 C   0  0  0  0  0  0  0  0  0  0  0  0
   29.2370   48.4610   -4.3200 C   0  0  0  0  0  0  0  0  0  0  0  0
   29.4150   47.5040   -6.4770 C   0  0  1  0  0  0  0  0  0  0  0  0
   27.6350   48.2940   -7.7970 N   0  0  0  0  0  0  0  0  0  0  0  0
   33.0450   51.1650   -5.0640 C   0  0  0  0  0  0  0  0  0  0  0  0
   32.3990   53.4940   -5.2870 C   0  0  0  0  0  0  0  0  0  0  0  0
   28.9100   47.3070   -5.1310 N   0  0  0  0  0  0  0  0  0  0  0  0
   28.9400   46.4120   -7.3120 N   0  0  0  0  0  0  0  0  0  0  0  0
   27.8920   46.9170   -8.1760 C   0  0  0  0  0  0  0  0  0  0  0  0
   34.3830   51.5200   -5.2580 C   0  0  0  0  0  0  0  0  0  0  0  0
   33.7370   53.8430   -5.4810 C   0  0  0  0  0  0  0  0  0  0  0  0
   29.3960   46.0410   -4.5430 C   0  0  0  0  0  0  0  0  0  0  0  0
   34.7370   52.8610   -5.4680 C   0  0  0  0  0  0  0  0  0  0  0  0
   36.1750   53.2370   -5.6770 C   0  0  0  0  0  0  0  0  0  0  0  0
   28.4750   45.4010   -3.4680 C   0  0  2  0  0  0  0  0  0  0  0  0
   28.8130   45.8900   -2.1560 O   0  0  0  0  0  0  0  0  0  0  0  0
   28.6420   43.8880   -3.3860 C   0  0  0  0  0  0  0  0  0  0  0  0
   28.2440   43.5950   -1.9610 C   0  0  0  0  0  0  0  0  0  0  0  0
   28.7820   44.8030   -1.2240 C   0  0  0  0  0  0  0  0  0  0  0  0
  2  1  1  0
  2  3  2  0
  4  1  1  1
  2  5  2  0
  4  6  1  0
  4  7  1  0
  2  8  1  0
  6  9  1  0
  7 10  1  0
  7 11  1  1
  8 12  2  0
  8 13  1  0
  9 14  1  0
 10 14  1  0
 10 15  1  6
 11 16  1  0
 15 16  1  0
 12 17  1  0
 13 18  2  0
 14 19  1  0
 17 20  2  0
 18 20  1  0
 20 21  1  0
 22 19  1  6
 22 23  1  0
 22 24  1  0
 24 25  1  0
 23 26  1  0
 25 26  1  0
M  END
