mac-x0190-mac-x0365
     RDKit          3D

 16 17  0  0  0  0  0  0  0  0999 V2000
   28.5850   56.9380   -5.4770 O   0  0  0  0  0  0  0  0  0  0  0  0
   29.7110   56.2700   -4.9370 C   0  0  0  0  0  0  0  0  0  0  0  0
   29.5630   54.7650   -5.0410 C   0  0  0  0  0  0  0  0  0  0  0  0
   29.8850   53.9700   -3.9470 N   0  0  0  0  0  0  0  0  0  0  0  0
   29.1120   54.1620   -6.1120 N   0  0  0  0  0  0  0  0  0  0  0  0
   29.6070   52.7720   -4.3900 C   0  0  0  0  0  0  0  0  0  0  0  0
   29.1860   52.8470   -5.7760 C   0  0  0  0  0  0  0  0  0  0  0  0
   29.6460   51.4690   -3.6510 C   0  0  2  0  0  0  0  0  0  0  0  0
   28.9670   51.7360   -6.4740 C   0  0  0  0  0  0  0  0  0  0  0  0
   28.4800   51.5970   -2.8720 O   0  0  0  0  0  0  0  0  0  0  0  0
   30.6570   51.4200   -2.7490 F   0  0  0  0  0  0  0  0  0  0  0  0
   29.5270   50.2800   -4.5950 C   0  0  0  0  0  0  0  0  0  0  0  0
   29.1910   50.4340   -5.8890 C   0  0  0  0  0  0  0  0  0  0  0  0
   29.7820   48.8490   -4.2240 C   0  0  0  0  0  0  0  0  0  0  0  0
   29.5030   47.9680   -5.2150 O   0  0  0  0  0  0  0  0  0  0  0  0
   30.2220   48.4750   -3.1480 O   0  0  0  0  0  0  0  0  0  0  0  0
  1  2  1  0
  2  3  1  0
  3  4  1  0
  3  5  2  0
  4  6  2  0
  5  7  1  0
  6  7  1  0
  6  8  1  0
  7  9  2  0
  8 10  1  1
  8 11  1  0
  8 12  1  0
  9 13  1  0
 12 13  2  0
 12 14  1  0
 14 15  1  0
 14 16  2  0
M  END
