mac-x0132-mac-x0415
     RDKit          3D

 26 29  0  0  0  0  0  0  0  0999 V2000
   28.7500   52.3080   -7.2810 N   0  0  0  0  0  0  0  0  0  0  0  0
   29.0570   52.8250   -6.0140 C   0  0  0  0  0  0  0  0  0  0  0  0
   29.1830   54.1610   -5.9580 N   0  0  0  0  0  0  0  0  0  0  0  0
   29.2150   51.9930   -4.8950 C   0  0  0  0  0  0  0  0  0  0  0  0
   29.5110   52.6640   -3.7030 C   0  0  0  0  0  0  0  0  0  0  0  0
   29.4740   54.6810   -4.7610 C   0  0  0  0  0  0  0  0  0  0  0  0
   29.0950   50.5780   -4.8890 C   0  0  0  0  0  0  0  0  0  0  0  0
   29.6430   53.9920   -3.6300 N   0  0  0  0  0  0  0  0  0  0  0  0
   29.6690   51.9270   -2.5420 C   0  0  0  0  0  0  0  0  0  0  0  0
   29.2580   49.8510   -3.7020 C   0  0  0  0  0  0  0  0  0  0  0  0
   29.5420   50.5320   -2.5100 C   0  0  0  0  0  0  0  0  0  0  0  0
   29.7060   49.8280   -1.1660 C   0  0  0  0  0  0  0  0  0  0  0  0
   30.7350   48.8280   -1.0900 O   0  0  0  0  0  0  0  0  0  0  0  0
   30.3650   47.6030   -1.6190 C   0  0  0  0  0  0  0  0  0  0  0  0
   29.4280   46.7570   -0.8660 C   0  0  0  0  0  0  0  0  0  0  0  0
   30.8630   47.1970   -2.8020 C   0  0  0  0  0  0  0  0  0  0  0  0
   30.4400   45.9150   -3.2770 C   0  0  0  0  0  0  0  0  0  0  0  0
   28.7940   45.7240   -1.4800 C   0  0  0  0  0  0  0  0  0  0  0  0
   31.1000   45.0220   -4.0080 C   0  0  0  0  0  0  0  0  0  0  0  0
   29.0600   45.4790   -2.9340 C   0  0  2  0  0  0  0  0  0  0  0  0
   32.4520   45.0220   -4.6110 C   0  0  0  0  0  0  0  0  0  0  0  0
   30.1150   43.9340   -4.0650 C   0  0  0  0  0  0  0  0  0  0  0  0
   28.9660   44.1010   -3.4600 N   0  0  0  0  0  0  0  0  0  0  0  0
   32.5530   45.8790   -5.8590 C   0  0  0  0  0  0  0  0  0  0  0  0
   33.7130   46.5780   -5.9260 O   0  0  0  0  0  0  0  0  0  0  0  0
   31.7010   45.9570   -6.7330 O   0  0  0  0  0  0  0  0  0  0  0  0
  1  2  1  0
  2  3  2  0
  2  4  1  0
  4  5  2  0
  3  6  1  0
  4  7  1  0
  5  8  1  0
  6  8  2  0
  5  9  1  0
  7 10  2  0
  9 11  2  0
 10 11  1  0
 11 12  1  0
 12 13  1  0
 13 14  1  0
 14 15  1  0
 14 16  2  0
 16 17  1  0
 15 18  2  0
 17 19  2  0
 17 20  1  0
 20 18  1  1
 19 21  1  0
 19 22  1  0
 20 23  1  0
 22 23  2  0
 21 24  1  0
 24 25  1  0
 24 26  2  0
M  END
