mac-x0472-mac-x0328
     RDKit          3D

 23 25  0  0  0  0  0  0  0  0999 V2000
   31.6710   47.5400   -4.4230 O   0  0  0  0  0  0  0  0  0  0  0  0
   31.0870   48.8100   -4.0220 S   0  0  0  0  0  0  0  0  0  0  0  0
   30.8640   49.0450   -2.6030 O   0  0  0  0  0  0  0  0  0  0  0  0
   29.4940   48.9400   -4.8690 N   0  0  1  0  0  0  0  0  0  0  0  0
   32.2640   50.0420   -4.5780 C   0  0  0  0  0  0  0  0  0  0  0  0
   30.2280   48.1810   -5.7970 O   0  0  0  0  0  0  0  0  0  0  0  0
   29.0230   49.4740   -6.2050 C   0  0  0  0  0  0  0  0  0  0  0  0
   33.1330   49.7330   -5.6310 C   0  0  0  0  0  0  0  0  0  0  0  0
   32.3200   51.3010   -3.9680 C   0  0  0  0  0  0  0  0  0  0  0  0
   29.6410   50.4320   -4.5370 C   0  0  0  0  0  0  0  0  0  0  0  0
   29.5120   49.0730   -7.3690 N   0  0  0  0  0  0  0  0  0  0  0  0
   27.7890   50.6790   -6.3800 S   0  0  0  0  0  0  0  0  0  0  0  0
   34.0550   50.6820   -6.0710 C   0  0  0  0  0  0  0  0  0  0  0  0
   33.2450   52.2450   -4.4140 C   0  0  0  0  0  0  0  0  0  0  0  0
   30.1150   51.3950   -5.4520 C   0  0  0  0  0  0  0  0  0  0  0  0
   29.2820   50.8840   -3.2460 C   0  0  0  0  0  0  0  0  0  0  0  0
   28.0100   50.5700   -8.0700 C   0  0  0  0  0  0  0  0  0  0  0  0
   28.9260   49.7050   -8.4470 N   0  0  0  0  0  0  0  0  0  0  0  0
   34.1100   51.9360   -5.4640 C   0  0  0  0  0  0  0  0  0  0  0  0
   30.2170   52.7410   -5.0930 C   0  0  0  0  0  0  0  0  0  0  0  0
   29.3860   52.2320   -2.8880 C   0  0  0  0  0  0  0  0  0  0  0  0
   29.8510   53.1480   -3.8180 C   0  0  0  0  0  0  0  0  0  0  0  0
   29.9650   54.4710   -3.5160 O   0  0  0  0  0  0  0  0  0  0  0  0
  1  2  2  0
  2  3  2  0
  2  4  1  0
  2  5  1  0
  4  6  1  1
  4  7  1  0
  5  8  2  0
  5  9  1  0
  4 10  1  0
  7 11  2  0
  7 12  1  0
  8 13  1  0
  9 14  2  0
 10 15  2  0
 10 16  1  0
 12 17  1  0
 11 18  1  0
 17 18  2  0
 13 19  2  0
 14 19  1  0
 15 20  1  0
 16 21  2  0
 20 22  2  0
 21 22  1  0
 22 23  1  0
M  CHG  2   4   1   6  -1
M  END
