mac-x0224-mac-x0568
     RDKit          3D

 21 22  0  0  0  0  0  0  0  0999 V2000
   27.2900   50.9280   -6.0370 C   0  0  0  0  0  0  0  0  0  0  0  0
   28.8220   50.1560   -6.3770 S   0  0  1  0  0  0  0  0  0  0  0  0
   29.9970   51.4450   -6.5080 C   0  0  0  0  0  0  0  0  0  0  0  0
   29.2760   49.0460   -5.1150 C   0  0  0  0  0  0  0  0  0  0  0  0
   31.0390   51.1220   -7.0630 O   0  0  0  0  0  0  0  0  0  0  0  0
   29.7090   47.7700   -5.4730 C   0  0  0  0  0  0  0  0  0  0  0  0
   29.2060   49.4290   -3.7780 C   0  0  0  0  0  0  0  0  0  0  0  0
   29.8100   52.8270   -6.0160 C   0  0  0  0  0  0  0  0  0  0  0  0
   30.0790   46.8600   -4.4720 C   0  0  0  0  0  0  0  0  0  0  0  0
   29.5740   48.5240   -2.7810 C   0  0  0  0  0  0  0  0  0  0  0  0
   30.4620   53.2150   -4.8520 C   0  0  0  0  0  0  0  0  0  0  0  0
   29.0130   53.7800   -6.6510 C   0  0  0  0  0  0  0  0  0  0  0  0
   30.5300   45.5240   -4.9040 C   0  0  0  0  0  0  0  0  0  0  0  0
   30.0100   47.2400   -3.1260 C   0  0  0  0  0  0  0  0  0  0  0  0
   30.3710   54.4550   -4.3030 N   0  0  0  0  0  0  0  0  0  0  0  0
   28.9040   55.0610   -6.1070 C   0  0  0  0  0  0  0  0  0  0  0  0
   30.3650   46.3680   -2.1380 O   0  0  0  0  0  0  0  0  0  0  0  0
   30.1240   44.9190   -5.8820 O   0  0  0  0  0  0  0  0  0  0  0  0
   31.4660   45.0070   -4.0900 O   0  0  0  0  0  0  0  0  0  0  0  0
   29.5940   55.3610   -4.9360 C   0  0  0  0  0  0  0  0  0  0  0  0
   29.4940   56.7290   -4.3300 C   0  0  0  0  0  0  0  0  0  0  0  0
  2  1  1  1
  2  3  1  0
  2  4  1  0
  3  5  2  0
  4  6  2  0
  4  7  1  0
  3  8  1  0
  6  9  1  0
  7 10  2  0
  8 11  2  0
  8 12  1  0
  9 13  1  0
  9 14  2  0
 10 14  1  0
 11 15  1  0
 12 16  2  0
 14 17  1  0
 13 18  2  0
 13 19  1  0
 15 20  2  0
 16 20  1  0
 20 21  1  0
M  END
