mac-x0361-mac-x0115
     RDKit          3D

 27 29  0  0  0  0  0  0  0  0999 V2000
   29.1280   54.8600   -4.2640 N   0  0  0  0  0  0  0  0  0  0  0  0
   29.6360   53.9870   -3.3440 C   0  0  0  0  0  0  0  0  0  0  0  0
   30.0210   54.3800   -2.2480 O   0  0  0  0  0  0  0  0  0  0  0  0
   29.7060   52.5440   -3.7200 C   0  0  0  0  0  0  0  0  0  0  0  0
   30.6620   52.1520   -4.6690 C   0  0  0  0  0  0  0  0  0  0  0  0
   28.8530   51.5840   -3.1570 C   0  0  0  0  0  0  0  0  0  0  0  0
   30.7650   50.8130   -5.0530 C   0  0  0  0  0  0  0  0  0  0  0  0
   28.9570   50.2450   -3.5420 C   0  0  0  0  0  0  0  0  0  0  0  0
   29.9130   49.8660   -4.4890 C   0  0  0  0  0  0  0  0  0  0  0  0
   29.9810   48.5420   -4.8390 O   0  0  0  0  0  0  0  0  0  0  0  0
   29.9010   48.2170   -6.1640 C   0  0  0  0  0  0  0  0  0  0  0  0
   30.1450   47.0480   -6.7730 C   0  0  0  0  0  0  0  0  0  0  0  0
   29.5070   49.0870   -7.2850 C   0  0  0  0  0  0  0  0  0  0  0  0
   30.5420   45.8060   -6.2810 N   0  0  0  0  0  0  0  0  0  0  0  0
   29.9260   47.1780   -8.2440 C   0  0  2  0  0  0  0  0  0  0  0  0
   29.4890   48.5750   -8.4810 N   0  0  0  0  0  0  0  0  0  0  0  0
   30.9110   45.6760   -4.8480 C   0  0  0  0  0  0  0  0  0  0  0  0
   30.1810   44.6700   -7.0410 C   0  0  0  0  0  0  0  0  0  0  0  0
   28.9550   46.0950   -8.6550 C   0  0  0  0  0  0  0  0  0  0  0  0
   30.0010   44.7040   -4.0850 C   0  0  0  0  0  0  0  0  0  0  0  0
   28.0090   46.2140   -9.4260 O   0  0  0  0  0  0  0  0  0  0  0  0
   30.7470   43.1020   -6.8690 S   0  0  0  0  0  0  0  0  0  0  0  0
   29.2520   44.8870   -8.0490 N   0  0  0  0  0  0  0  0  0  0  0  0
   30.1960   44.8180   -2.6730 O   0  0  0  0  0  0  0  0  0  0  0  0
   28.9930   44.7860   -1.8980 C   0  0  0  0  0  0  0  0  0  0  0  0
   28.2020   46.0730   -2.1180 C   0  0  0  0  0  0  0  0  0  0  0  0
   28.1850   43.5780   -2.3560 C   0  0  0  0  0  0  0  0  0  0  0  0
  1  2  1  0
  2  3  2  0
  2  4  1  0
  4  5  2  0
  4  6  1  0
  5  7  1  0
  6  8  2  0
  7  9  2  0
  8  9  1  0
  9 10  1  0
 10 11  1  0
 11 12  2  0
 11 13  1  0
 12 14  1  0
 12 15  1  0
 13 16  2  0
 15 16  1  1
 14 17  1  0
 14 18  1  0
 15 19  1  0
 17 20  1  0
 19 21  2  0
 18 22  2  0
 18 23  1  0
 19 23  1  0
 20 24  1  0
 24 25  1  0
 25 26  1  0
 25 27  1  0
M  END
