mac-x0231-mac-x0398
     RDKit          3D

 26 28  0  0  0  0  0  0  0  0999 V2000
   34.4000   45.1240   -6.3750 O   0  0  0  0  0  0  0  0  0  0  0  0
   33.1250   44.7190   -6.1730 C   0  0  0  0  0  0  0  0  0  0  0  0
   32.2180   45.0430   -6.9330 O   0  0  0  0  0  0  0  0  0  0  0  0
   32.9120   43.8560   -4.9450 C   0  0  0  0  0  0  0  0  0  0  0  0
   31.6520   44.3090   -4.2570 C   0  0  0  0  0  0  0  0  0  0  0  0
   31.6290   45.6820   -3.7320 C   0  0  0  0  0  0  0  0  0  0  0  0
   30.6390   43.4990   -4.2460 N   0  0  0  0  0  0  0  0  0  0  0  0
   30.3880   46.2320   -3.4310 C   0  0  0  0  0  0  0  0  0  0  0  0
   29.4970   43.9920   -3.7060 N   0  0  0  0  0  0  0  0  0  0  0  0
   32.8140   46.4080   -3.5740 C   0  0  0  0  0  0  0  0  0  0  0  0
   29.2020   45.3390   -3.5650 C   0  0  0  0  0  0  0  0  0  0  0  0
   30.3790   47.5860   -3.0330 C   0  0  0  0  0  0  0  0  0  0  0  0
   32.7810   47.7180   -3.1300 C   0  0  0  0  0  0  0  0  0  0  0  0
   28.0380   45.7080   -3.5020 O   0  0  0  0  0  0  0  0  0  0  0  0
   29.2540   48.3490   -2.7820 O   0  0  0  0  0  0  0  0  0  0  0  0
   31.5670   48.3090   -2.8730 C   0  0  0  0  0  0  0  0  0  0  0  0
   29.6850   49.6710   -2.6590 C   0  0  0  0  0  0  0  0  0  0  0  0
   30.2490   50.0960   -1.6680 O   0  0  0  0  0  0  0  0  0  0  0  0
   29.4390   50.6070   -3.8140 C   0  0  0  0  0  0  0  0  0  0  0  0
   29.5230   51.9780   -3.5570 C   0  0  0  0  0  0  0  0  0  0  0  0
   29.1340   50.1930   -5.1270 C   0  0  0  0  0  0  0  0  0  0  0  0
   29.8220   52.3980   -2.2940 O   0  0  0  0  0  0  0  0  0  0  0  0
   29.3100   52.9310   -4.5550 C   0  0  0  0  0  0  0  0  0  0  0  0
   28.9190   51.1640   -6.1370 C   0  0  0  0  0  0  0  0  0  0  0  0
   29.0050   52.5400   -5.8550 C   0  0  0  0  0  0  0  0  0  0  0  0
   28.7910   53.5110   -6.8450 N   0  0  0  0  0  0  0  0  0  0  0  0
  1  2  1  0
  2  3  2  0
  2  4  1  0
  4  5  1  0
  5  6  1  0
  5  7  2  0
  6  8  2  0
  7  9  1  0
  6 10  1  0
  8 11  1  0
  9 11  1  0
  8 12  1  0
 10 13  2  0
 11 14  2  0
 12 15  1  0
 12 16  2  0
 13 16  1  0
 15 17  1  0
 17 18  2  0
 17 19  1  0
 19 20  2  0
 19 21  1  0
 20 22  1  0
 20 23  1  0
 21 24  2  0
 23 25  2  0
 24 25  1  0
 25 26  1  0
M  END
