mac-x0380-mac-x0163
     RDKit          3D

 30 34  0  0  0  0  0  0  0  0999 V2000
   27.9860   48.6210   -4.0170 O   0  0  0  0  0  0  0  0  0  0  0  0
   28.9770   49.3520   -4.7360 C   0  0  0  0  0  0  0  0  0  0  0  0
   29.9850   49.5360   -3.7300 O   0  0  0  0  0  0  0  0  0  0  0  0
   28.4600   50.7630   -5.0460 C   0  0  0  0  0  0  0  0  0  0  0  0
   29.5270   48.5720   -5.9280 C   0  0  0  0  0  0  0  0  0  0  0  0
   29.1900   51.9090   -4.6740 C   0  0  0  0  0  0  0  0  0  0  0  0
   27.2370   50.9680   -5.7110 C   0  0  0  0  0  0  0  0  0  0  0  0
   29.7450   49.1860   -7.1650 C   0  0  0  0  0  0  0  0  0  0  0  0
   29.8540   47.2040   -5.9010 C   0  0  0  0  0  0  0  0  0  0  0  0
   29.5040   50.5240   -7.4400 N   0  0  0  0  0  0  0  0  0  0  0  0
   28.7200   53.2010   -4.9540 C   0  0  0  0  0  0  0  0  0  0  0  0
   26.7600   52.2520   -5.9930 C   0  0  0  0  0  0  0  0  0  0  0  0
   30.3350   46.5600   -6.9800 N   0  0  0  0  0  0  0  0  0  0  0  0
   30.2250   48.5520   -8.2360 N   0  0  0  0  0  0  0  0  0  0  0  0
   29.7010   46.3970   -4.7290 N   0  0  0  0  0  0  0  0  0  0  0  0
   27.4980   53.3730   -5.6190 C   0  0  0  0  0  0  0  0  0  0  0  0
   29.7060   54.5970   -4.4490 S   0  0  0  0  0  0  0  0  0  0  0  0
   30.4970   47.2560   -8.0880 C   0  0  0  0  0  0  0  0  0  0  0  0
   29.6360   44.9340   -4.8570 C   0  0  0  0  0  0  0  0  0  0  0  0
   30.5440   46.8930   -3.6140 C   0  0  0  0  0  0  0  0  0  0  0  0
   26.9780   54.6420   -5.9260 N   0  0  0  0  0  0  0  0  0  0  0  0
   29.1770   55.7630   -5.7310 C   0  0  0  0  0  0  0  0  0  0  0  0
   31.0160   44.2710   -4.8840 C   0  0  0  0  0  0  0  0  0  0  0  0
   28.6040   44.2980   -3.8650 C   0  0  0  0  0  0  0  0  0  0  0  0
   28.6380   44.4990   -5.9780 C   0  0  0  0  0  0  0  0  0  0  0  0
   31.2800   45.7780   -2.8690 C   0  0  0  0  0  0  0  0  0  0  0  0
   27.6750   55.8210   -5.8980 C   0  0  0  0  0  0  0  0  0  0  0  0
   31.9710   44.8440   -3.8360 C   0  0  0  0  0  0  0  0  0  0  0  0
   28.1060   43.4190   -5.0190 C   0  0  0  0  0  0  0  0  0  0  0  0
   27.0810   56.9010   -6.0110 O   0  0  0  0  0  0  0  0  0  0  0  0
  2  1  1  0
  2  3  1  0
  2  4  1  0
  2  5  1  0
  4  6  2  0
  4  7  1  0
  5  8  2  0
  5  9  1  0
  8 10  1  0
  6 11  1  0
  7 12  2  0
  9 13  2  0
  8 14  1  0
  9 15  1  0
 11 16  2  0
 12 16  1  0
 11 17  1  0
 13 18  1  0
 14 18  2  0
 19 15  1  0
 15 20  1  0
 16 21  1  0
 17 22  1  0
 19 23  1  0
 19 24  1  0
 19 25  1  0
 20 26  1  0
 21 27  1  0
 22 27  1  0
 23 28  1  0
 26 28  1  0
 24 29  1  0
 25 29  1  0
 27 30  2  0
M  END
