mac-x0305-mac-x0360
     RDKit          3D

 21 22  0  0  0  0  0  0  0  0999 V2000
   30.8310   46.0160   -7.3570 O   0  0  0  0  0  0  0  0  0  0  0  0
   30.4030   46.1530   -6.0770 C   0  0  0  0  0  0  0  0  0  0  0  0
   30.3970   45.1920   -5.3350 O   0  0  0  0  0  0  0  0  0  0  0  0
   29.9810   47.5470   -5.7560 C   0  0  0  0  0  0  0  0  0  0  0  0
   29.4150   48.3970   -6.7090 C   0  0  0  0  0  0  0  0  0  0  0  0
   30.1980   47.9190   -4.4610 N   0  0  0  0  0  0  0  0  0  0  0  0
   29.1730   48.0750   -8.0200 O   0  0  0  0  0  0  0  0  0  0  0  0
   29.0630   49.6770   -6.3250 C   0  0  0  0  0  0  0  0  0  0  0  0
   29.8400   49.1810   -4.1240 C   0  0  0  0  0  0  0  0  0  0  0  0
   29.2800   50.0770   -5.0190 C   0  0  0  0  0  0  0  0  0  0  0  0
   28.9090   51.4210   -4.6740 N   0  0  0  0  0  0  0  0  0  0  0  0
   29.1080   52.3480   -5.8640 S   0  0  0  0  0  0  0  0  0  0  0  0
   28.4130   53.5810   -6.1180 O   0  0  0  0  0  0  0  0  0  0  0  0
   30.8420   52.6740   -5.9590 C   0  0  0  0  0  0  0  0  0  0  0  0
   31.7890   51.7280   -5.5350 C   0  0  0  0  0  0  0  0  0  0  0  0
   31.2250   53.9010   -6.4720 C   0  0  0  0  0  0  0  0  0  0  0  0
   33.1450   52.0500   -5.6390 C   0  0  0  0  0  0  0  0  0  0  0  0
   32.5760   54.1970   -6.5660 C   0  0  0  0  0  0  0  0  0  0  0  0
   33.0480   55.7240   -7.2010 Cl  0  0  0  0  0  0  0  0  0  0  0  0
   34.3520   50.9290   -5.1310 Cl  0  0  0  0  0  0  0  0  0  0  0  0
   33.5410   53.2820   -6.1530 C   0  0  0  0  0  0  0  0  0  0  0  0
  1  2  1  0
  2  3  2  0
  2  4  1  0
  4  5  2  0
  4  6  1  0
  5  7  1  0
  5  8  1  0
  6  9  2  0
  8 10  2  0
  9 10  1  0
 10 11  1  0
 11 12  2  0
 12 13  2  0
 12 14  1  0
 14 15  2  0
 14 16  1  0
 15 17  1  0
 16 18  2  0
 18 19  1  0
 17 20  1  0
 17 21  2  0
 18 21  1  0
M  END
