mac-x0204-mac-x0333
     RDKit          3D

 20 22  0  0  0  0  0  0  0  0999 V2000
   31.8110   46.5410   -6.4030 O   0  0  0  0  0  0  0  0  0  0  0  0
   30.8810   46.4030   -5.4510 C   0  0  0  0  0  0  0  0  0  0  0  0
   29.7930   45.9000   -5.6950 O   0  0  0  0  0  0  0  0  0  0  0  0
   31.2920   46.8800   -4.1180 C   0  0  0  0  0  0  0  0  0  0  0  0
   30.5430   47.6920   -3.2670 C   0  0  0  0  0  0  0  0  0  0  0  0
   32.5410   46.4770   -3.6670 C   0  0  0  0  0  0  0  0  0  0  0  0
   29.3160   48.1980   -3.6180 O   0  0  0  0  0  0  0  0  0  0  0  0
   31.0450   48.0230   -2.0050 C   0  0  0  0  0  0  0  0  0  0  0  0
   33.0630   46.8090   -2.4600 N   0  0  0  0  0  0  0  0  0  0  0  0
   30.3070   48.7790   -1.1460 O   0  0  0  0  0  0  0  0  0  0  0  0
   32.2980   47.5670   -1.6510 C   0  0  0  0  0  0  0  0  0  0  0  0
   29.3110   49.5110   -4.1400 C   0  0  0  0  0  0  0  0  0  0  0  0
   29.6470   50.6780   -3.4220 C   0  0  0  0  0  0  0  0  0  0  0  0
   28.9340   49.6270   -5.4970 C   0  0  0  0  0  0  0  0  0  0  0  0
   29.5840   51.9000   -4.0860 C   0  0  0  0  0  0  0  0  0  0  0  0
   28.8810   50.8760   -6.1400 C   0  0  0  0  0  0  0  0  0  0  0  0
   29.2110   51.9940   -5.4050 C   0  0  0  0  0  0  0  0  0  0  0  0
   29.8680   53.1210   -3.5490 O   0  0  0  0  0  0  0  0  0  0  0  0
   29.2100   53.2800   -5.8600 O   0  0  0  0  0  0  0  0  0  0  0  0
   29.6920   53.9810   -4.6950 C   0  0  0  0  0  0  0  0  0  0  0  0
  1  2  1  0
  2  3  2  0
  2  4  1  0
  4  5  2  0
  4  6  1  0
  5  7  1  0
  5  8  1  0
  6  9  2  0
  8 10  1  0
  8 11  2  0
  9 11  1  0
  7 12  1  0
 12 13  2  0
 12 14  1  0
 13 15  1  0
 14 16  2  0
 15 17  2  0
 16 17  1  0
 15 18  1  0
 17 19  1  0
 18 20  1  0
 19 20  1  0
M  END
