mac-x0394-mac-x0380
     RDKit          3D

 25 27  0  0  0  0  0  0  0  0999 V2000
   22.8250   50.1370   -4.7720 Cl  0  0  0  0  0  0  0  0  0  0  0  0
   24.0860   51.2620   -4.5210 C   0  0  0  0  0  0  0  0  0  0  0  0
   23.8180   52.4940   -3.9010 C   0  0  0  0  0  0  0  0  0  0  0  0
   25.3680   50.9220   -4.9280 C   0  0  0  0  0  0  0  0  0  0  0  0
   26.3560   51.8420   -4.6850 C   0  0  0  0  0  0  0  0  0  0  0  0
   24.8500   53.3940   -3.6870 C   0  0  0  0  0  0  0  0  0  0  0  0
   24.6340   54.9210   -2.9300 Cl  0  0  0  0  0  0  0  0  0  0  0  0
   26.0960   53.0560   -4.0810 C   0  0  0  0  0  0  0  0  0  0  0  0
   27.7210   51.7540   -4.9110 C   0  0  0  0  0  0  0  0  0  0  0  0
   28.4460   52.7410   -5.5470 C   0  0  0  0  0  0  0  0  0  0  0  0
   28.2820   50.6240   -4.3750 C   0  0  0  0  0  0  0  0  0  0  0  0
   29.6130   50.4340   -4.4090 C   0  0  0  0  0  0  0  0  0  0  0  0
   29.8030   52.5750   -5.5360 C   0  0  0  0  0  0  0  0  0  0  0  0
   27.8470   53.8910   -6.1880 N   0  0  0  0  0  0  0  0  0  0  0  0
   30.0760   49.1800   -3.8010 C   0  0  0  0  0  0  0  0  0  0  0  0
   30.4080   51.4270   -4.9780 C   0  0  0  0  0  0  0  0  0  0  0  0
   28.3960   55.1510   -6.0390 C   0  0  0  0  0  0  0  0  0  0  0  0
   30.7610   53.8790   -6.2310 S   0  0  0  0  0  0  0  0  0  0  0  0
   27.7610   53.5180   -7.5400 C   0  0  0  0  0  0  0  0  0  0  0  0
   30.1060   48.1470   -4.6650 O   0  0  0  0  0  0  0  0  0  0  0  0
   30.3740   49.1030   -2.6260 O   0  0  0  0  0  0  0  0  0  0  0  0
   27.7940   56.1870   -6.3690 O   0  0  0  0  0  0  0  0  0  0  0  0
   29.7910   55.2150   -5.4910 C   0  0  0  0  0  0  0  0  0  0  0  0
   28.9440   53.5660   -8.2020 O   0  0  0  0  0  0  0  0  0  0  0  0
   26.7530   53.1530   -8.1400 O   0  0  0  0  0  0  0  0  0  0  0  0
  1  2  1  0
  2  3  2  0
  2  4  1  0
  4  5  2  0
  3  6  1  0
  6  7  1  0
  5  8  1  0
  6  8  2  0
  5  9  1  0
  9 10  1  0
  9 11  2  0
 11 12  1  0
 10 13  2  0
 10 14  1  0
 12 15  1  0
 12 16  2  0
 13 16  1  0
 14 17  1  0
 13 18  1  0
 14 19  1  0
 15 20  1  0
 15 21  2  0
 17 22  2  0
 17 23  1  0
 18 23  1  0
 19 24  1  0
 19 25  2  0
M  END
