mac-x0255-mac-x0392
     RDKit          3D

 23 25  0  0  0  0  0  0  0  0999 V2000
   31.5430   44.5040   -7.4010 O   0  0  0  0  0  0  0  0  0  0  0  0
   32.5770   45.1240   -6.7990 C   0  0  0  0  0  0  0  0  0  0  0  0
   33.2460   45.9490   -7.4080 O   0  0  0  0  0  0  0  0  0  0  0  0
   32.8150   44.6890   -5.3710 C   0  0  0  0  0  0  0  0  0  0  0  0
   31.6480   44.9210   -4.4470 C   0  0  0  0  0  0  0  0  0  0  0  0
   30.5650   45.7820   -4.5180 C   0  0  0  0  0  0  0  0  0  0  0  0
   31.5650   44.0040   -3.0110 S   0  0  0  0  0  0  0  0  0  0  0  0
   30.3970   46.6370   -5.5460 O   0  0  0  0  0  0  0  0  0  0  0  0
   29.6620   45.6880   -3.4060 C   0  0  0  0  0  0  0  0  0  0  0  0
   30.1010   44.7420   -2.4910 C   0  0  0  0  0  0  0  0  0  0  0  0
   30.6690   47.9240   -5.1930 C   0  0  0  0  0  0  0  0  0  0  0  0
   28.4580   46.3790   -3.1120 C   0  0  0  0  0  0  0  0  0  0  0  0
   29.3890   44.4730   -1.3100 C   0  0  0  0  0  0  0  0  0  0  0  0
   31.4990   48.3050   -4.3750 O   0  0  0  0  0  0  0  0  0  0  0  0
   27.7450   46.1160   -1.9430 C   0  0  0  0  0  0  0  0  0  0  0  0
   28.2090   45.1710   -1.0470 C   0  0  0  0  0  0  0  0  0  0  0  0
   29.8090   48.8770   -5.9230 C   0  0  0  0  0  0  0  0  0  0  0  0
   29.3260   48.5680   -7.2070 C   0  0  0  0  0  0  0  0  0  0  0  0
   29.4860   50.0940   -5.3170 C   0  0  0  0  0  0  0  0  0  0  0  0
   29.6100   47.3640   -7.8770 N   0  0  0  0  0  0  0  0  0  0  0  0
   28.6880   50.9790   -6.0060 C   0  0  0  0  0  0  0  0  0  0  0  0
   28.5300   49.5450   -7.8010 C   0  0  0  0  0  0  0  0  0  0  0  0
   28.2010   50.7330   -7.2390 N   0  0  0  0  0  0  0  0  0  0  0  0
  1  2  1  0
  2  3  2  0
  2  4  1  0
  4  5  1  0
  5  6  2  0
  5  7  1  0
  6  8  1  0
  6  9  1  0
  7 10  1  0
  9 10  2  0
  8 11  1  0
  9 12  1  0
 10 13  1  0
 11 14  2  0
 12 15  2  0
 13 16  2  0
 15 16  1  0
 11 17  1  0
 17 18  2  0
 17 19  1  0
 18 20  1  0
 19 21  2  0
 18 22  1  0
 21 23  1  0
 22 23  2  0
M  END
