mac-x0116-mac-x0404
     RDKit          3D

 32 36  0  0  0  0  0  0  0  0999 V2000
   29.2220   53.7630   -7.2310 C   0  0  0  0  0  0  0  0  0  0  0  0
   28.9260   52.4060   -7.6780 N   0  0  0  0  0  0  0  0  0  0  0  0
   29.0110   51.4160   -6.6920 C   0  0  0  0  0  0  0  0  0  0  0  0
   30.5710   54.2780   -7.6060 C   0  0  0  0  0  0  0  0  0  0  0  0
   31.4690   54.4570   -6.5910 O   0  0  0  0  0  0  0  0  0  0  0  0
   31.1490   54.6310   -8.8100 C   0  0  0  0  0  0  0  0  0  0  0  0
   32.4670   55.0480   -8.5140 C   0  0  0  0  0  0  0  0  0  0  0  0
   32.6140   54.9240   -7.1530 C   0  0  0  0  0  0  0  0  0  0  0  0
   28.5860   51.6560   -5.4200 N   0  0  0  0  0  0  0  0  0  0  0  0
   29.5390   50.1370   -6.9740 C   0  0  0  0  0  0  0  0  0  0  0  0
   28.6910   50.6720   -4.5030 C   0  0  0  0  0  0  0  0  0  0  0  0
   29.5840   49.2280   -5.9280 C   0  0  0  0  0  0  0  0  0  0  0  0
   30.0450   49.5750   -8.1310 N   0  0  0  0  0  0  0  0  0  0  0  0
   29.1760   49.4280   -4.6620 N   0  0  0  0  0  0  0  0  0  0  0  0
   30.1310   48.0960   -6.4680 N   0  0  0  0  0  0  0  0  0  0  0  0
   30.3910   48.3480   -7.7880 C   0  0  0  0  0  0  0  0  0  0  0  0
   30.3900   46.8530   -5.7660 C   0  0  0  0  0  0  0  0  0  0  0  0
   31.2080   45.9990   -6.5750 O   0  0  0  0  0  0  0  0  0  0  0  0
   32.3850   45.5890   -6.0170 C   0  0  0  0  0  0  0  0  0  0  0  0
   33.4850   46.0580   -6.2860 O   0  0  0  0  0  0  0  0  0  0  0  0
   32.1700   44.4610   -5.0100 C   0  0  0  0  0  0  0  0  0  0  0  0
   30.9690   44.5010   -4.2490 O   0  0  0  0  0  0  0  0  0  0  0  0
   31.0390   45.0520   -2.9870 C   0  0  0  0  0  0  0  0  0  0  0  0
   29.8840   44.9230   -2.1740 C   0  0  0  0  0  0  0  0  0  0  0  0
   32.1730   45.7140   -2.4990 C   0  0  0  0  0  0  0  0  0  0  0  0
   29.8970   45.4740   -0.8680 C   0  0  0  0  0  0  0  0  0  0  0  0
   32.1740   46.2510   -1.2140 C   0  0  0  0  0  0  0  0  0  0  0  0
   28.7110   44.2670   -2.6060 C   0  0  0  0  0  0  0  0  0  0  0  0
   31.0460   46.1310   -0.4050 C   0  0  0  0  0  0  0  0  0  0  0  0
   28.7620   45.3570   -0.0500 C   0  0  0  0  0  0  0  0  0  0  0  0
   27.5910   44.1590   -1.7810 C   0  0  0  0  0  0  0  0  0  0  0  0
   27.6170   44.7040   -0.5020 C   0  0  0  0  0  0  0  0  0  0  0  0
  1  2  1  0
  2  3  1  0
  1  4  1  0
  4  5  1  0
  4  6  2  0
  6  7  1  0
  5  8  1  0
  7  8  2  0
  3  9  2  0
  3 10  1  0
  9 11  1  0
 10 12  2  0
 10 13  1  0
 11 14  2  0
 12 14  1  0
 12 15  1  0
 13 16  2  0
 15 16  1  0
 15 17  1  0
 17 18  1  0
 18 19  1  0
 19 20  2  0
 19 21  1  0
 21 22  1  0
 22 23  1  0
 23 24  1  0
 23 25  2  0
 24 26  2  0
 25 27  1  0
 24 28  1  0
 26 29  1  0
 27 29  2  0
 26 30  1  0
 28 31  2  0
 30 32  2  0
 31 32  1  0
M  END
