mac-x0387-mac-x0345
     RDKit          3D

 19 21  0  0  0  0  0  0  0  0999 V2000
   28.3330   50.9930   -6.7350 N   0  0  0  0  0  0  0  0  0  0  0  0
   28.6230   49.6320   -7.0310 C   0  0  0  0  0  0  0  0  0  0  0  0
   28.0790   49.0770   -8.1400 N   0  0  0  0  0  0  0  0  0  0  0  0
   28.7140   51.7500   -5.6040 C   0  0  0  0  0  0  0  0  0  0  0  0
   29.4730   48.8970   -6.1530 C   0  0  0  0  0  0  0  0  0  0  0  0
   29.2450   53.0310   -5.7070 C   0  0  0  0  0  0  0  0  0  0  0  0
   28.5620   51.2140   -4.3200 C   0  0  0  0  0  0  0  0  0  0  0  0
   29.7330   47.5460   -6.4750 C   0  0  0  0  0  0  0  0  0  0  0  0
   28.3550   47.7880   -8.4090 C   0  0  0  0  0  0  0  0  0  0  0  0
   30.0810   49.4130   -4.9770 C   0  0  0  0  0  0  0  0  0  0  0  0
   29.5990   53.7180   -4.5520 C   0  0  0  0  0  0  0  0  0  0  0  0
   28.9440   51.9640   -3.2170 C   0  0  0  0  0  0  0  0  0  0  0  0
   30.1700   55.1020   -4.6570 C   0  0  0  0  0  0  0  0  0  0  0  0
   28.8080   51.4470   -1.9270 N   0  0  0  0  0  0  0  0  0  0  0  0
   29.1630   46.9940   -7.6200 C   0  0  0  0  0  0  0  0  0  0  0  0
   30.5600   46.7690   -5.6450 C   0  0  0  0  0  0  0  0  0  0  0  0
   30.8970   48.6310   -4.1660 C   0  0  0  0  0  0  0  0  0  0  0  0
   29.4560   53.1990   -3.3110 N   0  0  0  0  0  0  0  0  0  0  0  0
   31.1380   47.3080   -4.4970 C   0  0  0  0  0  0  0  0  0  0  0  0
  1  2  1  0
  2  3  2  0
  1  4  1  0
  2  5  1  0
  4  6  2  0
  4  7  1  0
  5  8  2  0
  3  9  1  0
  5 10  1  0
  6 11  1  0
  7 12  2  0
 11 13  1  0
 12 14  1  0
  8 15  1  0
  9 15  2  0
  8 16  1  0
 10 17  2  0
 11 18  2  0
 12 18  1  0
 16 19  2  0
 17 19  1  0
M  END
