mac-x0357-mac-x0306
     RDKit          3D

 23 25  0  0  0  0  0  0  0  0999 V2000
   32.1230   43.5070   -4.9360 C   0  0  0  0  0  0  0  0  0  0  0  0
   32.9780   44.6440   -4.4330 C   0  0  0  0  0  0  0  0  0  0  0  0
   34.0760   44.4000   -3.5820 C   0  0  0  0  0  0  0  0  0  0  0  0
   32.7140   45.9850   -4.7970 C   0  0  0  0  0  0  0  0  0  0  0  0
   34.4230   43.1380   -3.1670 O   0  0  0  0  0  0  0  0  0  0  0  0
   31.5710   46.3340   -5.6980 C   0  0  0  0  0  0  0  0  0  0  0  0
   33.5250   47.0310   -4.3210 C   0  0  0  0  0  0  0  0  0  0  0  0
   34.8800   45.4380   -3.1090 C   0  0  0  0  0  0  0  0  0  0  0  0
   30.6580   47.2270   -5.4680 N   0  0  0  0  0  0  0  0  0  0  0  0
   31.5770   45.5930   -6.8310 O   0  0  0  0  0  0  0  0  0  0  0  0
   34.6080   46.7550   -3.4760 C   0  0  0  0  0  0  0  0  0  0  0  0
   30.6720   48.0330   -4.2300 C   0  0  0  0  0  0  0  0  0  0  0  0
   29.9800   49.3540   -4.3470 N   0  0  0  0  0  0  0  0  0  0  0  0
   30.1960   50.3400   -3.3790 C   0  0  0  0  0  0  0  0  0  0  0  0
   29.5690   49.8110   -5.5990 C   0  0  0  0  0  0  0  0  0  0  0  0
   29.7440   51.6080   -3.4850 C   0  0  0  0  0  0  0  0  0  0  0  0
   29.0850   51.0470   -5.8280 C   0  0  0  0  0  0  0  0  0  0  0  0
   28.9410   52.0600   -4.6920 C   0  0  0  0  0  0  0  0  0  0  0  0
   29.1400   53.5340   -5.0400 C   0  0  0  0  0  0  0  0  0  0  0  0
   28.7880   54.0930   -6.2530 N   0  0  0  0  0  0  0  0  0  0  0  0
   29.6590   54.4650   -4.2500 N   0  0  0  0  0  0  0  0  0  0  0  0
   29.6340   55.6320   -4.9700 C   0  0  0  0  0  0  0  0  0  0  0  0
   29.0970   55.4270   -6.2220 C   0  0  0  0  0  0  0  0  0  0  0  0
  1  2  1  0
  2  3  2  0
  2  4  1  0
  3  5  1  0
  4  6  1  0
  4  7  2  0
  3  8  1  0
  6  9  2  3
  6 10  1  0
  7 11  1  0
  8 11  2  0
  9 12  1  0
 12 13  1  0
 13 14  1  0
 13 15  1  0
 14 16  2  0
 15 17  2  0
 16 18  1  0
 17 18  1  0
 18 19  1  0
 19 20  1  0
 19 21  2  0
 21 22  1  0
 20 23  1  0
 22 23  2  0
M  END
