mac-x0439-mac-x1494
     RDKit          3D

 23 26  0  0  0  0  0  0  0  0999 V2000
   30.7580   47.3530   -2.4030 C   0  0  0  0  0  0  0  0  0  0  0  0
   29.9720   46.0640   -2.3310 C   0  0  0  0  0  0  0  0  0  0  0  0
   30.4920   44.8330   -3.0300 C   0  0  2  0  0  0  0  0  0  0  0  0
   29.9690   48.6300   -2.7820 C   0  0  2  0  0  0  0  0  0  0  0  0
   28.8020   45.9510   -1.6580 C   0  0  0  0  0  0  0  0  0  0  0  0
   29.1760   48.4810   -4.1240 C   0  0  0  0  0  0  0  0  0  0  0  0
   30.8070   49.8970   -2.6790 C   0  0  0  0  0  0  0  0  0  0  0  0
   31.1500   44.9130   -4.3640 C   0  0  0  0  0  0  0  0  0  0  0  0
   29.2890   44.0360   -3.5030 C   0  0  0  0  0  0  0  0  0  0  0  0
   28.0650   44.6940   -1.6070 C   0  0  0  0  0  0  0  0  0  0  0  0
   28.9910   49.8160   -4.8470 C   0  0  1  0  0  0  0  0  0  0  0  0
   30.3980   51.0410   -3.2250 C   0  0  0  0  0  0  0  0  0  0  0  0
   30.4090   44.2620   -5.2770 C   0  0  0  0  0  0  0  0  0  0  0  0
   29.2530   43.7130   -4.7590 N   0  0  0  0  0  0  0  0  0  0  0  0
   28.2690   43.7100   -2.4980 C   0  0  0  0  0  0  0  0  0  0  0  0
   29.0940   51.0310   -3.9390 C   0  0  1  0  0  0  0  0  0  0  0  0
   29.8850   50.2510   -5.8570 N   0  0  0  0  0  0  0  0  0  0  0  0
   30.7710   44.1340   -6.7160 C   0  0  0  0  0  0  0  0  0  0  0  0
   28.9000   52.0640   -4.8950 O   0  0  0  0  0  0  0  0  0  0  0  0
   29.5740   51.5980   -6.0120 C   0  0  0  0  0  0  0  0  0  0  0  0
   30.0150   43.2260   -7.3680 O   0  0  0  0  0  0  0  0  0  0  0  0
   31.6410   44.7470   -7.3090 O   0  0  0  0  0  0  0  0  0  0  0  0
   29.8530   52.2710   -6.9890 O   0  0  0  0  0  0  0  0  0  0  0  0
  1  2  1  0
  2  3  1  0
  4  1  1  6
  2  5  2  0
  4  6  1  0
  4  7  1  0
  3  8  1  6
  3  9  1  0
  5 10  1  0
 11  6  1  1
  7 12  2  0
  8 13  2  0
  9 14  2  0
 13 14  1  0
  9 15  1  0
 10 15  2  0
 11 16  1  0
 16 12  1  6
 11 17  1  0
 13 18  1  0
 16 19  1  0
 17 20  1  0
 19 20  1  0
 18 21  1  0
 18 22  2  0
 20 23  2  0
M  END
