mac-x0333-mac-x0441
     RDKit          3D

 30 33  0  0  0  0  0  0  0  0999 V2000
   30.0280   48.4880   -3.6620 O   0  0  0  0  0  0  0  0  0  0  0  0
   29.7750   49.6940   -4.2570 C   0  0  0  0  0  0  0  0  0  0  0  0
   29.3710   49.7020   -5.6080 C   0  0  0  0  0  0  0  0  0  0  0  0
   29.9210   50.8730   -3.5220 C   0  0  0  0  0  0  0  0  0  0  0  0
   29.2300   48.4000   -6.3750 C   0  0  0  0  0  0  0  0  0  0  0  0
   29.6520   52.0590   -4.1700 C   0  0  0  0  0  0  0  0  0  0  0  0
   29.1030   50.9390   -6.2330 C   0  0  0  0  0  0  0  0  0  0  0  0
   30.6050   47.7930   -6.6990 C   0  0  0  0  0  0  0  0  0  0  0  0
   29.2530   52.0960   -5.4860 C   0  0  0  0  0  0  0  0  0  0  0  0
   29.7390   53.3030   -3.6240 O   0  0  0  0  0  0  0  0  0  0  0  0
   30.7940   46.3510   -6.2050 C   0  0  0  0  0  0  0  0  0  0  0  0
   29.0420   53.3720   -5.9180 O   0  0  0  0  0  0  0  0  0  0  0  0
   29.5830   54.1140   -4.8060 C   0  0  0  0  0  0  0  0  0  0  0  0
   32.1100   45.8410   -6.5850 N   0  0  0  0  0  0  0  0  0  0  0  0
   32.9630   45.3870   -5.7340 C   0  0  0  0  0  0  0  0  0  0  0  0
   34.1430   44.9730   -6.2460 O   0  0  0  0  0  0  0  0  0  0  0  0
   32.8230   45.2610   -4.2330 C   0  0  0  0  0  0  0  0  0  0  0  0
   34.0840   44.9970   -3.5470 N   0  0  0  0  0  0  0  0  0  0  0  0
   34.3010   43.7590   -3.0330 N   0  0  0  0  0  0  0  0  0  0  0  0
   35.1270   45.8440   -3.3270 C   0  0  0  0  0  0  0  0  0  0  0  0
   35.5300   43.8280   -2.4650 C   0  0  0  0  0  0  0  0  0  0  0  0
   36.0780   45.1260   -2.6330 C   0  0  0  0  0  0  0  0  0  0  0  0
   35.2450   47.2650   -3.7390 C   0  0  0  0  0  0  0  0  0  0  0  0
   36.1850   42.6630   -1.7610 C   0  0  0  0  0  0  0  0  0  0  0  0
   37.3840   45.7040   -2.1980 C   0  0  0  0  0  0  0  0  0  0  0  0
   36.3410   47.9420   -2.8950 C   0  0  0  0  0  0  0  0  0  0  0  0
   37.2690   42.1690   -2.4160 F   0  0  0  0  0  0  0  0  0  0  0  0
   36.6070   43.0100   -0.5130 F   0  0  0  0  0  0  0  0  0  0  0  0
   35.3190   41.6250   -1.5940 F   0  0  0  0  0  0  0  0  0  0  0  0
   37.6250   47.0910   -2.8290 C   0  0  0  0  0  0  0  0  0  0  0  0
  1  2  1  0
  2  3  2  0
  2  4  1  0
  3  5  1  0
  4  6  2  0
  3  7  1  0
  5  8  1  0
  6  9  1  0
  7  9  2  0
  6 10  1  0
  8 11  1  0
  9 12  1  0
 10 13  1  0
 12 13  1  0
 11 14  1  0
 14 15  2  3
 15 16  1  0
 15 17  1  0
 17 18  1  0
 18 19  1  0
 18 20  1  0
 19 21  2  0
 20 22  2  0
 21 22  1  0
 20 23  1  0
 21 24  1  0
 22 25  1  0
 23 26  1  0
 24 27  1  0
 24 28  1  0
 24 29  1  0
 25 30  1  0
 26 30  1  0
M  END
