mac-x0396-mac-x0303
     RDKit          3D

 17 18  0  0  0  0  0  0  0  0999 V2000
   29.6080   50.7160   -7.1430 N   0  0  0  0  0  0  0  0  0  0  0  0
   30.0170   51.3270   -5.9840 C   0  0  0  0  0  0  0  0  0  0  0  0
   31.2220   51.3470   -5.7230 O   0  0  0  0  0  0  0  0  0  0  0  0
   28.9100   51.9520   -5.0690 C   0  0  1  0  0  0  0  0  0  0  0  0
   29.5020   52.1350   -3.6480 C   0  0  2  0  0  0  0  0  0  0  0  0
   28.5820   53.3200   -5.6150 C   0  0  0  0  0  0  0  0  0  0  0  0
   27.7670   50.9550   -5.0210 C   0  0  0  0  0  0  0  0  0  0  0  0
   30.6440   53.0620   -3.6090 N   0  0  0  0  0  0  0  0  0  0  0  0
   29.3650   54.3660   -5.2860 C   0  0  0  0  0  0  0  0  0  0  0  0
   29.8190   50.7920   -3.0520 C   0  0  0  0  0  0  0  0  0  0  0  0
   27.8460   49.9080   -4.1730 C   0  0  0  0  0  0  0  0  0  0  0  0
   29.0470   55.9630   -5.8650 S   0  0  0  0  0  0  0  0  0  0  0  0
   30.5180   54.0820   -4.3960 C   0  0  0  0  0  0  0  0  0  0  0  0
   29.0140   49.7420   -3.3170 C   0  0  0  0  0  0  0  0  0  0  0  0
   30.4090   56.4170   -6.7490 N   0  0  0  0  0  0  0  0  0  0  0  0
   27.9730   55.9230   -6.8320 O   0  0  0  0  0  0  0  0  0  0  0  0
   29.0080   56.8700   -4.7380 O   0  0  0  0  0  0  0  0  0  0  0  0
  1  2  1  0
  2  3  2  0
  4  2  1  6
  4  5  1  0
  4  6  1  0
  4  7  1  0
  5  8  1  0
  6  9  2  0
  5 10  1  6
  7 11  2  0
  9 12  1  0
  8 13  2  0
  9 13  1  0
 10 14  2  0
 11 14  1  0
 12 15  1  0
 12 16  2  0
 12 17  2  0
M  END
