mac-x0255-mac-x0411
     RDKit          3D

 23 25  0  0  0  0  0  0  0  0999 V2000
   31.2300   44.7750   -7.0360 O   0  0  0  0  0  0  0  0  0  0  0  0
   32.4930   45.1840   -6.8210 C   0  0  0  0  0  0  0  0  0  0  0  0
   33.2580   45.2880   -7.7730 O   0  0  0  0  0  0  0  0  0  0  0  0
   32.8520   45.4880   -5.3750 C   0  0  2  0  0  0  0  0  0  0  0  0
   33.9580   44.5840   -4.8150 C   0  0  0  0  0  0  0  0  0  0  0  0
   31.6100   45.5230   -4.5120 C   0  0  0  0  0  0  0  0  0  0  0  0
   34.1700   44.9160   -3.4210 O   0  0  0  0  0  0  0  0  0  0  0  0
   30.8580   44.4550   -4.0540 C   0  0  0  0  0  0  0  0  0  0  0  0
   30.9560   47.0050   -3.9610 S   0  0  0  0  0  0  0  0  0  0  0  0
   29.7370   44.8530   -3.2410 C   0  0  0  0  0  0  0  0  0  0  0  0
   29.6800   46.2390   -3.1090 C   0  0  0  0  0  0  0  0  0  0  0  0
   35.1900   45.8290   -3.2660 C   0  0  0  0  0  0  0  0  0  0  0  0
   28.7460   44.0760   -2.5940 C   0  0  0  0  0  0  0  0  0  0  0  0
   28.6700   46.8700   -2.3550 C   0  0  0  0  0  0  0  0  0  0  0  0
   34.9080   47.1640   -2.9390 C   0  0  0  0  0  0  0  0  0  0  0  0
   36.5270   45.4360   -3.4310 C   0  0  0  0  0  0  0  0  0  0  0  0
   36.9580   43.8110   -3.8280 Cl  0  0  0  0  0  0  0  0  0  0  0  0
   33.2970   47.7380   -2.7140 Cl  0  0  0  0  0  0  0  0  0  0  0  0
   27.7400   44.6980   -1.8430 C   0  0  0  0  0  0  0  0  0  0  0  0
   27.7060   46.0800   -1.7270 C   0  0  0  0  0  0  0  0  0  0  0  0
   35.9440   48.0880   -2.7830 C   0  0  0  0  0  0  0  0  0  0  0  0
   37.5590   46.3660   -3.2730 C   0  0  0  0  0  0  0  0  0  0  0  0
   37.2690   47.6910   -2.9510 C   0  0  0  0  0  0  0  0  0  0  0  0
  1  2  1  0
  2  3  2  0
  2  4  1  0
  4  5  1  1
  4  6  1  0
  5  7  1  0
  6  8  2  0
  6  9  1  0
  8 10  1  0
  9 11  1  0
 10 11  2  0
  7 12  1  0
 10 13  1  0
 11 14  1  0
 12 15  2  0
 12 16  1  0
 16 17  1  0
 15 18  1  0
 13 19  2  0
 14 20  2  0
 19 20  1  0
 15 21  1  0
 16 22  2  0
 21 23  2  0
 22 23  1  0
M  END
