mac-x0387-mac-x0584
     RDKit          3D

 22 25  0  0  0  0  0  0  0  0999 V2000
   27.3580   49.0200   -6.0170 N   0  0  0  0  0  0  0  0  0  0  0  0
   28.4370   49.7960   -6.5710 C   0  0  2  0  0  0  0  0  0  0  0  0
   29.6120   49.1080   -7.0990 N   0  0  0  0  0  0  0  0  0  0  0  0
   28.8880   50.8890   -5.6160 C   0  0  0  0  0  0  0  0  0  0  0  0
   27.8140   50.5110   -7.7030 N   0  0  0  0  0  0  0  0  0  0  0  0
   29.6310   47.7380   -7.2420 C   0  0  0  0  0  0  0  0  0  0  0  0
   29.5910   50.7990   -4.3440 C   0  0  0  0  0  0  0  0  0  0  0  0
   28.5580   52.0870   -6.1110 C   0  0  0  0  0  0  0  0  0  0  0  0
   27.9140   51.7560   -7.3710 C   0  0  0  0  0  0  0  0  0  0  0  0
   30.0750   46.8650   -6.3160 C   0  0  0  0  0  0  0  0  0  0  0  0
   30.7590   50.2650   -3.9600 C   0  0  0  0  0  0  0  0  0  0  0  0
   30.6310   47.2430   -4.9400 C   0  0  2  0  0  0  0  0  0  0  0  0
   31.7850   49.5580   -4.6880 C   0  0  0  0  0  0  0  0  0  0  0  0
   31.7500   48.2770   -5.1170 C   0  0  0  0  0  0  0  0  0  0  0  0
   31.0690   45.9560   -4.1610 C   0  0  2  0  0  0  0  0  0  0  0  0
   29.4990   47.7440   -4.0170 C   0  0  0  0  0  0  0  0  0  0  0  0
   31.9840   44.9960   -4.9460 C   0  0  0  0  0  0  0  0  0  0  0  0
   29.7260   45.3240   -3.7640 C   0  0  0  0  0  0  0  0  0  0  0  0
   28.7440   46.4850   -3.5960 C   0  0  0  0  0  0  0  0  0  0  0  0
   32.2860   45.3150   -6.4410 C   0  0  0  0  0  0  0  0  0  0  0  0
   33.5280   44.9410   -4.7500 C   0  0  0  0  0  0  0  0  0  0  0  0
   33.6370   44.5980   -6.2480 C   0  0  0  0  0  0  0  0  0  0  0  0
  2  1  1  1
  2  3  1  0
  2  4  1  0
  2  5  1  0
  3  6  1  0
  4  7  1  0
  4  8  2  0
  5  9  2  0
  8  9  1  0
  6 10  2  0
  7 11  2  0
 12 10  1  6
 11 13  1  0
 12 14  1  0
 13 14  2  0
 12 15  1  0
 12 16  1  0
 15 17  1  6
 15 18  1  0
 16 19  1  0
 18 19  1  0
 17 20  1  0
 17 21  1  0
 20 22  1  0
 21 22  1  0
M  END
