mac-x0223-mac-x0193
     RDKit          3D

 23 24  0  0  0  0  0  0  0  0999 V2000
   27.6720   43.6330   -2.2210 C   0  0  0  0  0  0  0  0  0  0  0  0
   27.8220   45.0280   -1.9840 O   0  0  0  0  0  0  0  0  0  0  0  0
   29.0350   45.5870   -2.3010 C   0  0  0  0  0  0  0  0  0  0  0  0
   29.2130   46.8880   -1.8180 C   0  0  0  0  0  0  0  0  0  0  0  0
   30.0720   44.9890   -3.0390 C   0  0  0  0  0  0  0  0  0  0  0  0
   28.2230   47.5000   -1.0940 O   0  0  0  0  0  0  0  0  0  0  0  0
   30.3860   47.5910   -2.0550 C   0  0  0  0  0  0  0  0  0  0  0  0
   31.2860   45.6830   -3.2990 C   0  0  0  0  0  0  0  0  0  0  0  0
   32.4450   45.0620   -4.1150 C   0  0  1  0  0  0  0  0  0  0  0  0
   31.4150   46.9920   -2.7910 C   0  0  0  0  0  0  0  0  0  0  0  0
   32.5550   45.8390   -5.4510 C   0  0  0  0  0  0  0  0  0  0  0  0
   33.7740   45.0750   -3.4060 N   0  0  0  0  0  0  0  0  0  0  0  0
   33.4870   46.5550   -5.7980 O   0  0  0  0  0  0  0  0  0  0  0  0
   31.4900   45.6880   -6.2740 O   0  0  0  0  0  0  0  0  0  0  0  0
   34.4700   43.9140   -3.0180 C   0  0  0  0  0  0  0  0  0  0  0  0
   33.9950   42.7900   -3.0770 O   0  0  0  0  0  0  0  0  0  0  0  0
   35.7610   44.1620   -2.5510 N   0  0  0  0  0  0  0  0  0  0  0  0
   36.5980   43.1310   -1.8870 C   0  0  0  0  0  0  0  0  0  0  0  0
   37.7250   42.6420   -2.8070 C   0  0  0  0  0  0  0  0  0  0  0  0
   37.1890   43.6380   -0.5550 C   0  0  0  0  0  0  0  0  0  0  0  0
   38.6710   41.6440   -2.1220 C   0  0  0  0  0  0  0  0  0  0  0  0
   38.1410   42.6460    0.1410 C   0  0  0  0  0  0  0  0  0  0  0  0
   39.2330   42.1320   -0.7880 C   0  0  0  0  0  0  0  0  0  0  0  0
  1  2  1  0
  2  3  1  0
  3  4  2  0
  3  5  1  0
  4  6  1  0
  4  7  1  0
  5  8  2  0
  8  9  1  0
  7 10  2  0
  8 10  1  0
  9 11  1  0
  9 12  1  1
 11 13  2  0
 11 14  1  0
 12 15  1  0
 15 16  2  0
 15 17  1  0
 17 18  1  0
 18 19  1  0
 18 20  1  0
 19 21  1  0
 20 22  1  0
 21 23  1  0
 22 23  1  0
M  END
