mac-x0436-mac-x0411
     RDKit          3D

 18 19  0  0  0  0  0  0  0  0999 V2000
   33.4600   45.6560   -6.9460 N   0  0  0  0  0  0  0  0  0  0  0  0
   32.4110   45.2330   -6.1750 C   0  0  0  0  0  0  0  0  0  0  0  0
   31.2290   45.4630   -6.4150 O   0  0  0  0  0  0  0  0  0  0  0  0
   34.5480   45.8650   -6.2940 C   0  0  0  0  0  0  0  0  0  0  0  0
   32.8420   44.4290   -4.9630 C   0  0  0  0  0  0  0  0  0  0  0  0
   32.6170   45.1360   -3.6220 C   0  0  0  0  0  0  0  0  0  0  0  0
   33.7910   45.9250   -2.9790 C   0  0  2  0  0  0  0  0  0  0  0  0
   33.9910   47.3560   -3.5790 C   0  0  0  0  0  0  0  0  0  0  0  0
   35.0430   45.1050   -2.7570 N   0  0  0  0  0  0  0  0  0  0  0  0
   33.0900   48.0070   -4.1010 O   0  0  0  0  0  0  0  0  0  0  0  0
   35.0430   43.4470   -3.3770 Cl  0  0  0  0  0  0  0  0  0  0  0  0
   35.2540   47.9080   -3.4930 N   0  0  0  0  0  0  0  0  0  0  0  0
   36.3150   45.7990   -2.9860 C   0  0  1  0  0  0  0  0  0  0  0  0
   36.2060   47.2950   -2.6070 C   0  0  1  0  0  0  0  0  0  0  0  0
   37.5450   45.1510   -2.4030 C   0  0  0  0  0  0  0  0  0  0  0  0
   38.6390   45.8840   -2.1420 C   0  0  0  0  0  0  0  0  0  0  0  0
   37.5310   47.9960   -2.6390 C   0  0  0  0  0  0  0  0  0  0  0  0
   38.6640   47.3070   -2.4160 C   0  0  0  0  0  0  0  0  0  0  0  0
  1  2  1  0
  2  3  2  0
  1  4  2  3
  2  5  1  0
  5  6  1  0
  7  6  1  6
  7  8  1  0
  7  9  1  0
  8 10  2  0
  9 11  1  0
  8 12  1  0
  9 13  1  0
 12 14  1  0
 13 14  1  0
 13 15  1  1
 15 16  2  0
 14 17  1  6
 16 18  1  0
 17 18  2  0
M  END
