mac-x0397-mac-x0277
     RDKit          3D

 25 27  0  0  0  0  0  0  0  0999 V2000
   29.4500   52.8860   -2.4700 Cl  0  0  0  0  0  0  0  0  0  0  0  0
   29.5270   51.6210   -3.6260 C   0  0  0  0  0  0  0  0  0  0  0  0
   29.2590   52.0050   -4.9510 C   0  0  0  0  0  0  0  0  0  0  0  0
   29.8300   50.3150   -3.2700 C   0  0  0  0  0  0  0  0  0  0  0  0
   28.9440   53.2770   -5.4120 N   0  0  0  0  0  0  0  0  0  0  0  0
   29.3100   51.0130   -5.9300 C   0  0  0  0  0  0  0  0  0  0  0  0
   29.8760   49.3360   -4.2770 C   0  0  0  0  0  0  0  0  0  0  0  0
   30.0930   50.0080   -1.8140 C   0  0  0  0  0  0  0  0  0  0  0  0
   28.7570   53.2620   -6.7010 C   0  0  0  0  0  0  0  0  0  0  0  0
   28.9460   51.7340   -7.4560 S   0  0  0  0  0  0  0  0  0  0  0  0
   29.6170   49.6730   -5.6200 C   0  0  0  0  0  0  0  0  0  0  0  0
   31.1120   48.9040   -1.5910 C   0  0  0  0  0  0  0  0  0  0  0  0
   28.4370   54.3670   -7.3970 N   0  0  0  0  0  0  0  0  0  0  0  0
   30.4560   47.7070   -0.9210 C   0  0  0  0  0  0  0  0  0  0  0  0
   30.1350   46.6230   -1.9080 C   0  0  0  0  0  0  0  0  0  0  0  0
   31.1450   46.2630   -2.8130 C   0  0  0  0  0  0  0  0  0  0  0  0
   28.9040   45.9620   -1.9780 C   0  0  0  0  0  0  0  0  0  0  0  0
   27.5930   46.3330   -0.9150 Cl  0  0  0  0  0  0  0  0  0  0  0  0
   30.9490   45.2680   -3.7690 C   0  0  0  0  0  0  0  0  0  0  0  0
   28.6970   44.9630   -2.9310 C   0  0  0  0  0  0  0  0  0  0  0  0
   32.0600   44.9100   -4.7260 C   0  0  0  0  0  0  0  0  0  0  0  0
   29.7130   44.6150   -3.8230 C   0  0  0  0  0  0  0  0  0  0  0  0
   32.2290   45.8920   -5.8660 C   0  0  0  0  0  0  0  0  0  0  0  0
   33.4120   46.5590   -5.8060 O   0  0  0  0  0  0  0  0  0  0  0  0
   31.4250   46.0980   -6.7610 O   0  0  0  0  0  0  0  0  0  0  0  0
  1  2  1  0
  2  3  2  0
  2  4  1  0
  3  5  1  0
  3  6  1  0
  4  7  2  0
  4  8  1  0
  5  9  2  0
  6 10  1  0
  9 10  1  0
  6 11  2  0
  7 11  1  0
  8 12  1  0
  9 13  1  0
 12 14  1  0
 14 15  1  0
 15 16  2  0
 15 17  1  0
 17 18  1  0
 16 19  1  0
 17 20  2  0
 19 21  1  0
 19 22  2  0
 20 22  1  0
 21 23  1  0
 23 24  1  0
 23 25  2  0
M  END
