mac-x0224-mac-x0587
     RDKit          3D

 18 19  0  0  0  0  0  0  0  0999 V2000
   28.5140   52.4010   -6.5670 C   0  0  0  0  0  0  0  0  0  0  0  0
   28.3140   50.6600   -7.0320 S   0  0  0  0  0  0  0  0  0  0  0  0
   29.0490   49.8510   -5.6240 C   0  0  0  0  0  0  0  0  0  0  0  0
   29.8240   48.7060   -5.8380 C   0  0  0  0  0  0  0  0  0  0  0  0
   28.8790   50.3240   -4.3200 C   0  0  0  0  0  0  0  0  0  0  0  0
   30.4180   48.0480   -4.7480 C   0  0  0  0  0  0  0  0  0  0  0  0
   29.4770   49.6630   -3.2370 C   0  0  0  0  0  0  0  0  0  0  0  0
   31.2350   46.8330   -5.0340 C   0  0  0  0  0  0  0  0  0  0  0  0
   30.2550   48.5150   -3.4350 C   0  0  0  0  0  0  0  0  0  0  0  0
   30.8360   47.8790   -2.3590 N   0  0  0  0  0  0  0  0  0  0  0  0
   32.1670   47.0470   -5.9130 N   0  0  0  0  0  0  0  0  0  0  0  0
   30.9380   45.6400   -4.3550 N   0  0  0  0  0  0  0  0  0  0  0  0
   29.6650   45.4360   -3.6560 C   0  0  0  0  0  0  0  0  0  0  0  0
   31.7990   44.2220   -4.6700 S   0  0  0  0  0  0  0  0  0  0  0  0
   33.0090   46.0200   -6.2640 C   0  0  0  0  0  0  0  0  0  0  0  0
   30.7550   48.5520   -1.3190 O   0  0  0  0  0  0  0  0  0  0  0  0
   33.3370   45.0070   -5.1970 C   0  0  0  0  0  0  0  0  0  0  0  0
   33.4840   45.9180   -7.3930 O   0  0  0  0  0  0  0  0  0  0  0  0
  1  2  1  0
  2  3  1  0
  3  4  2  0
  3  5  1  0
  4  6  1  0
  5  7  2  0
  6  8  1  0
  6  9  2  0
  7  9  1  0
  9 10  1  0
  8 11  2  0
  8 12  1  0
 12 13  1  0
 12 14  1  0
 11 15  1  0
 10 16  2  0
 14 17  1  0
 15 17  1  0
 15 18  2  0
M  END
