mac-x0341-mac-x0375
     RDKit          3D

 26 28  0  0  0  0  0  0  0  0999 V2000
   28.3530   54.8550   -7.4420 N   0  0  0  0  0  0  0  0  0  0  0  0
   28.6430   53.6650   -6.8630 C   0  0  0  0  0  0  0  0  0  0  0  0
   28.4780   52.5610   -7.5220 N   0  0  0  0  0  0  0  0  0  0  0  0
   29.1070   53.7010   -5.5830 N   0  0  0  0  0  0  0  0  0  0  0  0
   29.4230   52.5810   -4.8570 C   0  0  0  0  0  0  0  0  0  0  0  0
   28.7930   51.3530   -6.8800 C   0  0  0  0  0  0  0  0  0  0  0  0
   29.8110   52.6430   -3.6960 O   0  0  0  0  0  0  0  0  0  0  0  0
   29.2630   51.2990   -5.5650 C   0  0  0  0  0  0  0  0  0  0  0  0
   28.6310   50.1550   -7.5770 C   0  0  0  0  0  0  0  0  0  0  0  0
   28.9340   48.9290   -6.9740 C   0  0  0  0  0  0  0  0  0  0  0  0
   29.5700   50.0810   -4.9480 C   0  0  0  0  0  0  0  0  0  0  0  0
   29.4070   48.8800   -5.6530 C   0  0  0  0  0  0  0  0  0  0  0  0
   29.7330   47.5560   -5.0100 C   0  0  0  0  0  0  0  0  0  0  0  0
   29.8060   46.3970   -6.0050 C   0  0  0  0  0  0  0  0  0  0  0  0
   30.5690   45.1900   -5.4660 C   0  0  0  0  0  0  0  0  0  0  0  0
   31.6350   44.8440   -6.3680 O   0  0  0  0  0  0  0  0  0  0  0  0
   32.9150   45.0640   -5.9420 C   0  0  0  0  0  0  0  0  0  0  0  0
   33.8420   45.4110   -6.6630 O   0  0  0  0  0  0  0  0  0  0  0  0
   33.0580   44.8200   -4.4440 C   0  0  0  0  0  0  0  0  0  0  0  0
   34.3810   44.6280   -3.9710 O   0  0  0  0  0  0  0  0  0  0  0  0
   35.1040   45.7360   -3.6300 C   0  0  0  0  0  0  0  0  0  0  0  0
   36.4630   45.4960   -3.4060 C   0  0  0  0  0  0  0  0  0  0  0  0
   34.6150   47.0390   -3.4930 C   0  0  0  0  0  0  0  0  0  0  0  0
   37.3250   46.5330   -3.0520 C   0  0  0  0  0  0  0  0  0  0  0  0
   35.4780   48.0790   -3.1390 C   0  0  0  0  0  0  0  0  0  0  0  0
   36.8310   47.8290   -2.9180 C   0  0  0  0  0  0  0  0  0  0  0  0
  1  2  1  0
  2  3  2  0
  2  4  1  0
  4  5  1  0
  3  6  1  0
  5  7  2  0
  5  8  1  0
  6  8  2  0
  6  9  1  0
  9 10  2  0
  8 11  1  0
 10 12  1  0
 11 12  2  0
 12 13  1  0
 13 14  1  0
 14 15  1  0
 15 16  1  0
 16 17  1  0
 17 18  2  0
 17 19  1  0
 19 20  1  0
 20 21  1  0
 21 22  2  0
 21 23  1  0
 22 24  1  0
 23 25  2  0
 24 26  2  0
 25 26  1  0
M  END
