mac-x0333-mac-x0375
     RDKit          3D

 24 26  0  0  0  0  0  0  0  0999 V2000
   29.8000   48.6030   -3.3520 O   0  0  0  0  0  0  0  0  0  0  0  0
   29.6710   49.7240   -4.1230 C   0  0  0  0  0  0  0  0  0  0  0  0
   29.5310   49.6810   -5.5300 C   0  0  0  0  0  0  0  0  0  0  0  0
   29.6860   50.9350   -3.4260 C   0  0  0  0  0  0  0  0  0  0  0  0
   29.5120   48.3880   -6.3170 C   0  0  0  0  0  0  0  0  0  0  0  0
   29.5590   52.0950   -4.1540 C   0  0  0  0  0  0  0  0  0  0  0  0
   29.4040   50.8950   -6.2330 C   0  0  0  0  0  0  0  0  0  0  0  0
   30.4830   47.3270   -5.7940 C   0  0  0  0  0  0  0  0  0  0  0  0
   29.4220   52.0780   -5.5200 C   0  0  0  0  0  0  0  0  0  0  0  0
   29.5520   53.3600   -3.6490 O   0  0  0  0  0  0  0  0  0  0  0  0
   31.3750   46.7310   -6.8830 C   0  0  0  0  0  0  0  0  0  0  0  0
   29.3120   53.3260   -6.0460 O   0  0  0  0  0  0  0  0  0  0  0  0
   29.5200   54.1310   -4.8660 C   0  0  0  0  0  0  0  0  0  0  0  0
   31.6090   45.3540   -6.5550 O   0  0  0  0  0  0  0  0  0  0  0  0
   32.8850   45.0740   -6.1680 C   0  0  0  0  0  0  0  0  0  0  0  0
   33.8380   44.9430   -6.9270 O   0  0  0  0  0  0  0  0  0  0  0  0
   32.9780   44.9400   -4.6520 C   0  0  0  0  0  0  0  0  0  0  0  0
   34.2790   44.7130   -4.1250 O   0  0  0  0  0  0  0  0  0  0  0  0
   35.0220   45.7920   -3.7260 C   0  0  0  0  0  0  0  0  0  0  0  0
   36.3650   45.4960   -3.4660 C   0  0  0  0  0  0  0  0  0  0  0  0
   34.5740   47.1050   -3.5630 C   0  0  0  0  0  0  0  0  0  0  0  0
   37.2490   46.4920   -3.0500 C   0  0  0  0  0  0  0  0  0  0  0  0
   35.4600   48.1040   -3.1470 C   0  0  0  0  0  0  0  0  0  0  0  0
   36.7970   47.7980   -2.8920 C   0  0  0  0  0  0  0  0  0  0  0  0
  1  2  1  0
  2  3  2  0
  2  4  1  0
  3  5  1  0
  4  6  2  0
  3  7  1  0
  5  8  1  0
  6  9  1  0
  7  9  2  0
  6 10  1  0
  8 11  1  0
  9 12  1  0
 10 13  1  0
 12 13  1  0
 11 14  1  0
 14 15  1  0
 15 16  2  0
 15 17  1  0
 17 18  1  0
 18 19  1  0
 19 20  2  0
 19 21  1  0
 20 22  1  0
 21 23  2  0
 22 24  2  0
 23 24  1  0
M  END
