mac-x0358
     RDKit          3D

 11 11  0  0  0  0  0  0  0  0999 V2000
   31.7590   45.4680   -6.7870 O   0  0  0  0  0  0  0  0  0  0  0  0
   32.5810   45.5840   -5.9120 C   0  0  0  0  0  0  0  0  0  0  0  0
   33.6130   46.1890   -6.1260 O   0  0  0  0  0  0  0  0  0  0  0  0
   32.4280   44.9700   -4.5440 C   0  0  0  0  0  0  0  0  0  0  0  0
   32.2380   45.9980   -3.4520 C   0  0  0  0  0  0  0  0  0  0  0  0
   31.0490   46.0480   -2.7780 C   0  0  0  0  0  0  0  0  0  0  0  0
   30.8710   46.9620   -1.7660 C   0  0  0  0  0  0  0  0  0  0  0  0
   31.8910   47.8330   -1.4270 C   0  0  0  0  0  0  0  0  0  0  0  0
   33.0640   47.7860   -2.1300 C   0  0  0  0  0  0  0  0  0  0  0  0
   33.2320   46.8590   -3.1410 C   0  0  0  0  0  0  0  0  0  0  0  0
   34.4440   46.7770   -3.8370 O   0  0  0  0  0  0  0  0  0  0  0  0
  1  2  1  0
  2  3  2  0
  2  4  1  0
  4  5  1  0
  5  6  2  0
  6  7  1  0
  7  8  2  0
  8  9  1  0
  5 10  1  0
  9 10  2  0
 10 11  1  0
M  END
