mac-x0411-mac-x0319
     RDKit          3D

 21 22  0  0  0  0  0  0  0  0999 V2000
   36.8210   44.0410   -4.0490 Cl  0  0  0  0  0  0  0  0  0  0  0  0
   36.4610   45.5710   -3.3280 C   0  0  0  0  0  0  0  0  0  0  0  0
   35.1510   46.0750   -3.2210 C   0  0  0  0  0  0  0  0  0  0  0  0
   37.5440   46.3080   -2.8400 C   0  0  0  0  0  0  0  0  0  0  0  0
   34.0400   45.4100   -3.6770 O   0  0  0  0  0  0  0  0  0  0  0  0
   34.9630   47.3300   -2.6150 C   0  0  0  0  0  0  0  0  0  0  0  0
   37.3420   47.5510   -2.2420 C   0  0  0  0  0  0  0  0  0  0  0  0
   33.3920   48.0270   -2.4380 Cl  0  0  0  0  0  0  0  0  0  0  0  0
   34.0780   45.0820   -5.0900 C   0  0  0  0  0  0  0  0  0  0  0  0
   36.0500   48.0610   -2.1310 C   0  0  0  0  0  0  0  0  0  0  0  0
   32.6390   45.1360   -5.7100 C   0  0  2  0  0  0  0  0  0  0  0  0
   32.2750   43.7970   -6.3380 N   0  0  0  0  0  0  0  0  0  0  0  0
   32.6770   46.2020   -6.6860 O   0  0  0  0  0  0  0  0  0  0  0  0
   31.5440   45.4620   -4.6760 C   0  0  0  0  0  0  0  0  0  0  0  0
   32.2040   43.8160   -7.5740 O   0  0  0  0  0  0  0  0  0  0  0  0
   30.6940   44.4620   -4.1590 C   0  0  0  0  0  0  0  0  0  0  0  0
   31.3580   46.7810   -4.2110 C   0  0  0  0  0  0  0  0  0  0  0  0
   29.7090   44.7790   -3.2230 C   0  0  0  0  0  0  0  0  0  0  0  0
   30.3680   47.0870   -3.2730 C   0  0  0  0  0  0  0  0  0  0  0  0
   28.8790   43.8240   -2.7130 O   0  0  0  0  0  0  0  0  0  0  0  0
   29.5420   46.0830   -2.7780 C   0  0  0  0  0  0  0  0  0  0  0  0
  1  2  1  0
  2  3  2  0
  2  4  1  0
  3  5  1  0
  3  6  1  0
  4  7  2  0
  6  8  1  0
  5  9  1  0
  6 10  2  0
  7 10  1  0
  9 11  1  0
 11 12  1  0
 11 13  1  6
 11 14  1  0
 12 15  2  0
 14 16  2  0
 14 17  1  0
 16 18  1  0
 17 19  2  0
 18 20  1  0
 18 21  2  0
 19 21  1  0
M  END
