mac-x1493-mac-x0142
     RDKit          3D

 26 30  0  0  0  0  0  0  0  0999 V2000
   27.5180   47.9410   -3.6490 O   0  0  0  0  0  0  0  0  0  0  0  0
   28.6210   48.5520   -3.1570 C   0  0  0  0  0  0  0  0  0  0  0  0
   29.2320   48.0280   -2.2380 O   0  0  0  0  0  0  0  0  0  0  0  0
   28.9210   49.8660   -3.8560 C   0  0  2  0  0  0  0  0  0  0  0  0
   29.1650   49.8160   -5.4180 C   0  0  2  0  0  0  0  0  0  0  0  0
   30.0260   50.6230   -3.1090 C   0  0  0  0  0  0  0  0  0  0  0  0
   29.1320   51.3170   -5.7590 C   0  0  0  0  0  0  0  0  0  0  0  0
   30.7100   51.6420   -3.9180 N   0  0  0  0  0  0  0  0  0  0  0  0
   28.0690   48.9740   -6.1380 C   0  0  0  0  0  0  0  0  0  0  0  0
   30.5860   49.1420   -5.7820 C   0  0  1  0  0  0  0  0  0  0  0  0
   29.9310   52.1710   -4.9640 C   0  0  0  0  0  0  0  0  0  0  0  0
   28.3660   51.8880   -6.7940 C   0  0  0  0  0  0  0  0  0  0  0  0
   31.3360   48.0600   -5.0950 N   0  0  0  0  0  0  0  0  0  0  0  0
   30.4870   48.6190   -7.1690 N   0  0  0  0  0  0  0  0  0  0  0  0
   28.1920   48.9850   -7.6020 N   0  0  0  0  0  0  0  0  0  0  0  0
   29.9490   53.5480   -5.2150 C   0  0  0  0  0  0  0  0  0  0  0  0
   28.3950   53.2640   -7.0330 C   0  0  0  0  0  0  0  0  0  0  0  0
   31.8910   48.3210   -3.7680 C   0  0  0  0  0  0  0  0  0  0  0  0
   30.6170   46.7660   -5.1000 C   0  0  0  0  0  0  0  0  0  0  0  0
   29.5380   49.3520   -7.9890 C   0  0  0  0  0  0  0  0  0  0  0  0
   29.1850   54.0920   -6.2450 C   0  0  0  0  0  0  0  0  0  0  0  0
   31.5980   45.6600   -4.7630 C   0  0  0  0  0  0  0  0  0  0  0  0
   32.9110   47.2420   -3.3830 C   0  0  0  0  0  0  0  0  0  0  0  0
   31.2930   44.2480   -5.2180 C   0  0  0  0  0  0  0  0  0  0  0  0
   32.3910   45.0270   -5.8850 C   0  0  0  0  0  0  0  0  0  0  0  0
   32.2820   45.8550   -3.4320 C   0  0  0  0  0  0  0  0  0  0  0  0
  1  2  1  0
  2  3  2  0
  4  2  1  1
  4  5  1  0
  4  6  1  0
  5  7  1  0
  6  8  1  0
  5  9  1  6
  5 10  1  0
  7 11  2  0
  8 11  1  0
  7 12  1  0
 10 13  1  1
 10 14  1  0
  9 15  1  0
 11 16  1  0
 12 17  2  0
 13 18  1  0
 13 19  1  0
 14 20  1  0
 15 20  1  0
 16 21  2  0
 17 21  1  0
 22 19  1  0
 18 23  1  0
 22 24  1  0
 22 25  1  0
 24 25  1  0
 22 26  1  0
 23 26  1  0
M  END
