mac-x0345-mac-x0546
     RDKit          3D

 25 27  0  0  0  0  0  0  0  0999 V2000
   29.5490   54.6790   -4.9520 C   0  0  0  0  0  0  0  0  0  0  0  0
   29.4070   53.2050   -4.7110 C   0  0  0  0  0  0  0  0  0  0  0  0
   29.7950   52.7710   -3.4820 N   0  0  0  0  0  0  0  0  0  0  0  0
   28.9080   52.3370   -5.6800 C   0  0  0  0  0  0  0  0  0  0  0  0
   28.3580   52.9140   -7.3970 Br  0  0  0  0  0  0  0  0  0  0  0  0
   28.8080   50.9850   -5.3680 C   0  0  0  0  0  0  0  0  0  0  0  0
   29.6970   51.4600   -3.1830 C   0  0  0  0  0  0  0  0  0  0  0  0
   30.0920   50.9850   -1.9220 N   0  0  0  0  0  0  0  0  0  0  0  0
   29.2070   50.5430   -4.1090 C   0  0  0  0  0  0  0  0  0  0  0  0
   30.9830   49.8220   -1.9510 C   0  0  0  0  0  0  0  0  0  0  0  0
   31.0770   49.1360   -0.5800 C   0  0  0  0  0  0  0  0  0  0  0  0
   30.0210   48.1810   -0.3600 O   0  0  0  0  0  0  0  0  0  0  0  0
   29.8210   47.2690   -1.3730 C   0  0  0  0  0  0  0  0  0  0  0  0
   30.7880   46.9940   -2.2680 C   0  0  0  0  0  0  0  0  0  0  0  0
   28.5170   46.6100   -1.4470 C   0  0  0  0  0  0  0  0  0  0  0  0
   30.5040   46.0200   -3.3630 C   0  0  2  0  0  0  0  0  0  0  0  0
   28.3160   45.4850   -2.1630 C   0  0  0  0  0  0  0  0  0  0  0  0
   29.5150   44.9880   -2.8590 C   0  0  0  0  0  0  0  0  0  0  0  0
   31.5170   45.0490   -3.8770 C   0  0  0  0  0  0  0  0  0  0  0  0
   32.8070   45.5160   -4.4700 C   0  0  0  0  0  0  0  0  0  0  0  0
   29.8110   43.7450   -3.0940 N   0  0  0  0  0  0  0  0  0  0  0  0
   31.0370   43.8060   -3.7090 C   0  0  0  0  0  0  0  0  0  0  0  0
   32.7470   46.0550   -5.8850 C   0  0  0  0  0  0  0  0  0  0  0  0
   31.8140   46.0080   -6.6710 O   0  0  0  0  0  0  0  0  0  0  0  0
   33.9050   46.6430   -6.2510 O   0  0  0  0  0  0  0  0  0  0  0  0
  1  2  1  0
  2  3  2  0
  2  4  1  0
  4  5  1  0
  4  6  2  0
  3  7  1  0
  7  8  1  0
  6  9  1  0
  7  9  2  0
  8 10  1  0
 10 11  1  0
 11 12  1  0
 12 13  1  0
 13 14  2  0
 13 15  1  0
 16 14  1  1
 15 17  2  0
 16 18  1  0
 17 18  1  0
 16 19  1  0
 19 20  1  0
 18 21  2  0
 19 22  2  0
 21 22  1  0
 20 23  1  0
 23 24  2  0
 23 25  1  0
M  END
