mac-x0354-mac-x0564
     RDKit          3D

 30 34  0  0  0  0  0  0  0  0999 V2000
   36.2500   43.2820   -1.8590 C   0  0  0  0  0  0  0  0  0  0  0  0
   35.3420   43.3670   -2.9810 N   0  0  0  0  0  0  0  0  0  0  0  0
   34.5760   42.3010   -3.2780 N   0  0  0  0  0  0  0  0  0  0  0  0
   35.1500   44.4450   -3.8170 C   0  0  0  0  0  0  0  0  0  0  0  0
   33.8770   42.7100   -4.3370 C   0  0  0  0  0  0  0  0  0  0  0  0
   34.1780   44.0360   -4.7300 C   0  0  0  0  0  0  0  0  0  0  0  0
   35.8850   45.7020   -3.6590 C   0  0  0  0  0  0  0  0  0  0  0  0
   33.5800   44.7550   -5.8350 C   0  0  0  0  0  0  0  0  0  0  0  0
   37.2800   45.7110   -3.7470 C   0  0  0  0  0  0  0  0  0  0  0  0
   35.2030   46.9000   -3.4190 C   0  0  0  0  0  0  0  0  0  0  0  0
   32.3140   44.8600   -5.9430 N   0  0  0  0  0  0  0  0  0  0  0  0
   34.4660   45.2820   -6.7080 O   0  0  0  0  0  0  0  0  0  0  0  0
   37.9890   46.9060   -3.5970 C   0  0  0  0  0  0  0  0  0  0  0  0
   35.9130   48.0950   -3.2680 C   0  0  0  0  0  0  0  0  0  0  0  0
   31.5880   45.5540   -6.9940 C   0  0  0  0  0  0  0  0  0  0  0  0
   37.3050   48.0940   -3.3580 C   0  0  0  0  0  0  0  0  0  0  0  0
   31.2380   46.9250   -6.6330 N   0  0  0  0  0  0  0  0  0  0  0  0
   30.5870   47.0730   -5.5240 C   0  0  0  0  0  0  0  0  0  0  0  0
   30.1870   48.3620   -5.0480 C   0  0  0  0  0  0  0  0  0  0  0  0
   30.2130   46.0320   -4.6840 N   0  0  0  0  0  0  0  0  0  0  0  0
   29.8250   48.6080   -3.7520 C   0  0  0  0  0  0  0  0  0  0  0  0
   29.8810   46.3440   -3.4650 C   0  0  0  0  0  0  0  0  0  0  0  0
   30.1130   49.4960   -5.7950 O   0  0  0  0  0  0  0  0  0  0  0  0
   29.8400   47.5880   -2.8730 N   0  0  0  0  0  0  0  0  0  0  0  0
   29.6910   50.4780   -4.9350 C   0  0  0  0  0  0  0  0  0  0  0  0
   29.4980   49.9700   -3.6460 C   0  0  0  0  0  0  0  0  0  0  0  0
   29.0650   50.8470   -2.6340 C   0  0  0  0  0  0  0  0  0  0  0  0
   29.4770   51.8100   -5.2840 C   0  0  0  0  0  0  0  0  0  0  0  0
   28.8430   52.1940   -2.9620 C   0  0  0  0  0  0  0  0  0  0  0  0
   29.0470   52.6630   -4.2630 C   0  0  0  0  0  0  0  0  0  0  0  0
  1  2  1  0
  2  3  1  0
  2  4  1  0
  3  5  2  0
  4  6  2  0
  5  6  1  0
  4  7  1  0
  6  8  1  0
  7  9  2  0
  7 10  1  0
  8 11  2  3
  8 12  1  0
  9 13  1  0
 10 14  2  0
 11 15  1  0
 13 16  2  0
 14 16  1  0
 15 17  1  0
 17 18  2  3
 18 19  1  0
 18 20  1  0
 19 21  2  0
 20 22  2  0
 19 23  1  0
 21 24  1  0
 22 24  1  0
 23 25  1  0
 21 26  1  0
 25 26  2  0
 26 27  1  0
 25 28  1  0
 27 29  2  0
 28 30  2  0
 29 30  1  0
M  END
