mac-x0212-mac-x0131
     RDKit          3D

 23 25  0  0  0  0  0  0  0  0999 V2000
   30.5750   53.6880   -6.5140 C   0  0  0  0  0  0  0  0  0  0  0  0
   29.0940   53.9870   -5.5710 S   0  0  0  0  0  0  0  0  0  0  0  0
   28.4230   55.1250   -6.1550 O   0  0  0  0  0  0  0  0  0  0  0  0
   29.4820   53.9900   -4.1770 O   0  0  0  0  0  0  0  0  0  0  0  0
   28.2100   52.5370   -5.8620 N   0  0  0  0  0  0  0  0  0  0  0  0
   28.8640   51.3360   -5.3890 C   0  0  0  0  0  0  0  0  0  0  0  0
   28.9190   50.1440   -6.1750 C   0  0  0  0  0  0  0  0  0  0  0  0
   29.4460   51.4060   -4.1140 C   0  0  0  0  0  0  0  0  0  0  0  0
   29.5980   49.0650   -5.6190 C   0  0  0  0  0  0  0  0  0  0  0  0
   30.1160   50.3120   -3.5980 C   0  0  0  0  0  0  0  0  0  0  0  0
   28.3550   50.0240   -7.4070 N   0  0  0  0  0  0  0  0  0  0  0  0
   30.1870   49.1640   -4.3700 C   0  0  0  0  0  0  0  0  0  0  0  0
   28.4810   48.8350   -8.0390 C   0  0  0  0  0  0  0  0  0  0  0  0
   29.6540   47.9100   -6.3780 C   0  0  0  0  0  0  0  0  0  0  0  0
   30.9300   48.0170   -3.8970 C   0  0  0  0  0  0  0  0  0  0  0  0
   29.1100   47.7550   -7.5820 N   0  0  0  0  0  0  0  0  0  0  0  0
   31.6790   47.5300   -4.8030 N   0  0  0  0  0  0  0  0  0  0  0  0
   30.7670   47.6850   -2.6080 O   0  0  0  0  0  0  0  0  0  0  0  0
   32.5640   46.5620   -4.7070 C   0  0  0  0  0  0  0  0  0  0  0  0
   32.5460   45.2500   -5.1190 C   0  0  0  0  0  0  0  0  0  0  0  0
   33.7610   46.8320   -4.1200 O   0  0  0  0  0  0  0  0  0  0  0  0
   34.4990   45.7150   -4.1630 C   0  0  0  0  0  0  0  0  0  0  0  0
   33.8010   44.7030   -4.7700 C   0  0  0  0  0  0  0  0  0  0  0  0
  1  2  1  0
  2  3  2  0
  2  4  2  0
  2  5  1  0
  5  6  1  0
  6  7  2  0
  6  8  1  0
  7  9  1  0
  8 10  2  0
  7 11  1  0
  9 12  2  0
 10 12  1  0
 11 13  2  0
  9 14  1  0
 12 15  1  0
 13 16  1  0
 14 16  2  0
 15 17  2  3
 15 18  1  0
 17 19  1  0
 19 20  2  0
 19 21  1  0
 21 22  1  0
 20 23  1  0
 22 23  2  0
M  END
