mac-x0387-mac-x0411
     RDKit          3D

 25 27  0  0  0  0  0  0  0  0999 V2000
   27.8540   51.5620   -7.1250 N   0  0  0  0  0  0  0  0  0  0  0  0
   28.2920   50.2330   -7.1110 C   0  0  0  0  0  0  0  0  0  0  0  0
   27.8020   49.4780   -8.1130 N   0  0  0  0  0  0  0  0  0  0  0  0
   29.1710   49.7460   -6.1180 C   0  0  0  0  0  0  0  0  0  0  0  0
   29.5480   48.3910   -6.1950 C   0  0  0  0  0  0  0  0  0  0  0  0
   28.1850   48.1850   -8.1540 C   0  0  0  0  0  0  0  0  0  0  0  0
   29.6890   50.5310   -5.0620 C   0  0  0  0  0  0  0  0  0  0  0  0
   29.0420   47.6050   -7.2350 C   0  0  0  0  0  0  0  0  0  0  0  0
   30.4190   47.8530   -5.2360 C   0  0  0  0  0  0  0  0  0  0  0  0
   30.5560   49.9830   -4.1130 C   0  0  0  0  0  0  0  0  0  0  0  0
   30.9290   48.6380   -4.1930 C   0  0  0  0  0  0  0  0  0  0  0  0
   31.8670   48.0390   -3.1740 C   0  0  0  0  0  0  0  0  0  0  0  0
   32.7640   46.9370   -3.7610 C   0  0  0  0  0  0  0  0  0  0  0  0
   34.2080   46.9610   -3.2930 C   0  0  0  0  0  0  0  0  0  0  0  0
   35.0550   45.8370   -3.3930 C   0  0  0  0  0  0  0  0  0  0  0  0
   34.7260   48.1460   -2.7390 C   0  0  0  0  0  0  0  0  0  0  0  0
   34.5440   44.6770   -3.9390 O   0  0  0  0  0  0  0  0  0  0  0  0
   36.0430   48.2170   -2.2940 C   0  0  0  0  0  0  0  0  0  0  0  0
   36.3850   45.9150   -2.9400 C   0  0  0  0  0  0  0  0  0  0  0  0
   37.4750   44.5780   -3.0310 Cl  0  0  0  0  0  0  0  0  0  0  0  0
   33.9910   44.8890   -5.2510 C   0  0  0  0  0  0  0  0  0  0  0  0
   36.8720   47.1040   -2.3930 C   0  0  0  0  0  0  0  0  0  0  0  0
   33.9880   43.5670   -6.0090 C   0  0  0  0  0  0  0  0  0  0  0  0
   33.1340   42.6480   -5.4900 O   0  0  0  0  0  0  0  0  0  0  0  0
   34.6820   43.3390   -6.9900 O   0  0  0  0  0  0  0  0  0  0  0  0
  1  2  1  0
  2  3  2  0
  2  4  1  0
  4  5  2  0
  3  6  1  0
  4  7  1  0
  5  8  1  0
  6  8  2  0
  5  9  1  0
  7 10  2  0
  9 11  2  0
 10 11  1  0
 11 12  1  0
 12 13  1  0
 13 14  1  0
 14 15  2  0
 14 16  1  0
 15 17  1  0
 16 18  2  0
 15 19  1  0
 19 20  1  0
 17 21  1  0
 18 22  1  0
 19 22  2  0
 21 23  1  0
 23 24  1  0
 23 25  2  0
M  END
