mac-x0404-mac-x0338
     RDKit          3D

 25 27  0  0  0  0  0  0  0  0999 V2000
   31.7390   45.3900   -6.7430 O   0  0  0  0  0  0  0  0  0  0  0  0
   32.8450   45.4090   -5.9740 C   0  0  0  0  0  0  0  0  0  0  0  0
   33.8690   45.9380   -6.3810 O   0  0  0  0  0  0  0  0  0  0  0  0
   32.6730   44.7320   -4.6200 C   0  0  0  0  0  0  0  0  0  0  0  0
   31.3480   44.6800   -4.1140 O   0  0  0  0  0  0  0  0  0  0  0  0
   30.8890   45.7060   -3.3170 C   0  0  0  0  0  0  0  0  0  0  0  0
   29.7930   45.3980   -2.4690 C   0  0  0  0  0  0  0  0  0  0  0  0
   31.4290   46.9960   -3.3060 C   0  0  0  0  0  0  0  0  0  0  0  0
   29.2670   46.4040   -1.6220 C   0  0  0  0  0  0  0  0  0  0  0  0
   30.9010   47.9900   -2.4690 C   0  0  0  0  0  0  0  0  0  0  0  0
   29.1890   44.1220   -2.4250 C   0  0  0  0  0  0  0  0  0  0  0  0
   31.4770   49.3810   -2.4790 C   0  0  0  0  0  0  0  0  0  0  0  0
   29.8270   47.6820   -1.6330 C   0  0  0  0  0  0  0  0  0  0  0  0
   28.1850   46.1190   -0.7750 C   0  0  0  0  0  0  0  0  0  0  0  0
   28.1100   43.8520   -1.5780 C   0  0  0  0  0  0  0  0  0  0  0  0
   27.6090   44.8510   -0.7540 C   0  0  0  0  0  0  0  0  0  0  0  0
   30.7650   50.2500   -3.4850 C   0  0  0  0  0  0  0  0  0  0  0  0
   30.2910   49.7050   -4.6780 C   0  0  0  0  0  0  0  0  0  0  0  0
   30.5990   51.5680   -3.2040 N   0  0  0  0  0  0  0  0  0  0  0  0
   29.6470   50.4320   -5.6230 N   0  0  0  0  0  0  0  0  0  0  0  0
   29.9520   52.2980   -4.1520 C   0  0  0  0  0  0  0  0  0  0  0  0
   29.4860   51.7460   -5.3360 C   0  0  0  0  0  0  0  0  0  0  0  0
   28.7820   52.5810   -6.3540 C   0  0  0  0  0  0  0  0  0  0  0  0
   28.3690   51.9620   -7.5140 N   0  0  0  0  0  0  0  0  0  0  0  0
   28.5720   53.7770   -6.1960 O   0  0  0  0  0  0  0  0  0  0  0  0
  1  2  1  0
  2  3  2  0
  2  4  1  0
  4  5  1  0
  5  6  1  0
  6  7  2  0
  6  8  1  0
  7  9  1  0
  8 10  2  0
  7 11  1  0
 10 12  1  0
  9 13  2  0
 10 13  1  0
  9 14  1  0
 11 15  2  0
 14 16  2  0
 15 16  1  0
 12 17  1  0
 17 18  2  0
 17 19  1  0
 18 20  1  0
 19 21  2  0
 20 22  2  0
 21 22  1  0
 22 23  1  0
 23 24  1  0
 23 25  2  0
M  END
