mac-x0411-mac-x0412
     RDKit          3D

 26 28  0  0  0  0  0  0  0  0999 V2000
   37.2430   44.2820   -3.7340 Cl  0  0  0  0  0  0  0  0  0  0  0  0
   36.4230   45.7560   -3.3420 C   0  0  0  0  0  0  0  0  0  0  0  0
   35.0220   45.9050   -3.4030 C   0  0  0  0  0  0  0  0  0  0  0  0
   37.2370   46.8210   -2.9490 C   0  0  0  0  0  0  0  0  0  0  0  0
   34.1620   44.8940   -3.7840 O   0  0  0  0  0  0  0  0  0  0  0  0
   34.4460   47.1560   -3.0550 C   0  0  0  0  0  0  0  0  0  0  0  0
   36.6750   48.0460   -2.6110 C   0  0  0  0  0  0  0  0  0  0  0  0
   32.9520   47.4390   -3.0760 C   0  0  0  0  0  0  0  0  0  0  0  0
   33.1730   45.2800   -4.7440 C   0  0  0  0  0  0  0  0  0  0  0  0
   35.2940   48.2090   -2.6640 C   0  0  0  0  0  0  0  0  0  0  0  0
   33.2540   44.5030   -6.0450 C   0  0  0  0  0  0  0  0  0  0  0  0
   32.4900   48.3570   -4.2220 C   0  0  0  0  0  0  0  0  0  0  0  0
   32.0660   44.0390   -6.4840 O   0  0  0  0  0  0  0  0  0  0  0  0
   34.2710   44.2910   -6.6890 O   0  0  0  0  0  0  0  0  0  0  0  0
   30.9740   48.3430   -4.4710 C   0  0  0  0  0  0  0  0  0  0  0  0
   30.3660   49.7230   -4.5830 C   0  0  0  0  0  0  0  0  0  0  0  0
   29.7900   50.1600   -5.7220 C   0  0  0  0  0  0  0  0  0  0  0  0
   30.4190   50.5890   -3.4170 C   0  0  0  0  0  0  0  0  0  0  0  0
   29.2160   51.4920   -5.8280 C   0  0  0  0  0  0  0  0  0  0  0  0
   29.7550   51.7520   -3.3800 C   0  0  0  0  0  0  0  0  0  0  0  0
   28.9140   52.2360   -4.5340 C   0  0  1  0  0  0  0  0  0  0  0  0
   28.9590   52.0680   -7.0110 C   0  0  0  0  0  0  0  0  0  0  0  0
   29.0470   53.7560   -4.8020 C   0  0  0  0  0  0  0  0  0  0  0  0
   28.3860   53.4270   -6.9580 C   0  0  0  0  0  0  0  0  0  0  0  0
   29.6680   54.5030   -4.0490 O   0  0  0  0  0  0  0  0  0  0  0  0
   28.4180   54.2250   -5.9410 N   0  0  0  0  0  0  0  0  0  0  0  0
  1  2  1  0
  2  3  2  0
  2  4  1  0
  3  5  1  0
  3  6  1  0
  4  7  2  0
  6  8  1  0
  5  9  1  0
  6 10  2  0
  7 10  1  0
  9 11  1  0
  8 12  1  0
 11 13  1  0
 11 14  2  0
 12 15  1  0
 15 16  1  0
 16 17  2  0
 16 18  1  0
 17 19  1  0
 18 20  2  0
 19 21  1  0
 21 20  1  1
 19 22  2  0
 21 23  1  0
 22 24  1  0
 23 25  2  0
 23 26  1  0
 24 26  2  0
M  END
