mac-x1493-mac-x0371
     RDKit          3D

 24 26  0  0  0  0  0  0  0  0999 V2000
   29.2920   47.9630   -5.3500 O   0  0  0  0  0  0  0  0  0  0  0  0
   30.0060   48.5650   -4.3800 C   0  0  0  0  0  0  0  0  0  0  0  0
   30.7200   47.8690   -3.5360 N   0  0  0  0  0  0  0  0  0  0  0  0
   29.8750   50.0420   -4.4040 C   0  0  0  0  0  0  0  0  0  0  0  0
   29.2810   50.6500   -5.5120 C   0  0  0  0  0  0  0  0  0  0  0  0
   30.3120   50.8660   -3.3780 C   0  0  0  0  0  0  0  0  0  0  0  0
   30.6630   46.4570   -3.7170 C   0  0  0  0  0  0  0  0  0  0  0  0
   29.1460   52.0460   -5.5640 C   0  0  0  0  0  0  0  0  0  0  0  0
   30.1960   52.2230   -3.3960 N   0  0  0  0  0  0  0  0  0  0  0  0
   31.7310   45.6740   -4.2540 C   0  0  0  0  0  0  0  0  0  0  0  0
   29.4690   45.8270   -3.3400 C   0  0  0  0  0  0  0  0  0  0  0  0
   33.0390   46.3410   -4.6540 C   0  0  0  0  0  0  0  0  0  0  0  0
   29.6230   52.8030   -4.4720 C   0  0  0  0  0  0  0  0  0  0  0  0
   28.5540   52.6880   -6.6690 C   0  0  0  0  0  0  0  0  0  0  0  0
   29.2920   44.4540   -3.4810 C   0  0  0  0  0  0  0  0  0  0  0  0
   31.5240   44.2760   -4.3930 C   0  0  0  0  0  0  0  0  0  0  0  0
   32.7240   43.2030   -5.0350 Cl  0  0  0  0  0  0  0  0  0  0  0  0
   33.3180   46.4830   -6.1340 C   0  0  0  0  0  0  0  0  0  0  0  0
   29.4900   54.1860   -4.5270 C   0  0  0  0  0  0  0  0  0  0  0  0
   28.4340   54.0760   -6.6960 C   0  0  0  0  0  0  0  0  0  0  0  0
   30.3180   43.6840   -4.0090 C   0  0  0  0  0  0  0  0  0  0  0  0
   32.2140   46.3210   -6.8940 O   0  0  0  0  0  0  0  0  0  0  0  0
   34.3850   46.7240   -6.6790 O   0  0  0  0  0  0  0  0  0  0  0  0
   28.9030   54.8270   -5.6240 C   0  0  0  0  0  0  0  0  0  0  0  0
  1  2  1  0
  2  3  2  3
  2  4  1  0
  4  5  2  0
  4  6  1  0
  3  7  1  0
  5  8  1  0
  6  9  2  0
  7 10  2  0
  7 11  1  0
 10 12  1  0
  8 13  2  0
  9 13  1  0
  8 14  1  0
 11 15  2  0
 10 16  1  0
 16 17  1  0
 12 18  1  0
 13 19  1  0
 14 20  2  0
 15 21  1  0
 16 21  2  0
 18 22  1  0
 18 23  2  0
 19 24  2  0
 20 24  1  0
M  END
