mac-x0346-mac-x0321
     RDKit          3D

 14 14  0  0  0  0  0  0  0  0999 V2000
   29.4990   54.8310   -5.6960 O   0  0  0  0  0  0  0  0  0  0  0  0
   29.3300   54.5610   -4.3250 N   0  0  0  0  0  0  0  0  0  0  0  0
   29.5210   53.2800   -3.8670 C   0  0  0  0  0  0  0  0  0  0  0  0
   29.9140   53.1000   -2.7140 O   0  0  0  0  0  0  0  0  0  0  0  0
   29.2700   52.0840   -4.7240 C   0  0  0  0  0  0  0  0  0  0  0  0
   29.7090   50.8010   -4.3560 C   0  0  0  0  0  0  0  0  0  0  0  0
   28.5720   52.2560   -5.9340 C   0  0  0  0  0  0  0  0  0  0  0  0
   30.3840   50.6500   -3.1670 O   0  0  0  0  0  0  0  0  0  0  0  0
   29.4690   49.6900   -5.1840 C   0  0  0  0  0  0  0  0  0  0  0  0
   28.3190   51.1550   -6.7630 C   0  0  0  0  0  0  0  0  0  0  0  0
   29.9780   48.3430   -4.7520 C   0  0  0  0  0  0  0  0  0  0  0  0
   28.7660   49.8780   -6.3950 C   0  0  0  0  0  0  0  0  0  0  0  0
   29.8520   47.3840   -5.6780 O   0  0  0  0  0  0  0  0  0  0  0  0
   30.4810   48.1010   -3.6600 O   0  0  0  0  0  0  0  0  0  0  0  0
  1  2  1  0
  2  3  1  0
  3  4  2  0
  3  5  1  0
  5  6  2  0
  5  7  1  0
  6  8  1  0
  6  9  1  0
  7 10  2  0
  9 11  1  0
  9 12  2  0
 10 12  1  0
 11 13  1  0
 11 14  2  0
M  END
