mac-x0328-mac-x0441
     RDKit          3D

 29 31  0  0  0  0  0  0  0  0999 V2000
   29.4360   48.1350   -3.1480 O   0  0  0  0  0  0  0  0  0  0  0  0
   29.8460   48.5640   -4.3590 C   0  0  0  0  0  0  0  0  0  0  0  0
   30.2930   47.7120   -5.2030 N   0  0  0  0  0  0  0  0  0  0  0  0
   29.6890   50.0220   -4.4790 C   0  0  0  0  0  0  0  0  0  0  0  0
   30.3550   46.2950   -4.8390 C   0  0  0  0  0  0  0  0  0  0  0  0
   29.2530   50.5670   -5.6900 C   0  0  0  0  0  0  0  0  0  0  0  0
   29.9790   50.8400   -3.3840 C   0  0  0  0  0  0  0  0  0  0  0  0
   30.8200   45.4350   -6.0210 C   0  0  0  0  0  0  0  0  0  0  0  0
   29.1040   51.9510   -5.8080 C   0  0  0  0  0  0  0  0  0  0  0  0
   29.8280   52.2220   -3.5080 C   0  0  0  0  0  0  0  0  0  0  0  0
   32.2100   45.7700   -6.3540 N   0  0  0  0  0  0  0  0  0  0  0  0
   29.3940   52.7660   -4.7140 C   0  0  0  0  0  0  0  0  0  0  0  0
   29.2630   54.1200   -4.7850 O   0  0  0  0  0  0  0  0  0  0  0  0
   33.1450   45.3200   -5.5950 C   0  0  0  0  0  0  0  0  0  0  0  0
   34.3900   45.6650   -5.9670 O   0  0  0  0  0  0  0  0  0  0  0  0
   33.0970   44.4710   -4.3590 C   0  0  0  0  0  0  0  0  0  0  0  0
   34.3670   44.3860   -3.6480 N   0  0  0  0  0  0  0  0  0  0  0  0
   34.8300   43.1640   -3.2870 N   0  0  0  0  0  0  0  0  0  0  0  0
   35.2090   45.3920   -3.2650 C   0  0  0  0  0  0  0  0  0  0  0  0
   36.0010   43.3990   -2.6560 C   0  0  0  0  0  0  0  0  0  0  0  0
   36.2730   44.7920   -2.6230 C   0  0  0  0  0  0  0  0  0  0  0  0
   35.0390   46.8570   -3.4820 C   0  0  0  0  0  0  0  0  0  0  0  0
   36.8600   42.2980   -2.0850 C   0  0  0  0  0  0  0  0  0  0  0  0
   37.4160   45.5570   -2.0530 C   0  0  0  0  0  0  0  0  0  0  0  0
   36.0420   47.6370   -2.6090 C   0  0  0  0  0  0  0  0  0  0  0  0
   37.9330   41.9810   -2.8550 F   0  0  0  0  0  0  0  0  0  0  0  0
   37.3490   42.6220   -0.8540 F   0  0  0  0  0  0  0  0  0  0  0  0
   36.1470   41.1490   -1.9130 F   0  0  0  0  0  0  0  0  0  0  0  0
   37.4430   46.9950   -2.6060 C   0  0  0  0  0  0  0  0  0  0  0  0
  1  2  1  0
  2  3  2  3
  2  4  1  0
  3  5  1  0
  4  6  2  0
  4  7  1  0
  5  8  1  0
  6  9  1  0
  7 10  2  0
  8 11  1  0
  9 12  2  0
 10 12  1  0
 12 13  1  0
 11 14  2  3
 14 15  1  0
 14 16  1  0
 16 17  1  0
 17 18  1  0
 17 19  1  0
 18 20  2  0
 19 21  2  0
 20 21  1  0
 19 22  1  0
 20 23  1  0
 21 24  1  0
 22 25  1  0
 23 26  1  0
 23 27  1  0
 23 28  1  0
 24 29  1  0
 25 29  1  0
M  END
