mac-x0412-mac-x0333
     RDKit          3D

 12 13  0  0  0  0  0  0  0  0999 V2000
   29.2940   54.4270   -3.7850 O   0  0  0  0  0  0  0  0  0  0  0  0
   29.3200   53.7890   -4.8330 C   0  0  0  0  0  0  0  0  0  0  0  0
   28.8360   54.3290   -6.0160 N   0  0  0  0  0  0  0  0  0  0  0  0
   29.9110   52.3560   -4.8920 C   0  0  2  0  0  0  0  0  0  0  0  0
   29.1610   51.4920   -5.9020 C   0  0  0  0  0  0  0  0  0  0  0  0
   28.4460   53.5230   -6.9480 C   0  0  0  0  0  0  0  0  0  0  0  0
   30.0260   51.6910   -3.5400 C   0  0  0  0  0  0  0  0  0  0  0  0
   28.4560   52.0480   -6.9000 C   0  0  0  0  0  0  0  0  0  0  0  0
   29.2640   50.0470   -5.7270 C   0  0  0  0  0  0  0  0  0  0  0  0
   29.8830   50.3660   -3.3920 C   0  0  0  0  0  0  0  0  0  0  0  0
   29.6130   49.5290   -4.5300 C   0  0  0  0  0  0  0  0  0  0  0  0
   29.7430   48.1930   -4.2630 O   0  0  0  0  0  0  0  0  0  0  0  0
  1  2  2  0
  2  3  1  0
  2  4  1  0
  4  5  1  0
  3  6  2  0
  4  7  1  1
  5  8  2  0
  6  8  1  0
  5  9  1  0
  7 10  2  0
  9 11  2  0
 10 11  1  0
 11 12  1  0
M  END
