mac-x0302-mac-x0333
     RDKit          3D

 18 19  0  0  0  0  0  0  0  0999 V2000
   30.8620   44.8200   -4.6060 O   0  0  0  0  0  0  0  0  0  0  0  0
   30.7880   46.0780   -5.0830 C   0  0  0  0  0  0  0  0  0  0  0  0
   30.9260   46.2900   -6.2790 O   0  0  0  0  0  0  0  0  0  0  0  0
   30.5300   47.1220   -4.0030 C   0  0  0  0  0  0  0  0  0  0  0  0
   30.2920   48.4170   -4.6250 N   0  0  0  0  0  0  0  0  0  0  0  0
   29.8940   49.5290   -3.9050 C   0  0  0  0  0  0  0  0  0  0  0  0
   29.9060   49.5840   -2.6800 O   0  0  0  0  0  0  0  0  0  0  0  0
   29.4320   50.6850   -4.7460 C   0  0  0  0  0  0  0  0  0  0  0  0
   29.4560   52.0640   -4.4010 C   0  0  0  0  0  0  0  0  0  0  0  0
   28.9310   50.3030   -6.0090 C   0  0  0  0  0  0  0  0  0  0  0  0
   29.9380   52.6610   -3.1380 C   0  0  0  0  0  0  0  0  0  0  0  0
   28.4610   51.2480   -6.9220 C   0  0  0  0  0  0  0  0  0  0  0  0
   28.9780   52.9610   -5.3400 C   0  0  0  0  0  0  0  0  0  0  0  0
   29.8130   54.0740   -3.2290 O   0  0  0  0  0  0  0  0  0  0  0  0
   28.4940   52.5760   -6.5670 C   0  0  0  0  0  0  0  0  0  0  0  0
   28.9340   54.3260   -5.1600 O   0  0  0  0  0  0  0  0  0  0  0  0
   28.0630   53.7620   -7.3400 C   0  0  0  0  0  0  0  0  0  0  0  0
   28.7210   54.8460   -6.4910 C   0  0  0  0  0  0  0  0  0  0  0  0
  1  2  1  0
  2  3  2  0
  2  4  1  0
  4  5  1  0
  5  6  1  0
  6  7  2  0
  6  8  1  0
  8  9  2  0
  8 10  1  0
  9 11  1  0
 10 12  2  0
  9 13  1  0
 11 14  1  0
 12 15  1  0
 13 15  2  0
 13 16  1  0
 15 17  1  0
 16 18  1  0
 17 18  1  0
M  END
