mac-x0228-mac-x0255
     RDKit          3D

 25 28  0  0  0  0  0  0  0  0999 V2000
   28.8660   48.5380   -4.2340 O   0  0  0  0  0  0  0  0  0  0  0  0
   30.1250   48.9450   -3.9740 C   0  0  0  0  0  0  0  0  0  0  0  0
   30.9850   48.0210   -3.7360 N   0  0  0  0  0  0  0  0  0  0  0  0
   30.1340   50.4020   -4.0470 C   0  0  0  0  0  0  0  0  0  0  0  0
   29.8060   51.0360   -5.2490 C   0  0  0  0  0  0  0  0  0  0  0  0
   30.4720   51.1510   -2.9020 C   0  0  0  0  0  0  0  0  0  0  0  0
   30.8780   46.3340   -3.6760 S   0  0  0  0  0  0  0  0  0  0  0  0
   29.8250   52.4200   -5.2790 C   0  0  0  0  0  0  0  0  0  0  0  0
   30.4860   52.5470   -2.9520 C   0  0  0  0  0  0  0  0  0  0  0  0
   31.6730   45.0740   -4.6010 C   0  0  0  0  0  0  0  0  0  0  0  0
   29.8690   45.3450   -2.6480 C   0  0  0  0  0  0  0  0  0  0  0  0
   32.6830   45.2940   -5.6900 C   0  0  0  0  0  0  0  0  0  0  0  0
   30.1590   53.1520   -4.1500 C   0  0  0  0  0  0  0  0  0  0  0  0
   29.5280   53.3460   -6.3930 C   0  0  0  0  0  0  0  0  0  0  0  0
   31.1760   43.8920   -4.1270 C   0  0  0  0  0  0  0  0  0  0  0  0
   30.1400   43.8990   -2.9770 C   0  0  2  0  0  0  0  0  0  0  0  0
   28.8970   45.7250   -1.6370 C   0  0  0  0  0  0  0  0  0  0  0  0
   32.2170   44.7270   -7.0130 C   0  0  0  0  0  0  0  0  0  0  0  0
   30.1300   54.5080   -4.3470 O   0  0  0  0  0  0  0  0  0  0  0  0
   30.0860   54.6370   -5.7870 C   0  0  0  0  0  0  0  0  0  0  0  0
   28.7980   43.2760   -3.1860 C   0  0  0  0  0  0  0  0  0  0  0  0
   27.8350   44.9000   -1.6160 C   0  0  0  0  0  0  0  0  0  0  0  0
   31.9120   43.4120   -6.9220 O   0  0  0  0  0  0  0  0  0  0  0  0
   32.1030   45.2980   -8.0870 O   0  0  0  0  0  0  0  0  0  0  0  0
   27.7190   43.7650   -2.5300 C   0  0  0  0  0  0  0  0  0  0  0  0
  1  2  1  0
  2  3  2  3
  2  4  1  0
  4  5  2  0
  4  6  1  0
  3  7  1  0
  5  8  1  0
  6  9  2  0
  7 10  1  0
  7 11  2  0
 10 12  1  0
  8 13  2  0
  9 13  1  0
  8 14  1  0
 10 15  2  0
 11 16  1  0
 16 15  1  6
 11 17  1  0
 12 18  1  0
 13 19  1  0
 14 20  1  0
 19 20  1  0
 16 21  1  0
 17 22  2  0
 18 23  1  0
 18 24  2  0
 21 25  2  0
 22 25  1  0
M  END
