mac-x0453-mac-x0302
     RDKit          3D

 15 15  0  0  0  0  0  0  0  0999 V2000
   29.2830   54.8660   -7.1830 N   0  0  0  0  0  0  0  0  0  0  0  0
   29.8570   53.9370   -6.2180 C   0  0  0  0  0  0  0  0  0  0  0  0
   29.0640   52.6300   -6.1410 C   0  0  0  0  0  0  0  0  0  0  0  0
   29.9550   51.5130   -5.5600 C   0  0  2  0  0  0  0  0  0  0  0  0
   29.4700   50.0810   -5.8500 C   0  0  0  0  0  0  0  0  0  0  0  0
   30.0780   51.5270   -4.0730 N   0  0  0  0  0  0  0  0  0  0  0  0
   29.3150   52.6490   -3.5270 O   0  0  0  0  0  0  0  0  0  0  0  0
   30.0340   49.3400   -4.7180 N   0  0  0  0  0  0  0  0  0  0  0  0
   29.6110   50.2150   -3.6210 C   0  0  1  0  0  0  0  0  0  0  0  0
   29.4900   47.9790   -4.6440 N   0  0  0  0  0  0  0  0  0  0  0  0
   30.2330   49.8700   -2.4020 O   0  0  0  0  0  0  0  0  0  0  0  0
   30.5450   47.0510   -4.1780 C   0  0  0  0  0  0  0  0  0  0  0  0
   30.8320   45.9680   -5.2010 C   0  0  0  0  0  0  0  0  0  0  0  0
   30.9180   44.7180   -4.6950 O   0  0  0  0  0  0  0  0  0  0  0  0
   30.9840   46.1430   -6.4010 O   0  0  0  0  0  0  0  0  0  0  0  0
  1  2  1  0
  2  3  1  0
  4  3  1  1
  4  5  1  0
  4  6  1  0
  6  7  1  0
  5  8  1  0
  6  9  1  0
  8  9  1  0
  8 10  1  0
  9 11  1  1
 10 12  1  0
 12 13  1  0
 13 14  1  0
 13 15  2  0
M  END
