mac-x0576-mac-x0347
     RDKit          3D

 21 23  0  0  0  0  0  0  0  0999 V2000
   27.5130   48.2920   -9.6600 N   0  0  0  0  0  0  0  0  0  0  0  0
   28.5700   48.4990   -8.7330 C   0  0  1  0  0  0  0  0  0  0  0  0
   28.6290   49.8690   -8.3880 N   0  0  0  0  0  0  0  0  0  0  0  0
   28.3190   47.6980   -7.6030 N   0  0  0  0  0  0  0  0  0  0  0  0
   28.5080   48.0390   -6.2970 C   0  0  0  0  0  0  0  0  0  0  0  0
   29.4500   50.1170   -7.2380 C   0  0  2  0  0  0  0  0  0  0  0  0
   28.3030   47.1820   -5.4400 O   0  0  0  0  0  0  0  0  0  0  0  0
   28.9500   49.4600   -5.9580 C   0  0  2  0  0  0  0  0  0  0  0  0
   29.4870   51.5300   -7.0560 N   0  0  0  0  0  0  0  0  0  0  0  0
   29.6600   52.0280   -5.7900 C   0  0  0  0  0  0  0  0  0  0  0  0
   29.9820   49.6710   -4.7760 C   0  0  2  0  0  0  0  0  0  0  0  0
   29.1780   53.1050   -5.4590 O   0  0  0  0  0  0  0  0  0  0  0  0
   30.4880   51.1510   -4.8520 C   0  0  0  0  0  0  0  0  0  0  0  0
   31.2580   48.7540   -5.0180 C   0  0  0  0  0  0  0  0  0  0  0  0
   29.3810   49.4810   -3.3550 C   0  0  0  0  0  0  0  0  0  0  0  0
   31.5060   47.5300   -4.1070 C   0  0  2  0  0  0  0  0  0  0  0  0
   29.9700   48.4770   -2.4570 N   0  0  0  0  0  0  0  0  0  0  0  0
   31.9010   46.2920   -4.9140 C   0  0  0  0  0  0  0  0  0  0  0  0
   30.3830   47.2510   -3.1370 C   0  0  0  0  0  0  0  0  0  0  0  0
   31.4130   45.1160   -4.4540 O   0  0  0  0  0  0  0  0  0  0  0  0
   32.6110   46.3470   -5.9100 O   0  0  0  0  0  0  0  0  0  0  0  0
  2  1  1  6
  2  3  1  0
  2  4  1  0
  4  5  1  0
  6  3  1  6
  5  7  2  0
  8  5  1  6
  6  8  1  0
  6  9  1  0
  9 10  1  0
  8 11  1  0
 10 12  2  0
 10 13  1  0
 11 13  1  1
 11 14  1  0
 11 15  1  0
 14 16  1  0
 15 17  1  0
 16 18  1  6
 16 19  1  0
 17 19  1  0
 18 20  1  0
 18 21  2  0
M  END
