mac-x0139-mac-x0451
     RDKit          3D

 20 22  0  0  0  0  0  0  0  0999 V2000
   30.5220   47.3620   -4.5200 C   0  0  0  0  0  0  0  0  0  0  0  0
   29.8140   46.6670   -5.6120 N   0  0  0  0  0  0  0  0  0  0  0  0
   30.5100   45.3730   -5.8930 C   0  0  0  0  0  0  0  0  0  0  0  0
   29.7360   47.5020   -6.8360 C   0  0  2  0  0  0  0  0  0  0  0  0
   32.0380   45.4410   -5.7350 C   0  0  0  0  0  0  0  0  0  0  0  0
   29.6440   49.0230   -6.5900 C   0  0  1  0  0  0  0  0  0  0  0  0
   28.5690   47.0670   -7.5880 N   0  0  0  0  0  0  0  0  0  0  0  0
   32.7890   44.6620   -6.7880 C   0  0  0  0  0  0  0  0  0  0  0  0
   29.2600   49.7830   -7.8660 C   0  0  1  0  0  0  0  0  0  0  0  0
   28.4870   47.7340   -8.8590 C   0  0  0  0  0  0  0  0  0  0  0  0
   28.6120   49.5150   -5.5830 C   0  0  0  0  0  0  0  0  0  0  0  0
   32.3140   43.8200   -7.5340 O   0  0  0  0  0  0  0  0  0  0  0  0
   34.1020   44.9980   -6.8340 O   0  0  0  0  0  0  0  0  0  0  0  0
   28.2220   49.1300   -8.6440 N   0  0  0  0  0  0  0  0  0  0  0  0
   28.6410   51.0440   -7.4350 N   0  0  0  0  0  0  0  0  0  0  0  0
   28.4390   50.9770   -5.9680 C   0  0  2  0  0  0  0  0  0  0  0  0
   29.4610   52.2080   -7.6860 C   0  0  1  0  0  0  0  0  0  0  0  0
   29.5010   51.9100   -5.3940 C   0  0  0  0  0  0  0  0  0  0  0  0
   28.6710   53.1000   -8.4780 N   0  0  0  0  0  0  0  0  0  0  0  0
   29.7260   52.9030   -6.4500 N   0  0  0  0  0  0  0  0  0  0  0  0
  1  2  1  0
  2  3  1  0
  4  2  1  1
  3  5  1  0
  4  6  1  0
  4  7  1  0
  5  8  1  0
  6  9  1  0
  7 10  1  0
  6 11  1  1
  8 12  2  0
  8 13  1  0
  9 14  1  1
 10 14  1  0
  9 15  1  0
 16 11  1  1
 15 16  1  0
 15 17  1  0
 16 18  1  0
 17 19  1  6
 17 20  1  0
 18 20  1  0
M  END
