mac-x0348-mac-x0319
     RDKit          3D

 22 24  0  0  0  0  0  0  0  0999 V2000
   27.6930   44.4600   -0.5450 C   0  0  0  0  0  0  0  0  0  0  0  0
   28.3530   45.5150   -1.2880 N   0  0  0  0  0  0  0  0  0  0  0  0
   28.7540   45.4320   -2.5850 C   0  0  0  0  0  0  0  0  0  0  0  0
   28.6960   46.7600   -0.7960 C   0  0  0  0  0  0  0  0  0  0  0  0
   29.3390   46.6200   -2.9800 C   0  0  0  0  0  0  0  0  0  0  0  0
   29.3180   47.4640   -1.8410 C   0  0  0  0  0  0  0  0  0  0  0  0
   28.5250   47.3330    0.4690 C   0  0  0  0  0  0  0  0  0  0  0  0
   28.6550   44.3960   -3.3620 O   0  0  0  0  0  0  0  0  0  0  0  0
   29.8970   46.9210   -4.3570 C   0  0  0  0  0  0  0  0  0  0  0  0
   29.7790   48.7690   -1.6100 C   0  0  0  0  0  0  0  0  0  0  0  0
   28.9970   48.6310    0.6720 C   0  0  0  0  0  0  0  0  0  0  0  0
   29.9740   44.4060   -3.6530 C   0  0  0  0  0  0  0  0  0  0  0  0
   29.6160   49.3430   -0.3510 C   0  0  0  0  0  0  0  0  0  0  0  0
   30.4760   43.9040   -4.8380 C   0  0  0  0  0  0  0  0  0  0  0  0
   30.8300   44.9770   -2.7030 C   0  0  0  0  0  0  0  0  0  0  0  0
   31.3810   47.2970   -4.4510 C   0  0  0  0  0  0  0  0  0  0  0  0
   31.8540   43.9890   -5.0670 C   0  0  0  0  0  0  0  0  0  0  0  0
   32.1840   45.0620   -2.9300 C   0  0  0  0  0  0  0  0  0  0  0  0
   32.0070   46.8910   -5.7670 C   0  0  0  0  0  0  0  0  0  0  0  0
   32.7020   44.5690   -4.1170 C   0  0  0  0  0  0  0  0  0  0  0  0
   31.4140   46.5190   -6.7700 O   0  0  0  0  0  0  0  0  0  0  0  0
   33.3540   46.9750   -5.7690 O   0  0  0  0  0  0  0  0  0  0  0  0
  1  2  1  0
  2  3  1  0
  2  4  1  0
  3  5  2  0
  4  6  2  0
  5  6  1  0
  4  7  1  0
  3  8  1  0
  5  9  1  0
  6 10  1  0
  7 11  2  0
  8 12  1  0
 10 13  2  0
 11 13  1  0
 12 14  2  0
 12 15  1  0
  9 16  1  0
 14 17  1  0
 15 18  2  0
 16 19  1  0
 17 20  2  0
 18 20  1  0
 19 21  2  0
 19 22  1  0
M  END
