mac-x0546-mac-x0226
     RDKit          3D

 26 29  0  0  0  0  0  0  0  0999 V2000
   30.9890   49.2360   -0.5180 C   0  0  0  0  0  0  0  0  0  0  0  0
   30.1960   48.0960   -0.2020 O   0  0  0  0  0  0  0  0  0  0  0  0
   29.8100   47.2870   -1.2400 C   0  0  0  0  0  0  0  0  0  0  0  0
   30.3350   47.2400   -2.4800 C   0  0  0  0  0  0  0  0  0  0  0  0
   28.6950   46.4030   -0.8900 C   0  0  0  0  0  0  0  0  0  0  0  0
   29.7490   46.2950   -3.4740 C   0  0  2  0  0  0  0  0  0  0  0  0
   28.3920   45.2930   -1.5920 C   0  0  0  0  0  0  0  0  0  0  0  0
   29.2760   45.0620   -2.7410 C   0  0  0  0  0  0  0  0  0  0  0  0
   30.5890   45.5840   -4.4720 C   0  0  0  0  0  0  0  0  0  0  0  0
   31.3710   46.3080   -5.5220 C   0  0  0  0  0  0  0  0  0  0  0  0
   29.6880   43.9170   -3.1940 N   0  0  0  0  0  0  0  0  0  0  0  0
   30.4920   44.2600   -4.2550 C   0  0  0  0  0  0  0  0  0  0  0  0
   32.8480   45.9320   -5.6990 C   0  0  0  0  0  0  0  0  0  0  0  0
   32.9750   45.1140   -6.8510 O   0  0  0  0  0  0  0  0  0  0  0  0
   33.6130   47.0910   -6.0270 O   0  0  0  0  0  0  0  0  0  0  0  0
   33.4820   45.2830   -4.4670 C   0  0  1  0  0  0  0  0  0  0  0  0
   33.1710   43.7950   -4.3300 C   0  0  0  0  0  0  0  0  0  0  0  0
   34.9890   45.3550   -4.3600 C   0  0  0  0  0  0  0  0  0  0  0  0
   34.3120   43.1620   -3.6740 N   0  0  0  0  0  0  0  0  0  0  0  0
   35.2740   44.1800   -3.5500 N   0  0  0  0  0  0  0  0  0  0  0  0
   35.9800   44.3070   -2.3430 C   0  0  0  0  0  0  0  0  0  0  0  0
   36.6820   45.4750   -2.0070 C   0  0  0  0  0  0  0  0  0  0  0  0
   36.0080   43.2520   -1.4190 C   0  0  0  0  0  0  0  0  0  0  0  0
   37.3830   45.5840   -0.8020 C   0  0  0  0  0  0  0  0  0  0  0  0
   36.7060   43.3550   -0.2150 C   0  0  0  0  0  0  0  0  0  0  0  0
   37.3960   44.5220    0.0940 C   0  0  0  0  0  0  0  0  0  0  0  0
  1  2  1  0
  2  3  1  0
  3  4  2  0
  3  5  1  0
  6  4  1  1
  5  7  2  0
  6  8  1  0
  7  8  1  0
  6  9  1  0
  9 10  1  0
  8 11  2  0
  9 12  2  0
 11 12  1  0
 10 13  1  0
 13 14  1  0
 13 15  1  0
 16 13  1  6
 16 17  1  0
 16 18  1  0
 17 19  1  0
 18 20  1  0
 19 20  1  0
 20 21  1  0
 21 22  2  0
 21 23  1  0
 22 24  1  0
 23 25  2  0
 24 26  2  0
 25 26  1  0
M  END
