mac-x0394-mac-x0284
     RDKit          3D

 22 23  0  0  0  0  0  0  0  0999 V2000
   23.6650   50.1400   -4.1740 Cl  0  0  0  0  0  0  0  0  0  0  0  0
   24.9150   51.3210   -4.2140 C   0  0  0  0  0  0  0  0  0  0  0  0
   24.7480   52.5180   -3.5260 C   0  0  0  0  0  0  0  0  0  0  0  0
   26.0880   51.0690   -4.9320 C   0  0  0  0  0  0  0  0  0  0  0  0
   27.1110   52.0330   -4.9600 C   0  0  0  0  0  0  0  0  0  0  0  0
   25.7630   53.4670   -3.5590 C   0  0  0  0  0  0  0  0  0  0  0  0
   25.5920   54.9550   -2.7180 Cl  0  0  0  0  0  0  0  0  0  0  0  0
   28.4040   51.7940   -5.7110 C   0  0  2  0  0  0  0  0  0  0  0  0
   26.9320   53.2300   -4.2670 C   0  0  0  0  0  0  0  0  0  0  0  0
   28.3280   52.1000   -7.2310 C   0  0  0  0  0  0  0  0  0  0  0  0
   29.0830   50.5530   -5.0680 C   0  0  0  0  0  0  0  0  0  0  0  0
   29.3790   52.8370   -7.6780 O   0  0  0  0  0  0  0  0  0  0  0  0
   27.4300   51.7790   -8.0030 O   0  0  0  0  0  0  0  0  0  0  0  0
   29.2480   49.2600   -5.6310 C   0  0  0  0  0  0  0  0  0  0  0  0
   29.5790   50.7600   -3.7630 C   0  0  0  0  0  0  0  0  0  0  0  0
   29.8880   48.2290   -4.8880 C   0  0  0  0  0  0  0  0  0  0  0  0
   30.2070   49.7480   -3.0390 C   0  0  0  0  0  0  0  0  0  0  0  0
   30.0850   46.8600   -5.4250 C   0  0  0  0  0  0  0  0  0  0  0  0
   30.3620   48.4910   -3.5980 C   0  0  0  0  0  0  0  0  0  0  0  0
   30.9880   47.5540   -2.8190 O   0  0  0  0  0  0  0  0  0  0  0  0
   29.7870   46.5620   -6.5700 O   0  0  0  0  0  0  0  0  0  0  0  0
   30.6140   45.9820   -4.5470 O   0  0  0  0  0  0  0  0  0  0  0  0
  1  2  1  0
  2  3  2  0
  2  4  1  0
  4  5  2  0
  3  6  1  0
  6  7  1  0
  5  8  1  0
  5  9  1  0
  6  9  2  0
  8 10  1  6
  8 11  1  0
 10 12  1  0
 10 13  2  0
 11 14  2  0
 11 15  1  0
 14 16  1  0
 15 17  2  0
 16 18  1  0
 16 19  2  0
 17 19  1  0
 19 20  1  0
 18 21  2  0
 18 22  1  0
M  END
