mac-x0441-mac-x0360
     RDKit          3D

 32 34  0  0  0  0  0  0  0  0999 V2000
   34.2370   45.2180   -6.2960 O   0  0  0  0  0  0  0  0  0  0  0  0
   33.0080   45.3120   -5.7600 C   0  0  0  0  0  0  0  0  0  0  0  0
   31.9620   45.4760   -6.4960 N   0  0  0  0  0  0  0  0  0  0  0  0
   32.8800   45.2220   -4.2620 C   0  0  0  0  0  0  0  0  0  0  0  0
   30.6420   45.5790   -5.8610 C   0  0  0  0  0  0  0  0  0  0  0  0
   34.1180   44.9610   -3.5530 N   0  0  0  0  0  0  0  0  0  0  0  0
   29.9920   46.9600   -6.0420 C   0  0  0  0  0  0  0  0  0  0  0  0
   34.3390   43.7300   -3.0300 N   0  0  0  0  0  0  0  0  0  0  0  0
   35.1490   45.8220   -3.3210 C   0  0  0  0  0  0  0  0  0  0  0  0
   30.9020   48.1530   -5.7800 C   0  0  0  0  0  0  0  0  0  0  0  0
   35.5570   43.8140   -2.4440 C   0  0  0  0  0  0  0  0  0  0  0  0
   36.0960   45.1180   -2.6090 C   0  0  0  0  0  0  0  0  0  0  0  0
   35.2540   47.2480   -3.7420 C   0  0  0  0  0  0  0  0  0  0  0  0
   36.2010   42.6550   -1.7290 C   0  0  0  0  0  0  0  0  0  0  0  0
   30.2580   49.1310   -4.8860 N   0  0  0  0  0  0  0  0  0  0  0  0
   37.3880   45.7140   -2.1580 C   0  0  0  0  0  0  0  0  0  0  0  0
   36.3370   47.9390   -2.8960 C   0  0  0  0  0  0  0  0  0  0  0  0
   37.2870   42.1780   -2.3980 F   0  0  0  0  0  0  0  0  0  0  0  0
   36.6330   43.0050   -0.4930 F   0  0  0  0  0  0  0  0  0  0  0  0
   35.3550   41.6020   -1.5620 F   0  0  0  0  0  0  0  0  0  0  0  0
   29.6960   50.5720   -5.5600 S   0  0  0  0  0  0  0  0  0  0  0  0
   37.6230   47.0940   -2.8010 C   0  0  0  0  0  0  0  0  0  0  0  0
   28.9000   51.2130   -4.5390 O   0  0  0  0  0  0  0  0  0  0  0  0
   29.1390   50.2890   -6.8670 O   0  0  0  0  0  0  0  0  0  0  0  0
   31.1680   51.5510   -5.7610 C   0  0  0  0  0  0  0  0  0  0  0  0
   32.4250   51.0240   -5.4480 C   0  0  0  0  0  0  0  0  0  0  0  0
   31.0380   52.8560   -6.2400 C   0  0  0  0  0  0  0  0  0  0  0  0
   33.5570   51.8230   -5.6190 C   0  0  0  0  0  0  0  0  0  0  0  0
   32.1790   53.6360   -6.4030 C   0  0  0  0  0  0  0  0  0  0  0  0
   32.0340   55.2450   -6.9920 Cl  0  0  0  0  0  0  0  0  0  0  0  0
   35.1180   51.2030   -5.2400 Cl  0  0  0  0  0  0  0  0  0  0  0  0
   33.4380   53.1270   -6.0950 C   0  0  0  0  0  0  0  0  0  0  0  0
  1  2  1  0
  2  3  2  3
  2  4  1  0
  3  5  1  0
  4  6  1  0
  5  7  1  0
  6  8  1  0
  6  9  1  0
  7 10  1  0
  8 11  2  0
  9 12  2  0
 11 12  1  0
  9 13  1  0
 11 14  1  0
 10 15  1  0
 12 16  1  0
 13 17  1  0
 14 18  1  0
 14 19  1  0
 14 20  1  0
 21 15  1  0
 16 22  1  0
 17 22  1  0
 21 23  2  0
 21 24  2  0
 21 25  1  0
 25 26  2  0
 25 27  1  0
 26 28  1  0
 27 29  2  0
 29 30  1  0
 28 31  1  0
 28 32  2  0
 29 32  1  0
M  END
