mac-x0411-mac-x0404
     RDKit          3D

 24 26  0  0  0  0  0  0  0  0999 V2000
   33.4000   44.7510   -2.2660 Cl  0  0  0  0  0  0  0  0  0  0  0  0
   34.6240   45.8760   -2.7350 C   0  0  0  0  0  0  0  0  0  0  0  0
   34.5820   46.6370   -3.9250 C   0  0  0  0  0  0  0  0  0  0  0  0
   35.7010   46.0090   -1.8520 C   0  0  0  0  0  0  0  0  0  0  0  0
   33.5660   46.5810   -4.8590 O   0  0  0  0  0  0  0  0  0  0  0  0
   35.6450   47.5220   -4.1870 C   0  0  0  0  0  0  0  0  0  0  0  0
   36.7430   46.8890   -2.1310 C   0  0  0  0  0  0  0  0  0  0  0  0
   35.6870   48.4990   -5.6140 Cl  0  0  0  0  0  0  0  0  0  0  0  0
   32.8690   45.3200   -4.9770 C   0  0  2  0  0  0  0  0  0  0  0  0
   36.7150   47.6450   -3.2980 C   0  0  0  0  0  0  0  0  0  0  0  0
   32.8590   44.9400   -6.4780 C   0  0  0  0  0  0  0  0  0  0  0  0
   31.4920   45.3700   -4.5560 O   0  0  0  0  0  0  0  0  0  0  0  0
   32.0530   45.7350   -7.2290 O   0  0  0  0  0  0  0  0  0  0  0  0
   33.4720   44.0370   -7.0340 O   0  0  0  0  0  0  0  0  0  0  0  0
   31.2180   46.0110   -3.3650 C   0  0  0  0  0  0  0  0  0  0  0  0
   30.3170   45.3710   -2.4750 C   0  0  0  0  0  0  0  0  0  0  0  0
   31.7900   47.2430   -3.0210 C   0  0  0  0  0  0  0  0  0  0  0  0
   30.0100   45.9970   -1.2410 C   0  0  0  0  0  0  0  0  0  0  0  0
   31.4790   47.8470   -1.8060 C   0  0  0  0  0  0  0  0  0  0  0  0
   29.7050   44.1320   -2.7570 C   0  0  0  0  0  0  0  0  0  0  0  0
   30.5970   47.2300   -0.9230 C   0  0  0  0  0  0  0  0  0  0  0  0
   29.1200   45.3810   -0.3450 C   0  0  0  0  0  0  0  0  0  0  0  0
   28.8220   43.5300   -1.8580 C   0  0  0  0  0  0  0  0  0  0  0  0
   28.5300   44.1560   -0.6520 C   0  0  0  0  0  0  0  0  0  0  0  0
  1  2  1  0
  2  3  2  0
  2  4  1  0
  3  5  1  0
  3  6  1  0
  4  7  2  0
  6  8  1  0
  9  5  1  6
  6 10  2  0
  7 10  1  0
  9 11  1  0
  9 12  1  0
 11 13  1  0
 11 14  2  0
 12 15  1  0
 15 16  1  0
 15 17  2  0
 16 18  2  0
 17 19  1  0
 16 20  1  0
 18 21  1  0
 19 21  2  0
 18 22  1  0
 20 23  2  0
 22 24  2  0
 23 24  1  0
M  END
