mac-x0345-mac-x0305
     RDKit          3D

 17 18  0  0  0  0  0  0  0  0999 V2000
   28.8630   54.7180   -4.2440 C   0  0  0  0  0  0  0  0  0  0  0  0
   29.1420   53.2590   -4.4550 C   0  0  0  0  0  0  0  0  0  0  0  0
   29.6780   52.6180   -3.3930 N   0  0  0  0  0  0  0  0  0  0  0  0
   28.8730   52.5990   -5.6580 C   0  0  0  0  0  0  0  0  0  0  0  0
   28.1140   53.5640   -7.1240 Br  0  0  0  0  0  0  0  0  0  0  0  0
   29.1710   51.2150   -5.7740 C   0  0  0  0  0  0  0  0  0  0  0  0
   29.9590   51.3060   -3.5070 C   0  0  0  0  0  0  0  0  0  0  0  0
   30.5190   50.6830   -2.3650 N   0  0  0  0  0  0  0  0  0  0  0  0
   29.7330   50.5460   -4.6690 C   0  0  0  0  0  0  0  0  0  0  0  0
   28.9460   50.4380   -6.9380 C   0  0  0  0  0  0  0  0  0  0  0  0
   29.2700   49.0830   -6.9760 C   0  0  0  0  0  0  0  0  0  0  0  0
   30.0510   49.2260   -4.6970 N   0  0  0  0  0  0  0  0  0  0  0  0
   29.0410   48.3690   -8.1150 O   0  0  0  0  0  0  0  0  0  0  0  0
   29.8210   48.5150   -5.8370 C   0  0  0  0  0  0  0  0  0  0  0  0
   30.2100   47.0740   -5.7660 C   0  0  0  0  0  0  0  0  0  0  0  0
   30.7740   46.6220   -6.9060 O   0  0  0  0  0  0  0  0  0  0  0  0
   30.0610   46.3330   -4.8110 O   0  0  0  0  0  0  0  0  0  0  0  0
  1  2  1  0
  2  3  2  0
  2  4  1  0
  4  5  1  0
  4  6  2  0
  3  7  1  0
  7  8  1  0
  6  9  1  0
  7  9  2  0
  6 10  1  0
 10 11  2  0
  9 12  1  0
 11 13  1  0
 11 14  1  0
 12 14  2  0
 14 15  1  0
 15 16  1  0
 15 17  2  0
M  END
