mac-x0282-mac-x0436
     RDKit          3D

 26 29  0  0  0  0  0  0  0  0999 V2000
   33.2290   45.7440   -6.8160 O   0  0  0  0  0  0  0  0  0  0  0  0
   32.2260   45.1760   -6.1160 C   0  0  0  0  0  0  0  0  0  0  0  0
   30.9810   45.2050   -6.4370 N   0  0  0  0  0  0  0  0  0  0  0  0
   32.6350   44.4520   -4.8660 C   0  0  0  0  0  0  0  0  0  0  0  0
   32.5470   45.3570   -3.6490 C   0  0  0  0  0  0  0  0  0  0  0  0
   30.5280   45.8870   -7.6440 C   0  0  0  0  0  0  0  0  0  0  0  0
   29.9260   47.2440   -7.3800 C   0  0  0  0  0  0  0  0  0  0  0  0
   33.8880   45.9870   -3.3780 C   0  0  0  0  0  0  0  0  0  0  0  0
   30.0550   47.8930   -6.1420 C   0  0  0  0  0  0  0  0  0  0  0  0
   29.2220   47.8900   -8.3940 C   0  0  0  0  0  0  0  0  0  0  0  0
   34.0110   47.4930   -3.5880 C   0  0  0  0  0  0  0  0  0  0  0  0
   34.8740   45.2310   -2.9880 N   0  0  0  0  0  0  0  0  0  0  0  0
   33.0350   48.1610   -3.8930 O   0  0  0  0  0  0  0  0  0  0  0  0
   29.4720   49.1670   -6.0100 C   0  0  0  0  0  0  0  0  0  0  0  0
   28.6400   49.1100   -8.3160 N   0  0  0  0  0  0  0  0  0  0  0  0
   35.2640   48.0140   -3.4120 N   0  0  0  0  0  0  0  0  0  0  0  0
   36.1150   45.8440   -2.7630 C   0  0  0  0  0  0  0  0  0  0  0  0
   29.3760   50.1430   -4.9780 C   0  0  0  0  0  0  0  0  0  0  0  0
   28.8070   49.6860   -7.1130 C   0  0  0  0  0  0  0  0  0  0  0  0
   36.3270   47.2180   -2.9680 C   0  0  0  0  0  0  0  0  0  0  0  0
   37.1800   45.0580   -2.3220 C   0  0  0  0  0  0  0  0  0  0  0  0
   28.6670   51.2140   -5.4820 C   0  0  0  0  0  0  0  0  0  0  0  0
   28.3290   50.9210   -6.7780 N   0  0  0  0  0  0  0  0  0  0  0  0
   38.4310   45.6290   -2.0880 C   0  0  0  0  0  0  0  0  0  0  0  0
   37.5740   47.7950   -2.7370 C   0  0  0  0  0  0  0  0  0  0  0  0
   38.6290   46.9940   -2.2940 C   0  0  0  0  0  0  0  0  0  0  0  0
  1  2  1  0
  2  3  2  3
  2  4  1  0
  4  5  1  0
  3  6  1  0
  6  7  1  0
  5  8  1  0
  7  9  2  0
  7 10  1  0
  8 11  1  0
  8 12  2  0
 11 13  2  0
  9 14  1  0
 10 15  2  0
 11 16  1  0
 12 17  1  0
 14 18  1  0
 14 19  2  0
 15 19  1  0
 16 20  1  0
 17 20  2  0
 17 21  1  0
 18 22  2  0
 19 23  1  0
 22 23  1  0
 21 24  2  0
 20 25  1  0
 24 26  1  0
 25 26  2  0
M  END
