mac-x0546-mac-x0402
     RDKit          3D

 26 29  0  0  0  0  0  0  0  0999 V2000
   30.4510   48.7820   -0.3550 C   0  0  0  0  0  0  0  0  0  0  0  0
   29.3030   48.6240   -1.1960 O   0  0  0  0  0  0  0  0  0  0  0  0
   29.3810   47.4580   -1.9290 C   0  0  0  0  0  0  0  0  0  0  0  0
   30.3010   47.2580   -2.9040 C   0  0  0  0  0  0  0  0  0  0  0  0
   28.3830   46.4460   -1.5900 C   0  0  0  0  0  0  0  0  0  0  0  0
   31.2980   48.3270   -3.2760 C   0  0  0  0  0  0  0  0  0  0  0  0
   30.3030   45.9380   -3.6390 C   0  0  2  0  0  0  0  0  0  0  0  0
   28.4940   45.1630   -1.9600 C   0  0  0  0  0  0  0  0  0  0  0  0
   29.7160   44.8680   -2.7100 C   0  0  0  0  0  0  0  0  0  0  0  0
   31.5360   45.1350   -3.9770 C   0  0  0  0  0  0  0  0  0  0  0  0
   30.6620   49.5950   -3.8440 C   0  0  0  0  0  0  0  0  0  0  0  0
   32.6950   45.5660   -4.8200 C   0  0  0  0  0  0  0  0  0  0  0  0
   30.3490   43.7400   -2.6280 N   0  0  0  0  0  0  0  0  0  0  0  0
   31.4580   43.9290   -3.3980 C   0  0  0  0  0  0  0  0  0  0  0  0
   30.4280   50.6800   -2.9960 C   0  0  0  0  0  0  0  0  0  0  0  0
   30.3060   49.6980   -5.2070 C   0  0  0  0  0  0  0  0  0  0  0  0
   32.3770   45.8760   -6.2640 C   0  0  0  0  0  0  0  0  0  0  0  0
   29.7250   50.8980   -5.6740 C   0  0  0  0  0  0  0  0  0  0  0  0
   29.8500   51.8640   -3.4720 C   0  0  0  0  0  0  0  0  0  0  0  0
   31.3540   45.6550   -6.8870 O   0  0  0  0  0  0  0  0  0  0  0  0
   33.4220   46.4740   -6.8750 O   0  0  0  0  0  0  0  0  0  0  0  0
   29.4930   51.9810   -4.8260 C   0  0  0  0  0  0  0  0  0  0  0  0
   29.1940   51.3250   -7.2580 S   0  0  0  0  0  0  0  0  0  0  0  0
   28.7190   52.8720   -6.6890 C   0  0  0  0  0  0  0  0  0  0  0  0
   28.9220   53.0940   -5.4180 N   0  0  0  0  0  0  0  0  0  0  0  0
   28.1730   53.7880   -7.5100 N   0  0  0  0  0  0  0  0  0  0  0  0
  1  2  1  0
  2  3  1  0
  3  4  2  0
  3  5  1  0
  4  6  1  0
  7  4  1  1
  5  8  2  0
  7  9  1  0
  8  9  1  0
  7 10  1  0
  6 11  1  0
 10 12  1  0
  9 13  2  0
 10 14  2  0
 13 14  1  0
 11 15  2  0
 11 16  1  0
 12 17  1  0
 16 18  2  0
 15 19  1  0
 17 20  2  0
 17 21  1  0
 18 22  1  0
 19 22  2  0
 18 23  1  0
 23 24  1  0
 22 25  1  0
 24 25  2  0
 24 26  1  0
M  END
