mac-x0576-mac-x0375
     RDKit          3D

 26 28  0  0  0  0  0  0  0  0999 V2000
   29.1360   47.8620   -9.3350 N   0  0  0  0  0  0  0  0  0  0  0  0
   28.8160   48.2540   -7.9930 C   0  0  2  0  0  0  0  0  0  0  0  0
   28.8020   49.6900   -8.1240 N   0  0  0  0  0  0  0  0  0  0  0  0
   29.6120   47.6620   -6.9990 N   0  0  0  0  0  0  0  0  0  0  0  0
   29.7080   48.2040   -5.7640 C   0  0  0  0  0  0  0  0  0  0  0  0
   29.5570   50.4060   -7.0950 C   0  0  2  0  0  0  0  0  0  0  0  0
   29.6840   47.5320   -4.6740 N   0  0  0  0  0  0  0  0  0  0  0  0
   29.8620   49.7420   -5.7150 C   0  0  1  0  0  0  0  0  0  0  0  0
   28.9220   51.6950   -7.0020 N   0  0  0  0  0  0  0  0  0  0  0  0
   29.5400   46.0780   -4.7530 C   0  0  0  0  0  0  0  0  0  0  0  0
   29.0640   52.5070   -5.9070 C   0  0  0  0  0  0  0  0  0  0  0  0
   29.1160   50.3770   -4.6000 N   0  0  0  0  0  0  0  0  0  0  0  0
   28.9450   53.7230   -6.0240 O   0  0  0  0  0  0  0  0  0  0  0  0
   30.9300   45.4360   -4.6380 C   0  0  0  0  0  0  0  0  0  0  0  0
   29.3690   51.8300   -4.5710 C   0  0  0  0  0  0  0  0  0  0  0  0
   31.6290   45.3440   -5.9020 O   0  0  0  0  0  0  0  0  0  0  0  0
   32.9620   45.0880   -5.7650 C   0  0  0  0  0  0  0  0  0  0  0  0
   33.8200   45.2660   -6.6230 O   0  0  0  0  0  0  0  0  0  0  0  0
   33.1950   44.5510   -4.3560 C   0  0  0  0  0  0  0  0  0  0  0  0
   34.5440   44.4810   -3.9430 O   0  0  0  0  0  0  0  0  0  0  0  0
   35.1790   45.6540   -3.6410 C   0  0  0  0  0  0  0  0  0  0  0  0
   36.5490   45.5040   -3.4080 C   0  0  0  0  0  0  0  0  0  0  0  0
   34.6080   46.9230   -3.5490 C   0  0  0  0  0  0  0  0  0  0  0  0
   37.3400   46.6080   -3.0860 C   0  0  0  0  0  0  0  0  0  0  0  0
   35.4010   48.0300   -3.2270 C   0  0  0  0  0  0  0  0  0  0  0  0
   36.7670   47.8700   -2.9970 C   0  0  0  0  0  0  0  0  0  0  0  0
  2  1  1  6
  2  3  1  0
  2  4  1  0
  4  5  1  0
  6  3  1  6
  5  7  2  3
  5  8  1  0
  6  8  1  0
  6  9  1  0
  7 10  1  0
  9 11  1  0
  8 12  1  1
 11 13  2  0
 10 14  1  0
 11 15  1  0
 12 15  1  0
 14 16  1  0
 16 17  1  0
 17 18  2  0
 17 19  1  0
 19 20  1  0
 20 21  1  0
 21 22  2  0
 21 23  1  0
 22 24  1  0
 23 25  2  0
 24 26  2  0
 25 26  1  0
M  END
