mac-x0226-mac-x0375
     RDKit          3D

 22 24  0  0  0  0  0  0  0  0999 V2000
   31.8300   45.0990   -6.4770 O   0  0  0  0  0  0  0  0  0  0  0  0
   33.1650   45.4110   -6.0900 C   0  0  0  0  0  0  0  0  0  0  0  0
   33.9880   45.0540   -7.1900 O   0  0  0  0  0  0  0  0  0  0  0  0
   33.3090   46.9340   -5.8820 C   0  0  0  0  0  0  0  0  0  0  0  0
   33.5540   44.6810   -4.8450 C   0  0  0  0  0  0  0  0  0  0  0  0
   33.3380   47.2090   -4.4690 O   0  0  0  0  0  0  0  0  0  0  0  0
   32.8620   43.6610   -4.1550 C   0  0  0  0  0  0  0  0  0  0  0  0
   34.6930   44.8560   -4.0920 C   0  0  0  0  0  0  0  0  0  0  0  0
   33.5090   43.2370   -3.0630 N   0  0  0  0  0  0  0  0  0  0  0  0
   34.6450   43.9910   -3.0310 N   0  0  0  0  0  0  0  0  0  0  0  0
   34.5970   47.4270   -3.9690 C   0  0  0  0  0  0  0  0  0  0  0  0
   35.6240   43.8670   -2.0120 C   0  0  0  0  0  0  0  0  0  0  0  0
   35.7670   47.1280   -4.6790 C   0  0  0  0  0  0  0  0  0  0  0  0
   34.6780   47.9720   -2.6890 C   0  0  0  0  0  0  0  0  0  0  0  0
   36.4330   44.9800   -1.7370 C   0  0  0  0  0  0  0  0  0  0  0  0
   35.8020   42.6850   -1.2820 C   0  0  0  0  0  0  0  0  0  0  0  0
   37.0140   47.3760   -4.1010 C   0  0  0  0  0  0  0  0  0  0  0  0
   35.9240   48.2190   -2.1140 C   0  0  0  0  0  0  0  0  0  0  0  0
   37.4100   44.9160   -0.7450 C   0  0  0  0  0  0  0  0  0  0  0  0
   36.7840   42.6280   -0.2870 C   0  0  0  0  0  0  0  0  0  0  0  0
   37.0920   47.9220   -2.8190 C   0  0  0  0  0  0  0  0  0  0  0  0
   37.5860   43.7390   -0.0200 C   0  0  0  0  0  0  0  0  0  0  0  0
  2  1  1  0
  2  3  1  0
  2  4  1  0
  2  5  1  0
  4  6  1  0
  5  7  1  0
  5  8  2  0
  7  9  2  0
  8 10  1  0
  9 10  1  0
  6 11  1  0
 10 12  1  0
 11 13  2  0
 11 14  1  0
 12 15  2  0
 12 16  1  0
 13 17  1  0
 14 18  2  0
 15 19  1  0
 16 20  2  0
 17 21  2  0
 18 21  1  0
 19 22  2  0
 20 22  1  0
M  END
