mac-x0226-mac-x0328
     RDKit          3D

 26 28  0  0  0  0  0  0  0  0999 V2000
   32.2730   45.7240   -6.9440 O   0  0  0  0  0  0  0  0  0  0  0  0
   33.0700   46.4900   -6.0440 C   0  0  0  0  0  0  0  0  0  0  0  0
   34.0380   47.1420   -6.8570 O   0  0  0  0  0  0  0  0  0  0  0  0
   32.1420   47.5640   -5.4390 C   0  0  0  0  0  0  0  0  0  0  0  0
   33.7000   45.5920   -5.0190 C   0  0  0  0  0  0  0  0  0  0  0  0
   30.7760   47.7180   -6.1170 C   0  0  0  0  0  0  0  0  0  0  0  0
   33.4520   44.2170   -4.8260 C   0  0  0  0  0  0  0  0  0  0  0  0
   34.6430   45.8850   -4.0510 C   0  0  0  0  0  0  0  0  0  0  0  0
   29.7190   47.3400   -5.1900 N   0  0  0  0  0  0  0  0  0  0  0  0
   34.1660   43.6910   -3.8330 N   0  0  0  0  0  0  0  0  0  0  0  0
   34.9050   44.7250   -3.3510 N   0  0  0  0  0  0  0  0  0  0  0  0
   29.1620   48.2000   -4.4210 C   0  0  0  0  0  0  0  0  0  0  0  0
   35.8030   44.5360   -2.2640 C   0  0  0  0  0  0  0  0  0  0  0  0
   28.1830   47.9100   -3.5440 O   0  0  0  0  0  0  0  0  0  0  0  0
   36.6570   45.5840   -1.8850 C   0  0  0  0  0  0  0  0  0  0  0  0
   35.8530   43.3230   -1.5630 C   0  0  0  0  0  0  0  0  0  0  0  0
   29.5280   49.6360   -4.3980 C   0  0  0  0  0  0  0  0  0  0  0  0
   37.5460   45.4210   -0.8210 C   0  0  0  0  0  0  0  0  0  0  0  0
   36.7450   43.1670   -0.4980 C   0  0  0  0  0  0  0  0  0  0  0  0
   29.1190   50.5170   -5.4090 C   0  0  0  0  0  0  0  0  0  0  0  0
   30.3060   50.1230   -3.3370 C   0  0  0  0  0  0  0  0  0  0  0  0
   37.5890   44.2120   -0.1280 C   0  0  0  0  0  0  0  0  0  0  0  0
   29.4840   51.8640   -5.3560 C   0  0  0  0  0  0  0  0  0  0  0  0
   30.6710   51.4700   -3.2860 C   0  0  0  0  0  0  0  0  0  0  0  0
   30.2550   52.3300   -4.2970 C   0  0  0  0  0  0  0  0  0  0  0  0
   30.5870   53.6530   -4.2840 O   0  0  0  0  0  0  0  0  0  0  0  0
  2  1  1  0
  2  3  1  0
  2  4  1  0
  2  5  1  0
  4  6  1  0
  5  7  1  0
  5  8  2  0
  6  9  1  0
  7 10  2  0
  8 11  1  0
 10 11  1  0
  9 12  2  3
 11 13  1  0
 12 14  1  0
 13 15  2  0
 13 16  1  0
 12 17  1  0
 15 18  1  0
 16 19  2  0
 17 20  2  0
 17 21  1  0
 18 22  2  0
 19 22  1  0
 20 23  1  0
 21 24  2  0
 23 25  2  0
 24 25  1  0
 25 26  1  0
M  END
