mac-x0301-mac-x0555
     RDKit          3D

 21 24  0  0  0  0  0  0  0  0999 V2000
   29.8170   45.3190   -5.1490 O   0  0  0  0  0  0  0  0  0  0  0  0
   30.2290   46.3150   -4.3520 C   0  0  0  0  0  0  0  0  0  0  0  0
   30.8410   46.1170   -3.3090 O   0  0  0  0  0  0  0  0  0  0  0  0
   29.9360   47.6940   -4.7890 C   0  0  0  0  0  0  0  0  0  0  0  0
   29.6120   48.1570   -6.0480 C   0  0  0  0  0  0  0  0  0  0  0  0
   30.0160   48.6120   -3.7890 C   0  0  0  0  0  0  0  0  0  0  0  0
   29.3920   49.5240   -6.3010 C   0  0  0  0  0  0  0  0  0  0  0  0
   29.8160   49.9560   -3.9920 C   0  0  0  0  0  0  0  0  0  0  0  0
   29.4800   47.3750   -7.1610 O   0  0  0  0  0  0  0  0  0  0  0  0
   29.5030   50.5310   -5.2570 C   0  0  0  0  0  0  0  0  0  0  0  0
   29.0910   49.6870   -7.6330 O   0  0  0  0  0  0  0  0  0  0  0  0
   28.9630   48.3300   -8.1010 C   0  0  0  0  0  0  0  0  0  0  0  0
   29.9630   50.6900   -2.8430 C   0  0  0  0  0  0  0  0  0  0  0  0
   29.3690   52.0130   -5.2460 C   0  0  0  0  0  0  0  0  0  0  0  0
   29.8310   52.0380   -2.8540 C   0  0  0  0  0  0  0  0  0  0  0  0
   29.0870   52.8950   -6.3320 C   0  0  0  0  0  0  0  0  0  0  0  0
   29.5490   52.7100   -4.0060 C   0  0  0  0  0  0  0  0  0  0  0  0
   29.0130   54.2950   -6.1620 C   0  0  0  0  0  0  0  0  0  0  0  0
   29.4750   54.0280   -3.8280 N   0  0  0  0  0  0  0  0  0  0  0  0
   28.7470   55.1600   -7.2290 N   0  0  0  0  0  0  0  0  0  0  0  0
   29.2150   54.7870   -4.8930 C   0  0  0  0  0  0  0  0  0  0  0  0
  1  2  1  0
  2  3  2  0
  2  4  1  0
  4  5  2  0
  4  6  1  0
  5  7  1  0
  6  8  2  0
  5  9  1  0
  7 10  2  0
  8 10  1  0
  7 11  1  0
  9 12  1  0
 11 12  1  0
  8 13  1  0
 10 14  1  0
 13 15  2  0
 14 16  2  0
 14 17  1  0
 15 17  1  0
 16 18  1  0
 17 19  2  0
 18 20  1  0
 18 21  2  0
 19 21  1  0
M  END
