mac-x0346-mac-x0398
     RDKit          3D

 13 13  0  0  0  0  0  0  0  0999 V2000
   29.5880   54.8390   -5.5280 O   0  0  0  0  0  0  0  0  0  0  0  0
   29.5160   54.4290   -4.1840 N   0  0  0  0  0  0  0  0  0  0  0  0
   29.6480   53.0980   -3.8550 C   0  0  0  0  0  0  0  0  0  0  0  0
   30.1250   52.7700   -2.7740 O   0  0  0  0  0  0  0  0  0  0  0  0
   29.2070   52.0340   -4.8030 C   0  0  0  0  0  0  0  0  0  0  0  0
   29.3510   50.6400   -4.5880 C   0  0  0  0  0  0  0  0  0  0  0  0
   28.6020   52.4690   -6.0000 C   0  0  0  0  0  0  0  0  0  0  0  0
   29.9560   50.0010   -3.3990 C   0  0  0  0  0  0  0  0  0  0  0  0
   28.8960   49.7360   -5.5560 C   0  0  0  0  0  0  0  0  0  0  0  0
   28.1570   51.5450   -6.9550 C   0  0  0  0  0  0  0  0  0  0  0  0
   30.2660   50.4940   -2.3350 O   0  0  0  0  0  0  0  0  0  0  0  0
   30.1370   48.6830   -3.6510 O   0  0  0  0  0  0  0  0  0  0  0  0
   28.3050   50.1850   -6.7310 C   0  0  0  0  0  0  0  0  0  0  0  0
  1  2  1  0
  2  3  1  0
  3  4  2  0
  3  5  1  0
  5  6  2  0
  5  7  1  0
  6  8  1  0
  6  9  1  0
  7 10  2  0
  8 11  2  0
  8 12  1  0
  9 13  2  0
 10 13  1  0
M  END
