mac-x0472-mac-x0360
     RDKit          3D

 18 20  0  0  0  0  0  0  0  0999 V2000
   30.0240   50.0690   -3.7270 O   0  0  0  0  0  0  0  0  0  0  0  0
   30.8630   49.5910   -4.8040 S   0  0  0  0  0  0  0  0  0  0  0  0
   31.1940   48.1910   -4.9660 O   0  0  0  0  0  0  0  0  0  0  0  0
   30.3950   50.2400   -6.2860 N   0  0  0  0  0  0  0  0  0  0  0  0
   32.3620   50.4660   -4.6880 C   0  0  0  0  0  0  0  0  0  0  0  0
   30.8130   51.7770   -6.4370 S   0  0  0  0  0  0  0  0  0  0  0  0
   29.0180   49.9060   -6.6230 C   0  0  0  0  0  0  0  0  0  0  0  0
   33.4380   50.1180   -3.8850 C   0  0  0  0  0  0  0  0  0  0  0  0
   32.3400   51.5770   -5.5150 C   0  0  0  0  0  0  0  0  0  0  0  0
   29.9230   52.6280   -5.5800 O   0  0  0  0  0  0  0  0  0  0  0  0
   28.6890   49.1490   -7.6500 N   0  0  0  0  0  0  0  0  0  0  0  0
   27.6760   50.4760   -5.7160 S   0  0  0  0  0  0  0  0  0  0  0  0
   34.5590   50.9430   -3.9240 C   0  0  0  0  0  0  0  0  0  0  0  0
   33.4610   52.3970   -5.5500 C   0  0  0  0  0  0  0  0  0  0  0  0
   33.5560   53.8060   -6.5370 Cl  0  0  0  0  0  0  0  0  0  0  0  0
   26.6740   49.6230   -6.8160 C   0  0  0  0  0  0  0  0  0  0  0  0
   27.3220   48.9810   -7.7640 N   0  0  0  0  0  0  0  0  0  0  0  0
   34.5710   52.0770   -4.7520 C   0  0  0  0  0  0  0  0  0  0  0  0
  1  2  2  0
  2  3  2  0
  2  4  1  0
  2  5  1  0
  6  4  1  1
  4  7  1  0
  5  8  1  0
  5  9  2  0
  6  9  1  0
  6 10  2  0
  7 11  2  0
  7 12  1  0
  8 13  2  0
  9 14  1  0
 14 15  1  0
 12 16  1  0
 11 17  1  0
 16 17  2  0
 13 18  1  0
 14 18  2  0
M  END
