mac-x0568-mac-x0344
     RDKit          3D

 25 26  0  0  0  0  0  0  0  0999 V2000
   29.5570   55.7400   -5.4090 C   0  0  0  0  0  0  0  0  0  0  0  0
   29.5490   54.2420   -5.3280 C   0  0  0  0  0  0  0  0  0  0  0  0
   29.1830   53.4780   -6.4320 C   0  0  0  0  0  0  0  0  0  0  0  0
   29.9090   53.6880   -4.1470 N   0  0  0  0  0  0  0  0  0  0  0  0
   29.9060   52.3340   -4.0660 C   0  0  0  0  0  0  0  0  0  0  0  0
   29.1880   52.0830   -6.3220 C   0  0  0  0  0  0  0  0  0  0  0  0
   29.5580   51.4940   -5.1100 C   0  0  0  0  0  0  0  0  0  0  0  0
   29.5710   50.0170   -4.9710 C   0  0  0  0  0  0  0  0  0  0  0  0
   29.7940   49.5280   -3.8680 O   0  0  0  0  0  0  0  0  0  0  0  0
   29.3320   49.2620   -6.1000 N   0  0  0  0  0  0  0  0  0  0  0  0
   30.4120   48.7900   -6.9490 C   0  0  0  0  0  0  0  0  0  0  0  0
   30.3330   47.2990   -7.2830 C   0  0  0  0  0  0  0  0  0  0  0  0
   31.6320   46.5240   -7.0440 C   0  0  0  0  0  0  0  0  0  0  0  0
   31.3720   45.4150   -6.1360 N   0  0  0  0  0  0  0  0  0  0  0  0
   32.2060   45.0730   -5.2220 C   0  0  0  0  0  0  0  0  0  0  0  0
   32.0140   44.0680   -4.3520 O   0  0  0  0  0  0  0  0  0  0  0  0
   33.5590   45.7920   -5.0060 C   0  0  0  0  0  0  0  0  0  0  0  0
   34.0560   46.4140   -5.9300 O   0  0  0  0  0  0  0  0  0  0  0  0
   34.0730   45.6310   -3.7300 N   0  0  0  0  0  0  0  0  0  0  0  0
   35.2070   46.2830   -3.2050 C   0  0  0  0  0  0  0  0  0  0  0  0
   36.1670   45.5030   -2.5450 C   0  0  0  0  0  0  0  0  0  0  0  0
   35.4170   47.6600   -3.3130 C   0  0  0  0  0  0  0  0  0  0  0  0
   37.3140   46.0920   -2.0060 C   0  0  0  0  0  0  0  0  0  0  0  0
   36.5650   48.2480   -2.7740 C   0  0  0  0  0  0  0  0  0  0  0  0
   37.5140   47.4650   -2.1200 C   0  0  0  0  0  0  0  0  0  0  0  0
  1  2  1  0
  2  3  2  0
  2  4  1  0
  4  5  2  0
  3  6  1  0
  5  7  1  0
  6  7  2  0
  7  8  1  0
  8  9  2  0
  8 10  1  0
 10 11  1  0
 11 12  1  0
 12 13  1  0
 13 14  1  0
 14 15  2  3
 15 16  1  0
 15 17  1  0
 17 18  2  0
 17 19  1  0
 19 20  1  0
 20 21  2  0
 20 22  1  0
 21 23  1  0
 22 24  2  0
 23 25  2  0
 24 25  1  0
M  END
