mac-x0321-mac-x0344
     RDKit          3D

 23 24  0  0  0  0  0  0  0  0999 V2000
   28.5030   52.3800   -7.0580 Cl  0  0  0  0  0  0  0  0  0  0  0  0
   28.9680   51.6060   -5.5900 C   0  0  0  0  0  0  0  0  0  0  0  0
   29.0510   50.2150   -5.5390 C   0  0  0  0  0  0  0  0  0  0  0  0
   29.2570   52.3820   -4.4680 C   0  0  0  0  0  0  0  0  0  0  0  0
   29.4280   49.5880   -4.3430 C   0  0  0  0  0  0  0  0  0  0  0  0
   29.6320   51.7620   -3.2770 C   0  0  0  0  0  0  0  0  0  0  0  0
   29.5370   48.1060   -4.2130 C   0  0  0  0  0  0  0  0  0  0  0  0
   29.7180   50.3710   -3.2150 C   0  0  0  0  0  0  0  0  0  0  0  0
   29.7320   47.5330   -5.4240 O   0  0  0  0  0  0  0  0  0  0  0  0
   29.4610   47.5290   -3.1370 O   0  0  0  0  0  0  0  0  0  0  0  0
   30.4410   46.2830   -5.4090 C   0  0  0  0  0  0  0  0  0  0  0  0
   31.8960   46.4190   -5.4800 N   0  0  0  0  0  0  0  0  0  0  0  0
   32.5500   45.3690   -5.1210 C   0  0  0  0  0  0  0  0  0  0  0  0
   32.0120   44.2120   -4.7070 O   0  0  0  0  0  0  0  0  0  0  0  0
   34.0790   45.3380   -5.1270 C   0  0  0  0  0  0  0  0  0  0  0  0
   34.6280   45.4590   -6.2150 O   0  0  0  0  0  0  0  0  0  0  0  0
   34.6100   45.1720   -3.8700 N   0  0  0  0  0  0  0  0  0  0  0  0
   35.6160   45.9280   -3.2460 C   0  0  0  0  0  0  0  0  0  0  0  0
   36.6410   45.3700   -2.4820 C   0  0  0  0  0  0  0  0  0  0  0  0
   35.5710   47.3190   -3.4090 C   0  0  0  0  0  0  0  0  0  0  0  0
   37.6080   46.1890   -1.8880 C   0  0  0  0  0  0  0  0  0  0  0  0
   36.5380   48.1370   -2.8150 C   0  0  0  0  0  0  0  0  0  0  0  0
   37.5560   47.5710   -2.0550 C   0  0  0  0  0  0  0  0  0  0  0  0
  1  2  1  0
  2  3  2  0
  2  4  1  0
  3  5  1  0
  4  6  2  0
  5  7  1  0
  5  8  2  0
  6  8  1  0
  7  9  1  0
  7 10  2  0
  9 11  1  0
 11 12  1  0
 12 13  2  3
 13 14  1  0
 13 15  1  0
 15 16  2  0
 15 17  1  0
 17 18  1  0
 18 19  2  0
 18 20  1  0
 19 21  1  0
 20 22  2  0
 21 23  2  0
 22 23  1  0
M  END
