mac-x0411-mac-x0496
     RDKit          3D

 34 36  0  0  0  0  0  0  0  0999 V2000
   37.3860   44.1460   -3.1400 Cl  0  0  0  0  0  0  0  0  0  0  0  0
   36.4970   45.6290   -3.1440 C   0  0  0  0  0  0  0  0  0  0  0  0
   35.1020   45.6760   -3.3280 C   0  0  0  0  0  0  0  0  0  0  0  0
   37.2300   46.8030   -2.9530 C   0  0  0  0  0  0  0  0  0  0  0  0
   34.3540   44.5300   -3.5110 O   0  0  0  0  0  0  0  0  0  0  0  0
   34.4380   46.9320   -3.3230 C   0  0  0  0  0  0  0  0  0  0  0  0
   36.5870   48.0340   -2.9420 C   0  0  0  0  0  0  0  0  0  0  0  0
   32.9270   47.0600   -3.5310 C   0  0  0  0  0  0  0  0  0  0  0  0
   33.2760   44.5020   -4.4410 C   0  0  0  0  0  0  0  0  0  0  0  0
   35.2020   48.1000   -3.1270 C   0  0  0  0  0  0  0  0  0  0  0  0
   33.3260   45.1030   -5.8590 C   0  0  0  0  0  0  0  0  0  0  0  0
   32.1620   47.8590   -2.4730 C   0  0  0  0  0  0  0  0  0  0  0  0
   32.0970   45.1780   -6.4360 O   0  0  0  0  0  0  0  0  0  0  0  0
   34.3250   45.4790   -6.4510 O   0  0  0  0  0  0  0  0  0  0  0  0
   30.6410   47.6950   -2.6580 C   0  0  0  0  0  0  0  0  0  0  0  0
   30.2140   48.4930   -3.8110 N   0  0  0  0  0  0  0  0  0  0  0  0
   29.7010   49.6500   -3.6470 C   0  0  0  0  0  0  0  0  0  0  0  0
   29.5620   50.0730   -2.3850 O   0  0  0  0  0  0  0  0  0  0  0  0
   29.2230   50.6750   -4.5850 C   0  0  0  0  0  0  0  0  0  0  0  0
   28.6410   50.3170   -5.8080 C   0  0  0  0  0  0  0  0  0  0  0  0
   29.3670   52.0200   -4.2320 C   0  0  0  0  0  0  0  0  0  0  0  0
   28.2030   51.3160   -6.6810 C   0  0  0  0  0  0  0  0  0  0  0  0
   28.9340   53.0250   -5.0960 C   0  0  0  0  0  0  0  0  0  0  0  0
   29.0770   54.4750   -4.7460 C   0  0  0  0  0  0  0  0  0  0  0  0
   28.3500   52.6670   -6.3270 C   0  0  0  0  0  0  0  0  0  0  0  0
   29.0190   55.4190   -5.7510 N   0  0  0  0  0  0  0  0  0  0  0  0
   29.2460   54.7890   -3.5740 O   0  0  0  0  0  0  0  0  0  0  0  0
   29.2130   56.8290   -5.4360 C   0  0  0  0  0  0  0  0  0  0  0  0
   27.8880   57.4970   -5.3310 C   0  0  0  0  0  0  0  0  0  0  0  0
   27.6490   58.2810   -4.2390 O   0  0  0  0  0  0  0  0  0  0  0  0
   26.8690   57.4440   -6.1650 N   0  0  0  0  0  0  0  0  0  0  0  0
   25.9460   58.2430   -5.5470 C   0  0  0  0  0  0  0  0  0  0  0  0
   26.3480   58.7800   -4.3870 N   0  0  0  0  0  0  0  0  0  0  0  0
   24.6100   58.4920   -6.1210 C   0  0  0  0  0  0  0  0  0  0  0  0
  1  2  1  0
  2  3  2  0
  2  4  1  0
  3  5  1  0
  3  6  1  0
  4  7  2  0
  6  8  1  0
  5  9  1  0
  6 10  2  0
  7 10  1  0
  9 11  1  0
  8 12  1  0
 11 13  1  0
 11 14  2  0
 12 15  1  0
 15 16  1  0
 16 17  2  3
 17 18  1  0
 17 19  1  0
 19 20  2  0
 19 21  1  0
 20 22  1  0
 21 23  2  0
 23 24  1  0
 22 25  2  0
 23 25  1  0
 24 26  1  0
 24 27  2  0
 26 28  1  0
 28 29  1  0
 29 30  1  0
 29 31  2  0
 31 32  1  0
 30 33  1  0
 32 33  2  0
 32 34  1  0
M  END
