mac-x0496-mac-x0255
     RDKit          3D

 33 36  0  0  0  0  0  0  0  0999 V2000
   24.4970   59.0170   -6.2660 C   0  0  0  0  0  0  0  0  0  0  0  0
   25.7260   58.5670   -5.5860 C   0  0  0  0  0  0  0  0  0  0  0  0
   25.9990   58.8730   -4.3110 N   0  0  0  0  0  0  0  0  0  0  0  0
   26.6770   57.8000   -6.2150 N   0  0  0  0  0  0  0  0  0  0  0  0
   27.2320   58.2530   -4.0880 O   0  0  0  0  0  0  0  0  0  0  0  0
   27.5710   57.6400   -5.2560 C   0  0  0  0  0  0  0  0  0  0  0  0
   28.8610   56.9020   -5.2750 C   0  0  0  0  0  0  0  0  0  0  0  0
   28.6130   55.4780   -5.3870 N   0  0  0  0  0  0  0  0  0  0  0  0
   29.6050   54.5630   -5.1070 C   0  0  0  0  0  0  0  0  0  0  0  0
   30.7240   54.8830   -4.7270 O   0  0  0  0  0  0  0  0  0  0  0  0
   29.2420   53.1320   -5.2930 C   0  0  0  0  0  0  0  0  0  0  0  0
   28.7350   52.6650   -6.5150 C   0  0  0  0  0  0  0  0  0  0  0  0
   29.4150   52.2470   -4.2220 C   0  0  0  0  0  0  0  0  0  0  0  0
   28.4010   51.3140   -6.6700 C   0  0  0  0  0  0  0  0  0  0  0  0
   29.0770   50.9020   -4.3920 C   0  0  0  0  0  0  0  0  0  0  0  0
   29.2500   49.9580   -3.2830 C   0  0  0  0  0  0  0  0  0  0  0  0
   28.5710   50.4290   -5.6070 C   0  0  0  0  0  0  0  0  0  0  0  0
   30.0030   48.9260   -3.2060 N   0  0  0  0  0  0  0  0  0  0  0  0
   28.4700   50.2940   -2.2340 O   0  0  0  0  0  0  0  0  0  0  0  0
   30.0190   48.1110   -1.9890 C   0  0  0  0  0  0  0  0  0  0  0  0
   29.5480   46.6940   -2.2320 C   0  0  0  0  0  0  0  0  0  0  0  0
   30.1570   45.7870   -3.1410 C   0  0  0  0  0  0  0  0  0  0  0  0
   28.4260   46.2260   -1.5110 C   0  0  0  0  0  0  0  0  0  0  0  0
   29.6760   44.4850   -3.3220 C   0  0  0  0  0  0  0  0  0  0  0  0
   31.5370   46.0560   -4.1630 S   0  0  0  0  0  0  0  0  0  0  0  0
   27.9330   44.9400   -1.6760 C   0  0  0  0  0  0  0  0  0  0  0  0
   31.4880   44.4850   -4.8210 C   0  0  0  0  0  0  0  0  0  0  0  0
   30.4490   43.7550   -4.2860 C   0  0  0  0  0  0  0  0  0  0  0  0
   28.5470   44.0700   -2.5710 C   0  0  0  0  0  0  0  0  0  0  0  0
   32.4920   44.0430   -5.8470 C   0  0  0  0  0  0  0  0  0  0  0  0
   32.7150   45.1050   -6.9040 C   0  0  0  0  0  0  0  0  0  0  0  0
   31.8660   44.9590   -7.9480 O   0  0  0  0  0  0  0  0  0  0  0  0
   33.5250   46.0170   -6.9160 O   0  0  0  0  0  0  0  0  0  0  0  0
  1  2  1  0
  2  3  2  0
  2  4  1  0
  3  5  1  0
  4  6  2  0
  5  6  1  0
  6  7  1  0
  7  8  1  0
  8  9  1  0
  9 10  2  0
  9 11  1  0
 11 12  2  0
 11 13  1  0
 12 14  1  0
 13 15  2  0
 15 16  1  0
 14 17  2  0
 15 17  1  0
 16 18  2  3
 16 19  1  0
 18 20  1  0
 20 21  1  0
 21 22  1  0
 21 23  2  0
 22 24  2  0
 22 25  1  0
 23 26  1  0
 25 27  1  0
 24 28  1  0
 27 28  2  0
 24 29  1  0
 26 29  2  0
 27 30  1  0
 30 31  1  0
 31 32  1  0
 31 33  2  0
M  END
