mac-x0354-mac-x0398
     RDKit          3D

 29 31  0  0  0  0  0  0  0  0999 V2000
   35.4410   43.5110   -1.6830 C   0  0  0  0  0  0  0  0  0  0  0  0
   34.6730   43.7370   -2.8870 N   0  0  0  0  0  0  0  0  0  0  0  0
   33.7420   42.8350   -3.2530 N   0  0  0  0  0  0  0  0  0  0  0  0
   34.7760   44.8060   -3.7490 C   0  0  0  0  0  0  0  0  0  0  0  0
   33.2400   43.3440   -4.3790 C   0  0  0  0  0  0  0  0  0  0  0  0
   33.8380   44.5730   -4.7490 C   0  0  0  0  0  0  0  0  0  0  0  0
   35.7200   45.9020   -3.5480 C   0  0  0  0  0  0  0  0  0  0  0  0
   33.5410   45.3970   -5.9070 C   0  0  0  0  0  0  0  0  0  0  0  0
   37.0990   45.6550   -3.5140 C   0  0  0  0  0  0  0  0  0  0  0  0
   35.2550   47.2120   -3.3880 C   0  0  0  0  0  0  0  0  0  0  0  0
   32.3370   45.6420   -6.2760 N   0  0  0  0  0  0  0  0  0  0  0  0
   34.6030   45.8960   -6.5750 O   0  0  0  0  0  0  0  0  0  0  0  0
   37.9960   46.7060   -3.3240 C   0  0  0  0  0  0  0  0  0  0  0  0
   36.1540   48.2610   -3.1980 C   0  0  0  0  0  0  0  0  0  0  0  0
   31.2340   45.0830   -5.4940 C   0  0  0  0  0  0  0  0  0  0  0  0
   37.5270   48.0090   -3.1660 C   0  0  0  0  0  0  0  0  0  0  0  0
   30.1700   46.1590   -5.2710 C   0  0  0  0  0  0  0  0  0  0  0  0
   30.6890   47.3290   -4.4360 C   0  0  0  0  0  0  0  0  0  0  0  0
   29.6450   48.2960   -4.2200 O   0  0  0  0  0  0  0  0  0  0  0  0
   29.9730   49.4230   -3.5310 C   0  0  0  0  0  0  0  0  0  0  0  0
   30.4650   49.4580   -2.4150 O   0  0  0  0  0  0  0  0  0  0  0  0
   29.6440   50.6500   -4.3120 C   0  0  0  0  0  0  0  0  0  0  0  0
   29.6380   51.9390   -3.7730 C   0  0  0  0  0  0  0  0  0  0  0  0
   29.3220   50.4950   -5.6720 C   0  0  0  0  0  0  0  0  0  0  0  0
   29.9330   52.2230   -2.4670 O   0  0  0  0  0  0  0  0  0  0  0  0
   29.3200   53.0480   -4.5660 C   0  0  0  0  0  0  0  0  0  0  0  0
   29.0040   51.6080   -6.4630 C   0  0  0  0  0  0  0  0  0  0  0  0
   29.0000   52.8940   -5.9160 C   0  0  0  0  0  0  0  0  0  0  0  0
   28.6800   54.0050   -6.7050 N   0  0  0  0  0  0  0  0  0  0  0  0
  1  2  1  0
  2  3  1  0
  2  4  1  0
  3  5  2  0
  4  6  2  0
  5  6  1  0
  4  7  1  0
  6  8  1  0
  7  9  2  0
  7 10  1  0
  8 11  2  3
  8 12  1  0
  9 13  1  0
 10 14  2  0
 11 15  1  0
 13 16  2  0
 14 16  1  0
 15 17  1  0
 17 18  1  0
 18 19  1  0
 19 20  1  0
 20 21  2  0
 20 22  1  0
 22 23  2  0
 22 24  1  0
 23 25  1  0
 23 26  1  0
 24 27  2  0
 26 28  2  0
 27 28  1  0
 28 29  1  0
M  END
