mac-x0116-mac-x0283
     RDKit          3D

 19 22  0  0  0  0  0  0  0  0999 V2000
   28.9090   52.1510   -7.2870 N   0  0  0  0  0  0  0  0  0  0  0  0
   29.1920   51.0910   -6.4170 C   0  0  0  0  0  0  0  0  0  0  0  0
   29.4740   51.3960   -4.9490 C   0  0  2  0  0  0  0  0  0  0  0  0
   29.2340   49.8140   -6.8330 C   0  0  0  0  0  0  0  0  0  0  0  0
   29.6520   50.1000   -4.1290 C   0  0  0  0  0  0  0  0  0  0  0  0
   29.5160   48.7060   -5.9310 C   0  0  0  0  0  0  0  0  0  0  0  0
   29.0490   49.2790   -8.0820 N   0  0  0  0  0  0  0  0  0  0  0  0
   28.5080   52.3080   -4.4080 O   0  0  0  0  0  0  0  0  0  0  0  0
   30.7080   52.2240   -4.7740 C   0  0  0  0  0  0  0  0  0  0  0  0
   29.6850   48.8760   -4.5950 N   0  0  0  0  0  0  0  0  0  0  0  0
   29.5600   47.5930   -6.6000 N   0  0  0  0  0  0  0  0  0  0  0  0
   29.2680   48.0050   -7.8930 C   0  0  0  0  0  0  0  0  0  0  0  0
   30.2710   53.6440   -5.0650 C   0  0  2  0  0  0  0  0  0  0  0  0
   28.8070   53.6170   -5.0290 N   0  0  0  0  0  0  0  0  0  0  0  0
   30.9440   54.0580   -6.3220 C   0  0  0  0  0  0  0  0  0  0  0  0
   32.2410   53.6490   -6.3470 O   0  0  0  0  0  0  0  0  0  0  0  0
   30.6500   54.7400   -7.4860 C   0  0  0  0  0  0  0  0  0  0  0  0
   31.8450   54.7420   -8.2480 C   0  0  0  0  0  0  0  0  0  0  0  0
   32.7800   54.0630   -7.5060 C   0  0  0  0  0  0  0  0  0  0  0  0
  1  2  1  0
  2  3  1  0
  2  4  2  0
  3  5  1  1
  4  6  1  0
  4  7  1  0
  3  8  1  0
  3  9  1  0
  5 10  2  0
  6 10  1  0
  6 11  2  0
  7 12  2  0
 11 12  1  0
  9 13  1  0
  8 14  1  0
 13 14  1  0
 13 15  1  6
 15 16  1  0
 15 17  2  0
 17 18  1  0
 16 19  1  0
 18 19  2  0
M  END
