mac-x0451-mac-x0402
     RDKit          3D

 11 12  0  0  0  0  0  0  0  0999 V2000
   28.7270   54.0220   -8.0060 N   0  0  0  0  0  0  0  0  0  0  0  0
   29.0190   52.8670   -7.3820 C   0  0  0  0  0  0  0  0  0  0  0  0
   29.3370   52.8030   -6.1140 N   0  0  0  0  0  0  0  0  0  0  0  0
   28.9940   51.3710   -8.2170 S   0  0  0  0  0  0  0  0  0  0  0  0
   29.5850   51.4900   -5.7500 C   0  0  0  0  0  0  0  0  0  0  0  0
   29.4440   50.5500   -6.7730 C   0  0  0  0  0  0  0  0  0  0  0  0
   29.9520   51.0440   -4.4620 C   0  0  0  0  0  0  0  0  0  0  0  0
   29.6620   49.1800   -6.5610 C   0  0  0  0  0  0  0  0  0  0  0  0
   30.1710   49.6810   -4.2360 C   0  0  0  0  0  0  0  0  0  0  0  0
   30.0230   48.7740   -5.2770 C   0  0  0  0  0  0  0  0  0  0  0  0
   30.2360   47.4720   -5.0420 F   0  0  0  0  0  0  0  0  0  0  0  0
  1  2  1  0
  2  3  2  0
  2  4  1  0
  3  5  1  0
  4  6  1  0
  5  6  2  0
  5  7  1  0
  6  8  1  0
  7  9  2  0
  8 10  2  0
  9 10  1  0
 10 11  1  0
M  END
