mac-x0564-mac-x0439
     RDKit          3D

 26 30  0  0  0  0  0  0  0  0999 V2000
   30.7720   46.1260   -6.6770 N   0  0  0  0  0  0  0  0  0  0  0  0
   30.0400   45.1590   -6.2460 C   0  0  0  0  0  0  0  0  0  0  0  0
   29.5110   44.3490   -7.1840 O   0  0  0  0  0  0  0  0  0  0  0  0
   31.3460   46.9880   -5.7490 C   0  0  0  0  0  0  0  0  0  0  0  0
   30.7420   48.1640   -5.3380 C   0  0  0  0  0  0  0  0  0  0  0  0
   32.5460   46.6590   -5.2300 N   0  0  0  0  0  0  0  0  0  0  0  0
   29.6250   44.7070   -4.8870 C   0  0  0  0  0  0  0  0  0  0  0  0
   31.3750   48.9700   -4.4070 C   0  0  0  0  0  0  0  0  0  0  0  0
   33.0840   47.5030   -4.3320 C   0  0  0  0  0  0  0  0  0  0  0  0
   29.5480   48.7040   -5.7160 O   0  0  0  0  0  0  0  0  0  0  0  0
   30.3360   44.9530   -3.7740 C   0  0  0  0  0  0  0  0  0  0  0  0
   28.4630   44.0000   -4.6660 N   0  0  0  0  0  0  0  0  0  0  0  0
   32.5800   48.6610   -3.8680 N   0  0  0  0  0  0  0  0  0  0  0  0
   29.4170   49.8690   -5.0180 C   0  0  0  0  0  0  0  0  0  0  0  0
   30.5170   50.0820   -4.1950 C   0  0  0  0  0  0  0  0  0  0  0  0
   29.6420   44.3520   -2.5990 C   0  0  2  0  0  0  0  0  0  0  0  0
   28.4580   43.8090   -3.3840 C   0  0  0  0  0  0  0  0  0  0  0  0
   30.5500   51.2410   -3.3980 C   0  0  0  0  0  0  0  0  0  0  0  0
   28.3320   50.7410   -5.1080 C   0  0  0  0  0  0  0  0  0  0  0  0
   29.0550   45.1870   -1.5020 C   0  0  0  0  0  0  0  0  0  0  0  0
   27.4020   43.1200   -2.6290 C   0  0  0  0  0  0  0  0  0  0  0  0
   29.9210   46.5700   -0.9420 Cl  0  0  0  0  0  0  0  0  0  0  0  0
   29.4700   52.1360   -3.4660 C   0  0  0  0  0  0  0  0  0  0  0  0
   28.3830   51.8880   -4.3070 C   0  0  0  0  0  0  0  0  0  0  0  0
   27.8690   44.8500   -0.9610 C   0  0  0  0  0  0  0  0  0  0  0  0
   27.1430   43.6750   -1.4340 C   0  0  0  0  0  0  0  0  0  0  0  0
  1  2  2  3
  2  3  1  0
  1  4  1  0
  4  5  1  0
  4  6  2  0
  2  7  1  0
  5  8  2  0
  6  9  1  0
  5 10  1  0
  7 11  2  0
  7 12  1  0
  8 13  1  0
  9 13  2  0
 10 14  1  0
  8 15  1  0
 14 15  2  0
 16 11  1  6
 12 17  2  0
 16 17  1  0
 15 18  1  0
 14 19  1  0
 16 20  1  0
 17 21  1  0
 20 22  1  0
 18 23  2  0
 19 24  2  0
 23 24  1  0
 20 25  2  0
 21 26  2  0
 25 26  1  0
M  END
