mac-x0142-mac-x0204
     RDKit          3D

 21 24  0  0  0  0  0  0  0  0999 V2000
   31.6110   45.1600   -7.4550 O   0  0  0  0  0  0  0  0  0  0  0  0
   30.7740   45.0490   -6.3820 C   0  0  0  0  0  0  0  0  0  0  0  0
   29.8160   44.2880   -6.3970 O   0  0  0  0  0  0  0  0  0  0  0  0
   31.2070   45.9660   -5.2340 C   0  0  2  0  0  0  0  0  0  0  0  0
   32.0390   45.4520   -4.0480 C   0  0  0  0  0  0  0  0  0  0  0  0
   30.1270   46.9470   -4.7710 N   0  0  0  0  0  0  0  0  0  0  0  0
   31.6780   44.1970   -3.2770 C   0  0  0  0  0  0  0  0  0  0  0  0
   32.8760   44.1900   -4.1770 C   0  0  0  0  0  0  0  0  0  0  0  0
   32.7300   46.5820   -3.2930 C   0  0  0  0  0  0  0  0  0  0  0  0
   30.3540   47.2590   -3.3210 C   0  0  1  0  0  0  0  0  0  0  0  0
   29.4740   47.9390   -5.5840 C   0  0  0  0  0  0  0  0  0  0  0  0
   30.0840   46.1460   -2.4760 O   0  0  0  0  0  0  0  0  0  0  0  0
   31.7830   47.7570   -3.1240 C   0  0  0  0  0  0  0  0  0  0  0  0
   28.7240   47.4910   -6.6670 N   0  0  0  0  0  0  0  0  0  0  0  0
   29.4610   49.2940   -5.4690 C   0  0  0  0  0  0  0  0  0  0  0  0
   28.0400   48.2840   -7.5310 C   0  0  0  0  0  0  0  0  0  0  0  0
   28.6860   50.1190   -6.4630 C   0  0  0  0  0  0  0  0  0  0  0  0
   29.9950   50.3240   -4.6230 C   0  0  0  0  0  0  0  0  0  0  0  0
   27.9800   49.5700   -7.4880 N   0  0  0  0  0  0  0  0  0  0  0  0
   28.7560   51.4030   -6.2390 N   0  0  0  0  0  0  0  0  0  0  0  0
   29.5580   51.4930   -5.1170 C   0  0  0  0  0  0  0  0  0  0  0  0
  1  2  1  0
  2  3  2  0
  4  2  1  1
  4  5  1  0
  4  6  1  0
  5  7  1  0
  5  8  1  0
  7  8  1  0
  5  9  1  0
  6 10  1  0
  6 11  1  0
 10 12  1  1
  9 13  1  0
 10 13  1  0
 11 14  1  0
 11 15  2  0
 14 16  1  0
 15 17  1  0
 15 18  1  0
 16 19  2  0
 17 19  1  0
 17 20  2  0
 18 21  2  0
 20 21  1  0
M  END
