mac-x0373-mac-x0263
     RDKit          3D

 29 32  0  0  0  0  0  0  0  0999 V2000
   30.9400   45.9250   -6.5740 O   0  0  0  0  0  0  0  0  0  0  0  0
   30.3690   46.5930   -5.5490 C   0  0  0  0  0  0  0  0  0  0  0  0
   29.3650   46.1540   -5.0200 O   0  0  0  0  0  0  0  0  0  0  0  0
   31.1490   47.8640   -5.2580 C   0  0  2  0  0  0  0  0  0  0  0  0
   32.4230   47.6950   -4.4670 C   0  0  0  0  0  0  0  0  0  0  0  0
   30.4300   49.1430   -4.7770 C   0  0  2  0  0  0  0  0  0  0  0  0
   32.7620   46.5470   -3.7480 C   0  0  0  0  0  0  0  0  0  0  0  0
   33.3010   48.7860   -4.4810 C   0  0  0  0  0  0  0  0  0  0  0  0
   29.0870   49.0750   -4.0830 C   0  0  0  0  0  0  0  0  0  0  0  0
   30.4140   50.0950   -5.9370 C   0  0  0  0  0  0  0  0  0  0  0  0
   33.9760   46.5030   -3.0540 C   0  0  0  0  0  0  0  0  0  0  0  0
   34.5010   48.7400   -3.7940 C   0  0  0  0  0  0  0  0  0  0  0  0
   28.1580   50.0340   -4.2490 C   0  0  0  0  0  0  0  0  0  0  0  0
   29.5050   51.0300   -6.1000 C   0  0  0  0  0  0  0  0  0  0  0  0
   34.8400   47.6000   -3.0800 C   0  0  0  0  0  0  0  0  0  0  0  0
   28.3580   51.2460   -5.1500 C   0  0  2  0  0  0  0  0  0  0  0  0
   28.6070   52.5650   -4.3000 C   0  0  0  0  0  0  0  0  0  0  0  0
   27.2310   51.3520   -6.1570 C   0  0  0  0  0  0  0  0  0  0  0  0
   28.3480   53.7280   -5.1770 C   0  0  0  0  0  0  0  0  0  0  0  0
   26.8890   52.5300   -6.6940 C   0  0  0  0  0  0  0  0  0  0  0  0
   28.8020   55.0120   -5.0870 N   0  0  0  0  0  0  0  0  0  0  0  0
   27.5610   53.7090   -6.2920 C   0  0  0  0  0  0  0  0  0  0  0  0
   28.2580   55.6960   -6.1620 C   0  0  0  0  0  0  0  0  0  0  0  0
   27.5090   54.9080   -6.9080 N   0  0  0  0  0  0  0  0  0  0  0  0
   28.5050   57.1450   -6.4010 C   0  0  0  0  0  0  0  0  0  0  0  0
   27.4350   57.9620   -5.6780 C   0  0  0  0  0  0  0  0  0  0  0  0
   27.0450   59.2290   -6.3840 C   0  0  0  0  0  0  0  0  0  0  0  0
   28.0980   60.0420   -6.5900 O   0  0  0  0  0  0  0  0  0  0  0  0
   25.9240   59.5570   -6.7500 O   0  0  0  0  0  0  0  0  0  0  0  0
  1  2  1  0
  2  3  2  0
  4  2  1  1
  4  5  1  0
  4  6  1  0
  5  7  2  0
  5  8  1  0
  6  9  1  6
  6 10  1  0
  7 11  1  0
  8 12  2  0
  9 13  2  0
 10 14  2  0
 11 15  2  0
 12 15  1  0
 16 13  1  1
 14 16  1  0
 16 17  1  0
 16 18  1  0
 17 19  1  0
 18 20  2  0
 19 21  1  0
 19 22  2  0
 20 22  1  0
 21 23  1  0
 22 24  1  0
 23 24  2  0
 23 25  1  0
 25 26  1  0
 26 27  1  0
 27 28  1  0
 27 29  2  0
M  END
