mac-x0357-mac-x0572
     RDKit          3D

 26 28  0  0  0  0  0  0  0  0999 V2000
   32.1420   43.5000   -4.8220 C   0  0  0  0  0  0  0  0  0  0  0  0
   33.1530   44.5320   -4.3880 C   0  0  0  0  0  0  0  0  0  0  0  0
   34.3080   44.1380   -3.6920 C   0  0  0  0  0  0  0  0  0  0  0  0
   32.9760   45.9060   -4.6620 C   0  0  0  0  0  0  0  0  0  0  0  0
   34.5000   42.8130   -3.4150 O   0  0  0  0  0  0  0  0  0  0  0  0
   31.7930   46.4240   -5.3880 C   0  0  0  0  0  0  0  0  0  0  0  0
   33.9430   46.8390   -4.2380 C   0  0  0  0  0  0  0  0  0  0  0  0
   35.2640   45.0680   -3.2740 C   0  0  0  0  0  0  0  0  0  0  0  0
   30.9710   47.2760   -4.9020 N   0  0  0  0  0  0  0  0  0  0  0  0
   31.7010   45.8830   -6.6190 O   0  0  0  0  0  0  0  0  0  0  0  0
   35.0810   46.4220   -3.5480 C   0  0  0  0  0  0  0  0  0  0  0  0
   29.8110   47.7790   -5.6270 C   0  0  0  0  0  0  0  0  0  0  0  0
   28.8720   48.5650   -4.6990 C   0  0  0  0  0  0  0  0  0  0  0  0
   28.5830   49.9780   -5.1570 C   0  0  0  0  0  0  0  0  0  0  0  0
   28.0230   50.1640   -6.4870 C   0  0  0  0  0  0  0  0  0  0  0  0
   28.8240   51.0530   -4.3840 C   0  0  0  0  0  0  0  0  0  0  0  0
   28.5320   52.4590   -4.8400 C   0  0  1  0  0  0  0  0  0  0  0  0
   27.9420   51.3600   -7.0870 C   0  0  0  0  0  0  0  0  0  0  0  0
   29.5080   53.4810   -4.3060 C   0  0  0  0  0  0  0  0  0  0  0  0
   28.4440   52.5480   -6.3570 C   0  0  0  0  0  0  0  0  0  0  0  0
   30.1970   53.3470   -3.2910 O   0  0  0  0  0  0  0  0  0  0  0  0
   29.6250   54.7410   -5.0810 C   0  0  0  0  0  0  0  0  0  0  0  0
   28.7880   53.6030   -7.0390 N   0  0  0  0  0  0  0  0  0  0  0  0
   30.0970   55.8630   -4.4270 O   0  0  0  0  0  0  0  0  0  0  0  0
   29.2610   54.7150   -6.3760 C   0  0  0  0  0  0  0  0  0  0  0  0
   29.3450   55.9490   -7.2390 C   0  0  0  0  0  0  0  0  0  0  0  0
  1  2  1  0
  2  3  2  0
  2  4  1  0
  3  5  1  0
  4  6  1  0
  4  7  2  0
  3  8  1  0
  6  9  2  3
  6 10  1  0
  7 11  1  0
  8 11  2  0
  9 12  1  0
 12 13  1  0
 13 14  1  0
 14 15  1  0
 14 16  2  0
 17 16  1  6
 15 18  2  0
 17 19  1  0
 17 20  1  0
 18 20  1  0
 19 21  2  0
 19 22  1  0
 20 23  2  0
 22 24  1  0
 22 25  2  0
 23 25  1  0
 25 26  1  0
M  END
