mac-x0412-mac-x0348
     RDKit          3D

 28 31  0  0  0  0  0  0  0  0999 V2000
   29.2600   54.5320   -3.7320 O   0  0  0  0  0  0  0  0  0  0  0  0
   29.1700   53.8920   -4.7760 C   0  0  0  0  0  0  0  0  0  0  0  0
   28.4670   54.4030   -5.8610 N   0  0  0  0  0  0  0  0  0  0  0  0
   29.8530   52.5070   -4.9110 C   0  0  2  0  0  0  0  0  0  0  0  0
   29.2940   51.6870   -6.0610 C   0  0  0  0  0  0  0  0  0  0  0  0
   28.1640   53.6290   -6.8510 C   0  0  0  0  0  0  0  0  0  0  0  0
   29.8740   51.7020   -3.6330 C   0  0  0  0  0  0  0  0  0  0  0  0
   28.4860   52.2010   -6.9940 C   0  0  0  0  0  0  0  0  0  0  0  0
   29.7340   50.3100   -6.0810 C   0  0  0  0  0  0  0  0  0  0  0  0
   29.9850   50.3710   -3.6700 C   0  0  0  0  0  0  0  0  0  0  0  0
   30.0860   49.6810   -4.9500 C   0  0  0  0  0  0  0  0  0  0  0  0
   30.6190   48.2830   -4.9040 C   0  0  0  0  0  0  0  0  0  0  0  0
   29.7080   47.1050   -5.2050 C   0  0  0  0  0  0  0  0  0  0  0  0
   30.1790   45.8340   -4.4840 C   0  0  1  0  0  0  0  0  0  0  0  0
   31.7120   45.6990   -4.4930 C   0  0  0  0  0  0  0  0  0  0  0  0
   29.5640   45.8460   -3.1020 C   0  0  0  0  0  0  0  0  0  0  0  0
   32.2580   46.0280   -5.8630 C   0  0  0  0  0  0  0  0  0  0  0  0
   28.6700   44.8940   -2.6690 C   0  0  0  0  0  0  0  0  0  0  0  0
   29.7450   46.7750   -2.0120 C   0  0  0  0  0  0  0  0  0  0  0  0
   31.6710   45.9150   -6.9270 O   0  0  0  0  0  0  0  0  0  0  0  0
   33.5240   46.4880   -5.8330 O   0  0  0  0  0  0  0  0  0  0  0  0
   28.2960   45.1910   -1.3960 N   0  0  0  0  0  0  0  0  0  0  0  0
   28.9330   46.3350   -0.9590 C   0  0  0  0  0  0  0  0  0  0  0  0
   30.5120   47.9470   -1.8130 C   0  0  0  0  0  0  0  0  0  0  0  0
   27.3620   44.4040   -0.6290 C   0  0  0  0  0  0  0  0  0  0  0  0
   30.4470   48.6340   -0.5940 C   0  0  0  0  0  0  0  0  0  0  0  0
   28.8600   47.0170    0.2680 C   0  0  0  0  0  0  0  0  0  0  0  0
   29.6300   48.1720    0.4320 C   0  0  0  0  0  0  0  0  0  0  0  0
  1  2  2  0
  2  3  1  0
  2  4  1  0
  4  5  1  0
  3  6  2  0
  4  7  1  1
  5  8  2  0
  6  8  1  0
  5  9  1  0
  7 10  2  0
  9 11  2  0
 10 11  1  0
 11 12  1  0
 12 13  1  0
 14 13  1  1
 14 15  1  0
 14 16  1  0
 15 17  1  0
 16 18  2  0
 16 19  1  0
 17 20  2  0
 17 21  1  0
 18 22  1  0
 19 23  2  0
 22 23  1  0
 19 24  1  0
 22 25  1  0
 24 26  2  0
 23 27  1  0
 26 28  1  0
 27 28  2  0
M  END
