mac-x0555-mac-x0319
     RDKit          3D

 24 26  0  0  0  0  0  0  0  0999 V2000
   29.1570   55.3490   -7.2280 N   0  0  0  0  0  0  0  0  0  0  0  0
   29.3420   54.5500   -6.0960 C   0  0  0  0  0  0  0  0  0  0  0  0
   29.7970   55.0600   -4.8850 C   0  0  0  0  0  0  0  0  0  0  0  0
   29.0740   53.1850   -6.1310 C   0  0  0  0  0  0  0  0  0  0  0  0
   29.2610   52.3910   -4.9880 C   0  0  0  0  0  0  0  0  0  0  0  0
   29.9930   54.3330   -3.7590 N   0  0  0  0  0  0  0  0  0  0  0  0
   29.7270   53.0170   -3.8140 C   0  0  0  0  0  0  0  0  0  0  0  0
   28.9960   51.0110   -4.9980 C   0  0  0  0  0  0  0  0  0  0  0  0
   29.9130   52.2320   -2.6830 C   0  0  0  0  0  0  0  0  0  0  0  0
   29.1880   50.2360   -3.8480 C   0  0  0  0  0  0  0  0  0  0  0  0
   28.8980   48.7540   -3.8680 C   0  0  0  0  0  0  0  0  0  0  0  0
   29.6510   50.8590   -2.6880 C   0  0  0  0  0  0  0  0  0  0  0  0
   29.6580   47.9750   -2.7880 C   0  0  0  0  0  0  0  0  0  0  0  0
   30.0660   46.5880   -3.2280 C   0  0  0  0  0  0  0  0  0  0  0  0
   29.2350   45.4880   -2.9700 C   0  0  0  0  0  0  0  0  0  0  0  0
   31.2830   46.3850   -3.9000 C   0  0  0  0  0  0  0  0  0  0  0  0
   31.6730   45.1010   -4.3160 C   0  0  0  0  0  0  0  0  0  0  0  0
   29.6230   44.2180   -3.3810 C   0  0  0  0  0  0  0  0  0  0  0  0
   32.9840   44.8900   -5.0380 C   0  0  0  0  0  0  0  0  0  0  0  0
   28.8370   43.1260   -3.1470 O   0  0  0  0  0  0  0  0  0  0  0  0
   30.8260   44.0150   -4.0470 C   0  0  0  0  0  0  0  0  0  0  0  0
   33.0580   45.5380   -6.4010 C   0  0  0  0  0  0  0  0  0  0  0  0
   33.9260   46.5750   -6.4160 O   0  0  0  0  0  0  0  0  0  0  0  0
   32.4560   45.2410   -7.4190 O   0  0  0  0  0  0  0  0  0  0  0  0
  1  2  1  0
  2  3  2  0
  2  4  1  0
  4  5  2  0
  3  6  1  0
  5  7  1  0
  6  7  2  0
  5  8  1  0
  7  9  1  0
  8 10  2  0
 10 11  1  0
  9 12  2  0
 10 12  1  0
 11 13  1  0
 13 14  1  0
 14 15  2  0
 14 16  1  0
 16 17  2  0
 15 18  1  0
 17 19  1  0
 18 20  1  0
 17 21  1  0
 18 21  2  0
 19 22  1  0
 22 23  1  0
 22 24  2  0
M  END
