mac-x0436-mac-x0213
     RDKit          3D

 25 28  0  0  0  0  0  0  0  0999 V2000
   32.0100   46.8160   -6.3490 O   0  0  0  0  0  0  0  0  0  0  0  0
   31.7500   45.5110   -5.8330 C   0  0  0  0  0  0  0  0  0  0  0  0
   30.9620   44.8530   -6.8020 O   0  0  0  0  0  0  0  0  0  0  0  0
   33.0960   44.8020   -5.6310 C   0  0  0  0  0  0  0  0  0  0  0  0
   30.9660   45.6690   -4.5160 C   0  0  0  0  0  0  0  0  0  0  0  0
   33.5920   44.5610   -4.2060 C   0  0  0  0  0  0  0  0  0  0  0  0
   30.4890   47.1120   -4.2020 C   0  0  0  0  0  0  0  0  0  0  0  0
   29.6820   44.8350   -4.3570 C   0  0  0  0  0  0  0  0  0  0  0  0
   34.6770   45.4590   -3.6510 C   0  0  0  0  0  0  0  0  0  0  0  0
   29.5670   46.8170   -3.0600 C   0  0  0  0  0  0  0  0  0  0  0  0
   29.1000   45.5020   -3.1500 C   0  0  0  0  0  0  0  0  0  0  0  0
   34.4430   46.9750   -3.5540 C   0  0  0  0  0  0  0  0  0  0  0  0
   35.7910   44.9030   -3.2760 N   0  0  0  0  0  0  0  0  0  0  0  0
   29.1730   47.6440   -2.0220 C   0  0  0  0  0  0  0  0  0  0  0  0
   28.2290   44.9810   -2.2120 C   0  0  0  0  0  0  0  0  0  0  0  0
   33.3310   47.4630   -3.6710 O   0  0  0  0  0  0  0  0  0  0  0  0
   35.5690   47.7210   -3.3250 N   0  0  0  0  0  0  0  0  0  0  0  0
   36.8070   45.7290   -2.7750 C   0  0  0  0  0  0  0  0  0  0  0  0
   28.2930   47.1280   -1.0680 C   0  0  0  0  0  0  0  0  0  0  0  0
   27.8240   45.8080   -1.1600 C   0  0  0  0  0  0  0  0  0  0  0  0
   36.7150   47.1300   -2.7930 C   0  0  0  0  0  0  0  0  0  0  0  0
   37.9520   45.1360   -2.2440 C   0  0  0  0  0  0  0  0  0  0  0  0
   38.9870   45.9260   -1.7400 C   0  0  0  0  0  0  0  0  0  0  0  0
   37.7440   47.9260   -2.2920 C   0  0  0  0  0  0  0  0  0  0  0  0
   38.8840   47.3150   -1.7640 C   0  0  0  0  0  0  0  0  0  0  0  0
  2  1  1  0
  2  3  1  0
  2  4  1  0
  2  5  1  0
  4  6  1  0
  5  7  1  0
  5  8  1  0
  6  9  1  0
  7 10  1  0
  8 11  1  0
 10 11  2  0
  9 12  1  0
  9 13  2  0
 10 14  1  0
 11 15  1  0
 12 16  2  0
 12 17  1  0
 13 18  1  0
 14 19  2  0
 15 20  2  0
 19 20  1  0
 17 21  1  0
 18 21  2  0
 18 22  1  0
 22 23  2  0
 21 24  1  0
 23 25  1  0
 24 25  2  0
M  END
