mac-x0333-mac-x0131
     RDKit          3D

 26 30  0  0  0  0  0  0  0  0999 V2000
   28.1570   50.7160   -7.4140 C   0  0  0  0  0  0  0  0  0  0  0  0
   28.5820   49.5130   -6.6430 C   0  0  0  0  0  0  0  0  0  0  0  0
   29.4470   49.4930   -5.5550 C   0  0  0  0  0  0  0  0  0  0  0  0
   28.1780   48.1600   -6.8870 C   0  0  0  0  0  0  0  0  0  0  0  0
   30.1330   50.6120   -4.9170 C   0  0  0  0  0  0  0  0  0  0  0  0
   28.8090   47.3690   -5.9410 C   0  0  0  0  0  0  0  0  0  0  0  0
   29.5750   48.1810   -5.1410 N   0  0  0  0  0  0  0  0  0  0  0  0
   27.3470   47.5000   -7.8040 C   0  0  0  0  0  0  0  0  0  0  0  0
   26.6410   48.1340   -8.8180 N   0  0  0  0  0  0  0  0  0  0  0  0
   30.3940   47.7080   -4.0310 C   0  0  0  0  0  0  0  0  0  0  0  0
   29.4700   51.3660   -3.9410 C   0  0  0  0  0  0  0  0  0  0  0  0
   31.4580   50.9320   -5.2810 C   0  0  0  0  0  0  0  0  0  0  0  0
   27.2060   46.1650   -7.7240 N   0  0  0  0  0  0  0  0  0  0  0  0
   28.6950   46.0340   -5.8240 N   0  0  0  0  0  0  0  0  0  0  0  0
   30.1520   52.4120   -3.3670 C   0  0  0  0  0  0  0  0  0  0  0  0
   32.1250   52.0030   -4.6820 C   0  0  0  0  0  0  0  0  0  0  0  0
   27.8760   45.5150   -6.7540 C   0  0  0  0  0  0  0  0  0  0  0  0
   31.8380   47.7980   -4.3680 C   0  0  0  0  0  0  0  0  0  0  0  0
   31.4430   52.7240   -3.7260 C   0  0  0  0  0  0  0  0  0  0  0  0
   29.6690   53.2450   -2.4100 O   0  0  0  0  0  0  0  0  0  0  0  0
   32.5410   47.7090   -5.5550 C   0  0  0  0  0  0  0  0  0  0  0  0
   32.7000   48.0110   -3.3280 O   0  0  0  0  0  0  0  0  0  0  0  0
   31.9290   53.7920   -3.0420 O   0  0  0  0  0  0  0  0  0  0  0  0
   30.7380   54.2120   -2.3440 C   0  0  0  0  0  0  0  0  0  0  0  0
   33.9480   48.0540   -3.8570 C   0  0  0  0  0  0  0  0  0  0  0  0
   33.9060   47.8740   -5.2240 C   0  0  0  0  0  0  0  0  0  0  0  0
  1  2  1  0
  2  3  2  0
  2  4  1  0
  3  5  1  0
  4  6  2  0
  3  7  1  0
  6  7  1  0
  4  8  1  0
  8  9  1  0
  7 10  1  0
  5 11  2  0
  5 12  1  0
  8 13  2  0
  6 14  1  0
 11 15  1  0
 12 16  2  0
 13 17  1  0
 14 17  2  0
 10 18  1  0
 15 19  2  0
 16 19  1  0
 15 20  1  0
 18 21  2  0
 18 22  1  0
 19 23  1  0
 20 24  1  0
 23 24  1  0
 22 25  1  0
 21 26  1  0
 25 26  2  0
M  END
