mac-x0204-mac-x0392
     RDKit          3D

 18 19  0  0  0  0  0  0  0  0999 V2000
   31.4780   45.2730   -5.6350 O   0  0  0  0  0  0  0  0  0  0  0  0
   31.1940   46.6220   -5.3130 C   0  0  1  0  0  0  0  0  0  0  0  0
   29.7480   47.0540   -5.3430 C   0  0  0  0  0  0  0  0  0  0  0  0
   31.6240   46.9910   -3.9320 C   0  0  0  0  0  0  0  0  0  0  0  0
   28.8550   46.4070   -4.8300 O   0  0  0  0  0  0  0  0  0  0  0  0
   30.7090   46.9380   -2.8670 C   0  0  0  0  0  0  0  0  0  0  0  0
   32.9100   47.4090   -3.6610 C   0  0  0  0  0  0  0  0  0  0  0  0
   29.4500   48.3730   -5.9570 C   0  0  0  0  0  0  0  0  0  0  0  0
   31.1200   47.3050   -1.6010 C   0  0  0  0  0  0  0  0  0  0  0  0
   33.3410   47.7710   -2.4320 N   0  0  0  0  0  0  0  0  0  0  0  0
   29.2560   48.4600   -7.3340 C   0  0  0  0  0  0  0  0  0  0  0  0
   29.3710   49.5170   -5.1490 C   0  0  0  0  0  0  0  0  0  0  0  0
   30.2110   47.2480   -0.5860 O   0  0  0  0  0  0  0  0  0  0  0  0
   29.3280   47.3400   -8.1830 N   0  0  0  0  0  0  0  0  0  0  0  0
   32.4310   47.7120   -1.4290 C   0  0  0  0  0  0  0  0  0  0  0  0
   29.0940   50.7240   -5.7630 C   0  0  0  0  0  0  0  0  0  0  0  0
   28.9840   49.7300   -7.8360 C   0  0  0  0  0  0  0  0  0  0  0  0
   28.8980   50.8580   -7.0880 N   0  0  0  0  0  0  0  0  0  0  0  0
  2  1  1  1
  2  3  1  0
  2  4  1  0
  3  5  2  0
  4  6  2  0
  4  7  1  0
  3  8  1  0
  6  9  1  0
  7 10  2  0
  8 11  2  0
  8 12  1  0
  9 13  1  0
 11 14  1  0
  9 15  2  0
 10 15  1  0
 12 16  2  0
 11 17  1  0
 16 18  1  0
 17 18  2  0
M  END
