mac-x0396-mac-x0333
     RDKit          3D

 12 13  0  0  0  0  0  0  0  0999 V2000
   27.8890   50.3980   -6.9500 N   0  0  0  0  0  0  0  0  0  0  0  0
   27.8360   51.2730   -5.7800 C   0  0  0  0  0  0  0  0  0  0  0  0
   29.1630   51.9840   -5.4130 C   0  0  2  0  0  0  0  0  0  0  0  0
   29.4170   52.0900   -3.8720 C   0  0  2  0  0  0  0  0  0  0  0  0
   29.1680   53.3810   -6.1370 C   0  0  0  0  0  0  0  0  0  0  0  0
   30.2190   51.0680   -6.0360 C   0  0  0  0  0  0  0  0  0  0  0  0
   30.1870   53.2840   -3.5100 N   0  0  0  0  0  0  0  0  0  0  0  0
   29.3050   54.5940   -5.2520 C   0  0  0  0  0  0  0  0  0  0  0  0
   29.9430   50.7970   -3.2090 C   0  0  0  0  0  0  0  0  0  0  0  0
   30.0700   49.7120   -5.4420 C   0  0  0  0  0  0  0  0  0  0  0  0
   29.7970   54.4880   -4.0200 C   0  0  0  0  0  0  0  0  0  0  0  0
   29.9360   49.5870   -4.1210 C   0  0  0  0  0  0  0  0  0  0  0  0
  1  2  1  0
  3  2  1  1
  3  4  1  0
  3  5  1  0
  3  6  1  0
  4  7  1  0
  5  8  1  0
  4  9  1  6
  6 10  1  0
  7 11  1  0
  8 11  2  0
  9 12  1  0
 10 12  2  0
M  END
