mac-x0115-mac-x0417
     RDKit          3D

 29 32  0  0  0  0  0  0  0  0999 V2000
   28.0670   45.7300   -1.9640 C   0  0  0  0  0  0  0  0  0  0  0  0
   28.8880   44.4920   -2.3280 C   0  0  0  0  0  0  0  0  0  0  0  0
   28.0650   43.5260   -3.1730 C   0  0  0  0  0  0  0  0  0  0  0  0
   30.0660   44.9680   -2.9930 O   0  0  0  0  0  0  0  0  0  0  0  0
   30.3380   44.4800   -4.3200 C   0  0  0  0  0  0  0  0  0  0  0  0
   31.2210   45.5450   -5.0240 C   0  0  1  0  0  0  0  0  0  0  0  0
   32.7160   45.2170   -4.8970 C   0  0  0  0  0  0  0  0  0  0  0  0
   30.6690   46.1440   -6.2700 N   0  0  0  0  0  0  0  0  0  0  0  0
   33.5340   45.2240   -5.8410 O   0  0  0  0  0  0  0  0  0  0  0  0
   33.0760   44.9060   -3.4730 C   0  0  0  0  0  0  0  0  0  0  0  0
   30.1270   45.3970   -7.3430 C   0  0  0  0  0  0  0  0  0  0  0  0
   30.1670   47.4150   -6.1120 C   0  0  0  0  0  0  0  0  0  0  0  0
   30.3220   43.7640   -7.6720 S   0  0  0  0  0  0  0  0  0  0  0  0
   29.3380   46.1170   -8.2330 N   0  0  0  0  0  0  0  0  0  0  0  0
   29.9770   48.2730   -7.2980 C   0  0  1  0  0  0  0  0  0  0  0  0
   29.8100   48.0300   -4.9820 C   0  0  0  0  0  0  0  0  0  0  0  0
   34.4860   44.7880   -3.0740 C   0  0  0  0  0  0  0  0  0  0  0  0
   29.1550   47.4900   -8.3030 C   0  0  0  0  0  0  0  0  0  0  0  0
   29.3820   49.5220   -6.7610 N   0  0  0  0  0  0  0  0  0  0  0  0
   29.3440   49.3150   -5.4790 C   0  0  0  0  0  0  0  0  0  0  0  0
   35.0120   43.5890   -2.8090 N   0  0  0  0  0  0  0  0  0  0  0  0
   35.4350   45.8320   -2.8990 C   0  0  0  0  0  0  0  0  0  0  0  0
   28.3940   47.9820   -9.1320 O   0  0  0  0  0  0  0  0  0  0  0  0
   36.3240   43.8280   -2.4480 O   0  0  0  0  0  0  0  0  0  0  0  0
   36.5750   45.1620   -2.4980 C   0  0  0  0  0  0  0  0  0  0  0  0
   35.4770   47.2350   -3.0200 C   0  0  0  0  0  0  0  0  0  0  0  0
   37.7830   45.7780   -2.1970 C   0  0  0  0  0  0  0  0  0  0  0  0
   36.6800   47.8910   -2.7260 C   0  0  0  0  0  0  0  0  0  0  0  0
   37.8120   47.1720   -2.3210 C   0  0  0  0  0  0  0  0  0  0  0  0
  1  2  1  0
  2  3  1  0
  2  4  1  0
  4  5  1  0
  6  5  1  6
  6  7  1  0
  6  8  1  0
  7  9  2  0
  7 10  1  0
  8 11  1  0
  8 12  1  0
 11 13  2  0
 11 14  1  0
 12 15  1  0
 12 16  2  0
 10 17  1  0
 14 18  1  0
 15 18  1  0
 15 19  1  1
 16 20  1  0
 19 20  2  0
 17 21  2  0
 17 22  1  0
 18 23  2  0
 21 24  1  0
 22 25  2  0
 24 25  1  0
 22 26  1  0
 25 27  1  0
 26 28  2  0
 27 29  2  0
 28 29  1  0
M  END
