mac-x0354-mac-x0385
     RDKit          3D

 26 28  0  0  0  0  0  0  0  0999 V2000
   35.6200   43.4120   -1.7990 C   0  0  0  0  0  0  0  0  0  0  0  0
   34.7690   43.6810   -2.9390 N   0  0  0  0  0  0  0  0  0  0  0  0
   33.8380   42.7730   -3.2850 N   0  0  0  0  0  0  0  0  0  0  0  0
   34.7960   44.7980   -3.7460 C   0  0  0  0  0  0  0  0  0  0  0  0
   33.2500   43.3300   -4.3450 C   0  0  0  0  0  0  0  0  0  0  0  0
   33.7920   44.5910   -4.6880 C   0  0  0  0  0  0  0  0  0  0  0  0
   35.7290   45.9010   -3.5470 C   0  0  0  0  0  0  0  0  0  0  0  0
   33.3430   45.4230   -5.7840 C   0  0  0  0  0  0  0  0  0  0  0  0
   37.1100   45.6610   -3.5180 C   0  0  0  0  0  0  0  0  0  0  0  0
   35.2560   47.2090   -3.3840 C   0  0  0  0  0  0  0  0  0  0  0  0
   32.0830   45.4330   -5.9900 N   0  0  0  0  0  0  0  0  0  0  0  0
   34.2680   46.1180   -6.4710 O   0  0  0  0  0  0  0  0  0  0  0  0
   38.0020   46.7180   -3.3280 C   0  0  0  0  0  0  0  0  0  0  0  0
   36.1520   48.2630   -3.1950 C   0  0  0  0  0  0  0  0  0  0  0  0
   31.3260   46.1790   -6.9750 C   0  0  0  0  0  0  0  0  0  0  0  0
   37.5240   48.0150   -3.1680 C   0  0  0  0  0  0  0  0  0  0  0  0
   29.8710   46.1830   -6.4640 C   0  0  0  0  0  0  0  0  0  0  0  0
   29.0780   47.4810   -6.7040 C   0  0  0  0  0  0  0  0  0  0  0  0
   29.1640   48.5190   -5.6140 C   0  0  0  0  0  0  0  0  0  0  0  0
   28.7680   49.7670   -5.9170 N   0  0  0  0  0  0  0  0  0  0  0  0
   29.6320   48.1390   -4.4060 N   0  0  0  0  0  0  0  0  0  0  0  0
   28.8460   50.6950   -4.9570 C   0  0  0  0  0  0  0  0  0  0  0  0
   29.6940   49.1030   -3.4700 C   0  0  0  0  0  0  0  0  0  0  0  0
   28.4260   51.9870   -5.3010 N   0  0  0  0  0  0  0  0  0  0  0  0
   29.3140   50.4140   -3.6830 C   0  0  0  0  0  0  0  0  0  0  0  0
   29.4050   51.4400   -2.6020 C   0  0  0  0  0  0  0  0  0  0  0  0
  1  2  1  0
  2  3  1  0
  2  4  1  0
  3  5  2  0
  4  6  2  0
  5  6  1  0
  4  7  1  0
  6  8  1  0
  7  9  2  0
  7 10  1  0
  8 11  2  3
  8 12  1  0
  9 13  1  0
 10 14  2  0
 11 15  1  0
 13 16  2  0
 14 16  1  0
 15 17  1  0
 17 18  1  0
 18 19  1  0
 19 20  2  0
 19 21  1  0
 20 22  1  0
 21 23  2  0
 22 24  1  0
 22 25  2  0
 23 25  1  0
 25 26  1  0
M  END
