mac-x0263-mac-x0576
     RDKit          3D

 22 24  0  0  0  0  0  0  0  0999 V2000
   28.0860   59.7610   -6.3920 O   0  0  0  0  0  0  0  0  0  0  0  0
   26.9160   59.0980   -6.3450 C   0  0  0  0  0  0  0  0  0  0  0  0
   25.8740   59.6460   -6.6670 O   0  0  0  0  0  0  0  0  0  0  0  0
   27.0300   57.6750   -5.8640 C   0  0  0  0  0  0  0  0  0  0  0  0
   28.4150   57.0600   -6.0470 C   0  0  0  0  0  0  0  0  0  0  0  0
   28.3740   55.5670   -5.9310 C   0  0  0  0  0  0  0  0  0  0  0  0
   27.7770   54.8740   -4.8880 N   0  0  0  0  0  0  0  0  0  0  0  0
   28.8950   54.7280   -6.7980 N   0  0  0  0  0  0  0  0  0  0  0  0
   27.9440   53.5340   -5.1460 C   0  0  0  0  0  0  0  0  0  0  0  0
   28.6320   53.4760   -6.3070 C   0  0  0  0  0  0  0  0  0  0  0  0
   27.4920   52.4470   -4.3760 C   0  0  0  0  0  0  0  0  0  0  0  0
   29.0070   52.2090   -6.8860 C   0  0  0  0  0  0  0  0  0  0  0  0
   29.6160   52.1990   -7.9280 O   0  0  0  0  0  0  0  0  0  0  0  0
   27.7990   51.1970   -4.8410 C   0  0  0  0  0  0  0  0  0  0  0  0
   28.6280   50.8560   -6.1080 C   0  0  2  0  0  0  0  0  0  0  0  0
   29.9310   50.2240   -5.5880 C   0  0  0  0  0  0  0  0  0  0  0  0
   28.0630   49.9290   -7.1740 N   0  0  0  0  0  0  0  0  0  0  0  0
   28.9640   48.9370   -7.7230 C   0  0  2  0  0  0  0  0  0  0  0  0
   29.8550   48.7210   -5.5540 C   0  0  0  0  0  0  0  0  0  0  0  0
   28.3280   48.0660   -8.6600 N   0  0  0  0  0  0  0  0  0  0  0  0
   30.0810   48.0400   -4.5510 O   0  0  0  0  0  0  0  0  0  0  0  0
   29.5110   48.1410   -6.7170 N   0  0  0  0  0  0  0  0  0  0  0  0
  1  2  1  0
  2  3  2  0
  2  4  1  0
  4  5  1  0
  5  6  1  0
  6  7  1  0
  6  8  2  0
  7  9  1  0
  8 10  1  0
  9 10  2  0
  9 11  1  0
 10 12  1  0
 12 13  2  0
 11 14  2  0
 15 12  1  0
 15 14  1  1
 15 16  1  0
 15 17  1  0
 17 18  1  0
 16 19  1  0
 18 20  1  6
 19 21  2  0
 18 22  1  0
 19 22  1  0
M  END
