mac-x0404-mac-x0433
     RDKit          3D

 26 28  0  0  0  0  0  0  0  0999 V2000
   32.4290   43.4440   -6.5140 O   0  0  0  0  0  0  0  0  0  0  0  0
   33.3130   44.0230   -5.6520 C   0  0  0  0  0  0  0  0  0  0  0  0
   34.4840   44.2080   -5.9480 O   0  0  0  0  0  0  0  0  0  0  0  0
   32.6990   44.4080   -4.3040 C   0  0  0  0  0  0  0  0  0  0  0  0
   31.3360   44.8170   -4.5230 O   0  0  0  0  0  0  0  0  0  0  0  0
   30.9870   45.8310   -3.6630 C   0  0  0  0  0  0  0  0  0  0  0  0
   29.9780   45.6530   -2.6960 C   0  0  0  0  0  0  0  0  0  0  0  0
   31.6710   47.0400   -3.7880 C   0  0  0  0  0  0  0  0  0  0  0  0
   29.6550   46.7350   -1.8310 C   0  0  0  0  0  0  0  0  0  0  0  0
   31.3570   48.0990   -2.9450 C   0  0  0  0  0  0  0  0  0  0  0  0
   29.2820   44.4290   -2.5660 C   0  0  0  0  0  0  0  0  0  0  0  0
   30.3590   47.9760   -1.9630 C   0  0  0  0  0  0  0  0  0  0  0  0
   28.6360   46.5200   -0.8720 C   0  0  0  0  0  0  0  0  0  0  0  0
   28.2850   44.2560   -1.6100 C   0  0  0  0  0  0  0  0  0  0  0  0
   30.0220   49.1500   -1.0430 C   0  0  0  0  0  0  0  0  0  0  0  0
   27.9610   45.3030   -0.7610 C   0  0  0  0  0  0  0  0  0  0  0  0
   30.3730   50.5830   -1.4920 C   0  0  0  0  0  0  0  0  0  0  0  0
   29.1690   51.3440   -1.7910 N   0  0  0  0  0  0  0  0  0  0  0  0
   29.1520   51.9320   -3.0480 C   0  0  0  0  0  0  0  0  0  0  0  0
   28.7730   51.2280   -4.1240 N   0  0  0  0  0  0  0  0  0  0  0  0
   29.5360   53.2150   -3.0920 N   0  0  0  0  0  0  0  0  0  0  0  0
   28.7820   51.8520   -5.3170 C   0  0  0  0  0  0  0  0  0  0  0  0
   29.5380   53.8230   -4.2960 C   0  0  0  0  0  0  0  0  0  0  0  0
   28.3580   51.0560   -6.5110 C   0  0  0  0  0  0  0  0  0  0  0  0
   29.9670   55.2580   -4.3450 C   0  0  0  0  0  0  0  0  0  0  0  0
   29.1620   53.1710   -5.4520 C   0  0  0  0  0  0  0  0  0  0  0  0
  1  2  1  0
  2  3  2  0
  2  4  1  0
  4  5  1  0
  5  6  1  0
  6  7  2  0
  6  8  1  0
  7  9  1  0
  8 10  2  0
  7 11  1  0
  9 12  2  0
 10 12  1  0
  9 13  1  0
 11 14  2  0
 12 15  1  0
 13 16  2  0
 14 16  1  0
 15 17  1  0
 17 18  1  0
 18 19  1  0
 19 20  2  0
 19 21  1  0
 20 22  1  0
 21 23  2  0
 22 24  1  0
 23 25  1  0
 22 26  2  0
 23 26  1  0
M  END
