mac-x0226-mac-x0373
     RDKit          3D

 29 32  0  0  0  0  0  0  0  0999 V2000
   31.4940   45.7250   -6.4960 O   0  0  0  0  0  0  0  0  0  0  0  0
   32.8410   45.8570   -6.3900 C   0  0  0  0  0  0  0  0  0  0  0  0
   33.5870   46.4800   -7.1330 O   0  0  0  0  0  0  0  0  0  0  0  0
   30.6670   46.4540   -5.6820 C   0  0  0  0  0  0  0  0  0  0  0  0
   29.5960   46.0760   -5.2260 O   0  0  0  0  0  0  0  0  0  0  0  0
   31.2800   47.8480   -5.4200 C   0  0  0  0  0  0  0  0  0  0  0  0
   33.3510   45.1350   -5.2320 C   0  0  0  0  0  0  0  0  0  0  0  0
   32.9140   43.9240   -4.6620 C   0  0  0  0  0  0  0  0  0  0  0  0
   34.4100   45.5070   -4.4280 C   0  0  0  0  0  0  0  0  0  0  0  0
   32.3730   47.9280   -4.3530 C   0  0  0  0  0  0  0  0  0  0  0  0
   30.2400   48.9530   -5.2130 C   0  0  0  0  0  0  0  0  0  0  0  0
   33.6290   43.5620   -3.5970 N   0  0  0  0  0  0  0  0  0  0  0  0
   34.5570   44.5450   -3.4510 N   0  0  0  0  0  0  0  0  0  0  0  0
   32.4670   47.0330   -3.2740 C   0  0  0  0  0  0  0  0  0  0  0  0
   33.3340   48.9490   -4.4570 C   0  0  0  0  0  0  0  0  0  0  0  0
   30.0060   49.5040   -3.9410 C   0  0  0  0  0  0  0  0  0  0  0  0
   29.5020   49.4360   -6.3040 C   0  0  0  0  0  0  0  0  0  0  0  0
   35.5100   44.5040   -2.3990 C   0  0  0  0  0  0  0  0  0  0  0  0
   33.4940   47.1570   -2.3320 C   0  0  0  0  0  0  0  0  0  0  0  0
   34.3560   49.0710   -3.5150 C   0  0  0  0  0  0  0  0  0  0  0  0
   29.0580   50.5150   -3.7720 C   0  0  0  0  0  0  0  0  0  0  0  0
   28.5540   50.4470   -6.1290 C   0  0  0  0  0  0  0  0  0  0  0  0
   36.3260   45.6240   -2.1650 C   0  0  0  0  0  0  0  0  0  0  0  0
   35.6540   43.3700   -1.5900 C   0  0  0  0  0  0  0  0  0  0  0  0
   34.4370   48.1760   -2.4530 C   0  0  0  0  0  0  0  0  0  0  0  0
   28.3350   50.9850   -4.8630 C   0  0  0  0  0  0  0  0  0  0  0  0
   37.2690   45.6060   -1.1360 C   0  0  0  0  0  0  0  0  0  0  0  0
   36.6000   43.3590   -0.5610 C   0  0  0  0  0  0  0  0  0  0  0  0
   37.4060   44.4750   -0.3360 C   0  0  0  0  0  0  0  0  0  0  0  0
  1  2  1  0
  2  3  2  0
  1  4  1  0
  4  5  2  0
  4  6  1  0
  2  7  1  0
  7  8  1  0
  7  9  2  0
  6 10  1  0
  6 11  1  0
  8 12  2  0
  9 13  1  0
 12 13  1  0
 10 14  2  0
 10 15  1  0
 11 16  2  0
 11 17  1  0
 13 18  1  0
 14 19  1  0
 15 20  2  0
 16 21  1  0
 17 22  2  0
 18 23  2  0
 18 24  1  0
 19 25  2  0
 20 25  1  0
 21 26  2  0
 22 26  1  0
 23 27  1  0
 24 28  2  0
 27 29  2  0
 28 29  1  0
M  END
