mac-x0131-mac-x0255
     RDKit          3D

 31 35  0  0  0  0  0  0  0  0999 V2000
   31.2100   48.7970   -2.6860 C   0  0  0  0  0  0  0  0  0  0  0  0
   30.4840   49.0040   -3.9760 C   0  0  0  0  0  0  0  0  0  0  0  0
   29.6300   50.0360   -4.3450 C   0  0  0  0  0  0  0  0  0  0  0  0
   30.5800   48.1190   -5.0520 N   0  0  0  0  0  0  0  0  0  0  0  0
   29.2290   51.2080   -3.5180 C   0  0  0  0  0  0  0  0  0  0  0  0
   31.4020   46.8800   -5.0610 C   0  0  1  0  0  0  0  0  0  0  0  0
   29.1910   49.7710   -5.6810 C   0  0  0  0  0  0  0  0  0  0  0  0
   29.7930   48.5880   -6.0850 C   0  0  0  0  0  0  0  0  0  0  0  0
   28.3480   50.3960   -6.6190 C   0  0  0  0  0  0  0  0  0  0  0  0
   29.6300   48.0020   -7.2860 N   0  0  0  0  0  0  0  0  0  0  0  0
   32.8750   47.0930   -4.8390 C   0  0  0  0  0  0  0  0  0  0  0  0
   30.8360   45.7000   -4.2600 C   0  0  0  0  0  0  0  0  0  0  0  0
   27.6650   51.5850   -6.3900 N   0  0  0  0  0  0  0  0  0  0  0  0
   28.1650   49.8310   -7.8270 N   0  0  0  0  0  0  0  0  0  0  0  0
   28.8090   48.6830   -8.0890 C   0  0  0  0  0  0  0  0  0  0  0  0
   33.9920   46.6730   -5.5340 C   0  0  0  0  0  0  0  0  0  0  0  0
   33.2690   47.8360   -3.7580 O   0  0  0  0  0  0  0  0  0  0  0  0
   31.3530   44.4040   -4.3850 C   0  0  0  0  0  0  0  0  0  0  0  0
   29.7330   45.7290   -3.2910 C   0  0  0  0  0  0  0  0  0  0  0  0
   32.4810   43.8810   -5.2460 C   0  0  0  0  0  0  0  0  0  0  0  0
   34.6220   47.8820   -3.7700 C   0  0  0  0  0  0  0  0  0  0  0  0
   35.1160   47.1810   -4.8420 C   0  0  0  0  0  0  0  0  0  0  0  0
   29.4900   44.4680   -2.7480 C   0  0  0  0  0  0  0  0  0  0  0  0
   30.5480   43.2860   -3.3830 S   0  0  0  0  0  0  0  0  0  0  0  0
   28.8970   46.7800   -2.8240 C   0  0  0  0  0  0  0  0  0  0  0  0
   32.0720   43.6350   -6.6880 C   0  0  0  0  0  0  0  0  0  0  0  0
   27.8930   46.5600   -1.8730 C   0  0  0  0  0  0  0  0  0  0  0  0
   28.4800   44.2370   -1.7880 C   0  0  0  0  0  0  0  0  0  0  0  0
   30.8220   43.1260   -6.8310 O   0  0  0  0  0  0  0  0  0  0  0  0
   32.7810   43.8540   -7.6620 O   0  0  0  0  0  0  0  0  0  0  0  0
   27.6890   45.2970   -1.3610 C   0  0  0  0  0  0  0  0  0  0  0  0
  1  2  1  0
  2  3  2  0
  2  4  1  0
  3  5  1  0
  4  6  1  0
  3  7  1  0
  4  8  1  0
  7  8  2  0
  7  9  1  0
  8 10  1  0
  6 11  1  1
  6 12  1  0
  9 13  1  0
  9 14  2  0
 10 15  2  0
 14 15  1  0
 11 16  2  0
 11 17  1  0
 12 18  2  0
 12 19  1  0
 18 20  1  0
 17 21  1  0
 16 22  1  0
 21 22  2  0
 19 23  2  0
 18 24  1  0
 23 24  1  0
 19 25  1  0
 20 26  1  0
 25 27  2  0
 23 28  1  0
 26 29  1  0
 26 30  2  0
 27 31  1  0
 28 31  2  0
M  END
