mac-x0365-mac-x0346
     RDKit          3D

 13 13  0  0  0  0  0  0  0  0999 V2000
   29.6550   47.5560   -5.8500 O   0  0  0  0  0  0  0  0  0  0  0  0
   30.1070   48.1080   -4.7120 C   0  0  0  0  0  0  0  0  0  0  0  0
   30.6800   47.4460   -3.8680 O   0  0  0  0  0  0  0  0  0  0  0  0
   29.8280   49.5630   -4.6290 C   0  0  0  0  0  0  0  0  0  0  0  0
   29.9690   50.2000   -3.3920 C   0  0  0  0  0  0  0  0  0  0  0  0
   29.4290   50.3120   -5.7480 C   0  0  0  0  0  0  0  0  0  0  0  0
   29.7130   51.5660   -3.2860 C   0  0  0  0  0  0  0  0  0  0  0  0
   29.1740   51.6870   -5.6280 C   0  0  0  0  0  0  0  0  0  0  0  0
   29.8560   52.1510   -2.0870 F   0  0  0  0  0  0  0  0  0  0  0  0
   29.3140   52.3250   -4.3920 C   0  0  0  0  0  0  0  0  0  0  0  0
   29.0930   53.6630   -4.1480 O   0  0  0  0  0  0  0  0  0  0  0  0
   29.9900   54.5280   -4.9070 N   0  0  0  0  0  0  0  0  0  0  0  0
   29.1770   55.5550   -5.5340 O   0  0  0  0  0  0  0  0  0  0  0  0
  1  2  1  0
  2  3  2  0
  2  4  1  0
  4  5  2  0
  4  6  1  0
  5  7  1  0
  6  8  2  0
  7  9  1  0
  7 10  2  0
  8 10  1  0
 10 11  1  0
 11 12  1  0
 12 13  1  0
M  END
