mac-x0358-mac-x0565
     RDKit          3D

 22 24  0  0  0  0  0  0  0  0999 V2000
   30.7720   44.2670   -6.0620 O   0  0  0  0  0  0  0  0  0  0  0  0
   31.8750   44.3620   -5.2950 C   0  0  0  0  0  0  0  0  0  0  0  0
   32.9850   44.3640   -5.8040 O   0  0  0  0  0  0  0  0  0  0  0  0
   31.5400   44.4470   -3.8270 C   0  0  0  0  0  0  0  0  0  0  0  0
   31.8340   45.8350   -3.2150 C   0  0  1  0  0  0  0  0  0  0  0  0
   33.3010   45.9090   -2.7580 C   0  0  2  0  0  0  0  0  0  0  0  0
   31.5000   46.9840   -4.1990 C   0  0  0  0  0  0  0  0  0  0  0  0
   33.5270   44.9510   -1.7280 O   0  0  0  0  0  0  0  0  0  0  0  0
   33.6340   47.2540   -2.2180 C   0  0  0  0  0  0  0  0  0  0  0  0
   32.0330   48.3930   -3.7990 C   0  0  2  0  0  0  0  0  0  0  0  0
   33.0650   48.3700   -2.6800 C   0  0  0  0  0  0  0  0  0  0  0  0
   30.9780   49.4230   -3.5180 C   0  0  0  0  0  0  0  0  0  0  0  0
   32.6320   49.0780   -5.0590 C   0  0  0  0  0  0  0  0  0  0  0  0
   30.8060   50.2260   -4.6420 C   0  0  0  0  0  0  0  0  0  0  0  0
   30.2190   49.6590   -2.3810 C   0  0  0  0  0  0  0  0  0  0  0  0
   31.6150   49.8850   -5.6940 O   0  0  0  0  0  0  0  0  0  0  0  0
   29.9010   51.2690   -4.6900 C   0  0  0  0  0  0  0  0  0  0  0  0
   29.2910   50.7140   -2.4000 C   0  0  0  0  0  0  0  0  0  0  0  0
   29.1310   51.5180   -3.5480 C   0  0  0  0  0  0  0  0  0  0  0  0
   28.1340   52.6160   -3.5000 C   0  0  0  0  0  0  0  0  0  0  0  0
   27.1720   52.4970   -4.4350 O   0  0  0  0  0  0  0  0  0  0  0  0
   28.1430   53.5520   -2.7200 O   0  0  0  0  0  0  0  0  0  0  0  0
  1  2  1  0
  2  3  2  0
  2  4  1  0
  5  4  1  6
  5  6  1  0
  5  7  1  0
  6  8  1  1
  6  9  1  0
 10  7  1  6
  9 11  2  0
 10 11  1  0
 10 12  1  0
 10 13  1  0
 12 14  2  0
 12 15  1  0
 13 16  1  0
 14 16  1  0
 14 17  1  0
 15 18  2  0
 17 19  2  0
 18 19  1  0
 19 20  1  0
 20 21  1  0
 20 22  2  0
M  END
