mac-x0572-mac-x0380
     RDKit          3D

 16 17  0  0  0  0  0  0  0  0999 V2000
   28.9320   55.9240   -7.3390 C   0  0  0  0  0  0  0  0  0  0  0  0
   29.1170   54.7520   -6.4080 C   0  0  0  0  0  0  0  0  0  0  0  0
   28.8340   53.5230   -6.9820 N   0  0  0  0  0  0  0  0  0  0  0  0
   29.5220   54.9300   -5.1360 C   0  0  0  0  0  0  0  0  0  0  0  0
   29.8070   56.1530   -4.5640 O   0  0  0  0  0  0  0  0  0  0  0  0
   29.6660   53.7180   -4.2980 C   0  0  0  0  0  0  0  0  0  0  0  0
   28.6810   52.4830   -6.2110 C   0  0  0  0  0  0  0  0  0  0  0  0
   30.4580   53.7220   -3.3550 O   0  0  0  0  0  0  0  0  0  0  0  0
   28.7870   52.5600   -4.6970 C   0  0  1  0  0  0  0  0  0  0  0  0
   28.3830   51.1590   -6.8220 C   0  0  0  0  0  0  0  0  0  0  0  0
   28.6010   50.0530   -6.0890 C   0  0  0  0  0  0  0  0  0  0  0  0
   29.2070   51.2570   -4.0730 C   0  0  0  0  0  0  0  0  0  0  0  0
   29.1110   50.0900   -4.7270 C   0  0  0  0  0  0  0  0  0  0  0  0
   29.5330   48.8330   -4.0480 C   0  0  0  0  0  0  0  0  0  0  0  0
   29.6490   47.7800   -4.8800 O   0  0  0  0  0  0  0  0  0  0  0  0
   29.7490   48.7700   -2.8480 O   0  0  0  0  0  0  0  0  0  0  0  0
  1  2  1  0
  2  3  1  0
  2  4  2  0
  4  5  1  0
  4  6  1  0
  3  7  2  0
  6  8  2  0
  6  9  1  0
  7  9  1  0
  7 10  1  0
 10 11  2  0
  9 12  1  6
 11 13  1  0
 12 13  2  0
 13 14  1  0
 14 15  1  0
 14 16  2  0
M  END
