mac-x0375-mac-x0178
     RDKit          3D

 22 23  0  0  0  0  0  0  0  0999 V2000
   32.2600   44.9190   -5.9890 N   0  0  0  0  0  0  0  0  0  0  0  0
   33.3720   44.9270   -6.7820 C   0  0  0  0  0  0  0  0  0  0  0  0
   33.3950   45.1350   -7.9900 O   0  0  0  0  0  0  0  0  0  0  0  0
   32.2440   45.8010   -5.0550 C   0  0  0  0  0  0  0  0  0  0  0  0
   34.6440   44.6440   -5.9760 C   0  0  0  0  0  0  0  0  0  0  0  0
   31.2590   46.0370   -4.0010 C   0  0  0  0  0  0  0  0  0  0  0  0
   34.5150   44.8280   -4.5710 O   0  0  0  0  0  0  0  0  0  0  0  0
   29.9730   45.5010   -4.0680 C   0  0  0  0  0  0  0  0  0  0  0  0
   31.6720   46.8120   -2.9200 C   0  0  0  0  0  0  0  0  0  0  0  0
   35.3500   45.7200   -3.9560 C   0  0  0  0  0  0  0  0  0  0  0  0
   29.0820   45.7440   -3.0240 C   0  0  0  0  0  0  0  0  0  0  0  0
   30.7880   47.0550   -1.8780 C   0  0  0  0  0  0  0  0  0  0  0  0
   36.6410   45.4610   -3.4980 C   0  0  0  0  0  0  0  0  0  0  0  0
   34.8180   47.0060   -3.7940 C   0  0  0  0  0  0  0  0  0  0  0  0
   29.5010   46.5170   -1.9370 C   0  0  0  0  0  0  0  0  0  0  0  0
   28.3980   46.8330   -0.5900 S   0  0  0  0  0  0  0  0  0  0  0  0
   37.3850   46.4730   -2.8870 C   0  0  0  0  0  0  0  0  0  0  0  0
   35.5600   48.0150   -3.1840 C   0  0  0  0  0  0  0  0  0  0  0  0
   27.9730   45.2660   -0.1390 N   0  0  0  0  0  0  0  0  0  0  0  0
   29.1690   47.3590    0.5120 O   0  0  0  0  0  0  0  0  0  0  0  0
   27.2260   47.4900   -1.1080 O   0  0  0  0  0  0  0  0  0  0  0  0
   36.8480   47.7500   -2.7290 C   0  0  0  0  0  0  0  0  0  0  0  0
  1  2  1  0
  2  3  2  0
  1  4  2  3
  2  5  1  0
  4  6  1  0
  5  7  1  0
  6  8  2  0
  6  9  1  0
  7 10  1  0
  8 11  1  0
  9 12  2  0
 10 13  2  0
 10 14  1  0
 11 15  2  0
 12 15  1  0
 15 16  1  0
 13 17  1  0
 14 18  2  0
 16 19  1  0
 16 20  2  0
 16 21  2  0
 17 22  2  0
 18 22  1  0
M  END
