mac-x0132-mac-x0385
     RDKit          3D

 12 13  0  0  0  0  0  0  0  0999 V2000
   28.4170   52.7530   -7.3340 N   0  0  0  0  0  0  0  0  0  0  0  0
   28.8730   53.0460   -6.0390 C   0  0  0  0  0  0  0  0  0  0  0  0
   28.9720   54.3420   -5.7240 N   0  0  0  0  0  0  0  0  0  0  0  0
   29.1970   52.0150   -5.1520 C   0  0  0  0  0  0  0  0  0  0  0  0
   29.6390   52.4160   -3.8910 C   0  0  0  0  0  0  0  0  0  0  0  0
   29.4060   54.6070   -4.4890 C   0  0  0  0  0  0  0  0  0  0  0  0
   29.0990   50.6430   -5.4750 C   0  0  0  0  0  0  0  0  0  0  0  0
   29.7480   53.7100   -3.5490 N   0  0  0  0  0  0  0  0  0  0  0  0
   29.9750   51.4180   -2.9720 C   0  0  0  0  0  0  0  0  0  0  0  0
   29.4330   49.6470   -4.5650 C   0  0  0  0  0  0  0  0  0  0  0  0
   29.3000   48.2020   -4.9980 C   0  0  0  0  0  0  0  0  0  0  0  0
   29.8780   50.0460   -3.2910 C   0  0  0  0  0  0  0  0  0  0  0  0
  1  2  1  0
  2  3  2  0
  2  4  1  0
  4  5  2  0
  3  6  1  0
  4  7  1  0
  5  8  1  0
  6  8  2  0
  5  9  1  0
  7 10  2  0
 10 11  1  0
  9 12  2  0
 10 12  1  0
M  END
