mac-x0277-mac-x0123
     RDKit          3D

 26 29  0  0  0  0  0  0  0  0999 V2000
   27.7570   46.3400   -0.9290 Cl  0  0  0  0  0  0  0  0  0  0  0  0
   29.0330   45.9330   -2.0210 C   0  0  0  0  0  0  0  0  0  0  0  0
   30.0830   46.8160   -2.3160 C   0  0  0  0  0  0  0  0  0  0  0  0
   28.9910   44.6730   -2.6230 C   0  0  0  0  0  0  0  0  0  0  0  0
   30.1920   48.1910   -1.7320 C   0  0  0  0  0  0  0  0  0  0  0  0
   31.0710   46.4170   -3.2060 C   0  0  0  0  0  0  0  0  0  0  0  0
   29.9910   44.2920   -3.5180 C   0  0  0  0  0  0  0  0  0  0  0  0
   29.0050   48.9870   -2.2560 C   0  0  0  0  0  0  0  0  0  0  0  0
   31.0420   45.1670   -3.8140 C   0  0  0  0  0  0  0  0  0  0  0  0
   32.1390   44.8160   -4.7760 C   0  0  0  0  0  0  0  0  0  0  0  0
   29.1960   50.1750   -3.1400 C   0  0  0  0  0  0  0  0  0  0  0  0
   32.2960   45.8340   -5.8900 C   0  0  0  0  0  0  0  0  0  0  0  0
   29.6780   51.3260   -2.6090 N   0  0  0  0  0  0  0  0  0  0  0  0
   28.8890   50.2270   -4.4470 N   0  0  0  0  0  0  0  0  0  0  0  0
   33.4650   46.5210   -5.8040 O   0  0  0  0  0  0  0  0  0  0  0  0
   31.4930   46.0600   -6.7830 O   0  0  0  0  0  0  0  0  0  0  0  0
   29.1550   51.5270   -4.7530 N   0  0  0  0  0  0  0  0  0  0  0  0
   29.6390   52.1740   -3.6030 C   0  0  0  0  0  0  0  0  0  0  0  0
   28.9820   52.2230   -5.9820 C   0  0  0  0  0  0  0  0  0  0  0  0
   29.9730   53.4950   -3.5840 N   0  0  0  0  0  0  0  0  0  0  0  0
   28.5200   51.5400   -7.0990 N   0  0  0  0  0  0  0  0  0  0  0  0
   29.7690   54.1170   -4.6930 C   0  0  0  0  0  0  0  0  0  0  0  0
   29.2630   53.5360   -5.9670 C   0  0  0  0  0  0  0  0  0  0  0  0
   29.1980   54.6260   -6.9760 C   0  0  0  0  0  0  0  0  0  0  0  0
   30.0300   55.5800   -4.8620 C   0  0  0  0  0  0  0  0  0  0  0  0
   29.2210   55.8990   -6.1210 C   0  0  0  0  0  0  0  0  0  0  0  0
  1  2  1  0
  2  3  2  0
  2  4  1  0
  3  5  1  0
  3  6  1  0
  4  7  2  0
  5  8  1  0
  6  9  2  0
  7  9  1  0
  9 10  1  0
  8 11  1  0
 10 12  1  0
 11 13  1  0
 11 14  2  0
 12 15  1  0
 12 16  2  0
 14 17  1  0
 13 18  2  0
 17 18  1  0
 17 19  1  0
 18 20  1  0
 19 21  1  0
 20 22  2  0
 19 23  2  0
 22 23  1  0
 23 24  1  0
 22 25  1  0
 24 26  1  0
 25 26  1  0
M  END
