mac-x0568-mac-x0345
     RDKit          3D

 12 12  0  0  0  0  0  0  0  0999 V2000
   29.4740   55.5670   -5.2670 C   0  0  0  0  0  0  0  0  0  0  0  0
   29.4660   54.0670   -5.2250 C   0  0  0  0  0  0  0  0  0  0  0  0
   29.0720   53.2870   -6.3090 C   0  0  0  0  0  0  0  0  0  0  0  0
   29.8700   53.5150   -4.0520 N   0  0  0  0  0  0  0  0  0  0  0  0
   28.5040   54.0290   -7.9570 Br  0  0  0  0  0  0  0  0  0  0  0  0
   29.8940   52.1710   -3.9220 C   0  0  0  0  0  0  0  0  0  0  0  0
   29.0950   51.8980   -6.1790 C   0  0  0  0  0  0  0  0  0  0  0  0
   30.3250   51.6940   -2.6750 N   0  0  0  0  0  0  0  0  0  0  0  0
   29.5110   51.3230   -4.9710 C   0  0  0  0  0  0  0  0  0  0  0  0
   29.5460   49.8460   -4.8020 C   0  0  0  0  0  0  0  0  0  0  0  0
   29.7740   49.3260   -3.7160 O   0  0  0  0  0  0  0  0  0  0  0  0
   29.3140   49.0680   -5.9050 N   0  0  0  0  0  0  0  0  0  0  0  0
  1  2  1  0
  2  3  2  0
  2  4  1  0
  3  5  1  0
  4  6  2  0
  3  7  1  0
  6  8  1  0
  6  9  1  0
  7  9  2  0
  9 10  1  0
 10 11  2  0
 10 12  1  0
M  END
