mac-x0138-mac-x0271
     RDKit          3D

 23 26  0  0  0  0  0  0  0  0999 V2000
   29.7670   48.7580   -3.8610 C   0  0  0  0  0  0  0  0  0  0  0  0
   29.5540   49.1350   -5.2360 N   0  0  0  0  0  0  0  0  0  0  0  0
   29.1750   50.3720   -5.7370 C   0  0  0  0  0  0  0  0  0  0  0  0
   29.7000   48.2890   -6.3100 C   0  0  0  0  0  0  0  0  0  0  0  0
   29.0830   50.3350   -7.0470 N   0  0  0  0  0  0  0  0  0  0  0  0
   29.4020   49.0590   -7.4110 C   0  0  0  0  0  0  0  0  0  0  0  0
   30.0530   46.9940   -6.3140 N   0  0  0  0  0  0  0  0  0  0  0  0
   28.8930   51.5990   -5.0060 C   0  0  0  0  0  0  0  0  0  0  0  0
   29.4710   48.4400   -8.6570 C   0  0  0  0  0  0  0  0  0  0  0  0
   30.0870   46.4920   -7.5580 C   0  0  0  0  0  0  0  0  0  0  0  0
   29.8660   52.5780   -4.7870 C   0  0  0  0  0  0  0  0  0  0  0  0
   27.5940   51.8010   -4.5230 C   0  0  0  0  0  0  0  0  0  0  0  0
   29.1960   49.1060   -9.8470 N   0  0  0  0  0  0  0  0  0  0  0  0
   30.4370   45.1630   -7.6800 N   0  0  0  0  0  0  0  0  0  0  0  0
   29.8190   47.1380   -8.7060 N   0  0  0  0  0  0  0  0  0  0  0  0
   29.5150   53.7330   -4.0990 C   0  0  0  0  0  0  0  0  0  0  0  0
   27.2590   52.9650   -3.8340 C   0  0  0  0  0  0  0  0  0  0  0  0
   28.2260   53.9450   -3.6210 C   0  0  0  0  0  0  0  0  0  0  0  0
   30.5170   54.7030   -3.9000 O   0  0  0  0  0  0  0  0  0  0  0  0
   27.9320   55.1800   -2.9190 C   0  0  0  0  0  0  0  0  0  0  0  0
   30.1520   55.9990   -3.5700 C   0  0  0  0  0  0  0  0  0  0  0  0
   30.8540   56.9720   -3.8130 O   0  0  0  0  0  0  0  0  0  0  0  0
   28.8490   56.1480   -2.9010 C   0  0  0  0  0  0  0  0  0  0  0  0
  1  2  1  0
  2  3  1  0
  2  4  1  0
  3  5  2  0
  4  6  2  0
  5  6  1  0
  4  7  1  0
  3  8  1  0
  6  9  1  0
  7 10  2  0
  8 11  2  0
  8 12  1  0
  9 13  1  0
 10 14  1  0
  9 15  2  0
 10 15  1  0
 11 16  1  0
 12 17  2  0
 16 18  2  0
 17 18  1  0
 16 19  1  0
 18 20  1  0
 19 21  1  0
 21 22  2  0
 20 23  2  0
 21 23  1  0
M  END
