mac-x0412-mac-x0139
     RDKit          3D

 26 29  0  0  0  0  0  0  0  0999 V2000
   29.7650   54.3100   -3.8590 O   0  0  0  0  0  0  0  0  0  0  0  0
   29.2270   53.5580   -4.6710 C   0  0  0  0  0  0  0  0  0  0  0  0
   28.9860   53.9920   -5.9530 N   0  0  0  0  0  0  0  0  0  0  0  0
   28.7810   52.1280   -4.3360 C   0  0  1  0  0  0  0  0  0  0  0  0
   28.4640   51.1970   -5.5390 C   0  0  1  0  0  0  0  0  0  0  0  0
   28.1920   53.3370   -6.8430 C   0  0  0  0  0  0  0  0  0  0  0  0
   29.6150   51.4780   -3.2340 C   0  0  0  0  0  0  0  0  0  0  0  0
   27.9170   52.0340   -6.6910 C   0  0  0  0  0  0  0  0  0  0  0  0
   29.6040   50.1730   -5.9610 C   0  0  1  0  0  0  0  0  0  0  0  0
   30.6770   50.5550   -3.7160 C   0  0  0  0  0  0  0  0  0  0  0  0
   30.6740   49.9850   -4.9180 C   0  0  0  0  0  0  0  0  0  0  0  0
   29.3060   48.9030   -6.7740 C   0  0  0  0  0  0  0  0  0  0  0  0
   30.1630   50.9240   -7.2070 C   0  0  0  0  0  0  0  0  0  0  0  0
   29.2730   47.5140   -6.5840 C   0  0  0  0  0  0  0  0  0  0  0  0
   29.0030   49.3270   -8.0660 C   0  0  0  0  0  0  0  0  0  0  0  0
   29.1040   50.7260   -8.1930 N   0  0  0  0  0  0  0  0  0  0  0  0
   29.5680   46.8210   -5.3850 N   0  0  0  0  0  0  0  0  0  0  0  0
   28.6720   48.5640   -9.0970 N   0  0  0  0  0  0  0  0  0  0  0  0
   28.9380   46.7160   -7.6230 N   0  0  0  0  0  0  0  0  0  0  0  0
   30.1550   47.6350   -4.3240 C   0  0  0  0  0  0  0  0  0  0  0  0
   30.2340   45.5040   -5.6310 C   0  0  0  0  0  0  0  0  0  0  0  0
   28.6530   47.2700   -8.8090 C   0  0  0  0  0  0  0  0  0  0  0  0
   31.7650   45.4540   -5.5120 C   0  0  0  0  0  0  0  0  0  0  0  0
   32.4020   45.0470   -6.8170 C   0  0  0  0  0  0  0  0  0  0  0  0
   31.8510   44.6390   -7.8240 O   0  0  0  0  0  0  0  0  0  0  0  0
   33.7460   45.1780   -6.7990 O   0  0  0  0  0  0  0  0  0  0  0  0
  1  2  2  0
  2  3  1  0
  2  4  1  0
  4  5  1  0
  3  6  1  0
  4  7  1  6
  5  8  1  6
  6  8  2  0
  5  9  1  0
  7 10  1  0
  9 11  1  1
 10 11  2  0
  9 12  1  0
  9 13  1  0
 12 14  2  0
 12 15  1  0
 13 16  1  0
 15 16  1  0
 14 17  1  0
 15 18  2  0
 14 19  1  0
 17 20  1  0
 17 21  1  0
 18 22  1  0
 19 22  2  0
 21 23  1  0
 23 24  1  0
 24 25  2  0
 24 26  1  0
M  END
