mac-x0305-mac-x0138
     RDKit          3D

 15 16  0  0  0  0  0  0  0  0999 V2000
   30.9790   46.6450   -7.1960 O   0  0  0  0  0  0  0  0  0  0  0  0
   30.5130   46.9710   -5.9560 C   0  0  0  0  0  0  0  0  0  0  0  0
   30.5260   46.1890   -5.0160 O   0  0  0  0  0  0  0  0  0  0  0  0
   29.9690   48.4560   -5.9140 C   0  0  2  0  0  0  0  0  0  0  0  0
   29.6270   48.8400   -4.5680 N   0  0  0  0  0  0  0  0  0  0  0  0
   29.0060   48.6120   -7.0220 N   0  0  0  0  0  0  0  0  0  0  0  0
   31.1960   49.3150   -6.2780 C   0  0  0  0  0  0  0  0  0  0  0  0
   29.1660   50.0770   -4.2380 C   0  0  0  0  0  0  0  0  0  0  0  0
   28.8410   49.9820   -7.5390 C   0  0  1  0  0  0  0  0  0  0  0  0
   28.9160   51.2430   -6.5610 C   0  0  2  0  0  0  0  0  0  0  0  0
   28.8580   51.1050   -5.0430 C   0  0  0  0  0  0  0  0  0  0  0  0
   29.6610   50.4190   -8.7180 C   0  0  0  0  0  0  0  0  0  0  0  0
   27.8310   52.1900   -6.8810 N   0  0  0  0  0  0  0  0  0  0  0  0
   30.4460   51.4580   -8.4000 C   0  0  0  0  0  0  0  0  0  0  0  0
   30.2790   51.8820   -6.9670 C   0  0  0  0  0  0  0  0  0  0  0  0
  1  2  1  0
  2  3  2  0
  4  2  1  0
  4  5  1  0
  4  6  1  0
  4  7  1  6
  5  8  1  0
  6  9  1  0
  9 10  1  0
  8 11  2  0
 10 11  1  0
  9 12  1  6
 10 13  1  6
 12 14  2  0
 10 15  1  0
 14 15  1  0
M  END
