mac-x0139-mac-x0137
     RDKit          3D

 26 29  0  0  0  0  0  0  0  0999 V2000
   29.7500   46.2040   -4.4230 C   0  0  0  0  0  0  0  0  0  0  0  0
   29.4440   45.8350   -5.8020 N   0  0  0  0  0  0  0  0  0  0  0  0
   30.5610   45.2450   -6.5500 C   0  0  0  0  0  0  0  0  0  0  0  0
   28.7270   46.8210   -6.6100 C   0  0  1  0  0  0  0  0  0  0  0  0
   31.7730   44.6210   -5.8590 C   0  0  0  0  0  0  0  0  0  0  0  0
   28.8070   48.3090   -6.2190 C   0  0  2  0  0  0  0  0  0  0  0  0
   29.0030   46.6040   -8.0240 N   0  0  0  0  0  0  0  0  0  0  0  0
   32.8930   44.5810   -6.8650 C   0  0  0  0  0  0  0  0  0  0  0  0
   28.2350   49.2200   -7.3130 C   0  0  2  0  0  0  0  0  0  0  0  0
   28.3420   47.4880   -8.9530 C   0  0  0  0  0  0  0  0  0  0  0  0
   30.1540   48.9860   -5.7630 C   0  0  1  0  0  0  0  0  0  0  0  0
   32.7200   44.3670   -8.0560 O   0  0  0  0  0  0  0  0  0  0  0  0
   34.1220   44.8070   -6.3540 O   0  0  0  0  0  0  0  0  0  0  0  0
   28.7040   48.8630   -8.6580 N   0  0  0  0  0  0  0  0  0  0  0  0
   28.5720   50.5850   -6.6870 C   0  0  1  0  0  0  0  0  0  0  0  0
   30.0540   50.4160   -6.3880 C   0  0  0  0  0  0  0  0  0  0  0  0
   30.1690   49.0710   -4.1960 C   0  0  0  0  0  0  0  0  0  0  0  0
   31.4740   48.3250   -6.2280 C   0  0  0  0  0  0  0  0  0  0  0  0
   31.5580   49.1440   -3.5610 C   0  0  2  0  0  0  0  0  0  0  0  0
   32.1060   47.3450   -5.2500 C   0  0  0  0  0  0  0  0  0  0  0  0
   28.3140   51.7390   -7.5970 N   0  0  0  0  0  0  0  0  0  0  0  0
   27.8280   50.9360   -5.4470 C   0  0  0  0  0  0  0  0  0  0  0  0
   32.1310   50.3110   -3.9530 F   0  0  0  0  0  0  0  0  0  0  0  0
   32.4970   48.0090   -3.9440 C   0  0  0  0  0  0  0  0  0  0  0  0
   27.2270   52.1060   -5.5310 C   0  0  0  0  0  0  0  0  0  0  0  0
   27.5750   52.5280   -6.8760 C   0  0  0  0  0  0  0  0  0  0  0  0
  1  2  1  0
  2  3  1  0
  4  2  1  1
  3  5  1  0
  6  4  1  6
  4  7  1  0
  5  8  1  0
  6  9  1  0
  7 10  1  0
  6 11  1  0
  8 12  2  0
  8 13  1  0
  9 14  1  6
 10 14  1  0
  9 15  1  0
 11 16  1  6
 15 16  1  1
 11 17  1  0
 11 18  1  0
 17 19  1  0
 18 20  1  0
 15 21  1  0
 15 22  1  0
 19 23  1  6
 19 24  1  0
 20 24  1  0
 22 25  2  0
 21 26  2  0
 25 26  1  0
M  END
