mac-x0341-mac-x0204
     RDKit          3D

 24 26  0  0  0  0  0  0  0  0999 V2000
   28.6900   55.0090   -7.5310 N   0  0  0  0  0  0  0  0  0  0  0  0
   28.7800   53.8010   -6.9210 C   0  0  0  0  0  0  0  0  0  0  0  0
   28.6820   52.7130   -7.6150 N   0  0  0  0  0  0  0  0  0  0  0  0
   28.9730   53.8040   -5.5670 N   0  0  0  0  0  0  0  0  0  0  0  0
   29.3260   52.6750   -4.8710 C   0  0  0  0  0  0  0  0  0  0  0  0
   28.7590   51.4910   -6.9340 C   0  0  0  0  0  0  0  0  0  0  0  0
   29.8180   52.7030   -3.7450 O   0  0  0  0  0  0  0  0  0  0  0  0
   29.0680   51.4150   -5.5770 C   0  0  0  0  0  0  0  0  0  0  0  0
   28.5130   50.3110   -7.6320 C   0  0  0  0  0  0  0  0  0  0  0  0
   28.5660   49.0820   -6.9820 C   0  0  0  0  0  0  0  0  0  0  0  0
   29.1250   50.1940   -4.9160 C   0  0  0  0  0  0  0  0  0  0  0  0
   28.8660   49.0220   -5.6250 C   0  0  0  0  0  0  0  0  0  0  0  0
   28.9040   47.7110   -4.9330 C   0  0  0  0  0  0  0  0  0  0  0  0
   29.4780   46.6020   -5.8070 C   0  0  0  0  0  0  0  0  0  0  0  0
   30.7550   45.9590   -5.2730 C   0  0  0  0  0  0  0  0  0  0  0  0
   31.7580   45.9040   -6.2680 O   0  0  0  0  0  0  0  0  0  0  0  0
   30.3980   44.6180   -5.0130 O   0  0  0  0  0  0  0  0  0  0  0  0
   31.2490   46.6270   -4.0050 C   0  0  0  0  0  0  0  0  0  0  0  0
   30.4590   46.6780   -2.8470 C   0  0  0  0  0  0  0  0  0  0  0  0
   32.5070   47.2270   -3.9290 C   0  0  0  0  0  0  0  0  0  0  0  0
   30.9320   47.3010   -1.7040 C   0  0  0  0  0  0  0  0  0  0  0  0
   32.9980   47.8430   -2.8240 N   0  0  0  0  0  0  0  0  0  0  0  0
   30.1720   47.3590   -0.5740 O   0  0  0  0  0  0  0  0  0  0  0  0
   32.1930   47.8640   -1.7330 C   0  0  0  0  0  0  0  0  0  0  0  0
  1  2  1  0
  2  3  2  0
  2  4  1  0
  4  5  1  0
  3  6  1  0
  5  7  2  0
  5  8  1  0
  6  8  2  0
  6  9  1  0
  9 10  2  0
  8 11  1  0
 10 12  1  0
 11 12  2  0
 12 13  1  0
 13 14  1  0
 14 15  1  0
 15 16  1  0
 15 17  1  0
 15 18  1  0
 18 19  2  0
 18 20  1  0
 19 21  1  0
 20 22  2  0
 21 23  1  0
 21 24  2  0
 22 24  1  0
M  END
