mac-x1493-mac-x0345
     RDKit          3D

 16 17  0  0  0  0  0  0  0  0999 V2000
   29.9410   48.2580   -5.5980 O   0  0  0  0  0  0  0  0  0  0  0  0
   29.9940   48.8960   -4.4260 C   0  0  0  0  0  0  0  0  0  0  0  0
   30.5830   48.3650   -3.4860 O   0  0  0  0  0  0  0  0  0  0  0  0
   29.2820   50.2360   -4.3400 C   0  0  2  0  0  0  0  0  0  0  0  0
   28.8170   51.0030   -5.5860 C   0  0  2  0  0  0  0  0  0  0  0  0
   29.7770   51.2220   -3.2470 C   0  0  1  0  0  0  0  0  0  0  0  0
   30.9570   50.8860   -2.4830 N   0  0  0  0  0  0  0  0  0  0  0  0
   30.0080   51.1920   -7.1220 Br  0  0  0  0  0  0  0  0  0  0  0  0
   28.0950   52.3350   -5.3810 C   0  0  1  0  0  0  0  0  0  0  0  0
   29.9000   52.6380   -3.5920 N   0  0  0  0  0  0  0  0  0  0  0  0
   31.0570   53.0630   -4.3680 C   0  0  0  0  0  0  0  0  0  0  0  0
   28.7260   53.2020   -4.2300 C   0  0  1  0  0  0  0  0  0  0  0  0
   27.9160   53.0920   -6.6800 C   0  0  0  0  0  0  0  0  0  0  0  0
   29.0570   54.6270   -4.5950 C   0  0  0  0  0  0  0  0  0  0  0  0
   28.2610   54.3690   -6.8610 C   0  0  0  0  0  0  0  0  0  0  0  0
   28.8410   55.1460   -5.8030 C   0  0  0  0  0  0  0  0  0  0  0  0
  1  2  1  0
  2  3  2  0
  4  2  1  6
  4  5  1  0
  4  6  1  0
  6  7  1  6
  5  8  1  6
  5  9  1  0
  6 10  1  0
 10 11  1  0
  9 12  1  0
 10 12  1  0
  9 13  1  6
 12 14  1  6
 13 15  2  0
 14 16  2  0
 15 16  1  0
M  END
