mac-x0301-mac-x0373
     RDKit          3D

 20 22  0  0  0  0  0  0  0  0999 V2000
   30.4720   45.7410   -5.0130 C   0  0  0  0  0  0  0  0  0  0  0  0
   30.7210   47.0870   -4.2430 C   0  0  2  0  0  0  0  0  0  0  0  0
   30.2690   46.7600   -2.8910 O   0  0  0  0  0  0  0  0  0  0  0  0
   31.2040   45.6560   -6.1650 O   0  0  0  0  0  0  0  0  0  0  0  0
   29.7240   44.8350   -4.6580 O   0  0  0  0  0  0  0  0  0  0  0  0
   29.8820   48.2440   -4.7940 C   0  0  0  0  0  0  0  0  0  0  0  0
   32.2160   47.4090   -4.0940 C   0  0  0  0  0  0  0  0  0  0  0  0
   29.6190   48.3930   -6.1560 C   0  0  0  0  0  0  0  0  0  0  0  0
   29.3210   49.2380   -3.9660 C   0  0  0  0  0  0  0  0  0  0  0  0
   33.0960   46.4730   -3.5100 C   0  0  0  0  0  0  0  0  0  0  0  0
   32.7540   48.6370   -4.5270 C   0  0  0  0  0  0  0  0  0  0  0  0
   28.8680   49.4320   -6.6670 C   0  0  0  0  0  0  0  0  0  0  0  0
   28.5540   50.2990   -4.4880 C   0  0  0  0  0  0  0  0  0  0  0  0
   30.0560   47.5570   -7.1440 O   0  0  0  0  0  0  0  0  0  0  0  0
   34.4570   46.7570   -3.3670 C   0  0  0  0  0  0  0  0  0  0  0  0
   34.1160   48.9150   -4.3810 C   0  0  0  0  0  0  0  0  0  0  0  0
   28.3220   50.4010   -5.8580 C   0  0  0  0  0  0  0  0  0  0  0  0
   28.7420   49.3750   -8.0190 O   0  0  0  0  0  0  0  0  0  0  0  0
   29.3940   48.1200   -8.2980 C   0  0  0  0  0  0  0  0  0  0  0  0
   34.9660   47.9780   -3.8020 C   0  0  0  0  0  0  0  0  0  0  0  0
  1  2  1  0
  2  3  1  1
  1  4  1  0
  1  5  2  0
  2  6  1  0
  2  7  1  0
  6  8  1  0
  6  9  2  0
  7 10  2  0
  7 11  1  0
  8 12  2  0
  9 13  1  0
  8 14  1  0
 10 15  1  0
 11 16  2  0
 12 17  1  0
 13 17  2  0
 12 18  1  0
 14 19  1  0
 18 19  1  0
 15 20  2  0
 16 20  1  0
M  END
