mac-x0223-mac-x0576
     RDKit          3D

 27 29  0  0  0  0  0  0  0  0999 V2000
   27.4530   43.5880   -2.1070 C   0  0  0  0  0  0  0  0  0  0  0  0
   27.7440   44.8370   -1.4980 O   0  0  0  0  0  0  0  0  0  0  0  0
   28.9050   45.4650   -1.8670 C   0  0  0  0  0  0  0  0  0  0  0  0
   29.0820   46.7690   -1.3880 C   0  0  0  0  0  0  0  0  0  0  0  0
   29.8990   44.9000   -2.6730 C   0  0  0  0  0  0  0  0  0  0  0  0
   28.1180   47.3340   -0.5960 O   0  0  0  0  0  0  0  0  0  0  0  0
   30.2300   47.5030   -1.7050 C   0  0  0  0  0  0  0  0  0  0  0  0
   31.0620   45.6290   -3.0020 C   0  0  0  0  0  0  0  0  0  0  0  0
   32.1280   45.0010   -3.8760 C   0  0  0  0  0  0  0  0  0  0  0  0
   31.2160   46.9310   -2.5110 C   0  0  0  0  0  0  0  0  0  0  0  0
   32.6030   45.9260   -4.9700 C   0  0  0  0  0  0  0  0  0  0  0  0
   33.6460   46.5660   -4.9200 O   0  0  0  0  0  0  0  0  0  0  0  0
   31.7290   45.9390   -6.0110 O   0  0  0  0  0  0  0  0  0  0  0  0
   30.3540   46.1700   -5.6770 C   0  0  0  0  0  0  0  0  0  0  0  0
   29.9750   47.5540   -5.4130 N   0  0  0  0  0  0  0  0  0  0  0  0
   29.4860   48.2610   -6.3710 C   0  0  0  0  0  0  0  0  0  0  0  0
   29.2700   47.8620   -7.6670 N   0  0  0  0  0  0  0  0  0  0  0  0
   29.0800   49.7170   -6.0600 C   0  0  2  0  0  0  0  0  0  0  0  0
   28.4640   48.6550   -8.5400 C   0  0  2  0  0  0  0  0  0  0  0  0
   29.3050   50.5400   -7.3480 C   0  0  1  0  0  0  0  0  0  0  0  0
   29.8840   50.3240   -4.9840 N   0  0  0  0  0  0  0  0  0  0  0  0
   28.6450   48.4010   -9.9350 N   0  0  0  0  0  0  0  0  0  0  0  0
   28.5380   50.1020   -8.5030 N   0  0  0  0  0  0  0  0  0  0  0  0
   28.9090   51.9140   -7.1550 N   0  0  0  0  0  0  0  0  0  0  0  0
   29.3470   51.6700   -4.6910 C   0  0  0  0  0  0  0  0  0  0  0  0
   29.1430   52.5440   -5.9480 C   0  0  0  0  0  0  0  0  0  0  0  0
   29.1800   53.7750   -5.9050 O   0  0  0  0  0  0  0  0  0  0  0  0
  1  2  1  0
  2  3  1  0
  3  4  2  0
  3  5  1  0
  4  6  1  0
  4  7  1  0
  5  8  2  0
  8  9  1  0
  7 10  2  0
  8 10  1  0
  9 11  1  0
 11 12  2  0
 11 13  1  0
 13 14  1  0
 14 15  1  0
 15 16  2  3
 16 17  1  0
 16 18  1  0
 17 19  1  0
 18 20  1  0
 18 21  1  1
 19 22  1  6
 19 23  1  0
 20 23  1  6
 20 24  1  0
 21 25  1  0
 24 26  1  0
 25 26  1  0
 26 27  2  0
M  END
