mac-x0328-mac-x0305
     RDKit          3D

 13 13  0  0  0  0  0  0  0  0999 V2000
   31.8240   47.8450   -3.8980 O   0  0  0  0  0  0  0  0  0  0  0  0
   31.0070   48.2670   -5.0040 C   0  0  1  0  0  0  0  0  0  0  0  0
   29.9580   47.1810   -5.3190 C   0  0  0  0  0  0  0  0  0  0  0  0
   30.4050   49.6300   -4.7230 C   0  0  0  0  0  0  0  0  0  0  0  0
   30.2660   46.5230   -6.4730 O   0  0  0  0  0  0  0  0  0  0  0  0
   28.9550   46.8570   -4.7030 O   0  0  0  0  0  0  0  0  0  0  0  0
   30.1100   50.5140   -5.7740 C   0  0  0  0  0  0  0  0  0  0  0  0
   30.1290   50.0520   -3.4090 C   0  0  0  0  0  0  0  0  0  0  0  0
   30.3730   50.1220   -7.0590 O   0  0  0  0  0  0  0  0  0  0  0  0
   29.5590   51.7730   -5.5310 C   0  0  0  0  0  0  0  0  0  0  0  0
   29.5770   51.3110   -3.1580 C   0  0  0  0  0  0  0  0  0  0  0  0
   29.2970   52.1610   -4.2230 C   0  0  0  0  0  0  0  0  0  0  0  0
   28.7570   53.3980   -4.0210 O   0  0  0  0  0  0  0  0  0  0  0  0
  2  1  1  1
  2  3  1  0
  2  4  1  0
  3  5  1  0
  3  6  2  0
  4  7  2  0
  4  8  1  0
  7  9  1  0
  7 10  1  0
  8 11  2  0
 10 12  2  0
 11 12  1  0
 12 13  1  0
M  END
