mac-x0226-mac-x0354
     RDKit          3D

 20 22  0  0  0  0  0  0  0  0999 V2000
   32.3230   45.8440   -6.6720 O   0  0  0  0  0  0  0  0  0  0  0  0
   33.4840   46.1730   -6.0660 C   0  0  0  0  0  0  0  0  0  0  0  0
   34.3410   46.7710   -6.6940 O   0  0  0  0  0  0  0  0  0  0  0  0
   33.5330   45.7360   -4.6300 C   0  0  1  0  0  0  0  0  0  0  0  0
   33.2090   44.2440   -4.4680 C   0  0  0  0  0  0  0  0  0  0  0  0
   34.8660   45.9720   -3.8620 C   0  0  0  0  0  0  0  0  0  0  0  0
   34.1880   43.7190   -3.4900 N   0  0  0  0  0  0  0  0  0  0  0  0
   34.7490   44.8740   -2.8720 N   0  0  0  0  0  0  0  0  0  0  0  0
   36.2000   45.7150   -4.5700 C   0  0  0  0  0  0  0  0  0  0  0  0
   34.8450   47.3640   -3.2440 C   0  0  0  0  0  0  0  0  0  0  0  0
   33.5470   42.9120   -2.4460 C   0  0  0  0  0  0  0  0  0  0  0  0
   35.7630   44.6630   -1.9280 C   0  0  0  0  0  0  0  0  0  0  0  0
   37.2990   46.4780   -4.3710 C   0  0  0  0  0  0  0  0  0  0  0  0
   35.9460   48.1210   -3.0600 C   0  0  0  0  0  0  0  0  0  0  0  0
   36.5090   45.7320   -1.4240 C   0  0  0  0  0  0  0  0  0  0  0  0
   36.0670   43.3770   -1.4500 C   0  0  0  0  0  0  0  0  0  0  0  0
   37.3250   47.6640   -3.4480 C   0  0  0  0  0  0  0  0  0  0  0  0
   37.5200   45.5370   -0.4870 C   0  0  0  0  0  0  0  0  0  0  0  0
   37.0760   43.1750   -0.5090 C   0  0  0  0  0  0  0  0  0  0  0  0
   37.8040   44.2560   -0.0280 C   0  0  0  0  0  0  0  0  0  0  0  0
  1  2  1  0
  2  3  2  0
  4  2  1  6
  4  5  1  0
  4  6  1  0
  5  7  1  0
  6  8  1  0
  7  8  1  0
  6  9  1  0
  6 10  1  0
  7 11  1  0
  8 12  1  0
  9 13  2  0
 10 14  2  0
 12 15  2  0
 12 16  1  0
 13 17  1  0
 14 17  1  0
 15 18  1  0
 16 19  2  0
 18 20  2  0
 19 20  1  0
M  END
