mac-x0437-mac-x0509
     RDKit          3D

 19 21  0  0  0  0  0  0  0  0999 V2000
   31.1640   44.8690   -6.2850 O   0  0  0  0  0  0  0  0  0  0  0  0
   32.4820   44.5860   -6.4100 C   0  0  0  0  0  0  0  0  0  0  0  0
   33.0410   44.5660   -7.4950 O   0  0  0  0  0  0  0  0  0  0  0  0
   33.1420   44.3100   -5.0810 C   0  0  0  0  0  0  0  0  0  0  0  0
   33.0480   45.5270   -4.1550 C   0  0  0  0  0  0  0  0  0  0  0  0
   34.3930   46.0390   -3.8220 N   0  0  0  0  0  0  0  0  0  0  0  0
   34.3650   47.4960   -3.5700 C   0  0  0  0  0  0  0  0  0  0  0  0
   34.9660   45.5450   -2.5580 C   0  0  2  0  0  0  0  0  0  0  0  0
   35.4430   47.8320   -2.6390 N   0  0  0  0  0  0  0  0  0  0  0  0
   36.0770   46.5520   -2.3000 C   0  0  2  0  0  0  0  0  0  0  0  0
   35.4410   44.0960   -2.3860 C   0  0  0  0  0  0  0  0  0  0  0  0
   37.2510   46.1870   -3.1770 C   0  0  0  0  0  0  0  0  0  0  0  0
   36.9300   43.9980   -1.9580 C   0  0  2  0  0  0  0  0  0  0  0  0
   37.6480   46.8870   -4.1120 O   0  0  0  0  0  0  0  0  0  0  0  0
   37.9090   44.8680   -2.8010 C   0  0  1  0  0  0  0  0  0  0  0  0
   37.3270   42.5360   -1.9790 C   0  0  0  0  0  0  0  0  0  0  0  0
   38.0540   42.0160   -2.9810 C   0  0  0  0  0  0  0  0  0  0  0  0
   38.4370   44.1680   -4.0310 C   0  0  0  0  0  0  0  0  0  0  0  0
   38.4950   42.8290   -4.0900 C   0  0  0  0  0  0  0  0  0  0  0  0
  1  2  1  0
  2  3  2  0
  2  4  1  0
  4  5  1  0
  5  6  1  0
  6  7  1  0
  6  8  1  0
  7  9  1  0
  8 10  1  0
 10  9  1  6
  8 11  1  6
 10 12  1  0
 13 11  1  6
 12 14  2  0
 12 15  1  0
 13 15  1  0
 13 16  1  0
 16 17  2  0
 15 18  1  6
 17 19  1  0
 18 19  2  0
M  END
