mac-x0411-mac-x0142
     RDKit          3D

 29 33  0  0  0  0  0  0  0  0999 V2000
   37.8130   44.7090   -3.7810 Cl  0  0  0  0  0  0  0  0  0  0  0  0
   36.8200   46.0790   -3.4310 C   0  0  0  0  0  0  0  0  0  0  0  0
   35.4530   45.9650   -3.1120 C   0  0  0  0  0  0  0  0  0  0  0  0
   37.4280   47.3350   -3.4750 C   0  0  0  0  0  0  0  0  0  0  0  0
   34.8070   44.7510   -3.0550 O   0  0  0  0  0  0  0  0  0  0  0  0
   34.6960   47.1230   -2.8320 C   0  0  0  0  0  0  0  0  0  0  0  0
   36.6860   48.4810   -3.2000 C   0  0  0  0  0  0  0  0  0  0  0  0
   33.2230   47.0730   -2.4730 C   0  0  0  0  0  0  0  0  0  0  0  0
   34.9350   43.9770   -4.2570 C   0  0  0  0  0  0  0  0  0  0  0  0
   35.3330   48.3750   -2.8820 C   0  0  0  0  0  0  0  0  0  0  0  0
   34.7270   44.9100   -5.4250 C   0  0  0  0  0  0  0  0  0  0  0  0
   32.2730   46.6330   -3.6120 C   0  0  1  0  0  0  0  0  0  0  0  0
   34.7480   44.5420   -6.6010 O   0  0  0  0  0  0  0  0  0  0  0  0
   31.7610   45.2010   -3.3680 C   0  0  0  0  0  0  0  0  0  0  0  0
   31.0850   47.5860   -3.8180 C   0  0  0  0  0  0  0  0  0  0  0  0
   30.7570   44.7620   -4.4120 C   0  0  0  0  0  0  0  0  0  0  0  0
   30.1400   47.1000   -4.8430 N   0  0  0  0  0  0  0  0  0  0  0  0
   30.4680   43.2780   -4.5180 C   0  0  0  0  0  0  0  0  0  0  0  0
   31.2590   43.9560   -5.5970 C   0  0  0  0  0  0  0  0  0  0  0  0
   29.6240   45.7370   -4.6380 C   0  0  0  0  0  0  0  0  0  0  0  0
   29.5850   47.9660   -5.7970 C   0  0  0  0  0  0  0  0  0  0  0  0
   29.2510   47.4960   -7.0580 N   0  0  0  0  0  0  0  0  0  0  0  0
   29.3300   49.2760   -5.6020 C   0  0  0  0  0  0  0  0  0  0  0  0
   28.7070   48.2920   -8.0260 C   0  0  0  0  0  0  0  0  0  0  0  0
   28.7360   50.0860   -6.6990 C   0  0  0  0  0  0  0  0  0  0  0  0
   29.4680   50.2320   -4.5460 C   0  0  0  0  0  0  0  0  0  0  0  0
   28.4340   49.5490   -7.9170 N   0  0  0  0  0  0  0  0  0  0  0  0
   28.5490   51.3330   -6.3570 N   0  0  0  0  0  0  0  0  0  0  0  0
   29.0040   51.3900   -5.0480 C   0  0  0  0  0  0  0  0  0  0  0  0
  1  2  1  0
  2  3  2  0
  2  4  1  0
  3  5  1  0
  3  6  1  0
  4  7  2  0
  6  8  1  0
  5  9  1  0
  6 10  2  0
  7 10  1  0
  9 11  1  0
 12  8  1  1
 11 13  2  0
 12 14  1  0
 12 15  1  0
 16 14  1  0
 15 17  1  0
 16 18  1  0
 16 19  1  0
 18 19  1  0
 16 20  1  0
 17 20  1  0
 17 21  1  0
 21 22  1  0
 21 23  2  0
 22 24  1  0
 23 25  1  0
 23 26  1  0
 24 27  2  0
 25 27  1  0
 25 28  2  0
 26 29  2  0
 28 29  1  0
M  END
