mac-x0283-mac-x0510
     RDKit          3D

 14 16  0  0  0  0  0  0  0  0999 V2000
   28.2420   54.5320   -6.4930 N   0  0  0  0  0  0  0  0  0  0  0  0
   28.8910   53.8350   -5.5440 C   0  0  0  0  0  0  0  0  0  0  0  0
   29.6150   54.3790   -4.5650 N   0  0  0  0  0  0  0  0  0  0  0  0
   28.8970   52.4350   -5.4560 C   0  0  0  0  0  0  0  0  0  0  0  0
   30.1060   53.3220   -3.8190 O   0  0  0  0  0  0  0  0  0  0  0  0
   29.6750   52.1430   -4.3530 C   0  0  0  0  0  0  0  0  0  0  0  0
   28.2690   51.3590   -6.2730 C   0  0  0  0  0  0  0  0  0  0  0  0
   29.9550   50.8360   -3.8880 C   0  0  0  0  0  0  0  0  0  0  0  0
   29.0090   49.9820   -6.0860 C   0  0  1  0  0  0  0  0  0  0  0  0
   29.6430   49.8110   -4.7050 C   0  0  0  0  0  0  0  0  0  0  0  0
   28.0690   48.8550   -6.3300 N   0  0  0  0  0  0  0  0  0  0  0  0
   30.0820   49.7970   -7.1880 C   0  0  0  0  0  0  0  0  0  0  0  0
   29.4350   48.9180   -8.1740 N   0  0  0  0  0  0  0  0  0  0  0  0
   28.6850   48.0100   -7.3340 C   0  0  0  0  0  0  0  0  0  0  0  0
  1  2  1  0
  2  3  2  0
  2  4  1  0
  3  5  1  0
  4  6  2  0
  5  6  1  0
  4  7  1  0
  6  8  1  0
  9  7  1  1
  8 10  2  0
  9 10  1  0
  9 11  1  0
  9 12  1  0
 12 13  1  0
 11 14  1  0
 13 14  1  0
M  END
