mac-x0138-mac-x0453
     RDKit          3D

 14 15  0  0  0  0  0  0  0  0999 V2000
   30.3040   46.8060   -4.0760 C   0  0  0  0  0  0  0  0  0  0  0  0
   29.9550   48.1620   -4.4040 N   0  0  0  0  0  0  0  0  0  0  0  0
   29.8610   49.2120   -3.5320 C   0  0  0  0  0  0  0  0  0  0  0  0
   29.6560   48.6270   -5.6530 C   0  0  0  0  0  0  0  0  0  0  0  0
   29.5200   50.3280   -4.1460 N   0  0  0  0  0  0  0  0  0  0  0  0
   29.3880   49.9730   -5.4750 C   0  0  0  0  0  0  0  0  0  0  0  0
   29.6250   47.9400   -6.8030 N   0  0  0  0  0  0  0  0  0  0  0  0
   29.0460   50.7050   -6.6240 C   0  0  0  0  0  0  0  0  0  0  0  0
   29.2890   48.7210   -7.8420 C   0  0  0  0  0  0  0  0  0  0  0  0
   28.7560   52.0780   -6.5570 N   0  0  0  0  0  0  0  0  0  0  0  0
   29.2290   48.1140   -9.0820 N   0  0  0  0  0  0  0  0  0  0  0  0
   29.0050   50.0360   -7.8050 N   0  0  0  0  0  0  0  0  0  0  0  0
   29.8650   52.9450   -6.8590 C   0  0  0  0  0  0  0  0  0  0  0  0
   29.5060   54.2470   -7.3980 N   0  0  0  0  0  0  0  0  0  0  0  0
  1  2  1  0
  2  3  1  0
  2  4  1  0
  3  5  2  0
  4  6  2  0
  5  6  1  0
  4  7  1  0
  6  8  1  0
  7  9  2  0
  8 10  1  0
  9 11  1  0
  8 12  2  0
  9 12  1  0
 10 13  1  0
 13 14  1  0
M  END
