mac-x0283-mac-x0321
     RDKit          3D

 14 15  0  0  0  0  0  0  0  0999 V2000
   28.4680   54.5580   -6.4320 N   0  0  0  0  0  0  0  0  0  0  0  0
   29.0370   53.8400   -5.4470 C   0  0  0  0  0  0  0  0  0  0  0  0
   29.5360   54.3800   -4.3290 N   0  0  0  0  0  0  0  0  0  0  0  0
   29.1830   52.4260   -5.4540 C   0  0  0  0  0  0  0  0  0  0  0  0
   30.0230   53.3240   -3.5800 O   0  0  0  0  0  0  0  0  0  0  0  0
   29.8140   52.1600   -4.2470 C   0  0  0  0  0  0  0  0  0  0  0  0
   28.8910   51.3240   -6.2740 C   0  0  0  0  0  0  0  0  0  0  0  0
   28.1120   51.6300   -7.7620 Cl  0  0  0  0  0  0  0  0  0  0  0  0
   30.1740   50.8880   -3.7960 C   0  0  0  0  0  0  0  0  0  0  0  0
   29.2260   50.0240   -5.8760 C   0  0  0  0  0  0  0  0  0  0  0  0
   29.8650   49.8100   -4.6440 C   0  0  0  0  0  0  0  0  0  0  0  0
   30.2030   48.4140   -4.2640 C   0  0  0  0  0  0  0  0  0  0  0  0
   30.5550   47.6560   -5.3160 O   0  0  0  0  0  0  0  0  0  0  0  0
   30.1750   47.9600   -3.1340 O   0  0  0  0  0  0  0  0  0  0  0  0
  1  2  1  0
  2  3  2  0
  2  4  1  0
  3  5  1  0
  4  6  2  0
  5  6  1  0
  4  7  1  0
  7  8  1  0
  6  9  1  0
  7 10  2  0
  9 11  2  0
 10 11  1  0
 11 12  1  0
 12 13  1  0
 12 14  2  0
M  END
