mac-x0283-mac-x0213
     RDKit          3D

 25 28  0  0  0  0  0  0  0  0999 V2000
   28.2630   54.6430   -6.7060 N   0  0  0  0  0  0  0  0  0  0  0  0
   28.8170   54.0400   -5.6280 C   0  0  0  0  0  0  0  0  0  0  0  0
   29.2460   54.6890   -4.5320 N   0  0  0  0  0  0  0  0  0  0  0  0
   29.0210   52.6410   -5.5200 C   0  0  0  0  0  0  0  0  0  0  0  0
   29.7420   53.7120   -3.6810 O   0  0  0  0  0  0  0  0  0  0  0  0
   29.6110   52.4970   -4.2670 C   0  0  0  0  0  0  0  0  0  0  0  0
   28.7920   51.4940   -6.2970 C   0  0  0  0  0  0  0  0  0  0  0  0
   30.0030   51.2840   -3.7200 C   0  0  0  0  0  0  0  0  0  0  0  0
   29.1800   50.2490   -5.7710 C   0  0  0  0  0  0  0  0  0  0  0  0
   29.7820   50.1430   -4.4980 C   0  0  0  0  0  0  0  0  0  0  0  0
   30.2030   48.7990   -3.9770 C   0  0  0  0  0  0  0  0  0  0  0  0
   31.5450   48.4210   -4.6210 C   0  0  0  0  0  0  0  0  0  0  0  0
   31.3600   47.5960   -5.9030 C   0  0  0  0  0  0  0  0  0  0  0  0
   31.9510   46.1710   -5.8190 C   0  0  0  0  0  0  0  0  0  0  0  0
   33.3610   46.2550   -5.9830 O   0  0  0  0  0  0  0  0  0  0  0  0
   31.4530   45.4350   -6.9220 O   0  0  0  0  0  0  0  0  0  0  0  0
   31.6550   45.4900   -4.4500 C   0  0  0  0  0  0  0  0  0  0  0  0
   31.7180   46.4590   -3.2260 C   0  0  0  0  0  0  0  0  0  0  0  0
   30.2900   44.7650   -4.3900 C   0  0  0  0  0  0  0  0  0  0  0  0
   30.3840   46.3200   -2.5680 C   0  0  0  0  0  0  0  0  0  0  0  0
   29.5890   45.3720   -3.2120 C   0  0  0  0  0  0  0  0  0  0  0  0
   29.9170   47.0050   -1.4540 C   0  0  0  0  0  0  0  0  0  0  0  0
   28.3110   45.0810   -2.7560 C   0  0  0  0  0  0  0  0  0  0  0  0
   28.6320   46.7220   -0.9860 C   0  0  0  0  0  0  0  0  0  0  0  0
   27.8320   45.7630   -1.6330 C   0  0  0  0  0  0  0  0  0  0  0  0
  1  2  1  0
  2  3  2  0
  2  4  1  0
  3  5  1  0
  4  6  2  0
  5  6  1  0
  4  7  1  0
  6  8  1  0
  7  9  2  0
  8 10  2  0
  9 10  1  0
 10 11  1  0
 11 12  1  0
 12 13  1  0
 13 14  1  0
 14 15  1  0
 14 16  1  0
 14 17  1  0
 17 18  1  0
 17 19  1  0
 18 20  1  0
 19 21  1  0
 20 21  2  0
 20 22  1  0
 21 23  1  0
 22 24  2  0
 23 25  2  0
 24 25  1  0
M  END
