mac-x0255-mac-x0385
     RDKit          3D

 24 26  0  0  0  0  0  0  0  0999 V2000
   31.6660   45.4420   -8.0540 O   0  0  0  0  0  0  0  0  0  0  0  0
   32.4080   45.6600   -6.8580 C   0  0  0  0  0  0  0  0  0  0  0  0
   33.7330   45.9420   -7.2630 O   0  0  0  0  0  0  0  0  0  0  0  0
   32.3290   44.4070   -5.9490 C   0  0  0  0  0  0  0  0  0  0  0  0
   31.8340   46.9250   -6.1760 C   0  0  0  0  0  0  0  0  0  0  0  0
   30.4130   47.3080   -6.6120 C   0  0  0  0  0  0  0  0  0  0  0  0
   31.3250   44.5420   -4.8250 C   0  0  0  0  0  0  0  0  0  0  0  0
   29.4910   47.4730   -5.4020 C   0  0  0  0  0  0  0  0  0  0  0  0
   29.9810   44.2290   -4.8380 C   0  0  0  0  0  0  0  0  0  0  0  0
   31.8110   45.1480   -3.3030 S   0  0  0  0  0  0  0  0  0  0  0  0
   29.3260   44.4920   -3.5890 C   0  0  0  0  0  0  0  0  0  0  0  0
   30.2260   45.0060   -2.6490 C   0  0  0  0  0  0  0  0  0  0  0  0
   29.4450   48.9030   -4.9300 C   0  0  0  0  0  0  0  0  0  0  0  0
   27.9790   44.3140   -3.2000 C   0  0  0  0  0  0  0  0  0  0  0  0
   29.8130   45.3430   -1.3450 C   0  0  0  0  0  0  0  0  0  0  0  0
   28.6080   49.7440   -5.5680 N   0  0  0  0  0  0  0  0  0  0  0  0
   30.2420   49.2500   -3.8990 N   0  0  0  0  0  0  0  0  0  0  0  0
   27.5660   44.6470   -1.9050 C   0  0  0  0  0  0  0  0  0  0  0  0
   28.4740   45.1570   -0.9880 C   0  0  0  0  0  0  0  0  0  0  0  0
   28.5740   51.0120   -5.1350 C   0  0  0  0  0  0  0  0  0  0  0  0
   30.1700   50.5300   -3.5020 C   0  0  0  0  0  0  0  0  0  0  0  0
   27.6960   51.8530   -5.8210 N   0  0  0  0  0  0  0  0  0  0  0  0
   29.3480   51.4720   -4.0820 C   0  0  0  0  0  0  0  0  0  0  0  0
   29.3180   52.8800   -3.5870 C   0  0  0  0  0  0  0  0  0  0  0  0
  2  1  1  0
  2  3  1  0
  2  4  1  0
  2  5  1  0
  5  6  1  0
  4  7  1  0
  6  8  1  0
  7  9  2  0
  7 10  1  0
  9 11  1  0
 10 12  1  0
 11 12  2  0
  8 13  1  0
 11 14  1  0
 12 15  1  0
 13 16  2  0
 13 17  1  0
 14 18  2  0
 15 19  2  0
 18 19  1  0
 16 20  1  0
 17 21  2  0
 20 22  1  0
 20 23  2  0
 21 23  1  0
 23 24  1  0
M  END
