mac-x0373-mac-x0283
     RDKit          3D

 21 23  0  0  0  0  0  0  0  0999 V2000
   30.7600   46.0040   -6.6390 O   0  0  0  0  0  0  0  0  0  0  0  0
   30.1620   46.6370   -5.6010 C   0  0  0  0  0  0  0  0  0  0  0  0
   29.1430   46.1890   -5.1150 O   0  0  0  0  0  0  0  0  0  0  0  0
   30.9710   47.8780   -5.2530 C   0  0  2  0  0  0  0  0  0  0  0  0
   32.2430   47.7580   -4.4300 C   0  0  0  0  0  0  0  0  0  0  0  0
   30.2450   49.2540   -5.0850 C   0  0  2  0  0  0  0  0  0  0  0  0
   32.6280   46.6600   -3.6480 C   0  0  0  0  0  0  0  0  0  0  0  0
   33.1000   48.8690   -4.4890 C   0  0  0  0  0  0  0  0  0  0  0  0
   29.1330   49.6010   -4.0920 C   0  0  0  0  0  0  0  0  0  0  0  0
   29.8290   49.7810   -6.4300 C   0  0  0  0  0  0  0  0  0  0  0  0
   33.8420   46.6840   -2.9530 C   0  0  0  0  0  0  0  0  0  0  0  0
   34.3040   48.8920   -3.7980 C   0  0  0  0  0  0  0  0  0  0  0  0
   28.6030   50.8650   -4.1610 C   0  0  0  0  0  0  0  0  0  0  0  0
   29.3260   51.0060   -6.5040 C   0  0  0  0  0  0  0  0  0  0  0  0
   34.6780   47.7970   -3.0290 C   0  0  0  0  0  0  0  0  0  0  0  0
   29.1790   51.8230   -5.2320 C   0  0  1  0  0  0  0  0  0  0  0  0
   28.7820   53.3140   -5.5100 C   0  0  1  0  0  0  0  0  0  0  0  0
   30.5060   52.2490   -4.6170 C   0  0  0  0  0  0  0  0  0  0  0  0
   27.5060   53.7080   -6.0630 N   0  0  0  0  0  0  0  0  0  0  0  0
   28.9990   54.0290   -4.2720 N   0  0  0  0  0  0  0  0  0  0  0  0
   30.1760   53.3420   -3.7230 O   0  0  0  0  0  0  0  0  0  0  0  0
  1  2  1  0
  2  3  2  0
  4  2  1  1
  4  5  1  0
  4  6  1  0
  5  7  2  0
  5  8  1  0
  6  9  1  1
  6 10  1  0
  7 11  1  0
  8 12  2  0
  9 13  2  0
 10 14  2  0
 11 15  2  0
 12 15  1  0
 16 13  1  1
 14 16  1  0
 16 17  1  0
 16 18  1  0
 17 19  1  1
 17 20  1  0
 18 21  1  0
 20 21  1  0
M  END
