mac-242_0_A_α-x0742_0_A_α
     RDKit          3D

 21 24  0  0  0  0  0  0  0  0999 V2000
   -4.2660   15.2650    1.8530 N   0  0  0  0  0  0  0  0  0  0  0  0
   -3.8200   13.9880    1.3480 C   0  0  2  0  0  0  0  0  0  0  0  0
   -2.4300   14.0140    1.9270 N   0  0  0  0  0  0  0  0  0  0  0  0
   -4.0740   13.7410   -0.1620 C   0  0  2  0  0  0  0  0  0  0  0  0
   -4.9100   13.1450    2.0490 C   0  0  0  0  0  0  0  0  0  0  0  0
   -4.5570   12.2850   -0.6750 C   0  0  0  0  0  0  0  0  0  0  0  0
   -3.0960   14.5090   -1.0980 C   0  0  1  0  0  0  0  0  0  0  0  0
   -1.2710   13.9700    1.3490 C   0  0  0  0  0  0  0  0  0  0  0  0
   -5.3520   14.5060   -0.5150 C   0  0  2  0  0  0  0  0  0  0  0  0
   -6.1800   12.8970    1.2380 C   0  0  0  0  0  0  0  0  0  0  0  0
   -3.9340   11.6270   -1.5070 O   0  0  0  0  0  0  0  0  0  0  0  0
   -5.8560   11.6390   -0.2070 C   0  0  0  0  0  0  0  0  0  0  0  0
   -1.6100   14.0920   -1.1310 C   0  0  0  0  0  0  0  0  0  0  0  0
   -0.8470   13.8710   -0.0550 C   0  0  0  0  0  0  0  0  0  0  0  0
   -3.6480   14.9170   -2.4670 C   0  0  0  0  0  0  0  0  0  0  0  0
   -4.8650   15.9310   -0.2960 C   0  0  0  0  0  0  0  0  0  0  0  0
   -3.3410   15.8810   -0.4850 C   0  0  0  0  0  0  0  0  0  0  0  0
   -6.5570   14.0590    0.3010 C   0  0  0  0  0  0  0  0  0  0  0  0
   -0.9770   13.9400   -2.4320 C   0  0  0  0  0  0  0  0  0  0  0  0
   -2.9550   14.8030   -3.5780 C   0  0  0  0  0  0  0  0  0  0  0  0
   -1.6150   14.2770   -3.5650 C   0  0  0  0  0  0  0  0  0  0  0  0
  2  1  1  6
  2  3  1  0
  2  4  1  0
  2  5  1  0
  4  6  1  1
  4  7  1  0
  3  8  2  0
  4  9  1  0
  5 10  1  0
  6 11  2  0
  6 12  1  0
  7 13  1  0
  8 14  1  0
 13 14  2  0
  7 15  1  6
  9 16  1  1
  7 17  1  0
 16 17  1  0
  9 18  1  0
 10 18  1  0
 13 19  1  0
 15 20  2  0
 19 21  2  0
 20 21  1  0
M  END
