mac-x0301-mac-x0179
     RDKit          3D

 25 28  0  0  0  0  0  0  0  0999 V2000
   30.2410   46.3210   -2.8020 O   0  0  0  0  0  0  0  0  0  0  0  0
   31.0910   46.9030   -3.7050 C   0  0  0  0  0  0  0  0  0  0  0  0
   32.4800   46.8070   -3.6880 C   0  0  0  0  0  0  0  0  0  0  0  0
   30.2770   47.7650   -4.6590 C   0  0  0  0  0  0  0  0  0  0  0  0
   33.1720   47.4590   -4.8300 C   0  0  0  0  0  0  0  0  0  0  0  0
   29.8680   47.6800   -6.0090 C   0  0  0  0  0  0  0  0  0  0  0  0
   29.8440   48.9420   -3.9910 C   0  0  0  0  0  0  0  0  0  0  0  0
   33.4510   46.2600   -2.7640 N   0  0  0  0  0  0  0  0  0  0  0  0
   33.9520   46.8200   -5.5430 O   0  0  0  0  0  0  0  0  0  0  0  0
   29.1070   48.7020   -6.5960 C   0  0  0  0  0  0  0  0  0  0  0  0
   29.0810   49.9500   -4.5970 C   0  0  0  0  0  0  0  0  0  0  0  0
   30.1110   46.6930   -6.9160 O   0  0  0  0  0  0  0  0  0  0  0  0
   34.1520   45.0390   -2.5540 C   0  0  0  0  0  0  0  0  0  0  0  0
   34.2780   47.2580   -2.3080 C   0  0  0  0  0  0  0  0  0  0  0  0
   33.8540   43.8760   -2.7730 O   0  0  0  0  0  0  0  0  0  0  0  0
   34.0580   48.4520   -2.3200 O   0  0  0  0  0  0  0  0  0  0  0  0
   28.7040   49.8350   -5.9220 C   0  0  0  0  0  0  0  0  0  0  0  0
   28.8080   48.4660   -7.8980 O   0  0  0  0  0  0  0  0  0  0  0  0
   29.2850   47.1160   -8.0260 C   0  0  0  0  0  0  0  0  0  0  0  0
   35.4730   45.3820   -1.9240 C   0  0  0  0  0  0  0  0  0  0  0  0
   35.5200   46.7430   -1.7960 C   0  0  0  0  0  0  0  0  0  0  0  0
   36.5510   44.6090   -1.4950 C   0  0  0  0  0  0  0  0  0  0  0  0
   36.6010   47.4310   -1.2600 C   0  0  0  0  0  0  0  0  0  0  0  0
   37.6660   45.2760   -0.9420 C   0  0  0  0  0  0  0  0  0  0  0  0
   37.6890   46.6810   -0.8280 C   0  0  0  0  0  0  0  0  0  0  0  0
  1  2  1  0
  2  3  2  3
  2  4  1  0
  3  5  1  0
  4  6  1  0
  4  7  2  0
  3  8  1  0
  5  9  2  0
  6 10  2  0
  7 11  1  0
  6 12  1  0
  8 13  1  0
  8 14  1  0
 13 15  2  0
 14 16  2  0
 10 17  1  0
 11 17  2  0
 10 18  1  0
 12 19  1  0
 18 19  1  0
 13 20  1  0
 14 21  1  0
 20 21  2  0
 20 22  1  0
 21 23  1  0
 22 24  2  0
 23 25  2  0
 24 25  1  0
M  END
