mac-x0361-mac-x0338
     RDKit          3D

 11 11  0  0  0  0  0  0  0  0999 V2000
   27.9200   53.6440   -5.3540 N   0  0  0  0  0  0  0  0  0  0  0  0
   29.2530   53.1790   -5.5480 C   0  0  0  0  0  0  0  0  0  0  0  0
   30.0880   54.1870   -5.0610 O   0  0  0  0  0  0  0  0  0  0  0  0
   29.4210   53.1400   -6.9620 N   0  0  0  0  0  0  0  0  0  0  0  0
   29.5330   51.8320   -4.9000 C   0  0  0  0  0  0  0  0  0  0  0  0
   29.5200   50.6470   -5.6630 C   0  0  0  0  0  0  0  0  0  0  0  0
   29.8140   51.7220   -3.5220 C   0  0  0  0  0  0  0  0  0  0  0  0
   29.7760   49.4060   -5.0710 C   0  0  0  0  0  0  0  0  0  0  0  0
   30.0720   50.4820   -2.9270 C   0  0  0  0  0  0  0  0  0  0  0  0
   30.0510   49.3340   -3.7100 C   0  0  0  0  0  0  0  0  0  0  0  0
   30.2990   48.1040   -3.1760 O   0  0  0  0  0  0  0  0  0  0  0  0
  1  2  1  0
  2  3  1  0
  2  4  1  0
  2  5  1  0
  5  6  2  0
  5  7  1  0
  6  8  1  0
  7  9  2  0
  8 10  2  0
  9 10  1  0
 10 11  1  0
M  END
