mac-x0436-mac-x0283
     RDKit          3D

 28 31  0  0  0  0  0  0  0  0999 V2000
   33.7200   45.7670   -6.5760 O   0  0  0  0  0  0  0  0  0  0  0  0
   32.5350   45.2470   -6.2030 C   0  0  0  0  0  0  0  0  0  0  0  0
   31.5070   45.5720   -6.7760 O   0  0  0  0  0  0  0  0  0  0  0  0
   32.6520   44.2690   -5.0650 C   0  0  0  0  0  0  0  0  0  0  0  0
   32.6130   44.9420   -3.7020 C   0  0  0  0  0  0  0  0  0  0  0  0
   33.8910   45.6940   -3.3990 C   0  0  0  0  0  0  0  0  0  0  0  0
   33.8340   47.2180   -3.4770 C   0  0  0  0  0  0  0  0  0  0  0  0
   34.9700   45.0490   -3.0860 N   0  0  0  0  0  0  0  0  0  0  0  0
   32.6190   47.6030   -3.6370 N   0  0  0  0  0  0  0  0  0  0  0  0
   35.0280   47.9000   -3.3610 N   0  0  0  0  0  0  0  0  0  0  0  0
   36.1320   45.7900   -2.8230 C   0  0  0  0  0  0  0  0  0  0  0  0
   32.1140   48.9510   -3.7430 C   0  0  0  0  0  0  0  0  0  0  0  0
   36.1850   47.1960   -2.9550 C   0  0  0  0  0  0  0  0  0  0  0  0
   37.2690   45.0850   -2.4200 C   0  0  0  0  0  0  0  0  0  0  0  0
   30.5820   48.8950   -3.8760 C   0  0  0  0  0  0  0  0  0  0  0  0
   38.4580   45.7590   -2.1490 C   0  0  0  0  0  0  0  0  0  0  0  0
   37.3860   47.8640   -2.6800 C   0  0  0  0  0  0  0  0  0  0  0  0
   38.5170   47.1440   -2.2800 C   0  0  0  0  0  0  0  0  0  0  0  0
   30.0450   50.1570   -4.4740 C   0  0  0  0  0  0  0  0  0  0  0  0
   30.1910   51.3230   -3.7190 C   0  0  0  0  0  0  0  0  0  0  0  0
   29.4330   50.1830   -5.7360 C   0  0  0  0  0  0  0  0  0  0  0  0
   29.7200   52.4870   -4.2880 C   0  0  0  0  0  0  0  0  0  0  0  0
   28.9630   51.3860   -6.2840 C   0  0  0  0  0  0  0  0  0  0  0  0
   29.7750   53.7170   -3.7230 O   0  0  0  0  0  0  0  0  0  0  0  0
   29.1220   52.5660   -5.5290 C   0  0  0  0  0  0  0  0  0  0  0  0
   28.8320   53.9440   -5.6650 C   0  0  0  0  0  0  0  0  0  0  0  0
   29.2180   54.6380   -4.5900 N   0  0  0  0  0  0  0  0  0  0  0  0
   28.2420   54.4860   -6.7460 N   0  0  0  0  0  0  0  0  0  0  0  0
  1  2  1  0
  2  3  2  0
  2  4  1  0
  4  5  1  0
  5  6  1  0
  6  7  1  0
  6  8  2  0
  7  9  2  3
  7 10  1  0
  8 11  1  0
  9 12  1  0
 10 13  1  0
 11 13  2  0
 11 14  1  0
 12 15  1  0
 14 16  2  0
 13 17  1  0
 16 18  1  0
 17 18  2  0
 15 19  1  0
 19 20  2  0
 19 21  1  0
 20 22  1  0
 21 23  2  0
 22 24  1  0
 22 25  2  0
 23 25  1  0
 25 26  1  0
 24 27  1  0
 26 27  2  0
 26 28  1  0
M  END
