mac-x0568-mac-x0433
     RDKit          3D

 11 11  0  0  0  0  0  0  0  0999 V2000
   29.5450   55.7080   -5.2800 C   0  0  0  0  0  0  0  0  0  0  0  0
   29.5470   54.2130   -5.2240 C   0  0  0  0  0  0  0  0  0  0  0  0
   29.3380   53.4660   -6.3780 C   0  0  0  0  0  0  0  0  0  0  0  0
   29.7600   53.6380   -4.0180 N   0  0  0  0  0  0  0  0  0  0  0  0
   29.7720   52.2920   -3.9250 C   0  0  0  0  0  0  0  0  0  0  0  0
   29.3490   52.0790   -6.2860 C   0  0  0  0  0  0  0  0  0  0  0  0
   29.9980   51.7760   -2.6370 N   0  0  0  0  0  0  0  0  0  0  0  0
   29.5680   51.4710   -5.0450 C   0  0  0  0  0  0  0  0  0  0  0  0
   29.5820   49.9910   -4.9130 C   0  0  0  0  0  0  0  0  0  0  0  0
   29.9700   49.4310   -3.8940 O   0  0  0  0  0  0  0  0  0  0  0  0
   29.1430   49.2560   -5.9830 N   0  0  0  0  0  0  0  0  0  0  0  0
  1  2  1  0
  2  3  2  0
  2  4  1  0
  4  5  2  0
  3  6  1  0
  5  7  1  0
  5  8  1  0
  6  8  2  0
  8  9  1  0
  9 10  2  0
  9 11  1  0
M  END
