mac-x0116-mac-x0398
     RDKit          3D

 25 28  0  0  0  0  0  0  0  0999 V2000
   27.3400   50.2980   -7.7880 N   0  0  0  0  0  0  0  0  0  0  0  0
   28.0640   49.4730   -6.9610 C   0  0  0  0  0  0  0  0  0  0  0  0
   28.4300   49.8830   -5.7150 N   0  0  0  0  0  0  0  0  0  0  0  0
   28.4500   48.2370   -7.2990 C   0  0  0  0  0  0  0  0  0  0  0  0
   29.2350   49.1360   -4.8730 C   0  0  0  0  0  0  0  0  0  0  0  0
   29.2270   47.4470   -6.3390 C   0  0  0  0  0  0  0  0  0  0  0  0
   28.2680   47.4800   -8.4180 N   0  0  0  0  0  0  0  0  0  0  0  0
   29.6420   47.9220   -5.1290 N   0  0  0  0  0  0  0  0  0  0  0  0
   29.4560   46.2740   -6.8410 N   0  0  0  0  0  0  0  0  0  0  0  0
   28.8550   46.3560   -8.0930 C   0  0  0  0  0  0  0  0  0  0  0  0
   29.6980   49.8600   -3.5730 C   0  0  0  0  0  0  0  0  0  0  0  0
   30.7370   49.1990   -2.8820 O   0  0  0  0  0  0  0  0  0  0  0  0
   28.5950   49.9970   -2.6890 O   0  0  0  0  0  0  0  0  0  0  0  0
   30.1290   51.1810   -4.1590 C   0  0  0  0  0  0  0  0  0  0  0  0
   30.0970   52.4290   -3.5220 C   0  0  0  0  0  0  0  0  0  0  0  0
   30.5950   51.1360   -5.4770 C   0  0  0  0  0  0  0  0  0  0  0  0
   29.6560   52.5720   -2.2320 O   0  0  0  0  0  0  0  0  0  0  0  0
   30.5160   53.5900   -4.1880 C   0  0  0  0  0  0  0  0  0  0  0  0
   31.0100   52.2780   -6.1410 C   0  0  0  0  0  0  0  0  0  0  0  0
   30.9790   53.5170   -5.5150 C   0  0  0  0  0  0  0  0  0  0  0  0
   31.4290   54.6790   -6.2610 C   0  0  0  0  0  0  0  0  0  0  0  0
   32.7850   54.8230   -6.3500 O   0  0  0  0  0  0  0  0  0  0  0  0
   30.8130   55.7140   -6.9350 C   0  0  0  0  0  0  0  0  0  0  0  0
   31.8470   56.5260   -7.4600 C   0  0  0  0  0  0  0  0  0  0  0  0
   33.0260   55.9370   -7.0740 C   0  0  0  0  0  0  0  0  0  0  0  0
  1  2  1  0
  2  3  1  0
  2  4  2  0
  3  5  1  0
  4  6  1  0
  4  7  1  0
  5  8  2  0
  6  8  1  0
  6  9  2  0
  7 10  2  0
  9 10  1  0
  5 11  1  0
 11 12  1  0
 11 13  1  0
 11 14  1  0
 14 15  2  0
 14 16  1  0
 15 17  1  0
 15 18  1  0
 16 19  2  0
 18 20  2  0
 19 20  1  0
 20 21  1  0
 21 22  1  0
 21 23  2  0
 23 24  1  0
 22 25  1  0
 24 25  2  0
M  END
