mac-x0565-mac-x0138
     RDKit          3D

 19 21  0  0  0  0  0  0  0  0999 V2000
   29.5300   53.8460   -4.5020 O   0  0  0  0  0  0  0  0  0  0  0  0
   30.3850   53.3440   -3.5930 C   0  0  0  0  0  0  0  0  0  0  0  0
   31.1260   54.0750   -2.9610 O   0  0  0  0  0  0  0  0  0  0  0  0
   30.3070   51.8660   -3.4720 C   0  0  0  0  0  0  0  0  0  0  0  0
   29.8320   51.1330   -4.5730 C   0  0  0  0  0  0  0  0  0  0  0  0
   30.6960   51.1940   -2.2940 C   0  0  0  0  0  0  0  0  0  0  0  0
   29.7570   49.7470   -4.4700 C   0  0  0  0  0  0  0  0  0  0  0  0
   30.6150   49.8000   -2.2050 C   0  0  0  0  0  0  0  0  0  0  0  0
   30.1440   49.1040   -3.3020 C   0  0  0  0  0  0  0  0  0  0  0  0
   29.2920   48.7440   -5.4820 C   0  0  2  0  0  0  0  0  0  0  0  0
   30.0150   47.7420   -3.3450 O   0  0  0  0  0  0  0  0  0  0  0  0
   29.2200   47.5090   -4.5390 C   0  0  0  0  0  0  0  0  0  0  0  0
   30.3220   48.4900   -6.5170 N   0  0  0  0  0  0  0  0  0  0  0  0
   27.9170   49.1020   -6.0100 C   0  0  0  0  0  0  0  0  0  0  0  0
   27.6540   49.1540   -7.3260 C   0  0  0  0  0  0  0  0  0  0  0  0
   29.9350   48.5750   -7.7420 C   0  0  0  0  0  0  0  0  0  0  0  0
   26.4120   49.4780   -7.8050 N   0  0  0  0  0  0  0  0  0  0  0  0
   30.8180   48.3590   -8.7490 N   0  0  0  0  0  0  0  0  0  0  0  0
   28.6840   48.8700   -8.1730 N   0  0  0  0  0  0  0  0  0  0  0  0
  1  2  1  0
  2  3  2  0
  2  4  1  0
  4  5  2  0
  4  6  1  0
  5  7  1  0
  6  8  2  0
  7  9  2  0
  8  9  1  0
  7 10  1  0
  9 11  1  0
 10 12  1  1
 11 12  1  0
 10 13  1  0
 10 14  1  0
 14 15  2  0
 13 16  2  0
 15 17  1  0
 16 18  1  0
 15 19  1  0
 16 19  1  0
M  END
