mac-x0433-mac-x0283
     RDKit          3D

 14 15  0  0  0  0  0  0  0  0999 V2000
   27.3710   50.4000   -6.9650 C   0  0  0  0  0  0  0  0  0  0  0  0
   28.1080   51.7210   -6.7870 C   0  0  0  0  0  0  0  0  0  0  0  0
   29.6490   51.5890   -6.7000 C   0  0  2  0  0  0  0  0  0  0  0  0
   30.1360   50.1110   -6.7230 C   0  0  0  0  0  0  0  0  0  0  0  0
   30.2570   52.2580   -5.4450 C   0  0  2  0  0  0  0  0  0  0  0  0
   29.9230   51.4710   -4.2550 N   0  0  0  0  0  0  0  0  0  0  0  0
   29.8270   53.7140   -5.0770 C   0  0  2  0  0  0  0  0  0  0  0  0
   29.9940   49.4050   -5.3980 C   0  0  0  0  0  0  0  0  0  0  0  0
   30.9130   54.7430   -5.3670 C   0  0  0  0  0  0  0  0  0  0  0  0
   29.8080   52.3890   -3.1580 C   0  0  1  0  0  0  0  0  0  0  0  0
   29.2960   53.6980   -3.6610 N   0  0  0  0  0  0  0  0  0  0  0  0
   29.8970   50.1060   -4.2580 C   0  0  0  0  0  0  0  0  0  0  0  0
   28.9220   52.0490   -2.0720 N   0  0  0  0  0  0  0  0  0  0  0  0
   27.8220   53.7300   -3.6710 N   0  0  0  0  0  0  0  0  0  0  0  0
  1  2  1  0
  3  2  1  1
  3  4  1  0
  3  5  1  0
  5  6  1  1
  5  7  1  0
  4  8  1  0
  7  9  1  1
  6 10  1  0
  7 11  1  0
 10 11  1  0
  6 12  1  0
  8 12  2  0
 10 13  1  1
 11 14  1  0
M  END
