mac-x0346-mac-x0588
     RDKit          3D

 26 29  0  0  0  0  0  0  0  0999 V2000
   30.2600   55.3270   -5.2000 O   0  0  0  0  0  0  0  0  0  0  0  0
   29.3540   55.0130   -4.1580 N   0  0  0  0  0  0  0  0  0  0  0  0
   29.5260   53.7730   -3.5800 C   0  0  0  0  0  0  0  0  0  0  0  0
   30.0860   53.6370   -2.4960 O   0  0  0  0  0  0  0  0  0  0  0  0
   28.9830   52.6330   -4.3600 C   0  0  0  0  0  0  0  0  0  0  0  0
   27.6100   52.3780   -4.4280 C   0  0  0  0  0  0  0  0  0  0  0  0
   29.8710   51.7910   -5.0400 C   0  0  0  0  0  0  0  0  0  0  0  0
   26.7260   53.1810   -3.7700 O   0  0  0  0  0  0  0  0  0  0  0  0
   27.1310   51.2980   -5.1690 C   0  0  0  0  0  0  0  0  0  0  0  0
   29.4060   50.6970   -5.7900 C   0  0  0  0  0  0  0  0  0  0  0  0
   28.0230   50.4630   -5.8470 C   0  0  0  0  0  0  0  0  0  0  0  0
   30.3930   49.7930   -6.5140 C   0  0  1  0  0  0  0  0  0  0  0  0
   31.3800   49.2430   -5.5700 N   0  0  0  0  0  0  0  0  0  0  0  0
   29.7270   48.6920   -7.3650 C   0  0  1  0  0  0  0  0  0  0  0  0
   30.8810   48.1530   -4.7330 C   0  0  0  0  0  0  0  0  0  0  0  0
   29.1760   47.6970   -6.3760 C   0  0  2  0  0  0  0  0  0  0  0  0
   28.5750   48.9020   -8.2600 N   0  0  0  0  0  0  0  0  0  0  0  0
   30.1480   47.1170   -5.4660 N   0  0  0  0  0  0  0  0  0  0  0  0
   28.6120   46.7250   -7.3070 N   0  0  0  0  0  0  0  0  0  0  0  0
   27.9680   47.5690   -8.3190 C   0  0  0  0  0  0  0  0  0  0  0  0
   29.5380   46.0570   -4.6470 C   0  0  0  0  0  0  0  0  0  0  0  0
   30.0210   45.8760   -3.1920 C   0  0  1  0  0  0  0  0  0  0  0  0
   29.2330   46.6250   -2.2460 O   0  0  0  0  0  0  0  0  0  0  0  0
   30.0690   44.4470   -2.6750 C   0  0  0  0  0  0  0  0  0  0  0  0
   28.6890   44.3160   -2.0750 C   0  0  0  0  0  0  0  0  0  0  0  0
   28.4810   45.6860   -1.4590 C   0  0  0  0  0  0  0  0  0  0  0  0
  1  2  1  0
  2  3  1  0
  3  4  2  0
  3  5  1  0
  5  6  2  0
  5  7  1  0
  6  8  1  0
  6  9  1  0
  7 10  2  0
  9 11  2  0
 10 11  1  0
 12 10  1  1
 12 13  1  0
 12 14  1  0
 13 15  1  0
 14 16  1  0
 14 17  1  1
 15 18  1  0
 16 18  1  0
 16 19  1  6
 17 20  1  0
 19 20  1  0
 18 21  1  0
 22 21  1  6
 22 23  1  0
 22 24  1  0
 24 25  1  0
 23 26  1  0
 25 26  1  0
M  END
