mac-x0354-mac-x0321
     RDKit          3D

 27 29  0  0  0  0  0  0  0  0999 V2000
   35.4460   43.4860   -1.7170 C   0  0  0  0  0  0  0  0  0  0  0  0
   34.6710   43.7310   -2.9140 N   0  0  0  0  0  0  0  0  0  0  0  0
   33.7350   42.8380   -3.2830 N   0  0  0  0  0  0  0  0  0  0  0  0
   34.7770   44.8120   -3.7630 C   0  0  0  0  0  0  0  0  0  0  0  0
   33.2270   43.3630   -4.4000 C   0  0  0  0  0  0  0  0  0  0  0  0
   33.8270   44.5960   -4.7600 C   0  0  0  0  0  0  0  0  0  0  0  0
   35.7280   45.9000   -3.5530 C   0  0  0  0  0  0  0  0  0  0  0  0
   33.4990   45.4140   -5.9140 C   0  0  0  0  0  0  0  0  0  0  0  0
   37.1050   45.6470   -3.5170 C   0  0  0  0  0  0  0  0  0  0  0  0
   35.2700   47.2130   -3.3870 C   0  0  0  0  0  0  0  0  0  0  0  0
   32.2750   45.6490   -6.2230 N   0  0  0  0  0  0  0  0  0  0  0  0
   34.5470   45.8950   -6.6070 O   0  0  0  0  0  0  0  0  0  0  0  0
   38.0070   46.6920   -3.3180 C   0  0  0  0  0  0  0  0  0  0  0  0
   36.1740   48.2560   -3.1880 C   0  0  0  0  0  0  0  0  0  0  0  0
   31.1530   45.1250   -5.4390 C   0  0  0  0  0  0  0  0  0  0  0  0
   37.5440   47.9960   -3.1550 C   0  0  0  0  0  0  0  0  0  0  0  0
   29.9460   46.0720   -5.4350 C   0  0  0  0  0  0  0  0  0  0  0  0
   30.3700   47.4510   -5.5070 O   0  0  0  0  0  0  0  0  0  0  0  0
   30.4290   48.0650   -4.2930 C   0  0  0  0  0  0  0  0  0  0  0  0
   30.8100   47.5500   -3.2540 O   0  0  0  0  0  0  0  0  0  0  0  0
   29.9670   49.4770   -4.3600 C   0  0  0  0  0  0  0  0  0  0  0  0
   29.4910   50.0670   -5.5390 C   0  0  0  0  0  0  0  0  0  0  0  0
   30.0170   50.2320   -3.1780 C   0  0  0  0  0  0  0  0  0  0  0  0
   29.0750   51.4000   -5.5170 C   0  0  0  0  0  0  0  0  0  0  0  0
   29.6000   51.5630   -3.1670 C   0  0  0  0  0  0  0  0  0  0  0  0
   28.4900   52.1390   -6.9580 Cl  0  0  0  0  0  0  0  0  0  0  0  0
   29.1270   52.1480   -4.3410 C   0  0  0  0  0  0  0  0  0  0  0  0
  1  2  1  0
  2  3  1  0
  2  4  1  0
  3  5  2  0
  4  6  2  0
  5  6  1  0
  4  7  1  0
  6  8  1  0
  7  9  2  0
  7 10  1  0
  8 11  2  3
  8 12  1  0
  9 13  1  0
 10 14  2  0
 11 15  1  0
 13 16  2  0
 14 16  1  0
 15 17  1  0
 17 18  1  0
 18 19  1  0
 19 20  2  0
 19 21  1  0
 21 22  2  0
 21 23  1  0
 22 24  1  0
 23 25  2  0
 24 26  1  0
 24 27  2  0
 25 27  1  0
M  END
