mac-x0394-mac-x0565
     RDKit          3D

 23 25  0  0  0  0  0  0  0  0999 V2000
   24.5980   49.6240   -4.5320 Cl  0  0  0  0  0  0  0  0  0  0  0  0
   25.3900   51.1350   -4.3030 C   0  0  0  0  0  0  0  0  0  0  0  0
   24.9230   52.0050   -3.3220 C   0  0  0  0  0  0  0  0  0  0  0  0
   26.4920   51.4770   -5.1000 C   0  0  0  0  0  0  0  0  0  0  0  0
   27.1410   52.7140   -4.9140 C   0  0  0  0  0  0  0  0  0  0  0  0
   25.5630   53.2260   -3.1370 C   0  0  0  0  0  0  0  0  0  0  0  0
   25.0000   54.3150   -1.9320 Cl  0  0  0  0  0  0  0  0  0  0  0  0
   28.3490   53.1460   -5.7460 C   0  0  2  0  0  0  0  0  0  0  0  0
   26.6600   53.5800   -3.9220 C   0  0  0  0  0  0  0  0  0  0  0  0
   28.1760   52.8100   -7.2300 C   0  0  0  0  0  0  0  0  0  0  0  0
   29.6480   52.6890   -5.0920 C   0  0  0  0  0  0  0  0  0  0  0  0
   29.2770   52.8490   -8.0100 O   0  0  0  0  0  0  0  0  0  0  0  0
   27.0850   52.5210   -7.7160 O   0  0  0  0  0  0  0  0  0  0  0  0
   30.6500   53.4130   -5.1090 O   0  0  0  0  0  0  0  0  0  0  0  0
   29.7310   51.3600   -4.4040 C   0  0  0  0  0  0  0  0  0  0  0  0
   29.8730   50.1550   -5.1040 C   0  0  0  0  0  0  0  0  0  0  0  0
   29.6620   51.3400   -2.9870 C   0  0  0  0  0  0  0  0  0  0  0  0
   29.9390   48.9850   -4.3720 C   0  0  0  0  0  0  0  0  0  0  0  0
   29.7340   50.1360   -2.2780 C   0  0  0  0  0  0  0  0  0  0  0  0
   29.8730   48.9760   -3.0000 C   0  0  0  0  0  0  0  0  0  0  0  0
   30.0740   47.7380   -4.8950 O   0  0  0  0  0  0  0  0  0  0  0  0
   29.9590   47.7190   -2.4880 O   0  0  0  0  0  0  0  0  0  0  0  0
   30.0010   46.9340   -3.6970 C   0  0  0  0  0  0  0  0  0  0  0  0
  1  2  1  0
  2  3  2  0
  2  4  1  0
  4  5  2  0
  3  6  1  0
  6  7  1  0
  5  8  1  0
  5  9  1  0
  6  9  2  0
  8 10  1  6
  8 11  1  0
 10 12  1  0
 10 13  2  0
 11 14  2  0
 11 15  1  0
 15 16  2  0
 15 17  1  0
 16 18  1  0
 17 19  2  0
 18 20  2  0
 19 20  1  0
 18 21  1  0
 20 22  1  0
 21 23  1  0
 22 23  1  0
M  END
