mac-x0358-mac-x0271
     RDKit          3D

 24 26  0  0  0  0  0  0  0  0999 V2000
   31.8220   44.7700   -6.5650 O   0  0  0  0  0  0  0  0  0  0  0  0
   32.9660   45.0380   -5.9020 C   0  0  0  0  0  0  0  0  0  0  0  0
   33.9380   45.4660   -6.5080 O   0  0  0  0  0  0  0  0  0  0  0  0
   32.8780   44.7700   -4.4170 C   0  0  0  0  0  0  0  0  0  0  0  0
   32.4060   45.9900   -3.6790 C   0  0  0  0  0  0  0  0  0  0  0  0
   33.2550   47.0510   -3.3460 C   0  0  0  0  0  0  0  0  0  0  0  0
   31.0570   46.0780   -3.3220 C   0  0  0  0  0  0  0  0  0  0  0  0
   34.5870   47.0400   -3.6510 O   0  0  0  0  0  0  0  0  0  0  0  0
   32.7770   48.1800   -2.6900 C   0  0  0  0  0  0  0  0  0  0  0  0
   30.5740   47.2020   -2.6670 C   0  0  0  0  0  0  0  0  0  0  0  0
   31.4240   48.2630   -2.3560 C   0  0  0  0  0  0  0  0  0  0  0  0
   30.8610   49.4760   -1.6880 C   0  0  0  0  0  0  0  0  0  0  0  0
   29.6150   49.7990   -2.3240 O   0  0  0  0  0  0  0  0  0  0  0  0
   29.5050   50.8050   -3.2540 C   0  0  0  0  0  0  0  0  0  0  0  0
   29.6730   52.1580   -2.9930 C   0  0  0  0  0  0  0  0  0  0  0  0
   29.1890   50.3980   -4.5650 C   0  0  0  0  0  0  0  0  0  0  0  0
   29.5140   53.0800   -4.0250 C   0  0  0  0  0  0  0  0  0  0  0  0
   29.0360   51.3380   -5.5990 C   0  0  0  0  0  0  0  0  0  0  0  0
   29.1970   52.6980   -5.3260 C   0  0  0  0  0  0  0  0  0  0  0  0
   29.6910   54.4370   -3.6940 O   0  0  0  0  0  0  0  0  0  0  0  0
   29.0430   53.7310   -6.3410 C   0  0  0  0  0  0  0  0  0  0  0  0
   29.3200   55.4340   -4.5810 C   0  0  0  0  0  0  0  0  0  0  0  0
   29.1790   56.6030   -4.2380 O   0  0  0  0  0  0  0  0  0  0  0  0
   29.1010   55.0200   -5.9790 C   0  0  0  0  0  0  0  0  0  0  0  0
  1  2  1  0
  2  3  2  0
  2  4  1  0
  4  5  1  0
  5  6  2  0
  5  7  1  0
  6  8  1  0
  6  9  1  0
  7 10  2  0
  9 11  2  0
 10 11  1  0
 11 12  1  0
 12 13  1  0
 13 14  1  0
 14 15  2  0
 14 16  1  0
 15 17  1  0
 16 18  2  0
 17 19  2  0
 18 19  1  0
 17 20  1  0
 19 21  1  0
 20 22  1  0
 22 23  2  0
 21 24  2  0
 22 24  1  0
M  END
