mac-x0472-mac-x0303
     RDKit          3D

 28 31  0  0  0  0  0  0  0  0999 V2000
   31.2640   47.5330   -5.4590 O   0  0  0  0  0  0  0  0  0  0  0  0
   31.0410   48.6210   -4.5310 S   0  0  0  0  0  0  0  0  0  0  0  0
   31.0220   48.3360   -3.1050 O   0  0  0  0  0  0  0  0  0  0  0  0
   29.5990   49.4230   -4.9370 N   0  0  0  0  0  0  0  0  0  0  0  0
   32.3240   49.8340   -4.7970 C   0  0  0  0  0  0  0  0  0  0  0  0
   29.1470   49.1670   -6.2980 C   0  0  0  0  0  0  0  0  0  0  0  0
   33.3320   49.5740   -5.7310 C   0  0  0  0  0  0  0  0  0  0  0  0
   32.3180   51.0310   -4.0740 C   0  0  0  0  0  0  0  0  0  0  0  0
   29.4710   50.7790   -4.4960 C   0  0  0  0  0  0  0  0  0  0  0  0
   29.7600   48.3880   -7.1630 N   0  0  0  0  0  0  0  0  0  0  0  0
   27.7160   49.9010   -6.8990 S   0  0  0  0  0  0  0  0  0  0  0  0
   34.3350   50.5190   -5.9430 C   0  0  0  0  0  0  0  0  0  0  0  0
   33.3260   51.9710   -4.2920 C   0  0  0  0  0  0  0  0  0  0  0  0
   29.3400   51.1400   -3.1470 C   0  0  0  0  0  0  0  0  0  0  0  0
   29.4790   51.7630   -5.4920 C   0  0  0  0  0  0  0  0  0  0  0  0
   28.0180   49.0870   -8.3750 C   0  0  0  0  0  0  0  0  0  0  0  0
   29.1030   48.3400   -8.3780 N   0  0  0  0  0  0  0  0  0  0  0  0
   34.3320   51.7150   -5.2250 C   0  0  0  0  0  0  0  0  0  0  0  0
   29.3540   53.1050   -5.1230 C   0  0  0  0  0  0  0  0  0  0  0  0
   29.2160   52.4800   -2.7570 C   0  0  0  0  0  0  0  0  0  0  0  0
   29.2270   53.4300   -3.7780 C   0  0  0  0  0  0  0  0  0  0  0  0
   29.3350   54.2280   -5.9100 N   0  0  0  0  0  0  0  0  0  0  0  0
   29.1970   55.2340   -5.0660 C   0  0  0  0  0  0  0  0  0  0  0  0
   29.1290   54.7980   -3.7690 N   0  0  0  0  0  0  0  0  0  0  0  0
   29.1070   56.9380   -5.5080 S   0  0  0  0  0  0  0  0  0  0  0  0
   30.3740   57.2150   -6.5800 N   0  0  0  0  0  0  0  0  0  0  0  0
   27.8680   57.0550   -6.2420 O   0  0  0  0  0  0  0  0  0  0  0  0
   29.3640   57.6520   -4.2830 O   0  0  0  0  0  0  0  0  0  0  0  0
  1  2  2  0
  2  3  2  0
  2  4  1  0
  2  5  1  0
  4  6  1  0
  5  7  2  0
  5  8  1  0
  4  9  1  0
  6 10  2  0
  6 11  1  0
  7 12  1  0
  8 13  2  0
  9 14  2  0
  9 15  1  0
 11 16  1  0
 10 17  1  0
 16 17  2  0
 12 18  2  0
 13 18  1  0
 15 19  2  0
 14 20  1  0
 19 21  1  0
 20 21  2  0
 19 22  1  0
 22 23  2  0
 21 24  1  0
 23 24  1  0
 23 25  1  0
 25 26  1  0
 25 27  2  0
 25 28  2  0
M  END
