mac-x0472-mac-x0179
     RDKit          3D

 31 34  0  0  0  0  0  0  0  0999 V2000
   30.0230   50.1800   -3.3220 O   0  0  0  0  0  0  0  0  0  0  0  0
   30.9730   49.3720   -4.0670 S   0  0  1  0  0  0  0  0  0  0  0  0
   31.7470   48.1510   -3.5560 N   0  0  0  0  0  0  0  0  0  0  0  0
   30.0520   48.8160   -5.3960 N   0  0  0  0  0  0  0  0  0  0  0  0
   32.2420   50.4480   -4.6980 C   0  0  0  0  0  0  0  0  0  0  0  0
   31.9210   47.9750   -2.1330 C   0  0  0  0  0  0  0  0  0  0  0  0
   29.4920   49.7270   -6.2340 C   0  0  0  0  0  0  0  0  0  0  0  0
   33.4230   49.8570   -5.1630 C   0  0  0  0  0  0  0  0  0  0  0  0
   32.0690   51.8320   -4.7240 C   0  0  0  0  0  0  0  0  0  0  0  0
   33.3450   47.9830   -1.8430 N   0  0  0  0  0  0  0  0  0  0  0  0
   29.1950   49.4700   -7.4940 N   0  0  0  0  0  0  0  0  0  0  0  0
   29.0920   51.3420   -5.7640 S   0  0  0  0  0  0  0  0  0  0  0  0
   34.4490   50.6620   -5.6630 C   0  0  0  0  0  0  0  0  0  0  0  0
   33.1040   52.6320   -5.2260 C   0  0  0  0  0  0  0  0  0  0  0  0
   28.5260   51.5840   -7.3580 C   0  0  0  0  0  0  0  0  0  0  0  0
   28.6330   50.5420   -8.1520 N   0  0  0  0  0  0  0  0  0  0  0  0
   34.2890   52.0460   -5.6940 C   0  0  0  0  0  0  0  0  0  0  0  0
   34.1510   46.9810   -1.9600 C   0  0  0  0  0  0  0  0  0  0  0  0
   33.7430   45.7410   -2.4140 N   0  0  0  0  0  0  0  0  0  0  0  0
   35.5860   46.8300   -1.6510 C   0  0  0  0  0  0  0  0  0  0  0  0
   32.6120   45.4510   -3.2920 C   0  0  0  0  0  0  0  0  0  0  0  0
   34.5820   44.7680   -1.9370 C   0  0  0  0  0  0  0  0  0  0  0  0
   35.8340   45.4570   -1.6280 C   0  0  0  0  0  0  0  0  0  0  0  0
   36.6160   47.7240   -1.3950 C   0  0  0  0  0  0  0  0  0  0  0  0
   32.9930   45.5850   -4.7620 C   0  0  0  0  0  0  0  0  0  0  0  0
   34.3920   43.5730   -1.7840 O   0  0  0  0  0  0  0  0  0  0  0  0
   37.0800   44.9150   -1.3520 C   0  0  0  0  0  0  0  0  0  0  0  0
   37.8910   47.2000   -1.1130 C   0  0  0  0  0  0  0  0  0  0  0  0
   31.9400   45.4670   -5.6090 O   0  0  0  0  0  0  0  0  0  0  0  0
   34.1300   45.7770   -5.1800 O   0  0  0  0  0  0  0  0  0  0  0  0
   38.1200   45.8060   -1.0900 C   0  0  0  0  0  0  0  0  0  0  0  0
  1  2  2  0
  2  3  2  0
  2  4  1  6
  2  5  1  0
  3  6  1  0
  4  7  1  0
  5  8  2  0
  5  9  1  0
  6 10  1  0
  7 11  2  0
  7 12  1  0
  8 13  1  0
  9 14  2  0
 12 15  1  0
 11 16  1  0
 15 16  2  0
 13 17  2  0
 14 17  1  0
 10 18  2  3
 18 19  1  0
 18 20  1  0
 19 21  1  0
 19 22  1  0
 20 23  2  0
 22 23  1  0
 20 24  1  0
 21 25  1  0
 22 26  2  0
 23 27  1  0
 24 28  2  0
 25 29  1  0
 25 30  2  0
 27 31  2  0
 28 31  1  0
M  END
