mac-x0271-mac-x0415
     RDKit          3D

 28 31  0  0  0  0  0  0  0  0999 V2000
   29.9670   49.1800   -3.6260 O   0  0  0  0  0  0  0  0  0  0  0  0
   29.6950   50.3840   -4.1800 C   0  0  0  0  0  0  0  0  0  0  0  0
   29.3250   50.3450   -5.5180 C   0  0  0  0  0  0  0  0  0  0  0  0
   29.7810   51.5640   -3.4580 C   0  0  0  0  0  0  0  0  0  0  0  0
   30.1880   51.4720   -1.9980 C   0  0  0  0  0  0  0  0  0  0  0  0
   29.4680   52.7700   -4.1700 C   0  0  0  0  0  0  0  0  0  0  0  0
   29.0210   51.5170   -6.1930 C   0  0  0  0  0  0  0  0  0  0  0  0
   29.5510   50.2280   -1.3070 C   0  0  0  0  0  0  0  0  0  0  0  0
   29.0900   52.7360   -5.5290 C   0  0  0  0  0  0  0  0  0  0  0  0
   29.5290   54.0380   -3.5220 O   0  0  0  0  0  0  0  0  0  0  0  0
   30.4720   49.1310   -1.0560 O   0  0  0  0  0  0  0  0  0  0  0  0
   28.7730   53.9680   -6.2360 C   0  0  0  0  0  0  0  0  0  0  0  0
   29.2950   55.2380   -4.2070 C   0  0  0  0  0  0  0  0  0  0  0  0
   29.4260   56.3410   -3.6850 O   0  0  0  0  0  0  0  0  0  0  0  0
   28.8730   55.1370   -5.6100 C   0  0  0  0  0  0  0  0  0  0  0  0
   30.2600   47.8720   -1.6340 C   0  0  0  0  0  0  0  0  0  0  0  0
   29.3050   47.0180   -0.8970 C   0  0  0  0  0  0  0  0  0  0  0  0
   30.8340   47.3790   -2.7690 C   0  0  0  0  0  0  0  0  0  0  0  0
   30.4670   46.0510   -3.2020 C   0  0  0  0  0  0  0  0  0  0  0  0
   28.7410   45.9180   -1.4650 C   0  0  0  0  0  0  0  0  0  0  0  0
   31.1620   45.1380   -3.8830 C   0  0  0  0  0  0  0  0  0  0  0  0
   29.0900   45.5880   -2.8800 C   0  0  2  0  0  0  0  0  0  0  0  0
   32.5190   45.1120   -4.4670 C   0  0  0  0  0  0  0  0  0  0  0  0
   30.1990   44.0280   -3.9190 C   0  0  0  0  0  0  0  0  0  0  0  0
   29.0340   44.1890   -3.3500 N   0  0  0  0  0  0  0  0  0  0  0  0
   32.5390   45.8660   -5.7790 C   0  0  0  0  0  0  0  0  0  0  0  0
   33.6730   46.5740   -5.9580 O   0  0  0  0  0  0  0  0  0  0  0  0
   31.6680   45.8850   -6.6360 O   0  0  0  0  0  0  0  0  0  0  0  0
  1  2  1  0
  2  3  2  0
  2  4  1  0
  4  5  1  0
  4  6  2  0
  3  7  1  0
  5  8  1  0
  6  9  1  0
  7  9  2  0
  6 10  1  0
  8 11  1  0
  9 12  1  0
 10 13  1  0
 13 14  2  0
 12 15  2  0
 13 15  1  0
 11 16  1  0
 16 17  1  0
 16 18  2  0
 18 19  1  0
 17 20  2  0
 19 21  2  0
 19 22  1  0
 22 20  1  1
 21 23  1  0
 21 24  1  0
 22 25  1  0
 24 25  2  0
 23 26  1  0
 26 27  1  0
 26 28  2  0
M  END
