mac-x0584-mac-x0348
     RDKit          3D

 32 37  0  0  0  0  0  0  0  0999 V2000
   27.3060   44.2910   -2.1090 C   0  0  0  0  0  0  0  0  0  0  0  0
   28.3970   45.2410   -2.1210 N   0  0  0  0  0  0  0  0  0  0  0  0
   29.2080   45.4780   -3.1970 C   0  0  0  0  0  0  0  0  0  0  0  0
   28.7700   46.0330   -1.0640 C   0  0  0  0  0  0  0  0  0  0  0  0
   30.1540   46.4460   -2.8690 C   0  0  0  0  0  0  0  0  0  0  0  0
   29.8610   46.7980   -1.4930 C   0  0  0  0  0  0  0  0  0  0  0  0
   28.2340   46.1370    0.2310 C   0  0  0  0  0  0  0  0  0  0  0  0
   31.2850   47.0200   -3.8110 C   0  0  2  0  0  0  0  0  0  0  0  0
   30.4230   47.7030   -0.5600 C   0  0  0  0  0  0  0  0  0  0  0  0
   28.8180   47.0430    1.1210 C   0  0  0  0  0  0  0  0  0  0  0  0
   31.9360   45.8510   -4.7030 C   0  0  0  0  0  0  0  0  0  0  0  0
   32.4190   47.6030   -2.8820 C   0  0  0  0  0  0  0  0  0  0  0  0
   30.8050   48.2960   -4.5290 N   0  0  0  0  0  0  0  0  0  0  0  0
   29.9010   47.8160    0.7290 C   0  0  0  0  0  0  0  0  0  0  0  0
   31.3990   44.3760   -4.5200 C   0  0  0  0  0  0  0  0  0  0  0  0
   33.2880   45.3130   -4.1120 C   0  0  0  0  0  0  0  0  0  0  0  0
   30.8770   49.3550   -3.4880 C   0  0  0  0  0  0  0  0  0  0  0  0
   32.2030   49.1130   -2.7920 C   0  0  0  0  0  0  0  0  0  0  0  0
   29.7400   48.3930   -5.4520 C   0  0  0  0  0  0  0  0  0  0  0  0
   31.9190   46.1040   -6.2450 C   0  0  0  0  0  0  0  0  0  0  0  0
   32.8310   43.8730   -4.3540 C   0  0  0  0  0  0  0  0  0  0  0  0
   29.1540   47.2540   -5.9950 N   0  0  0  0  0  0  0  0  0  0  0  0
   29.2020   49.5510   -5.8860 C   0  0  0  0  0  0  0  0  0  0  0  0
   32.9310   45.3780   -7.1040 C   0  0  0  0  0  0  0  0  0  0  0  0
   28.1250   47.3000   -6.8950 C   0  0  0  0  0  0  0  0  0  0  0  0
   28.0770   49.5260   -6.8660 C   0  0  0  0  0  0  0  0  0  0  0  0
   29.3940   50.9510   -5.6790 C   0  0  0  0  0  0  0  0  0  0  0  0
   32.7940   44.3060   -7.6720 O   0  0  0  0  0  0  0  0  0  0  0  0
   34.0930   46.0570   -7.2090 O   0  0  0  0  0  0  0  0  0  0  0  0
   27.5600   48.3620   -7.3540 N   0  0  0  0  0  0  0  0  0  0  0  0
   27.6650   50.7210   -7.1900 N   0  0  0  0  0  0  0  0  0  0  0  0
   28.4830   51.5650   -6.4530 C   0  0  0  0  0  0  0  0  0  0  0  0
  1  2  1  0
  2  3  1  0
  2  4  1  0
  3  5  2  0
  4  6  2  0
  5  6  1  0
  4  7  1  0
  8  5  1  1
  6  9  1  0
  7 10  2  0
  8 11  1  0
  8 12  1  0
  8 13  1  0
  9 14  2  0
 10 14  1  0
 11 15  1  0
 11 16  1  0
 13 17  1  0
 12 18  1  0
 17 18  1  0
 13 19  1  0
 11 20  1  0
 15 21  1  0
 16 21  1  0
 19 22  1  0
 19 23  2  0
 20 24  1  0
 22 25  1  0
 23 26  1  0
 23 27  1  0
 24 28  2  0
 24 29  1  0
 25 30  2  0
 26 30  1  0
 26 31  2  0
 27 32  2  0
 31 32  1  0
M  END
