mac-x0328-mac-x0132
     RDKit          3D

 15 16  0  0  0  0  0  0  0  0999 V2000
   30.6670   47.6310   -3.5110 O   0  0  0  0  0  0  0  0  0  0  0  0
   30.1650   48.2690   -4.5860 C   0  0  0  0  0  0  0  0  0  0  0  0
   29.8730   47.6420   -5.5910 O   0  0  0  0  0  0  0  0  0  0  0  0
   30.0230   49.7480   -4.4160 C   0  0  0  0  0  0  0  0  0  0  0  0
   29.4600   50.5160   -5.3800 C   0  0  0  0  0  0  0  0  0  0  0  0
   30.5070   50.3630   -3.1840 C   0  0  0  0  0  0  0  0  0  0  0  0
   29.3280   51.9770   -5.2360 C   0  0  0  0  0  0  0  0  0  0  0  0
   30.3210   51.6710   -2.9260 C   0  0  0  0  0  0  0  0  0  0  0  0
   29.6020   52.5730   -3.8790 C   0  0  2  0  0  0  0  0  0  0  0  0
   28.9790   52.8460   -6.2150 C   0  0  0  0  0  0  0  0  0  0  0  0
   28.3990   52.9430   -3.2620 O   0  0  0  0  0  0  0  0  0  0  0  0
   28.6870   52.4330   -7.4970 N   0  0  0  0  0  0  0  0  0  0  0  0
   30.2470   53.8260   -4.0510 N   0  0  0  0  0  0  0  0  0  0  0  0
   28.9120   54.2030   -5.9580 N   0  0  0  0  0  0  0  0  0  0  0  0
   29.5460   54.6190   -4.9050 C   0  0  0  0  0  0  0  0  0  0  0  0
  1  2  1  0
  2  3  2  0
  2  4  1  0
  4  5  2  0
  4  6  1  0
  5  7  1  0
  6  8  2  0
  7  9  1  0
  8  9  1  0
  7 10  2  0
  9 11  1  1
 10 12  1  0
  9 13  1  0
 10 14  1  0
 13 15  1  0
 14 15  2  0
M  END
