mac-x0344-mac-x0212
     RDKit          3D

 27 28  0  0  0  0  0  0  0  0999 V2000
   31.8080   43.9180   -3.4780 O   0  0  0  0  0  0  0  0  0  0  0  0
   32.2270   44.7410   -4.4560 C   0  0  0  0  0  0  0  0  0  0  0  0
   31.4730   45.3710   -5.2800 N   0  0  0  0  0  0  0  0  0  0  0  0
   33.7700   44.8530   -4.4920 C   0  0  0  0  0  0  0  0  0  0  0  0
   34.3600   44.7110   -5.5510 O   0  0  0  0  0  0  0  0  0  0  0  0
   34.3060   45.1130   -3.2430 N   0  0  0  0  0  0  0  0  0  0  0  0
   32.0340   46.2270   -6.3010 C   0  0  0  0  0  0  0  0  0  0  0  0
   31.2410   47.4410   -6.4820 N   0  0  0  0  0  0  0  0  0  0  0  0
   35.4600   45.8510   -2.9260 C   0  0  0  0  0  0  0  0  0  0  0  0
   30.9290   48.1510   -5.4600 C   0  0  0  0  0  0  0  0  0  0  0  0
   36.6150   45.2880   -2.3800 C   0  0  0  0  0  0  0  0  0  0  0  0
   35.4340   47.2310   -3.1800 C   0  0  0  0  0  0  0  0  0  0  0  0
   31.3310   47.7440   -4.2490 O   0  0  0  0  0  0  0  0  0  0  0  0
   37.7270   46.0890   -2.0920 C   0  0  0  0  0  0  0  0  0  0  0  0
   36.5440   48.0300   -2.8920 C   0  0  0  0  0  0  0  0  0  0  0  0
   30.1740   49.3990   -5.3440 C   0  0  0  0  0  0  0  0  0  0  0  0
   37.6910   47.4600   -2.3470 C   0  0  0  0  0  0  0  0  0  0  0  0
   29.6600   49.9920   -6.5030 C   0  0  0  0  0  0  0  0  0  0  0  0
   29.9760   49.9850   -4.0930 C   0  0  0  0  0  0  0  0  0  0  0  0
   28.9430   51.1840   -6.4050 C   0  0  0  0  0  0  0  0  0  0  0  0
   29.2570   51.1800   -4.0010 C   0  0  0  0  0  0  0  0  0  0  0  0
   28.7430   51.7760   -5.1550 C   0  0  0  0  0  0  0  0  0  0  0  0
   28.0120   52.9930   -5.0830 N   0  0  0  0  0  0  0  0  0  0  0  0
   28.8580   54.4460   -5.2280 S   0  0  0  0  0  0  0  0  0  0  0  0
   30.3240   53.9580   -6.1200 C   0  0  0  0  0  0  0  0  0  0  0  0
   28.0640   55.2750   -6.1140 O   0  0  0  0  0  0  0  0  0  0  0  0
   29.2510   54.9180   -3.9180 O   0  0  0  0  0  0  0  0  0  0  0  0
  1  2  1  0
  2  3  2  3
  2  4  1  0
  4  5  2  0
  4  6  1  0
  3  7  1  0
  7  8  1  0
  6  9  1  0
  8 10  2  3
  9 11  2  0
  9 12  1  0
 10 13  1  0
 11 14  1  0
 12 15  2  0
 10 16  1  0
 14 17  2  0
 15 17  1  0
 16 18  2  0
 16 19  1  0
 18 20  1  0
 19 21  2  0
 20 22  2  0
 21 22  1  0
 22 23  1  0
 24 23  1  0
 24 25  1  0
 24 26  2  0
 24 27  2  0
M  END
