mac-x0565-mac-x0179
     RDKit          3D

 28 31  0  0  0  0  0  0  0  0999 V2000
   28.8540   53.1040   -5.4690 O   0  0  0  0  0  0  0  0  0  0  0  0
   29.3730   52.9610   -4.2300 C   0  0  0  0  0  0  0  0  0  0  0  0
   29.5940   53.8970   -3.4830 O   0  0  0  0  0  0  0  0  0  0  0  0
   29.6480   51.5500   -3.8710 C   0  0  0  0  0  0  0  0  0  0  0  0
   29.2860   50.5110   -4.7320 C   0  0  0  0  0  0  0  0  0  0  0  0
   30.2860   51.2740   -2.6370 C   0  0  0  0  0  0  0  0  0  0  0  0
   29.5750   49.2290   -4.3330 C   0  0  0  0  0  0  0  0  0  0  0  0
   30.5690   49.9520   -2.2630 C   0  0  0  0  0  0  0  0  0  0  0  0
   30.2010   48.9520   -3.1370 C   0  0  0  0  0  0  0  0  0  0  0  0
   29.2940   48.1000   -5.0310 O   0  0  0  0  0  0  0  0  0  0  0  0
   30.3840   47.6140   -2.9770 O   0  0  0  0  0  0  0  0  0  0  0  0
   30.1860   47.2060   -4.3540 C   0  0  2  0  0  0  0  0  0  0  0  0
   31.5070   47.2680   -5.1190 C   0  0  0  0  0  0  0  0  0  0  0  0
   31.9770   45.9600   -5.4510 O   0  0  0  0  0  0  0  0  0  0  0  0
   33.1210   45.6550   -4.7910 C   0  0  0  0  0  0  0  0  0  0  0  0
   34.2300   45.5970   -5.3020 O   0  0  0  0  0  0  0  0  0  0  0  0
   32.7890   45.4190   -3.3280 C   0  0  0  0  0  0  0  0  0  0  0  0
   33.9510   45.7040   -2.5180 N   0  0  0  0  0  0  0  0  0  0  0  0
   34.7340   44.7280   -1.9790 C   0  0  0  0  0  0  0  0  0  0  0  0
   34.5370   46.9370   -2.4380 C   0  0  0  0  0  0  0  0  0  0  0  0
   34.5110   43.5380   -1.8860 O   0  0  0  0  0  0  0  0  0  0  0  0
   34.1140   48.0100   -2.8140 O   0  0  0  0  0  0  0  0  0  0  0  0
   35.9540   45.3890   -1.5060 C   0  0  0  0  0  0  0  0  0  0  0  0
   35.8300   46.7370   -1.7890 C   0  0  0  0  0  0  0  0  0  0  0  0
   37.0700   44.8690   -0.8880 C   0  0  0  0  0  0  0  0  0  0  0  0
   36.8230   47.6470   -1.4660 C   0  0  0  0  0  0  0  0  0  0  0  0
   38.0900   45.7690   -0.5500 C   0  0  0  0  0  0  0  0  0  0  0  0
   37.9660   47.1440   -0.8380 C   0  0  0  0  0  0  0  0  0  0  0  0
  1  2  1  0
  2  3  2  0
  2  4  1  0
  4  5  2  0
  4  6  1  0
  5  7  1  0
  6  8  2  0
  7  9  2  0
  8  9  1  0
  7 10  1  0
  9 11  1  0
 10 12  1  0
 11 12  1  0
 12 13  1  6
 13 14  1  0
 14 15  1  0
 15 16  2  0
 15 17  1  0
 17 18  1  0
 18 19  1  0
 18 20  1  0
 19 21  2  0
 20 22  2  0
 19 23  1  0
 20 24  1  0
 23 24  2  0
 23 25  1  0
 24 26  1  0
 25 27  2  0
 26 28  2  0
 27 28  1  0
M  END
