mac-x0436-mac-x0472
     RDKit          3D

 32 35  0  0  0  0  0  0  0  0999 V2000
   33.7310   45.6020   -6.5970 O   0  0  0  0  0  0  0  0  0  0  0  0
   32.5070   45.2140   -6.1850 C   0  0  0  0  0  0  0  0  0  0  0  0
   31.5310   45.4320   -6.8820 O   0  0  0  0  0  0  0  0  0  0  0  0
   32.5370   44.5180   -4.8450 C   0  0  0  0  0  0  0  0  0  0  0  0
   32.5250   45.5080   -3.6830 C   0  0  0  0  0  0  0  0  0  0  0  0
   33.9060   46.0360   -3.3450 C   0  0  0  0  0  0  0  0  0  0  0  0
   34.1650   47.5580   -3.3240 C   0  0  0  0  0  0  0  0  0  0  0  0
   34.8990   45.2230   -3.0890 N   0  0  0  0  0  0  0  0  0  0  0  0
   33.2740   48.3990   -2.9130 N   0  0  0  0  0  0  0  0  0  0  0  0
   35.4170   47.8970   -3.7450 N   0  0  0  0  0  0  0  0  0  0  0  0
   36.1610   45.8030   -2.8280 C   0  0  0  0  0  0  0  0  0  0  0  0
   31.9900   47.9490   -2.4240 C   0  0  0  0  0  0  0  0  0  0  0  0
   36.4340   47.1470   -3.1550 C   0  0  0  0  0  0  0  0  0  0  0  0
   37.1610   45.0310   -2.2370 C   0  0  0  0  0  0  0  0  0  0  0  0
   31.0090   48.0590   -3.4840 N   0  0  0  0  0  0  0  0  0  0  0  0
   38.4170   45.5860   -1.9730 C   0  0  0  0  0  0  0  0  0  0  0  0
   37.6850   47.7020   -2.8900 C   0  0  0  0  0  0  0  0  0  0  0  0
   30.6480   49.4300   -4.0590 S   0  0  2  0  0  0  0  0  0  0  0  0
   38.6770   46.9190   -2.2980 C   0  0  0  0  0  0  0  0  0  0  0  0
   29.7950   50.3930   -3.3970 O   0  0  0  0  0  0  0  0  0  0  0  0
   29.7580   48.9890   -5.3990 N   0  0  0  0  0  0  0  0  0  0  0  0
   32.0900   50.3240   -4.6130 C   0  0  0  0  0  0  0  0  0  0  0  0
   29.2780   49.8500   -6.3050 C   0  0  0  0  0  0  0  0  0  0  0  0
   33.2210   49.6420   -5.0740 C   0  0  0  0  0  0  0  0  0  0  0  0
   32.0750   51.7240   -4.5820 C   0  0  0  0  0  0  0  0  0  0  0  0
   29.0690   49.4930   -7.5570 N   0  0  0  0  0  0  0  0  0  0  0  0
   28.8600   51.4960   -6.0020 S   0  0  0  0  0  0  0  0  0  0  0  0
   34.3370   50.3620   -5.5040 C   0  0  0  0  0  0  0  0  0  0  0  0
   33.1950   52.4380   -5.0150 C   0  0  0  0  0  0  0  0  0  0  0  0
   28.4120   51.6160   -7.6460 C   0  0  0  0  0  0  0  0  0  0  0  0
   28.5690   50.5110   -8.3370 N   0  0  0  0  0  0  0  0  0  0  0  0
   34.3230   51.7570   -5.4760 C   0  0  0  0  0  0  0  0  0  0  0  0
  1  2  1  0
  2  3  2  0
  2  4  1  0
  4  5  1  0
  5  6  1  0
  6  7  1  0
  6  8  2  0
  7  9  2  3
  7 10  1  0
  8 11  1  0
  9 12  1  0
 10 13  1  0
 11 13  2  0
 11 14  1  0
 12 15  1  0
 14 16  2  0
 13 17  1  0
 15 18  2  0
 16 19  1  0
 17 19  2  0
 18 20  2  0
 18 21  1  6
 18 22  1  0
 21 23  1  0
 22 24  2  0
 22 25  1  0
 23 26  2  0
 23 27  1  0
 24 28  1  0
 25 29  2  0
 27 30  1  0
 26 31  1  0
 30 31  2  0
 28 32  2  0
 29 32  1  0
M  END
