mac-x0231-mac-x0496
     RDKit          3D

 34 37  0  0  0  0  0  0  0  0999 V2000
   34.3940   45.1230   -6.2730 O   0  0  0  0  0  0  0  0  0  0  0  0
   33.1350   44.7220   -6.0220 C   0  0  0  0  0  0  0  0  0  0  0  0
   32.2300   44.9810   -6.8170 O   0  0  0  0  0  0  0  0  0  0  0  0
   32.8840   43.9610   -4.7310 C   0  0  0  0  0  0  0  0  0  0  0  0
   31.6100   44.4070   -4.0600 C   0  0  0  0  0  0  0  0  0  0  0  0
   31.5870   45.7530   -3.4400 C   0  0  0  0  0  0  0  0  0  0  0  0
   30.5810   43.6300   -4.1610 N   0  0  0  0  0  0  0  0  0  0  0  0
   30.3370   46.3490   -3.2520 C   0  0  0  0  0  0  0  0  0  0  0  0
   29.4370   44.1330   -3.6610 N   0  0  0  0  0  0  0  0  0  0  0  0
   32.7690   46.4170   -3.0950 C   0  0  0  0  0  0  0  0  0  0  0  0
   29.1590   45.4890   -3.5820 C   0  0  0  0  0  0  0  0  0  0  0  0
   30.2980   47.7000   -2.7890 C   0  0  0  0  0  0  0  0  0  0  0  0
   32.7220   47.7010   -2.5780 C   0  0  0  0  0  0  0  0  0  0  0  0
   28.0100   45.8740   -3.7140 O   0  0  0  0  0  0  0  0  0  0  0  0
   29.1470   48.5200   -2.6880 N   0  0  0  0  0  0  0  0  0  0  0  0
   31.4990   48.3350   -2.4410 C   0  0  0  0  0  0  0  0  0  0  0  0
   29.4380   49.3920   -3.6450 C   0  0  0  0  0  0  0  0  0  0  0  0
   30.6310   49.1750   -4.1580 O   0  0  0  0  0  0  0  0  0  0  0  0
   28.9640   50.5660   -4.4300 C   0  0  0  0  0  0  0  0  0  0  0  0
   28.2580   50.2860   -5.6070 C   0  0  0  0  0  0  0  0  0  0  0  0
   29.2230   51.9030   -4.0770 C   0  0  0  0  0  0  0  0  0  0  0  0
   27.8090   51.3200   -6.4280 C   0  0  0  0  0  0  0  0  0  0  0  0
   28.7690   52.9470   -4.9150 C   0  0  0  0  0  0  0  0  0  0  0  0
   29.0560   54.3640   -4.5380 C   0  0  0  0  0  0  0  0  0  0  0  0
   28.0650   52.6490   -6.0880 C   0  0  0  0  0  0  0  0  0  0  0  0
   28.9990   55.3000   -5.5560 N   0  0  0  0  0  0  0  0  0  0  0  0
   29.3240   54.6410   -3.3740 O   0  0  0  0  0  0  0  0  0  0  0  0
   29.1970   56.7210   -5.2900 C   0  0  0  0  0  0  0  0  0  0  0  0
   27.8850   57.4240   -5.2620 C   0  0  0  0  0  0  0  0  0  0  0  0
   27.6430   58.2520   -4.2020 O   0  0  0  0  0  0  0  0  0  0  0  0
   26.8880   57.3760   -6.1200 N   0  0  0  0  0  0  0  0  0  0  0  0
   25.9750   58.2250   -5.5500 C   0  0  0  0  0  0  0  0  0  0  0  0
   26.3650   58.7850   -4.3980 N   0  0  0  0  0  0  0  0  0  0  0  0
   24.6590   58.5010   -6.1590 C   0  0  0  0  0  0  0  0  0  0  0  0
  1  2  1  0
  2  3  2  0
  2  4  1  0
  4  5  1  0
  5  6  1  0
  5  7  2  0
  6  8  2  0
  7  9  1  0
  6 10  1  0
  8 11  1  0
  9 11  1  0
  8 12  1  0
 10 13  2  0
 11 14  2  0
 12 15  1  0
 12 16  2  0
 13 16  1  0
 15 17  2  3
 17 18  1  0
 17 19  1  0
 19 20  2  0
 19 21  1  0
 20 22  1  0
 21 23  2  0
 23 24  1  0
 22 25  2  0
 23 25  1  0
 24 26  1  0
 24 27  2  0
 26 28  1  0
 28 29  1  0
 29 30  1  0
 29 31  2  0
 31 32  1  0
 30 33  1  0
 32 33  2  0
 32 34  1  0
M  END
