mac-x0333-mac-x0347
     RDKit          3D

 18 20  0  0  0  0  0  0  0  0999 V2000
   26.1980   49.1750   -4.0630 O   0  0  0  0  0  0  0  0  0  0  0  0
   27.1970   50.0660   -4.3290 C   0  0  0  0  0  0  0  0  0  0  0  0
   26.8330   51.3910   -4.5940 C   0  0  0  0  0  0  0  0  0  0  0  0
   28.5290   49.6650   -4.3350 C   0  0  0  0  0  0  0  0  0  0  0  0
   29.4920   50.6240   -4.6120 C   0  0  0  0  0  0  0  0  0  0  0  0
   27.8130   52.3480   -4.8690 C   0  0  0  0  0  0  0  0  0  0  0  0
   29.1290   51.9400   -4.8720 C   0  0  0  0  0  0  0  0  0  0  0  0
   30.9780   50.4890   -4.6880 C   0  0  2  0  0  0  0  0  0  0  0  0
   30.1920   52.7660   -5.1240 O   0  0  0  0  0  0  0  0  0  0  0  0
   31.3150   52.0090   -4.6070 C   0  0  0  0  0  0  0  0  0  0  0  0
   31.4000   49.9120   -6.0160 C   0  0  0  0  0  0  0  0  0  0  0  0
   31.5080   49.6700   -3.5710 N   0  0  0  0  0  0  0  0  0  0  0  0
   31.3700   48.6000   -6.2270 C   0  0  0  0  0  0  0  0  0  0  0  0
   31.3070   48.2030   -3.7070 C   0  0  0  0  0  0  0  0  0  0  0  0
   30.9030   47.6890   -5.1200 C   0  0  2  0  0  0  0  0  0  0  0  0
   31.4430   46.2790   -5.3260 C   0  0  0  0  0  0  0  0  0  0  0  0
   31.1910   45.4570   -4.2830 O   0  0  0  0  0  0  0  0  0  0  0  0
   32.0450   45.8560   -6.3020 O   0  0  0  0  0  0  0  0  0  0  0  0
  1  2  1  0
  2  3  2  0
  2  4  1  0
  4  5  2  0
  3  6  1  0
  5  7  1  0
  6  7  2  0
  5  8  1  0
  7  9  1  0
  8 10  1  1
  9 10  1  0
  8 11  1  0
  8 12  1  0
 11 13  2  0
 12 14  1  0
 13 15  1  0
 14 15  1  0
 15 16  1  6
 16 17  1  0
 16 18  2  0
M  END
