mac-x0568-mac-x0263
     RDKit          3D

 19 20  0  0  0  0  0  0  0  0999 V2000
   30.3450   55.7190   -5.0350 C   0  0  0  0  0  0  0  0  0  0  0  0
   30.2900   54.1980   -5.2530 C   0  0  2  0  0  0  0  0  0  0  0  0
   28.9340   53.6670   -5.8430 C   0  0  1  0  0  0  0  0  0  0  0  0
   30.6430   53.4920   -3.9990 N   0  0  0  0  0  0  0  0  0  0  0  0
   30.0900   52.1370   -3.9210 C   0  0  0  0  0  0  0  0  0  0  0  0
   29.0900   52.1860   -6.2470 C   0  0  0  0  0  0  0  0  0  0  0  0
   27.7460   53.8480   -4.8970 C   0  0  0  0  0  0  0  0  0  0  0  0
   28.5310   54.5380   -6.9850 N   0  0  0  0  0  0  0  0  0  0  0  0
   30.0350   51.4440   -5.2890 C   0  0  2  0  0  0  0  0  0  0  0  0
   27.5970   55.5270   -6.4510 C   0  0  1  0  0  0  0  0  0  0  0  0
   27.5000   55.2780   -5.0190 N   0  0  0  0  0  0  0  0  0  0  0  0
   29.6090   49.9940   -5.1050 C   0  0  0  0  0  0  0  0  0  0  0  0
   27.9930   56.9710   -6.7690 C   0  0  0  0  0  0  0  0  0  0  0  0
   29.5790   49.4120   -4.0290 O   0  0  0  0  0  0  0  0  0  0  0  0
   29.2480   49.3390   -6.2500 N   0  0  0  0  0  0  0  0  0  0  0  0
   27.4850   57.9980   -5.7550 C   0  0  0  0  0  0  0  0  0  0  0  0
   27.0240   59.2620   -6.4270 C   0  0  0  0  0  0  0  0  0  0  0  0
   28.0370   60.1290   -6.6290 O   0  0  0  0  0  0  0  0  0  0  0  0
   25.8910   59.5500   -6.7780 O   0  0  0  0  0  0  0  0  0  0  0  0
  2  1  1  1
  2  3  1  0
  2  4  1  0
  4  5  1  0
  3  6  1  6
  3  7  1  0
  3  8  1  0
  5  9  1  0
  6  9  1  0
  8 10  1  0
  7 11  1  0
 10 11  1  0
  9 12  1  1
 10 13  1  1
 12 14  2  0
 12 15  1  0
 13 16  1  0
 16 17  1  0
 17 18  1  0
 17 19  2  0
M  END
