mac-x0347-mac-x0142
     RDKit          3D

 28 32  0  0  0  0  0  0  0  0999 V2000
   28.8570   45.2230   -1.7810 O   0  0  0  0  0  0  0  0  0  0  0  0
   28.1920   46.0470   -2.6120 C   0  0  0  0  0  0  0  0  0  0  0  0
   27.2190   45.6570   -3.2300 O   0  0  0  0  0  0  0  0  0  0  0  0
   28.7690   47.4070   -2.6600 C   0  0  0  0  0  0  0  0  0  0  0  0
   29.2370   47.9360   -3.8700 C   0  0  0  0  0  0  0  0  0  0  0  0
   28.8610   48.1980   -1.5250 C   0  0  0  0  0  0  0  0  0  0  0  0
   29.7800   49.2340   -3.9090 C   0  0  0  0  0  0  0  0  0  0  0  0
   29.3780   49.4490   -1.5130 N   0  0  0  0  0  0  0  0  0  0  0  0
   29.8210   49.9300   -2.6990 C   0  0  0  0  0  0  0  0  0  0  0  0
   30.3210   49.9150   -5.1740 C   0  0  1  0  0  0  0  0  0  0  0  0
   29.4220   49.8690   -6.5090 C   0  0  1  0  0  0  0  0  0  0  0  0
   30.6290   51.3620   -4.8240 C   0  0  0  0  0  0  0  0  0  0  0  0
   28.2720   50.8510   -6.3140 C   0  0  0  0  0  0  0  0  0  0  0  0
   29.7220   52.3260   -5.0510 C   0  0  0  0  0  0  0  0  0  0  0  0
   30.2100   50.3080   -7.6880 N   0  0  0  0  0  0  0  0  0  0  0  0
   28.8560   48.4380   -6.7660 C   0  0  0  0  0  0  0  0  0  0  0  0
   28.4390   51.9950   -5.6280 C   0  0  0  0  0  0  0  0  0  0  0  0
   29.8990   49.5430   -8.8710 C   0  0  0  0  0  0  0  0  0  0  0  0
   29.8820   47.5230   -7.4740 C   0  0  2  0  0  0  0  0  0  0  0  0
   31.0140   47.0910   -6.6370 N   0  0  0  0  0  0  0  0  0  0  0  0
   30.4040   48.2090   -8.6590 N   0  0  0  0  0  0  0  0  0  0  0  0
   32.2910   47.7740   -6.9330 C   0  0  0  0  0  0  0  0  0  0  0  0
   31.2100   45.6400   -6.5720 C   0  0  0  0  0  0  0  0  0  0  0  0
   32.3600   45.3360   -5.6170 C   0  0  0  0  0  0  0  0  0  0  0  0
   33.3350   47.6090   -5.8240 C   0  0  0  0  0  0  0  0  0  0  0  0
   32.3520   43.9870   -4.9240 C   0  0  0  0  0  0  0  0  0  0  0  0
   33.3620   44.2620   -5.9950 C   0  0  0  0  0  0  0  0  0  0  0  0
   32.8940   46.5310   -4.8470 C   0  0  0  0  0  0  0  0  0  0  0  0
  1  2  1  0
  2  3  2  0
  2  4  1  0
  4  5  2  0
  4  6  1  0
  5  7  1  0
  6  8  2  0
  7  9  2  0
  8  9  1  0
 10  7  1  1
 10 11  1  0
 10 12  1  0
 11 13  1  1
 12 14  2  0
 11 15  1  0
 11 16  1  0
 13 17  2  0
 14 17  1  0
 15 18  1  0
 16 19  1  0
 19 20  1  1
 18 21  1  0
 19 21  1  0
 20 22  1  0
 20 23  1  0
 24 23  1  0
 22 25  1  0
 24 26  1  0
 24 27  1  0
 26 27  1  0
 24 28  1  0
 25 28  1  0
M  END
