mac-x0564-mac-x0178
     RDKit          3D

 20 22  0  0  0  0  0  0  0  0999 V2000
   30.7130   46.3840   -6.6800 N   0  0  0  0  0  0  0  0  0  0  0  0
   31.9580   46.1960   -6.9030 C   0  0  0  0  0  0  0  0  0  0  0  0
   32.9340   46.2430   -5.9790 O   0  0  0  0  0  0  0  0  0  0  0  0
   30.2970   46.6690   -5.3130 C   0  0  2  0  0  0  0  0  0  0  0  0
   30.6470   48.1160   -4.8810 C   0  0  2  0  0  0  0  0  0  0  0  0
   30.8740   45.6220   -4.4690 N   0  0  0  0  0  0  0  0  0  0  0  0
   30.4020   48.3770   -3.3730 C   0  0  2  0  0  0  0  0  0  0  0  0
   30.9410   45.9860   -3.0670 C   0  0  0  0  0  0  0  0  0  0  0  0
   29.9210   49.1000   -5.6630 O   0  0  0  0  0  0  0  0  0  0  0  0
   30.0410   47.0780   -2.6870 N   0  0  0  0  0  0  0  0  0  0  0  0
   28.9870   49.7770   -4.8090 C   0  0  1  0  0  0  0  0  0  0  0  0
   29.3380   49.4780   -3.3380 C   0  0  2  0  0  0  0  0  0  0  0  0
   29.2410   46.9330   -1.1970 S   0  0  0  0  0  0  0  0  0  0  0  0
   29.7920   50.6860   -2.5320 C   0  0  0  0  0  0  0  0  0  0  0  0
   28.9590   51.2340   -5.1900 C   0  0  0  0  0  0  0  0  0  0  0  0
   28.9650   45.2860   -1.0690 N   0  0  0  0  0  0  0  0  0  0  0  0
   30.0930   47.2590   -0.0830 O   0  0  0  0  0  0  0  0  0  0  0  0
   27.9200   47.5010   -1.2970 O   0  0  0  0  0  0  0  0  0  0  0  0
   29.7710   51.9350   -3.0150 C   0  0  0  0  0  0  0  0  0  0  0  0
   29.3180   52.2160   -4.3510 C   0  0  0  0  0  0  0  0  0  0  0  0
  1  2  2  3
  2  3  1  0
  4  1  1  6
  4  5  1  0
  4  6  1  0
  5  7  1  0
  6  8  1  0
  5  9  1  6
  7 10  1  1
  8 10  1  0
  9 11  1  0
  7 12  1  0
 11 12  1  0
 10 13  1  0
 12 14  1  6
 11 15  1  1
 13 16  1  0
 13 17  2  0
 13 18  2  0
 14 19  2  0
 15 20  2  0
 19 20  1  0
M  END
