mac-x0204-mac-x0159
     RDKit          3D

 26 29  0  0  0  0  0  0  0  0999 V2000
   30.8210   45.1020   -5.4770 O   0  0  0  0  0  0  0  0  0  0  0  0
   30.4970   46.6750   -4.7680 S   0  0  0  0  0  0  0  0  0  0  0  0
   31.3880   46.9470   -5.6130 O   0  0  0  0  0  0  0  0  0  0  0  0
   31.5300   47.0500   -3.4460 C   0  0  0  0  0  0  0  0  0  0  0  0
   29.5690   47.7300   -5.2850 N   0  0  0  0  0  0  0  0  0  0  0  0
   29.3300   45.7710   -3.7350 C   0  0  0  0  0  0  0  0  0  0  0  0
   30.9030   47.2400   -2.2600 C   0  0  0  0  0  0  0  0  0  0  0  0
   32.8900   47.1750   -3.4930 C   0  0  0  0  0  0  0  0  0  0  0  0
   29.0070   48.7410   -4.3800 C   0  0  0  0  0  0  0  0  0  0  0  0
   29.6840   48.1640   -6.6500 C   0  0  2  0  0  0  0  0  0  0  0  0
   28.7200   44.5840   -4.1320 C   0  0  0  0  0  0  0  0  0  0  0  0
   28.9240   46.0840   -2.5270 N   0  0  0  0  0  0  0  0  0  0  0  0
   31.6310   47.5470   -1.1480 C   0  0  0  0  0  0  0  0  0  0  0  0
   33.6090   47.4810   -2.3990 N   0  0  0  0  0  0  0  0  0  0  0  0
   29.1940   50.0950   -4.7550 N   0  0  0  0  0  0  0  0  0  0  0  0
   28.9350   49.4570   -7.0390 C   0  0  2  0  0  0  0  0  0  0  0  0
   29.0500   47.1650   -7.5490 N   0  0  0  0  0  0  0  0  0  0  0  0
   28.1070   45.4200   -1.8110 C   0  0  0  0  0  0  0  0  0  0  0  0
   27.7300   44.1180   -2.8200 S   0  0  0  0  0  0  0  0  0  0  0  0
   31.0140   47.7480    0.0870 O   0  0  0  0  0  0  0  0  0  0  0  0
   27.6550   45.7920   -0.4150 C   0  0  0  0  0  0  0  0  0  0  0  0
   32.9850   47.6680   -1.2220 C   0  0  0  0  0  0  0  0  0  0  0  0
   28.4710   50.3330   -5.9400 C   0  0  2  0  0  0  0  0  0  0  0  0
   27.7970   48.9670   -7.8010 N   0  0  0  0  0  0  0  0  0  0  0  0
   28.5030   47.9990   -8.6400 C   0  0  0  0  0  0  0  0  0  0  0  0
   28.4450   51.7370   -6.3270 N   0  0  0  0  0  0  0  0  0  0  0  0
  1  2  1  0
  2  3  2  0
  2  4  1  0
  2  5  1  0
  2  6  1  0
  4  7  2  0
  4  8  1  0
  5  9  1  0
  5 10  1  0
  6 11  2  0
  6 12  1  0
  7 13  1  0
  8 14  2  0
  9 15  1  0
 10 16  1  0
 10 17  1  6
 12 18  2  0
 11 19  1  0
 18 19  1  0
 13 20  1  0
 18 21  1  0
 13 22  2  0
 14 22  1  0
 15 23  1  0
 16 23  1  0
 16 24  1  1
 17 25  1  0
 24 25  1  0
 23 26  1  6
M  END
