mac-x0306-mac-x1494
     RDKit          3D

 16 18  0  0  0  0  0  0  0  0999 V2000
   29.3050   51.7600   -7.0900 O   0  0  0  0  0  0  0  0  0  0  0  0
   29.1100   51.3290   -5.9510 C   0  0  0  0  0  0  0  0  0  0  0  0
   28.9730   49.8320   -5.6920 C   0  0  0  0  0  0  0  0  0  0  0  0
   28.9920   52.2140   -4.7080 C   0  0  2  0  0  0  0  0  0  0  0  0
   29.0220   53.6900   -4.9830 C   0  0  0  0  0  0  0  0  0  0  0  0
   30.1080   51.8270   -3.7330 C   0  0  0  0  0  0  0  0  0  0  0  0
   29.5350   49.4870   -4.3750 N   0  0  0  0  0  0  0  0  0  0  0  0
   28.6570   54.2780   -6.1760 N   0  0  0  0  0  0  0  0  0  0  0  0
   29.3970   54.6170   -4.1200 N   0  0  0  0  0  0  0  0  0  0  0  0
   30.6000   50.4010   -3.9440 C   0  0  2  0  0  0  0  0  0  0  0  0
   30.2280   48.1800   -4.3870 C   0  0  0  0  0  0  0  0  0  0  0  0
   29.2730   55.8170   -4.7710 C   0  0  0  0  0  0  0  0  0  0  0  0
   28.8140   55.6300   -6.0490 C   0  0  0  0  0  0  0  0  0  0  0  0
   31.1870   48.2130   -3.1840 C   0  0  1  0  0  0  0  0  0  0  0  0
   31.2410   49.6860   -2.7580 C   0  0  0  0  0  0  0  0  0  0  0  0
   30.6210   47.1620   -1.8650 Cl  0  0  0  0  0  0  0  0  0  0  0  0
  1  2  2  0
  2  3  1  0
  2  4  1  0
  4  5  1  6
  4  6  1  0
  3  7  1  0
  5  8  1  0
  5  9  2  0
 10  6  1  1
  7 10  1  0
  7 11  1  0
  9 12  1  0
  8 13  1  0
 12 13  2  0
 11 14  1  0
 10 15  1  0
 14 15  1  0
 14 16  1  1
M  END
