mac-x0417-mac-x0224
     RDKit          3D

 24 26  0  0  0  0  0  0  0  0999 V2000
   32.4500   46.6190   -5.4790 N   0  0  0  0  0  0  0  0  0  0  0  0
   33.1980   45.4840   -5.5390 C   0  0  0  0  0  0  0  0  0  0  0  0
   33.8700   45.1070   -6.4980 O   0  0  0  0  0  0  0  0  0  0  0  0
   31.2210   46.5940   -5.0710 C   0  0  0  0  0  0  0  0  0  0  0  0
   33.1270   44.7320   -4.2270 C   0  0  0  0  0  0  0  0  0  0  0  0
   30.5280   45.4930   -4.7300 O   0  0  0  0  0  0  0  0  0  0  0  0
   30.4690   47.8510   -4.8750 C   0  0  0  0  0  0  0  0  0  0  0  0
   34.4130   44.7260   -3.4750 C   0  0  0  0  0  0  0  0  0  0  0  0
   29.8960   48.6160   -5.9030 C   0  0  0  0  0  0  0  0  0  0  0  0
   30.3500   48.2930   -3.5560 C   0  0  0  0  0  0  0  0  0  0  0  0
   30.8760   47.6050   -2.4960 O   0  0  0  0  0  0  0  0  0  0  0  0
   34.8340   43.5610   -2.9710 N   0  0  0  0  0  0  0  0  0  0  0  0
   35.3310   45.7830   -3.1710 C   0  0  0  0  0  0  0  0  0  0  0  0
   29.2220   49.8080   -5.5980 C   0  0  0  0  0  0  0  0  0  0  0  0
   29.6860   49.4680   -3.2450 C   0  0  0  0  0  0  0  0  0  0  0  0
   28.4810   50.8220   -6.8680 S   0  0  0  0  0  0  0  0  0  0  0  0
   36.0310   43.8250   -2.3310 O   0  0  0  0  0  0  0  0  0  0  0  0
   36.3300   45.1410   -2.4480 C   0  0  0  0  0  0  0  0  0  0  0  0
   35.4620   47.1650   -3.3970 C   0  0  0  0  0  0  0  0  0  0  0  0
   29.1210   50.2300   -4.2680 C   0  0  0  0  0  0  0  0  0  0  0  0
   28.6900   52.4730   -6.1510 C   0  0  0  0  0  0  0  0  0  0  0  0
   37.4610   45.7670   -1.9290 C   0  0  0  0  0  0  0  0  0  0  0  0
   36.5930   47.8290   -2.8850 C   0  0  0  0  0  0  0  0  0  0  0  0
   37.5730   47.1380   -2.1660 C   0  0  0  0  0  0  0  0  0  0  0  0
  1  2  1  0
  2  3  2  0
  1  4  2  3
  2  5  1  0
  4  6  1  0
  4  7  1  0
  5  8  1  0
  7  9  2  0
  7 10  1  0
 10 11  1  0
  8 12  2  0
  8 13  1  0
  9 14  1  0
 10 15  2  0
 14 16  1  0
 12 17  1  0
 13 18  2  0
 17 18  1  0
 13 19  1  0
 14 20  2  0
 15 20  1  0
 16 21  1  0
 18 22  1  0
 19 23  2  0
 22 24  2  0
 23 24  1  0
M  END
