mac-x0255-mac-x0437
     RDKit          3D

 24 27  0  0  0  0  0  0  0  0999 V2000
   31.4850   44.0550   -7.2540 O   0  0  0  0  0  0  0  0  0  0  0  0
   31.8210   45.3510   -7.0820 C   0  0  0  0  0  0  0  0  0  0  0  0
   31.8330   46.1110   -8.0400 O   0  0  0  0  0  0  0  0  0  0  0  0
   32.1590   45.7000   -5.6390 C   0  0  2  0  0  0  0  0  0  0  0  0
   33.3100   44.8080   -5.1180 C   0  0  0  0  0  0  0  0  0  0  0  0
   30.9580   45.7570   -4.7170 C   0  0  0  0  0  0  0  0  0  0  0  0
   33.5970   44.8400   -3.6060 C   0  0  0  0  0  0  0  0  0  0  0  0
   30.3470   44.6920   -4.0830 C   0  0  0  0  0  0  0  0  0  0  0  0
   30.1600   47.2200   -4.3200 S   0  0  0  0  0  0  0  0  0  0  0  0
   29.2260   45.0630   -3.2670 C   0  0  0  0  0  0  0  0  0  0  0  0
   29.0110   46.4400   -3.3080 C   0  0  0  0  0  0  0  0  0  0  0  0
   34.7680   45.6090   -3.2170 N   0  0  0  0  0  0  0  0  0  0  0  0
   28.3600   44.2740   -2.4730 C   0  0  0  0  0  0  0  0  0  0  0  0
   27.9650   47.0460   -2.5850 C   0  0  0  0  0  0  0  0  0  0  0  0
   34.8100   46.9760   -3.1250 C   0  0  0  0  0  0  0  0  0  0  0  0
   36.0080   45.1260   -2.8820 C   0  0  0  0  0  0  0  0  0  0  0  0
   27.3210   44.8690   -1.7540 C   0  0  0  0  0  0  0  0  0  0  0  0
   27.1250   46.2410   -1.8100 C   0  0  0  0  0  0  0  0  0  0  0  0
   35.9920   47.4070   -2.7550 N   0  0  0  0  0  0  0  0  0  0  0  0
   36.7510   46.2700   -2.5980 C   0  0  0  0  0  0  0  0  0  0  0  0
   36.5540   43.8370   -2.7970 C   0  0  0  0  0  0  0  0  0  0  0  0
   38.0920   46.1480   -2.2120 C   0  0  0  0  0  0  0  0  0  0  0  0
   37.8940   43.7360   -2.4100 C   0  0  0  0  0  0  0  0  0  0  0  0
   38.6550   44.8680   -2.1210 C   0  0  0  0  0  0  0  0  0  0  0  0
  1  2  1  0
  2  3  2  0
  2  4  1  0
  4  5  1  1
  4  6  1  0
  5  7  1  0
  6  8  2  0
  6  9  1  0
  8 10  1  0
  9 11  1  0
 10 11  2  0
  7 12  1  0
 10 13  1  0
 11 14  1  0
 12 15  1  0
 12 16  1  0
 13 17  2  0
 14 18  2  0
 17 18  1  0
 15 19  2  0
 16 20  2  0
 19 20  1  0
 16 21  1  0
 20 22  1  0
 21 23  2  0
 22 24  2  0
 23 24  1  0
M  END
