mac-x0348-mac-x0397
     RDKit          3D

 28 31  0  0  0  0  0  0  0  0999 V2000
   27.5490   44.3340   -0.9600 C   0  0  0  0  0  0  0  0  0  0  0  0
   28.5440   45.2180   -1.5300 N   0  0  0  0  0  0  0  0  0  0  0  0
   29.1510   45.0280   -2.7430 C   0  0  0  0  0  0  0  0  0  0  0  0
   29.0160   46.3720   -0.9410 C   0  0  0  0  0  0  0  0  0  0  0  0
   30.0400   46.0730   -2.9600 C   0  0  0  0  0  0  0  0  0  0  0  0
   29.9530   46.9230   -1.8180 C   0  0  0  0  0  0  0  0  0  0  0  0
   28.7060   46.9860    0.2850 C   0  0  0  0  0  0  0  0  0  0  0  0
   30.9120   46.2710   -4.1810 C   0  0  1  0  0  0  0  0  0  0  0  0
   30.5890   48.1220   -1.4470 C   0  0  0  0  0  0  0  0  0  0  0  0
   29.3560   48.1750    0.6220 C   0  0  0  0  0  0  0  0  0  0  0  0
   31.8280   45.2120   -4.7480 C   0  0  0  0  0  0  0  0  0  0  0  0
   30.0790   46.9210   -5.2810 C   0  0  0  0  0  0  0  0  0  0  0  0
   30.2890   48.7400   -0.2350 C   0  0  0  0  0  0  0  0  0  0  0  0
   32.3670   45.7370   -6.0520 C   0  0  0  0  0  0  0  0  0  0  0  0
   28.9060   47.7110   -4.7310 C   0  0  0  0  0  0  0  0  0  0  0  0
   31.8100   45.7060   -7.1340 O   0  0  0  0  0  0  0  0  0  0  0  0
   33.5870   46.3010   -5.9280 O   0  0  0  0  0  0  0  0  0  0  0  0
   29.0460   49.1990   -4.7690 C   0  0  0  0  0  0  0  0  0  0  0  0
   29.3440   49.9770   -3.6410 C   0  0  0  0  0  0  0  0  0  0  0  0
   28.8490   49.8030   -6.0020 C   0  0  0  0  0  0  0  0  0  0  0  0
   28.9300   51.1860   -6.1070 C   0  0  0  0  0  0  0  0  0  0  0  0
   29.4240   51.3640   -3.7690 C   0  0  0  0  0  0  0  0  0  0  0  0
   29.7730   52.3760   -2.4300 Cl  0  0  0  0  0  0  0  0  0  0  0  0
   29.2110   52.0040   -5.0110 C   0  0  0  0  0  0  0  0  0  0  0  0
   28.7080   52.1410   -7.5120 S   0  0  0  0  0  0  0  0  0  0  0  0
   28.9760   53.5480   -6.5850 C   0  0  0  0  0  0  0  0  0  0  0  0
   29.2330   53.3630   -5.3130 N   0  0  0  0  0  0  0  0  0  0  0  0
   28.9200   54.7630   -7.1540 N   0  0  0  0  0  0  0  0  0  0  0  0
  1  2  1  0
  2  3  1  0
  2  4  1  0
  3  5  2  0
  4  6  2  0
  5  6  1  0
  4  7  1  0
  5  8  1  0
  6  9  1  0
  7 10  2  0
  8 11  1  6
  8 12  1  0
  9 13  2  0
 10 13  1  0
 11 14  1  0
 12 15  1  0
 14 16  2  0
 14 17  1  0
 15 18  1  0
 18 19  2  0
 18 20  1  0
 20 21  2  0
 19 22  1  0
 22 23  1  0
 21 24  1  0
 22 24  2  0
 21 25  1  0
 25 26  1  0
 24 27  1  0
 26 27  2  0
 26 28  1  0
M  END
