mac-x0137-mac-x0453
     RDKit          3D

 24 27  0  0  0  0  0  0  0  0999 V2000
   32.3940   48.1390   -4.3400 F   0  0  0  0  0  0  0  0  0  0  0  0
   31.5090   47.1710   -3.9800 C   0  0  2  0  0  0  0  0  0  0  0  0
   32.0500   45.8270   -4.4390 C   0  0  0  0  0  0  0  0  0  0  0  0
   30.1370   47.4700   -4.6050 C   0  0  0  0  0  0  0  0  0  0  0  0
   30.0800   47.2550   -6.0740 N   0  0  0  0  0  0  0  0  0  0  0  0
   31.9600   45.6740   -5.9570 C   0  0  0  0  0  0  0  0  0  0  0  0
   30.5530   45.9310   -6.4950 C   0  0  0  0  0  0  0  0  0  0  0  0
   29.2300   48.0340   -6.8740 C   0  0  0  0  0  0  0  0  0  0  0  0
   28.4720   47.4200   -7.8600 N   0  0  0  0  0  0  0  0  0  0  0  0
   29.0580   49.3690   -6.7890 C   0  0  0  0  0  0  0  0  0  0  0  0
   27.6190   48.1080   -8.6770 C   0  0  0  0  0  0  0  0  0  0  0  0
   28.1160   50.0560   -7.7130 C   0  0  0  0  0  0  0  0  0  0  0  0
   29.5580   50.4530   -5.9980 C   0  0  0  0  0  0  0  0  0  0  0  0
   27.4040   49.3790   -8.6590 N   0  0  0  0  0  0  0  0  0  0  0  0
   28.0580   51.3440   -7.5100 N   0  0  0  0  0  0  0  0  0  0  0  0
   28.9500   51.5690   -6.4550 C   0  0  0  0  0  0  0  0  0  0  0  0
   29.1710   52.9720   -5.9120 C   0  0  1  0  0  0  0  0  0  0  0  0
   27.9760   53.9350   -6.1510 C   0  0  0  0  0  0  0  0  0  0  0  0
   29.5760   52.9540   -4.4580 C   0  0  0  0  0  0  0  0  0  0  0  0
   28.2370   55.0420   -7.0930 N   0  0  0  0  0  0  0  0  0  0  0  0
   30.7990   52.6600   -3.8900 C   0  0  0  0  0  0  0  0  0  0  0  0
   28.6640   53.2650   -3.4660 N   0  0  0  0  0  0  0  0  0  0  0  0
   30.6220   52.7950   -2.5420 N   0  0  0  0  0  0  0  0  0  0  0  0
   29.3230   53.1600   -2.3340 C   0  0  0  0  0  0  0  0  0  0  0  0
  2  1  1  6
  2  3  1  0
  2  4  1  0
  4  5  1  0
  3  6  1  0
  5  7  1  0
  6  7  1  0
  5  8  1  0
  8  9  1  0
  8 10  2  0
  9 11  1  0
 10 12  1  0
 10 13  1  0
 11 14  2  0
 12 14  1  0
 12 15  2  0
 13 16  2  0
 15 16  1  0
 16 17  1  0
 17 18  1  1
 17 19  1  0
 18 20  1  0
 19 21  2  0
 19 22  1  0
 21 23  1  0
 22 24  2  0
 23 24  1  0
M  END
