mac-x0415-mac-x0116
     RDKit          3D

 31 35  0  0  0  0  0  0  0  0999 V2000
   33.0700   45.5090   -6.7100 O   0  0  0  0  0  0  0  0  0  0  0  0
   32.0990   45.7100   -5.7970 C   0  0  0  0  0  0  0  0  0  0  0  0
   30.9210   46.1420   -6.0480 N   0  0  0  0  0  0  0  0  0  0  0  0
   32.5410   45.3710   -4.3950 C   0  0  0  0  0  0  0  0  0  0  0  0
   30.4530   46.4820   -7.3840 C   0  0  0  0  0  0  0  0  0  0  0  0
   31.3140   45.0430   -3.6240 C   0  0  0  0  0  0  0  0  0  0  0  0
   30.3060   44.0410   -4.0250 C   0  0  0  0  0  0  0  0  0  0  0  0
   30.7790   45.4850   -2.4860 C   0  0  0  0  0  0  0  0  0  0  0  0
   29.9830   47.8530   -7.5200 N   0  0  0  0  0  0  0  0  0  0  0  0
   29.2620   43.8500   -3.2670 N   0  0  0  0  0  0  0  0  0  0  0  0
   29.4980   44.7850   -2.1520 C   0  0  2  0  0  0  0  0  0  0  0  0
   31.2070   46.4910   -1.5580 C   0  0  0  0  0  0  0  0  0  0  0  0
   29.8460   48.7810   -6.5180 C   0  0  0  0  0  0  0  0  0  0  0  0
   29.5990   48.4520   -8.6900 C   0  0  0  0  0  0  0  0  0  0  0  0
   28.4480   45.8110   -1.8840 C   0  0  0  0  0  0  0  0  0  0  0  0
   30.2360   47.2310   -0.9790 C   0  0  0  0  0  0  0  0  0  0  0  0
   30.1080   48.6290   -5.2120 N   0  0  0  0  0  0  0  0  0  0  0  0
   29.3760   49.9190   -7.1490 C   0  0  0  0  0  0  0  0  0  0  0  0
   29.2250   49.7000   -8.5080 N   0  0  0  0  0  0  0  0  0  0  0  0
   30.6150   48.5820    0.2560 Br  0  0  0  0  0  0  0  0  0  0  0  0
   28.8260   46.9810   -1.3170 C   0  0  0  0  0  0  0  0  0  0  0  0
   29.8540   49.7590   -4.5290 C   0  0  0  0  0  0  0  0  0  0  0  0
   29.1440   51.0510   -6.3390 C   0  0  0  0  0  0  0  0  0  0  0  0
   28.6720   52.2560   -6.8750 N   0  0  0  0  0  0  0  0  0  0  0  0
   29.3970   50.9340   -5.0080 N   0  0  0  0  0  0  0  0  0  0  0  0
   29.2500   53.4680   -6.2980 C   0  0  0  0  0  0  0  0  0  0  0  0
   30.5150   53.9770   -6.9170 C   0  0  0  0  0  0  0  0  0  0  0  0
   31.6380   53.8920   -6.1430 O   0  0  0  0  0  0  0  0  0  0  0  0
   30.8350   54.5370   -8.1390 C   0  0  0  0  0  0  0  0  0  0  0  0
   32.2250   54.8050   -8.1060 C   0  0  0  0  0  0  0  0  0  0  0  0
   32.6660   54.3960   -6.8730 C   0  0  0  0  0  0  0  0  0  0  0  0
  1  2  1  0
  2  3  2  3
  2  4  1  0
  3  5  1  0
  4  6  1  0
  6  7  1  0
  6  8  2  0
  5  9  1  0
  7 10  2  0
  8 11  1  0
 10 11  1  0
  8 12  1  0
  9 13  1  0
  9 14  1  0
 11 15  1  6
 12 16  2  0
 13 17  2  0
 13 18  1  0
 14 19  2  0
 18 19  1  0
 16 20  1  0
 15 21  2  0
 16 21  1  0
 17 22  1  0
 18 23  2  0
 23 24  1  0
 22 25  2  0
 23 25  1  0
 24 26  1  0
 26 27  1  0
 27 28  1  0
 27 29  2  0
 29 30  1  0
 28 31  1  0
 30 31  2  0
M  END
