mac-x0212-mac-x0338
     RDKit          3D

 15 15  0  0  0  0  0  0  0  0999 V2000
   30.9040   53.7770   -6.3470 C   0  0  0  0  0  0  0  0  0  0  0  0
   29.3460   54.1100   -5.5450 S   0  0  0  0  0  0  0  0  0  0  0  0
   28.6830   55.1800   -6.2690 O   0  0  0  0  0  0  0  0  0  0  0  0
   29.5490   54.2150   -4.1150 O   0  0  0  0  0  0  0  0  0  0  0  0
   28.4630   52.6410   -5.8990 N   0  0  0  0  0  0  0  0  0  0  0  0
   28.1120   52.6400   -7.2790 N   0  0  0  0  0  0  0  0  0  0  0  0
   29.0420   51.4110   -5.4160 C   0  0  0  0  0  0  0  0  0  0  0  0
   29.4180   50.4590   -6.3650 C   0  0  0  0  0  0  0  0  0  0  0  0
   29.2350   51.1490   -4.0530 C   0  0  0  0  0  0  0  0  0  0  0  0
   29.9860   49.2460   -5.9600 C   0  0  0  0  0  0  0  0  0  0  0  0
   29.8020   49.9370   -3.6420 C   0  0  0  0  0  0  0  0  0  0  0  0
   30.1780   48.9860   -4.5980 C   0  0  0  0  0  0  0  0  0  0  0  0
   30.7810   47.6920   -4.2050 C   0  0  0  0  0  0  0  0  0  0  0  0
   31.0580   46.8170   -5.0090 O   0  0  0  0  0  0  0  0  0  0  0  0
   30.9880   47.5840   -2.8770 O   0  0  0  0  0  0  0  0  0  0  0  0
  1  2  1  0
  2  3  2  0
  2  4  2  0
  2  5  1  0
  5  6  1  0
  5  7  1  0
  7  8  2  0
  7  9  1  0
  8 10  1  0
  9 11  2  0
 10 12  2  0
 11 12  1  0
 12 13  1  0
 13 14  2  0
 13 15  1  0
M  END
