mac-x0277-mac-x0567
     RDKit          3D

 23 25  0  0  0  0  0  0  0  0999 V2000
   27.5210   46.3950   -0.9510 Cl  0  0  0  0  0  0  0  0  0  0  0  0
   28.8670   46.0450   -1.9790 C   0  0  0  0  0  0  0  0  0  0  0  0
   30.0370   46.8100   -1.9790 C   0  0  0  0  0  0  0  0  0  0  0  0
   28.7580   44.9440   -2.8370 C   0  0  0  0  0  0  0  0  0  0  0  0
   30.2450   48.1780   -0.9470 Cl  0  0  0  0  0  0  0  0  0  0  0  0
   31.0910   46.4740   -2.8330 C   0  0  0  0  0  0  0  0  0  0  0  0
   29.8130   44.6070   -3.6920 C   0  0  0  0  0  0  0  0  0  0  0  0
   30.9910   45.3720   -3.6970 C   0  0  0  0  0  0  0  0  0  0  0  0
   32.1450   45.0390   -4.6090 C   0  0  0  0  0  0  0  0  0  0  0  0
   32.1650   45.9420   -5.8120 C   0  0  0  0  0  0  0  0  0  0  0  0
   33.2840   46.6770   -5.9780 O   0  0  0  0  0  0  0  0  0  0  0  0
   31.1580   45.9850   -6.6050 N   0  0  0  0  0  0  0  0  0  0  0  0
   31.2330   46.8870   -7.7420 C   0  0  0  0  0  0  0  0  0  0  0  0
   29.8940   47.3560   -8.0690 N   0  0  0  0  0  0  0  0  0  0  0  0
   29.4510   48.5630   -7.6150 C   0  0  0  0  0  0  0  0  0  0  0  0
   28.8160   49.4760   -8.4210 N   0  0  0  0  0  0  0  0  0  0  0  0
   29.4870   49.1760   -6.3880 C   0  0  0  0  0  0  0  0  0  0  0  0
   28.4460   50.6190   -7.8110 N   0  0  0  0  0  0  0  0  0  0  0  0
   28.8510   50.4650   -6.5380 C   0  0  0  0  0  0  0  0  0  0  0  0
   30.0350   48.6540   -5.2170 C   0  0  0  0  0  0  0  0  0  0  0  0
   28.7360   51.3410   -5.4430 C   0  0  0  0  0  0  0  0  0  0  0  0
   29.9010   49.5550   -4.1390 C   0  0  0  0  0  0  0  0  0  0  0  0
   29.2830   50.8380   -4.2430 C   0  0  0  0  0  0  0  0  0  0  0  0
  1  2  1  0
  2  3  2  0
  2  4  1  0
  3  5  1  0
  3  6  1  0
  4  7  2  0
  6  8  2  0
  7  8  1  0
  8  9  1  0
  9 10  1  0
 10 11  1  0
 10 12  2  3
 12 13  1  0
 13 14  1  0
 14 15  1  0
 15 16  1  0
 15 17  2  0
 16 18  1  0
 17 19  1  0
 18 19  2  0
 17 20  1  0
 19 21  1  0
 20 22  2  0
 21 23  2  0
 22 23  1  0
M  END
