mac-x0306-mac-x0338
     RDKit          3D

 14 15  0  0  0  0  0  0  0  0999 V2000
   28.2460   51.0290   -7.9710 N   0  0  0  0  0  0  0  0  0  0  0  0
   28.7930   51.9260   -7.1100 C   0  0  0  0  0  0  0  0  0  0  0  0
   28.9770   53.0850   -7.4570 O   0  0  0  0  0  0  0  0  0  0  0  0
   29.1630   51.4920   -5.7450 C   0  0  0  0  0  0  0  0  0  0  0  0
   29.2540   50.1210   -5.5110 C   0  0  0  0  0  0  0  0  0  0  0  0
   29.4270   52.3530   -4.6800 C   0  0  0  0  0  0  0  0  0  0  0  0
   29.3620   53.8050   -4.8170 C   0  0  0  0  0  0  0  0  0  0  0  0
   29.7680   51.8010   -3.4330 C   0  0  0  0  0  0  0  0  0  0  0  0
   29.5830   49.5670   -4.3130 N   0  0  0  0  0  0  0  0  0  0  0  0
   28.6830   54.4320   -5.8360 N   0  0  0  0  0  0  0  0  0  0  0  0
   29.9200   54.7010   -4.0260 N   0  0  0  0  0  0  0  0  0  0  0  0
   29.8320   50.4220   -3.3010 C   0  0  0  0  0  0  0  0  0  0  0  0
   29.5920   55.9230   -4.5520 C   0  0  0  0  0  0  0  0  0  0  0  0
   28.8220   55.7810   -5.6800 C   0  0  0  0  0  0  0  0  0  0  0  0
  1  2  1  0
  2  3  2  0
  2  4  1  0
  4  5  2  0
  4  6  1  0
  6  7  1  0
  6  8  2  0
  5  9  1  0
  7 10  1  0
  7 11  2  0
  8 12  1  0
  9 12  2  0
 11 13  1  0
 10 14  1  0
 13 14  2  0
M  END
