mac-x0417
     RDKit          3D

 13 14  0  0  0  0  0  0  0  0999 V2000
   32.1320   45.4590   -6.3350 O   0  0  0  0  0  0  0  0  0  0  0  0
   33.1120   45.4490   -5.5950 C   0  0  0  0  0  0  0  0  0  0  0  0
   34.2800   45.5190   -6.1040 O   0  0  0  0  0  0  0  0  0  0  0  0
   32.9750   45.3380   -4.0860 C   0  0  0  0  0  0  0  0  0  0  0  0
   34.2760   45.0320   -3.3910 C   0  0  0  0  0  0  0  0  0  0  0  0
   34.6540   43.8650   -2.9410 N   0  0  0  0  0  0  0  0  0  0  0  0
   35.8320   43.9290   -2.3380 O   0  0  0  0  0  0  0  0  0  0  0  0
   36.3240   45.1230   -2.4660 C   0  0  0  0  0  0  0  0  0  0  0  0
   37.5220   45.7280   -1.9880 C   0  0  0  0  0  0  0  0  0  0  0  0
   37.7250   47.1060   -2.1890 C   0  0  0  0  0  0  0  0  0  0  0  0
   36.7390   47.8240   -2.7410 C   0  0  0  0  0  0  0  0  0  0  0  0
   35.6040   47.2420   -3.1740 C   0  0  0  0  0  0  0  0  0  0  0  0
   35.3760   45.9160   -3.0690 C   0  0  0  0  0  0  0  0  0  0  0  0
  1  2  1  0
  2  3  2  0
  2  4  1  0
  4  5  1  0
  5  6  2  0
  6  7  1  0
  7  8  1  0
  8  9  1  0
  9 10  2  0
 10 11  1  0
 11 12  2  0
  5 13  1  0
  8 13  2  0
 12 13  1  0
M  END
