mac-x1493-mac-x0163
     RDKit          3D

 29 33  0  0  0  0  0  0  0  0999 V2000
   27.9570   48.5030   -4.0330 O   0  0  0  0  0  0  0  0  0  0  0  0
   29.2070   48.8650   -4.6170 C   0  0  0  0  0  0  0  0  0  0  0  0
   30.1460   48.3410   -3.6990 O   0  0  0  0  0  0  0  0  0  0  0  0
   29.3580   50.3840   -4.5590 C   0  0  0  0  0  0  0  0  0  0  0  0
   29.2130   48.2900   -6.0320 C   0  0  0  0  0  0  0  0  0  0  0  0
   29.4090   51.1740   -5.7170 C   0  0  0  0  0  0  0  0  0  0  0  0
   29.4490   51.0660   -3.3520 C   0  0  0  0  0  0  0  0  0  0  0  0
   28.2700   48.7500   -6.9680 C   0  0  0  0  0  0  0  0  0  0  0  0
   30.0850   47.3070   -6.5340 C   0  0  0  0  0  0  0  0  0  0  0  0
   27.3120   49.7250   -6.6640 N   0  0  0  0  0  0  0  0  0  0  0  0
   29.5420   52.5670   -5.6310 C   0  0  0  0  0  0  0  0  0  0  0  0
   29.5790   52.4090   -3.2300 N   0  0  0  0  0  0  0  0  0  0  0  0
   30.0110   46.8570   -7.8080 N   0  0  0  0  0  0  0  0  0  0  0  0
   28.1940   48.3050   -8.2320 N   0  0  0  0  0  0  0  0  0  0  0  0
   31.1170   46.6990   -5.7580 N   0  0  0  0  0  0  0  0  0  0  0  0
   29.6240   53.1480   -4.3520 C   0  0  0  0  0  0  0  0  0  0  0  0
   29.5930   53.3750   -6.7810 C   0  0  0  0  0  0  0  0  0  0  0  0
   29.0710   47.3780   -8.5920 C   0  0  0  0  0  0  0  0  0  0  0  0
   32.4540   47.3060   -5.5990 C   0  0  0  0  0  0  0  0  0  0  0  0
   30.5140   46.0690   -4.5580 C   0  0  0  0  0  0  0  0  0  0  0  0
   29.7550   54.5260   -4.2620 C   0  0  0  0  0  0  0  0  0  0  0  0
   29.7240   54.7560   -6.6640 C   0  0  0  0  0  0  0  0  0  0  0  0
   33.4490   46.3370   -4.9620 C   0  0  0  0  0  0  0  0  0  0  0  0
   32.9850   48.0630   -6.8620 C   0  0  0  0  0  0  0  0  0  0  0  0
   32.3590   48.7250   -4.9380 C   0  0  0  0  0  0  0  0  0  0  0  0
   31.4590   46.1260   -3.3660 C   0  0  0  0  0  0  0  0  0  0  0  0
   29.8060   55.3340   -5.4020 C   0  0  0  0  0  0  0  0  0  0  0  0
   32.8550   45.6290   -3.7400 C   0  0  0  0  0  0  0  0  0  0  0  0
   33.4100   49.2170   -5.9430 C   0  0  0  0  0  0  0  0  0  0  0  0
  2  1  1  0
  2  3  1  0
  2  4  1  0
  2  5  1  0
  4  6  2  0
  4  7  1  0
  5  8  2  0
  5  9  1  0
  8 10  1  0
  6 11  1  0
  7 12  2  0
  9 13  2  0
  8 14  1  0
  9 15  1  0
 11 16  2  0
 12 16  1  0
 11 17  1  0
 13 18  1  0
 14 18  2  0
 19 15  1  0
 15 20  1  0
 16 21  1  0
 17 22  2  0
 19 23  1  0
 19 24  1  0
 19 25  1  0
 20 26  1  0
 21 27  2  0
 22 27  1  0
 23 28  1  0
 26 28  1  0
 24 29  1  0
 25 29  1  0
M  END
