mac-x0404-mac-x0148
     RDKit          3D

 29 33  0  0  0  0  0  0  0  0999 V2000
   31.9230   42.6870   -6.6120 O   0  0  0  0  0  0  0  0  0  0  0  0
   32.7910   43.3240   -5.7850 C   0  0  0  0  0  0  0  0  0  0  0  0
   33.9270   43.6320   -6.1170 O   0  0  0  0  0  0  0  0  0  0  0  0
   32.1860   43.5990   -4.4150 C   0  0  0  0  0  0  0  0  0  0  0  0
   31.7260   44.9600   -4.3640 O   0  0  0  0  0  0  0  0  0  0  0  0
   31.5790   45.4450   -3.0080 C   0  0  2  0  0  0  0  0  0  0  0  0
   30.2220   44.9620   -2.4040 C   0  0  1  0  0  0  0  0  0  0  0  0
   31.7290   47.0130   -2.9590 C   0  0  1  0  0  0  0  0  0  0  0  0
   30.0030   45.4950   -0.9450 C   0  0  1  0  0  0  0  0  0  0  0  0
   31.5220   47.4390   -1.5130 C   0  0  0  0  0  0  0  0  0  0  0  0
   29.0610   45.2710   -3.3320 C   0  0  0  0  0  0  0  0  0  0  0  0
   33.1750   47.3980   -3.3910 C   0  0  0  0  0  0  0  0  0  0  0  0
   30.6390   47.7510   -3.8210 C   0  0  0  0  0  0  0  0  0  0  0  0
   30.7590   46.7640   -0.6400 C   0  0  0  0  0  0  0  0  0  0  0  0
   28.5440   45.6170   -0.5530 C   0  0  0  0  0  0  0  0  0  0  0  0
   27.8400   45.5910   -2.8770 C   0  0  0  0  0  0  0  0  0  0  0  0
   33.3530   47.5670   -4.8940 C   0  0  0  0  0  0  0  0  0  0  0  0
   30.9910   48.0310   -5.2390 N   0  0  0  0  0  0  0  0  0  0  0  0
   27.5620   45.6590   -1.4630 C   0  0  0  0  0  0  0  0  0  0  0  0
   32.3420   48.5650   -5.4150 C   0  0  0  0  0  0  0  0  0  0  0  0
   29.9850   48.3740   -6.1490 C   0  0  0  0  0  0  0  0  0  0  0  0
   29.6510   47.5390   -7.2010 N   0  0  0  0  0  0  0  0  0  0  0  0
   29.2720   49.5130   -6.0850 C   0  0  0  0  0  0  0  0  0  0  0  0
   28.6700   47.8500   -8.1040 C   0  0  0  0  0  0  0  0  0  0  0  0
   28.2230   49.7930   -7.0980 C   0  0  0  0  0  0  0  0  0  0  0  0
   29.2190   50.6660   -5.2420 C   0  0  0  0  0  0  0  0  0  0  0  0
   27.9460   48.9200   -8.1100 N   0  0  0  0  0  0  0  0  0  0  0  0
   27.6290   50.9390   -6.8960 N   0  0  0  0  0  0  0  0  0  0  0  0
   28.2550   51.4430   -5.7630 C   0  0  0  0  0  0  0  0  0  0  0  0
  1  2  1  0
  2  3  2  0
  2  4  1  0
  4  5  1  0
  6  5  1  6
  6  7  1  0
  6  8  1  0
  7  9  1  0
  8 10  1  1
  7 11  1  6
  8 12  1  0
  8 13  1  0
  9 14  1  6
 10 14  2  0
  9 15  1  0
 11 16  2  0
 12 17  1  0
 13 18  1  0
 15 19  2  0
 16 19  1  0
 17 20  1  0
 18 20  1  0
 18 21  1  0
 21 22  1  0
 21 23  2  0
 22 24  1  0
 23 25  1  0
 23 26  1  0
 24 27  2  0
 25 27  1  0
 25 28  2  0
 26 29  2  0
 28 29  1  0
M  END
