mac-x0402-mac-x0360
     RDKit          3D

 22 24  0  0  0  0  0  0  0  0999 V2000
   30.2310   48.8810   -4.6940 C   0  0  0  0  0  0  0  0  0  0  0  0
   31.2320   48.8230   -6.1720 S   0  0  0  0  0  0  0  0  0  0  0  0
   30.3300   48.8500   -7.3100 O   0  0  0  0  0  0  0  0  0  0  0  0
   29.6740   50.2700   -4.5950 C   0  0  0  0  0  0  0  0  0  0  0  0
   32.2170   47.7680   -6.0490 O   0  0  0  0  0  0  0  0  0  0  0  0
   29.7520   51.0110   -3.4120 C   0  0  0  0  0  0  0  0  0  0  0  0
   29.0690   50.8250   -5.7310 C   0  0  0  0  0  0  0  0  0  0  0  0
   32.0860   50.3910   -6.1510 C   0  0  0  0  0  0  0  0  0  0  0  0
   28.5550   52.1230   -5.6580 C   0  0  0  0  0  0  0  0  0  0  0  0
   29.2320   52.3100   -3.3510 C   0  0  0  0  0  0  0  0  0  0  0  0
   33.1340   50.5690   -5.2460 C   0  0  0  0  0  0  0  0  0  0  0  0
   31.7090   51.4180   -7.0280 C   0  0  0  0  0  0  0  0  0  0  0  0
   28.6240   52.8800   -4.4880 C   0  0  0  0  0  0  0  0  0  0  0  0
   27.7740   53.0490   -6.8770 S   0  0  0  0  0  0  0  0  0  0  0  0
   33.8070   51.7870   -5.2210 C   0  0  0  0  0  0  0  0  0  0  0  0
   32.4010   52.6300   -6.9820 C   0  0  0  0  0  0  0  0  0  0  0  0
   31.9680   53.9150   -8.0440 Cl  0  0  0  0  0  0  0  0  0  0  0  0
   35.1020   52.0220   -4.1120 Cl  0  0  0  0  0  0  0  0  0  0  0  0
   27.5970   54.3470   -5.7750 C   0  0  0  0  0  0  0  0  0  0  0  0
   28.0720   54.1460   -4.5740 N   0  0  0  0  0  0  0  0  0  0  0  0
   33.4480   52.8210   -6.0820 C   0  0  0  0  0  0  0  0  0  0  0  0
   27.0040   55.4930   -6.1440 N   0  0  0  0  0  0  0  0  0  0  0  0
  2  1  1  0
  2  3  2  0
  1  4  1  0
  2  5  2  0
  4  6  2  0
  4  7  1  0
  2  8  1  0
  7  9  2  0
  6 10  1  0
  8 11  2  0
  8 12  1  0
  9 13  1  0
 10 13  2  0
  9 14  1  0
 11 15  1  0
 12 16  2  0
 16 17  1  0
 15 18  1  0
 14 19  1  0
 13 20  1  0
 19 20  2  0
 15 21  2  0
 16 21  1  0
 19 22  1  0
M  END
