mac-x0301-mac-x0354
     RDKit          3D

 29 32  0  0  0  0  0  0  0  0999 V2000
   29.5300   45.6650   -4.2650 O   0  0  0  0  0  0  0  0  0  0  0  0
   30.4310   46.7520   -4.0670 C   0  0  0  0  0  0  0  0  0  0  0  0
   30.6320   46.8540   -2.6670 O   0  0  0  0  0  0  0  0  0  0  0  0
   31.7490   46.2660   -4.6480 C   0  0  0  0  0  0  0  0  0  0  0  0
   29.8310   47.9840   -4.7350 C   0  0  0  0  0  0  0  0  0  0  0  0
   31.6110   45.3780   -5.8770 C   0  0  0  0  0  0  0  0  0  0  0  0
   29.4890   48.0760   -6.0820 C   0  0  0  0  0  0  0  0  0  0  0  0
   29.5860   49.1430   -3.9660 C   0  0  0  0  0  0  0  0  0  0  0  0
   32.8090   45.6270   -6.6310 N   0  0  0  0  0  0  0  0  0  0  0  0
   28.9460   49.2220   -6.6280 C   0  0  0  0  0  0  0  0  0  0  0  0
   29.0330   50.3090   -4.5250 C   0  0  0  0  0  0  0  0  0  0  0  0
   29.6290   47.0970   -7.0260 O   0  0  0  0  0  0  0  0  0  0  0  0
   33.8980   45.2180   -6.1190 C   0  0  0  0  0  0  0  0  0  0  0  0
   28.7070   50.3510   -5.8800 C   0  0  0  0  0  0  0  0  0  0  0  0
   28.6850   49.0960   -7.9620 O   0  0  0  0  0  0  0  0  0  0  0  0
   28.9570   47.6970   -8.1520 C   0  0  0  0  0  0  0  0  0  0  0  0
   35.0380   45.4810   -6.7780 O   0  0  0  0  0  0  0  0  0  0  0  0
   34.0560   44.4850   -4.8780 C   0  0  0  0  0  0  0  0  0  0  0  0
   33.4030   43.2890   -4.5090 C   0  0  0  0  0  0  0  0  0  0  0  0
   34.8740   44.7900   -3.7970 C   0  0  0  0  0  0  0  0  0  0  0  0
   34.6610   43.7760   -2.8860 N   0  0  0  0  0  0  0  0  0  0  0  0
   33.7680   42.8550   -3.3000 N   0  0  0  0  0  0  0  0  0  0  0  0
   35.7900   45.9000   -3.5770 C   0  0  0  0  0  0  0  0  0  0  0  0
   35.2800   43.6200   -1.5900 C   0  0  0  0  0  0  0  0  0  0  0  0
   37.1740   45.6770   -3.5230 C   0  0  0  0  0  0  0  0  0  0  0  0
   35.2920   47.1990   -3.4180 C   0  0  0  0  0  0  0  0  0  0  0  0
   38.0460   46.7440   -3.3140 C   0  0  0  0  0  0  0  0  0  0  0  0
   36.1680   48.2650   -3.2080 C   0  0  0  0  0  0  0  0  0  0  0  0
   37.5430   48.0360   -3.1570 C   0  0  0  0  0  0  0  0  0  0  0  0
  2  1  1  0
  2  3  1  0
  2  4  1  0
  2  5  1  0
  4  6  1  0
  5  7  1  0
  5  8  2  0
  6  9  1  0
  7 10  2  0
  8 11  1  0
  7 12  1  0
  9 13  2  3
 10 14  1  0
 11 14  2  0
 10 15  1  0
 12 16  1  0
 15 16  1  0
 13 17  1  0
 13 18  1  0
 18 19  1  0
 18 20  2  0
 20 21  1  0
 19 22  2  0
 21 22  1  0
 20 23  1  0
 21 24  1  0
 23 25  2  0
 23 26  1  0
 25 27  1  0
 26 28  2  0
 27 29  2  0
 28 29  1  0
M  END
