mac-x0451-mac-x0337
     RDKit          3D

 21 23  0  0  0  0  0  0  0  0999 V2000
   28.6860   54.0720   -8.7980 N   0  0  0  0  0  0  0  0  0  0  0  0
   28.9490   52.9280   -8.1380 C   0  0  0  0  0  0  0  0  0  0  0  0
   28.9320   52.8560   -6.8400 N   0  0  0  0  0  0  0  0  0  0  0  0
   29.3280   51.4780   -8.9660 S   0  0  0  0  0  0  0  0  0  0  0  0
   29.2410   51.5610   -6.4380 C   0  0  0  0  0  0  0  0  0  0  0  0
   29.4910   50.6550   -7.4650 C   0  0  0  0  0  0  0  0  0  0  0  0
   29.3190   51.1020   -5.1180 C   0  0  0  0  0  0  0  0  0  0  0  0
   29.8150   49.3160   -7.2100 C   0  0  0  0  0  0  0  0  0  0  0  0
   29.6420   49.7660   -4.8040 C   0  0  0  0  0  0  0  0  0  0  0  0
   29.8830   48.9010   -5.8780 C   0  0  0  0  0  0  0  0  0  0  0  0
   30.1950   47.6070   -5.6510 F   0  0  0  0  0  0  0  0  0  0  0  0
   29.7270   49.3010   -3.5480 N   0  0  0  0  0  0  0  0  0  0  0  0
   30.6420   50.3060   -2.5170 S   0  0  0  0  0  0  0  0  0  0  0  0
   29.6640   51.6540   -2.6920 N   0  0  0  0  0  0  0  0  0  0  0  0
   31.8830   50.8380   -3.7510 C   0  0  0  0  0  0  0  0  0  0  0  0
   32.8300   49.9550   -4.2780 C   0  0  0  0  0  0  0  0  0  0  0  0
   31.9080   52.1710   -4.1880 C   0  0  0  0  0  0  0  0  0  0  0  0
   33.7780   50.3900   -5.2100 C   0  0  0  0  0  0  0  0  0  0  0  0
   32.8550   52.6100   -5.1200 C   0  0  0  0  0  0  0  0  0  0  0  0
   33.8000   51.7200   -5.6360 C   0  0  0  0  0  0  0  0  0  0  0  0
   34.8210   52.1810   -6.6290 C   0  0  0  0  0  0  0  0  0  0  0  0
  1  2  1  0
  2  3  2  0
  2  4  1  0
  3  5  1  0
  4  6  1  0
  5  6  2  0
  5  7  1  0
  6  8  1  0
  7  9  2  0
  8 10  2  0
  9 10  1  0
 10 11  1  0
  9 12  1  0
 12 13  2  3
 13 14  1  0
 13 15  1  0
 15 16  2  0
 15 17  1  0
 16 18  1  0
 17 19  2  0
 18 20  2  0
 19 20  1  0
 20 21  1  0
M  END
