mac-x0415-mac-x0451
     RDKit          3D

 26 29  0  0  0  0  0  0  0  0999 V2000
   33.4790   45.2640   -6.7180 O   0  0  0  0  0  0  0  0  0  0  0  0
   32.3710   45.7020   -6.0970 C   0  0  0  0  0  0  0  0  0  0  0  0
   31.2960   45.9930   -6.7420 N   0  0  0  0  0  0  0  0  0  0  0  0
   32.5060   45.8290   -4.5970 C   0  0  0  0  0  0  0  0  0  0  0  0
   30.1450   46.4740   -5.9720 C   0  0  0  0  0  0  0  0  0  0  0  0
   31.3140   45.3550   -3.8530 C   0  0  0  0  0  0  0  0  0  0  0  0
   30.3800   47.4820   -4.9830 O   0  0  0  0  0  0  0  0  0  0  0  0
   30.4380   44.2170   -4.1960 C   0  0  0  0  0  0  0  0  0  0  0  0
   30.7260   45.7940   -2.7470 C   0  0  0  0  0  0  0  0  0  0  0  0
   29.4190   43.9620   -3.4150 N   0  0  0  0  0  0  0  0  0  0  0  0
   29.5370   44.9800   -2.3560 C   0  0  2  0  0  0  0  0  0  0  0  0
   31.0470   46.9040   -1.8940 C   0  0  0  0  0  0  0  0  0  0  0  0
   30.0970   48.7780   -5.3120 C   0  0  0  0  0  0  0  0  0  0  0  0
   28.3820   45.9060   -2.1470 C   0  0  0  0  0  0  0  0  0  0  0  0
   30.0040   47.5730   -1.3610 C   0  0  0  0  0  0  0  0  0  0  0  0
   30.1890   49.6750   -4.2480 C   0  0  0  0  0  0  0  0  0  0  0  0
   29.7440   49.2340   -6.5840 C   0  0  0  0  0  0  0  0  0  0  0  0
   30.2480   49.0400   -0.2320 Br  0  0  0  0  0  0  0  0  0  0  0  0
   28.6290   47.1500   -1.6660 C   0  0  0  0  0  0  0  0  0  0  0  0
   29.4840   50.6050   -6.7570 C   0  0  0  0  0  0  0  0  0  0  0  0
   29.9300   51.0400   -4.4290 C   0  0  0  0  0  0  0  0  0  0  0  0
   29.5720   51.5170   -5.7060 C   0  0  0  0  0  0  0  0  0  0  0  0
   29.0330   51.4490   -8.1880 S   0  0  0  0  0  0  0  0  0  0  0  0
   28.9930   52.9190   -7.3100 C   0  0  0  0  0  0  0  0  0  0  0  0
   29.2880   52.8320   -6.0380 N   0  0  0  0  0  0  0  0  0  0  0  0
   28.6750   54.0800   -7.9110 N   0  0  0  0  0  0  0  0  0  0  0  0
  1  2  1  0
  2  3  2  3
  2  4  1  0
  3  5  1  0
  4  6  1  0
  5  7  1  0
  6  8  1  0
  6  9  2  0
  8 10  2  0
  9 11  1  0
 10 11  1  0
  9 12  1  0
  7 13  1  0
 11 14  1  6
 12 15  2  0
 13 16  2  0
 13 17  1  0
 15 18  1  0
 14 19  2  0
 15 19  1  0
 17 20  2  0
 16 21  1  0
 20 22  1  0
 21 22  2  0
 20 23  1  0
 23 24  1  0
 22 25  1  0
 24 25  2  0
 24 26  1  0
M  END
