mac-x0283-mac-x0455
     RDKit          3D

 22 24  0  0  0  0  0  0  0  0999 V2000
   28.6410   54.2150   -6.8600 N   0  0  0  0  0  0  0  0  0  0  0  0
   29.0940   53.6410   -5.7240 C   0  0  0  0  0  0  0  0  0  0  0  0
   29.4350   54.3240   -4.6280 N   0  0  0  0  0  0  0  0  0  0  0  0
   29.2660   52.2360   -5.5450 C   0  0  0  0  0  0  0  0  0  0  0  0
   29.8400   53.3750   -3.7040 O   0  0  0  0  0  0  0  0  0  0  0  0
   29.7390   52.1350   -4.2530 C   0  0  0  0  0  0  0  0  0  0  0  0
   29.0910   51.0430   -6.2830 C   0  0  0  0  0  0  0  0  0  0  0  0
   30.0560   50.9340   -3.6220 C   0  0  0  0  0  0  0  0  0  0  0  0
   29.4050   49.7980   -5.6740 C   0  0  0  0  0  0  0  0  0  0  0  0
   29.8850   49.7340   -4.3490 C   0  0  0  0  0  0  0  0  0  0  0  0
   30.2430   48.4440   -3.5740 C   0  0  0  0  0  0  0  0  0  0  0  0
   30.8510   47.1020   -4.1300 C   0  0  1  0  0  0  0  0  0  0  0  0
   30.2080   46.1300   -3.2780 O   0  0  0  0  0  0  0  0  0  0  0  0
   30.4820   46.6480   -5.5640 C   0  0  0  0  0  0  0  0  0  0  0  0
   32.3540   46.9060   -3.8290 C   0  0  0  0  0  0  0  0  0  0  0  0
   29.3840   46.2160   -5.8910 O   0  0  0  0  0  0  0  0  0  0  0  0
   31.4690   46.7150   -6.4820 O   0  0  0  0  0  0  0  0  0  0  0  0
   33.2440   47.9890   -3.6950 C   0  0  0  0  0  0  0  0  0  0  0  0
   32.8940   45.6110   -3.6710 C   0  0  0  0  0  0  0  0  0  0  0  0
   34.6030   47.7850   -3.4160 C   0  0  0  0  0  0  0  0  0  0  0  0
   34.2480   45.4070   -3.3930 C   0  0  0  0  0  0  0  0  0  0  0  0
   35.1040   46.4940   -3.2650 C   0  0  0  0  0  0  0  0  0  0  0  0
  1  2  1  0
  2  3  2  0
  2  4  1  0
  3  5  1  0
  4  6  2  0
  5  6  1  0
  4  7  1  0
  6  8  1  0
  7  9  2  0
  8 10  2  0
  9 10  1  0
 10 11  1  0
 11 12  1  0
 12 13  1  1
 12 14  1  0
 12 15  1  0
 14 16  2  0
 14 17  1  0
 15 18  2  0
 15 19  1  0
 18 20  1  0
 19 21  2  0
 20 22  2  0
 21 22  1  0
M  END
