mac-x0159-mac-x0568
     RDKit          3D

 27 30  0  0  0  0  0  0  0  0999 V2000
   26.8250   50.4450   -5.3980 N   0  0  0  0  0  0  0  0  0  0  0  0
   27.5400   49.1960   -5.2320 C   0  0  1  0  0  0  0  0  0  0  0  0
   28.9560   49.1730   -5.8440 C   0  0  1  0  0  0  0  0  0  0  0  0
   27.5820   48.9400   -3.8020 N   0  0  0  0  0  0  0  0  0  0  0  0
   28.2520   47.6890   -3.4280 C   0  0  0  0  0  0  0  0  0  0  0  0
   29.3990   47.7490   -5.5450 C   0  0  2  0  0  0  0  0  0  0  0  0
   29.1330   49.2540   -7.3120 N   0  0  0  0  0  0  0  0  0  0  0  0
   29.5130   50.5500   -7.7360 N   0  0  0  0  0  0  0  0  0  0  0  0
   29.5500   47.5060   -4.1150 N   0  0  0  0  0  0  0  0  0  0  0  0
   30.5760   47.5940   -6.3820 N   0  0  0  0  0  0  0  0  0  0  0  0
   30.1710   48.2490   -7.6280 C   0  0  0  0  0  0  0  0  0  0  0  0
   30.1540   46.2000   -3.7750 C   0  0  0  0  0  0  0  0  0  0  0  0
   30.5370   51.2880   -7.1520 C   0  0  0  0  0  0  0  0  0  0  0  0
   31.6910   50.8560   -7.1570 O   0  0  0  0  0  0  0  0  0  0  0  0
   29.2380   45.3690   -2.9130 C   0  0  0  0  0  0  0  0  0  0  0  0
   30.2610   52.5990   -6.5240 C   0  0  0  0  0  0  0  0  0  0  0  0
   28.4300   44.3320   -3.3390 C   0  0  0  0  0  0  0  0  0  0  0  0
   29.1680   45.6340   -1.5480 N   0  0  0  0  0  0  0  0  0  0  0  0
   30.8670   53.0130   -5.3470 C   0  0  0  0  0  0  0  0  0  0  0  0
   29.3570   53.4720   -7.1300 C   0  0  0  0  0  0  0  0  0  0  0  0
   28.3200   44.8100   -0.9710 C   0  0  0  0  0  0  0  0  0  0  0  0
   27.5640   43.6750   -2.0180 S   0  0  0  0  0  0  0  0  0  0  0  0
   30.6340   54.2120   -4.7490 N   0  0  0  0  0  0  0  0  0  0  0  0
   29.0970   54.7090   -6.5390 C   0  0  0  0  0  0  0  0  0  0  0  0
   28.0000   44.8150    0.4810 C   0  0  0  0  0  0  0  0  0  0  0  0
   29.7520   55.0420   -5.3550 C   0  0  0  0  0  0  0  0  0  0  0  0
   29.4920   56.3640   -4.6990 C   0  0  0  0  0  0  0  0  0  0  0  0
  2  1  1  1
  2  3  1  0
  2  4  1  0
  4  5  1  0
  3  6  1  0
  3  7  1  6
  7  8  1  0
  5  9  1  0
  6  9  1  0
  6 10  1  6
  7 11  1  0
 10 11  1  0
  9 12  1  0
  8 13  1  0
 13 14  2  0
 12 15  1  0
 13 16  1  0
 15 17  2  0
 15 18  1  0
 16 19  2  0
 16 20  1  0
 18 21  2  0
 17 22  1  0
 21 22  1  0
 19 23  1  0
 20 24  2  0
 21 25  1  0
 23 26  2  0
 24 26  1  0
 26 27  1  0
M  END
