mac-x0338-mac-x0404
     RDKit          3D

 25 27  0  0  0  0  0  0  0  0999 V2000
   28.3770   51.8040   -7.4740 N   0  0  0  0  0  0  0  0  0  0  0  0
   28.7670   52.4490   -6.3290 C   0  0  0  0  0  0  0  0  0  0  0  0
   28.5480   53.6420   -6.1580 O   0  0  0  0  0  0  0  0  0  0  0  0
   29.4830   51.6180   -5.3200 C   0  0  0  0  0  0  0  0  0  0  0  0
   29.6730   50.3000   -5.6090 N   0  0  0  0  0  0  0  0  0  0  0  0
   29.9330   52.1930   -4.1420 C   0  0  0  0  0  0  0  0  0  0  0  0
   30.3500   49.6060   -4.6560 C   0  0  0  0  0  0  0  0  0  0  0  0
   30.6070   51.4890   -3.1920 N   0  0  0  0  0  0  0  0  0  0  0  0
   30.8210   50.1770   -3.4670 C   0  0  0  0  0  0  0  0  0  0  0  0
   31.5880   49.3340   -2.4590 C   0  0  0  0  0  0  0  0  0  0  0  0
   31.0040   47.9570   -2.4690 C   0  0  0  0  0  0  0  0  0  0  0  0
   29.9120   47.7020   -1.6580 C   0  0  0  0  0  0  0  0  0  0  0  0
   31.5170   46.9440   -3.2920 C   0  0  0  0  0  0  0  0  0  0  0  0
   30.9210   45.6800   -3.3140 C   0  0  0  0  0  0  0  0  0  0  0  0
   29.2980   46.4580   -1.6590 C   0  0  0  0  0  0  0  0  0  0  0  0
   31.3490   44.6350   -4.1010 O   0  0  0  0  0  0  0  0  0  0  0  0
   29.7920   45.4290   -2.4930 C   0  0  0  0  0  0  0  0  0  0  0  0
   28.1870   46.2370   -0.8390 C   0  0  0  0  0  0  0  0  0  0  0  0
   32.6390   44.7060   -4.6900 C   0  0  0  0  0  0  0  0  0  0  0  0
   27.5450   45.0060   -0.8330 C   0  0  0  0  0  0  0  0  0  0  0  0
   29.1220   44.1910   -2.4670 C   0  0  0  0  0  0  0  0  0  0  0  0
   32.7930   45.5680   -5.9400 C   0  0  0  0  0  0  0  0  0  0  0  0
   28.0120   43.9820   -1.6490 C   0  0  0  0  0  0  0  0  0  0  0  0
   31.6490   45.7560   -6.6290 O   0  0  0  0  0  0  0  0  0  0  0  0
   33.8350   46.0680   -6.3320 O   0  0  0  0  0  0  0  0  0  0  0  0
  1  2  1  0
  2  3  2  0
  2  4  1  0
  4  5  2  0
  4  6  1  0
  5  7  1  0
  6  8  2  0
  7  9  2  0
  8  9  1  0
  9 10  1  0
 10 11  1  0
 11 12  2  0
 11 13  1  0
 13 14  2  0
 12 15  1  0
 14 16  1  0
 14 17  1  0
 15 17  2  0
 15 18  1  0
 16 19  1  0
 18 20  2  0
 17 21  1  0
 19 22  1  0
 20 23  1  0
 21 23  2  0
 22 24  1  0
 22 25  2  0
M  END
