mac-x0231-mac-x0567
     RDKit          3D

 26 29  0  0  0  0  0  0  0  0999 V2000
   33.8190   45.7830   -6.8550 O   0  0  0  0  0  0  0  0  0  0  0  0
   32.6460   45.3370   -6.3730 C   0  0  0  0  0  0  0  0  0  0  0  0
   31.5510   45.8130   -6.8520 N   0  0  0  0  0  0  0  0  0  0  0  0
   32.7770   44.3170   -5.2920 C   0  0  0  0  0  0  0  0  0  0  0  0
   31.4720   46.8430   -7.8910 C   0  0  0  0  0  0  0  0  0  0  0  0
   31.6040   44.4640   -4.3490 C   0  0  0  0  0  0  0  0  0  0  0  0
   30.0920   47.3110   -8.1090 N   0  0  0  0  0  0  0  0  0  0  0  0
   31.5320   45.6480   -3.4550 C   0  0  0  0  0  0  0  0  0  0  0  0
   30.6800   43.5440   -4.3880 N   0  0  0  0  0  0  0  0  0  0  0  0
   30.3600   45.8230   -2.7240 C   0  0  0  0  0  0  0  0  0  0  0  0
   29.6070   43.6910   -3.5650 N   0  0  0  0  0  0  0  0  0  0  0  0
   32.5730   46.5760   -3.3210 C   0  0  0  0  0  0  0  0  0  0  0  0
   29.6030   48.5040   -7.6340 C   0  0  0  0  0  0  0  0  0  0  0  0
   29.2770   44.8350   -2.8750 C   0  0  0  0  0  0  0  0  0  0  0  0
   30.2170   46.9190   -1.8640 C   0  0  0  0  0  0  0  0  0  0  0  0
   32.4320   47.6710   -2.4630 C   0  0  0  0  0  0  0  0  0  0  0  0
   28.9450   49.3960   -8.4480 N   0  0  0  0  0  0  0  0  0  0  0  0
   29.5960   49.1260   -6.4030 C   0  0  0  0  0  0  0  0  0  0  0  0
   28.1600   45.0210   -2.4100 O   0  0  0  0  0  0  0  0  0  0  0  0
   31.2550   47.8430   -1.7350 C   0  0  0  0  0  0  0  0  0  0  0  0
   28.5230   50.5290   -7.8500 N   0  0  0  0  0  0  0  0  0  0  0  0
   28.9130   50.3930   -6.5710 C   0  0  0  0  0  0  0  0  0  0  0  0
   30.1410   48.6360   -5.2170 C   0  0  0  0  0  0  0  0  0  0  0  0
   28.7450   51.2710   -5.4820 C   0  0  0  0  0  0  0  0  0  0  0  0
   29.9540   49.5370   -4.1470 C   0  0  0  0  0  0  0  0  0  0  0  0
   29.2900   50.7950   -4.2690 C   0  0  0  0  0  0  0  0  0  0  0  0
  1  2  1  0
  2  3  2  3
  2  4  1  0
  3  5  1  0
  4  6  1  0
  5  7  1  0
  6  8  1  0
  6  9  2  0
  8 10  2  0
  9 11  1  0
  8 12  1  0
  7 13  1  0
 10 14  1  0
 11 14  1  0
 10 15  1  0
 12 16  2  0
 13 17  1  0
 13 18  2  0
 14 19  2  0
 15 20  2  0
 16 20  1  0
 17 21  1  0
 18 22  1  0
 21 22  2  0
 18 23  1  0
 22 24  1  0
 23 25  2  0
 24 26  2  0
 25 26  1  0
M  END
