mac-x0263-mac-x0137
     RDKit          3D

 26 29  0  0  0  0  0  0  0  0999 V2000
   28.0970   59.7100   -6.4000 O   0  0  0  0  0  0  0  0  0  0  0  0
   26.9590   58.9970   -6.3380 C   0  0  0  0  0  0  0  0  0  0  0  0
   25.8810   59.4920   -6.6420 O   0  0  0  0  0  0  0  0  0  0  0  0
   27.1390   57.5740   -5.8640 C   0  0  0  0  0  0  0  0  0  0  0  0
   28.4080   56.8860   -6.3700 C   0  0  0  0  0  0  0  0  0  0  0  0
   28.4270   55.3960   -6.1510 C   0  0  0  0  0  0  0  0  0  0  0  0
   28.2000   54.7740   -4.9310 N   0  0  0  0  0  0  0  0  0  0  0  0
   28.6640   54.4930   -7.0910 N   0  0  0  0  0  0  0  0  0  0  0  0
   28.3050   53.4200   -5.1450 C   0  0  0  0  0  0  0  0  0  0  0  0
   28.5940   53.2750   -6.4700 C   0  0  0  0  0  0  0  0  0  0  0  0
   28.1520   52.3870   -4.2020 C   0  0  0  0  0  0  0  0  0  0  0  0
   28.8040   51.9310   -7.1020 C   0  0  0  0  0  0  0  0  0  0  0  0
   28.1660   51.1050   -4.6870 C   0  0  0  0  0  0  0  0  0  0  0  0
   28.3490   50.6820   -6.2160 C   0  0  1  0  0  0  0  0  0  0  0  0
   27.0310   50.2340   -6.8610 C   0  0  0  0  0  0  0  0  0  0  0  0
   29.3090   49.3780   -6.3750 C   0  0  1  0  0  0  0  0  0  0  0  0
   29.6380   48.4160   -5.2930 N   0  0  0  0  0  0  0  0  0  0  0  0
   28.9380   48.5370   -7.5210 N   0  0  0  0  0  0  0  0  0  0  0  0
   27.1550   49.9140   -8.2990 N   0  0  0  0  0  0  0  0  0  0  0  0
   29.9190   48.9190   -3.9380 C   0  0  0  0  0  0  0  0  0  0  0  0
   30.3120   47.1630   -5.6000 C   0  0  0  0  0  0  0  0  0  0  0  0
   28.3720   49.2170   -8.6490 C   0  0  0  0  0  0  0  0  0  0  0  0
   31.3940   48.8820   -3.4890 C   0  0  2  0  0  0  0  0  0  0  0  0
   31.8280   47.2940   -5.3970 C   0  0  0  0  0  0  0  0  0  0  0  0
   32.0010   50.0000   -3.9750 F   0  0  0  0  0  0  0  0  0  0  0  0
   32.1910   47.6780   -3.9720 C   0  0  0  0  0  0  0  0  0  0  0  0
  1  2  1  0
  2  3  2  0
  2  4  1  0
  4  5  1  0
  5  6  1  0
  6  7  1  0
  6  8  2  0
  7  9  1  0
  8 10  1  0
  9 10  2  0
  9 11  1  0
 10 12  1  0
 11 13  2  0
 14 12  1  6
 14 13  1  0
 14 15  1  0
 14 16  1  0
 16 17  1  1
 16 18  1  0
 15 19  1  0
 17 20  1  0
 17 21  1  0
 18 22  1  0
 19 22  1  0
 20 23  1  0
 21 24  1  0
 23 25  1  6
 23 26  1  0
 24 26  1  0
M  END
