mac-x0282-mac-x0354
     RDKit          3D

 26 29  0  0  0  0  0  0  0  0999 V2000
   35.5910   43.5230   -1.6690 C   0  0  0  0  0  0  0  0  0  0  0  0
   34.7650   43.7030   -2.8400 N   0  0  0  0  0  0  0  0  0  0  0  0
   33.8550   42.7600   -3.1460 N   0  0  0  0  0  0  0  0  0  0  0  0
   34.7930   44.7630   -3.7190 C   0  0  0  0  0  0  0  0  0  0  0  0
   33.2850   43.2300   -4.2490 C   0  0  0  0  0  0  0  0  0  0  0  0
   33.8110   44.4690   -4.6680 C   0  0  0  0  0  0  0  0  0  0  0  0
   35.7100   45.8880   -3.5590 C   0  0  0  0  0  0  0  0  0  0  0  0
   33.3860   45.2140   -5.8200 C   0  0  0  0  0  0  0  0  0  0  0  0
   37.0920   45.6620   -3.5410 C   0  0  0  0  0  0  0  0  0  0  0  0
   35.2250   47.1930   -3.4210 C   0  0  0  0  0  0  0  0  0  0  0  0
   32.2680   45.0530   -6.4180 N   0  0  0  0  0  0  0  0  0  0  0  0
   34.2330   46.1450   -6.2980 O   0  0  0  0  0  0  0  0  0  0  0  0
   37.9800   46.7300   -3.3850 C   0  0  0  0  0  0  0  0  0  0  0  0
   36.1140   48.2600   -3.2650 C   0  0  0  0  0  0  0  0  0  0  0  0
   31.7840   45.7800   -7.5790 C   0  0  0  0  0  0  0  0  0  0  0  0
   37.4890   48.0270   -3.2470 C   0  0  0  0  0  0  0  0  0  0  0  0
   30.2480   45.8220   -7.5200 C   0  0  0  0  0  0  0  0  0  0  0  0
   29.7330   47.2190   -7.3190 C   0  0  0  0  0  0  0  0  0  0  0  0
   29.8880   47.8810   -6.0940 C   0  0  0  0  0  0  0  0  0  0  0  0
   29.0920   47.8900   -8.3570 C   0  0  0  0  0  0  0  0  0  0  0  0
   29.3950   49.1920   -5.9900 C   0  0  0  0  0  0  0  0  0  0  0  0
   28.5950   49.1480   -8.3090 N   0  0  0  0  0  0  0  0  0  0  0  0
   29.3500   50.1880   -4.9780 C   0  0  0  0  0  0  0  0  0  0  0  0
   28.7820   49.7320   -7.1140 C   0  0  0  0  0  0  0  0  0  0  0  0
   28.7220   51.2960   -5.5090 C   0  0  0  0  0  0  0  0  0  0  0  0
   28.3840   51.0030   -6.8060 N   0  0  0  0  0  0  0  0  0  0  0  0
  1  2  1  0
  2  3  1  0
  2  4  1  0
  3  5  2  0
  4  6  2  0
  5  6  1  0
  4  7  1  0
  6  8  1  0
  7  9  2  0
  7 10  1  0
  8 11  2  3
  8 12  1  0
  9 13  1  0
 10 14  2  0
 11 15  1  0
 13 16  2  0
 14 16  1  0
 15 17  1  0
 17 18  1  0
 18 19  2  0
 18 20  1  0
 19 21  1  0
 20 22  2  0
 21 23  1  0
 21 24  2  0
 22 24  1  0
 23 25  2  0
 24 26  1  0
 25 26  1  0
M  END
