mac-x0116-mac-x0182
     RDKit          3D

 30 34  0  0  0  0  0  0  0  0999 V2000
   29.4680   53.5330   -6.1780 C   0  0  0  0  0  0  0  0  0  0  0  0
   29.0320   52.2360   -6.6670 N   0  0  0  0  0  0  0  0  0  0  0  0
   29.3560   51.0150   -6.0830 C   0  0  0  0  0  0  0  0  0  0  0  0
   30.5370   54.1890   -6.9920 C   0  0  0  0  0  0  0  0  0  0  0  0
   31.6500   54.5980   -6.3140 O   0  0  0  0  0  0  0  0  0  0  0  0
   30.6710   54.4960   -8.3320 C   0  0  0  0  0  0  0  0  0  0  0  0
   31.9310   55.1240   -8.4780 C   0  0  0  0  0  0  0  0  0  0  0  0
   32.4880   55.1610   -7.2220 C   0  0  0  0  0  0  0  0  0  0  0  0
   29.8380   50.9590   -4.7760 N   0  0  0  0  0  0  0  0  0  0  0  0
   29.1870   49.8920   -6.8190 C   0  0  0  0  0  0  0  0  0  0  0  0
   30.1290   49.7900   -4.2860 C   0  0  0  0  0  0  0  0  0  0  0  0
   29.5290   48.5980   -6.2110 C   0  0  0  0  0  0  0  0  0  0  0  0
   28.7370   49.6660   -8.0910 N   0  0  0  0  0  0  0  0  0  0  0  0
   30.0140   48.5790   -4.9320 N   0  0  0  0  0  0  0  0  0  0  0  0
   29.2800   47.6700   -7.0860 N   0  0  0  0  0  0  0  0  0  0  0  0
   28.8100   48.3690   -8.1890 C   0  0  0  0  0  0  0  0  0  0  0  0
   30.7320   47.3960   -4.4460 C   0  0  0  0  0  0  0  0  0  0  0  0
   32.1750   47.3430   -4.9830 C   0  0  0  0  0  0  0  0  0  0  0  0
   33.0830   46.7040   -4.0120 N   0  0  0  0  0  0  0  0  0  0  0  0
   34.3570   46.0530   -4.5330 S   0  0  2  0  0  0  0  0  0  0  0  0
   34.8820   46.0860   -5.8770 O   0  0  0  0  0  0  0  0  0  0  0  0
   34.1510   44.4280   -4.1630 N   0  0  0  0  0  0  0  0  0  0  0  0
   35.6450   46.3180   -3.4090 C   0  0  0  0  0  0  0  0  0  0  0  0
   34.8740   44.0820   -3.0490 C   0  0  0  0  0  0  0  0  0  0  0  0
   35.8190   45.1590   -2.6630 C   0  0  0  0  0  0  0  0  0  0  0  0
   36.4100   47.4550   -3.2290 C   0  0  0  0  0  0  0  0  0  0  0  0
   34.7740   43.0330   -2.4350 O   0  0  0  0  0  0  0  0  0  0  0  0
   37.3950   47.4010   -2.2430 C   0  0  0  0  0  0  0  0  0  0  0  0
   36.7940   45.0970   -1.6830 C   0  0  0  0  0  0  0  0  0  0  0  0
   37.5870   46.2320   -1.4740 C   0  0  0  0  0  0  0  0  0  0  0  0
  1  2  1  0
  2  3  1  0
  1  4  1  0
  4  5  1  0
  4  6  2  0
  6  7  1  0
  5  8  1  0
  7  8  2  0
  3  9  1  0
  3 10  2  0
  9 11  2  0
 10 12  1  0
 10 13  1  0
 11 14  1  0
 12 14  1  0
 12 15  2  0
 13 16  2  0
 15 16  1  0
 14 17  1  0
 17 18  1  0
 18 19  1  0
 19 20  2  0
 20 21  2  0
 20 22  1  1
 20 23  1  0
 22 24  1  0
 23 25  2  0
 24 25  1  0
 23 26  1  0
 24 27  2  0
 26 28  2  0
 25 29  1  0
 28 30  1  0
 29 30  2  0
M  END
