mac-x0404-mac-x0347
     RDKit          3D

 28 32  0  0  0  0  0  0  0  0999 V2000
   31.7280   46.5480   -6.2280 N   0  0  0  0  0  0  0  0  0  0  0  0
   32.4770   45.3950   -6.0860 C   0  0  0  0  0  0  0  0  0  0  0  0
   33.2520   44.9400   -6.9180 O   0  0  0  0  0  0  0  0  0  0  0  0
   30.9480   46.6300   -5.1760 C   0  0  0  0  0  0  0  0  0  0  0  0
   32.1980   44.7540   -4.7310 C   0  0  0  0  0  0  0  0  0  0  0  0
   31.0780   45.5890   -4.2610 N   0  0  0  0  0  0  0  0  0  0  0  0
   30.0070   47.7730   -5.0250 C   0  0  0  0  0  0  0  0  0  0  0  0
   31.1360   45.7780   -2.8500 C   0  0  0  0  0  0  0  0  0  0  0  0
   30.2640   49.0170   -5.6000 C   0  0  0  0  0  0  0  0  0  0  0  0
   28.8330   47.6210   -4.2950 C   0  0  0  0  0  0  0  0  0  0  0  0
   30.1720   45.1530   -2.0060 C   0  0  0  0  0  0  0  0  0  0  0  0
   32.1410   46.5790   -2.2780 C   0  0  0  0  0  0  0  0  0  0  0  0
   29.3590   50.0780   -5.4410 C   0  0  0  0  0  0  0  0  0  0  0  0
   27.9260   48.6180   -4.1150 N   0  0  0  0  0  0  0  0  0  0  0  0
   30.2500   45.3530   -0.6060 C   0  0  0  0  0  0  0  0  0  0  0  0
   32.2050   46.7670   -0.9010 C   0  0  0  0  0  0  0  0  0  0  0  0
   29.1300   44.3290   -2.4950 C   0  0  0  0  0  0  0  0  0  0  0  0
   28.2140   49.8100   -4.6880 C   0  0  0  0  0  0  0  0  0  0  0  0
   29.6020   51.4000   -6.0350 C   0  0  0  0  0  0  0  0  0  0  0  0
   31.2670   46.1590   -0.0730 C   0  0  0  0  0  0  0  0  0  0  0  0
   29.3110   44.7460    0.2440 C   0  0  0  0  0  0  0  0  0  0  0  0
   28.2060   43.7330   -1.6380 C   0  0  0  0  0  0  0  0  0  0  0  0
   28.9240   51.8030   -7.1990 C   0  0  0  0  0  0  0  0  0  0  0  0
   30.5160   52.2980   -5.4620 C   0  0  0  0  0  0  0  0  0  0  0  0
   28.2950   43.9400   -0.2680 C   0  0  0  0  0  0  0  0  0  0  0  0
   29.1530   53.0620   -7.7670 C   0  0  0  0  0  0  0  0  0  0  0  0
   30.7480   53.5570   -6.0300 C   0  0  0  0  0  0  0  0  0  0  0  0
   30.0640   53.9340   -7.1810 C   0  0  0  0  0  0  0  0  0  0  0  0
  1  2  1  0
  2  3  2  0
  1  4  2  0
  2  5  1  0
  4  6  1  0
  5  6  1  0
  4  7  1  0
  6  8  1  0
  7  9  2  0
  7 10  1  0
  8 11  1  0
  8 12  2  0
  9 13  1  0
 10 14  2  0
 11 15  2  0
 12 16  1  0
 11 17  1  0
 13 18  2  0
 14 18  1  0
 13 19  1  0
 15 20  1  0
 16 20  2  0
 15 21  1  0
 17 22  2  0
 19 23  2  0
 19 24  1  0
 21 25  2  0
 22 25  1  0
 23 26  1  0
 24 27  2  0
 26 28  2  0
 27 28  1  0
M  END
