mac-x0455-mac-x0193
     RDKit          3D

 25 26  0  0  0  0  0  0  0  0999 V2000
   30.6280   48.3380   -5.1200 C   0  0  0  0  0  0  0  0  0  0  0  0
   31.0030   47.1970   -4.1690 C   0  0  1  0  0  0  0  0  0  0  0  0
   29.8810   47.0850   -3.2630 O   0  0  0  0  0  0  0  0  0  0  0  0
   31.1270   45.8700   -4.9890 C   0  0  0  0  0  0  0  0  0  0  0  0
   32.2650   47.4700   -3.3440 C   0  0  0  0  0  0  0  0  0  0  0  0
   30.3940   44.9110   -4.7300 O   0  0  0  0  0  0  0  0  0  0  0  0
   32.0740   45.8570   -5.9900 N   0  0  0  0  0  0  0  0  0  0  0  0
   33.1890   48.4540   -3.7480 C   0  0  0  0  0  0  0  0  0  0  0  0
   32.5490   46.7590   -2.1640 C   0  0  0  0  0  0  0  0  0  0  0  0
   33.1480   45.1390   -5.8860 C   0  0  0  0  0  0  0  0  0  0  0  0
   34.3440   48.7160   -3.0040 C   0  0  0  0  0  0  0  0  0  0  0  0
   33.7030   47.0200   -1.4200 C   0  0  0  0  0  0  0  0  0  0  0  0
   34.1200   45.0740   -6.8290 O   0  0  0  0  0  0  0  0  0  0  0  0
   33.4380   44.2730   -4.6730 C   0  0  0  0  0  0  0  0  0  0  0  0
   34.6000   47.9980   -1.8380 C   0  0  0  0  0  0  0  0  0  0  0  0
   34.5480   43.3690   -4.9300 N   0  0  0  0  0  0  0  0  0  0  0  0
   35.0390   42.6010   -3.9030 C   0  0  0  0  0  0  0  0  0  0  0  0
   34.4500   41.6440   -3.4230 O   0  0  0  0  0  0  0  0  0  0  0  0
   36.2680   43.0520   -3.4940 N   0  0  0  0  0  0  0  0  0  0  0  0
   36.9760   42.4160   -2.3860 C   0  0  0  0  0  0  0  0  0  0  0  0
   38.3260   41.8760   -2.8640 C   0  0  0  0  0  0  0  0  0  0  0  0
   37.1370   43.3660   -1.1830 C   0  0  0  0  0  0  0  0  0  0  0  0
   39.1980   41.3380   -1.7300 C   0  0  0  0  0  0  0  0  0  0  0  0
   38.0020   42.8040   -0.0530 C   0  0  0  0  0  0  0  0  0  0  0  0
   39.3490   42.3060   -0.5550 C   0  0  0  0  0  0  0  0  0  0  0  0
  2  1  1  6
  2  3  1  0
  2  4  1  0
  2  5  1  0
  4  6  2  0
  4  7  1  0
  5  8  2  0
  5  9  1  0
  7 10  2  3
  8 11  1  0
  9 12  2  0
 10 13  1  0
 10 14  1  0
 11 15  2  0
 12 15  1  0
 14 16  1  0
 16 17  1  0
 17 18  2  0
 17 19  1  0
 19 20  1  0
 20 21  1  0
 20 22  1  0
 21 23  1  0
 22 24  1  0
 23 25  1  0
 24 25  1  0
M  END
