mac-x0584-mac-x0341
     RDKit          3D

 24 28  0  0  0  0  0  0  0  0999 V2000
   27.9510   54.6440   -7.5900 N   0  0  0  0  0  0  0  0  0  0  0  0
   28.8050   53.6180   -7.0760 C   0  0  2  0  0  0  0  0  0  0  0  0
   28.3290   52.2880   -7.4230 N   0  0  0  0  0  0  0  0  0  0  0  0
   28.8960   53.7860   -5.6840 N   0  0  0  0  0  0  0  0  0  0  0  0
   29.1710   51.1970   -6.9130 N   0  0  0  0  0  0  0  0  0  0  0  0
   29.3760   52.7750   -4.9020 C   0  0  0  0  0  0  0  0  0  0  0  0
   29.4560   52.9220   -3.6820 O   0  0  0  0  0  0  0  0  0  0  0  0
   28.6990   49.7870   -6.8840 C   0  0  1  0  0  0  0  0  0  0  0  0
   29.8080   51.4930   -5.5960 C   0  0  1  0  0  0  0  0  0  0  0  0
   28.9210   49.0470   -8.1130 N   0  0  0  0  0  0  0  0  0  0  0  0
   29.6320   49.2340   -5.8090 C   0  0  1  0  0  0  0  0  0  0  0  0
   29.4530   50.2770   -4.7440 C   0  0  0  0  0  0  0  0  0  0  0  0
   28.7740   47.6060   -7.9060 C   0  0  0  0  0  0  0  0  0  0  0  0
   29.2640   47.7830   -5.5680 C   0  0  2  0  0  0  0  0  0  0  0  0
   29.8560   47.1500   -4.3760 N   0  0  0  0  0  0  0  0  0  0  0  0
   29.5880   47.1000   -6.8100 N   0  0  0  0  0  0  0  0  0  0  0  0
   31.2740   46.7870   -4.3180 C   0  0  2  0  0  0  0  0  0  0  0  0
   29.6220   47.7960   -3.0850 C   0  0  0  0  0  0  0  0  0  0  0  0
   31.8930   45.8940   -5.4060 C   0  0  0  0  0  0  0  0  0  0  0  0
   31.2970   46.0730   -2.9630 C   0  0  0  0  0  0  0  0  0  0  0  0
   30.4340   46.9680   -2.0920 C   0  0  0  0  0  0  0  0  0  0  0  0
   32.3710   44.4470   -5.0950 C   0  0  0  0  0  0  0  0  0  0  0  0
   33.3440   46.2260   -5.8500 C   0  0  0  0  0  0  0  0  0  0  0  0
   33.8320   44.8840   -5.2860 C   0  0  0  0  0  0  0  0  0  0  0  0
  2  1  1  1
  2  3  1  0
  2  4  1  0
  3  5  1  0
  4  6  1  0
  6  7  2  0
  5  8  1  0
  5  9  1  0
  6  9  1  0
  8 10  1  6
  8 11  1  0
  9 12  1  1
 11 12  1  1
 10 13  1  0
 11 14  1  0
 14 15  1  1
 13 16  1  0
 14 16  1  0
 15 17  1  0
 15 18  1  0
 17 19  1  6
 17 20  1  0
 18 21  1  0
 20 21  1  0
 19 22  1  0
 19 23  1  0
 22 24  1  0
 23 24  1  0
M  END
