mac-x0283-mac-x0379
     RDKit          3D

 14 15  0  0  0  0  0  0  0  0999 V2000
   28.6630   54.4200   -6.2760 N   0  0  0  0  0  0  0  0  0  0  0  0
   29.1560   53.6680   -5.2610 C   0  0  0  0  0  0  0  0  0  0  0  0
   29.6230   54.1670   -4.1190 N   0  0  0  0  0  0  0  0  0  0  0  0
   29.2430   52.2500   -5.2720 C   0  0  0  0  0  0  0  0  0  0  0  0
   30.0240   53.0680   -3.3670 O   0  0  0  0  0  0  0  0  0  0  0  0
   29.7980   51.9110   -4.0620 C   0  0  0  0  0  0  0  0  0  0  0  0
   28.9190   51.2300   -6.1600 C   0  0  0  0  0  0  0  0  0  0  0  0
   28.3160   51.5580   -7.4650 C   0  0  0  0  0  0  0  0  0  0  0  0
   30.0740   50.5830   -3.6440 C   0  0  0  0  0  0  0  0  0  0  0  0
   29.1760   49.8840   -5.7940 C   0  0  0  0  0  0  0  0  0  0  0  0
   29.7480   49.5380   -4.5570 C   0  0  0  0  0  0  0  0  0  0  0  0
   30.0150   48.0740   -4.2080 C   0  0  0  0  0  0  0  0  0  0  0  0
   30.6380   47.6420   -3.2480 O   0  0  0  0  0  0  0  0  0  0  0  0
   29.4900   47.1960   -5.0940 O   0  0  0  0  0  0  0  0  0  0  0  0
  1  2  1  0
  2  3  2  0
  2  4  1  0
  3  5  1  0
  4  6  2  0
  5  6  1  0
  4  7  1  0
  7  8  1  0
  6  9  1  0
  7 10  2  0
  9 11  2  0
 10 11  1  0
 11 12  1  0
 12 13  2  0
 12 14  1  0
M  END
