mac-x0360-mac-x0373
     RDKit          3D

 28 30  0  0  0  0  0  0  0  0999 V2000
   31.7220   45.7530   -6.3760 O   0  0  0  0  0  0  0  0  0  0  0  0
   30.7060   45.4550   -5.5370 C   0  0  0  0  0  0  0  0  0  0  0  0
   29.7330   44.8630   -5.9780 O   0  0  0  0  0  0  0  0  0  0  0  0
   30.9260   45.9160   -4.1000 C   0  0  1  0  0  0  0  0  0  0  0  0
   32.1920   46.7280   -3.8450 C   0  0  0  0  0  0  0  0  0  0  0  0
   29.6750   46.5920   -3.4970 C   0  0  0  0  0  0  0  0  0  0  0  0
   33.3370   46.1490   -3.2750 C   0  0  0  0  0  0  0  0  0  0  0  0
   32.2330   48.0950   -4.1790 C   0  0  0  0  0  0  0  0  0  0  0  0
   29.4230   48.0040   -3.9630 C   0  0  0  0  0  0  0  0  0  0  0  0
   34.4840   46.9100   -3.0460 C   0  0  0  0  0  0  0  0  0  0  0  0
   33.3800   48.8530   -3.9480 C   0  0  0  0  0  0  0  0  0  0  0  0
   29.5140   49.0890   -3.0730 C   0  0  0  0  0  0  0  0  0  0  0  0
   29.0980   48.2460   -5.3010 C   0  0  0  0  0  0  0  0  0  0  0  0
   34.5060   48.2610   -3.3830 C   0  0  0  0  0  0  0  0  0  0  0  0
   29.2860   50.3890   -3.5240 C   0  0  0  0  0  0  0  0  0  0  0  0
   28.8730   49.5390   -5.7440 C   0  0  0  0  0  0  0  0  0  0  0  0
   28.9690   50.5990   -4.8580 C   0  0  0  0  0  0  0  0  0  0  0  0
   28.7370   51.9310   -5.3640 N   0  0  0  0  0  0  0  0  0  0  0  0
   29.3190   52.1710   -6.7590 S   0  0  0  0  0  0  0  0  0  0  0  0
   28.7860   53.0330   -7.7900 O   0  0  0  0  0  0  0  0  0  0  0  0
   31.0090   52.6260   -6.5040 C   0  0  0  0  0  0  0  0  0  0  0  0
   31.9890   51.6510   -6.2730 C   0  0  0  0  0  0  0  0  0  0  0  0
   31.3260   53.9800   -6.5430 C   0  0  0  0  0  0  0  0  0  0  0  0
   33.3080   52.0640   -6.0810 C   0  0  0  0  0  0  0  0  0  0  0  0
   32.6450   54.3650   -6.3480 C   0  0  0  0  0  0  0  0  0  0  0  0
   33.0480   56.0370   -6.3950 Cl  0  0  0  0  0  0  0  0  0  0  0  0
   34.5520   50.9100   -5.7970 Cl  0  0  0  0  0  0  0  0  0  0  0  0
   33.6400   53.4180   -6.1170 C   0  0  0  0  0  0  0  0  0  0  0  0
  1  2  1  0
  2  3  2  0
  2  4  1  0
  4  5  1  0
  4  6  1  6
  5  7  2  0
  5  8  1  0
  6  9  1  0
  7 10  1  0
  8 11  2  0
  9 12  2  0
  9 13  1  0
 10 14  2  0
 11 14  1  0
 12 15  1  0
 13 16  2  0
 15 17  2  0
 16 17  1  0
 17 18  1  0
 18 19  2  0
 19 20  2  0
 19 21  1  0
 21 22  2  0
 21 23  1  0
 22 24  1  0
 23 25  2  0
 25 26  1  0
 24 27  1  0
 24 28  2  0
 25 28  1  0
M  END
