mac-x0303-mac-x0139
     RDKit          3D

 27 30  0  0  0  0  0  0  0  0999 V2000
   30.2440   56.7630   -6.2530 N   0  0  0  0  0  0  0  0  0  0  0  0
   29.0220   56.1840   -5.2200 S   0  0  0  0  0  0  0  0  0  0  0  0
   27.7620   56.4770   -5.8650 O   0  0  0  0  0  0  0  0  0  0  0  0
   29.3630   56.6990   -3.9070 O   0  0  0  0  0  0  0  0  0  0  0  0
   29.2260   54.3940   -5.1500 C   0  0  0  0  0  0  0  0  0  0  0  0
   29.7460   53.7820   -4.1080 N   0  0  0  0  0  0  0  0  0  0  0  0
   28.8270   53.5810   -6.2330 N   0  0  0  0  0  0  0  0  0  0  0  0
   29.7160   52.4670   -4.4680 C   0  0  0  0  0  0  0  0  0  0  0  0
   29.1330   52.3950   -5.8020 C   0  0  0  0  0  0  0  0  0  0  0  0
   30.1040   51.3620   -3.8330 C   0  0  0  0  0  0  0  0  0  0  0  0
   28.9810   51.0770   -6.4300 C   0  0  0  0  0  0  0  0  0  0  0  0
   29.9630   50.0430   -4.4430 C   0  0  0  0  0  0  0  0  0  0  0  0
   29.4350   49.8780   -5.6700 C   0  0  0  0  0  0  0  0  0  0  0  0
   28.4830   50.8110   -7.6000 N   0  0  0  0  0  0  0  0  0  0  0  0
   29.1400   48.7720   -6.5760 C   0  0  0  0  0  0  0  0  0  0  0  0
   28.5800   49.4000   -7.6930 C   0  0  0  0  0  0  0  0  0  0  0  0
   29.2530   47.3890   -6.6300 C   0  0  0  0  0  0  0  0  0  0  0  0
   28.1500   48.7930   -8.7950 N   0  0  0  0  0  0  0  0  0  0  0  0
   29.7980   46.6050   -5.5870 N   0  0  0  0  0  0  0  0  0  0  0  0
   28.3000   47.4710   -8.7530 C   0  0  0  0  0  0  0  0  0  0  0  0
   28.8230   46.7480   -7.7390 N   0  0  0  0  0  0  0  0  0  0  0  0
   30.3310   47.3790   -4.4690 C   0  0  0  0  0  0  0  0  0  0  0  0
   30.6340   45.4650   -6.0370 C   0  0  0  0  0  0  0  0  0  0  0  0
   32.0980   45.4970   -5.5920 C   0  0  0  0  0  0  0  0  0  0  0  0
   32.8120   44.2580   -6.0480 C   0  0  0  0  0  0  0  0  0  0  0  0
   32.3890   43.1150   -5.9990 O   0  0  0  0  0  0  0  0  0  0  0  0
   34.0390   44.5130   -6.5430 O   0  0  0  0  0  0  0  0  0  0  0  0
  2  1  1  0
  2  3  2  0
  2  4  2  0
  2  5  1  0
  5  6  2  0
  5  7  1  0
  6  8  1  0
  7  9  2  0
  8  9  1  0
  8 10  2  0
  9 11  1  0
 10 12  1  0
 11 13  1  0
 12 13  2  0
 11 14  2  0
 13 15  1  0
 14 16  1  0
 15 16  2  0
 15 17  1  0
 16 18  1  0
 17 19  1  0
 18 20  2  0
 17 21  2  0
 20 21  1  0
 19 22  1  0
 19 23  1  0
 23 24  1  0
 24 25  1  0
 25 26  2  0
 25 27  1  0
M  END
