mac-x0319-mac-x0178
     RDKit          3D

 15 15  0  0  0  0  0  0  0  0999 V2000
   34.0760   46.0570   -6.7760 O   0  0  0  0  0  0  0  0  0  0  0  0
   32.8120   45.7010   -6.4680 C   0  0  0  0  0  0  0  0  0  0  0  0
   31.8820   46.0920   -7.1530 O   0  0  0  0  0  0  0  0  0  0  0  0
   32.7620   44.8200   -5.2500 C   0  0  0  0  0  0  0  0  0  0  0  0
   31.7540   45.2350   -4.2090 C   0  0  0  0  0  0  0  0  0  0  0  0
   30.5650   44.5030   -4.0360 C   0  0  0  0  0  0  0  0  0  0  0  0
   31.9910   46.3500   -3.3960 C   0  0  0  0  0  0  0  0  0  0  0  0
   29.6350   44.8700   -3.0610 C   0  0  0  0  0  0  0  0  0  0  0  0
   31.0660   46.7190   -2.4210 C   0  0  0  0  0  0  0  0  0  0  0  0
   28.5280   44.0660   -3.0020 O   0  0  0  0  0  0  0  0  0  0  0  0
   29.8940   45.9820   -2.2440 C   0  0  0  0  0  0  0  0  0  0  0  0
   28.8200   46.5270   -0.9520 S   0  0  0  0  0  0  0  0  0  0  0  0
   28.2350   45.0810   -0.3350 N   0  0  0  0  0  0  0  0  0  0  0  0
   29.6160   47.1050    0.1080 O   0  0  0  0  0  0  0  0  0  0  0  0
   27.6820   47.2140   -1.5170 O   0  0  0  0  0  0  0  0  0  0  0  0
  1  2  1  0
  2  3  2  0
  2  4  1  0
  4  5  1  0
  5  6  2  0
  5  7  1  0
  6  8  1  0
  7  9  2  0
  8 10  1  0
  8 11  2  0
  9 11  1  0
 11 12  1  0
 12 13  1  0
 12 14  2  0
 12 15  2  0
M  END
