mac-x0568-mac-x0572
     RDKit          3D

 16 17  0  0  0  0  0  0  0  0999 V2000
   29.4040   55.7790   -5.0350 C   0  0  0  0  0  0  0  0  0  0  0  0
   29.5980   54.2710   -5.1100 C   0  0  0  0  0  0  0  0  0  0  0  0
   29.2710   53.5830   -6.2330 C   0  0  0  0  0  0  0  0  0  0  0  0
   30.1660   53.5800   -3.9150 C   0  0  0  0  0  0  0  0  0  0  0  0
   28.7010   54.3150   -7.4360 C   0  0  0  0  0  0  0  0  0  0  0  0
   30.6290   54.3550   -3.0530 O   0  0  0  0  0  0  0  0  0  0  0  0
   30.1440   52.2480   -3.8420 C   0  0  0  0  0  0  0  0  0  0  0  0
   29.4840   52.0470   -6.3060 C   0  0  1  0  0  0  0  0  0  0  0  0
   29.5660   51.3670   -4.8980 C   0  0  1  0  0  0  0  0  0  0  0  0
   28.5200   51.2680   -7.1910 C   0  0  0  0  0  0  0  0  0  0  0  0
   30.3130   50.0080   -4.9760 C   0  0  0  0  0  0  0  0  0  0  0  0
   27.5370   50.5200   -6.6740 C   0  0  0  0  0  0  0  0  0  0  0  0
   28.2550   50.8500   -4.4040 C   0  0  0  0  0  0  0  0  0  0  0  0
   31.0230   49.5550   -4.0870 O   0  0  0  0  0  0  0  0  0  0  0  0
   30.1100   49.2650   -6.1160 N   0  0  0  0  0  0  0  0  0  0  0  0
   27.3270   50.4380   -5.2520 C   0  0  0  0  0  0  0  0  0  0  0  0
  1  2  1  0
  2  3  2  0
  2  4  1  0
  3  5  1  0
  4  6  1  0
  4  7  2  0
  3  8  1  0
  7  9  1  0
  8  9  1  0
  8 10  1  6
  9 11  1  6
 10 12  2  0
  9 13  1  0
 11 14  2  0
 11 15  1  0
 12 16  1  0
 13 16  2  0
M  CHG  1   6  -1
M  END
