mac-x0437-mac-x0123
     RDKit          3D

 30 34  0  0  0  0  0  0  0  0999 V2000
   31.6730   45.2930   -6.7310 O   0  0  0  0  0  0  0  0  0  0  0  0
   32.8560   45.0170   -6.1430 C   0  0  0  0  0  0  0  0  0  0  0  0
   33.9180   45.3320   -6.6630 O   0  0  0  0  0  0  0  0  0  0  0  0
   32.7540   44.2960   -4.8150 C   0  0  0  0  0  0  0  0  0  0  0  0
   32.6090   45.2720   -3.6380 C   0  0  2  0  0  0  0  0  0  0  0  0
   31.3710   46.2100   -3.7900 C   0  0  0  0  0  0  0  0  0  0  0  0
   33.8810   45.9960   -3.4460 N   0  0  0  0  0  0  0  0  0  0  0  0
   31.4860   47.7300   -3.5330 C   0  0  0  0  0  0  0  0  0  0  0  0
   34.0920   47.3330   -3.6580 C   0  0  0  0  0  0  0  0  0  0  0  0
   35.0800   45.4500   -3.0230 C   0  0  0  0  0  0  0  0  0  0  0  0
   30.1720   48.4250   -3.1400 C   0  0  0  0  0  0  0  0  0  0  0  0
   35.3280   47.6820   -3.4030 N   0  0  0  0  0  0  0  0  0  0  0  0
   35.9580   46.5320   -3.0100 C   0  0  0  0  0  0  0  0  0  0  0  0
   35.4850   44.1570   -2.6610 C   0  0  0  0  0  0  0  0  0  0  0  0
   37.2930   46.3440   -2.6270 C   0  0  0  0  0  0  0  0  0  0  0  0
   36.8240   43.9890   -2.2810 C   0  0  0  0  0  0  0  0  0  0  0  0
   29.9540   49.7890   -3.7060 C   0  0  0  0  0  0  0  0  0  0  0  0
   37.7160   45.0620   -2.2630 C   0  0  0  0  0  0  0  0  0  0  0  0
   30.2450   50.9170   -2.9910 N   0  0  0  0  0  0  0  0  0  0  0  0
   29.4570   49.9990   -4.9300 N   0  0  0  0  0  0  0  0  0  0  0  0
   29.4240   51.3660   -4.9990 N   0  0  0  0  0  0  0  0  0  0  0  0
   29.9130   51.9070   -3.7970 C   0  0  0  0  0  0  0  0  0  0  0  0
   28.9790   52.1910   -6.0670 C   0  0  0  0  0  0  0  0  0  0  0  0
   29.9920   53.2600   -3.5800 N   0  0  0  0  0  0  0  0  0  0  0  0
   28.5080   51.5880   -7.2260 N   0  0  0  0  0  0  0  0  0  0  0  0
   29.5750   53.9920   -4.5660 C   0  0  0  0  0  0  0  0  0  0  0  0
   29.0430   53.5140   -5.8740 C   0  0  0  0  0  0  0  0  0  0  0  0
   28.6880   54.7010   -6.6990 C   0  0  0  0  0  0  0  0  0  0  0  0
   29.5680   55.4920   -4.5350 C   0  0  0  0  0  0  0  0  0  0  0  0
   29.4630   55.8390   -6.0250 C   0  0  0  0  0  0  0  0  0  0  0  0
  1  2  1  0
  2  3  2  0
  2  4  1  0
  5  4  1  6
  5  6  1  0
  5  7  1  0
  6  8  1  0
  7  9  1  0
  7 10  1  0
  8 11  1  0
  9 12  2  0
 10 13  2  0
 12 13  1  0
 10 14  1  0
 13 15  1  0
 14 16  2  0
 11 17  1  0
 15 18  2  0
 16 18  1  0
 17 19  1  0
 17 20  2  0
 20 21  1  0
 19 22  2  0
 21 22  1  0
 21 23  1  0
 22 24  1  0
 23 25  1  0
 24 26  2  0
 23 27  2  0
 26 27  1  0
 27 28  1  0
 26 29  1  0
 28 30  1  0
 29 30  1  0
M  END
