mac-x0338-mac-x0321
     RDKit          3D

 12 12  0  0  0  0  0  0  0  0999 V2000
   28.4260   51.7150   -7.5620 N   0  0  0  0  0  0  0  0  0  0  0  0
   29.1040   52.3440   -6.5410 C   0  0  0  0  0  0  0  0  0  0  0  0
   29.3920   53.5300   -6.6420 O   0  0  0  0  0  0  0  0  0  0  0  0
   29.4610   51.5290   -5.3440 C   0  0  0  0  0  0  0  0  0  0  0  0
   29.8040   50.2290   -5.5480 N   0  0  0  0  0  0  0  0  0  0  0  0
   29.4380   52.1000   -4.0770 C   0  0  0  0  0  0  0  0  0  0  0  0
   30.1250   49.5210   -4.4300 C   0  0  0  0  0  0  0  0  0  0  0  0
   29.7530   51.4020   -2.9590 N   0  0  0  0  0  0  0  0  0  0  0  0
   30.5080   48.0910   -4.6150 C   0  0  0  0  0  0  0  0  0  0  0  0
   30.0980   50.1000   -3.1630 C   0  0  0  0  0  0  0  0  0  0  0  0
   29.5700   47.3750   -5.2760 O   0  0  0  0  0  0  0  0  0  0  0  0
   31.5330   47.5500   -4.2430 O   0  0  0  0  0  0  0  0  0  0  0  0
  1  2  1  0
  2  3  2  0
  2  4  1  0
  4  5  2  0
  4  6  1  0
  5  7  1  0
  6  8  2  0
  7  9  1  0
  7 10  2  0
  8 10  1  0
  9 11  1  0
  9 12  2  0
M  END
