mac-x0344-mac-x0590
     RDKit          3D

 29 32  0  0  0  0  0  0  0  0999 V2000
   31.5040   43.7350   -3.7540 O   0  0  0  0  0  0  0  0  0  0  0  0
   31.9530   44.1110   -4.9800 C   0  0  0  0  0  0  0  0  0  0  0  0
   31.5670   43.5130   -5.9740 O   0  0  0  0  0  0  0  0  0  0  0  0
   32.9380   45.3150   -4.9110 C   0  0  2  0  0  0  0  0  0  0  0  0
   32.9620   45.8920   -6.2400 O   0  0  0  0  0  0  0  0  0  0  0  0
   34.4130   44.8600   -4.4950 C   0  0  2  0  0  0  0  0  0  0  0  0
   32.2420   46.3480   -3.9690 C   0  0  0  0  0  0  0  0  0  0  0  0
   35.1180   45.9130   -3.6080 C   0  0  0  0  0  0  0  0  0  0  0  0
   35.2700   44.4910   -5.7270 C   0  0  0  0  0  0  0  0  0  0  0  0
   34.4310   43.4920   -3.7650 C   0  0  0  0  0  0  0  0  0  0  0  0
   31.6770   47.6350   -4.6010 C   0  0  0  0  0  0  0  0  0  0  0  0
   35.9570   45.5620   -2.5310 C   0  0  0  0  0  0  0  0  0  0  0  0
   34.9350   47.2870   -3.8620 C   0  0  0  0  0  0  0  0  0  0  0  0
   34.6440   42.4380   -4.8360 C   0  0  0  0  0  0  0  0  0  0  0  0
   35.0460   43.1060   -6.0300 O   0  0  0  0  0  0  0  0  0  0  0  0
   30.1370   47.6140   -4.5810 C   0  0  0  0  0  0  0  0  0  0  0  0
   36.5810   46.5400   -1.7500 C   0  0  0  0  0  0  0  0  0  0  0  0
   35.5570   48.2640   -3.0800 C   0  0  0  0  0  0  0  0  0  0  0  0
   29.5340   48.8930   -4.9830 N   0  0  0  0  0  0  0  0  0  0  0  0
   36.3800   47.8900   -2.0230 C   0  0  0  0  0  0  0  0  0  0  0  0
   29.8360   49.9590   -4.0320 C   0  0  0  0  0  0  0  0  0  0  0  0
   29.7020   49.3100   -6.3740 C   0  0  2  0  0  0  0  0  0  0  0  0
   29.0930   51.1730   -4.3440 N   0  0  0  0  0  0  0  0  0  0  0  0
   28.9100   50.5600   -6.7460 C   0  0  2  0  0  0  0  0  0  0  0  0
   29.1830   48.4380   -7.4190 N   0  0  0  0  0  0  0  0  0  0  0  0
   29.2720   51.6380   -5.7110 C   0  0  1  0  0  0  0  0  0  0  0  0
   27.5370   50.0400   -6.8460 N   0  0  0  0  0  0  0  0  0  0  0  0
   27.7430   48.7020   -7.4050 C   0  0  0  0  0  0  0  0  0  0  0  0
   28.4550   52.8320   -5.8050 N   0  0  0  0  0  0  0  0  0  0  0  0
  1  2  1  0
  2  3  2  0
  2  4  1  0
  4  5  1  6
  4  6  1  0
  4  7  1  0
  6  8  1  1
  6  9  1  0
  6 10  1  0
  7 11  1  0
  8 12  2  0
  8 13  1  0
 10 14  1  0
  9 15  1  0
 14 15  1  0
 11 16  1  0
 12 17  1  0
 13 18  2  0
 16 19  1  0
 17 20  2  0
 18 20  1  0
 19 21  1  0
 19 22  1  0
 21 23  1  0
 22 24  1  0
 22 25  1  6
 23 26  1  0
 24 26  1  0
 24 27  1  1
 25 28  1  0
 27 28  1  0
 26 29  1  6
M  END
