mac-x0555-mac-x0546
     RDKit          3D

 28 31  0  0  0  0  0  0  0  0999 V2000
   29.6810   55.5870   -6.8660 N   0  0  0  0  0  0  0  0  0  0  0  0
   29.5780   54.5870   -5.8960 C   0  0  0  0  0  0  0  0  0  0  0  0
   29.7420   54.8420   -4.5430 C   0  0  0  0  0  0  0  0  0  0  0  0
   29.3010   53.2720   -6.2510 C   0  0  0  0  0  0  0  0  0  0  0  0
   29.1890   52.2780   -5.2720 C   0  0  0  0  0  0  0  0  0  0  0  0
   29.6450   53.9140   -3.5680 N   0  0  0  0  0  0  0  0  0  0  0  0
   29.3660   52.6530   -3.9270 C   0  0  0  0  0  0  0  0  0  0  0  0
   28.9040   50.9450   -5.6010 C   0  0  0  0  0  0  0  0  0  0  0  0
   29.2360   51.6800   -2.9550 C   0  0  0  0  0  0  0  0  0  0  0  0
   28.7760   49.9900   -4.6070 C   0  0  0  0  0  0  0  0  0  0  0  0
   28.9320   50.3520   -3.2730 C   0  0  0  0  0  0  0  0  0  0  0  0
   28.7530   49.3120   -2.2140 C   0  0  0  0  0  0  0  0  0  0  0  0
   29.4560   49.5740   -0.8810 C   0  0  0  0  0  0  0  0  0  0  0  0
   30.1610   48.3440   -0.5310 N   0  0  0  0  0  0  0  0  0  0  0  0
   31.5020   48.6660   -0.0470 C   0  0  0  0  0  0  0  0  0  0  0  0
   29.9500   47.3090   -1.4450 C   0  0  0  0  0  0  0  0  0  0  0  0
   30.8590   46.9760   -2.3820 C   0  0  0  0  0  0  0  0  0  0  0  0
   28.6700   46.5690   -1.4250 C   0  0  0  0  0  0  0  0  0  0  0  0
   30.5650   45.9230   -3.3840 C   0  0  2  0  0  0  0  0  0  0  0  0
   28.4530   45.4030   -2.0700 C   0  0  0  0  0  0  0  0  0  0  0  0
   29.6160   44.9010   -2.8110 C   0  0  0  0  0  0  0  0  0  0  0  0
   31.5790   44.9530   -3.8920 C   0  0  0  0  0  0  0  0  0  0  0  0
   32.8740   45.3400   -4.5280 C   0  0  0  0  0  0  0  0  0  0  0  0
   29.9120   43.6530   -3.0320 N   0  0  0  0  0  0  0  0  0  0  0  0
   31.1160   43.7120   -3.6850 C   0  0  0  0  0  0  0  0  0  0  0  0
   32.7140   46.0040   -5.8790 C   0  0  0  0  0  0  0  0  0  0  0  0
   31.7340   45.9740   -6.6040 O   0  0  0  0  0  0  0  0  0  0  0  0
   33.8130   46.6780   -6.2500 O   0  0  0  0  0  0  0  0  0  0  0  0
  1  2  1  0
  2  3  2  0
  2  4  1  0
  4  5  2  0
  3  6  1  0
  5  7  1  0
  6  7  2  0
  5  8  1  0
  7  9  1  0
  8 10  2  0
  9 11  2  0
 10 11  1  0
 11 12  1  0
 12 13  1  0
 13 14  1  0
 14 15  1  0
 14 16  1  0
 16 17  2  0
 16 18  1  0
 19 17  1  1
 18 20  2  0
 19 21  1  0
 20 21  1  0
 19 22  1  0
 22 23  1  0
 21 24  2  0
 22 25  2  0
 24 25  1  0
 23 26  1  0
 26 27  2  0
 26 28  1  0
M  END
