mac-x0204-mac-x0373
     RDKit          3D

 23 25  0  0  0  0  0  0  0  0999 V2000
   31.1140   46.2950   -5.4730 O   0  0  0  0  0  0  0  0  0  0  0  0
   30.5450   46.9380   -4.3310 C   0  0  0  0  0  0  0  0  0  0  0  0
   29.1410   46.8100   -4.5770 O   0  0  0  0  0  0  0  0  0  0  0  0
   30.9210   48.4880   -4.3190 C   0  0  0  0  0  0  0  0  0  0  0  0
   30.8780   46.1260   -3.0910 C   0  0  0  0  0  0  0  0  0  0  0  0
   30.7970   46.6620   -1.7950 C   0  0  0  0  0  0  0  0  0  0  0  0
   31.2840   44.7920   -3.1800 C   0  0  0  0  0  0  0  0  0  0  0  0
   32.4160   48.8030   -4.4310 C   0  0  0  0  0  0  0  0  0  0  0  0
   30.0610   49.4400   -5.1550 C   0  0  0  0  0  0  0  0  0  0  0  0
   31.1120   45.8790   -0.6910 C   0  0  0  0  0  0  0  0  0  0  0  0
   31.5960   44.0030   -2.1200 N   0  0  0  0  0  0  0  0  0  0  0  0
   33.3640   47.8160   -4.1040 C   0  0  0  0  0  0  0  0  0  0  0  0
   32.8800   50.0590   -4.8560 C   0  0  0  0  0  0  0  0  0  0  0  0
   29.2210   50.3530   -4.4870 C   0  0  0  0  0  0  0  0  0  0  0  0
   30.0640   49.4580   -6.5550 C   0  0  0  0  0  0  0  0  0  0  0  0
   31.0190   46.4400    0.5460 O   0  0  0  0  0  0  0  0  0  0  0  0
   31.5030   44.5680   -0.8960 C   0  0  0  0  0  0  0  0  0  0  0  0
   34.7310   48.0800   -4.1970 C   0  0  0  0  0  0  0  0  0  0  0  0
   34.2490   50.3180   -4.9480 C   0  0  0  0  0  0  0  0  0  0  0  0
   28.4170   51.2480   -5.1960 C   0  0  0  0  0  0  0  0  0  0  0  0
   29.2600   50.3530   -7.2650 C   0  0  0  0  0  0  0  0  0  0  0  0
   35.1730   49.3310   -4.6190 C   0  0  0  0  0  0  0  0  0  0  0  0
   28.4380   51.2470   -6.5860 C   0  0  0  0  0  0  0  0  0  0  0  0
  2  1  1  0
  2  3  1  0
  2  4  1  0
  2  5  1  0
  5  6  2  0
  5  7  1  0
  4  8  1  0
  4  9  1  0
  6 10  1  0
  7 11  2  0
  8 12  2  0
  8 13  1  0
  9 14  2  0
  9 15  1  0
 10 16  1  0
 10 17  2  0
 11 17  1  0
 12 18  1  0
 13 19  2  0
 14 20  1  0
 15 21  2  0
 18 22  2  0
 19 22  1  0
 20 23  2  0
 21 23  1  0
M  END
