mac-x0472-mac-x0379
     RDKit          3D

 23 25  0  0  0  0  0  0  0  0999 V2000
   29.4810   50.4230   -5.4490 O   0  0  0  0  0  0  0  0  0  0  0  0
   30.8310   49.4850   -5.0910 S   0  0  0  0  0  0  0  0  0  0  0  0
   30.8200   47.9880   -4.6870 N   0  0  0  0  0  0  0  0  0  0  0  0
   30.8660   49.2790   -6.7070 N   0  0  0  0  0  0  0  0  0  0  0  0
   32.3710   50.3590   -5.1640 C   0  0  0  0  0  0  0  0  0  0  0  0
   30.2960   47.1090   -3.9220 C   0  0  0  0  0  0  0  0  0  0  0  0
   30.4520   50.1750   -7.7540 C   0  0  0  0  0  0  0  0  0  0  0  0
   33.5710   49.7560   -5.2920 C   0  0  0  0  0  0  0  0  0  0  0  0
   32.2840   51.7240   -5.0840 C   0  0  0  0  0  0  0  0  0  0  0  0
   29.5160   46.4810   -2.9610 O   0  0  0  0  0  0  0  0  0  0  0  0
   29.9240   49.9600   -8.9520 N   0  0  0  0  0  0  0  0  0  0  0  0
   30.5340   51.8850   -7.7410 S   0  0  0  0  0  0  0  0  0  0  0  0
   34.7380   50.5020   -5.3460 C   0  0  0  0  0  0  0  0  0  0  0  0
   33.4550   52.4570   -5.1380 C   0  0  0  0  0  0  0  0  0  0  0  0
   29.5010   48.2220   -3.4080 C   0  0  0  0  0  0  0  0  0  0  0  0
   29.8680   52.1780   -9.3060 C   0  0  0  0  0  0  0  0  0  0  0  0
   29.6400   50.9340   -9.7050 N   0  0  0  0  0  0  0  0  0  0  0  0
   34.7010   51.8840   -5.2680 C   0  0  0  0  0  0  0  0  0  0  0  0
   29.7660   49.0190   -2.3000 C   0  0  0  0  0  0  0  0  0  0  0  0
   28.0260   48.9200   -3.9320 S   0  0  0  0  0  0  0  0  0  0  0  0
   27.8500   50.1420   -2.7480 C   0  0  0  0  0  0  0  0  0  0  0  0
   28.9140   49.9520   -2.0220 N   0  0  0  0  0  0  0  0  0  0  0  0
   26.7440   51.1640   -2.5970 C   0  0  0  0  0  0  0  0  0  0  0  0
  1  2  2  0
  2  3  1  0
  2  4  1  0
  2  5  1  0
  3  6  2  3
  4  7  1  0
  5  8  2  0
  5  9  1  0
  6 10  1  0
  7 11  2  0
  7 12  1  0
  8 13  1  0
  9 14  2  0
  6 15  1  0
 12 16  1  0
 11 17  1  0
 16 17  2  0
 13 18  2  0
 14 18  1  0
 15 19  2  0
 15 20  1  0
 20 21  1  0
 19 22  1  0
 21 22  2  0
 21 23  1  0
M  END
