mac-x0231-mac-x0565
     RDKit          3D

 26 29  0  0  0  0  0  0  0  0999 V2000
   34.1190   45.1470   -6.4300 O   0  0  0  0  0  0  0  0  0  0  0  0
   32.8130   44.8080   -6.4930 C   0  0  0  0  0  0  0  0  0  0  0  0
   32.0360   45.3470   -7.2640 O   0  0  0  0  0  0  0  0  0  0  0  0
   32.4000   43.7150   -5.5380 C   0  0  0  0  0  0  0  0  0  0  0  0
   31.5050   44.0950   -4.3460 C   0  0  1  0  0  0  0  0  0  0  0  0
   31.6370   45.5650   -3.9220 C   0  0  1  0  0  0  0  0  0  0  0  0
   30.1200   43.6270   -4.4830 N   0  0  0  0  0  0  0  0  0  0  0  0
   30.3000   46.2930   -3.5360 C   0  0  1  0  0  0  0  0  0  0  0  0
   29.2610   44.0490   -3.4420 N   0  0  0  0  0  0  0  0  0  0  0  0
   32.7810   45.6760   -2.8550 C   0  0  0  0  0  0  0  0  0  0  0  0
   29.3700   45.2960   -2.8280 C   0  0  0  0  0  0  0  0  0  0  0  0
   30.7780   47.6290   -2.8710 C   0  0  2  0  0  0  0  0  0  0  0  0
   32.4790   46.4710   -1.6210 C   0  0  0  0  0  0  0  0  0  0  0  0
   28.7200   45.4830   -1.8070 O   0  0  0  0  0  0  0  0  0  0  0  0
   31.5390   47.3900   -1.6150 C   0  0  0  0  0  0  0  0  0  0  0  0
   30.1740   49.0110   -3.0020 C   0  0  0  0  0  0  0  0  0  0  0  0
   31.8190   48.0450   -3.9530 C   0  0  0  0  0  0  0  0  0  0  0  0
   30.3880   49.4880   -4.2900 C   0  0  0  0  0  0  0  0  0  0  0  0
   29.5120   49.8210   -2.0920 C   0  0  0  0  0  0  0  0  0  0  0  0
   31.0500   48.5820   -5.0430 O   0  0  0  0  0  0  0  0  0  0  0  0
   29.9910   50.7240   -4.7310 C   0  0  0  0  0  0  0  0  0  0  0  0
   29.0940   51.0950   -2.5060 C   0  0  0  0  0  0  0  0  0  0  0  0
   29.3360   51.5500   -3.8200 C   0  0  0  0  0  0  0  0  0  0  0  0
   28.9240   52.8970   -4.2830 C   0  0  0  0  0  0  0  0  0  0  0  0
   28.4240   52.9020   -5.5300 O   0  0  0  0  0  0  0  0  0  0  0  0
   29.0210   53.9270   -3.6410 O   0  0  0  0  0  0  0  0  0  0  0  0
  1  2  1  0
  2  3  2  0
  2  4  1  0
  5  4  1  6
  5  6  1  0
  5  7  1  0
  6  8  1  0
  7  9  1  0
  6 10  1  1
  8 11  1  1
  9 11  1  0
  8 12  1  0
 10 13  1  0
 11 14  2  0
 12 15  1  1
 13 15  2  0
 12 16  1  0
 12 17  1  0
 16 18  2  0
 16 19  1  0
 17 20  1  0
 18 20  1  0
 18 21  1  0
 19 22  2  0
 21 23  2  0
 22 23  1  0
 23 24  1  0
 24 25  1  0
 24 26  2  0
M  END
