mac-x0228-mac-x0453
     RDKit          3D

 15 16  0  0  0  0  0  0  0  0999 V2000
   29.4520   48.2620   -5.8060 O   0  0  0  0  0  0  0  0  0  0  0  0
   30.3190   48.6490   -4.8530 C   0  0  0  0  0  0  0  0  0  0  0  0
   31.1940   47.8900   -4.4780 O   0  0  0  0  0  0  0  0  0  0  0  0
   30.0570   50.0410   -4.3600 C   0  0  0  0  0  0  0  0  0  0  0  0
   29.7460   51.1210   -5.2360 C   0  0  0  0  0  0  0  0  0  0  0  0
   30.1310   50.2640   -2.9620 C   0  0  0  0  0  0  0  0  0  0  0  0
   29.6450   50.9950   -6.7410 C   0  0  0  0  0  0  0  0  0  0  0  0
   29.5230   52.3700   -4.6470 C   0  0  0  0  0  0  0  0  0  0  0  0
   29.9020   51.5270   -2.4130 C   0  0  0  0  0  0  0  0  0  0  0  0
   30.4320   52.0910   -7.4720 C   0  0  0  0  0  0  0  0  0  0  0  0
   29.6000   52.5550   -3.2720 C   0  0  0  0  0  0  0  0  0  0  0  0
   29.1850   53.6780   -5.2720 C   0  0  0  0  0  0  0  0  0  0  0  0
   29.5570   53.0570   -8.1480 N   0  0  0  0  0  0  0  0  0  0  0  0
   29.3570   53.8410   -2.8640 O   0  0  0  0  0  0  0  0  0  0  0  0
   29.4370   54.6080   -4.0860 C   0  0  0  0  0  0  0  0  0  0  0  0
  1  2  1  0
  2  3  2  0
  2  4  1  0
  4  5  2  0
  4  6  1  0
  5  7  1  0
  5  8  1  0
  6  9  2  0
  7 10  1  0
  8 11  2  0
  9 11  1  0
  8 12  1  0
 10 13  1  0
 11 14  1  0
 12 15  1  0
 14 15  1  0
M  END
