mac-x0392-mac-x0436
     RDKit          3D

 27 29  0  0  0  0  0  0  0  0999 V2000
   29.1920   47.4220   -7.9970 N   0  0  0  0  0  0  0  0  0  0  0  0
   29.1860   48.5690   -7.1880 C   0  0  0  0  0  0  0  0  0  0  0  0
   29.0500   49.8350   -7.7590 C   0  0  0  0  0  0  0  0  0  0  0  0
   29.3080   48.5370   -5.7860 C   0  0  0  0  0  0  0  0  0  0  0  0
   29.4540   47.2350   -5.0720 C   0  0  0  0  0  0  0  0  0  0  0  0
   29.2910   49.7320   -5.0520 C   0  0  0  0  0  0  0  0  0  0  0  0
   29.0330   51.0040   -7.0760 N   0  0  0  0  0  0  0  0  0  0  0  0
   29.6750   47.1360   -3.8750 O   0  0  0  0  0  0  0  0  0  0  0  0
   29.3040   46.2070   -5.9420 O   0  0  0  0  0  0  0  0  0  0  0  0
   29.1530   50.9260   -5.7360 C   0  0  0  0  0  0  0  0  0  0  0  0
   30.2610   45.1460   -5.7980 C   0  0  0  0  0  0  0  0  0  0  0  0
   31.4250   45.2030   -6.6830 N   0  0  0  0  0  0  0  0  0  0  0  0
   32.5980   44.9060   -6.2670 C   0  0  0  0  0  0  0  0  0  0  0  0
   33.7100   44.9380   -7.0230 O   0  0  0  0  0  0  0  0  0  0  0  0
   32.8790   44.4710   -4.8550 C   0  0  0  0  0  0  0  0  0  0  0  0
   32.7630   45.6440   -3.8860 C   0  0  0  0  0  0  0  0  0  0  0  0
   34.1180   46.1720   -3.4660 C   0  0  0  0  0  0  0  0  0  0  0  0
   34.3020   47.6910   -3.4240 C   0  0  0  0  0  0  0  0  0  0  0  0
   35.0740   45.3370   -3.1610 N   0  0  0  0  0  0  0  0  0  0  0  0
   33.3480   48.4480   -3.5000 O   0  0  0  0  0  0  0  0  0  0  0  0
   35.5950   48.1180   -3.2960 N   0  0  0  0  0  0  0  0  0  0  0  0
   36.3150   45.8740   -2.7860 C   0  0  0  0  0  0  0  0  0  0  0  0
   36.5920   47.2480   -2.8480 C   0  0  0  0  0  0  0  0  0  0  0  0
   37.3140   45.0080   -2.3340 C   0  0  0  0  0  0  0  0  0  0  0  0
   38.5640   45.5050   -1.9560 C   0  0  0  0  0  0  0  0  0  0  0  0
   37.8350   47.7540   -2.4700 C   0  0  0  0  0  0  0  0  0  0  0  0
   38.8230   46.8740   -2.0240 C   0  0  0  0  0  0  0  0  0  0  0  0
  1  2  1  0
  2  3  2  0
  2  4  1  0
  4  5  1  0
  4  6  2  0
  3  7  1  0
  5  8  2  0
  5  9  1  0
  6 10  1  0
  7 10  2  0
  9 11  1  0
 11 12  1  0
 12 13  2  3
 13 14  1  0
 13 15  1  0
 15 16  1  0
 16 17  1  0
 17 18  1  0
 17 19  2  0
 18 20  2  0
 18 21  1  0
 19 22  1  0
 21 23  1  0
 22 23  2  0
 22 24  1  0
 24 25  2  0
 23 26  1  0
 25 27  1  0
 26 27  2  0
M  END
