mac-x0190-mac-x0139
     RDKit          3D

 25 28  0  0  0  0  0  0  0  0999 V2000
   28.3340   56.6480   -5.5490 O   0  0  0  0  0  0  0  0  0  0  0  0
   29.5390   56.0840   -5.0650 C   0  0  0  0  0  0  0  0  0  0  0  0
   29.4700   54.5740   -4.9550 C   0  0  0  0  0  0  0  0  0  0  0  0
   29.6140   53.9240   -3.8320 N   0  0  0  0  0  0  0  0  0  0  0  0
   29.2400   53.8090   -6.1140 N   0  0  0  0  0  0  0  0  0  0  0  0
   29.5330   52.6200   -4.2150 C   0  0  0  0  0  0  0  0  0  0  0  0
   29.2720   52.5880   -5.6510 C   0  0  0  0  0  0  0  0  0  0  0  0
   29.6670   51.4940   -3.5200 C   0  0  0  0  0  0  0  0  0  0  0  0
   29.1100   51.2620   -6.3100 C   0  0  0  0  0  0  0  0  0  0  0  0
   29.5850   50.1900   -4.1630 C   0  0  0  0  0  0  0  0  0  0  0  0
   29.3410   50.0480   -5.4770 C   0  0  0  0  0  0  0  0  0  0  0  0
   28.7800   50.9810   -7.5500 N   0  0  0  0  0  0  0  0  0  0  0  0
   29.2130   48.9360   -6.4210 C   0  0  0  0  0  0  0  0  0  0  0  0
   28.8560   49.5570   -7.6230 C   0  0  0  0  0  0  0  0  0  0  0  0
   29.3400   47.5590   -6.4560 C   0  0  0  0  0  0  0  0  0  0  0  0
   28.6120   48.9320   -8.7780 N   0  0  0  0  0  0  0  0  0  0  0  0
   29.7060   46.7370   -5.3910 N   0  0  0  0  0  0  0  0  0  0  0  0
   28.7490   47.6020   -8.7020 C   0  0  0  0  0  0  0  0  0  0  0  0
   29.1010   46.9000   -7.6090 N   0  0  0  0  0  0  0  0  0  0  0  0
   30.3050   47.4270   -4.2630 C   0  0  0  0  0  0  0  0  0  0  0  0
   30.2220   45.4000   -5.7340 C   0  0  0  0  0  0  0  0  0  0  0  0
   31.7470   45.3080   -5.6100 C   0  0  0  0  0  0  0  0  0  0  0  0
   32.4700   45.0040   -6.8950 C   0  0  0  0  0  0  0  0  0  0  0  0
   31.9450   44.6490   -7.9370 O   0  0  0  0  0  0  0  0  0  0  0  0
   33.8080   45.1530   -6.8470 O   0  0  0  0  0  0  0  0  0  0  0  0
  1  2  1  0
  2  3  1  0
  3  4  2  0
  3  5  1  0
  4  6  1  0
  5  7  2  0
  6  7  1  0
  6  8  2  0
  7  9  1  0
  8 10  1  0
  9 11  1  0
 10 11  2  0
  9 12  2  0
 11 13  1  0
 12 14  1  0
 13 14  2  0
 13 15  1  0
 14 16  1  0
 15 17  1  0
 16 18  2  0
 15 19  2  0
 18 19  1  0
 17 20  1  0
 17 21  1  0
 21 22  1  0
 22 23  1  0
 23 24  2  0
 23 25  1  0
M  END
