mac-x0455-mac-x0224
     RDKit          3D

 20 22  0  0  0  0  0  0  0  0999 V2000
   32.8660   48.8840   -4.8950 C   0  0  0  0  0  0  0  0  0  0  0  0
   32.0900   47.6580   -4.3670 C   0  0  1  0  0  0  0  0  0  0  0  0
   31.2600   48.1320   -3.2470 O   0  0  0  0  0  0  0  0  0  0  0  0
   31.0270   47.2080   -5.4630 C   0  0  0  0  0  0  0  0  0  0  0  0
   33.0720   46.6270   -3.7570 C   0  0  0  0  0  0  0  0  0  0  0  0
   30.4390   45.9380   -5.2050 O   0  0  0  0  0  0  0  0  0  0  0  0
   31.4470   47.1640   -6.8060 O   0  0  0  0  0  0  0  0  0  0  0  0
   34.2480   47.0910   -3.1290 C   0  0  0  0  0  0  0  0  0  0  0  0
   32.8760   45.2360   -3.7830 C   0  0  0  0  0  0  0  0  0  0  0  0
   30.0140   48.2670   -5.1900 C   0  0  0  0  0  0  0  0  0  0  0  0
   30.2160   48.7420   -3.8990 C   0  0  0  0  0  0  0  0  0  0  0  0
   35.1760   46.2160   -2.5590 C   0  0  0  0  0  0  0  0  0  0  0  0
   33.8060   44.3570   -3.2110 C   0  0  0  0  0  0  0  0  0  0  0  0
   29.0010   48.7780   -5.9870 C   0  0  0  0  0  0  0  0  0  0  0  0
   29.4310   49.7330   -3.3550 C   0  0  0  0  0  0  0  0  0  0  0  0
   34.9550   44.8460   -2.6000 C   0  0  0  0  0  0  0  0  0  0  0  0
   28.1870   49.7880   -5.4590 C   0  0  0  0  0  0  0  0  0  0  0  0
   28.4050   50.2590   -4.1470 C   0  0  0  0  0  0  0  0  0  0  0  0
   26.8610   50.5050   -6.4150 S   0  0  0  0  0  0  0  0  0  0  0  0
   27.5500   52.1570   -6.7050 C   0  0  0  0  0  0  0  0  0  0  0  0
  2  1  1  6
  2  3  1  0
  2  4  1  0
  2  5  1  0
  4  6  1  0
  4  7  1  0
  5  8  2  0
  5  9  1  0
  4 10  1  0
  3 11  1  0
 10 11  2  0
  8 12  1  0
  9 13  2  0
 10 14  1  0
 11 15  1  0
 12 16  2  0
 13 16  1  0
 14 17  2  0
 15 18  2  0
 17 18  1  0
 17 19  1  0
 19 20  1  0
M  END
