mac-x0347-mac-x0306
     RDKit          3D

 19 21  0  0  0  0  0  0  0  0999 V2000
   30.4150   44.7370   -4.5530 O   0  0  0  0  0  0  0  0  0  0  0  0
   30.5520   45.6630   -5.5240 C   0  0  0  0  0  0  0  0  0  0  0  0
   30.7730   45.3920   -6.6910 O   0  0  0  0  0  0  0  0  0  0  0  0
   30.4090   47.0500   -5.0390 C   0  0  0  0  0  0  0  0  0  0  0  0
   30.3880   48.1530   -5.8960 C   0  0  0  0  0  0  0  0  0  0  0  0
   30.2890   47.2690   -3.6760 C   0  0  0  0  0  0  0  0  0  0  0  0
   30.2490   49.4450   -5.3620 C   0  0  0  0  0  0  0  0  0  0  0  0
   30.1520   48.5020   -3.1270 N   0  0  0  0  0  0  0  0  0  0  0  0
   30.1350   49.5580   -3.9780 C   0  0  0  0  0  0  0  0  0  0  0  0
   30.2190   50.6840   -6.2410 C   0  0  1  0  0  0  0  0  0  0  0  0
   28.8020   51.1800   -6.4350 C   0  0  0  0  0  0  0  0  0  0  0  0
   31.1460   51.7540   -5.7030 C   0  0  0  0  0  0  0  0  0  0  0  0
   28.3970   52.4160   -6.0980 C   0  0  0  0  0  0  0  0  0  0  0  0
   30.7380   52.9910   -5.3660 C   0  0  0  0  0  0  0  0  0  0  0  0
   29.3020   53.4690   -5.4800 C   0  0  1  0  0  0  0  0  0  0  0  0
   29.2400   54.7440   -6.3010 C   0  0  0  0  0  0  0  0  0  0  0  0
   28.7490   53.9680   -4.0940 C   0  0  0  0  0  0  0  0  0  0  0  0
   28.9070   55.7870   -5.5340 C   0  0  0  0  0  0  0  0  0  0  0  0
   28.7130   55.4320   -4.2240 N   0  0  0  0  0  0  0  0  0  0  0  0
  1  2  1  0
  2  3  2  0
  2  4  1  0
  4  5  2  0
  4  6  1  0
  5  7  1  0
  6  8  2  0
  7  9  2  0
  8  9  1  0
 10  7  1  1
 10 11  1  0
 10 12  1  0
 11 13  2  0
 12 14  2  0
 15 13  1  6
 14 15  1  0
 15 16  1  0
 15 17  1  0
 16 18  2  0
 17 19  1  0
 18 19  1  0
M  END
