mac-x0347-mac-x0564
     RDKit          3D

 24 26  0  0  0  0  0  0  0  0999 V2000
   30.5640   44.7520   -5.1650 O   0  0  0  0  0  0  0  0  0  0  0  0
   30.5960   45.8720   -5.7040 C   0  0  0  0  0  0  0  0  0  0  0  0
   30.8400   45.9450   -6.9390 O   0  0  0  0  0  0  0  0  0  0  0  0
   30.4000   47.1450   -4.8940 C   0  0  0  0  0  0  0  0  0  0  0  0
   30.0870   48.3400   -5.5370 C   0  0  0  0  0  0  0  0  0  0  0  0
   30.4210   46.6260   -5.7130 C   0  0  0  0  0  0  0  0  0  0  0  0
   29.9850   49.4940   -4.7680 C   0  0  1  0  0  0  0  0  0  0  0  0
   30.9930   45.7310   -4.7830 N   0  0  0  0  0  0  0  0  0  0  0  0
   29.6480   50.8610   -5.4170 C   0  0  0  0  0  0  0  0  0  0  0  0
   31.2370   46.0780   -3.4230 C   0  0  0  0  0  0  0  0  0  0  0  0
   29.0010   51.4180   -5.1780 C   0  0  0  0  0  0  0  0  0  0  0  0
   30.5880   47.1410   -3.5330 C   0  0  1  0  0  0  0  0  0  0  0  0
   28.7360   50.9430   -6.4330 C   0  0  0  0  0  0  0  0  0  0  0  0
   30.3500   52.0210   -5.0260 C   0  0  0  0  0  0  0  0  0  0  0  0
   29.0400   52.3240   -4.1200 C   0  0  0  0  0  0  0  0  0  0  0  0
   30.1820   49.3960   -3.3890 C   0  0  0  0  0  0  0  0  0  0  0  0
   28.4570   52.1810   -7.0020 C   0  0  0  0  0  0  0  0  0  0  0  0
   30.1000   53.2400   -5.6140 C   0  0  0  0  0  0  0  0  0  0  0  0
   29.5240   51.9050   -2.8700 C   0  0  0  0  0  0  0  0  0  0  0  0
   30.4770   47.7410   -3.7380 C   0  0  0  0  0  0  0  0  0  0  0  0
   29.1460   53.3170   -6.5960 C   0  0  0  0  0  0  0  0  0  0  0  0
   30.3660   48.3410   -3.9430 C   0  0  0  0  0  0  0  0  0  0  0  0
   30.0190   50.6360   -2.6480 C   0  0  0  0  0  0  0  0  0  0  0  0
   30.2740   48.8680   -3.6660 C   0  0  0  0  0  0  0  0  0  0  0  0
  1  2  1  0
  2  3  1  0
  2  4  1  0
  4  5  2  0
  3  6  1  0
  5  7  1  0
  6  8  1  0
  7  9  1  6
  8 10  1  0
  7 11  1  0
 12 10  1  6
  9 13  2  0
  9 14  1  0
 11 15  2  0
 12 16  1  0
 13 17  1  0
 14 18  2  0
 15 19  1  0
 12 20  1  0
 17 21  2  0
 18 21  1  0
 20 22  1  0
 16 23  1  0
 19 23  2  0
 16 24  1  0
 22 24  2  0
M  END
