mac-x0396-mac-x0132
     RDKit          3D

 13 14  0  0  0  0  0  0  0  0999 V2000
   29.2820   50.8630   -7.3680 N   0  0  0  0  0  0  0  0  0  0  0  0
   29.7220   50.7110   -6.0810 C   0  0  0  0  0  0  0  0  0  0  0  0
   30.4560   49.7570   -5.8240 O   0  0  0  0  0  0  0  0  0  0  0  0
   29.2430   51.7580   -5.0270 C   0  0  1  0  0  0  0  0  0  0  0  0
   30.4440   52.1770   -4.0990 C   0  0  1  0  0  0  0  0  0  0  0  0
   28.6660   52.9590   -5.7540 C   0  0  0  0  0  0  0  0  0  0  0  0
   28.1390   51.0280   -4.2810 C   0  0  0  0  0  0  0  0  0  0  0  0
   30.3600   53.5350   -3.5160 N   0  0  0  0  0  0  0  0  0  0  0  0
   28.8400   54.2160   -5.3330 C   0  0  0  0  0  0  0  0  0  0  0  0
   30.6120   51.2620   -2.9050 C   0  0  0  0  0  0  0  0  0  0  0  0
   28.3430   50.4350   -3.0960 C   0  0  0  0  0  0  0  0  0  0  0  0
   29.6300   54.4050   -4.1070 C   0  0  0  0  0  0  0  0  0  0  0  0
   29.6340   50.4640   -2.4560 C   0  0  0  0  0  0  0  0  0  0  0  0
  1  2  1  0
  2  3  2  0
  4  2  1  6
  4  5  1  0
  4  6  1  0
  4  7  1  0
  5  8  1  0
  6  9  2  0
  5 10  1  1
  7 11  2  0
  8 12  2  0
  9 12  1  0
 10 13  2  0
 11 13  1  0
M  END
