mac-x0472-mac-x0365
     RDKit          3D

 24 26  0  0  0  0  0  0  0  0999 V2000
   30.7360   49.4290   -2.5840 O   0  0  0  0  0  0  0  0  0  0  0  0
   31.0410   48.8860   -3.8970 S   0  0  0  0  0  0  0  0  0  0  0  0
   31.6890   47.5860   -3.9500 O   0  0  0  0  0  0  0  0  0  0  0  0
   29.4900   48.8530   -4.9480 C   0  0  1  0  0  0  0  0  0  0  0  0
   32.2120   50.0290   -4.6350 C   0  0  0  0  0  0  0  0  0  0  0  0
   30.3040   48.0700   -5.8730 O   0  0  0  0  0  0  0  0  0  0  0  0
   29.1020   49.4020   -6.3150 C   0  0  0  0  0  0  0  0  0  0  0  0
   33.1500   49.5470   -5.5530 C   0  0  0  0  0  0  0  0  0  0  0  0
   32.1900   51.3840   -4.2870 C   0  0  0  0  0  0  0  0  0  0  0  0
   29.5470   50.3580   -4.6340 C   0  0  0  0  0  0  0  0  0  0  0  0
   29.7120   49.0740   -7.4430 N   0  0  0  0  0  0  0  0  0  0  0  0
   27.8080   50.5220   -6.5510 S   0  0  0  0  0  0  0  0  0  0  0  0
   34.0670   50.4300   -6.1230 C   0  0  0  0  0  0  0  0  0  0  0  0
   33.1110   52.2570   -4.8650 C   0  0  0  0  0  0  0  0  0  0  0  0
   29.1940   50.9030   -3.3870 C   0  0  0  0  0  0  0  0  0  0  0  0
   29.9690   51.2730   -5.6340 C   0  0  0  0  0  0  0  0  0  0  0  0
   28.1720   50.4990   -8.2180 C   0  0  0  0  0  0  0  0  0  0  0  0
   29.1740   49.7130   -8.5430 N   0  0  0  0  0  0  0  0  0  0  0  0
   34.0480   51.7800   -5.7820 C   0  0  0  0  0  0  0  0  0  0  0  0
   29.2580   52.2780   -3.1610 C   0  0  0  0  0  0  0  0  0  0  0  0
   30.0290   52.6480   -5.4030 C   0  0  0  0  0  0  0  0  0  0  0  0
   28.9130   52.7510   -1.9540 F   0  0  0  0  0  0  0  0  0  0  0  0
   29.6690   53.1460   -4.1610 C   0  0  0  0  0  0  0  0  0  0  0  0
   29.7150   54.4860   -3.9060 O   0  0  0  0  0  0  0  0  0  0  0  0
  1  2  2  0
  2  3  2  0
  2  4  1  0
  2  5  1  0
  4  6  1  1
  4  7  1  0
  5  8  2  0
  5  9  1  0
  4 10  1  0
  7 11  2  0
  7 12  1  0
  8 13  1  0
  9 14  2  0
 10 15  2  0
 10 16  1  0
 12 17  1  0
 11 18  1  0
 17 18  2  0
 13 19  2  0
 14 19  1  0
 15 20  1  0
 16 21  2  0
 20 22  1  0
 20 23  2  0
 21 23  1  0
 23 24  1  0
M  END
