mac-x0124-mac-x0161
     RDKit          3D

 18 20  0  0  0  0  0  0  0  0999 V2000
   30.2730   46.6360   -4.4650 C   0  0  0  0  0  0  0  0  0  0  0  0
   29.7860   47.9570   -4.8390 N   0  0  0  0  0  0  0  0  0  0  0  0
   29.8400   49.0770   -4.0400 C   0  0  0  0  0  0  0  0  0  0  0  0
   31.7220   46.6760   -4.1670 C   0  0  0  0  0  0  0  0  0  0  0  0
   29.2040   48.2740   -6.0410 C   0  0  0  0  0  0  0  0  0  0  0  0
   32.5110   47.3810   -3.2860 C   0  0  0  0  0  0  0  0  0  0  0  0
   32.5110   45.8430   -4.9040 O   0  0  0  0  0  0  0  0  0  0  0  0
   29.2860   50.1250   -4.7420 C   0  0  0  0  0  0  0  0  0  0  0  0
   28.8830   49.6250   -6.0140 C   0  0  0  0  0  0  0  0  0  0  0  0
   28.9920   47.4230   -7.0620 N   0  0  0  0  0  0  0  0  0  0  0  0
   33.8340   45.9910   -4.5150 N   0  0  0  0  0  0  0  0  0  0  0  0
   33.8080   46.9130   -3.5490 C   0  0  0  0  0  0  0  0  0  0  0  0
   34.9330   47.3210   -2.9210 O   0  0  0  0  0  0  0  0  0  0  0  0
   28.2730   50.1500   -7.1640 C   0  0  0  0  0  0  0  0  0  0  0  0
   28.4050   48.0400   -8.1050 C   0  0  0  0  0  0  0  0  0  0  0  0
   27.8920   51.4780   -7.2930 N   0  0  0  0  0  0  0  0  0  0  0  0
   34.7340   48.3640   -1.9750 C   0  0  0  0  0  0  0  0  0  0  0  0
   28.0410   49.3330   -8.2100 N   0  0  0  0  0  0  0  0  0  0  0  0
  1  2  1  0
  2  3  1  0
  1  4  1  0
  2  5  1  0
  4  6  2  0
  4  7  1  0
  3  8  2  0
  5  9  2  0
  8  9  1  0
  5 10  1  0
  7 11  1  0
  6 12  1  0
 11 12  2  0
 12 13  1  0
  9 14  1  0
 10 15  2  0
 14 16  1  0
 13 17  1  0
 14 18  2  0
 15 18  1  0
M  END
