mac-x0301-mac-x0226
     RDKit          3D

 27 30  0  0  0  0  0  0  0  0999 V2000
   29.7510   45.7730   -4.8510 O   0  0  0  0  0  0  0  0  0  0  0  0
   30.3650   46.9600   -4.3550 C   0  0  0  0  0  0  0  0  0  0  0  0
   30.1520   46.9500   -2.9460 O   0  0  0  0  0  0  0  0  0  0  0  0
   31.8860   46.8290   -4.6570 C   0  0  0  0  0  0  0  0  0  0  0  0
   29.6890   48.2120   -4.8950 C   0  0  0  0  0  0  0  0  0  0  0  0
   32.1290   46.2820   -5.9680 O   0  0  0  0  0  0  0  0  0  0  0  0
   29.2060   48.2870   -6.2010 C   0  0  0  0  0  0  0  0  0  0  0  0
   29.5080   49.3780   -4.1230 C   0  0  0  0  0  0  0  0  0  0  0  0
   33.4140   45.8830   -6.1790 C   0  0  0  0  0  0  0  0  0  0  0  0
   28.5910   49.4130   -6.7100 C   0  0  0  0  0  0  0  0  0  0  0  0
   28.8800   50.5280   -4.6440 C   0  0  0  0  0  0  0  0  0  0  0  0
   29.2650   47.2880   -7.1320 O   0  0  0  0  0  0  0  0  0  0  0  0
   34.0690   46.1330   -7.1840 O   0  0  0  0  0  0  0  0  0  0  0  0
   28.4150   50.5500   -5.9570 C   0  0  0  0  0  0  0  0  0  0  0  0
   28.2000   49.2620   -8.0050 O   0  0  0  0  0  0  0  0  0  0  0  0
   28.6910   47.9380   -8.2840 C   0  0  0  0  0  0  0  0  0  0  0  0
   33.9240   45.1220   -5.0640 C   0  0  0  0  0  0  0  0  0  0  0  0
   33.5600   43.8250   -4.6670 C   0  0  0  0  0  0  0  0  0  0  0  0
   34.8760   45.4980   -4.1380 C   0  0  0  0  0  0  0  0  0  0  0  0
   34.2210   43.4100   -3.5860 N   0  0  0  0  0  0  0  0  0  0  0  0
   35.0350   44.4490   -3.2600 N   0  0  0  0  0  0  0  0  0  0  0  0
   35.9050   44.3780   -2.1400 C   0  0  0  0  0  0  0  0  0  0  0  0
   36.7120   45.4670   -1.7820 C   0  0  0  0  0  0  0  0  0  0  0  0
   35.9570   43.2010   -1.3790 C   0  0  0  0  0  0  0  0  0  0  0  0
   37.5610   45.3730   -0.6760 C   0  0  0  0  0  0  0  0  0  0  0  0
   36.8080   43.1150   -0.2750 C   0  0  0  0  0  0  0  0  0  0  0  0
   37.6070   44.2000    0.0760 C   0  0  0  0  0  0  0  0  0  0  0  0
  2  1  1  0
  2  3  1  0
  2  4  1  0
  2  5  1  0
  4  6  1  0
  5  7  1  0
  5  8  2  0
  6  9  1  0
  7 10  2  0
  8 11  1  0
  7 12  1  0
  9 13  2  0
 10 14  1  0
 11 14  2  0
 10 15  1  0
 12 16  1  0
 15 16  1  0
  9 17  1  0
 17 18  1  0
 17 19  2  0
 18 20  2  0
 19 21  1  0
 20 21  1  0
 21 22  1  0
 22 23  2  0
 22 24  1  0
 23 25  1  0
 24 26  2  0
 25 27  2  0
 26 27  1  0
M  END
