mac-x0555-mac-x0379
     RDKit          3D

 15 16  0  0  0  0  0  0  0  0999 V2000
   28.9670   55.3720   -6.6500 N   0  0  0  0  0  0  0  0  0  0  0  0
   29.2200   54.3800   -5.6890 C   0  0  0  0  0  0  0  0  0  0  0  0
   29.5230   54.6850   -4.3740 C   0  0  0  0  0  0  0  0  0  0  0  0
   29.1830   53.0230   -6.0140 C   0  0  0  0  0  0  0  0  0  0  0  0
   29.4470   52.0120   -5.0440 C   0  0  0  0  0  0  0  0  0  0  0  0
   29.7780   53.7660   -3.4110 N   0  0  0  0  0  0  0  0  0  0  0  0
   29.7400   52.4660   -3.7480 C   0  0  0  0  0  0  0  0  0  0  0  0
   29.4350   50.6050   -5.3210 C   0  0  0  0  0  0  0  0  0  0  0  0
   29.1130   50.2200   -6.7190 C   0  0  0  0  0  0  0  0  0  0  0  0
   30.0080   51.5310   -2.7640 C   0  0  0  0  0  0  0  0  0  0  0  0
   29.7280   49.6490   -4.2900 C   0  0  0  0  0  0  0  0  0  0  0  0
   29.7980   48.1230   -4.3670 C   0  0  0  0  0  0  0  0  0  0  0  0
   30.0070   50.1510   -3.0160 C   0  0  0  0  0  0  0  0  0  0  0  0
   30.3770   47.3980   -3.5620 O   0  0  0  0  0  0  0  0  0  0  0  0
   29.1710   47.5650   -5.4210 O   0  0  0  0  0  0  0  0  0  0  0  0
  1  2  1  0
  2  3  2  0
  2  4  1  0
  4  5  2  0
  3  6  1  0
  5  7  1  0
  6  7  2  0
  5  8  1  0
  8  9  1  0
  7 10  1  0
  8 11  2  0
 11 12  1  0
 10 13  2  0
 11 13  1  0
 12 14  2  0
 12 15  1  0
M  END
