mac-x0139-mac-x0338
     RDKit          3D

 25 27  0  0  0  0  0  0  0  0999 V2000
   30.7240   46.4680   -4.7290 C   0  0  0  0  0  0  0  0  0  0  0  0
   30.6530   46.2280   -6.1680 N   0  0  0  0  0  0  0  0  0  0  0  0
   30.4650   44.8270   -6.5710 C   0  0  0  0  0  0  0  0  0  0  0  0
   29.8170   47.1470   -6.8200 C   0  0  0  0  0  0  0  0  0  0  0  0
   31.7050   43.9880   -6.2690 C   0  0  0  0  0  0  0  0  0  0  0  0
   29.9560   48.5380   -6.7300 C   0  0  0  0  0  0  0  0  0  0  0  0
   28.8060   46.6610   -7.5850 N   0  0  0  0  0  0  0  0  0  0  0  0
   32.8110   44.2490   -7.2520 C   0  0  0  0  0  0  0  0  0  0  0  0
   29.0410   49.3210   -7.4260 C   0  0  0  0  0  0  0  0  0  0  0  0
   27.9870   47.5290   -8.2160 C   0  0  0  0  0  0  0  0  0  0  0  0
   30.8510   49.4280   -6.0610 C   0  0  0  0  0  0  0  0  0  0  0  0
   32.7430   44.2060   -8.4680 O   0  0  0  0  0  0  0  0  0  0  0  0
   33.9800   44.5570   -6.6490 O   0  0  0  0  0  0  0  0  0  0  0  0
   28.0240   48.8770   -8.1950 N   0  0  0  0  0  0  0  0  0  0  0  0
   29.3820   50.6270   -7.1650 N   0  0  0  0  0  0  0  0  0  0  0  0
   30.4680   50.7120   -6.3520 C   0  0  0  0  0  0  0  0  0  0  0  0
   28.7520   51.7240   -7.6210 N   0  0  0  0  0  0  0  0  0  0  0  0
   28.4930   52.6650   -6.6350 C   0  0  0  0  0  0  0  0  0  0  0  0
   28.0590   53.8000   -6.8220 O   0  0  0  0  0  0  0  0  0  0  0  0
   28.8010   52.1720   -5.2560 C   0  0  0  0  0  0  0  0  0  0  0  0
   28.1940   51.0130   -4.8640 N   0  0  0  0  0  0  0  0  0  0  0  0
   29.6690   52.8690   -4.4270 C   0  0  0  0  0  0  0  0  0  0  0  0
   28.5060   50.5930   -3.6130 C   0  0  0  0  0  0  0  0  0  0  0  0
   29.9750   52.4410   -3.1680 N   0  0  0  0  0  0  0  0  0  0  0  0
   29.3740   51.2880   -2.7860 C   0  0  0  0  0  0  0  0  0  0  0  0
  1  2  1  0
  2  3  1  0
  2  4  1  0
  3  5  1  0
  4  6  2  0
  4  7  1  0
  5  8  1  0
  6  9  1  0
  7 10  2  0
  6 11  1  0
  8 12  2  0
  8 13  1  0
  9 14  2  0
 10 14  1  0
  9 15  1  0
 11 16  2  0
 15 16  1  0
 15 17  1  0
 17 18  1  0
 18 19  2  0
 18 20  1  0
 20 21  2  0
 20 22  1  0
 21 23  1  0
 22 24  2  0
 23 25  2  0
 24 25  1  0
M  END
