mac-x0277-mac-x0305
     RDKit          3D

 20 21  0  0  0  0  0  0  0  0999 V2000
   27.7320   46.0960   -0.5680 Cl  0  0  0  0  0  0  0  0  0  0  0  0
   28.9120   45.8150   -1.8000 C   0  0  0  0  0  0  0  0  0  0  0  0
   30.1930   46.3780   -1.7530 C   0  0  0  0  0  0  0  0  0  0  0  0
   28.5520   44.9930   -2.8680 C   0  0  0  0  0  0  0  0  0  0  0  0
   30.7030   47.4040   -0.4600 Cl  0  0  0  0  0  0  0  0  0  0  0  0
   31.1050   46.1100   -2.7860 C   0  0  0  0  0  0  0  0  0  0  0  0
   29.4610   44.7270   -3.8960 C   0  0  0  0  0  0  0  0  0  0  0  0
   30.7490   45.2860   -3.8650 C   0  0  0  0  0  0  0  0  0  0  0  0
   31.7320   44.9960   -4.9830 C   0  0  0  0  0  0  0  0  0  0  0  0
   32.4700   46.2230   -5.4620 C   0  0  0  0  0  0  0  0  0  0  0  0
   33.7980   46.1370   -5.2600 O   0  0  0  0  0  0  0  0  0  0  0  0
   31.8710   47.2190   -6.0010 N   0  0  0  0  0  0  0  0  0  0  0  0
   30.4230   47.2640   -6.2030 C   0  0  0  0  0  0  0  0  0  0  0  0
   29.8140   48.6400   -6.0020 C   0  0  0  0  0  0  0  0  0  0  0  0
   28.8480   49.1390   -6.8770 C   0  0  0  0  0  0  0  0  0  0  0  0
   30.2500   49.3620   -4.9340 N   0  0  0  0  0  0  0  0  0  0  0  0
   28.4270   48.3940   -7.9450 O   0  0  0  0  0  0  0  0  0  0  0  0
   28.3150   50.4070   -6.6530 C   0  0  0  0  0  0  0  0  0  0  0  0
   29.7180   50.5860   -4.7370 C   0  0  0  0  0  0  0  0  0  0  0  0
   28.7580   51.1460   -5.5610 C   0  0  0  0  0  0  0  0  0  0  0  0
  1  2  1  0
  2  3  2  0
  2  4  1  0
  3  5  1  0
  3  6  1  0
  4  7  2  0
  6  8  2  0
  7  8  1  0
  8  9  1  0
  9 10  1  0
 10 11  1  0
 10 12  2  3
 12 13  1  0
 13 14  1  0
 14 15  2  0
 14 16  1  0
 15 17  1  0
 15 18  1  0
 16 19  2  0
 18 20  2  0
 19 20  1  0
M  END
