mac-x0360-mac-x0337
     RDKit          3D

 12 12  0  0  0  0  0  0  0  0999 V2000
   32.0560   55.2760   -6.9610 Cl  0  0  0  0  0  0  0  0  0  0  0  0
   32.1830   53.6570   -6.3940 C   0  0  0  0  0  0  0  0  0  0  0  0
   33.4400   53.1270   -6.1030 C   0  0  0  0  0  0  0  0  0  0  0  0
   31.0320   52.8900   -6.2300 C   0  0  0  0  0  0  0  0  0  0  0  0
   31.1510   51.5760   -5.7680 C   0  0  0  0  0  0  0  0  0  0  0  0
   33.5420   51.8130   -5.6440 C   0  0  0  0  0  0  0  0  0  0  0  0
   35.0940   51.1600   -5.2870 Cl  0  0  0  0  0  0  0  0  0  0  0  0
   29.6910   50.5890   -5.5540 S   0  0  0  0  0  0  0  0  0  0  0  0
   32.4040   51.0280   -5.4710 C   0  0  0  0  0  0  0  0  0  0  0  0
   30.3070   49.1700   -4.8950 N   0  0  0  0  0  0  0  0  0  0  0  0
   28.8660   51.2230   -4.5530 O   0  0  0  0  0  0  0  0  0  0  0  0
   29.1880   50.2240   -6.8580 O   0  0  0  0  0  0  0  0  0  0  0  0
  1  2  1  0
  2  3  2  0
  2  4  1  0
  4  5  2  0
  3  6  1  0
  6  7  1  0
  5  8  1  0
  5  9  1  0
  6  9  2  0
  8 10  1  0
  8 11  2  0
  8 12  2  0
M  END
