mac-x0365-mac-x0116
     RDKit          3D

 22 24  0  0  0  0  0  0  0  0999 V2000
   29.5920   47.2210   -5.6050 O   0  0  0  0  0  0  0  0  0  0  0  0
   30.0840   47.8160   -4.5090 C   0  0  0  0  0  0  0  0  0  0  0  0
   30.4210   47.1370   -3.5530 O   0  0  0  0  0  0  0  0  0  0  0  0
   30.1820   49.3290   -4.5600 C   0  0  2  0  0  0  0  0  0  0  0  0
   29.6320   50.0190   -3.3040 C   0  0  0  0  0  0  0  0  0  0  0  0
   29.7010   49.9460   -5.9180 C   0  0  1  0  0  0  0  0  0  0  0  0
   29.8330   51.5130   -3.3430 C   0  0  2  0  0  0  0  0  0  0  0  0
   29.6490   51.5430   -5.8760 C   0  0  1  0  0  0  0  0  0  0  0  0
   30.5910   49.4110   -7.0460 C   0  0  0  0  0  0  0  0  0  0  0  0
   28.3640   49.3780   -6.3590 N   0  0  0  0  0  0  0  0  0  0  0  0
   29.3520   52.0750   -2.1900 F   0  0  0  0  0  0  0  0  0  0  0  0
   28.9190   52.1290   -7.0280 N   0  0  0  0  0  0  0  0  0  0  0  0
   29.0950   52.0990   -4.5260 C   0  0  2  0  0  0  0  0  0  0  0  0
   30.0070   48.1280   -7.4230 N   0  0  0  0  0  0  0  0  0  0  0  0
   28.5960   48.3600   -7.3930 C   0  0  0  0  0  0  0  0  0  0  0  0
   29.2010   53.5350   -4.4660 O   0  0  0  0  0  0  0  0  0  0  0  0
   29.1120   53.5900   -7.0900 C   0  0  0  0  0  0  0  0  0  0  0  0
   30.5370   53.9830   -7.2810 C   0  0  0  0  0  0  0  0  0  0  0  0
   31.4490   53.5280   -6.3650 O   0  0  0  0  0  0  0  0  0  0  0  0
   31.1870   54.7420   -8.2310 C   0  0  0  0  0  0  0  0  0  0  0  0
   32.5570   54.7550   -7.8770 C   0  0  0  0  0  0  0  0  0  0  0  0
   32.6670   54.0000   -6.7340 C   0  0  0  0  0  0  0  0  0  0  0  0
  1  2  1  0
  2  3  2  0
  4  2  1  6
  4  5  1  0
  4  6  1  0
  5  7  1  0
  6  8  1  0
  6  9  1  6
  6 10  1  0
  7 11  1  1
  8 12  1  6
  7 13  1  0
  8 13  1  0
  9 14  1  0
 10 15  1  0
 14 15  1  0
 13 16  1  6
 12 17  1  0
 17 18  1  0
 18 19  1  0
 18 20  2  0
 20 21  1  0
 19 22  1  0
 21 22  2  0
M  END
