mac-x0282-mac-x0348
     RDKit          3D

 25 28  0  0  0  0  0  0  0  0999 V2000
   27.2960   44.5300   -0.4930 C   0  0  0  0  0  0  0  0  0  0  0  0
   28.3120   45.2170   -1.2510 N   0  0  0  0  0  0  0  0  0  0  0  0
   28.7720   44.7680   -2.4420 C   0  0  0  0  0  0  0  0  0  0  0  0
   28.9510   46.3880   -0.9010 C   0  0  0  0  0  0  0  0  0  0  0  0
   29.7270   45.6350   -2.9070 C   0  0  0  0  0  0  0  0  0  0  0  0
   29.8530   46.6840   -1.9320 C   0  0  0  0  0  0  0  0  0  0  0  0
   28.8070   47.2050    0.2290 C   0  0  0  0  0  0  0  0  0  0  0  0
   30.4140   45.4100   -4.2020 C   0  0  0  0  0  0  0  0  0  0  0  0
   30.6410   47.8520   -1.8190 C   0  0  0  0  0  0  0  0  0  0  0  0
   29.5990   48.3530    0.3160 C   0  0  0  0  0  0  0  0  0  0  0  0
   31.9260   45.5850   -4.3280 C   0  0  0  0  0  0  0  0  0  0  0  0
   30.5040   48.6750   -0.6920 C   0  0  0  0  0  0  0  0  0  0  0  0
   31.9910   46.0540   -5.7250 C   0  0  0  0  0  0  0  0  0  0  0  0
   31.0920   45.7880   -6.5870 N   0  0  0  0  0  0  0  0  0  0  0  0
   33.0350   46.8410   -6.0470 O   0  0  0  0  0  0  0  0  0  0  0  0
   31.0090   46.3240   -7.9080 C   0  0  0  0  0  0  0  0  0  0  0  0
   30.1790   47.5580   -7.6840 C   0  0  0  0  0  0  0  0  0  0  0  0
   30.2630   48.1700   -6.4160 C   0  0  0  0  0  0  0  0  0  0  0  0
   29.3420   48.1340   -8.6290 C   0  0  0  0  0  0  0  0  0  0  0  0
   29.5240   49.3250   -6.1800 C   0  0  0  0  0  0  0  0  0  0  0  0
   28.5950   49.2540   -8.4510 N   0  0  0  0  0  0  0  0  0  0  0  0
   29.3490   50.2160   -5.0860 C   0  0  0  0  0  0  0  0  0  0  0  0
   28.7390   49.7920   -7.2210 C   0  0  0  0  0  0  0  0  0  0  0  0
   28.4740   51.1970   -5.4930 C   0  0  0  0  0  0  0  0  0  0  0  0
   28.1110   50.9260   -6.7910 N   0  0  0  0  0  0  0  0  0  0  0  0
  1  2  1  0
  2  3  1  0
  2  4  1  0
  3  5  2  0
  4  6  2  0
  5  6  1  0
  4  7  1  0
  5  8  1  0
  6  9  1  0
  7 10  2  0
  8 11  1  0
  9 12  2  0
 10 12  1  0
 11 13  1  0
 13 14  2  3
 13 15  1  0
 14 16  1  0
 16 17  1  0
 17 18  2  0
 17 19  1  0
 18 20  1  0
 19 21  2  0
 20 22  1  0
 20 23  2  0
 21 23  1  0
 22 24  2  0
 23 25  1  0
 24 25  1  0
M  END
