mac-x0587-mac-x0433
     RDKit          3D

 23 24  0  0  0  0  0  0  0  0999 V2000
   29.4790   45.2000   -3.5610 C   0  0  0  0  0  0  0  0  0  0  0  0
   30.5960   46.0380   -4.1690 C   0  0  2  0  0  0  0  0  0  0  0  0
   32.3140   45.4800   -3.8300 S   0  0  0  0  0  0  0  0  0  0  0  0
   30.4520   47.5440   -3.9250 C   0  0  0  0  0  0  0  0  0  0  0  0
   33.2000   46.3650   -5.1480 C   0  0  0  0  0  0  0  0  0  0  0  0
   30.6750   47.9860   -2.7860 O   0  0  0  0  0  0  0  0  0  0  0  0
   30.0790   48.4100   -4.9490 N   0  0  0  0  0  0  0  0  0  0  0  0
   33.5680   45.4230   -6.2680 C   0  0  0  0  0  0  0  0  0  0  0  0
   31.1080   48.9680   -5.7980 C   0  0  0  0  0  0  0  0  0  0  0  0
   28.8910   49.1680   -5.1570 C   0  0  0  0  0  0  0  0  0  0  0  0
   34.6920   45.2060   -6.6940 O   0  0  0  0  0  0  0  0  0  0  0  0
   32.5050   44.7880   -6.8080 O   0  0  0  0  0  0  0  0  0  0  0  0
   27.7510   48.7850   -4.9660 O   0  0  0  0  0  0  0  0  0  0  0  0
   30.4590   50.1590   -6.4690 C   0  0  0  0  0  0  0  0  0  0  0  0
   29.3320   50.4260   -5.6260 N   0  0  0  0  0  0  0  0  0  0  0  0
   29.2470   51.6120   -4.8660 C   0  0  0  0  0  0  0  0  0  0  0  0
   29.2470   51.5150   -3.5300 N   0  0  0  0  0  0  0  0  0  0  0  0
   29.1680   52.8460   -5.4870 C   0  0  0  0  0  0  0  0  0  0  0  0
   29.1700   52.6340   -2.8150 C   0  0  0  0  0  0  0  0  0  0  0  0
   29.0910   53.9550   -4.6690 C   0  0  0  0  0  0  0  0  0  0  0  0
   29.0040   55.3310   -5.2590 C   0  0  0  0  0  0  0  0  0  0  0  0
   29.1730   52.5080   -1.4420 N   0  0  0  0  0  0  0  0  0  0  0  0
   29.0910   53.8610   -3.3280 N   0  0  0  0  0  0  0  0  0  0  0  0
  2  1  1  1
  2  3  1  0
  2  4  1  0
  3  5  1  0
  4  6  2  0
  4  7  1  0
  5  8  1  0
  7  9  1  0
  7 10  1  0
  8 11  2  0
  8 12  1  0
 10 13  2  0
  9 14  1  0
 10 15  1  0
 14 15  1  0
 15 16  1  0
 16 17  2  0
 16 18  1  0
 17 19  1  0
 18 20  2  0
 20 21  1  0
 19 22  1  0
 19 23  2  0
 20 23  1  0
M  END
