mac-x0402-mac-x0212
     RDKit          3D

 18 20  0  0  0  0  0  0  0  0999 V2000
   30.7850   48.2040   -4.0690 N   0  0  0  0  0  0  0  0  0  0  0  0
   30.8560   47.2280   -4.9820 O   0  0  0  0  0  0  0  0  0  0  0  0
   30.7430   47.7590   -2.8050 O   0  0  0  0  0  0  0  0  0  0  0  0
   29.8480   49.2620   -4.3960 C   0  0  1  0  0  0  0  0  0  0  0  0
   30.3350   50.5710   -3.7840 C   0  0  0  0  0  0  0  0  0  0  0  0
   29.7520   49.4730   -5.9150 C   0  0  0  0  0  0  0  0  0  0  0  0
   28.7180   50.5110   -6.2530 C   0  0  2  0  0  0  0  0  0  0  0  0
   29.5120   51.7470   -4.3420 C   0  0  1  0  0  0  0  0  0  0  0  0
   30.2180   52.6130   -5.2060 N   0  0  0  0  0  0  0  0  0  0  0  0
   28.2800   51.2680   -4.9920 C   0  0  1  0  0  0  0  0  0  0  0  0
   27.4950   49.9170   -6.9090 C   0  0  0  0  0  0  0  0  0  0  0  0
   29.5660   53.8640   -5.8430 S   0  0  0  0  0  0  0  0  0  0  0  0
   27.5160   52.4750   -5.4270 C   0  0  1  0  0  0  0  0  0  0  0  0
   26.2680   50.7230   -6.8410 S   0  0  0  0  0  0  0  0  0  0  0  0
   28.3200   53.2500   -6.3960 N   0  0  0  0  0  0  0  0  0  0  0  0
   30.9460   54.4520   -6.4670 C   0  0  0  0  0  0  0  0  0  0  0  0
   29.4970   54.2640   -3.9630 O   0  0  0  0  0  0  0  0  0  0  0  0
   26.3110   51.9890   -6.1190 C   0  0  0  0  0  0  0  0  0  0  0  0
  1  2  1  0
  1  3  1  0
  4  1  1  6
  4  5  1  0
  4  6  1  0
  7  6  1  1
  8  5  1  6
  8  9  1  0
 10  7  1  6
  8 10  1  0
  7 11  1  0
  9 12  1  0
 10 13  1  0
 11 14  2  0
 12 15  1  0
 13 15  1  0
 12 16  1  0
 12 17  2  0
 13 18  1  6
 14 18  2  0
M  END
