mac-x0568-mac-x0148
     RDKit          3D

 28 32  0  0  0  0  0  0  0  0999 V2000
   28.8550   56.4570   -5.6950 C   0  0  0  0  0  0  0  0  0  0  0  0
   29.4510   55.0990   -5.4750 C   0  0  0  0  0  0  0  0  0  0  0  0
   29.6820   54.2500   -6.5520 C   0  0  0  0  0  0  0  0  0  0  0  0
   29.7480   54.7540   -4.2000 N   0  0  0  0  0  0  0  0  0  0  0  0
   30.2900   53.5260   -3.9940 C   0  0  0  0  0  0  0  0  0  0  0  0
   30.2400   52.9930   -6.3180 C   0  0  0  0  0  0  0  0  0  0  0  0
   30.5530   52.6170   -5.0090 C   0  0  0  0  0  0  0  0  0  0  0  0
   31.1490   51.3060   -4.6600 C   0  0  0  0  0  0  0  0  0  0  0  0
   32.3550   51.2500   -4.4360 O   0  0  0  0  0  0  0  0  0  0  0  0
   30.2710   50.2350   -4.6120 N   0  0  0  0  0  0  0  0  0  0  0  0
   29.3240   49.8940   -5.5380 C   0  0  0  0  0  0  0  0  0  0  0  0
   29.2440   48.6000   -6.1510 C   0  0  0  0  0  0  0  0  0  0  0  0
   28.3100   50.6070   -6.0710 C   0  0  0  0  0  0  0  0  0  0  0  0
   28.0770   48.7390   -7.0600 C   0  0  0  0  0  0  0  0  0  0  0  0
   29.9050   47.4270   -6.0980 C   0  0  0  0  0  0  0  0  0  0  0  0
   27.5310   49.9230   -7.0050 N   0  0  0  0  0  0  0  0  0  0  0  0
   31.0140   47.1900   -5.2760 N   0  0  0  0  0  0  0  0  0  0  0  0
   29.4200   46.4290   -6.9220 N   0  0  0  0  0  0  0  0  0  0  0  0
   27.6540   47.7090   -7.8520 N   0  0  0  0  0  0  0  0  0  0  0  0
   30.9000   47.1560   -3.7950 C   0  0  1  0  0  0  0  0  0  0  0  0
   32.2210   46.5290   -5.8280 C   0  0  0  0  0  0  0  0  0  0  0  0
   28.3410   46.6230   -7.7410 C   0  0  0  0  0  0  0  0  0  0  0  0
   29.6100   46.6630   -3.1470 C   0  0  0  0  0  0  0  0  0  0  0  0
   31.8720   46.1480   -3.2180 C   0  0  2  0  0  0  0  0  0  0  0  0
   33.4700   46.8710   -5.0060 C   0  0  0  0  0  0  0  0  0  0  0  0
   31.4250   46.1050   -1.7750 C   0  0  0  0  0  0  0  0  0  0  0  0
   29.9870   46.1720   -1.8360 O   0  0  0  0  0  0  0  0  0  0  0  0
   33.3110   46.5330   -3.5140 C   0  0  0  0  0  0  0  0  0  0  0  0
  1  2  1  0
  2  3  2  0
  2  4  1  0
  4  5  2  0
  3  6  1  0
  5  7  1  0
  6  7  2  0
  7  8  1  0
  8  9  2  0
  8 10  1  0
 10 11  1  0
 11 12  1  0
 11 13  2  0
 12 14  1  0
 12 15  2  0
 13 16  1  0
 14 16  2  0
 15 17  1  0
 15 18  1  0
 14 19  1  0
 17 20  1  0
 17 21  1  0
 18 22  1  0
 19 22  2  0
 20 23  1  6
 20 24  1  0
 21 25  1  0
 24 26  1  1
 23 27  1  0
 26 27  1  0
 24 28  1  0
 25 28  1  0
M  END
