mac-x0212-mac-x0567
     RDKit          3D

 18 19  0  0  0  0  0  0  0  0999 V2000
   30.7260   53.8610   -6.4400 C   0  0  0  0  0  0  0  0  0  0  0  0
   29.3200   54.1960   -5.4030 S   0  0  0  0  0  0  0  0  0  0  0  0
   28.6330   55.3380   -5.9630 O   0  0  0  0  0  0  0  0  0  0  0  0
   29.7610   54.1740   -4.0260 O   0  0  0  0  0  0  0  0  0  0  0  0
   28.3480   52.8470   -5.7430 N   0  0  0  0  0  0  0  0  0  0  0  0
   28.9120   51.5730   -5.4310 C   0  0  0  0  0  0  0  0  0  0  0  0
   29.0160   50.5590   -6.4120 C   0  0  0  0  0  0  0  0  0  0  0  0
   29.3950   51.2360   -4.1570 C   0  0  0  0  0  0  0  0  0  0  0  0
   29.5940   49.2640   -6.0970 C   0  0  0  0  0  0  0  0  0  0  0  0
   29.9570   49.9620   -3.8680 C   0  0  0  0  0  0  0  0  0  0  0  0
   28.6300   50.6110   -7.7050 N   0  0  0  0  0  0  0  0  0  0  0  0
   30.0940   48.9030   -4.8140 C   0  0  0  0  0  0  0  0  0  0  0  0
   29.5270   48.5500   -7.2870 C   0  0  0  0  0  0  0  0  0  0  0  0
   28.9460   49.4010   -8.1950 N   0  0  0  0  0  0  0  0  0  0  0  0
   30.6970   47.6120   -4.4210 C   0  0  0  0  0  0  0  0  0  0  0  0
   29.8890   47.3080   -7.6700 N   0  0  0  0  0  0  0  0  0  0  0  0
   31.0020   46.6740   -5.1320 O   0  0  0  0  0  0  0  0  0  0  0  0
   30.9080   47.5460   -3.0900 O   0  0  0  0  0  0  0  0  0  0  0  0
  1  2  1  0
  2  3  2  0
  2  4  2  0
  2  5  1  0
  5  6  1  0
  6  7  1  0
  6  8  2  0
  7  9  1  0
  8 10  1  0
  7 11  2  0
  9 12  1  0
 10 12  2  0
  9 13  2  0
 11 14  1  0
 13 14  1  0
 12 15  1  0
 13 16  1  0
 15 17  2  0
 15 18  1  0
M  END
