mac-x0190-mac-x0379
     RDKit          3D

 15 16  0  0  0  0  0  0  0  0999 V2000
   28.7980   56.5550   -5.3060 O   0  0  0  0  0  0  0  0  0  0  0  0
   29.6930   55.9300   -4.3790 C   0  0  0  0  0  0  0  0  0  0  0  0
   29.5880   54.4530   -4.5500 C   0  0  0  0  0  0  0  0  0  0  0  0
   30.0840   53.5440   -3.6270 N   0  0  0  0  0  0  0  0  0  0  0  0
   29.0360   53.8200   -5.5550 N   0  0  0  0  0  0  0  0  0  0  0  0
   29.8350   52.2560   -4.0840 C   0  0  0  0  0  0  0  0  0  0  0  0
   29.1840   52.4820   -5.2770 C   0  0  0  0  0  0  0  0  0  0  0  0
   30.1110   50.9460   -3.5850 C   0  0  0  0  0  0  0  0  0  0  0  0
   28.7660   51.4030   -6.0400 C   0  0  0  0  0  0  0  0  0  0  0  0
   28.0660   51.6310   -7.3120 C   0  0  0  0  0  0  0  0  0  0  0  0
   29.6860   49.8320   -4.3890 C   0  0  0  0  0  0  0  0  0  0  0  0
   29.0200   50.0860   -5.5940 C   0  0  0  0  0  0  0  0  0  0  0  0
   29.9100   48.3520   -4.0470 C   0  0  0  0  0  0  0  0  0  0  0  0
   30.5180   47.9400   -3.0670 O   0  0  0  0  0  0  0  0  0  0  0  0
   29.3810   47.4900   -4.9560 O   0  0  0  0  0  0  0  0  0  0  0  0
  1  2  1  0
  2  3  1  0
  3  4  1  0
  3  5  2  0
  4  6  1  0
  5  7  1  0
  6  7  2  0
  6  8  1  0
  7  9  1  0
  9 10  1  0
  8 11  2  0
  9 12  2  0
 11 12  1  0
 11 13  1  0
 13 14  2  0
 13 15  1  0
M  END
