mac-x0417-mac-x0123
     RDKit          3D

 29 33  0  0  0  0  0  0  0  0999 V2000
   31.8130   45.2460   -6.1090 O   0  0  0  0  0  0  0  0  0  0  0  0
   33.0900   45.3950   -5.6930 C   0  0  0  0  0  0  0  0  0  0  0  0
   34.0000   45.0450   -6.4230 O   0  0  0  0  0  0  0  0  0  0  0  0
   33.2100   46.0240   -4.3190 C   0  0  1  0  0  0  0  0  0  0  0  0
   31.8660   46.3620   -3.6320 C   0  0  0  0  0  0  0  0  0  0  0  0
   34.3280   45.4180   -3.5050 C   0  0  0  0  0  0  0  0  0  0  0  0
   31.6850   47.8790   -3.3650 C   0  0  0  0  0  0  0  0  0  0  0  0
   34.4070   44.1330   -3.1030 N   0  0  0  0  0  0  0  0  0  0  0  0
   35.4490   46.1540   -3.0740 C   0  0  0  0  0  0  0  0  0  0  0  0
   30.2100   48.3110   -3.3340 C   0  0  0  0  0  0  0  0  0  0  0  0
   35.6060   44.0340   -2.3990 O   0  0  0  0  0  0  0  0  0  0  0  0
   36.2260   45.2450   -2.3860 C   0  0  0  0  0  0  0  0  0  0  0  0
   35.8840   47.4770   -3.1950 C   0  0  0  0  0  0  0  0  0  0  0  0
   37.4440   45.5670   -1.7920 C   0  0  0  0  0  0  0  0  0  0  0  0
   37.0990   47.8390   -2.6120 C   0  0  0  0  0  0  0  0  0  0  0  0
   29.9830   49.7110   -3.8190 C   0  0  0  0  0  0  0  0  0  0  0  0
   37.8670   46.8960   -1.9210 C   0  0  0  0  0  0  0  0  0  0  0  0
   30.2810   50.8170   -3.0620 N   0  0  0  0  0  0  0  0  0  0  0  0
   29.4690   49.9720   -5.0240 N   0  0  0  0  0  0  0  0  0  0  0  0
   29.4320   51.3350   -5.0430 N   0  0  0  0  0  0  0  0  0  0  0  0
   29.9340   51.8380   -3.8300 C   0  0  0  0  0  0  0  0  0  0  0  0
   28.9720   52.1860   -6.0800 C   0  0  0  0  0  0  0  0  0  0  0  0
   30.0070   53.1900   -3.5830 N   0  0  0  0  0  0  0  0  0  0  0  0
   28.4900   51.6120   -7.2500 N   0  0  0  0  0  0  0  0  0  0  0  0
   29.5800   53.9500   -4.5460 C   0  0  0  0  0  0  0  0  0  0  0  0
   29.0350   53.5070   -5.8590 C   0  0  0  0  0  0  0  0  0  0  0  0
   28.6680   54.7090   -6.6510 C   0  0  0  0  0  0  0  0  0  0  0  0
   29.5670   55.4490   -4.4810 C   0  0  0  0  0  0  0  0  0  0  0  0
   29.4550   55.8280   -5.9620 C   0  0  0  0  0  0  0  0  0  0  0  0
  1  2  1  0
  2  3  2  0
  2  4  1  0
  4  5  1  1
  4  6  1  0
  5  7  1  0
  6  8  2  0
  6  9  1  0
  7 10  1  0
  8 11  1  0
  9 12  2  0
 11 12  1  0
  9 13  1  0
 12 14  1  0
 13 15  2  0
 10 16  1  0
 14 17  2  0
 15 17  1  0
 16 18  1  0
 16 19  2  0
 19 20  1  0
 18 21  2  0
 20 21  1  0
 20 22  1  0
 21 23  1  0
 22 24  1  0
 23 25  2  0
 22 26  2  0
 25 26  1  0
 26 27  1  0
 25 28  1  0
 27 29  1  0
 28 29  1  0
M  END
