mac-x0348-mac-x0193
     RDKit          3D

 25 27  0  0  0  0  0  0  0  0999 V2000
   27.2270   44.6180   -0.8920 C   0  0  0  0  0  0  0  0  0  0  0  0
   28.4150   45.2070   -1.4810 N   0  0  0  0  0  0  0  0  0  0  0  0
   29.0910   44.6590   -2.5270 C   0  0  0  0  0  0  0  0  0  0  0  0
   29.0210   46.3760   -1.0790 C   0  0  0  0  0  0  0  0  0  0  0  0
   30.1750   45.4560   -2.8460 C   0  0  0  0  0  0  0  0  0  0  0  0
   30.1350   46.5740   -1.9200 C   0  0  0  0  0  0  0  0  0  0  0  0
   28.6770   47.2670   -0.0470 C   0  0  0  0  0  0  0  0  0  0  0  0
   31.1300   45.0880   -3.9740 C   0  0  0  0  0  0  0  0  0  0  0  0
   30.9200   47.7330   -1.6990 C   0  0  0  0  0  0  0  0  0  0  0  0
   29.4790   48.3970    0.1420 C   0  0  0  0  0  0  0  0  0  0  0  0
   32.5330   45.7520   -4.0460 C   0  0  2  0  0  0  0  0  0  0  0  0
   30.5840   48.6300   -0.6710 C   0  0  0  0  0  0  0  0  0  0  0  0
   32.7870   46.0180   -5.5540 C   0  0  0  0  0  0  0  0  0  0  0  0
   33.7020   45.2680   -3.1590 N   0  0  0  0  0  0  0  0  0  0  0  0
   31.9500   45.7630   -6.4280 O   0  0  0  0  0  0  0  0  0  0  0  0
   33.9730   46.5680   -5.8780 O   0  0  0  0  0  0  0  0  0  0  0  0
   34.5120   44.1160   -3.1170 C   0  0  0  0  0  0  0  0  0  0  0  0
   34.0760   42.9790   -3.2760 O   0  0  0  0  0  0  0  0  0  0  0  0
   35.8540   44.4280   -2.8510 N   0  0  0  0  0  0  0  0  0  0  0  0
   36.9270   43.6390   -2.1570 C   0  0  0  0  0  0  0  0  0  0  0  0
   37.2740   42.3120   -2.8380 C   0  0  0  0  0  0  0  0  0  0  0  0
   36.7440   43.4330   -0.6350 C   0  0  0  0  0  0  0  0  0  0  0  0
   38.4870   41.6180   -2.1860 C   0  0  0  0  0  0  0  0  0  0  0  0
   37.9030   42.6750    0.0490 C   0  0  0  0  0  0  0  0  0  0  0  0
   39.0220   42.3090   -0.9240 C   0  0  0  0  0  0  0  0  0  0  0  0
  1  2  1  0
  2  3  1  0
  2  4  1  0
  3  5  2  0
  4  6  2  0
  5  6  1  0
  4  7  1  0
  5  8  1  0
  6  9  1  0
  7 10  2  0
 11  8  1  6
  9 12  2  0
 10 12  1  0
 11 13  1  0
 11 14  1  0
 13 15  2  0
 13 16  1  0
 14 17  1  0
 17 18  2  0
 17 19  1  0
 19 20  1  0
 20 21  1  0
 20 22  1  0
 21 23  1  0
 22 24  1  0
 23 25  1  0
 24 25  1  0
M  END
