mac-x0338-mac-x0348
     RDKit          3D

 26 28  0  0  0  0  0  0  0  0999 V2000
   28.3740   51.9880   -7.6510 N   0  0  0  0  0  0  0  0  0  0  0  0
   28.7490   52.5880   -6.4780 C   0  0  0  0  0  0  0  0  0  0  0  0
   28.6230   53.7920   -6.3000 O   0  0  0  0  0  0  0  0  0  0  0  0
   29.3250   51.7040   -5.4350 C   0  0  0  0  0  0  0  0  0  0  0  0
   29.7420   50.4710   -5.8180 N   0  0  0  0  0  0  0  0  0  0  0  0
   29.4250   52.1510   -4.1280 C   0  0  0  0  0  0  0  0  0  0  0  0
   30.2700   49.7040   -4.8410 C   0  0  0  0  0  0  0  0  0  0  0  0
   29.9470   51.3880   -3.1390 N   0  0  0  0  0  0  0  0  0  0  0  0
   30.7640   48.3410   -5.2140 C   0  0  0  0  0  0  0  0  0  0  0  0
   30.3650   50.1620   -3.5260 C   0  0  0  0  0  0  0  0  0  0  0  0
   29.7340   47.2110   -5.2700 C   0  0  0  0  0  0  0  0  0  0  0  0
   30.1990   45.9610   -4.4980 C   0  0  1  0  0  0  0  0  0  0  0  0
   31.7170   45.7340   -4.5250 C   0  0  0  0  0  0  0  0  0  0  0  0
   29.5820   45.9150   -3.1160 C   0  0  0  0  0  0  0  0  0  0  0  0
   32.3360   46.0060   -5.8780 C   0  0  0  0  0  0  0  0  0  0  0  0
   28.6800   44.9500   -2.7220 C   0  0  0  0  0  0  0  0  0  0  0  0
   29.7610   46.7900   -1.9910 C   0  0  0  0  0  0  0  0  0  0  0  0
   31.7420   45.8560   -6.9390 O   0  0  0  0  0  0  0  0  0  0  0  0
   33.6130   46.4380   -5.8360 O   0  0  0  0  0  0  0  0  0  0  0  0
   28.3060   45.1960   -1.4360 N   0  0  0  0  0  0  0  0  0  0  0  0
   28.9490   46.3190   -0.9570 C   0  0  0  0  0  0  0  0  0  0  0  0
   30.5370   47.9450   -1.7490 C   0  0  0  0  0  0  0  0  0  0  0  0
   27.3670   44.3860   -0.6970 C   0  0  0  0  0  0  0  0  0  0  0  0
   30.4780   48.5870   -0.5090 C   0  0  0  0  0  0  0  0  0  0  0  0
   28.8800   46.9530    0.2950 C   0  0  0  0  0  0  0  0  0  0  0  0
   29.6580   48.0960    0.4990 C   0  0  0  0  0  0  0  0  0  0  0  0
  1  2  1  0
  2  3  2  0
  2  4  1  0
  4  5  2  0
  4  6  1  0
  5  7  1  0
  6  8  2  0
  7  9  1  0
  7 10  2  0
  8 10  1  0
  9 11  1  0
 12 11  1  1
 12 13  1  0
 12 14  1  0
 13 15  1  0
 14 16  2  0
 14 17  1  0
 15 18  2  0
 15 19  1  0
 16 20  1  0
 17 21  2  0
 20 21  1  0
 17 22  1  0
 20 23  1  0
 22 24  2  0
 21 25  1  0
 24 26  1  0
 25 26  2  0
M  END
