mac-x0231-mac-x0333
     RDKit          3D

 25 28  0  0  0  0  0  0  0  0999 V2000
   34.4060   45.1250   -6.3760 O   0  0  0  0  0  0  0  0  0  0  0  0
   33.1390   44.7350   -6.1530 C   0  0  0  0  0  0  0  0  0  0  0  0
   32.2680   45.0540   -6.9550 O   0  0  0  0  0  0  0  0  0  0  0  0
   32.9050   43.9280   -4.8940 C   0  0  0  0  0  0  0  0  0  0  0  0
   31.6440   44.3840   -4.1980 C   0  0  0  0  0  0  0  0  0  0  0  0
   31.6300   45.7610   -3.6640 C   0  0  0  0  0  0  0  0  0  0  0  0
   30.6190   43.5900   -4.1900 N   0  0  0  0  0  0  0  0  0  0  0  0
   30.3940   46.3350   -3.3780 C   0  0  0  0  0  0  0  0  0  0  0  0
   29.4890   44.0970   -3.6510 N   0  0  0  0  0  0  0  0  0  0  0  0
   32.8210   46.4760   -3.4810 C   0  0  0  0  0  0  0  0  0  0  0  0
   29.2000   45.4480   -3.5360 C   0  0  0  0  0  0  0  0  0  0  0  0
   30.3910   47.6950   -2.9770 C   0  0  0  0  0  0  0  0  0  0  0  0
   32.8000   47.7840   -3.0330 C   0  0  0  0  0  0  0  0  0  0  0  0
   28.0380   45.8200   -3.5100 O   0  0  0  0  0  0  0  0  0  0  0  0
   29.2750   48.4440   -2.7610 O   0  0  0  0  0  0  0  0  0  0  0  0
   31.5860   48.3910   -2.7960 C   0  0  0  0  0  0  0  0  0  0  0  0
   29.2720   49.6200   -3.5600 C   0  0  0  0  0  0  0  0  0  0  0  0
   29.5950   50.8880   -3.0450 C   0  0  0  0  0  0  0  0  0  0  0  0
   28.9300   49.5080   -4.9380 C   0  0  0  0  0  0  0  0  0  0  0  0
   29.5580   51.9810   -3.9010 C   0  0  0  0  0  0  0  0  0  0  0  0
   28.9020   50.6410   -5.7810 C   0  0  0  0  0  0  0  0  0  0  0  0
   29.2210   51.8700   -5.2270 C   0  0  0  0  0  0  0  0  0  0  0  0
   29.8400   53.2690   -3.5490 O   0  0  0  0  0  0  0  0  0  0  0  0
   29.2440   53.0710   -5.8760 O   0  0  0  0  0  0  0  0  0  0  0  0
   29.6540   53.9510   -4.8080 C   0  0  0  0  0  0  0  0  0  0  0  0
  1  2  1  0
  2  3  2  0
  2  4  1  0
  4  5  1  0
  5  6  1  0
  5  7  2  0
  6  8  2  0
  7  9  1  0
  6 10  1  0
  8 11  1  0
  9 11  1  0
  8 12  1  0
 10 13  2  0
 11 14  2  0
 12 15  1  0
 12 16  2  0
 13 16  1  0
 15 17  1  0
 17 18  2  0
 17 19  1  0
 18 20  1  0
 19 21  2  0
 20 22  2  0
 21 22  1  0
 20 23  1  0
 22 24  1  0
 23 25  1  0
 24 25  1  0
M  END
