mac-x0358-mac-x0365
     RDKit          3D

 22 23  0  0  0  0  0  0  0  0999 V2000
   32.5200   45.8550   -7.2840 O   0  0  0  0  0  0  0  0  0  0  0  0
   33.3140   45.6000   -6.2160 C   0  0  0  0  0  0  0  0  0  0  0  0
   33.9040   44.5330   -6.1540 O   0  0  0  0  0  0  0  0  0  0  0  0
   33.3280   46.7570   -5.2420 C   0  0  0  0  0  0  0  0  0  0  0  0
   32.7700   46.4260   -3.8710 C   0  0  0  0  0  0  0  0  0  0  0  0
   33.0630   45.1910   -3.2640 C   0  0  0  0  0  0  0  0  0  0  0  0
   31.9540   47.3390   -3.1700 C   0  0  0  0  0  0  0  0  0  0  0  0
   33.8550   44.2970   -3.9330 O   0  0  0  0  0  0  0  0  0  0  0  0
   31.6090   48.5980   -3.6930 N   0  0  0  0  0  0  0  0  0  0  0  0
   32.5650   44.8590   -2.0040 C   0  0  0  0  0  0  0  0  0  0  0  0
   31.4590   46.9960   -1.9030 C   0  0  0  0  0  0  0  0  0  0  0  0
   30.3870   49.0120   -3.6540 C   0  0  0  0  0  0  0  0  0  0  0  0
   31.7610   45.7660   -1.3220 C   0  0  0  0  0  0  0  0  0  0  0  0
   29.4670   48.2040   -3.1010 O   0  0  0  0  0  0  0  0  0  0  0  0
   29.7580   50.2560   -4.1180 C   0  0  0  0  0  0  0  0  0  0  0  0
   29.6570   51.3590   -3.2670 C   0  0  0  0  0  0  0  0  0  0  0  0
   29.2610   50.3200   -5.4290 C   0  0  0  0  0  0  0  0  0  0  0  0
   29.0560   52.5180   -3.7400 C   0  0  0  0  0  0  0  0  0  0  0  0
   28.6580   51.4930   -5.8920 C   0  0  0  0  0  0  0  0  0  0  0  0
   28.9490   53.5900   -2.9390 F   0  0  0  0  0  0  0  0  0  0  0  0
   28.5610   52.5880   -5.0410 C   0  0  0  0  0  0  0  0  0  0  0  0
   27.9700   53.7270   -5.5090 O   0  0  0  0  0  0  0  0  0  0  0  0
  1  2  1  0
  2  3  2  0
  2  4  1  0
  4  5  1  0
  5  6  2  0
  5  7  1  0
  6  8  1  0
  7  9  1  0
  6 10  1  0
  7 11  2  0
  9 12  2  3
 10 13  2  0
 11 13  1  0
 12 14  1  0
 12 15  1  0
 15 16  2  0
 15 17  1  0
 16 18  1  0
 17 19  2  0
 18 20  1  0
 18 21  2  0
 19 21  1  0
 21 22  1  0
M  END
