mac-x0213-mac-x0182
     RDKit          3D

 23 26  0  0  0  0  0  0  0  0999 V2000
   32.9050   46.2980   -5.5660 N   0  0  0  0  0  0  0  0  0  0  0  0
   31.8860   45.4590   -5.6680 C   0  0  0  0  0  0  0  0  0  0  0  0
   31.4830   44.9560   -6.7100 O   0  0  0  0  0  0  0  0  0  0  0  0
   33.9010   46.1080   -4.7590 C   0  0  0  0  0  0  0  0  0  0  0  0
   31.2530   45.2630   -4.3100 C   0  0  0  0  0  0  0  0  0  0  0  0
   34.4280   45.0670   -3.7360 C   0  0  0  0  0  0  0  0  0  0  0  0
   34.9640   47.5470   -4.8390 S   0  0  0  0  0  0  0  0  0  0  0  0
   33.9780   43.9620   -3.4700 O   0  0  0  0  0  0  0  0  0  0  0  0
   34.1040   48.5580   -4.1370 O   0  0  0  0  0  0  0  0  0  0  0  0
   31.1450   46.6570   -3.6560 C   0  0  0  0  0  0  0  0  0  0  0  0
   29.8400   44.6890   -4.3330 C   0  0  0  0  0  0  0  0  0  0  0  0
   35.9860   46.8730   -3.5710 C   0  0  0  0  0  0  0  0  0  0  0  0
   35.6400   45.6180   -3.0810 C   0  0  0  0  0  0  0  0  0  0  0  0
   30.0240   46.4220   -2.6980 C   0  0  0  0  0  0  0  0  0  0  0  0
   29.2850   45.2980   -3.0840 C   0  0  0  0  0  0  0  0  0  0  0  0
   37.0830   47.5600   -3.0900 C   0  0  0  0  0  0  0  0  0  0  0  0
   36.4030   45.0190   -2.0840 C   0  0  0  0  0  0  0  0  0  0  0  0
   29.6890   47.1500   -1.5720 C   0  0  0  0  0  0  0  0  0  0  0  0
   28.1980   44.8740   -2.3510 C   0  0  0  0  0  0  0  0  0  0  0  0
   37.8530   46.9790   -2.0970 C   0  0  0  0  0  0  0  0  0  0  0  0
   37.5190   45.7130   -1.5940 C   0  0  0  0  0  0  0  0  0  0  0  0
   28.5890   46.7280   -0.8240 C   0  0  0  0  0  0  0  0  0  0  0  0
   27.8510   45.5980   -1.2110 C   0  0  0  0  0  0  0  0  0  0  0  0
  1  2  1  0
  2  3  2  0
  1  4  2  3
  2  5  1  0
  4  6  1  0
  7  4  1  1
  6  8  2  0
  7  9  2  0
  5 10  1  0
  5 11  1  0
  7 12  1  0
  6 13  1  0
 12 13  2  0
 10 14  1  0
 11 15  1  0
 14 15  2  0
 12 16  1  0
 13 17  1  0
 14 18  1  0
 15 19  1  0
 16 20  2  0
 17 21  2  0
 20 21  1  0
 18 22  2  0
 19 23  2  0
 22 23  1  0
M  END
