mac-x0282-mac-x0433
     RDKit          3D

 18 20  0  0  0  0  0  0  0  0999 V2000
   27.4260   50.6600   -6.1280 C   0  0  0  0  0  0  0  0  0  0  0  0
   27.9950   51.5410   -5.0300 C   0  0  0  0  0  0  0  0  0  0  0  0
   28.8680   52.5660   -5.3400 C   0  0  0  0  0  0  0  0  0  0  0  0
   28.3360   49.5680   -6.4800 N   0  0  0  0  0  0  0  0  0  0  0  0
   29.4820   49.8430   -7.2130 C   0  0  0  0  0  0  0  0  0  0  0  0
   28.2470   48.3150   -5.8660 C   0  0  0  0  0  0  0  0  0  0  0  0
   27.6130   51.2850   -3.7530 N   0  0  0  0  0  0  0  0  0  0  0  0
   30.5840   48.8360   -7.3030 C   0  0  0  0  0  0  0  0  0  0  0  0
   29.8070   50.9190   -7.8980 N   0  0  0  0  0  0  0  0  0  0  0  0
   29.2210   47.3880   -5.9370 C   0  0  0  0  0  0  0  0  0  0  0  0
   28.1200   52.0690   -2.7980 C   0  0  0  0  0  0  0  0  0  0  0  0
   29.3360   53.3210   -4.2810 C   0  0  0  0  0  0  0  0  0  0  0  0
   30.2860   54.4530   -4.5240 C   0  0  0  0  0  0  0  0  0  0  0  0
   27.7370   51.8170   -1.4970 N   0  0  0  0  0  0  0  0  0  0  0  0
   31.0680   50.6530   -8.4160 C   0  0  0  0  0  0  0  0  0  0  0  0
   31.5810   49.4540   -8.1030 C   0  0  0  0  0  0  0  0  0  0  0  0
   30.4420   47.6600   -6.6820 C   0  0  0  0  0  0  0  0  0  0  0  0
   28.9670   53.0800   -3.0050 N   0  0  0  0  0  0  0  0  0  0  0  0
  1  2  1  0
  2  3  2  0
  1  4  1  0
  4  5  1  0
  4  6  1  0
  2  7  1  0
  5  8  1  0
  5  9  2  0
  6 10  2  0
  7 11  2  0
  3 12  1  0
 12 13  1  0
 11 14  1  0
  9 15  1  0
  8 16  1  0
 15 16  2  0
  8 17  2  0
 10 17  1  0
 11 18  1  0
 12 18  2  0
M  END
