mac-x0347-mac-x0415
     RDKit          3D

 27 30  0  0  0  0  0  0  0  0999 V2000
   30.7200   45.1320   -6.3710 O   0  0  0  0  0  0  0  0  0  0  0  0
   32.0800   45.6810   -5.8320 S   0  0  0  0  0  0  0  0  0  0  0  0
   32.3170   46.5330   -6.9680 O   0  0  0  0  0  0  0  0  0  0  0  0
   33.4660   45.0440   -5.8660 O   0  0  0  0  0  0  0  0  0  0  0  0
   31.7710   45.0270   -4.3370 C   0  0  0  0  0  0  0  0  0  0  0  0
   31.9770   47.3130   -4.9500 C   0  0  0  0  0  0  0  0  0  0  0  0
   30.9290   48.1350   -5.2480 C   0  0  0  0  0  0  0  0  0  0  0  0
   32.9140   47.6460   -4.0620 C   0  0  0  0  0  0  0  0  0  0  0  0
   30.3270   45.1910   -3.9450 C   0  0  0  0  0  0  0  0  0  0  0  0
   30.8580   49.3410   -4.5970 C   0  0  0  0  0  0  0  0  0  0  0  0
   32.8400   48.8250   -3.4280 N   0  0  0  0  0  0  0  0  0  0  0  0
   29.1600   44.4450   -4.4540 C   0  0  0  0  0  0  0  0  0  0  0  0
   29.8330   46.0440   -3.0580 C   0  0  0  0  0  0  0  0  0  0  0  0
   31.8270   49.6720   -3.6840 C   0  0  0  0  0  0  0  0  0  0  0  0
   29.7600   50.2520   -4.8830 C   0  0  0  0  0  0  0  0  0  0  0  0
   28.0610   44.8760   -3.8650 N   0  0  0  0  0  0  0  0  0  0  0  0
   28.3760   45.8950   -2.9550 C   0  0  2  0  0  0  0  0  0  0  0  0
   30.5110   47.0600   -2.2150 C   0  0  0  0  0  0  0  0  0  0  0  0
   28.5130   49.7970   -5.2950 C   0  0  0  0  0  0  0  0  0  0  0  0
   29.9180   51.6180   -4.7560 C   0  0  0  0  0  0  0  0  0  0  0  0
   27.7770   47.2020   -2.9200 C   0  0  0  0  0  0  0  0  0  0  0  0
   29.7920   48.1630   -1.9160 C   0  0  0  0  0  0  0  0  0  0  0  0
   30.5400   49.5360   -0.8350 Br  0  0  0  0  0  0  0  0  0  0  0  0
   27.4500   50.6030   -5.5790 C   0  0  0  0  0  0  0  0  0  0  0  0
   28.8610   52.4440   -5.0380 C   0  0  0  0  0  0  0  0  0  0  0  0
   28.4380   48.2700   -2.4340 C   0  0  0  0  0  0  0  0  0  0  0  0
   27.6380   51.9590   -5.4460 C   0  0  0  0  0  0  0  0  0  0  0  0
  1  2  1  0
  2  3  2  0
  2  4  1  0
  2  5  1  0
  2  6  1  0
  6  7  2  0
  6  8  1  0
  5  9  1  0
  7 10  1  0
  8 11  2  0
  9 12  1  0
  9 13  2  0
 10 14  2  0
 11 14  1  0
 10 15  1  0
 12 16  2  0
 13 17  1  0
 16 17  1  0
 13 18  1  0
 15 19  2  0
 15 20  1  0
 17 21  1  6
 18 22  2  0
 22 23  1  0
 19 24  1  0
 20 25  2  0
 21 26  2  0
 22 26  1  0
 24 27  2  0
 25 27  1  0
M  END
