mac-x0346-mac-x0115
     RDKit          3D

 27 29  0  0  0  0  0  0  0  0999 V2000
   29.3360   54.6980   -5.6860 O   0  0  0  0  0  0  0  0  0  0  0  0
   29.6360   54.4770   -4.3250 N   0  0  0  0  0  0  0  0  0  0  0  0
   29.6790   53.1680   -3.8960 C   0  0  0  0  0  0  0  0  0  0  0  0
   30.2710   52.9050   -2.8480 O   0  0  0  0  0  0  0  0  0  0  0  0
   28.9790   52.0660   -4.7020 C   0  0  2  0  0  0  0  0  0  0  0  0
   29.7880   50.7510   -4.7020 C   0  0  1  0  0  0  0  0  0  0  0  0
   28.4730   52.3960   -6.1080 C   0  0  0  0  0  0  0  0  0  0  0  0
   29.7760   50.2720   -3.3370 O   0  0  0  0  0  0  0  0  0  0  0  0
   29.2770   49.6170   -5.7000 C   0  0  1  0  0  0  0  0  0  0  0  0
   27.6260   51.2630   -6.5980 C   0  0  0  0  0  0  0  0  0  0  0  0
   27.9890   49.9880   -6.3980 C   0  0  0  0  0  0  0  0  0  0  0  0
   30.2350   49.5440   -6.8190 N   0  0  0  0  0  0  0  0  0  0  0  0
   29.2920   48.1620   -5.1110 C   0  0  0  0  0  0  0  0  0  0  0  0
   30.4350   48.1220   -7.1620 C   0  0  1  0  0  0  0  0  0  0  0  0
   30.4250   47.3910   -5.8350 C   0  0  2  0  0  0  0  0  0  0  0  0
   30.2980   45.9060   -5.9760 N   0  0  0  0  0  0  0  0  0  0  0  0
   29.4330   47.5570   -8.1350 C   0  0  0  0  0  0  0  0  0  0  0  0
   31.1420   45.0870   -5.0720 C   0  0  0  0  0  0  0  0  0  0  0  0
   28.7400   48.2400   -8.8880 O   0  0  0  0  0  0  0  0  0  0  0  0
   29.9820   45.3640   -7.2320 C   0  0  0  0  0  0  0  0  0  0  0  0
   29.3590   46.1960   -8.1230 N   0  0  0  0  0  0  0  0  0  0  0  0
   30.3340   44.2770   -4.0560 C   0  0  0  0  0  0  0  0  0  0  0  0
   30.2880   43.8050   -7.7670 S   0  0  0  0  0  0  0  0  0  0  0  0
   29.8320   45.1850   -3.0800 O   0  0  0  0  0  0  0  0  0  0  0  0
   28.8610   44.6350   -2.1870 C   0  0  0  0  0  0  0  0  0  0  0  0
   27.9630   45.7890   -1.7560 C   0  0  0  0  0  0  0  0  0  0  0  0
   28.0390   43.5490   -2.8750 C   0  0  0  0  0  0  0  0  0  0  0  0
  1  2  1  0
  2  3  1  0
  3  4  2  0
  5  3  1  6
  5  6  1  0
  5  7  1  0
  6  8  1  1
  6  9  1  0
  7 10  1  0
  9 11  1  6
 10 11  2  0
  9 12  1  0
  9 13  1  0
 14 12  1  1
 15 13  1  1
 14 15  1  0
 15 16  1  0
 14 17  1  0
 16 18  1  0
 17 19  2  0
 16 20  1  0
 17 21  1  0
 20 21  1  0
 18 22  1  0
 20 23  2  0
 22 24  1  0
 24 25  1  0
 25 26  1  0
 25 27  1  0
M  END
