mac-x0301-mac-x0328
     RDKit          3D

 20 22  0  0  0  0  0  0  0  0999 V2000
   29.8350   46.7420   -3.5680 O   0  0  0  0  0  0  0  0  0  0  0  0
   30.6340   47.7640   -4.1370 S   0  0  0  0  0  0  0  0  0  0  0  0
   31.7620   47.6090   -3.4630 O   0  0  0  0  0  0  0  0  0  0  0  0
   31.6390   47.6640   -5.5920 O   0  0  0  0  0  0  0  0  0  0  0  0
   29.4020   48.3230   -5.1350 C   0  0  0  0  0  0  0  0  0  0  0  0
   30.5200   49.5340   -3.8530 C   0  0  0  0  0  0  0  0  0  0  0  0
   29.2260   48.1430   -6.4660 C   0  0  0  0  0  0  0  0  0  0  0  0
   28.4230   49.1240   -4.5360 C   0  0  0  0  0  0  0  0  0  0  0  0
   30.4280   50.3440   -4.9370 C   0  0  0  0  0  0  0  0  0  0  0  0
   30.4940   50.1090   -2.5940 C   0  0  0  0  0  0  0  0  0  0  0  0
   28.2050   48.6970   -7.1470 C   0  0  0  0  0  0  0  0  0  0  0  0
   27.3860   49.6930   -5.1840 C   0  0  0  0  0  0  0  0  0  0  0  0
   29.9610   47.4250   -7.4340 O   0  0  0  0  0  0  0  0  0  0  0  0
   30.3000   51.7100   -4.8870 C   0  0  0  0  0  0  0  0  0  0  0  0
   30.3670   51.4840   -2.5020 C   0  0  0  0  0  0  0  0  0  0  0  0
   27.2880   49.4710   -6.5110 C   0  0  0  0  0  0  0  0  0  0  0  0
   28.2840   48.3460   -8.5090 O   0  0  0  0  0  0  0  0  0  0  0  0
   29.1230   47.1900   -8.5470 C   0  0  0  0  0  0  0  0  0  0  0  0
   30.2670   52.2750   -3.6230 C   0  0  0  0  0  0  0  0  0  0  0  0
   30.1310   53.6590   -3.5740 O   0  0  0  0  0  0  0  0  0  0  0  0
  1  2  1  0
  2  3  2  0
  2  4  1  0
  2  5  1  0
  2  6  1  0
  5  7  1  0
  5  8  2  0
  6  9  2  0
  6 10  1  0
  7 11  2  0
  8 12  1  0
  7 13  1  0
  9 14  1  0
 10 15  2  0
 11 16  1  0
 12 16  2  0
 11 17  1  0
 13 18  1  0
 17 18  1  0
 14 19  2  0
 15 19  1  0
 19 20  1  0
M  END
