mac-x0385-mac-x0271
     RDKit          3D

 21 23  0  0  0  0  0  0  0  0999 V2000
   28.2200   50.4290   -3.0160 C   0  0  0  0  0  0  0  0  0  0  0  0
   28.3310   49.3860   -4.0880 C   0  0  0  0  0  0  0  0  0  0  0  0
   28.3240   48.0500   -3.7620 C   0  0  0  0  0  0  0  0  0  0  0  0
   28.4510   49.6700   -5.4480 C   0  0  0  0  0  0  0  0  0  0  0  0
   28.4870   51.0280   -5.8040 N   0  0  0  0  0  0  0  0  0  0  0  0
   28.5490   48.7110   -6.3770 N   0  0  0  0  0  0  0  0  0  0  0  0
   28.4230   47.0640   -4.6620 N   0  0  0  0  0  0  0  0  0  0  0  0
   28.5320   47.4420   -5.9480 C   0  0  0  0  0  0  0  0  0  0  0  0
   29.3320   51.8350   -5.0460 C   0  0  0  0  0  0  0  0  0  0  0  0
   28.6450   46.3740   -6.9820 C   0  0  0  0  0  0  0  0  0  0  0  0
   29.2920   53.2390   -5.0080 C   0  0  0  0  0  0  0  0  0  0  0  0
   30.2760   51.1560   -4.2660 C   0  0  0  0  0  0  0  0  0  0  0  0
   31.1620   51.8200   -3.4540 C   0  0  0  0  0  0  0  0  0  0  0  0
   30.2110   53.8810   -4.1700 C   0  0  0  0  0  0  0  0  0  0  0  0
   28.3700   54.0820   -5.7700 C   0  0  0  0  0  0  0  0  0  0  0  0
   32.0660   51.1340   -2.7000 O   0  0  0  0  0  0  0  0  0  0  0  0
   31.1430   53.1970   -3.3920 C   0  0  0  0  0  0  0  0  0  0  0  0
   28.3390   55.4000   -5.5540 C   0  0  0  0  0  0  0  0  0  0  0  0
   30.2410   55.2830   -4.0640 O   0  0  0  0  0  0  0  0  0  0  0  0
   29.2080   56.0500   -4.5630 C   0  0  0  0  0  0  0  0  0  0  0  0
   29.0070   57.2060   -4.2120 O   0  0  0  0  0  0  0  0  0  0  0  0
  1  2  1  0
  2  3  2  0
  2  4  1  0
  4  5  1  0
  4  6  2  0
  3  7  1  0
  6  8  1  0
  7  8  2  0
  5  9  1  0
  8 10  1  0
  9 11  1  0
  9 12  2  0
 12 13  1  0
 11 14  2  0
 11 15  1  0
 13 16  1  0
 13 17  2  0
 14 17  1  0
 15 18  2  0
 14 19  1  0
 18 20  1  0
 19 20  1  0
 20 21  2  0
M  END
