mac-x0212-mac-x0224
     RDKit          3D

 16 16  0  0  0  0  0  0  0  0999 V2000
   30.7320   53.7960   -6.3840 C   0  0  0  0  0  0  0  0  0  0  0  0
   29.2390   54.1480   -5.4770 S   0  0  0  0  0  0  0  0  0  0  0  0
   28.5220   55.2010   -6.1590 O   0  0  0  0  0  0  0  0  0  0  0  0
   29.6030   54.2730   -4.0830 O   0  0  0  0  0  0  0  0  0  0  0  0
   28.3930   52.6980   -5.5990 N   0  0  0  0  0  0  0  0  0  0  0  0
   29.0500   51.4690   -5.3110 C   0  0  0  0  0  0  0  0  0  0  0  0
   29.4080   50.5860   -6.3260 C   0  0  0  0  0  0  0  0  0  0  0  0
   29.3380   51.1520   -3.9840 C   0  0  0  0  0  0  0  0  0  0  0  0
   30.0570   49.3850   -6.0190 C   0  0  0  0  0  0  0  0  0  0  0  0
   29.9850   49.9520   -3.6740 C   0  0  0  0  0  0  0  0  0  0  0  0
   30.3550   49.0510   -4.6870 C   0  0  0  0  0  0  0  0  0  0  0  0
   31.0600   47.7580   -4.3250 C   0  0  2  0  0  0  0  0  0  0  0  0
   30.6500   46.5360   -5.1670 C   0  0  0  0  0  0  0  0  0  0  0  0
   30.8270   47.4460   -2.9370 O   0  0  0  0  0  0  0  0  0  0  0  0
   30.3950   46.5290   -6.3620 O   0  0  0  0  0  0  0  0  0  0  0  0
   30.6000   45.4110   -4.4010 O   0  0  0  0  0  0  0  0  0  0  0  0
  1  2  1  0
  2  3  2  0
  2  4  2  0
  2  5  1  0
  5  6  1  0
  6  7  2  0
  6  8  1  0
  7  9  1  0
  8 10  2  0
  9 11  2  0
 10 11  1  0
 11 12  1  0
 12 13  1  0
 12 14  1  1
 13 15  2  0
 13 16  1  0
M  END
