mac-x0224-mac-x0371
     RDKit          3D

 23 24  0  0  0  0  0  0  0  0999 V2000
   28.1620   52.7350   -5.5710 C   0  0  0  0  0  0  0  0  0  0  0  0
   27.6860   51.6210   -4.2220 S   0  0  0  0  0  0  0  0  0  0  0  0
   28.7500   50.2260   -4.5510 C   0  0  0  0  0  0  0  0  0  0  0  0
   28.7670   49.5750   -5.7860 C   0  0  0  0  0  0  0  0  0  0  0  0
   29.5910   49.7760   -3.5280 C   0  0  0  0  0  0  0  0  0  0  0  0
   29.6180   48.4820   -6.0060 C   0  0  0  0  0  0  0  0  0  0  0  0
   30.4430   48.6870   -3.7370 C   0  0  0  0  0  0  0  0  0  0  0  0
   29.5630   47.8650   -7.3500 C   0  0  0  0  0  0  0  0  0  0  0  0
   30.4620   48.0350   -4.9750 C   0  0  0  0  0  0  0  0  0  0  0  0
   31.3010   46.9630   -5.1820 O   0  0  0  0  0  0  0  0  0  0  0  0
   30.2690   48.1660   -8.2950 O   0  0  0  0  0  0  0  0  0  0  0  0
   28.6230   46.9100   -7.4480 O   0  0  0  0  0  0  0  0  0  0  0  0
   31.1400   45.8770   -4.3420 C   0  0  0  0  0  0  0  0  0  0  0  0
   32.2860   45.1830   -3.8950 C   0  0  0  0  0  0  0  0  0  0  0  0
   29.8530   45.4860   -3.9490 C   0  0  0  0  0  0  0  0  0  0  0  0
   33.6740   45.6240   -4.3270 C   0  0  0  0  0  0  0  0  0  0  0  0
   29.6810   44.3960   -3.1050 C   0  0  0  0  0  0  0  0  0  0  0  0
   32.0840   44.0820   -3.0380 C   0  0  0  0  0  0  0  0  0  0  0  0
   33.3970   43.1430   -2.4130 Cl  0  0  0  0  0  0  0  0  0  0  0  0
   34.1020   45.1480   -5.7000 C   0  0  0  0  0  0  0  0  0  0  0  0
   30.7950   43.6950   -2.6500 C   0  0  0  0  0  0  0  0  0  0  0  0
   33.5340   43.9710   -6.0420 O   0  0  0  0  0  0  0  0  0  0  0  0
   34.8720   45.6930   -6.4770 O   0  0  0  0  0  0  0  0  0  0  0  0
  1  2  1  0
  2  3  1  0
  3  4  2  0
  3  5  1  0
  4  6  1  0
  5  7  2  0
  6  8  1  0
  6  9  2  0
  7  9  1  0
  9 10  1  0
  8 11  2  0
  8 12  1  0
 10 13  1  0
 13 14  2  0
 13 15  1  0
 14 16  1  0
 15 17  2  0
 14 18  1  0
 18 19  1  0
 16 20  1  0
 17 21  1  0
 18 21  2  0
 20 22  1  0
 20 23  2  0
M  END
