mac-x0572-mac-x0333
     RDKit          3D

 14 15  0  0  0  0  0  0  0  0999 V2000
   28.4180   55.8590   -7.0250 C   0  0  0  0  0  0  0  0  0  0  0  0
   28.8530   54.6580   -6.2270 C   0  0  0  0  0  0  0  0  0  0  0  0
   28.4830   53.4540   -6.7920 N   0  0  0  0  0  0  0  0  0  0  0  0
   29.5390   54.7920   -5.0780 C   0  0  0  0  0  0  0  0  0  0  0  0
   29.9040   56.0070   -4.5300 O   0  0  0  0  0  0  0  0  0  0  0  0
   29.9360   53.5570   -4.3550 C   0  0  0  0  0  0  0  0  0  0  0  0
   28.9820   52.3490   -6.3210 C   0  0  0  0  0  0  0  0  0  0  0  0
   30.1980   53.6470   -3.1520 O   0  0  0  0  0  0  0  0  0  0  0  0
   29.9760   52.2860   -5.1680 C   0  0  2  0  0  0  0  0  0  0  0  0
   28.5670   51.0620   -6.9400 C   0  0  0  0  0  0  0  0  0  0  0  0
   28.6690   49.9430   -6.2090 C   0  0  0  0  0  0  0  0  0  0  0  0
   29.7760   51.0430   -4.3480 C   0  0  0  0  0  0  0  0  0  0  0  0
   29.1650   49.9630   -4.8520 C   0  0  0  0  0  0  0  0  0  0  0  0
   28.9910   48.8330   -4.0910 O   0  0  0  0  0  0  0  0  0  0  0  0
  1  2  1  0
  2  3  1  0
  2  4  2  0
  4  5  1  0
  4  6  1  0
  3  7  2  0
  6  8  2  0
  6  9  1  0
  7  9  1  0
  7 10  1  0
 10 11  2  0
  9 12  1  1
 11 13  1  0
 12 13  2  0
 13 14  1  0
M  END
