mac-x0360-mac-x0509
     RDKit          3D

 25 27  0  0  0  0  0  0  0  0999 V2000
   32.0920   55.2210   -7.0810 Cl  0  0  0  0  0  0  0  0  0  0  0  0
   32.2150   53.6270   -6.4390 C   0  0  0  0  0  0  0  0  0  0  0  0
   33.4690   53.1140   -6.1020 C   0  0  0  0  0  0  0  0  0  0  0  0
   31.0630   52.8620   -6.2620 C   0  0  0  0  0  0  0  0  0  0  0  0
   31.1780   51.5720   -5.7420 C   0  0  0  0  0  0  0  0  0  0  0  0
   33.5880   51.8190   -5.5790 C   0  0  0  0  0  0  0  0  0  0  0  0
   34.9440   51.2610   -5.2130 C   0  0  0  0  0  0  0  0  0  0  0  0
   29.7130   50.5970   -5.5170 S   0  0  0  0  0  0  0  0  0  0  0  0
   32.4290   51.0460   -5.4000 C   0  0  0  0  0  0  0  0  0  0  0  0
   30.3190   49.2330   -4.7380 N   0  0  0  0  0  0  0  0  0  0  0  0
   28.8690   51.2500   -4.5420 O   0  0  0  0  0  0  0  0  0  0  0  0
   29.2300   50.1920   -6.8150 O   0  0  0  0  0  0  0  0  0  0  0  0
   35.0660   49.7730   -5.5530 C   0  0  0  0  0  0  0  0  0  0  0  0
   36.5360   49.3480   -5.6450 C   0  0  0  0  0  0  0  0  0  0  0  0
   36.8950   48.2510   -4.6430 C   0  0  0  0  0  0  0  0  0  0  0  0
   37.5850   47.1700   -5.3430 N   0  0  0  0  0  0  0  0  0  0  0  0
   37.7710   46.0840   -4.6800 C   0  0  0  0  0  0  0  0  0  0  0  0
   37.2690   45.9750   -3.2200 C   0  0  0  0  0  0  0  0  0  0  0  0
   38.3780   44.8970   -5.0410 N   0  0  0  0  0  0  0  0  0  0  0  0
   37.5630   44.5320   -2.9190 C   0  0  0  0  0  0  0  0  0  0  0  0
   38.2130   43.9560   -4.0220 C   0  0  0  0  0  0  0  0  0  0  0  0
   37.2840   43.7980   -1.7790 C   0  0  0  0  0  0  0  0  0  0  0  0
   38.5990   42.6310   -4.0120 C   0  0  0  0  0  0  0  0  0  0  0  0
   37.6720   42.4550   -1.7600 C   0  0  0  0  0  0  0  0  0  0  0  0
   38.3240   41.8740   -2.8650 C   0  0  0  0  0  0  0  0  0  0  0  0
  1  2  1  0
  2  3  2  0
  2  4  1  0
  4  5  2  0
  3  6  1  0
  6  7  1  0
  5  8  1  0
  5  9  1  0
  6  9  2  0
  8 10  1  0
  8 11  2  0
  8 12  2  0
  7 13  1  0
 13 14  1  0
 14 15  1  0
 15 16  1  0
 16 17  2  3
 17 18  1  0
 17 19  1  0
 18 20  1  0
 19 21  1  0
 20 21  2  0
 20 22  1  0
 21 23  1  0
 22 24  2  0
 23 25  2  0
 24 25  1  0
M  END
