mac-x0338-mac-x1494
     RDKit          3D

 14 15  0  0  0  0  0  0  0  0999 V2000
   28.7910   51.8520   -7.7790 N   0  0  0  0  0  0  0  0  0  0  0  0
   29.1170   52.4730   -6.6070 C   0  0  0  0  0  0  0  0  0  0  0  0
   29.1370   53.6820   -6.4560 O   0  0  0  0  0  0  0  0  0  0  0  0
   29.4590   51.5290   -5.4700 C   0  0  0  0  0  0  0  0  0  0  0  0
   28.9830   50.3040   -5.4420 N   0  0  0  0  0  0  0  0  0  0  0  0
   30.3330   51.9830   -4.3830 C   0  0  0  0  0  0  0  0  0  0  0  0
   29.5140   49.7970   -4.1590 C   0  0  1  0  0  0  0  0  0  0  0  0
   30.3570   50.9040   -3.6070 C   0  0  0  0  0  0  0  0  0  0  0  0
   28.3310   49.5690   -3.2300 C   0  0  0  0  0  0  0  0  0  0  0  0
   31.0290   50.7280   -2.4270 N   0  0  0  0  0  0  0  0  0  0  0  0
   30.3210   48.5430   -4.2260 C   0  0  0  0  0  0  0  0  0  0  0  0
   31.2730   48.3860   -3.2970 C   0  0  0  0  0  0  0  0  0  0  0  0
   31.4530   49.4970   -2.3000 C   0  0  0  0  0  0  0  0  0  0  0  0
   32.2770   47.0110   -3.1860 Cl  0  0  0  0  0  0  0  0  0  0  0  0
  1  2  1  0
  2  3  2  0
  2  4  1  0
  4  5  2  0
  4  6  1  0
  5  7  1  0
  6  8  2  0
  7  8  1  0
  7  9  1  1
  8 10  1  0
  7 11  1  0
 11 12  2  0
 10 13  2  0
 12 13  1  0
 12 14  1  0
M  END
