mac-x0283-mac-x0115
     RDKit          3D

 26 29  0  0  0  0  0  0  0  0999 V2000
   27.8320   54.6220   -5.2830 N   0  0  0  0  0  0  0  0  0  0  0  0
   28.8020   53.7230   -5.0140 C   0  0  0  0  0  0  0  0  0  0  0  0
   30.0160   54.0350   -4.5390 N   0  0  0  0  0  0  0  0  0  0  0  0
   28.6750   52.3340   -5.1930 C   0  0  0  0  0  0  0  0  0  0  0  0
   30.6990   52.8240   -4.4070 O   0  0  0  0  0  0  0  0  0  0  0  0
   29.8810   51.8260   -4.8010 C   0  0  0  0  0  0  0  0  0  0  0  0
   27.6660   51.4460   -5.6460 C   0  0  0  0  0  0  0  0  0  0  0  0
   30.3020   50.4090   -4.7820 C   0  0  0  0  0  0  0  0  0  0  0  0
   27.9700   50.1610   -5.9170 C   0  0  0  0  0  0  0  0  0  0  0  0
   29.3900   49.5820   -5.7610 C   0  0  1  0  0  0  0  0  0  0  0  0
   30.0410   49.4810   -7.0760 N   0  0  0  0  0  0  0  0  0  0  0  0
   29.3090   48.1100   -5.3070 C   0  0  0  0  0  0  0  0  0  0  0  0
   30.7610   48.1960   -7.2020 C   0  0  1  0  0  0  0  0  0  0  0  0
   30.5740   47.4700   -5.8760 C   0  0  2  0  0  0  0  0  0  0  0  0
   30.5100   46.0110   -5.9200 N   0  0  0  0  0  0  0  0  0  0  0  0
   30.1780   47.4340   -8.3760 C   0  0  0  0  0  0  0  0  0  0  0  0
   31.1250   45.3150   -4.7670 C   0  0  0  0  0  0  0  0  0  0  0  0
   30.0210   47.9420   -9.4900 O   0  0  0  0  0  0  0  0  0  0  0  0
   30.1370   45.3520   -7.0770 C   0  0  0  0  0  0  0  0  0  0  0  0
   29.8270   46.1330   -8.1600 N   0  0  0  0  0  0  0  0  0  0  0  0
   30.1670   44.3090   -4.1160 C   0  0  0  0  0  0  0  0  0  0  0  0
   30.0260   43.6940   -7.2940 S   0  0  0  0  0  0  0  0  0  0  0  0
   29.8280   44.7560   -2.7960 O   0  0  0  0  0  0  0  0  0  0  0  0
   28.4240   44.9620   -2.6130 C   0  0  0  0  0  0  0  0  0  0  0  0
   28.2620   45.8800   -1.4090 C   0  0  0  0  0  0  0  0  0  0  0  0
   27.7230   43.6280   -2.3590 C   0  0  0  0  0  0  0  0  0  0  0  0
  1  2  1  0
  2  3  2  0
  2  4  1  0
  3  5  1  0
  4  6  2  0
  5  6  1  0
  4  7  1  0
  6  8  1  0
  7  9  2  0
 10  8  1  1
 10  9  1  0
 10 11  1  0
 10 12  1  0
 13 11  1  1
 14 12  1  6
 13 14  1  0
 14 15  1  0
 13 16  1  0
 15 17  1  0
 16 18  2  0
 15 19  1  0
 16 20  1  0
 19 20  1  0
 17 21  1  0
 19 22  2  0
 21 23  1  0
 23 24  1  0
 24 25  1  0
 24 26  1  0
M  END
