mac-x0365-mac-x0319
     RDKit          3D

 22 23  0  0  0  0  0  0  0  0999 V2000
   29.3470   48.0890   -5.6350 O   0  0  0  0  0  0  0  0  0  0  0  0
   29.7870   48.6920   -4.5120 C   0  0  0  0  0  0  0  0  0  0  0  0
   30.3500   48.0650   -3.5330 N   0  0  0  0  0  0  0  0  0  0  0  0
   29.5700   50.1520   -4.4920 C   0  0  0  0  0  0  0  0  0  0  0  0
   29.8230   50.8520   -3.3080 C   0  0  0  0  0  0  0  0  0  0  0  0
   29.1200   50.8330   -5.6360 C   0  0  0  0  0  0  0  0  0  0  0  0
   30.5170   46.6780   -3.6480 C   0  0  0  0  0  0  0  0  0  0  0  0
   29.6230   52.2270   -3.2800 C   0  0  0  0  0  0  0  0  0  0  0  0
   28.9220   52.2170   -5.5930 C   0  0  0  0  0  0  0  0  0  0  0  0
   29.5380   45.8070   -3.1700 C   0  0  0  0  0  0  0  0  0  0  0  0
   31.6730   46.1580   -4.2460 C   0  0  0  0  0  0  0  0  0  0  0  0
   29.8620   52.9170   -2.1540 F   0  0  0  0  0  0  0  0  0  0  0  0
   29.1760   52.9040   -4.4120 C   0  0  0  0  0  0  0  0  0  0  0  0
   31.8640   44.7730   -4.3720 C   0  0  0  0  0  0  0  0  0  0  0  0
   29.7210   44.4310   -3.2930 C   0  0  0  0  0  0  0  0  0  0  0  0
   28.9770   54.2550   -4.3910 O   0  0  0  0  0  0  0  0  0  0  0  0
   33.1140   44.2180   -5.0150 C   0  0  0  0  0  0  0  0  0  0  0  0
   28.7860   43.5450   -2.8390 O   0  0  0  0  0  0  0  0  0  0  0  0
   30.8700   43.9110   -3.8880 C   0  0  0  0  0  0  0  0  0  0  0  0
   33.3760   44.7080   -6.4210 C   0  0  0  0  0  0  0  0  0  0  0  0
   34.4940   45.4660   -6.4850 O   0  0  0  0  0  0  0  0  0  0  0  0
   32.7330   44.5000   -7.4360 O   0  0  0  0  0  0  0  0  0  0  0  0
  1  2  1  0
  2  3  2  3
  2  4  1  0
  4  5  2  0
  4  6  1  0
  3  7  1  0
  5  8  1  0
  6  9  2  0
  7 10  2  0
  7 11  1  0
  8 12  1  0
  8 13  2  0
  9 13  1  0
 11 14  2  0
 10 15  1  0
 13 16  1  0
 14 17  1  0
 15 18  1  0
 14 19  1  0
 15 19  2  0
 17 20  1  0
 20 21  1  0
 20 22  2  0
M  END
