mac-x0379-mac-x0328
     RDKit          3D

  9  9  0  0  0  0  0  0  0  0999 V2000
   29.0530   52.0850   -5.4120 C   0  0  0  0  0  0  0  0  0  0  0  0
   29.4600   50.8140   -4.7530 C   0  0  0  0  0  0  0  0  0  0  0  0
   29.9000   50.7250   -3.5170 N   0  0  0  0  0  0  0  0  0  0  0  0
   29.3790   49.3310   -5.6170 S   0  0  0  0  0  0  0  0  0  0  0  0
   30.1890   49.4030   -3.2210 C   0  0  0  0  0  0  0  0  0  0  0  0
   29.9760   48.4950   -4.2410 C   0  0  0  0  0  0  0  0  0  0  0  0
   30.1630   47.0620   -4.2960 C   0  0  0  0  0  0  0  0  0  0  0  0
   30.9150   46.4050   -3.5900 O   0  0  0  0  0  0  0  0  0  0  0  0
   29.3970   46.4660   -5.2450 O   0  0  0  0  0  0  0  0  0  0  0  0
  1  2  1  0
  2  3  2  0
  2  4  1  0
  3  5  1  0
  4  6  1  0
  5  6  2  0
  6  7  1  0
  7  8  2  0
  7  9  1  0
M  END
