mac-x0375-mac-x0365
     RDKit          3D

 24 25  0  0  0  0  0  0  0  0999 V2000
   32.3060   43.1400   -5.5560 O   0  0  0  0  0  0  0  0  0  0  0  0
   33.0530   44.1940   -5.9460 C   0  0  0  0  0  0  0  0  0  0  0  0
   33.5200   44.2300   -7.0770 O   0  0  0  0  0  0  0  0  0  0  0  0
   33.2390   45.2680   -4.8750 C   0  0  2  0  0  0  0  0  0  0  0  0
   34.1980   44.8820   -3.8930 O   0  0  0  0  0  0  0  0  0  0  0  0
   31.8820   45.5240   -4.1950 C   0  0  0  0  0  0  0  0  0  0  0  0
   30.9070   46.3130   -5.0770 C   0  0  0  0  0  0  0  0  0  0  0  0
   35.1900   45.7550   -3.5400 C   0  0  0  0  0  0  0  0  0  0  0  0
   30.8230   47.6950   -4.6130 N   0  0  0  0  0  0  0  0  0  0  0  0
   36.5650   45.5160   -3.5800 C   0  0  0  0  0  0  0  0  0  0  0  0
   34.7310   47.0050   -3.1010 C   0  0  0  0  0  0  0  0  0  0  0  0
   29.9580   48.5030   -5.0940 C   0  0  0  0  0  0  0  0  0  0  0  0
   37.4650   46.5110   -3.1860 C   0  0  0  0  0  0  0  0  0  0  0  0
   35.6290   47.9990   -2.7080 C   0  0  0  0  0  0  0  0  0  0  0  0
   29.1290   48.0310   -6.0350 O   0  0  0  0  0  0  0  0  0  0  0  0
   36.9970   47.7510   -2.7510 C   0  0  0  0  0  0  0  0  0  0  0  0
   29.6690   49.9120   -4.8150 C   0  0  0  0  0  0  0  0  0  0  0  0
   29.8880   50.4290   -3.5370 C   0  0  0  0  0  0  0  0  0  0  0  0
   29.1740   50.7300   -5.8400 C   0  0  0  0  0  0  0  0  0  0  0  0
   29.6070   51.7700   -3.2960 C   0  0  0  0  0  0  0  0  0  0  0  0
   28.8960   52.0760   -5.5880 C   0  0  0  0  0  0  0  0  0  0  0  0
   29.8180   52.2650   -2.0680 F   0  0  0  0  0  0  0  0  0  0  0  0
   29.1150   52.5910   -4.3110 C   0  0  0  0  0  0  0  0  0  0  0  0
   28.8520   53.9030   -4.0340 O   0  0  0  0  0  0  0  0  0  0  0  0
  1  2  1  0
  2  3  2  0
  2  4  1  0
  4  5  1  0
  4  6  1  1
  6  7  1  0
  5  8  1  0
  7  9  1  0
  8 10  2  0
  8 11  1  0
  9 12  2  3
 10 13  1  0
 11 14  2  0
 12 15  1  0
 13 16  2  0
 14 16  1  0
 12 17  1  0
 17 18  2  0
 17 19  1  0
 18 20  1  0
 19 21  2  0
 20 22  1  0
 20 23  2  0
 21 23  1  0
 23 24  1  0
M  END
