mac-x0358-mac-x0139
     RDKit          3D

 24 26  0  0  0  0  0  0  0  0999 V2000
   32.3580   44.2430   -6.7920 N   0  0  0  0  0  0  0  0  0  0  0  0
   32.1270   45.3910   -5.8220 C   0  0  2  0  0  0  0  0  0  0  0  0
   32.8290   46.5880   -6.2240 O   0  0  0  0  0  0  0  0  0  0  0  0
   32.0490   44.5600   -7.9470 O   0  0  0  0  0  0  0  0  0  0  0  0
   32.6750   44.9660   -4.4440 C   0  0  0  0  0  0  0  0  0  0  0  0
   30.5600   45.5110   -5.7750 C   0  0  0  0  0  0  0  0  0  0  0  0
   29.9630   46.8460   -5.6530 N   0  0  0  0  0  0  0  0  0  0  0  0
   32.4540   45.9480   -3.3230 C   0  0  0  0  0  0  0  0  0  0  0  0
   30.0860   47.5140   -4.3510 C   0  0  0  0  0  0  0  0  0  0  0  0
   33.3980   46.9110   -2.9710 C   0  0  0  0  0  0  0  0  0  0  0  0
   31.2440   45.9140   -2.6020 C   0  0  0  0  0  0  0  0  0  0  0  0
   29.4450   47.5550   -6.7340 C   0  0  0  0  0  0  0  0  0  0  0  0
   34.6010   47.0260   -3.6070 O   0  0  0  0  0  0  0  0  0  0  0  0
   33.1590   47.8130   -1.9360 C   0  0  0  0  0  0  0  0  0  0  0  0
   30.9990   46.8170   -1.5640 C   0  0  0  0  0  0  0  0  0  0  0  0
   29.3170   48.8970   -6.7410 C   0  0  0  0  0  0  0  0  0  0  0  0
   29.0590   46.7840   -7.8410 N   0  0  0  0  0  0  0  0  0  0  0  0
   31.9570   47.7690   -1.2340 C   0  0  0  0  0  0  0  0  0  0  0  0
   28.7560   49.5270   -7.9590 C   0  0  0  0  0  0  0  0  0  0  0  0
   28.5810   47.3840   -8.8800 C   0  0  0  0  0  0  0  0  0  0  0  0
   29.5670   50.0100   -5.8810 C   0  0  0  0  0  0  0  0  0  0  0  0
   28.4150   48.7250   -8.9940 N   0  0  0  0  0  0  0  0  0  0  0  0
   28.6720   50.8240   -7.8430 N   0  0  0  0  0  0  0  0  0  0  0  0
   29.1700   51.0860   -6.5750 C   0  0  0  0  0  0  0  0  0  0  0  0
  2  1  1  0
  2  3  1  6
  1  4  2  0
  2  5  1  0
  2  6  1  0
  6  7  1  0
  5  8  1  0
  7  9  1  0
  8 10  2  0
  8 11  1  0
  7 12  1  0
 10 13  1  0
 10 14  1  0
 11 15  2  0
 12 16  2  0
 12 17  1  0
 14 18  2  0
 15 18  1  0
 16 19  1  0
 17 20  2  0
 16 21  1  0
 19 22  1  0
 20 22  1  0
 19 23  2  0
 21 24  2  0
 23 24  1  0
M  END
