mac-x0255-mac-x0568
     RDKit          3D

 25 27  0  0  0  0  0  0  0  0999 V2000
   31.5300   45.4290   -7.6120 O   0  0  0  0  0  0  0  0  0  0  0  0
   32.6370   45.3020   -6.8330 C   0  0  0  0  0  0  0  0  0  0  0  0
   33.6250   45.9880   -7.0400 O   0  0  0  0  0  0  0  0  0  0  0  0
   32.4610   44.2460   -5.7460 C   0  0  0  0  0  0  0  0  0  0  0  0
   31.4230   44.6260   -4.7380 C   0  0  0  0  0  0  0  0  0  0  0  0
   30.3660   43.8870   -4.2480 C   0  0  0  0  0  0  0  0  0  0  0  0
   31.4620   46.1690   -4.0410 S   0  0  0  0  0  0  0  0  0  0  0  0
   29.5670   44.6020   -3.2820 C   0  0  0  0  0  0  0  0  0  0  0  0
   30.0580   45.8850   -3.0730 C   0  0  0  0  0  0  0  0  0  0  0  0
   28.4190   44.2040   -2.5620 C   0  0  0  0  0  0  0  0  0  0  0  0
   29.4440   46.7900   -2.1770 C   0  0  0  0  0  0  0  0  0  0  0  0
   30.0050   48.1730   -2.0050 C   0  0  0  0  0  0  0  0  0  0  0  0
   27.8010   45.0840   -1.6650 C   0  0  0  0  0  0  0  0  0  0  0  0
   28.3100   46.3630   -1.4780 C   0  0  0  0  0  0  0  0  0  0  0  0
   30.6880   48.5650   -3.3210 C   0  0  0  0  0  0  0  0  0  0  0  0
   30.4010   49.9140   -3.7310 N   0  0  0  0  0  0  0  0  0  0  0  0
   29.8150   50.2870   -4.8090 C   0  0  0  0  0  0  0  0  0  0  0  0
   29.3740   49.3310   -5.6950 N   0  0  0  0  0  0  0  0  0  0  0  0
   29.6300   51.7000   -5.1160 C   0  0  0  0  0  0  0  0  0  0  0  0
   29.9410   52.5830   -4.1010 C   0  0  0  0  0  0  0  0  0  0  0  0
   29.1830   52.1930   -6.3310 C   0  0  0  0  0  0  0  0  0  0  0  0
   29.8400   53.9210   -4.2170 N   0  0  0  0  0  0  0  0  0  0  0  0
   29.0690   53.5750   -6.4800 C   0  0  0  0  0  0  0  0  0  0  0  0
   29.4090   54.3990   -5.4020 C   0  0  0  0  0  0  0  0  0  0  0  0
   29.3070   55.8890   -5.5250 C   0  0  0  0  0  0  0  0  0  0  0  0
  1  2  1  0
  2  3  2  0
  2  4  1  0
  4  5  1  0
  5  6  2  0
  5  7  1  0
  6  8  1  0
  7  9  1  0
  8  9  2  0
  8 10  1  0
  9 11  1  0
 11 12  1  0
 10 13  2  0
 11 14  2  0
 13 14  1  0
 12 15  1  0
 15 16  1  0
 16 17  2  3
 17 18  1  0
 17 19  1  0
 19 20  2  0
 19 21  1  0
 20 22  1  0
 21 23  2  0
 22 24  2  0
 23 24  1  0
 24 25  1  0
M  END
