mac-x0224-mac-x0206
     RDKit          3D

 21 22  0  0  0  0  0  0  0  0999 V2000
   27.3980   51.0440   -6.2990 C   0  0  0  0  0  0  0  0  0  0  0  0
   29.0980   50.6770   -6.2030 S   0  0  1  0  0  0  0  0  0  0  0  0
   29.8230   51.9100   -5.2600 C   0  0  0  0  0  0  0  0  0  0  0  0
   29.5080   49.3440   -5.2120 C   0  0  0  0  0  0  0  0  0  0  0  0
   30.6770   51.5200   -4.4660 O   0  0  0  0  0  0  0  0  0  0  0  0
   29.8270   48.1210   -5.7530 C   0  0  0  0  0  0  0  0  0  0  0  0
   29.5150   49.5830   -3.8450 C   0  0  0  0  0  0  0  0  0  0  0  0
   29.4770   53.3060   -5.3290 C   0  0  0  0  0  0  0  0  0  0  0  0
   30.1800   47.0890   -4.8850 C   0  0  0  0  0  0  0  0  0  0  0  0
   29.8640   48.5600   -2.9790 C   0  0  0  0  0  0  0  0  0  0  0  0
   29.7200   54.2110   -4.3120 C   0  0  0  0  0  0  0  0  0  0  0  0
   28.8610   53.7150   -6.5140 C   0  0  0  0  0  0  0  0  0  0  0  0
   30.5290   45.7750   -5.4560 C   0  0  0  0  0  0  0  0  0  0  0  0
   30.3190   53.8170   -3.1510 O   0  0  0  0  0  0  0  0  0  0  0  0
   30.1980   47.3140   -3.5010 C   0  0  0  0  0  0  0  0  0  0  0  0
   29.3490   55.5400   -4.4760 C   0  0  0  0  0  0  0  0  0  0  0  0
   28.4880   55.0370   -6.6820 C   0  0  0  0  0  0  0  0  0  0  0  0
   30.5450   46.3200   -2.6360 O   0  0  0  0  0  0  0  0  0  0  0  0
   30.3960   45.4040   -6.6070 O   0  0  0  0  0  0  0  0  0  0  0  0
   31.0500   44.9600   -4.5210 O   0  0  0  0  0  0  0  0  0  0  0  0
   28.7320   55.9520   -5.6620 C   0  0  0  0  0  0  0  0  0  0  0  0
  2  1  1  1
  2  3  1  0
  2  4  1  0
  3  5  2  0
  4  6  2  0
  4  7  1  0
  3  8  1  0
  6  9  1  0
  7 10  2  0
  8 11  2  0
  8 12  1  0
  9 13  1  0
 11 14  1  0
  9 15  2  0
 10 15  1  0
 11 16  1  0
 12 17  2  0
 15 18  1  0
 13 19  2  0
 13 20  1  0
 16 21  2  0
 17 21  1  0
M  END
