mac-x0305-mac-x0341
     RDKit          3D

 16 17  0  0  0  0  0  0  0  0999 V2000
   30.5380   46.8860   -7.4930 O   0  0  0  0  0  0  0  0  0  0  0  0
   30.1410   47.1750   -6.2410 C   0  0  0  0  0  0  0  0  0  0  0  0
   30.0660   46.3240   -5.3590 O   0  0  0  0  0  0  0  0  0  0  0  0
   29.8140   48.6130   -5.9580 C   0  0  0  0  0  0  0  0  0  0  0  0
   29.3420   49.4950   -6.8820 C   0  0  0  0  0  0  0  0  0  0  0  0
   30.0390   49.0070   -4.6510 N   0  0  0  0  0  0  0  0  0  0  0  0
   29.0810   49.1670   -8.2010 O   0  0  0  0  0  0  0  0  0  0  0  0
   29.1200   50.9370   -6.4420 C   0  0  0  0  0  0  0  0  0  0  0  0
   29.8580   50.2900   -4.2290 C   0  0  0  0  0  0  0  0  0  0  0  0
   29.4220   51.2600   -5.0440 C   0  0  0  0  0  0  0  0  0  0  0  0
   28.7150   51.8750   -7.2800 N   0  0  0  0  0  0  0  0  0  0  0  0
   28.5910   53.1620   -6.7940 C   0  0  0  0  0  0  0  0  0  0  0  0
   29.2480   52.6470   -4.6170 C   0  0  0  0  0  0  0  0  0  0  0  0
   28.1930   54.1270   -7.6620 N   0  0  0  0  0  0  0  0  0  0  0  0
   29.4830   52.9600   -3.4600 O   0  0  0  0  0  0  0  0  0  0  0  0
   28.8330   53.5230   -5.5770 N   0  0  0  0  0  0  0  0  0  0  0  0
  1  2  1  0
  2  3  2  0
  2  4  1  0
  4  5  2  0
  4  6  1  0
  5  7  1  0
  5  8  1  0
  6  9  1  0
  8 10  1  0
  9 10  2  0
  8 11  2  0
 11 12  1  0
 10 13  1  0
 12 14  1  0
 13 15  2  0
 12 16  2  0
 13 16  1  0
M  END
