mac-x0132-mac-x0224
     RDKit          3D

 22 24  0  0  0  0  0  0  0  0999 V2000
   28.3270   51.9270   -6.8260 N   0  0  0  0  0  0  0  0  0  0  0  0
   29.3790   50.8670   -7.5990 S   0  0  0  0  0  0  0  0  0  0  0  0
   29.9750   49.8340   -6.2530 C   0  0  0  0  0  0  0  0  0  0  0  0
   28.7920   52.7000   -5.7190 C   0  0  0  0  0  0  0  0  0  0  0  0
   28.8980   52.0340   -4.4880 C   0  0  0  0  0  0  0  0  0  0  0  0
   29.1180   54.0020   -5.8600 N   0  0  0  0  0  0  0  0  0  0  0  0
   29.3710   52.8040   -3.4210 C   0  0  0  0  0  0  0  0  0  0  0  0
   29.5520   54.6330   -4.7620 C   0  0  0  0  0  0  0  0  0  0  0  0
   28.5670   50.6710   -4.2760 C   0  0  0  0  0  0  0  0  0  0  0  0
   29.8120   48.4450   -6.3350 C   0  0  0  0  0  0  0  0  0  0  0  0
   30.6040   50.3790   -5.1220 C   0  0  0  0  0  0  0  0  0  0  0  0
   29.6970   54.0930   -3.5460 N   0  0  0  0  0  0  0  0  0  0  0  0
   29.5070   52.1950   -2.1790 C   0  0  0  0  0  0  0  0  0  0  0  0
   28.7120   50.0850   -3.0240 C   0  0  0  0  0  0  0  0  0  0  0  0
   30.2700   47.6080   -5.3050 C   0  0  0  0  0  0  0  0  0  0  0  0
   31.0570   49.5500   -4.0920 C   0  0  0  0  0  0  0  0  0  0  0  0
   30.1090   46.1400   -5.3920 C   0  0  0  0  0  0  0  0  0  0  0  0
   29.1850   50.8480   -1.9710 C   0  0  0  0  0  0  0  0  0  0  0  0
   30.8900   48.1700   -4.1820 C   0  0  0  0  0  0  0  0  0  0  0  0
   31.3640   47.4290   -3.1290 O   0  0  0  0  0  0  0  0  0  0  0  0
   29.6750   45.5570   -6.3720 O   0  0  0  0  0  0  0  0  0  0  0  0
   30.4950   45.4780   -4.2890 O   0  0  0  0  0  0  0  0  0  0  0  0
  1  2  1  0
  2  3  1  0
  1  4  1  0
  4  5  1  0
  4  6  2  0
  5  7  2  0
  6  8  1  0
  5  9  1  0
  3 10  2  0
  3 11  1  0
  7 12  1  0
  8 12  2  0
  7 13  1  0
  9 14  2  0
 10 15  1  0
 11 16  2  0
 15 17  1  0
 13 18  2  0
 14 18  1  0
 15 19  2  0
 16 19  1  0
 19 20  1  0
 17 21  2  0
 17 22  1  0
M  END
