mac-x0271-mac-x0115
     RDKit          3D

 28 31  0  0  0  0  0  0  0  0999 V2000
   29.6430   49.3350   -3.0280 O   0  0  0  0  0  0  0  0  0  0  0  0
   29.2490   50.3800   -3.9280 C   0  0  2  0  0  0  0  0  0  0  0  0
   29.4890   49.9440   -5.4160 C   0  0  2  0  0  0  0  0  0  0  0  0
   29.9940   51.6570   -3.5170 C   0  0  0  0  0  0  0  0  0  0  0  0
   29.7280   52.7580   -4.4820 C   0  0  0  0  0  0  0  0  0  0  0  0
   29.8620   51.1440   -6.3620 C   0  0  0  0  0  0  0  0  0  0  0  0
   28.2520   49.3220   -5.9840 N   0  0  0  0  0  0  0  0  0  0  0  0
   30.5690   48.8430   -5.5150 C   0  0  0  0  0  0  0  0  0  0  0  0
   29.6630   52.5270   -5.7910 C   0  0  0  0  0  0  0  0  0  0  0  0
   29.5490   54.0490   -3.9250 O   0  0  0  0  0  0  0  0  0  0  0  0
   28.5370   47.8870   -6.2700 C   0  0  2  0  0  0  0  0  0  0  0  0
   29.7730   47.5390   -5.4690 C   0  0  1  0  0  0  0  0  0  0  0  0
   29.4010   53.6320   -6.6750 C   0  0  0  0  0  0  0  0  0  0  0  0
   29.2420   55.1120   -4.7270 C   0  0  0  0  0  0  0  0  0  0  0  0
   30.5250   46.3720   -5.9360 N   0  0  0  0  0  0  0  0  0  0  0  0
   28.7970   47.7000   -7.7640 C   0  0  0  0  0  0  0  0  0  0  0  0
   29.0080   56.2320   -4.2850 O   0  0  0  0  0  0  0  0  0  0  0  0
   31.0890   45.5170   -4.8700 C   0  0  0  0  0  0  0  0  0  0  0  0
   28.2030   48.3500   -8.6250 O   0  0  0  0  0  0  0  0  0  0  0  0
   29.1990   54.8610   -6.1810 C   0  0  0  0  0  0  0  0  0  0  0  0
   30.4960   45.9900   -7.2670 C   0  0  0  0  0  0  0  0  0  0  0  0
   29.7360   46.7670   -8.1030 N   0  0  0  0  0  0  0  0  0  0  0  0
   30.0710   44.5100   -4.3200 C   0  0  0  0  0  0  0  0  0  0  0  0
   31.2880   44.6900   -7.9570 S   0  0  0  0  0  0  0  0  0  0  0  0
   30.2350   44.4190   -2.9050 O   0  0  0  0  0  0  0  0  0  0  0  0
   29.0050   44.2320   -2.1910 C   0  0  0  0  0  0  0  0  0  0  0  0
   28.3360   45.5960   -2.0860 C   0  0  0  0  0  0  0  0  0  0  0  0
   28.0980   43.2520   -2.9310 C   0  0  0  0  0  0  0  0  0  0  0  0
  2  1  1  1
  2  3  1  0
  2  4  1  0
  4  5  1  0
  3  6  1  6
  3  7  1  0
  3  8  1  0
  5  9  2  0
  6  9  1  0
  5 10  1  0
 11  7  1  6
 12  8  1  6
 11 12  1  0
  9 13  1  0
 10 14  1  0
 12 15  1  0
 11 16  1  0
 14 17  2  0
 15 18  1  0
 16 19  2  0
 13 20  2  0
 14 20  1  0
 15 21  1  0
 16 22  1  0
 21 22  1  0
 18 23  1  0
 21 24  2  0
 23 25  1  0
 25 26  1  0
 26 27  1  0
 26 28  1  0
M  END
