mac-x0412-mac-x0358
     RDKit          3D

 23 25  0  0  0  0  0  0  0  0999 V2000
   29.1650   54.3830   -3.5020 O   0  0  0  0  0  0  0  0  0  0  0  0
   29.2690   53.8600   -4.6070 C   0  0  0  0  0  0  0  0  0  0  0  0
   28.8000   54.4790   -5.7550 N   0  0  0  0  0  0  0  0  0  0  0  0
   29.9320   52.4720   -4.8100 C   0  0  2  0  0  0  0  0  0  0  0  0
   29.0490   51.6460   -5.7330 C   0  0  0  0  0  0  0  0  0  0  0  0
   28.3440   53.7140   -6.6900 C   0  0  0  0  0  0  0  0  0  0  0  0
   30.3170   51.7540   -3.5300 C   0  0  0  0  0  0  0  0  0  0  0  0
   28.2760   52.2390   -6.6500 C   0  0  0  0  0  0  0  0  0  0  0  0
   29.0830   50.2060   -5.5740 C   0  0  0  0  0  0  0  0  0  0  0  0
   30.1650   50.4200   -3.3770 C   0  0  0  0  0  0  0  0  0  0  0  0
   30.5550   49.6440   -2.1350 C   0  0  0  0  0  0  0  0  0  0  0  0
   29.6010   49.6440   -4.4750 C   0  0  0  0  0  0  0  0  0  0  0  0
   31.1890   48.3600   -2.5990 C   0  0  0  0  0  0  0  0  0  0  0  0
   32.5620   48.3040   -2.8780 C   0  0  0  0  0  0  0  0  0  0  0  0
   30.4080   47.2130   -2.7760 C   0  0  0  0  0  0  0  0  0  0  0  0
   33.1260   47.1200   -3.3420 C   0  0  0  0  0  0  0  0  0  0  0  0
   30.9800   46.0320   -3.2420 C   0  0  0  0  0  0  0  0  0  0  0  0
   34.4630   47.0600   -3.6260 O   0  0  0  0  0  0  0  0  0  0  0  0
   32.3460   45.9770   -3.5390 C   0  0  0  0  0  0  0  0  0  0  0  0
   32.9580   44.7110   -4.0720 C   0  0  0  0  0  0  0  0  0  0  0  0
   33.0950   44.7660   -5.5800 C   0  0  0  0  0  0  0  0  0  0  0  0
   31.9280   44.4930   -6.2130 O   0  0  0  0  0  0  0  0  0  0  0  0
   34.0880   45.0220   -6.2430 O   0  0  0  0  0  0  0  0  0  0  0  0
  1  2  2  0
  2  3  1  0
  2  4  1  0
  4  5  1  0
  3  6  2  0
  4  7  1  1
  5  8  2  0
  6  8  1  0
  5  9  1  0
  7 10  2  0
 10 11  1  0
  9 12  2  0
 10 12  1  0
 11 13  1  0
 13 14  2  0
 13 15  1  0
 14 16  1  0
 15 17  2  0
 16 18  1  0
 16 19  2  0
 17 19  1  0
 19 20  1  0
 20 21  1  0
 21 22  1  0
 21 23  2  0
M  END
