mac-x0360-mac-x0375
     RDKit          3D

 26 27  0  0  0  0  0  0  0  0999 V2000
   32.0640   55.2680   -7.0060 Cl  0  0  0  0  0  0  0  0  0  0  0  0
   32.1900   53.6570   -6.4100 C   0  0  0  0  0  0  0  0  0  0  0  0
   33.4450   53.1290   -6.1080 C   0  0  0  0  0  0  0  0  0  0  0  0
   31.0390   52.8980   -6.2350 C   0  0  0  0  0  0  0  0  0  0  0  0
   31.1460   51.5920   -5.7490 C   0  0  0  0  0  0  0  0  0  0  0  0
   33.5420   51.8260   -5.6250 C   0  0  0  0  0  0  0  0  0  0  0  0
   35.0950   51.1820   -5.2550 Cl  0  0  0  0  0  0  0  0  0  0  0  0
   29.6630   50.6370   -5.5300 S   0  0  0  0  0  0  0  0  0  0  0  0
   32.3970   51.0420   -5.4410 C   0  0  0  0  0  0  0  0  0  0  0  0
   30.2040   49.2220   -4.8350 N   0  0  0  0  0  0  0  0  0  0  0  0
   28.8380   51.3190   -4.5610 O   0  0  0  0  0  0  0  0  0  0  0  0
   29.1630   50.2940   -6.8410 O   0  0  0  0  0  0  0  0  0  0  0  0
   29.7640   47.9210   -5.3190 C   0  0  0  0  0  0  0  0  0  0  0  0
   30.9300   46.9420   -5.3200 C   0  0  0  0  0  0  0  0  0  0  0  0
   31.2650   46.3980   -6.7050 C   0  0  0  0  0  0  0  0  0  0  0  0
   31.8620   45.1050   -6.5680 O   0  0  0  0  0  0  0  0  0  0  0  0
   33.1040   45.1300   -5.9960 C   0  0  0  0  0  0  0  0  0  0  0  0
   34.1430   45.3200   -6.6120 O   0  0  0  0  0  0  0  0  0  0  0  0
   32.9810   44.8860   -4.4940 C   0  0  0  0  0  0  0  0  0  0  0  0
   34.1980   44.6020   -3.8190 O   0  0  0  0  0  0  0  0  0  0  0  0
   35.0930   45.6130   -3.5730 C   0  0  0  0  0  0  0  0  0  0  0  0
   36.4660   45.4520   -3.3890 C   0  0  0  0  0  0  0  0  0  0  0  0
   34.5460   46.9000   -3.5090 C   0  0  0  0  0  0  0  0  0  0  0  0
   37.2790   46.5640   -3.1420 C   0  0  0  0  0  0  0  0  0  0  0  0
   35.3600   48.0110   -3.2630 C   0  0  0  0  0  0  0  0  0  0  0  0
   36.7290   47.8380   -3.0790 C   0  0  0  0  0  0  0  0  0  0  0  0
  1  2  1  0
  2  3  2  0
  2  4  1  0
  4  5  2  0
  3  6  1  0
  6  7  1  0
  5  8  1  0
  5  9  1  0
  6  9  2  0
  8 10  1  0
  8 11  2  0
  8 12  2  0
 10 13  1  0
 13 14  1  0
 14 15  1  0
 15 16  1  0
 16 17  1  0
 17 18  2  0
 17 19  1  0
 19 20  1  0
 20 21  1  0
 21 22  2  0
 21 23  1  0
 22 24  1  0
 23 25  2  0
 24 26  2  0
 25 26  1  0
M  END
