mac-x0303-mac-x0588
     RDKit          3D

 29 33  0  0  0  0  0  0  0  0999 V2000
   30.6030   56.4440   -6.8990 N   0  0  0  0  0  0  0  0  0  0  0  0
   29.2680   56.4340   -5.8770 S   0  0  0  0  0  0  0  0  0  0  0  0
   28.0910   56.5250   -6.7070 O   0  0  0  0  0  0  0  0  0  0  0  0
   29.5120   57.3310   -4.7730 O   0  0  0  0  0  0  0  0  0  0  0  0
   29.1970   54.8410   -5.1450 C   0  0  0  0  0  0  0  0  0  0  0  0
   29.5370   54.6280   -3.8400 N   0  0  0  0  0  0  0  0  0  0  0  0
   28.8240   53.7350   -5.7520 N   0  0  0  0  0  0  0  0  0  0  0  0
   29.3740   53.3020   -3.5720 C   0  0  0  0  0  0  0  0  0  0  0  0
   28.9290   52.7730   -4.7720 C   0  0  0  0  0  0  0  0  0  0  0  0
   29.5710   52.5470   -2.4170 C   0  0  0  0  0  0  0  0  0  0  0  0
   28.6550   51.4140   -4.8590 C   0  0  0  0  0  0  0  0  0  0  0  0
   28.2320   50.8190   -6.0120 N   0  0  0  0  0  0  0  0  0  0  0  0
   29.2930   51.1910   -2.5110 C   0  0  0  0  0  0  0  0  0  0  0  0
   28.8460   50.6410   -3.7040 C   0  0  0  0  0  0  0  0  0  0  0  0
   28.9290   49.5680   -5.9670 C   0  0  2  0  0  0  0  0  0  0  0  0
   30.3380   49.6080   -5.7070 N   0  0  0  0  0  0  0  0  0  0  0  0
   28.5700   48.4630   -6.9430 C   0  0  2  0  0  0  0  0  0  0  0  0
   30.6080   48.5450   -4.7940 C   0  0  0  0  0  0  0  0  0  0  0  0
   29.2390   47.1660   -6.3960 C   0  0  2  0  0  0  0  0  0  0  0  0
   28.9550   48.5760   -8.3530 N   0  0  0  0  0  0  0  0  0  0  0  0
   30.3870   47.2670   -5.4540 N   0  0  0  0  0  0  0  0  0  0  0  0
   29.7250   46.5280   -7.6330 N   0  0  0  0  0  0  0  0  0  0  0  0
   29.0730   47.2040   -8.7450 C   0  0  0  0  0  0  0  0  0  0  0  0
   30.4620   46.2030   -4.4240 C   0  0  0  0  0  0  0  0  0  0  0  0
   29.1800   45.7880   -3.6730 C   0  0  2  0  0  0  0  0  0  0  0  0
   29.0030   46.6570   -2.5260 O   0  0  0  0  0  0  0  0  0  0  0  0
   29.2540   44.3880   -3.0870 C   0  0  0  0  0  0  0  0  0  0  0  0
   28.2900   44.4620   -1.9350 C   0  0  0  0  0  0  0  0  0  0  0  0
   28.4450   45.8900   -1.4500 C   0  0  0  0  0  0  0  0  0  0  0  0
  2  1  1  0
  2  3  2  0
  2  4  2  0
  2  5  1  0
  5  6  1  0
  5  7  2  0
  6  8  1  0
  7  9  1  0
  8  9  2  0
  8 10  1  0
  9 11  1  0
 11 12  1  0
 10 13  2  0
 11 14  2  0
 13 14  1  0
 15 12  1  6
 15 16  1  0
 15 17  1  0
 16 18  1  0
 17 19  1  0
 17 20  1  6
 18 21  1  0
 19 21  1  0
 19 22  1  6
 20 23  1  0
 22 23  1  0
 21 24  1  0
 25 24  1  1
 25 26  1  0
 25 27  1  0
 27 28  1  0
 26 29  1  0
 28 29  1  0
M  END
