mac-x0584-mac-x0131
     RDKit          3D

 26 30  0  0  0  0  0  0  0  0999 V2000
   27.7570   49.6910   -8.3800 N   0  0  0  0  0  0  0  0  0  0  0  0
   28.8850   49.1460   -7.5900 N   0  0  0  0  0  0  0  0  0  0  0  0
   28.4250   47.9710   -6.8500 C   0  0  0  0  0  0  0  0  0  0  0  0
   29.4890   50.2330   -6.7690 C   0  0  2  0  0  0  0  0  0  0  0  0
   29.4870   47.1880   -6.2240 N   0  0  0  0  0  0  0  0  0  0  0  0
   28.6690   50.4240   -5.4330 C   0  0  2  0  0  0  0  0  0  0  0  0
   29.4390   51.6230   -7.3010 N   0  0  0  0  0  0  0  0  0  0  0  0
   29.5710   47.3490   -4.7890 C   0  0  1  0  0  0  0  0  0  0  0  0
   27.7520   51.5690   -5.8230 C   0  0  0  0  0  0  0  0  0  0  0  0
   28.2610   52.1970   -6.8860 C   0  0  0  0  0  0  0  0  0  0  0  0
   29.4950   50.6840   -4.1340 C   0  0  2  0  0  0  0  0  0  0  0  0
   30.4300   51.8960   -4.2550 C   0  0  0  0  0  0  0  0  0  0  0  0
   29.7820   46.1010   -4.0610 N   0  0  0  0  0  0  0  0  0  0  0  0
   30.1770   49.3910   -3.5390 C   0  0  1  0  0  0  0  0  0  0  0  0
   30.5700   48.3760   -4.5420 N   0  0  0  0  0  0  0  0  0  0  0  0
   31.3190   49.7780   -2.5790 C   0  0  0  0  0  0  0  0  0  0  0  0
   31.9920   48.0610   -4.6340 C   0  0  0  0  0  0  0  0  0  0  0  0
   30.7550   45.0840   -4.4770 C   0  0  1  0  0  0  0  0  0  0  0  0
   29.9990   46.3230   -2.6250 C   0  0  0  0  0  0  0  0  0  0  0  0
   32.1990   45.5490   -4.6320 C   0  0  2  0  0  0  0  0  0  0  0  0
   32.3770   46.8270   -5.4490 C   0  0  2  0  0  0  0  0  0  0  0  0
   30.6480   44.1070   -3.3040 C   0  0  0  0  0  0  0  0  0  0  0  0
   30.5590   45.0130   -2.0890 C   0  0  0  0  0  0  0  0  0  0  0  0
   33.8740   46.7880   -5.7740 C   0  0  0  0  0  0  0  0  0  0  0  0
   33.0880   44.5200   -5.3440 C   0  0  0  0  0  0  0  0  0  0  0  0
   34.1680   45.3220   -6.0690 C   0  0  0  0  0  0  0  0  0  0  0  0
  1  2  1  0
  2  3  1  0
  2  4  1  0
  3  5  1  0
  4  6  1  0
  4  7  1  6
  8  5  1  6
  6  9  1  6
  7 10  1  0
  9 10  2  0
  6 11  1  0
 11 12  1  6
  8 13  1  0
 11 14  1  0
  8 15  1  0
 14 15  1  0
 14 16  1  6
 15 17  1  0
 13 18  1  0
 13 19  1  0
 18 20  1  0
 21 17  1  1
 20 21  1  0
 18 22  1  1
 19 23  1  0
 22 23  1  0
 21 24  1  0
 20 25  1  6
 24 26  1  0
 25 26  1  0
M  END
