mac-x0522-mac-x0509
     RDKit          3D

 23 26  0  0  0  0  0  0  0  0999 V2000
   40.8700   40.9460   -0.4790 O   0  0  0  0  0  0  0  0  0  0  0  0
   39.8410   40.4640   -0.9350 C   0  0  0  0  0  0  0  0  0  0  0  0
   39.3800   40.5420   -2.2280 N   0  0  0  0  0  0  0  0  0  0  0  0
   38.9580   39.7010   -0.0050 C   0  0  0  0  0  0  0  0  0  0  0  0
   39.6090   41.5170   -3.1570 C   0  0  0  0  0  0  0  0  0  0  0  0
   39.2870   38.3640    0.2720 C   0  0  0  0  0  0  0  0  0  0  0  0
   37.8270   40.2720    0.5920 C   0  0  0  0  0  0  0  0  0  0  0  0
   40.3210   41.3190   -4.2680 N   0  0  0  0  0  0  0  0  0  0  0  0
   39.1460   43.0490   -3.2110 S   0  0  0  0  0  0  0  0  0  0  0  0
   38.4920   37.6110    1.1370 C   0  0  0  0  0  0  0  0  0  0  0  0
   37.0350   39.5130    1.4580 C   0  0  0  0  0  0  0  0  0  0  0  0
   39.7510   43.6550   -4.5900 C   0  0  0  0  0  0  0  0  0  0  0  0
   40.4060   42.5110   -5.0760 C   0  0  0  0  0  0  0  0  0  0  0  0
   37.3680   38.1850    1.7290 C   0  0  0  0  0  0  0  0  0  0  0  0
   38.3850   44.5400   -2.7330 C   0  0  2  0  0  0  0  0  0  0  0  0
   38.2830   43.0370   -1.7170 C   0  0  0  0  0  0  0  0  0  0  0  0
   36.8570   44.7270   -2.9740 C   0  0  1  0  0  0  0  0  0  0  0  0
   38.8710   45.6610   -3.4990 N   0  0  0  0  0  0  0  0  0  0  0  0
   36.8490   42.6560   -1.9340 C   0  0  0  0  0  0  0  0  0  0  0  0
   38.0460   45.9680   -4.5620 C   0  0  0  0  0  0  0  0  0  0  0  0
   36.7970   45.1390   -4.4460 C   0  0  0  0  0  0  0  0  0  0  0  0
   36.0980   43.5060   -2.5820 C   0  0  0  0  0  0  0  0  0  0  0  0
   38.2990   46.7780   -5.4380 O   0  0  0  0  0  0  0  0  0  0  0  0
  1  2  2  0
  2  3  1  0
  2  4  1  0
  3  5  1  0
  4  6  2  0
  4  7  1  0
  5  8  2  0
  5  9  1  0
  6 10  1  0
  7 11  2  0
  9 12  1  0
  8 13  1  0
 12 13  2  0
 10 14  2  0
 11 14  1  0
  9 15  1  0
  9 16  1  0
 15 17  1  0
 15 18  1  6
 16 19  1  0
 18 20  1  0
 17 21  1  6
 20 21  1  0
 17 22  1  0
 19 22  2  0
 20 23  2  0
M  END
