mac-x0568-mac-x0361
     RDKit          3D

 17 18  0  0  0  0  0  0  0  0999 V2000
   29.3050   54.3140   -5.1480 C   0  0  0  0  0  0  0  0  0  0  0  0
   28.7670   54.1930   -3.9290 C   0  0  0  0  0  0  0  0  0  0  0  0
   28.2310   55.2020   -3.1540 N   0  0  0  0  0  0  0  0  0  0  0  0
   29.8430   53.1620   -5.8710 C   0  0  0  0  0  0  0  0  0  0  0  0
   31.0650   52.7070   -5.5030 N   0  0  0  0  0  0  0  0  0  0  0  0
   29.0930   52.5740   -6.8800 C   0  0  0  0  0  0  0  0  0  0  0  0
   28.7630   52.8200   -3.3740 C   0  0  0  0  0  0  0  0  0  0  0  0
   31.5430   51.6270   -6.1580 C   0  0  0  0  0  0  0  0  0  0  0  0
   29.6140   51.4650   -7.5380 C   0  0  0  0  0  0  0  0  0  0  0  0
   28.1470   51.7900   -4.1030 C   0  0  0  0  0  0  0  0  0  0  0  0
   29.3600   52.5110   -2.1450 C   0  0  0  0  0  0  0  0  0  0  0  0
   30.8640   50.9700   -7.1750 C   0  0  0  0  0  0  0  0  0  0  0  0
   28.1270   50.4810   -3.6200 C   0  0  0  0  0  0  0  0  0  0  0  0
   29.3410   51.1980   -1.6590 C   0  0  0  0  0  0  0  0  0  0  0  0
   31.4570   49.7730   -7.8560 C   0  0  0  0  0  0  0  0  0  0  0  0
   28.7260   50.1860   -2.3970 C   0  0  0  0  0  0  0  0  0  0  0  0
   30.6790   48.5680   -7.5980 N   0  0  0  0  0  0  0  0  0  0  0  0
  1  2  2  3
  2  3  1  0
  1  4  1  0
  4  5  2  0
  4  6  1  0
  2  7  1  0
  5  8  1  0
  6  9  2  0
  7 10  2  0
  7 11  1  0
  8 12  2  0
  9 12  1  0
 10 13  1  0
 11 14  2  0
 12 15  1  0
 13 16  2  0
 14 16  1  0
 15 17  1  0
M  END
