mac-x0344-mac-x0282
     RDKit          3D

 22 24  0  0  0  0  0  0  0  0999 V2000
   31.8630   44.2540   -4.1160 O   0  0  0  0  0  0  0  0  0  0  0  0
   32.0320   45.0870   -5.1470 C   0  0  0  0  0  0  0  0  0  0  0  0
   31.0470   45.1270   -5.9970 N   0  0  0  0  0  0  0  0  0  0  0  0
   33.3930   45.8090   -5.0580 C   0  0  0  0  0  0  0  0  0  0  0  0
   33.7970   46.4480   -6.0160 O   0  0  0  0  0  0  0  0  0  0  0  0
   34.0040   45.6140   -3.8260 N   0  0  0  0  0  0  0  0  0  0  0  0
   31.0590   45.9800   -7.1980 C   0  0  0  0  0  0  0  0  0  0  0  0
   35.1400   46.2740   -3.2990 C   0  0  0  0  0  0  0  0  0  0  0  0
   30.2610   47.2660   -7.1070 C   0  0  0  0  0  0  0  0  0  0  0  0
   36.0990   45.4980   -2.6330 C   0  0  0  0  0  0  0  0  0  0  0  0
   35.3550   47.6530   -3.4050 C   0  0  0  0  0  0  0  0  0  0  0  0
   30.2800   48.0350   -5.9340 C   0  0  0  0  0  0  0  0  0  0  0  0
   29.4970   47.7360   -8.1840 C   0  0  0  0  0  0  0  0  0  0  0  0
   37.2470   46.0830   -2.0860 C   0  0  0  0  0  0  0  0  0  0  0  0
   36.5040   48.2370   -2.8570 C   0  0  0  0  0  0  0  0  0  0  0  0
   29.5510   49.2330   -5.9160 C   0  0  0  0  0  0  0  0  0  0  0  0
   28.7730   48.8840   -8.2130 N   0  0  0  0  0  0  0  0  0  0  0  0
   37.4480   47.4570   -2.2000 C   0  0  0  0  0  0  0  0  0  0  0  0
   29.3290   50.2680   -4.9660 C   0  0  0  0  0  0  0  0  0  0  0  0
   28.8490   49.5770   -7.0610 C   0  0  0  0  0  0  0  0  0  0  0  0
   28.5100   51.2040   -5.5590 C   0  0  0  0  0  0  0  0  0  0  0  0
   28.2250   50.7730   -6.8300 N   0  0  0  0  0  0  0  0  0  0  0  0
  1  2  1  0
  2  3  2  3
  2  4  1  0
  4  5  2  0
  4  6  1  0
  3  7  1  0
  6  8  1  0
  7  9  1  0
  8 10  2  0
  8 11  1  0
  9 12  2  0
  9 13  1  0
 10 14  1  0
 11 15  2  0
 12 16  1  0
 13 17  2  0
 14 18  2  0
 15 18  1  0
 16 19  1  0
 16 20  2  0
 17 20  1  0
 19 21  2  0
 20 22  1  0
 21 22  1  0
M  END
