mac-x0441-mac-x0387
     RDKit          3D

 30 33  0  0  0  0  0  0  0  0999 V2000
   33.8650   44.8070   -6.2580 O   0  0  0  0  0  0  0  0  0  0  0  0
   32.8030   44.9860   -5.4360 C   0  0  0  0  0  0  0  0  0  0  0  0
   31.6990   44.4500   -5.8170 N   0  0  0  0  0  0  0  0  0  0  0  0
   33.0930   45.8040   -4.1950 C   0  0  0  0  0  0  0  0  0  0  0  0
   30.4620   44.5490   -5.0490 C   0  0  0  0  0  0  0  0  0  0  0  0
   34.3040   45.3780   -3.5070 N   0  0  0  0  0  0  0  0  0  0  0  0
   29.3910   45.3390   -5.8180 C   0  0  0  0  0  0  0  0  0  0  0  0
   34.3800   44.1060   -3.0420 N   0  0  0  0  0  0  0  0  0  0  0  0
   35.4290   46.1040   -3.2480 C   0  0  0  0  0  0  0  0  0  0  0  0
   35.6030   44.0220   -2.4620 C   0  0  0  0  0  0  0  0  0  0  0  0
   36.2890   45.2620   -2.5750 C   0  0  0  0  0  0  0  0  0  0  0  0
   35.6970   47.5230   -3.6060 C   0  0  0  0  0  0  0  0  0  0  0  0
   29.4110   46.8360   -5.5500 C   0  0  0  0  0  0  0  0  0  0  0  0
   36.1240   42.7670   -1.7990 C   0  0  0  0  0  0  0  0  0  0  0  0
   37.6380   45.6820   -2.1070 C   0  0  0  0  0  0  0  0  0  0  0  0
   36.9280   48.0320   -2.8290 C   0  0  0  0  0  0  0  0  0  0  0  0
   29.1640   47.8070   -6.5650 C   0  0  0  0  0  0  0  0  0  0  0  0
   29.6850   47.2550   -4.2380 C   0  0  0  0  0  0  0  0  0  0  0  0
   37.1290   42.1960   -2.5170 F   0  0  0  0  0  0  0  0  0  0  0  0
   36.6110   42.9810   -0.5490 F   0  0  0  0  0  0  0  0  0  0  0  0
   35.1530   41.8220   -1.6800 F   0  0  0  0  0  0  0  0  0  0  0  0
   38.0680   46.9960   -2.7890 C   0  0  0  0  0  0  0  0  0  0  0  0
   29.2000   49.1850   -6.2340 C   0  0  0  0  0  0  0  0  0  0  0  0
   28.8820   47.4690   -7.9010 C   0  0  0  0  0  0  0  0  0  0  0  0
   29.7210   48.6030   -3.9140 C   0  0  0  0  0  0  0  0  0  0  0  0
   28.9510   50.1280   -7.2650 C   0  0  0  0  0  0  0  0  0  0  0  0
   28.6550   48.4700   -8.8290 C   0  0  0  0  0  0  0  0  0  0  0  0
   29.4820   49.5560   -4.8990 C   0  0  0  0  0  0  0  0  0  0  0  0
   28.9700   51.5100   -7.0160 N   0  0  0  0  0  0  0  0  0  0  0  0
   28.6830   49.7800   -8.5360 N   0  0  0  0  0  0  0  0  0  0  0  0
  1  2  1  0
  2  3  2  3
  2  4  1  0
  3  5  1  0
  4  6  1  0
  5  7  1  0
  6  8  1  0
  6  9  1  0
  8 10  2  0
  9 11  2  0
 10 11  1  0
  9 12  1  0
  7 13  1  0
 10 14  1  0
 11 15  1  0
 12 16  1  0
 13 17  1  0
 13 18  2  0
 14 19  1  0
 14 20  1  0
 14 21  1  0
 15 22  1  0
 16 22  1  0
 17 23  2  0
 17 24  1  0
 18 25  1  0
 23 26  1  0
 24 27  2  0
 23 28  1  0
 25 28  2  0
 26 29  1  0
 26 30  2  0
 27 30  1  0
M  END
