mac-x0453-mac-x0379
     RDKit          3D

 11 11  0  0  0  0  0  0  0  0999 V2000
   29.5430   54.6070   -6.8290 N   0  0  0  0  0  0  0  0  0  0  0  0
   30.0170   53.3830   -6.1600 C   0  0  0  0  0  0  0  0  0  0  0  0
   28.9490   52.2840   -6.1040 C   0  0  0  0  0  0  0  0  0  0  0  0
   29.3550   51.0570   -5.3380 C   0  0  0  0  0  0  0  0  0  0  0  0
   29.4470   49.7370   -5.7690 C   0  0  0  0  0  0  0  0  0  0  0  0
   29.7010   51.1370   -4.0210 N   0  0  0  0  0  0  0  0  0  0  0  0
   29.8600   48.9840   -4.6700 N   0  0  0  0  0  0  0  0  0  0  0  0
   29.9930   49.9070   -3.6510 C   0  0  0  0  0  0  0  0  0  0  0  0
   30.1190   47.5890   -4.5070 C   0  0  0  0  0  0  0  0  0  0  0  0
   30.7930   47.1770   -3.5700 O   0  0  0  0  0  0  0  0  0  0  0  0
   29.5600   46.7810   -5.4400 O   0  0  0  0  0  0  0  0  0  0  0  0
  1  2  1  0
  2  3  1  0
  3  4  1  0
  4  5  2  0
  4  6  1  0
  5  7  1  0
  6  8  2  0
  7  8  1  0
  7  9  1  0
  9 10  2  0
  9 11  1  0
M  END
