mac-x0277-mac-x0510
     RDKit          3D

 25 27  0  0  0  0  0  0  0  0999 V2000
   27.5220   45.7580   -1.0460 Cl  0  0  0  0  0  0  0  0  0  0  0  0
   28.9550   45.5150   -1.9800 C   0  0  0  0  0  0  0  0  0  0  0  0
   29.9900   46.4610   -2.0130 C   0  0  0  0  0  0  0  0  0  0  0  0
   29.0540   44.3300   -2.7130 C   0  0  0  0  0  0  0  0  0  0  0  0
   29.9290   47.7570   -1.2430 C   0  0  0  0  0  0  0  0  0  0  0  0
   31.1260   46.1860   -2.8000 C   0  0  0  0  0  0  0  0  0  0  0  0
   30.1860   44.0720   -3.4900 C   0  0  0  0  0  0  0  0  0  0  0  0
   28.8480   48.7310   -1.7360 C   0  0  0  0  0  0  0  0  0  0  0  0
   31.2350   44.9990   -3.5400 C   0  0  0  0  0  0  0  0  0  0  0  0
   32.4670   44.7210   -4.3750 C   0  0  0  0  0  0  0  0  0  0  0  0
   28.7540   48.8310   -3.2630 C   0  0  0  0  0  0  0  0  0  0  0  0
   32.5660   45.5320   -5.6460 C   0  0  0  0  0  0  0  0  0  0  0  0
   29.1900   50.1620   -3.6410 N   0  0  0  0  0  0  0  0  0  0  0  0
   33.5350   46.4700   -5.5680 O   0  0  0  0  0  0  0  0  0  0  0  0
   31.9070   45.4260   -6.6670 O   0  0  0  0  0  0  0  0  0  0  0  0
   29.2030   50.5820   -4.8500 C   0  0  0  0  0  0  0  0  0  0  0  0
   28.7890   49.7670   -5.9370 C   0  0  0  0  0  0  0  0  0  0  0  0
   29.6000   51.8300   -5.2610 N   0  0  0  0  0  0  0  0  0  0  0  0
   29.1800   52.4330   -6.4310 C   0  0  0  0  0  0  0  0  0  0  0  0
   28.5980   50.2680   -7.1920 C   0  0  0  0  0  0  0  0  0  0  0  0
   28.4990   48.4400   -6.0430 N   0  0  0  0  0  0  0  0  0  0  0  0
   29.1520   53.6570   -6.5370 O   0  0  0  0  0  0  0  0  0  0  0  0
   28.8020   51.5920   -7.4470 N   0  0  0  0  0  0  0  0  0  0  0  0
   28.2050   49.3200   -8.0760 N   0  0  0  0  0  0  0  0  0  0  0  0
   28.1530   48.2150   -7.3530 C   0  0  0  0  0  0  0  0  0  0  0  0
  1  2  1  0
  2  3  2  0
  2  4  1  0
  3  5  1  0
  3  6  1  0
  4  7  2  0
  5  8  1  0
  6  9  2  0
  7  9  1  0
  9 10  1  0
  8 11  1  0
 10 12  1  0
 11 13  1  0
 12 14  1  0
 12 15  2  0
 13 16  2  3
 16 17  1  0
 16 18  1  0
 18 19  1  0
 17 20  2  0
 17 21  1  0
 19 22  2  0
 19 23  1  0
 20 23  1  0
 20 24  1  0
 21 25  1  0
 24 25  2  0
M  END
