mac-x0204-mac-x0472
     RDKit          3D

 25 27  0  0  0  0  0  0  0  0999 V2000
   32.0020   43.6890   -5.5170 O   0  0  0  0  0  0  0  0  0  0  0  0
   31.1050   43.9500   -4.5440 C   0  0  0  0  0  0  0  0  0  0  0  0
   30.3160   43.1310   -4.1100 O   0  0  0  0  0  0  0  0  0  0  0  0
   31.1720   45.3350   -4.0530 C   0  0  0  0  0  0  0  0  0  0  0  0
   30.2620   45.7830   -3.0950 C   0  0  0  0  0  0  0  0  0  0  0  0
   32.1340   46.2200   -4.5280 C   0  0  0  0  0  0  0  0  0  0  0  0
   30.3670   47.0990   -2.6630 C   0  0  0  0  0  0  0  0  0  0  0  0
   32.2530   47.5070   -4.1190 N   0  0  0  0  0  0  0  0  0  0  0  0
   29.4860   47.5630   -1.7220 O   0  0  0  0  0  0  0  0  0  0  0  0
   31.3660   47.9220   -3.1940 C   0  0  0  0  0  0  0  0  0  0  0  0
   31.4470   49.3000   -2.7180 N   0  0  0  0  0  0  0  0  0  0  0  0
   30.9170   50.4130   -3.6380 S   0  0  2  0  0  0  0  0  0  0  0  0
   30.0600   51.4960   -3.1990 O   0  0  0  0  0  0  0  0  0  0  0  0
   29.9640   49.6570   -4.8050 N   0  0  0  0  0  0  0  0  0  0  0  0
   32.3020   51.1930   -4.4430 C   0  0  0  0  0  0  0  0  0  0  0  0
   29.4520   50.3520   -5.8480 C   0  0  0  0  0  0  0  0  0  0  0  0
   33.3770   50.4360   -4.9240 C   0  0  0  0  0  0  0  0  0  0  0  0
   32.2970   52.5860   -4.5860 C   0  0  0  0  0  0  0  0  0  0  0  0
   28.6080   49.8150   -6.7090 N   0  0  0  0  0  0  0  0  0  0  0  0
   29.8070   52.0040   -6.2120 S   0  0  0  0  0  0  0  0  0  0  0  0
   34.4460   51.0770   -5.5490 C   0  0  0  0  0  0  0  0  0  0  0  0
   33.3700   53.2190   -5.2130 C   0  0  0  0  0  0  0  0  0  0  0  0
   28.7580   51.8700   -7.5540 C   0  0  0  0  0  0  0  0  0  0  0  0
   28.2030   50.6880   -7.6980 N   0  0  0  0  0  0  0  0  0  0  0  0
   34.4410   52.4660   -5.6930 C   0  0  0  0  0  0  0  0  0  0  0  0
  1  2  1  0
  2  3  2  0
  2  4  1  0
  4  5  2  0
  4  6  1  0
  5  7  1  0
  6  8  2  0
  7  9  1  0
  7 10  2  0
  8 10  1  0
 10 11  1  0
 11 12  2  0
 12 13  2  0
 12 14  1  6
 12 15  1  0
 14 16  1  0
 15 17  2  0
 15 18  1  0
 16 19  2  0
 16 20  1  0
 17 21  1  0
 18 22  2  0
 20 23  1  0
 19 24  1  0
 23 24  2  0
 21 25  2  0
 22 25  1  0
M  END
