mac-x0182-mac-x1493
     RDKit          3D

 26 29  0  0  0  0  0  0  0  0999 V2000
   34.4320   43.2870   -2.6310 O   0  0  0  0  0  0  0  0  0  0  0  0
   34.5880   44.3540   -3.2000 C   0  0  0  0  0  0  0  0  0  0  0  0
   33.7760   44.8480   -4.1900 N   0  0  0  0  0  0  0  0  0  0  0  0
   35.7020   45.2910   -2.9010 C   0  0  0  0  0  0  0  0  0  0  0  0
   33.9990   46.5100   -4.3200 S   0  0  2  0  0  0  0  0  0  0  0  0
   35.5100   46.5400   -3.4740 C   0  0  0  0  0  0  0  0  0  0  0  0
   36.8400   45.0350   -2.1510 C   0  0  0  0  0  0  0  0  0  0  0  0
   32.9370   47.0580   -3.3780 N   0  0  0  0  0  0  0  0  0  0  0  0
   34.2240   46.7680   -5.7240 O   0  0  0  0  0  0  0  0  0  0  0  0
   36.4070   47.5830   -3.3410 C   0  0  0  0  0  0  0  0  0  0  0  0
   37.7720   46.0710   -1.9960 C   0  0  0  0  0  0  0  0  0  0  0  0
   31.5090   46.9560   -3.6560 C   0  0  0  0  0  0  0  0  0  0  0  0
   37.5590   47.3320   -2.5880 C   0  0  0  0  0  0  0  0  0  0  0  0
   31.1100   48.3380   -3.6090 N   0  0  0  0  0  0  0  0  0  0  0  0
   30.3070   48.8720   -4.4300 C   0  0  0  0  0  0  0  0  0  0  0  0
   29.7270   48.1310   -5.3880 O   0  0  0  0  0  0  0  0  0  0  0  0
   29.9460   50.2720   -4.5120 C   0  0  0  0  0  0  0  0  0  0  0  0
   29.3580   50.8200   -5.6420 C   0  0  0  0  0  0  0  0  0  0  0  0
   30.2260   51.0880   -3.4330 C   0  0  0  0  0  0  0  0  0  0  0  0
   29.0820   52.1910   -5.6560 C   0  0  0  0  0  0  0  0  0  0  0  0
   29.9660   52.4140   -3.4140 N   0  0  0  0  0  0  0  0  0  0  0  0
   29.4090   52.9560   -4.5100 C   0  0  0  0  0  0  0  0  0  0  0  0
   28.4990   52.8060   -6.7750 C   0  0  0  0  0  0  0  0  0  0  0  0
   29.1450   54.3160   -4.5340 C   0  0  0  0  0  0  0  0  0  0  0  0
   28.2450   54.1750   -6.7690 C   0  0  0  0  0  0  0  0  0  0  0  0
   28.5680   54.9310   -5.6480 C   0  0  0  0  0  0  0  0  0  0  0  0
  1  2  2  0
  2  3  1  0
  2  4  1  0
  5  3  1  6
  4  6  2  0
  5  6  1  0
  4  7  1  0
  5  8  2  0
  5  9  2  0
  6 10  1  0
  7 11  2  0
  8 12  1  0
 10 13  2  0
 11 13  1  0
 12 14  1  0
 14 15  2  3
 15 16  1  0
 15 17  1  0
 17 18  2  0
 17 19  1  0
 18 20  1  0
 19 21  2  0
 20 22  2  0
 21 22  1  0
 20 23  1  0
 22 24  1  0
 23 25  2  0
 24 26  2  0
 25 26  1  0
M  END
