mac-x0361-mac-x0373
     RDKit          3D

 19 20  0  0  0  0  0  0  0  0999 V2000
   28.5740   53.7190   -6.0030 N   0  0  0  0  0  0  0  0  0  0  0  0
   29.2580   53.4120   -4.8580 C   0  0  0  0  0  0  0  0  0  0  0  0
   29.5780   54.2930   -4.0700 O   0  0  0  0  0  0  0  0  0  0  0  0
   29.6080   51.9820   -4.6260 C   0  0  0  0  0  0  0  0  0  0  0  0
   29.6030   51.1400   -5.7370 C   0  0  0  0  0  0  0  0  0  0  0  0
   29.9390   51.4520   -3.3700 C   0  0  0  0  0  0  0  0  0  0  0  0
   29.9350   49.7900   -5.6150 C   0  0  0  0  0  0  0  0  0  0  0  0
   30.2730   50.0880   -3.2510 C   0  0  0  0  0  0  0  0  0  0  0  0
   30.2800   49.2350   -4.3830 C   0  0  0  0  0  0  0  0  0  0  0  0
   30.6490   47.8420   -4.3080 N   0  0  0  0  0  0  0  0  0  0  0  0
   30.2540   46.9370   -5.3290 C   0  0  0  0  0  0  0  0  0  0  0  0
   32.0490   47.7760   -3.9940 C   0  0  0  0  0  0  0  0  0  0  0  0
   31.1030   46.8600   -6.3900 O   0  0  0  0  0  0  0  0  0  0  0  0
   29.2680   46.2090   -5.3880 O   0  0  0  0  0  0  0  0  0  0  0  0
   32.6490   46.6660   -3.3750 C   0  0  0  0  0  0  0  0  0  0  0  0
   32.8700   48.8670   -4.3180 C   0  0  0  0  0  0  0  0  0  0  0  0
   34.0210   46.6570   -3.0930 C   0  0  0  0  0  0  0  0  0  0  0  0
   34.2360   48.8600   -4.0380 C   0  0  0  0  0  0  0  0  0  0  0  0
   34.8120   47.7540   -3.4260 C   0  0  0  0  0  0  0  0  0  0  0  0
  1  2  1  0
  2  3  2  0
  2  4  1  0
  4  5  2  0
  4  6  1  0
  5  7  1  0
  6  8  2  0
  7  9  2  0
  8  9  1  0
  9 10  1  0
 10 11  1  0
 10 12  1  0
 11 13  1  0
 11 14  2  0
 12 15  2  0
 12 16  1  0
 15 17  1  0
 16 18  2  0
 17 19  2  0
 18 19  1  0
M  END
