mac-x0115-mac-x0204
     RDKit          3D

 25 27  0  0  0  0  0  0  0  0999 V2000
   27.9530   45.4610   -1.7890 C   0  0  0  0  0  0  0  0  0  0  0  0
   28.7770   44.3530   -2.4370 C   0  0  0  0  0  0  0  0  0  0  0  0
   28.0010   43.0480   -2.4830 C   0  0  0  0  0  0  0  0  0  0  0  0
   29.0790   44.7030   -3.7910 O   0  0  0  0  0  0  0  0  0  0  0  0
   30.3930   44.2970   -4.2270 C   0  0  0  0  0  0  0  0  0  0  0  0
   31.1400   45.4910   -4.9390 C   0  0  1  0  0  0  0  0  0  0  0  0
   32.3360   45.0020   -5.5490 O   0  0  0  0  0  0  0  0  0  0  0  0
   30.3280   46.1160   -6.0570 N   0  0  0  0  0  0  0  0  0  0  0  0
   31.5410   46.4380   -3.7890 C   0  0  0  0  0  0  0  0  0  0  0  0
   30.0270   45.4480   -7.2760 C   0  0  0  0  0  0  0  0  0  0  0  0
   29.9300   47.4470   -5.9870 C   0  0  0  0  0  0  0  0  0  0  0  0
   30.6870   46.6870   -2.6940 C   0  0  0  0  0  0  0  0  0  0  0  0
   32.7750   47.0980   -3.7720 C   0  0  0  0  0  0  0  0  0  0  0  0
   30.3780   43.8630   -7.7070 S   0  0  0  0  0  0  0  0  0  0  0  0
   29.3570   46.1890   -8.2420 N   0  0  0  0  0  0  0  0  0  0  0  0
   29.9970   48.2770   -7.2210 C   0  0  1  0  0  0  0  0  0  0  0  0
   29.4680   48.1520   -4.9540 C   0  0  0  0  0  0  0  0  0  0  0  0
   31.0870   47.5440   -1.6790 C   0  0  0  0  0  0  0  0  0  0  0  0
   33.1880   47.9400   -2.7900 N   0  0  0  0  0  0  0  0  0  0  0  0
   30.2920   47.8090   -0.6060 O   0  0  0  0  0  0  0  0  0  0  0  0
   29.2160   47.5620   -8.3020 C   0  0  0  0  0  0  0  0  0  0  0  0
   29.4780   49.6090   -6.8270 N   0  0  0  0  0  0  0  0  0  0  0  0
   29.2200   49.4570   -5.5590 C   0  0  0  0  0  0  0  0  0  0  0  0
   32.3320   48.1430   -1.7650 C   0  0  0  0  0  0  0  0  0  0  0  0
   28.5220   48.0930   -9.1600 O   0  0  0  0  0  0  0  0  0  0  0  0
  1  2  1  0
  2  3  1  0
  2  4  1  0
  4  5  1  0
  5  6  1  0
  6  7  1  6
  6  8  1  0
  6  9  1  0
  8 10  1  0
  8 11  1  0
  9 12  2  0
  9 13  1  0
 10 14  2  0
 10 15  1  0
 11 16  1  0
 11 17  2  0
 12 18  1  0
 13 19  2  0
 18 20  1  0
 15 21  1  0
 16 21  1  0
 16 22  1  1
 17 23  1  0
 22 23  2  0
 18 24  2  0
 19 24  1  0
 21 25  2  0
M  END
