mac-x0178-mac-x0392
     RDKit          3D

 22 23  0  0  0  0  0  0  0  0999 V2000
   28.4500   44.6380   -0.0890 N   0  0  0  0  0  0  0  0  0  0  0  0
   28.7450   46.2840   -0.3220 S   0  0  0  0  0  0  0  0  0  0  0  0
   29.7130   46.6670    0.6910 O   0  0  0  0  0  0  0  0  0  0  0  0
   27.4760   46.9620   -0.4830 O   0  0  0  0  0  0  0  0  0  0  0  0
   29.5660   46.2970   -1.8900 C   0  0  0  0  0  0  0  0  0  0  0  0
   29.0400   45.5820   -2.9730 C   0  0  0  0  0  0  0  0  0  0  0  0
   30.7380   47.0350   -2.0220 C   0  0  0  0  0  0  0  0  0  0  0  0
   29.6970   45.6170   -4.2000 C   0  0  0  0  0  0  0  0  0  0  0  0
   31.3870   47.0650   -3.2480 C   0  0  0  0  0  0  0  0  0  0  0  0
   30.8770   46.3600   -4.3560 C   0  0  0  0  0  0  0  0  0  0  0  0
   31.6150   46.4400   -5.6810 C   0  0  0  0  0  0  0  0  0  0  0  0
   30.9230   45.6860   -6.6600 O   0  0  0  0  0  0  0  0  0  0  0  0
   32.8960   45.8550   -5.6190 O   0  0  0  0  0  0  0  0  0  0  0  0
   31.6950   47.9560   -6.0480 C   0  0  0  0  0  0  0  0  0  0  0  0
   32.7900   48.5140   -6.1370 O   0  0  0  0  0  0  0  0  0  0  0  0
   30.4500   48.7870   -6.2690 C   0  0  0  0  0  0  0  0  0  0  0  0
   29.5890   48.5130   -7.3550 C   0  0  0  0  0  0  0  0  0  0  0  0
   30.1310   49.8440   -5.4060 C   0  0  0  0  0  0  0  0  0  0  0  0
   29.8040   47.4790   -8.2820 N   0  0  0  0  0  0  0  0  0  0  0  0
   28.9880   50.5890   -5.6440 C   0  0  0  0  0  0  0  0  0  0  0  0
   28.4660   49.3330   -7.4940 C   0  0  0  0  0  0  0  0  0  0  0  0
   28.1470   50.3580   -6.6720 N   0  0  0  0  0  0  0  0  0  0  0  0
  2  1  1  0
  2  3  2  0
  2  4  2  0
  2  5  1  0
  5  6  2  0
  5  7  1  0
  6  8  1  0
  7  9  2  0
  8 10  2  0
  9 10  1  0
 10 11  1  0
 11 12  1  0
 11 13  1  0
 11 14  1  0
 14 15  2  0
 14 16  1  0
 16 17  2  0
 16 18  1  0
 17 19  1  0
 18 20  2  0
 17 21  1  0
 20 22  1  0
 21 22  2  0
M  END
