mac-242_0_A_α-5CB5_0_I_γ
     RDKit          3D

 18 20  0  0  0  0  0  0  0  0999 V2000
   -3.7380   15.0780    1.7190 N   0  0  0  0  0  0  0  0  0  0  0  0
   -2.7260   14.2670    1.0800 C   0  0  2  0  0  0  0  0  0  0  0  0
   -1.4310   14.3180    1.7050 N   0  0  0  0  0  0  0  0  0  0  0  0
   -2.5820   14.6780   -0.4040 C   0  0  1  0  0  0  0  0  0  0  0  0
   -1.1230   14.6080   -1.0080 C   0  0  1  0  0  0  0  0  0  0  0  0
   -0.3780   13.6880    1.1270 C   0  0  0  0  0  0  0  0  0  0  0  0
   -3.6290   14.0130   -1.2900 C   0  0  0  0  0  0  0  0  0  0  0  0
   -0.1680   13.7600   -0.1880 C   0  0  0  0  0  0  0  0  0  0  0  0
   -1.0690   14.6800   -2.6170 C   0  0  1  0  0  0  0  0  0  0  0  0
   -3.5940   14.6530   -2.6290 C   0  0  0  0  0  0  0  0  0  0  0  0
   -2.4360   14.9560   -3.2220 C   0  0  0  0  0  0  0  0  0  0  0  0
   -0.2060   15.8090   -2.9380 O   0  0  0  0  0  0  0  0  0  0  0  0
   -0.3680   13.5590   -3.4510 C   0  0  1  0  0  0  0  0  0  0  0  0
   -1.2280   12.4680   -3.8250 O   0  0  0  0  0  0  0  0  0  0  0  0
    0.4250   15.6610   -4.2250 C   0  0  1  0  0  0  0  0  0  0  0  0
   -0.0050   14.2910   -4.7610 C   0  0  1  0  0  0  0  0  0  0  0  0
    0.1100   16.8830   -5.0800 C   0  0  0  0  0  0  0  0  0  0  0  0
    1.0260   13.5900   -5.4540 O   0  0  0  0  0  0  0  0  0  0  0  0
  2  1  1  1
  2  3  1  0
  2  4  1  0
  4  5  1  0
  3  6  1  0
  4  7  1  6
  5  8  1  6
  6  8  2  0
  5  9  1  0
  7 10  1  0
  9 11  1  6
 10 11  2  0
  9 12  1  0
  9 13  1  0
 13 14  1  6
 12 15  1  0
 13 16  1  0
 15 16  1  0
 15 17  1  6
 16 18  1  1
M  END
