mac-x0319-mac-x0379
     RDKit          3D

 19 20  0  0  0  0  0  0  0  0999 V2000
   34.4770   46.0910   -6.6170 O   0  0  0  0  0  0  0  0  0  0  0  0
   33.2950   45.5410   -6.2630 C   0  0  0  0  0  0  0  0  0  0  0  0
   32.4540   45.3200   -7.1200 O   0  0  0  0  0  0  0  0  0  0  0  0
   33.2180   45.2770   -4.7770 C   0  0  0  0  0  0  0  0  0  0  0  0
   31.8150   45.2850   -4.2120 C   0  0  0  0  0  0  0  0  0  0  0  0
   31.3810   44.2460   -3.3790 C   0  0  0  0  0  0  0  0  0  0  0  0
   30.9270   46.3270   -4.5150 C   0  0  0  0  0  0  0  0  0  0  0  0
   30.0900   44.2580   -2.8670 C   0  0  0  0  0  0  0  0  0  0  0  0
   29.6180   46.3400   -3.9970 C   0  0  0  0  0  0  0  0  0  0  0  0
   29.7100   43.2240   -2.0640 O   0  0  0  0  0  0  0  0  0  0  0  0
   29.2100   45.2890   -3.1640 C   0  0  0  0  0  0  0  0  0  0  0  0
   28.6710   47.4690   -4.3410 C   0  0  2  0  0  0  0  0  0  0  0  0
   28.1840   47.3060   -5.6730 O   0  0  0  0  0  0  0  0  0  0  0  0
   29.2750   48.8330   -4.2690 C   0  0  0  0  0  0  0  0  0  0  0  0
   30.1430   49.3780   -3.3470 C   0  0  0  0  0  0  0  0  0  0  0  0
   28.9090   50.0100   -5.4640 S   0  0  0  0  0  0  0  0  0  0  0  0
   29.9210   51.1390   -4.6600 C   0  0  0  0  0  0  0  0  0  0  0  0
   30.5110   50.6930   -3.5710 N   0  0  0  0  0  0  0  0  0  0  0  0
   30.0820   52.5130   -5.2050 C   0  0  0  0  0  0  0  0  0  0  0  0
  1  2  1  0
  2  3  2  0
  2  4  1  0
  4  5  1  0
  5  6  2  0
  5  7  1  0
  6  8  1  0
  7  9  2  0
  8 10  1  0
  8 11  2  0
  9 11  1  0
  9 12  1  0
 12 13  1  6
 12 14  1  0
 14 15  2  0
 14 16  1  0
 16 17  1  0
 15 18  1  0
 17 18  2  0
 17 19  1  0
M  END
