mac-x0360-mac-x0283
     RDKit          3D

 22 24  0  0  0  0  0  0  0  0999 V2000
   32.0250   54.0340   -7.9790 Cl  0  0  0  0  0  0  0  0  0  0  0  0
   32.5390   52.8070   -6.8860 C   0  0  0  0  0  0  0  0  0  0  0  0
   33.8690   52.7840   -6.4650 C   0  0  0  0  0  0  0  0  0  0  0  0
   31.6330   51.8500   -6.4270 C   0  0  0  0  0  0  0  0  0  0  0  0
   32.0780   50.8660   -5.5400 C   0  0  0  0  0  0  0  0  0  0  0  0
   34.2930   51.7950   -5.5820 C   0  0  0  0  0  0  0  0  0  0  0  0
   35.9340   51.7660   -5.0640 Cl  0  0  0  0  0  0  0  0  0  0  0  0
   30.9620   49.6370   -4.9360 S   0  0  1  0  0  0  0  0  0  0  0  0
   33.4070   50.8290   -5.1110 C   0  0  0  0  0  0  0  0  0  0  0  0
   31.6700   48.7720   -3.6880 N   0  0  0  0  0  0  0  0  0  0  0  0
   29.8710   50.3690   -4.1650 N   0  0  0  0  0  0  0  0  0  0  0  0
   30.8000   48.6290   -5.9530 O   0  0  0  0  0  0  0  0  0  0  0  0
   29.0210   51.2400   -4.9630 C   0  0  0  0  0  0  0  0  0  0  0  0
   28.8130   52.5930   -4.6980 C   0  0  0  0  0  0  0  0  0  0  0  0
   28.3650   50.7020   -6.0730 C   0  0  0  0  0  0  0  0  0  0  0  0
   29.3380   53.3340   -3.6790 O   0  0  0  0  0  0  0  0  0  0  0  0
   28.0050   53.4060   -5.4750 C   0  0  0  0  0  0  0  0  0  0  0  0
   27.5420   51.4900   -6.8790 C   0  0  0  0  0  0  0  0  0  0  0  0
   28.0930   54.6700   -4.8470 C   0  0  0  0  0  0  0  0  0  0  0  0
   28.8850   54.6400   -3.7730 N   0  0  0  0  0  0  0  0  0  0  0  0
   27.3540   52.8480   -6.5910 C   0  0  0  0  0  0  0  0  0  0  0  0
   27.4510   55.7700   -5.2860 N   0  0  0  0  0  0  0  0  0  0  0  0
  1  2  1  0
  2  3  2  0
  2  4  1  0
  4  5  2  0
  3  6  1  0
  6  7  1  0
  5  8  1  0
  5  9  1  0
  6  9  2  0
  8 10  1  1
  8 11  2  0
  8 12  2  0
 11 13  1  0
 13 14  1  0
 13 15  2  0
 14 16  1  0
 14 17  2  0
 15 18  1  0
 17 19  1  0
 16 20  1  0
 19 20  2  0
 17 21  1  0
 18 21  2  0
 19 22  1  0
M  END
