mac-x0451-mac-x0584
     RDKit          3D

 25 29  0  0  0  0  0  0  0  0999 V2000
   27.5090   53.3950   -6.9470 N   0  0  0  0  0  0  0  0  0  0  0  0
   28.3330   52.3990   -6.5760 C   0  0  0  0  0  0  0  0  0  0  0  0
   29.0900   52.4500   -5.5060 N   0  0  0  0  0  0  0  0  0  0  0  0
   28.4550   50.9530   -7.5020 S   0  0  0  0  0  0  0  0  0  0  0  0
   29.8050   51.2850   -5.4200 C   0  0  0  0  0  0  0  0  0  0  0  0
   29.6100   50.3330   -6.4080 C   0  0  0  0  0  0  0  0  0  0  0  0
   30.7190   51.0520   -4.3630 C   0  0  0  0  0  0  0  0  0  0  0  0
   30.3550   48.9670   -6.4660 C   0  0  2  0  0  0  0  0  0  0  0  0
   31.6300   50.0660   -4.4560 C   0  0  0  0  0  0  0  0  0  0  0  0
   31.7150   49.1690   -5.6870 C   0  0  2  0  0  0  0  0  0  0  0  0
   30.6130   48.7260   -7.9750 C   0  0  0  0  0  0  0  0  0  0  0  0
   29.6270   47.6570   -6.0330 C   0  0  1  0  0  0  0  0  0  0  0  0
   32.6290   49.7370   -6.5240 F   0  0  0  0  0  0  0  0  0  0  0  0
   29.4710   47.2970   -4.6080 N   0  0  0  0  0  0  0  0  0  0  0  0
   28.3990   47.4320   -6.7850 N   0  0  0  0  0  0  0  0  0  0  0  0
   29.3930   48.4180   -8.7450 N   0  0  0  0  0  0  0  0  0  0  0  0
   30.1570   46.0570   -4.1870 C   0  0  1  0  0  0  0  0  0  0  0  0
   29.6560   48.3070   -3.5570 C   0  0  0  0  0  0  0  0  0  0  0  0
   28.5910   47.3250   -8.2170 C   0  0  0  0  0  0  0  0  0  0  0  0
   31.6510   46.0620   -4.5510 C   0  0  0  0  0  0  0  0  0  0  0  0
   29.9250   46.0590   -2.6860 C   0  0  0  0  0  0  0  0  0  0  0  0
   30.0610   47.5260   -2.3060 C   0  0  0  0  0  0  0  0  0  0  0  0
   32.5340   44.8020   -4.2900 C   0  0  0  0  0  0  0  0  0  0  0  0
   32.1060   45.9410   -6.0330 C   0  0  0  0  0  0  0  0  0  0  0  0
   33.3710   45.2360   -5.5100 C   0  0  0  0  0  0  0  0  0  0  0  0
  1  2  1  0
  2  3  2  0
  2  4  1  0
  3  5  1  0
  4  6  1  0
  5  6  2  0
  5  7  1  0
  6  8  1  0
  7  9  2  0
  8 10  1  0
  9 10  1  0
  8 11  1  6
  8 12  1  0
 10 13  1  6
 12 14  1  1
 12 15  1  0
 11 16  1  0
 14 17  1  0
 14 18  1  0
 15 19  1  0
 16 19  1  0
 17 20  1  1
 17 21  1  0
 18 22  1  0
 21 22  1  0
 20 23  1  0
 20 24  1  0
 23 25  1  0
 24 25  1  0
M  END
