mac-x0567-mac-x0412
     RDKit          3D

 16 18  0  0  0  0  0  0  0  0999 V2000
   29.9420   47.1530   -7.9160 N   0  0  0  0  0  0  0  0  0  0  0  0
   29.6380   48.4300   -7.6170 C   0  0  0  0  0  0  0  0  0  0  0  0
   29.4210   49.3750   -8.5840 N   0  0  0  0  0  0  0  0  0  0  0  0
   29.4770   49.0820   -6.4200 C   0  0  0  0  0  0  0  0  0  0  0  0
   29.1290   50.5990   -8.1010 N   0  0  0  0  0  0  0  0  0  0  0  0
   29.1630   50.4230   -6.7730 C   0  0  0  0  0  0  0  0  0  0  0  0
   29.5810   48.6050   -5.0180 C   0  0  0  0  0  0  0  0  0  0  0  0
   28.8960   51.5270   -5.7530 C   0  0  1  0  0  0  0  0  0  0  0  0
   29.0000   49.6090   -4.0510 C   0  0  0  0  0  0  0  0  0  0  0  0
   28.6980   50.8850   -4.3630 C   0  0  0  0  0  0  0  0  0  0  0  0
   30.1050   52.4850   -5.6900 C   0  0  0  0  0  0  0  0  0  0  0  0
   27.6250   52.2730   -6.1180 C   0  0  0  0  0  0  0  0  0  0  0  0
   29.7530   53.8390   -5.1170 C   0  0  0  0  0  0  0  0  0  0  0  0
   27.5000   53.5970   -5.9600 C   0  0  0  0  0  0  0  0  0  0  0  0
   30.5140   54.4700   -4.3860 O   0  0  0  0  0  0  0  0  0  0  0  0
   28.5250   54.3410   -5.4560 N   0  0  0  0  0  0  0  0  0  0  0  0
  1  2  1  0
  2  3  1  0
  2  4  2  0
  3  5  1  0
  4  6  1  0
  5  6  2  0
  4  7  1  0
  6  8  1  0
  7  9  1  0
  8 10  1  1
  9 10  2  0
  8 11  1  0
  8 12  1  0
 11 13  1  0
 12 14  2  0
 13 15  2  0
 13 16  1  0
 14 16  1  0
M  END
