mac-x0417-mac-x0213
     RDKit          3D

 23 26  0  0  0  0  0  0  0  0999 V2000
   31.8990   45.8850   -5.9600 C   0  0  0  0  0  0  0  0  0  0  0  0
   33.2200   45.4180   -5.4050 C   0  0  0  0  0  0  0  0  0  0  0  0
   34.2340   45.4570   -6.0920 O   0  0  0  0  0  0  0  0  0  0  0  0
   31.7660   46.0010   -7.1720 O   0  0  0  0  0  0  0  0  0  0  0  0
   30.8000   46.1800   -4.9780 C   0  0  0  0  0  0  0  0  0  0  0  0
   33.1210   44.9240   -3.9900 C   0  0  0  0  0  0  0  0  0  0  0  0
   31.1500   47.0890   -3.7810 C   0  0  0  0  0  0  0  0  0  0  0  0
   30.1850   44.8950   -4.4060 C   0  0  0  0  0  0  0  0  0  0  0  0
   34.4410   44.8380   -3.3320 C   0  0  0  0  0  0  0  0  0  0  0  0
   30.0990   46.6600   -2.8010 C   0  0  0  0  0  0  0  0  0  0  0  0
   29.5550   45.4210   -3.1580 C   0  0  0  0  0  0  0  0  0  0  0  0
   34.8620   43.6420   -2.9110 N   0  0  0  0  0  0  0  0  0  0  0  0
   35.3860   45.8600   -3.0530 C   0  0  0  0  0  0  0  0  0  0  0  0
   29.6590   47.3300   -1.6730 C   0  0  0  0  0  0  0  0  0  0  0  0
   28.5630   44.8280   -2.3980 C   0  0  0  0  0  0  0  0  0  0  0  0
   36.1040   43.8600   -2.3410 O   0  0  0  0  0  0  0  0  0  0  0  0
   36.4170   45.1770   -2.4260 C   0  0  0  0  0  0  0  0  0  0  0  0
   35.5110   47.2460   -3.2400 C   0  0  0  0  0  0  0  0  0  0  0  0
   28.6570   46.7390   -0.9000 C   0  0  0  0  0  0  0  0  0  0  0  0
   28.1120   45.4960   -1.2610 C   0  0  0  0  0  0  0  0  0  0  0  0
   37.5870   45.7730   -1.9620 C   0  0  0  0  0  0  0  0  0  0  0  0
   36.6790   47.8780   -2.7840 C   0  0  0  0  0  0  0  0  0  0  0  0
   37.6970   47.1520   -2.1570 C   0  0  0  0  0  0  0  0  0  0  0  0
  1  2  1  0
  2  3  2  0
  1  4  2  0
  1  5  1  0
  2  6  1  0
  5  7  1  0
  5  8  1  0
  6  9  1  0
  7 10  1  0
  8 11  1  0
 10 11  2  0
  9 12  2  0
  9 13  1  0
 10 14  1  0
 11 15  1  0
 12 16  1  0
 13 17  2  0
 16 17  1  0
 13 18  1  0
 14 19  2  0
 15 20  2  0
 19 20  1  0
 17 21  1  0
 18 22  2  0
 21 23  2  0
 22 23  1  0
M  END
