mac-x0344-mac-x0138
     RDKit          3D

 25 27  0  0  0  0  0  0  0  0999 V2000
   31.9480   44.1330   -4.3380 O   0  0  0  0  0  0  0  0  0  0  0  0
   32.1280   45.4410   -4.8730 C   0  0  0  0  0  0  0  0  0  0  0  0
   31.4900   45.4280   -6.1230 O   0  0  0  0  0  0  0  0  0  0  0  0
   33.6600   45.7270   -4.9430 C   0  0  0  0  0  0  0  0  0  0  0  0
   31.5040   46.4370   -3.8830 C   0  0  0  0  0  0  0  0  0  0  0  0
   34.1860   46.1330   -5.9730 O   0  0  0  0  0  0  0  0  0  0  0  0
   34.2700   45.4790   -3.7310 N   0  0  0  0  0  0  0  0  0  0  0  0
   30.0450   46.8090   -4.0980 C   0  0  0  0  0  0  0  0  0  0  0  0
   35.3740   46.1420   -3.1760 C   0  0  0  0  0  0  0  0  0  0  0  0
   29.8080   48.1720   -4.5250 N   0  0  0  0  0  0  0  0  0  0  0  0
   36.3870   45.4880   -2.4770 C   0  0  0  0  0  0  0  0  0  0  0  0
   35.4490   47.5290   -3.3420 C   0  0  0  0  0  0  0  0  0  0  0  0
   29.8470   49.3030   -3.7500 C   0  0  0  0  0  0  0  0  0  0  0  0
   29.5020   48.5560   -5.7950 C   0  0  0  0  0  0  0  0  0  0  0  0
   37.4620   46.2080   -1.9510 C   0  0  0  0  0  0  0  0  0  0  0  0
   36.5240   48.2510   -2.8160 C   0  0  0  0  0  0  0  0  0  0  0  0
   29.5810   50.3870   -4.4540 N   0  0  0  0  0  0  0  0  0  0  0  0
   29.3610   49.9260   -5.7400 C   0  0  0  0  0  0  0  0  0  0  0  0
   29.3660   47.7670   -6.8660 N   0  0  0  0  0  0  0  0  0  0  0  0
   37.5320   47.5890   -2.1210 C   0  0  0  0  0  0  0  0  0  0  0  0
   29.0330   50.5540   -6.9530 C   0  0  0  0  0  0  0  0  0  0  0  0
   29.0580   48.4600   -7.9680 C   0  0  0  0  0  0  0  0  0  0  0  0
   28.8490   51.9280   -7.0720 N   0  0  0  0  0  0  0  0  0  0  0  0
   28.9020   47.7210   -9.1250 N   0  0  0  0  0  0  0  0  0  0  0  0
   28.8870   49.7890   -8.0610 N   0  0  0  0  0  0  0  0  0  0  0  0
  2  1  1  0
  2  3  1  0
  2  4  1  0
  2  5  1  0
  4  6  2  0
  4  7  1  0
  5  8  1  0
  7  9  1  0
  8 10  1  0
  9 11  2  0
  9 12  1  0
 10 13  1  0
 10 14  1  0
 11 15  1  0
 12 16  2  0
 13 17  2  0
 14 18  2  0
 17 18  1  0
 14 19  1  0
 15 20  2  0
 16 20  1  0
 18 21  1  0
 19 22  2  0
 21 23  1  0
 22 24  1  0
 21 25  2  0
 22 25  1  0
M  END
