mac-x0116-mac-x0348
     RDKit          3D

 32 36  0  0  0  0  0  0  0  0999 V2000
   29.0600   53.4040   -6.2880 C   0  0  0  0  0  0  0  0  0  0  0  0
   28.5360   52.1200   -6.7580 N   0  0  0  0  0  0  0  0  0  0  0  0
   29.1630   50.9760   -6.2510 C   0  0  0  0  0  0  0  0  0  0  0  0
   30.4150   53.7980   -6.8230 C   0  0  0  0  0  0  0  0  0  0  0  0
   31.5090   53.3840   -6.1230 O   0  0  0  0  0  0  0  0  0  0  0  0
   30.8380   54.5320   -7.9300 C   0  0  0  0  0  0  0  0  0  0  0  0
   32.2590   54.5650   -7.8980 C   0  0  0  0  0  0  0  0  0  0  0  0
   32.6220   53.8500   -6.7760 C   0  0  0  0  0  0  0  0  0  0  0  0
   29.5630   50.8850   -4.9560 N   0  0  0  0  0  0  0  0  0  0  0  0
   29.3990   49.8740   -7.0960 C   0  0  0  0  0  0  0  0  0  0  0  0
   30.1780   49.7420   -4.5520 C   0  0  0  0  0  0  0  0  0  0  0  0
   30.0500   48.7710   -6.5580 C   0  0  0  0  0  0  0  0  0  0  0  0
   29.0960   49.6760   -8.4260 N   0  0  0  0  0  0  0  0  0  0  0  0
   30.4700   48.6320   -5.2830 N   0  0  0  0  0  0  0  0  0  0  0  0
   30.1550   47.9020   -7.6270 N   0  0  0  0  0  0  0  0  0  0  0  0
   29.5640   48.4880   -8.7030 C   0  0  0  0  0  0  0  0  0  0  0  0
   30.7750   46.5920   -7.6760 C   0  0  0  0  0  0  0  0  0  0  0  0
   30.9800   46.1740   -6.3410 N   0  0  0  0  0  0  0  0  0  0  0  0
   32.0590   46.1910   -5.6650 C   0  0  0  0  0  0  0  0  0  0  0  0
   31.8800   45.7330   -4.2650 C   0  0  0  0  0  0  0  0  0  0  0  0
   33.3040   46.5760   -6.0240 O   0  0  0  0  0  0  0  0  0  0  0  0
   30.3670   45.5470   -4.1900 C   0  0  0  0  0  0  0  0  0  0  0  0
   29.6790   45.6930   -2.8810 C   0  0  0  0  0  0  0  0  0  0  0  0
   28.7290   44.8040   -2.4410 C   0  0  0  0  0  0  0  0  0  0  0  0
   29.8180   46.6970   -1.8710 C   0  0  0  0  0  0  0  0  0  0  0  0
   28.2810   45.2030   -1.2300 N   0  0  0  0  0  0  0  0  0  0  0  0
   28.9260   46.3630   -0.8420 C   0  0  0  0  0  0  0  0  0  0  0  0
   30.6040   47.8510   -1.7260 C   0  0  0  0  0  0  0  0  0  0  0  0
   27.2750   44.4940   -0.4820 C   0  0  0  0  0  0  0  0  0  0  0  0
   30.4830   48.6370   -0.5670 C   0  0  0  0  0  0  0  0  0  0  0  0
   28.8000   47.1380    0.3180 C   0  0  0  0  0  0  0  0  0  0  0  0
   29.5950   48.2850    0.4400 C   0  0  0  0  0  0  0  0  0  0  0  0
  1  2  1  0
  2  3  1  0
  1  4  1  0
  4  5  1  0
  4  6  2  0
  6  7  1  0
  5  8  1  0
  7  8  2  0
  3  9  2  0
  3 10  1  0
  9 11  1  0
 10 12  2  0
 10 13  1  0
 11 14  2  0
 12 14  1  0
 12 15  1  0
 13 16  2  0
 15 16  1  0
 15 17  1  0
 17 18  1  0
 18 19  2  3
 19 20  1  0
 19 21  1  0
 20 22  1  0
 22 23  1  0
 23 24  2  0
 23 25  1  0
 24 26  1  0
 25 27  2  0
 26 27  1  0
 25 28  1  0
 26 29  1  0
 28 30  2  0
 27 31  1  0
 30 32  1  0
 31 32  2  0
M  END
