mac-x0204-mac-x0182
     RDKit          3D

 21 23  0  0  0  0  0  0  0  0999 V2000
   31.7700   48.1310   -5.8570 O   0  0  0  0  0  0  0  0  0  0  0  0
   31.1690   46.9400   -5.6320 C   0  0  0  0  0  0  0  0  0  0  0  0
   30.7690   46.2410   -6.5590 O   0  0  0  0  0  0  0  0  0  0  0  0
   31.0370   46.5650   -4.1600 C   0  0  2  0  0  0  0  0  0  0  0  0
   30.0550   47.4890   -3.4340 C   0  0  0  0  0  0  0  0  0  0  0  0
   32.3870   46.4560   -3.4480 C   0  0  0  0  0  0  0  0  0  0  0  0
   29.9910   47.2290   -1.9250 C   0  0  1  0  0  0  0  0  0  0  0  0
   32.3340   46.4510   -2.0730 N   0  0  0  0  0  0  0  0  0  0  0  0
   34.0340   46.3310   -4.0220 S   0  0  0  0  0  0  0  0  0  0  0  0
   29.3850   45.9580   -1.7090 O   0  0  0  0  0  0  0  0  0  0  0  0
   33.3980   46.3870   -5.5230 O   0  0  0  0  0  0  0  0  0  0  0  0
   31.4030   47.2740   -1.3350 C   0  0  0  0  0  0  0  0  0  0  0  0
   33.8620   46.3340   -2.3490 N   0  0  0  0  0  0  0  0  0  0  0  0
   35.7450   46.1970   -3.8020 C   0  0  0  0  0  0  0  0  0  0  0  0
   34.8000   45.5130   -1.7750 C   0  0  0  0  0  0  0  0  0  0  0  0
   36.0360   45.7310   -2.5270 C   0  0  0  0  0  0  0  0  0  0  0  0
   36.7360   46.4890   -4.7200 C   0  0  0  0  0  0  0  0  0  0  0  0
   34.6690   44.7490   -0.8300 O   0  0  0  0  0  0  0  0  0  0  0  0
   38.0580   46.2950   -4.3120 C   0  0  0  0  0  0  0  0  0  0  0  0
   37.3380   45.5310   -2.1060 C   0  0  0  0  0  0  0  0  0  0  0  0
   38.3590   45.8200   -3.0170 C   0  0  0  0  0  0  0  0  0  0  0  0
  1  2  1  0
  2  3  2  0
  4  2  1  6
  4  5  1  0
  4  6  1  0
  5  7  1  0
  6  8  1  0
  6  9  2  0
  7 10  1  6
  9 11  2  0
  7 12  1  0
  8 12  1  0
  9 13  1  0
  9 14  1  0
 13 15  1  0
 14 16  2  0
 15 16  1  0
 14 17  1  0
 15 18  2  0
 17 19  2  0
 16 20  1  0
 19 21  1  0
 20 21  2  0
M  END
