mac-x0282-mac-x0510
     RDKit          3D

 11 12  0  0  0  0  0  0  0  0999 V2000
   28.9920   52.5550   -5.3090 O   0  0  0  0  0  0  0  0  0  0  0  0
   28.9600   51.4250   -5.7550 C   0  0  0  0  0  0  0  0  0  0  0  0
   29.3260   50.1260   -4.9890 C   0  0  0  0  0  0  0  0  0  0  0  0
   28.5970   51.0070   -7.0130 N   0  0  0  0  0  0  0  0  0  0  0  0
   29.5920   50.0000   -3.8180 O   0  0  0  0  0  0  0  0  0  0  0  0
   29.2780   49.0750   -5.9970 C   0  0  0  0  0  0  0  0  0  0  0  0
   28.8390   49.6590   -7.1780 C   0  0  0  0  0  0  0  0  0  0  0  0
   29.5800   47.7290   -5.9380 C   0  0  0  0  0  0  0  0  0  0  0  0
   28.6730   48.9980   -8.3280 N   0  0  0  0  0  0  0  0  0  0  0  0
   29.4190   47.0030   -7.1200 C   0  0  0  0  0  0  0  0  0  0  0  0
   28.9700   47.6700   -8.2700 C   0  0  0  0  0  0  0  0  0  0  0  0
  1  2  2  0
  2  3  1  0
  2  4  1  0
  3  5  2  0
  3  6  1  0
  4  7  1  0
  6  7  2  0
  6  8  1  0
  7  9  1  0
  8 10  2  0
  9 11  2  0
 10 11  1  0
M  END
