mac-x0271-mac-x0206
     RDKit          3D

 15 17  0  0  0  0  0  0  0  0999 V2000
   29.1580   50.7840   -3.4750 N   0  0  0  0  0  0  0  0  0  0  0  0
   29.5680   51.9420   -2.9940 C   0  0  0  0  0  0  0  0  0  0  0  0
   29.8710   52.1350   -1.6770 N   0  0  0  0  0  0  0  0  0  0  0  0
   28.9150   50.9860   -4.8510 C   0  0  0  0  0  0  0  0  0  0  0  0
   28.4480   50.1080   -5.8050 C   0  0  0  0  0  0  0  0  0  0  0  0
   29.1960   52.2820   -5.2220 C   0  0  0  0  0  0  0  0  0  0  0  0
   29.7090   53.0490   -4.0650 C   0  0  2  0  0  0  0  0  0  0  0  0
   31.1200   53.2450   -4.2130 O   0  0  0  0  0  0  0  0  0  0  0  0
   29.0270   52.8010   -6.4840 C   0  0  0  0  0  0  0  0  0  0  0  0
   28.2720   50.5860   -7.1200 C   0  0  0  0  0  0  0  0  0  0  0  0
   29.0530   54.4040   -4.1740 C   0  0  0  0  0  0  0  0  0  0  0  0
   28.3640   54.9800   -3.3360 O   0  0  0  0  0  0  0  0  0  0  0  0
   28.5560   51.9320   -7.4620 C   0  0  0  0  0  0  0  0  0  0  0  0
   29.3600   54.2280   -6.6320 C   0  0  0  0  0  0  0  0  0  0  0  0
   29.3640   55.0180   -5.5260 C   0  0  0  0  0  0  0  0  0  0  0  0
  1  2  2  0
  2  3  1  0
  1  4  1  0
  4  5  1  0
  4  6  2  0
  2  7  1  0
  6  7  1  0
  7  8  1  6
  6  9  1  0
  5 10  2  0
  7 11  1  0
 11 12  2  0
  9 13  2  0
 10 13  1  0
  9 14  1  0
 11 15  1  0
 14 15  2  0
M  END
