mac-x0385-mac-x0437
     RDKit          3D

 25 27  0  0  0  0  0  0  0  0999 V2000
   29.0830   51.7760   -2.6570 C   0  0  0  0  0  0  0  0  0  0  0  0
   28.9620   50.6380   -3.6150 C   0  0  0  0  0  0  0  0  0  0  0  0
   28.8320   49.3370   -3.1700 C   0  0  0  0  0  0  0  0  0  0  0  0
   28.9680   50.7940   -4.9940 C   0  0  0  0  0  0  0  0  0  0  0  0
   29.0910   52.0570   -5.5820 N   0  0  0  0  0  0  0  0  0  0  0  0
   28.8580   49.7560   -5.8330 N   0  0  0  0  0  0  0  0  0  0  0  0
   28.7180   48.2710   -3.9790 N   0  0  0  0  0  0  0  0  0  0  0  0
   28.7370   48.5320   -5.2990 C   0  0  0  0  0  0  0  0  0  0  0  0
   28.6140   47.3660   -6.2370 C   0  0  0  0  0  0  0  0  0  0  0  0
   29.4730   46.1730   -5.8180 C   0  0  0  0  0  0  0  0  0  0  0  0
   30.7770   46.0610   -6.5980 C   0  0  0  0  0  0  0  0  0  0  0  0
   31.3870   44.8020   -6.2590 O   0  0  0  0  0  0  0  0  0  0  0  0
   32.7130   44.7170   -6.5590 C   0  0  0  0  0  0  0  0  0  0  0  0
   33.1970   44.8410   -7.6750 O   0  0  0  0  0  0  0  0  0  0  0  0
   33.5030   44.4450   -5.3040 C   0  0  0  0  0  0  0  0  0  0  0  0
   33.1110   45.4190   -4.2000 C   0  0  0  0  0  0  0  0  0  0  0  0
   34.2700   46.0520   -3.5940 N   0  0  0  0  0  0  0  0  0  0  0  0
   34.4480   47.4000   -3.4590 C   0  0  0  0  0  0  0  0  0  0  0  0
   35.3670   45.4190   -3.0620 C   0  0  0  0  0  0  0  0  0  0  0  0
   35.5900   47.6840   -2.8730 N   0  0  0  0  0  0  0  0  0  0  0  0
   36.1740   46.4660   -2.6200 C   0  0  0  0  0  0  0  0  0  0  0  0
   35.7310   44.0730   -2.9240 C   0  0  0  0  0  0  0  0  0  0  0  0
   37.4050   46.1780   -2.0100 C   0  0  0  0  0  0  0  0  0  0  0  0
   36.9620   43.8070   -2.3130 C   0  0  0  0  0  0  0  0  0  0  0  0
   37.7870   44.8380   -1.8620 C   0  0  0  0  0  0  0  0  0  0  0  0
  1  2  1  0
  2  3  2  0
  2  4  1  0
  4  5  1  0
  4  6  2  0
  3  7  1  0
  6  8  1  0
  7  8  2  0
  8  9  1  0
  9 10  1  0
 10 11  1  0
 11 12  1  0
 12 13  1  0
 13 14  2  0
 13 15  1  0
 15 16  1  0
 16 17  1  0
 17 18  1  0
 17 19  1  0
 18 20  2  0
 19 21  2  0
 20 21  1  0
 19 22  1  0
 21 23  1  0
 22 24  2  0
 23 25  2  0
 24 25  1  0
M  END
