mac-x0193-mac-x0588
     RDKit          3D

 32 35  0  0  0  0  0  0  0  0999 V2000
   34.0180   46.0820   -5.8900 O   0  0  0  0  0  0  0  0  0  0  0  0
   33.3310   44.9350   -5.7280 C   0  0  0  0  0  0  0  0  0  0  0  0
   32.1200   44.7940   -6.0710 N   0  0  0  0  0  0  0  0  0  0  0  0
   34.0900   43.8260   -5.0730 C   0  0  0  0  0  0  0  0  0  0  0  0
   34.7110   44.3850   -3.8940 N   0  0  0  0  0  0  0  0  0  0  0  0
   31.5320   45.9940   -6.5860 C   0  0  0  0  0  0  0  0  0  0  0  0
   35.1130   43.5840   -2.8730 C   0  0  0  0  0  0  0  0  0  0  0  0
   31.3700   46.8400   -5.3220 C   0  0  0  0  0  0  0  0  0  0  0  0
   34.6140   42.4860   -2.6580 O   0  0  0  0  0  0  0  0  0  0  0  0
   36.1100   44.1880   -2.1610 N   0  0  0  0  0  0  0  0  0  0  0  0
   29.9550   46.7970   -4.6930 C   0  0  2  0  0  0  0  0  0  0  0  0
   37.3270   43.5220   -1.7180 C   0  0  0  0  0  0  0  0  0  0  0  0
   29.2040   48.0480   -4.7890 N   0  0  0  0  0  0  0  0  0  0  0  0
   29.9030   46.1390   -3.2770 C   0  0  1  0  0  0  0  0  0  0  0  0
   37.6550   42.2820   -2.5620 C   0  0  0  0  0  0  0  0  0  0  0  0
   37.2500   43.1930   -0.2230 C   0  0  0  0  0  0  0  0  0  0  0  0
   29.9200   49.2340   -4.3190 C   0  0  0  0  0  0  0  0  0  0  0  0
   28.6390   48.2330   -6.0830 C   0  0  1  0  0  0  0  0  0  0  0  0
   29.0120   46.8230   -2.3580 O   0  0  0  0  0  0  0  0  0  0  0  0
   29.4980   44.6670   -3.2710 C   0  0  0  0  0  0  0  0  0  0  0  0
   38.8330   41.4540   -2.0410 C   0  0  0  0  0  0  0  0  0  0  0  0
   38.4510   42.3940    0.2840 C   0  0  0  0  0  0  0  0  0  0  0  0
   29.0930   50.4490   -4.4890 N   0  0  0  0  0  0  0  0  0  0  0  0
   29.1150   49.4680   -6.7720 C   0  0  2  0  0  0  0  0  0  0  0  0
   29.0880   47.2520   -7.0540 N   0  0  0  0  0  0  0  0  0  0  0  0
   28.8410   44.4880   -1.9230 C   0  0  0  0  0  0  0  0  0  0  0  0
   28.2430   45.8490   -1.6370 C   0  0  0  0  0  0  0  0  0  0  0  0
   39.4790   42.0570   -0.8000 C   0  0  0  0  0  0  0  0  0  0  0  0
   28.6700   50.6400   -5.8740 C   0  0  2  0  0  0  0  0  0  0  0  0
   28.5220   49.2800   -8.1110 N   0  0  0  0  0  0  0  0  0  0  0  0
   28.7040   47.8390   -8.3310 C   0  0  0  0  0  0  0  0  0  0  0  0
   29.1310   51.9540   -6.2840 N   0  0  0  0  0  0  0  0  0  0  0  0
  1  2  1  0
  2  3  2  3
  2  4  1  0
  4  5  1  0
  3  6  1  0
  5  7  1  0
  6  8  1  0
  7  9  2  0
  7 10  1  0
 11  8  1  1
 10 12  1  0
 11 13  1  0
 11 14  1  0
 12 15  1  0
 12 16  1  0
 13 17  1  0
 13 18  1  0
 14 19  1  0
 14 20  1  6
 15 21  1  0
 16 22  1  0
 17 23  1  0
 18 24  1  0
 18 25  1  6
 20 26  1  0
 19 27  1  0
 26 27  1  0
 21 28  1  0
 22 28  1  0
 23 29  1  0
 24 29  1  0
 24 30  1  6
 25 31  1  0
 30 31  1  0
 29 32  1  6
M  END
