mac-x0319-mac-x0321
     RDKit          3D

 21 22  0  0  0  0  0  0  0  0999 V2000
   34.3380   45.8170   -6.4990 O   0  0  0  0  0  0  0  0  0  0  0  0
   33.4570   44.8010   -6.3610 C   0  0  0  0  0  0  0  0  0  0  0  0
   32.9090   44.3370   -7.3490 O   0  0  0  0  0  0  0  0  0  0  0  0
   33.2960   44.3880   -4.9160 C   0  0  0  0  0  0  0  0  0  0  0  0
   32.0020   44.8270   -4.2660 C   0  0  0  0  0  0  0  0  0  0  0  0
   31.0330   43.8810   -3.9070 C   0  0  0  0  0  0  0  0  0  0  0  0
   31.7480   46.1860   -4.0100 C   0  0  0  0  0  0  0  0  0  0  0  0
   29.8440   44.2880   -3.3080 C   0  0  0  0  0  0  0  0  0  0  0  0
   30.5480   46.5960   -3.4050 C   0  0  0  0  0  0  0  0  0  0  0  0
   28.9390   43.3230   -2.9800 O   0  0  0  0  0  0  0  0  0  0  0  0
   29.5920   45.6340   -3.0530 C   0  0  0  0  0  0  0  0  0  0  0  0
   30.2940   48.0650   -3.1360 C   0  0  0  0  0  0  0  0  0  0  0  0
   29.0860   48.6190   -3.9150 C   0  0  2  0  0  0  0  0  0  0  0  0
   28.9920   48.0080   -5.2050 O   0  0  0  0  0  0  0  0  0  0  0  0
   29.2140   50.1190   -4.0930 C   0  0  0  0  0  0  0  0  0  0  0  0
   28.8600   50.7490   -5.2970 C   0  0  0  0  0  0  0  0  0  0  0  0
   29.6980   50.9080   -3.0370 C   0  0  0  0  0  0  0  0  0  0  0  0
   28.9890   52.1320   -5.4360 C   0  0  0  0  0  0  0  0  0  0  0  0
   29.8250   52.2930   -3.1810 C   0  0  0  0  0  0  0  0  0  0  0  0
   28.5500   52.8900   -6.9180 Cl  0  0  0  0  0  0  0  0  0  0  0  0
   29.4690   52.9050   -4.3810 C   0  0  0  0  0  0  0  0  0  0  0  0
  1  2  1  0
  2  3  2  0
  2  4  1  0
  4  5  1  0
  5  6  2  0
  5  7  1  0
  6  8  1  0
  7  9  2  0
  8 10  1  0
  8 11  2  0
  9 11  1  0
  9 12  1  0
 12 13  1  0
 13 14  1  6
 13 15  1  0
 15 16  2  0
 15 17  1  0
 16 18  1  0
 17 19  2  0
 18 20  1  0
 18 21  2  0
 19 21  1  0
M  END
