mac-x0161-mac-x0226
     RDKit          3D

 32 36  0  0  0  0  0  0  0  0999 V2000
   27.6640   52.2680   -5.9910 N   0  0  0  0  0  0  0  0  0  0  0  0
   28.6540   51.3460   -5.4630 C   0  0  2  0  0  0  0  0  0  0  0  0
   28.8980   50.1510   -6.4140 C   0  0  1  0  0  0  0  0  0  0  0  0
   28.0920   51.0210   -4.1880 N   0  0  0  0  0  0  0  0  0  0  0  0
   28.8970   50.0270   -3.5190 C   0  0  0  0  0  0  0  0  0  0  0  0
   29.1950   48.8530   -5.6350 C   0  0  1  0  0  0  0  0  0  0  0  0
   27.8430   49.7980   -7.3790 N   0  0  0  0  0  0  0  0  0  0  0  0
   28.8360   48.7490   -4.2120 N   0  0  0  0  0  0  0  0  0  0  0  0
   28.4490   47.8140   -6.3690 N   0  0  0  0  0  0  0  0  0  0  0  0
   28.1280   48.4070   -7.6520 C   0  0  0  0  0  0  0  0  0  0  0  0
   29.7090   47.7480   -3.5810 C   0  0  0  0  0  0  0  0  0  0  0  0
   31.1530   48.0300   -4.0090 C   0  0  1  0  0  0  0  0  0  0  0  0
   32.2800   47.4890   -3.1700 C   0  0  0  0  0  0  0  0  0  0  0  0
   31.4340   47.4490   -5.2770 O   0  0  0  0  0  0  0  0  0  0  0  0
   32.8750   47.4790   -5.3960 N   0  0  0  0  0  0  0  0  0  0  0  0
   33.3900   47.9530   -4.0920 C   0  0  2  0  0  0  0  0  0  0  0  0
   34.6330   47.4560   -3.6220 O   0  0  0  0  0  0  0  0  0  0  0  0
   33.3080   46.2250   -5.9500 C   0  0  0  0  0  0  0  0  0  0  0  0
   34.9740   47.9940   -2.3510 C   0  0  0  0  0  0  0  0  0  0  0  0
   32.1960   45.7190   -6.6640 O   0  0  0  0  0  0  0  0  0  0  0  0
   34.3100   46.4270   -6.9230 O   0  0  0  0  0  0  0  0  0  0  0  0
   33.6980   45.3180   -4.8520 C   0  0  0  0  0  0  0  0  0  0  0  0
   33.0610   44.1430   -4.3910 C   0  0  0  0  0  0  0  0  0  0  0  0
   34.7720   45.4420   -4.0270 C   0  0  0  0  0  0  0  0  0  0  0  0
   33.6930   43.5900   -3.3510 N   0  0  0  0  0  0  0  0  0  0  0  0
   34.7480   44.4220   -3.1390 N   0  0  0  0  0  0  0  0  0  0  0  0
   35.6920   44.2460   -2.1130 C   0  0  0  0  0  0  0  0  0  0  0  0
   36.5560   45.3230   -1.8590 C   0  0  0  0  0  0  0  0  0  0  0  0
   35.7910   43.0800   -1.3650 C   0  0  0  0  0  0  0  0  0  0  0  0
   37.5150   45.2330   -0.8580 C   0  0  0  0  0  0  0  0  0  0  0  0
   36.7550   42.9950   -0.3590 C   0  0  0  0  0  0  0  0  0  0  0  0
   37.6130   44.0670   -0.1070 C   0  0  0  0  0  0  0  0  0  0  0  0
  2  1  1  6
  2  3  1  0
  2  4  1  0
  4  5  1  0
  3  6  1  0
  3  7  1  1
  5  8  1  0
  6  8  1  0
  6  9  1  6
  7 10  1  0
  9 10  1  0
  8 11  1  0
 12 11  1  1
 12 13  1  0
 12 14  1  0
 14 15  1  0
 13 16  1  0
 15 16  1  0
 16 17  1  1
 15 18  1  0
 17 19  1  0
 18 20  1  0
 18 21  1  0
 18 22  1  0
 22 23  1  0
 22 24  2  0
 23 25  2  0
 24 26  1  0
 25 26  1  0
 26 27  1  0
 27 28  2  0
 27 29  1  0
 28 30  1  0
 29 31  2  0
 30 32  2  0
 31 32  1  0
M  END
