mac-x0387-mac-x0433
     RDKit          3D

 19 21  0  0  0  0  0  0  0  0999 V2000
   27.8760   50.7690   -5.8360 N   0  0  0  0  0  0  0  0  0  0  0  0
   28.4740   49.7210   -6.5720 C   0  0  0  0  0  0  0  0  0  0  0  0
   28.2060   49.6110   -7.8960 N   0  0  0  0  0  0  0  0  0  0  0  0
   28.4940   51.8210   -5.1470 C   0  0  0  0  0  0  0  0  0  0  0  0
   29.3400   48.8140   -5.9000 C   0  0  0  0  0  0  0  0  0  0  0  0
   28.2410   51.8810   -3.8250 N   0  0  0  0  0  0  0  0  0  0  0  0
   29.3090   52.7430   -5.7680 C   0  0  0  0  0  0  0  0  0  0  0  0
   29.9250   47.7750   -6.6570 C   0  0  0  0  0  0  0  0  0  0  0  0
   28.7850   48.6050   -8.5820 C   0  0  0  0  0  0  0  0  0  0  0  0
   29.6580   48.8810   -4.5170 C   0  0  0  0  0  0  0  0  0  0  0  0
   28.8130   52.8700   -3.1370 C   0  0  0  0  0  0  0  0  0  0  0  0
   29.8550   53.7290   -4.9750 C   0  0  0  0  0  0  0  0  0  0  0  0
   30.7520   54.7700   -5.5720 C   0  0  0  0  0  0  0  0  0  0  0  0
   28.5570   52.9370   -1.7800 N   0  0  0  0  0  0  0  0  0  0  0  0
   29.6360   47.6770   -8.0200 C   0  0  0  0  0  0  0  0  0  0  0  0
   30.7870   46.8510   -6.0450 C   0  0  0  0  0  0  0  0  0  0  0  0
   30.5170   47.9550   -3.9210 C   0  0  0  0  0  0  0  0  0  0  0  0
   29.6150   53.8050   -3.6510 N   0  0  0  0  0  0  0  0  0  0  0  0
   31.0820   46.9430   -4.6820 C   0  0  0  0  0  0  0  0  0  0  0  0
  1  2  1  0
  2  3  2  0
  1  4  1  0
  2  5  1  0
  4  6  2  0
  4  7  1  0
  5  8  2  0
  3  9  1  0
  5 10  1  0
  6 11  1  0
  7 12  2  0
 12 13  1  0
 11 14  1  0
  8 15  1  0
  9 15  2  0
  8 16  1  0
 10 17  2  0
 11 18  2  0
 12 18  1  0
 16 19  2  0
 17 19  1  0
M  END
