mac-x0436-mac-x0338
     RDKit          3D

 26 28  0  0  0  0  0  0  0  0999 V2000
   33.6810   45.6430   -6.8240 O   0  0  0  0  0  0  0  0  0  0  0  0
   32.4890   45.1960   -6.3730 C   0  0  0  0  0  0  0  0  0  0  0  0
   31.4440   45.4200   -6.9670 O   0  0  0  0  0  0  0  0  0  0  0  0
   32.5690   44.4030   -5.0890 C   0  0  0  0  0  0  0  0  0  0  0  0
   32.4070   45.2810   -3.8550 C   0  0  0  0  0  0  0  0  0  0  0  0
   33.6980   45.9580   -3.4390 C   0  0  0  0  0  0  0  0  0  0  0  0
   33.6610   47.4830   -3.2060 C   0  0  0  0  0  0  0  0  0  0  0  0
   34.7890   45.2540   -3.2840 N   0  0  0  0  0  0  0  0  0  0  0  0
   32.4590   47.9850   -3.1390 N   0  0  0  0  0  0  0  0  0  0  0  0
   34.8930   48.0950   -3.0850 N   0  0  0  0  0  0  0  0  0  0  0  0
   35.9730   45.9200   -2.9060 C   0  0  0  0  0  0  0  0  0  0  0  0
   32.2480   49.4190   -2.8730 C   0  0  0  0  0  0  0  0  0  0  0  0
   36.0400   47.3250   -2.8070 C   0  0  0  0  0  0  0  0  0  0  0  0
   37.1060   45.1490   -2.6260 C   0  0  0  0  0  0  0  0  0  0  0  0
   38.3040   45.7600   -2.2530 C   0  0  0  0  0  0  0  0  0  0  0  0
   37.2480   47.9290   -2.4330 C   0  0  0  0  0  0  0  0  0  0  0  0
   31.2570   50.1390   -3.7780 C   0  0  0  0  0  0  0  0  0  0  0  0
   38.3750   47.1480   -2.1590 C   0  0  0  0  0  0  0  0  0  0  0  0
   30.6670   49.5410   -4.8950 C   0  0  0  0  0  0  0  0  0  0  0  0
   30.9690   51.4310   -3.4500 N   0  0  0  0  0  0  0  0  0  0  0  0
   29.7980   50.1910   -5.7200 N   0  0  0  0  0  0  0  0  0  0  0  0
   30.1060   52.0870   -4.2700 C   0  0  0  0  0  0  0  0  0  0  0  0
   29.5410   51.4880   -5.3790 C   0  0  0  0  0  0  0  0  0  0  0  0
   28.6200   52.2720   -6.2510 C   0  0  0  0  0  0  0  0  0  0  0  0
   28.1780   51.6370   -7.3780 N   0  0  0  0  0  0  0  0  0  0  0  0
   28.2910   53.4210   -5.9830 O   0  0  0  0  0  0  0  0  0  0  0  0
  1  2  1  0
  2  3  2  0
  2  4  1  0
  4  5  1  0
  5  6  1  0
  6  7  1  0
  6  8  2  0
  7  9  2  3
  7 10  1  0
  8 11  1  0
  9 12  1  0
 10 13  1  0
 11 13  2  0
 11 14  1  0
 14 15  2  0
 13 16  1  0
 12 17  1  0
 15 18  1  0
 16 18  2  0
 17 19  2  0
 17 20  1  0
 19 21  1  0
 20 22  2  0
 21 23  2  0
 22 23  1  0
 23 24  1  0
 24 25  1  0
 24 26  2  0
M  END
