mac-x0373-mac-x0437
     RDKit          3D

 29 32  0  0  0  0  0  0  0  0999 V2000
   31.5680   46.4410   -5.9280 O   0  0  0  0  0  0  0  0  0  0  0  0
   30.3400   46.4530   -5.3350 C   0  0  0  0  0  0  0  0  0  0  0  0
   29.3950   45.7220   -5.6090 O   0  0  0  0  0  0  0  0  0  0  0  0
   31.9570   45.3140   -6.5740 C   0  0  0  0  0  0  0  0  0  0  0  0
   30.2620   47.5280   -4.2350 C   0  0  0  0  0  0  0  0  0  0  0  0
   31.4000   44.7410   -7.4980 O   0  0  0  0  0  0  0  0  0  0  0  0
   33.2490   44.8130   -5.9810 C   0  0  0  0  0  0  0  0  0  0  0  0
   33.6580   45.7200   -4.8330 C   0  0  0  0  0  0  0  0  0  0  0  0
   31.5550   47.7520   -3.4480 C   0  0  0  0  0  0  0  0  0  0  0  0
   29.6190   48.8360   -4.7090 C   0  0  0  0  0  0  0  0  0  0  0  0
   31.9030   47.0030   -2.3120 C   0  0  0  0  0  0  0  0  0  0  0  0
   32.4390   48.7600   -3.8790 C   0  0  0  0  0  0  0  0  0  0  0  0
   29.5170   49.9070   -3.8030 C   0  0  0  0  0  0  0  0  0  0  0  0
   29.1270   49.0130   -6.0140 C   0  0  0  0  0  0  0  0  0  0  0  0
   35.0900   45.6960   -4.6010 N   0  0  0  0  0  0  0  0  0  0  0  0
   33.0970   47.2560   -1.6310 C   0  0  0  0  0  0  0  0  0  0  0  0
   33.6310   49.0080   -3.1970 C   0  0  0  0  0  0  0  0  0  0  0  0
   28.9410   51.1180   -4.1900 C   0  0  0  0  0  0  0  0  0  0  0  0
   28.5500   50.2270   -6.3980 C   0  0  0  0  0  0  0  0  0  0  0  0
   36.0560   45.8730   -5.5510 C   0  0  0  0  0  0  0  0  0  0  0  0
   35.7070   45.4970   -3.3930 C   0  0  0  0  0  0  0  0  0  0  0  0
   33.9600   48.2560   -2.0720 C   0  0  0  0  0  0  0  0  0  0  0  0
   28.4580   51.2770   -5.4870 C   0  0  0  0  0  0  0  0  0  0  0  0
   37.2610   45.8010   -5.0350 N   0  0  0  0  0  0  0  0  0  0  0  0
   37.0640   45.5690   -3.6940 C   0  0  0  0  0  0  0  0  0  0  0  0
   35.2280   45.2680   -2.0970 C   0  0  0  0  0  0  0  0  0  0  0  0
   38.0040   45.4080   -2.6670 C   0  0  0  0  0  0  0  0  0  0  0  0
   36.1830   45.1090   -1.0860 C   0  0  0  0  0  0  0  0  0  0  0  0
   37.5500   45.1770   -1.3640 C   0  0  0  0  0  0  0  0  0  0  0  0
  1  2  1  0
  2  3  2  0
  1  4  1  0
  2  5  1  0
  4  6  2  0
  4  7  1  0
  7  8  1  0
  5  9  1  0
  5 10  1  0
  9 11  2  0
  9 12  1  0
 10 13  2  0
 10 14  1  0
  8 15  1  0
 11 16  1  0
 12 17  2  0
 13 18  1  0
 14 19  2  0
 15 20  1  0
 15 21  1  0
 16 22  2  0
 17 22  1  0
 18 23  2  0
 19 23  1  0
 20 24  2  0
 21 25  2  0
 24 25  1  0
 21 26  1  0
 25 27  1  0
 26 28  2  0
 27 29  2  0
 28 29  1  0
M  END
