mac-x0204-mac-x0131
     RDKit          3D

 27 30  0  0  0  0  0  0  0  0999 V2000
   30.5920   45.1210   -5.5910 O   0  0  0  0  0  0  0  0  0  0  0  0
   30.7500   46.3100   -4.6540 S   0  0  0  0  0  0  0  0  0  0  0  0
   29.5510   45.9830   -4.2650 O   0  0  0  0  0  0  0  0  0  0  0  0
   31.3070   46.5460   -3.0890 C   0  0  0  0  0  0  0  0  0  0  0  0
   30.1700   47.9140   -5.0550 N   0  0  0  0  0  0  0  0  0  0  0  0
   32.3710   46.5080   -5.1490 C   0  0  0  0  0  0  0  0  0  0  0  0
   30.4240   46.7190   -2.0630 C   0  0  0  0  0  0  0  0  0  0  0  0
   32.6390   46.6140   -2.7260 C   0  0  0  0  0  0  0  0  0  0  0  0
   30.2510   48.9920   -4.2730 C   0  0  0  0  0  0  0  0  0  0  0  0
   29.5730   48.2620   -6.1740 C   0  0  0  0  0  0  0  0  0  0  0  0
   33.2100   45.6230   -5.7560 C   0  0  0  0  0  0  0  0  0  0  0  0
   33.0770   47.5850   -4.9940 O   0  0  0  0  0  0  0  0  0  0  0  0
   30.8320   49.1630   -2.8930 C   0  0  0  0  0  0  0  0  0  0  0  0
   30.8200   46.9480   -0.7800 C   0  0  0  0  0  0  0  0  0  0  0  0
   33.0210   46.8330   -1.4920 N   0  0  0  0  0  0  0  0  0  0  0  0
   29.6850   50.0770   -4.9130 C   0  0  0  0  0  0  0  0  0  0  0  0
   29.2680   49.6010   -6.1010 C   0  0  0  0  0  0  0  0  0  0  0  0
   29.2390   47.6050   -7.2690 N   0  0  0  0  0  0  0  0  0  0  0  0
   34.2680   47.4850   -5.4310 C   0  0  0  0  0  0  0  0  0  0  0  0
   34.4060   46.2460   -5.9300 C   0  0  0  0  0  0  0  0  0  0  0  0
   29.9060   47.1220    0.2310 O   0  0  0  0  0  0  0  0  0  0  0  0
   29.5630   51.4670   -4.4000 C   0  0  0  0  0  0  0  0  0  0  0  0
   32.1600   47.0070   -0.4950 C   0  0  0  0  0  0  0  0  0  0  0  0
   28.6280   50.1590   -7.1980 C   0  0  0  0  0  0  0  0  0  0  0  0
   28.6220   48.1290   -8.3340 C   0  0  0  0  0  0  0  0  0  0  0  0
   28.2850   51.5160   -7.2000 N   0  0  0  0  0  0  0  0  0  0  0  0
   28.3170   49.4320   -8.2840 N   0  0  0  0  0  0  0  0  0  0  0  0
  1  2  1  0
  2  3  2  0
  2  4  1  0
  2  5  1  0
  2  6  1  0
  4  7  2  0
  4  8  1  0
  5  9  1  0
  5 10  1  0
  6 11  2  0
  6 12  1  0
  9 13  1  0
  7 14  1  0
  8 15  2  0
  9 16  2  0
 10 17  2  0
 16 17  1  0
 10 18  1  0
 12 19  1  0
 11 20  1  0
 19 20  2  0
 14 21  1  0
 16 22  1  0
 14 23  2  0
 15 23  1  0
 17 24  1  0
 18 25  2  0
 24 26  1  0
 24 27  2  0
 25 27  1  0
M  END
