mac-x0138-mac-x0394
     RDKit          3D

 23 25  0  0  0  0  0  0  0  0999 V2000
   30.7480   46.9030   -4.1660 C   0  0  0  0  0  0  0  0  0  0  0  0
   30.1610   48.1730   -4.4810 N   0  0  0  0  0  0  0  0  0  0  0  0
   29.9940   49.2220   -3.6240 C   0  0  0  0  0  0  0  0  0  0  0  0
   29.6660   48.5470   -5.7010 C   0  0  0  0  0  0  0  0  0  0  0  0
   29.4200   50.2430   -4.2140 N   0  0  0  0  0  0  0  0  0  0  0  0
   29.2020   49.8360   -5.5190 C   0  0  0  0  0  0  0  0  0  0  0  0
   29.6360   47.8160   -6.8250 N   0  0  0  0  0  0  0  0  0  0  0  0
   28.6220   50.4620   -6.6350 C   0  0  0  0  0  0  0  0  0  0  0  0
   29.0770   48.4830   -7.8430 C   0  0  0  0  0  0  0  0  0  0  0  0
   28.0870   51.7920   -6.5420 N   0  0  0  0  0  0  0  0  0  0  0  0
   29.0010   47.8170   -9.0510 N   0  0  0  0  0  0  0  0  0  0  0  0
   28.5800   49.7370   -7.8090 N   0  0  0  0  0  0  0  0  0  0  0  0
   28.1420   52.6600   -7.6240 C   0  0  0  0  0  0  0  0  0  0  0  0
   27.0640   52.0060   -5.5200 C   0  0  0  0  0  0  0  0  0  0  0  0
   29.2370   53.4560   -7.6590 O   0  0  0  0  0  0  0  0  0  0  0  0
   27.3220   52.7820   -8.5260 O   0  0  0  0  0  0  0  0  0  0  0  0
   27.0440   53.1620   -4.7100 C   0  0  0  0  0  0  0  0  0  0  0  0
   26.0380   51.0610   -5.2980 C   0  0  0  0  0  0  0  0  0  0  0  0
   26.0520   53.3560   -3.7360 C   0  0  0  0  0  0  0  0  0  0  0  0
   25.0510   51.2690   -4.3190 C   0  0  0  0  0  0  0  0  0  0  0  0
   23.8130   50.0970   -4.0750 Cl  0  0  0  0  0  0  0  0  0  0  0  0
   26.0670   54.7850   -2.7730 Cl  0  0  0  0  0  0  0  0  0  0  0  0
   25.0550   52.4140   -3.5360 C   0  0  0  0  0  0  0  0  0  0  0  0
  1  2  1  0
  2  3  1  0
  2  4  1  0
  3  5  2  0
  4  6  2  0
  5  6  1  0
  4  7  1  0
  6  8  1  0
  7  9  2  0
  8 10  1  0
  9 11  1  0
  8 12  2  0
  9 12  1  0
 10 13  1  0
 10 14  1  0
 13 15  1  0
 13 16  2  0
 14 17  2  0
 14 18  1  0
 17 19  1  0
 18 20  2  0
 20 21  1  0
 19 22  1  0
 19 23  2  0
 20 23  1  0
M  END
