mac-x0328-mac-x0345
     RDKit          3D

 12 12  0  0  0  0  0  0  0  0999 V2000
   31.0080   47.5290   -3.7770 O   0  0  0  0  0  0  0  0  0  0  0  0
   30.1750   48.0800   -4.6860 C   0  0  0  0  0  0  0  0  0  0  0  0
   29.6440   47.4520   -5.5840 O   0  0  0  0  0  0  0  0  0  0  0  0
   29.9670   49.5300   -4.4810 C   0  0  0  0  0  0  0  0  0  0  0  0
   29.5920   50.3140   -5.5820 C   0  0  0  0  0  0  0  0  0  0  0  0
   30.1410   50.1130   -3.2170 C   0  0  0  0  0  0  0  0  0  0  0  0
   29.3900   51.6810   -5.4120 C   0  0  0  0  0  0  0  0  0  0  0  0
   29.9390   51.4850   -3.0450 C   0  0  0  0  0  0  0  0  0  0  0  0
   30.1110   52.0740   -1.7840 N   0  0  0  0  0  0  0  0  0  0  0  0
   28.8840   52.7350   -6.9040 Br  0  0  0  0  0  0  0  0  0  0  0  0
   29.5640   52.2640   -4.1530 C   0  0  0  0  0  0  0  0  0  0  0  0
   29.3750   53.6100   -3.9430 O   0  0  0  0  0  0  0  0  0  0  0  0
  1  2  1  0
  2  3  2  0
  2  4  1  0
  4  5  2  0
  4  6  1  0
  5  7  1  0
  6  8  2  0
  8  9  1  0
  7 10  1  0
  7 11  2  0
  8 11  1  0
 11 12  1  0
M  END
