mac-x0360-mac-x0116
     RDKit          3D

 26 29  0  0  0  0  0  0  0  0999 V2000
   33.8100   54.6480   -7.7060 Cl  0  0  0  0  0  0  0  0  0  0  0  0
   33.4570   53.3720   -6.5880 C   0  0  0  0  0  0  0  0  0  0  0  0
   34.5580   52.8610   -5.9020 C   0  0  0  0  0  0  0  0  0  0  0  0
   32.1610   52.8680   -6.3690 C   0  0  0  0  0  0  0  0  0  0  0  0
   32.0130   51.8300   -5.4170 C   0  0  0  0  0  0  0  0  0  0  0  0
   34.3890   51.8410   -4.9840 C   0  0  0  0  0  0  0  0  0  0  0  0
   30.9640   53.4040   -7.1140 C   0  0  2  0  0  0  0  0  0  0  0  0
   35.7510   51.2140   -4.1500 Cl  0  0  0  0  0  0  0  0  0  0  0  0
   30.3790   51.1140   -5.0330 S   0  0  0  0  0  0  0  0  0  0  0  0
   33.1300   51.3240   -4.7330 C   0  0  0  0  0  0  0  0  0  0  0  0
   31.3120   54.0380   -8.4240 C   0  0  0  0  0  0  0  0  0  0  0  0
   30.1620   54.4980   -6.3870 C   0  0  2  0  0  0  0  0  0  0  0  0
   30.8840   49.5360   -4.8340 N   0  0  0  0  0  0  0  0  0  0  0  0
   29.9090   51.7540   -3.7640 O   0  0  0  0  0  0  0  0  0  0  0  0
   28.6580   54.2420   -6.4280 C   0  0  0  0  0  0  0  0  0  0  0  0
   31.0960   55.3530   -8.4030 C   0  0  0  0  0  0  0  0  0  0  0  0
   30.5630   55.8080   -7.0850 C   0  0  0  0  0  0  0  0  0  0  0  0
   29.7580   48.7300   -4.9940 N   0  0  0  0  0  0  0  0  0  0  0  0
   28.6860   49.2880   -4.3290 C   0  0  0  0  0  0  0  0  0  0  0  0
   29.5930   48.4070   -6.3230 C   0  0  0  0  0  0  0  0  0  0  0  0
   27.5930   49.7310   -4.8860 N   0  0  0  0  0  0  0  0  0  0  0  0
   28.4130   48.9430   -7.0120 C   0  0  0  0  0  0  0  0  0  0  0  0
   30.2690   47.7060   -7.1860 N   0  0  0  0  0  0  0  0  0  0  0  0
   27.5100   49.5740   -6.2640 C   0  0  0  0  0  0  0  0  0  0  0  0
   28.5020   48.6400   -8.3330 N   0  0  0  0  0  0  0  0  0  0  0  0
   29.5670   47.8880   -8.3750 C   0  0  0  0  0  0  0  0  0  0  0  0
  1  2  1  0
  2  3  2  0
  2  4  1  0
  4  5  2  0
  3  6  1  0
  7  4  1  1
  6  8  1  0
  5  9  1  0
  5 10  1  0
  6 10  2  0
  7 11  1  0
  7 12  1  0
  9 13  1  1
  9 14  2  0
 12 15  1  6
 11 16  2  0
 12 17  1  0
 16 17  1  0
 13 18  1  0
 18 19  1  0
 18 20  1  0
 19 21  2  0
 20 22  1  0
 20 23  2  0
 21 24  1  0
 22 24  2  0
 22 25  1  0
 23 26  1  0
 25 26  2  0
M  END
