mac-x0277-mac-x0375
     RDKit          3D

 19 20  0  0  0  0  0  0  0  0999 V2000
   27.8640   45.8520   -0.8540 Cl  0  0  0  0  0  0  0  0  0  0  0  0
   29.2090   45.9520   -1.9340 C   0  0  0  0  0  0  0  0  0  0  0  0
   30.0350   47.0770   -2.0030 C   0  0  0  0  0  0  0  0  0  0  0  0
   29.4620   44.8570   -2.7600 C   0  0  0  0  0  0  0  0  0  0  0  0
   29.7840   48.4730   -1.0110 Cl  0  0  0  0  0  0  0  0  0  0  0  0
   31.1120   47.1020   -2.9000 C   0  0  0  0  0  0  0  0  0  0  0  0
   30.5380   44.8810   -3.6540 C   0  0  0  0  0  0  0  0  0  0  0  0
   31.3770   46.0030   -3.7370 C   0  0  0  0  0  0  0  0  0  0  0  0
   32.5510   46.0400   -4.7100 C   0  0  2  0  0  0  0  0  0  0  0  0
   32.1560   45.6040   -6.1320 C   0  0  0  0  0  0  0  0  0  0  0  0
   33.5850   45.1670   -4.2170 O   0  0  0  0  0  0  0  0  0  0  0  0
   32.8640   46.2320   -7.1020 O   0  0  0  0  0  0  0  0  0  0  0  0
   31.3070   44.7850   -6.4590 O   0  0  0  0  0  0  0  0  0  0  0  0
   34.6250   45.8750   -3.6720 C   0  0  0  0  0  0  0  0  0  0  0  0
   35.9220   45.3690   -3.7510 C   0  0  0  0  0  0  0  0  0  0  0  0
   34.3730   47.0930   -3.0450 C   0  0  0  0  0  0  0  0  0  0  0  0
   36.9760   46.0940   -3.1960 C   0  0  0  0  0  0  0  0  0  0  0  0
   35.4300   47.8150   -2.4930 C   0  0  0  0  0  0  0  0  0  0  0  0
   36.7310   47.3150   -2.5690 C   0  0  0  0  0  0  0  0  0  0  0  0
  1  2  1  0
  2  3  2  0
  2  4  1  0
  3  5  1  0
  3  6  1  0
  4  7  2  0
  6  8  2  0
  7  8  1  0
  8  9  1  0
  9 10  1  0
  9 11  1  1
 10 12  1  0
 10 13  2  0
 11 14  1  0
 14 15  2  0
 14 16  1  0
 15 17  1  0
 16 18  2  0
 17 19  2  0
 18 19  1  0
M  END
