mac-x0412-mac-x0338
     RDKit          3D

 14 15  0  0  0  0  0  0  0  0999 V2000
   29.0600   54.2300   -2.8020 O   0  0  0  0  0  0  0  0  0  0  0  0
   29.3090   54.1090   -3.9990 C   0  0  0  0  0  0  0  0  0  0  0  0
   29.0140   55.1140   -4.9040 N   0  0  0  0  0  0  0  0  0  0  0  0
   29.9640   52.8300   -4.5860 C   0  0  2  0  0  0  0  0  0  0  0  0
   29.2030   52.4180   -5.8440 C   0  0  0  0  0  0  0  0  0  0  0  0
   28.6790   54.7440   -6.0930 C   0  0  0  0  0  0  0  0  0  0  0  0
   30.0660   51.7150   -3.5680 C   0  0  0  0  0  0  0  0  0  0  0  0
   28.5790   53.3540   -6.5760 C   0  0  0  0  0  0  0  0  0  0  0  0
   29.2000   50.9910   -6.1830 C   0  0  0  0  0  0  0  0  0  0  0  0
   29.8510   50.4310   -3.8930 C   0  0  0  0  0  0  0  0  0  0  0  0
   28.8570   50.5070   -7.5550 C   0  0  0  0  0  0  0  0  0  0  0  0
   29.5080   50.0670   -5.2510 C   0  0  0  0  0  0  0  0  0  0  0  0
   28.0040   49.4470   -7.6150 N   0  0  0  0  0  0  0  0  0  0  0  0
   29.3050   51.0190   -8.5750 O   0  0  0  0  0  0  0  0  0  0  0  0
  1  2  2  0
  2  3  1  0
  2  4  1  0
  4  5  1  0
  3  6  2  0
  4  7  1  1
  5  8  2  0
  6  8  1  0
  5  9  1  0
  7 10  2  0
  9 11  1  0
  9 12  2  0
 10 12  1  0
 11 13  1  0
 11 14  2  0
M  END
