mac-x0123-mac-x0417
     RDKit          3D

 29 33  0  0  0  0  0  0  0  0999 V2000
   28.4760   51.6480   -7.2690 N   0  0  0  0  0  0  0  0  0  0  0  0
   28.9700   52.2420   -6.1140 C   0  0  0  0  0  0  0  0  0  0  0  0
   29.0040   53.5620   -5.8860 C   0  0  0  0  0  0  0  0  0  0  0  0
   29.4860   51.4170   -5.0820 N   0  0  0  0  0  0  0  0  0  0  0  0
   29.9830   51.9000   -3.9370 C   0  0  0  0  0  0  0  0  0  0  0  0
   29.5770   54.0030   -4.5810 C   0  0  0  0  0  0  0  0  0  0  0  0
   28.5930   54.7710   -6.6470 C   0  0  0  0  0  0  0  0  0  0  0  0
   29.5900   50.0810   -5.0070 N   0  0  0  0  0  0  0  0  0  0  0  0
   30.0430   53.2380   -3.6470 N   0  0  0  0  0  0  0  0  0  0  0  0
   29.5340   55.4970   -4.4880 C   0  0  0  0  0  0  0  0  0  0  0  0
   29.3870   55.8900   -5.9630 C   0  0  0  0  0  0  0  0  0  0  0  0
   30.3530   50.8620   -3.2500 N   0  0  0  0  0  0  0  0  0  0  0  0
   30.1510   49.5890   -3.8380 C   0  0  0  0  0  0  0  0  0  0  0  0
   29.8380   48.3900   -4.6600 C   0  0  0  0  0  0  0  0  0  0  0  0
   31.0970   47.6450   -5.0980 C   0  0  0  0  0  0  0  0  0  0  0  0
   30.8180   46.1570   -5.2840 C   0  0  0  0  0  0  0  0  0  0  0  0
   31.8540   45.5480   -6.0760 O   0  0  0  0  0  0  0  0  0  0  0  0
   33.1120   45.5220   -5.5330 C   0  0  0  0  0  0  0  0  0  0  0  0
   34.1390   45.6650   -6.1810 O   0  0  0  0  0  0  0  0  0  0  0  0
   33.0080   45.2910   -4.0410 C   0  0  0  0  0  0  0  0  0  0  0  0
   34.3200   45.0420   -3.3830 C   0  0  0  0  0  0  0  0  0  0  0  0
   34.6610   43.7940   -3.0230 N   0  0  0  0  0  0  0  0  0  0  0  0
   35.3390   45.9750   -3.0480 C   0  0  0  0  0  0  0  0  0  0  0  0
   35.9160   43.8970   -2.4430 O   0  0  0  0  0  0  0  0  0  0  0  0
   36.3200   45.1950   -2.4590 C   0  0  0  0  0  0  0  0  0  0  0  0
   35.5580   47.3590   -3.1650 C   0  0  0  0  0  0  0  0  0  0  0  0
   37.5260   45.6870   -1.9650 C   0  0  0  0  0  0  0  0  0  0  0  0
   36.7630   47.8890   -2.6780 C   0  0  0  0  0  0  0  0  0  0  0  0
   37.7280   47.0650   -2.0890 C   0  0  0  0  0  0  0  0  0  0  0  0
  1  2  1  0
  2  3  2  0
  2  4  1  0
  4  5  1  0
  3  6  1  0
  3  7  1  0
  4  8  1  0
  5  9  1  0
  6  9  2  0
  6 10  1  0
  7 11  1  0
 10 11  1  0
  5 12  2  0
  8 13  2  0
 12 13  1  0
 13 14  1  0
 14 15  1  0
 15 16  1  0
 16 17  1  0
 17 18  1  0
 18 19  2  0
 18 20  1  0
 20 21  1  0
 21 22  2  0
 21 23  1  0
 22 24  1  0
 23 25  2  0
 24 25  1  0
 23 26  1  0
 25 27  1  0
 26 28  2  0
 27 29  2  0
 28 29  1  0
M  END
