mac-x0188-mac-x0451
     RDKit          3D

 20 22  0  0  0  0  0  0  0  0999 V2000
   32.0970   44.4480   -3.8880 C   0  0  0  0  0  0  0  0  0  0  0  0
   31.8270   45.8950   -3.7580 C   0  0  0  0  0  0  0  0  0  0  0  0
   32.3170   46.4980   -2.6530 O   0  0  0  0  0  0  0  0  0  0  0  0
   31.1580   46.8090   -4.5410 C   0  0  0  0  0  0  0  0  0  0  0  0
   30.5210   46.4470   -5.7830 C   0  0  0  0  0  0  0  0  0  0  0  0
   31.9930   47.8330   -2.6760 N   0  0  0  0  0  0  0  0  0  0  0  0
   31.2990   48.0440   -3.8070 C   0  0  0  0  0  0  0  0  0  0  0  0
   29.3630   46.0690   -5.9010 O   0  0  0  0  0  0  0  0  0  0  0  0
   31.3050   46.5330   -6.8780 O   0  0  0  0  0  0  0  0  0  0  0  0
   30.8190   49.4610   -4.1010 C   0  0  2  0  0  0  0  0  0  0  0  0
   29.9370   50.0660   -3.0380 C   0  0  0  0  0  0  0  0  0  0  0  0
   30.2980   49.6320   -5.5410 C   0  0  0  0  0  0  0  0  0  0  0  0
   28.7990   50.7180   -3.2940 C   0  0  0  0  0  0  0  0  0  0  0  0
   29.2670   50.7590   -5.8240 C   0  0  1  0  0  0  0  0  0  0  0  0
   28.2470   50.9170   -4.6770 C   0  0  0  0  0  0  0  0  0  0  0  0
   29.7700   52.1500   -6.1880 N   0  0  0  0  0  0  0  0  0  0  0  0
   28.5920   50.2360   -7.0670 C   0  0  0  0  0  0  0  0  0  0  0  0
   28.8720   52.8990   -7.0680 C   0  0  2  0  0  0  0  0  0  0  0  0
   28.2360   51.6120   -8.0950 S   0  0  0  0  0  0  0  0  0  0  0  0
   29.6120   53.8620   -7.8160 N   0  0  0  0  0  0  0  0  0  0  0  0
  1  2  1  0
  2  3  1  0
  2  4  2  0
  4  5  1  0
  3  6  1  0
  4  7  1  0
  6  7  2  0
  5  8  2  0
  5  9  1  0
 10  7  1  1
 10 11  1  0
 10 12  1  0
 11 13  2  0
 14 12  1  1
 13 15  1  0
 14 15  1  0
 14 16  1  0
 14 17  1  0
 16 18  1  0
 17 19  2  0
 18 19  1  0
 18 20  1  6
M  END
