mac-x0224-mac-x0348
     RDKit          3D

 24 26  0  0  0  0  0  0  0  0999 V2000
   28.6270   52.5760   -6.2130 C   0  0  0  0  0  0  0  0  0  0  0  0
   27.8400   50.9480   -6.3410 S   0  0  0  0  0  0  0  0  0  0  0  0
   29.0450   49.9780   -5.4530 C   0  0  0  0  0  0  0  0  0  0  0  0
   29.2060   48.6130   -5.7210 C   0  0  0  0  0  0  0  0  0  0  0  0
   29.8350   50.5930   -4.4800 C   0  0  0  0  0  0  0  0  0  0  0  0
   30.1540   47.8440   -5.0290 C   0  0  0  0  0  0  0  0  0  0  0  0
   30.7820   49.8490   -3.7840 C   0  0  0  0  0  0  0  0  0  0  0  0
   30.3560   46.3580   -5.2880 C   0  0  1  0  0  0  0  0  0  0  0  0
   30.9340   48.4960   -4.0630 C   0  0  0  0  0  0  0  0  0  0  0  0
   31.8840   47.8220   -3.3520 O   0  0  0  0  0  0  0  0  0  0  0  0
   31.4290   46.0310   -6.2180 N   0  0  0  0  0  0  0  0  0  0  0  0
   30.4390   45.7870   -3.9720 O   0  0  0  0  0  0  0  0  0  0  0  0
   32.6350   46.3350   -5.9420 C   0  0  0  0  0  0  0  0  0  0  0  0
   29.2120   45.9180   -3.2410 C   0  0  1  0  0  0  0  0  0  0  0  0
   33.7170   46.0970   -6.6980 O   0  0  0  0  0  0  0  0  0  0  0  0
   29.0010   44.7470   -2.2830 C   0  0  0  0  0  0  0  0  0  0  0  0
   29.2190   47.0810   -2.2400 C   0  0  1  0  0  0  0  0  0  0  0  0
   27.9330   45.2320   -1.3840 N   0  0  0  0  0  0  0  0  0  0  0  0
   28.0470   46.7040   -1.2970 C   0  0  1  0  0  0  0  0  0  0  0  0
   30.5270   47.3940   -1.5520 C   0  0  0  0  0  0  0  0  0  0  0  0
   27.9030   44.5410   -0.1070 C   0  0  0  0  0  0  0  0  0  0  0  0
   30.5920   47.6440   -0.2390 C   0  0  0  0  0  0  0  0  0  0  0  0
   28.2340   47.1850    0.1180 C   0  0  0  0  0  0  0  0  0  0  0  0
   29.4130   47.6190    0.5890 C   0  0  0  0  0  0  0  0  0  0  0  0
  1  2  1  0
  2  3  1  0
  3  4  2  0
  3  5  1  0
  4  6  1  0
  5  7  2  0
  6  8  1  0
  6  9  2  0
  7  9  1  0
  9 10  1  0
  8 11  1  6
  8 12  1  0
 11 13  2  3
 14 12  1  1
 13 15  1  0
 14 16  1  0
 14 17  1  0
 16 18  1  0
 17 19  1  0
 18 19  1  0
 17 20  1  1
 18 21  1  0
 20 22  2  0
 19 23  1  1
 22 24  1  0
 23 24  2  0
M  END
