mac-x0137-mac-x0568
     RDKit          3D

 25 28  0  0  0  0  0  0  0  0999 V2000
   31.1240   50.9190   -4.7580 N   0  0  0  0  0  0  0  0  0  0  0  0
   30.5470   51.9030   -5.3510 C   0  0  0  0  0  0  0  0  0  0  0  0
   29.8440   51.8140   -6.5280 N   0  0  0  0  0  0  0  0  0  0  0  0
   31.0960   49.5500   -5.2860 C   0  0  2  0  0  0  0  0  0  0  0  0
   29.6390   49.0320   -5.2640 C   0  0  0  0  0  0  0  0  0  0  0  0
   32.0050   48.6460   -4.4410 C   0  0  0  0  0  0  0  0  0  0  0  0
   30.6620   53.2440   -4.6900 C   0  0  0  0  0  0  0  0  0  0  0  0
   29.5080   47.6320   -5.7390 N   0  0  0  0  0  0  0  0  0  0  0  0
   31.4200   47.2520   -4.2140 C   0  0  0  0  0  0  0  0  0  0  0  0
   31.2080   53.3900   -3.4220 C   0  0  0  0  0  0  0  0  0  0  0  0
   30.2190   54.4000   -5.3370 C   0  0  0  0  0  0  0  0  0  0  0  0
   30.6470   46.7490   -5.4270 C   0  0  0  0  0  0  0  0  0  0  0  0
   28.6470   47.2750   -6.7820 C   0  0  0  0  0  0  0  0  0  0  0  0
   31.3350   54.5800   -2.7800 N   0  0  0  0  0  0  0  0  0  0  0  0
   30.3350   55.6350   -4.7020 C   0  0  0  0  0  0  0  0  0  0  0  0
   28.9030   46.1060   -7.4770 N   0  0  0  0  0  0  0  0  0  0  0  0
   27.5630   47.9590   -7.1990 C   0  0  0  0  0  0  0  0  0  0  0  0
   30.8960   55.6870   -3.4290 C   0  0  0  0  0  0  0  0  0  0  0  0
   31.0350   57.0010   -2.7210 C   0  0  0  0  0  0  0  0  0  0  0  0
   28.1180   45.6780   -8.5090 C   0  0  0  0  0  0  0  0  0  0  0  0
   26.7520   47.4340   -8.3290 C   0  0  0  0  0  0  0  0  0  0  0  0
   26.8780   49.1640   -6.8510 C   0  0  0  0  0  0  0  0  0  0  0  0
   27.0680   46.2690   -8.9710 N   0  0  0  0  0  0  0  0  0  0  0  0
   25.7390   48.2070   -8.6200 N   0  0  0  0  0  0  0  0  0  0  0  0
   25.8420   49.2470   -7.7050 C   0  0  0  0  0  0  0  0  0  0  0  0
  1  2  2  3
  2  3  1  0
  4  1  1  1
  4  5  1  0
  4  6  1  0
  2  7  1  0
  5  8  1  0
  6  9  1  0
  7 10  2  0
  7 11  1  0
  8 12  1  0
  9 12  1  0
  8 13  1  0
 10 14  1  0
 11 15  2  0
 13 16  1  0
 13 17  2  0
 14 18  2  0
 15 18  1  0
 18 19  1  0
 16 20  1  0
 17 21  1  0
 17 22  1  0
 20 23  2  0
 21 23  1  0
 21 24  2  0
 22 25  2  0
 24 25  1  0
M  END
