mac-x0231-mac-x0387
     RDKit          3D

 25 28  0  0  0  0  0  0  0  0999 V2000
   35.0390   43.2380   -4.8460 O   0  0  0  0  0  0  0  0  0  0  0  0
   33.7530   42.8310   -4.8130 C   0  0  0  0  0  0  0  0  0  0  0  0
   33.3100   42.1150   -5.6940 O   0  0  0  0  0  0  0  0  0  0  0  0
   33.0200   43.3660   -3.6160 C   0  0  0  0  0  0  0  0  0  0  0  0
   31.7900   44.1850   -3.9700 C   0  0  0  0  0  0  0  0  0  0  0  0
   31.8330   45.6820   -3.9120 C   0  0  0  0  0  0  0  0  0  0  0  0
   30.7350   43.5070   -4.3120 N   0  0  0  0  0  0  0  0  0  0  0  0
   30.7010   46.3590   -4.2040 C   0  0  0  0  0  0  0  0  0  0  0  0
   29.6250   44.2160   -4.6320 N   0  0  0  0  0  0  0  0  0  0  0  0
   33.1120   46.3790   -3.5360 C   0  0  0  0  0  0  0  0  0  0  0  0
   29.4770   45.5740   -4.5570 C   0  0  0  0  0  0  0  0  0  0  0  0
   30.6270   47.8970   -4.1830 C   0  0  1  0  0  0  0  0  0  0  0  0
   32.8840   47.7700   -3.0330 C   0  0  0  0  0  0  0  0  0  0  0  0
   28.3860   46.0900   -4.7670 O   0  0  0  0  0  0  0  0  0  0  0  0
   31.7660   48.4540   -3.3210 C   0  0  0  0  0  0  0  0  0  0  0  0
   30.8730   48.4620   -5.6240 C   0  0  0  0  0  0  0  0  0  0  0  0
   29.3330   48.3890   -3.5480 C   0  0  0  0  0  0  0  0  0  0  0  0
   29.6710   49.0570   -6.3320 C   0  0  0  0  0  0  0  0  0  0  0  0
   28.3630   49.0330   -4.2150 C   0  0  0  0  0  0  0  0  0  0  0  0
   28.4720   49.3260   -5.6520 C   0  0  0  0  0  0  0  0  0  0  0  0
   29.7530   49.3430   -7.6950 C   0  0  0  0  0  0  0  0  0  0  0  0
   27.4080   49.8770   -6.3870 C   0  0  0  0  0  0  0  0  0  0  0  0
   28.6490   49.8840   -8.3290 C   0  0  0  0  0  0  0  0  0  0  0  0
   26.1770   50.1830   -5.8010 N   0  0  0  0  0  0  0  0  0  0  0  0
   27.4840   50.1560   -7.7040 N   0  0  0  0  0  0  0  0  0  0  0  0
  1  2  1  0
  2  3  2  0
  2  4  1  0
  4  5  1  0
  5  6  1  0
  5  7  2  0
  6  8  2  0
  7  9  1  0
  6 10  1  0
  8 11  1  0
  9 11  1  0
  8 12  1  0
 10 13  1  0
 11 14  2  0
 12 15  1  1
 13 15  2  0
 12 16  1  0
 12 17  1  0
 16 18  1  0
 17 19  2  0
 18 20  2  0
 19 20  1  0
 18 21  1  0
 20 22  1  0
 21 23  2  0
 22 24  1  0
 22 25  2  0
 23 25  1  0
M  END
