mac-x0124-mac-x0417
     RDKit          3D

 26 29  0  0  0  0  0  0  0  0999 V2000
   30.1010   45.9790   -4.9480 C   0  0  0  0  0  0  0  0  0  0  0  0
   29.9310   47.4000   -5.1520 N   0  0  0  0  0  0  0  0  0  0  0  0
   30.4240   48.3970   -4.3580 C   0  0  0  0  0  0  0  0  0  0  0  0
   29.2470   47.9370   -6.2000 C   0  0  0  0  0  0  0  0  0  0  0  0
   31.2480   48.0840   -3.1630 C   0  0  0  0  0  0  0  0  0  0  0  0
   30.0220   49.6080   -4.9030 C   0  0  0  0  0  0  0  0  0  0  0  0
   29.2790   49.3170   -6.0810 C   0  0  0  0  0  0  0  0  0  0  0  0
   28.6570   47.2260   -7.1700 N   0  0  0  0  0  0  0  0  0  0  0  0
   32.5570   47.4420   -3.6600 C   0  0  0  0  0  0  0  0  0  0  0  0
   28.6210   50.0400   -7.0850 C   0  0  0  0  0  0  0  0  0  0  0  0
   28.0710   48.0220   -8.0690 C   0  0  0  0  0  0  0  0  0  0  0  0
   28.5520   51.4280   -7.1220 N   0  0  0  0  0  0  0  0  0  0  0  0
   32.3580   46.7910   -4.9570 O   0  0  0  0  0  0  0  0  0  0  0  0
   28.0190   49.3670   -8.0840 N   0  0  0  0  0  0  0  0  0  0  0  0
   33.2130   45.7650   -5.2080 C   0  0  0  0  0  0  0  0  0  0  0  0
   33.9270   45.6370   -6.2010 O   0  0  0  0  0  0  0  0  0  0  0  0
   33.1630   44.7960   -4.0720 C   0  0  0  0  0  0  0  0  0  0  0  0
   34.4490   44.7530   -3.3350 C   0  0  0  0  0  0  0  0  0  0  0  0
   34.8400   43.5840   -2.8150 N   0  0  0  0  0  0  0  0  0  0  0  0
   35.3950   45.7880   -3.0670 C   0  0  0  0  0  0  0  0  0  0  0  0
   36.0520   43.8320   -2.1990 O   0  0  0  0  0  0  0  0  0  0  0  0
   36.3850   45.1400   -2.3470 C   0  0  0  0  0  0  0  0  0  0  0  0
   35.5540   47.1640   -3.3290 C   0  0  0  0  0  0  0  0  0  0  0  0
   37.5350   45.7490   -1.8590 C   0  0  0  0  0  0  0  0  0  0  0  0
   36.7020   47.8090   -2.8490 C   0  0  0  0  0  0  0  0  0  0  0  0
   37.6760   47.1140   -2.1280 C   0  0  0  0  0  0  0  0  0  0  0  0
  1  2  1  0
  2  3  1  0
  2  4  1  0
  3  5  1  0
  3  6  2  0
  4  7  2  0
  6  7  1  0
  4  8  1  0
  5  9  1  0
  7 10  1  0
  8 11  2  0
 10 12  1  0
  9 13  1  0
 10 14  2  0
 11 14  1  0
 13 15  1  0
 15 16  2  0
 15 17  1  0
 17 18  1  0
 18 19  2  0
 18 20  1  0
 19 21  1  0
 20 22  2  0
 21 22  1  0
 20 23  1  0
 22 24  1  0
 23 25  2  0
 24 26  2  0
 25 26  1  0
M  END
