mac-x0439-mac-x0193
     RDKit          3D

 26 28  0  0  0  0  0  0  0  0999 V2000
   30.8250   47.3660   -1.9090 Cl  0  0  0  0  0  0  0  0  0  0  0  0
   29.6520   46.1370   -2.1860 C   0  0  0  0  0  0  0  0  0  0  0  0
   29.2400   45.8340   -3.5890 C   0  0  1  0  0  0  0  0  0  0  0  0
   29.0910   45.4620   -1.1670 C   0  0  0  0  0  0  0  0  0  0  0  0
   30.1710   45.8090   -4.7490 C   0  0  0  0  0  0  0  0  0  0  0  0
   28.8550   44.3630   -3.6570 C   0  0  0  0  0  0  0  0  0  0  0  0
   28.0910   44.4300   -1.4160 C   0  0  0  0  0  0  0  0  0  0  0  0
   30.1700   44.5830   -5.2900 C   0  0  0  0  0  0  0  0  0  0  0  0
   29.3660   43.6670   -4.6340 N   0  0  0  0  0  0  0  0  0  0  0  0
   27.9370   43.8560   -2.6240 C   0  0  0  0  0  0  0  0  0  0  0  0
   30.9540   44.2010   -6.4950 C   0  0  0  0  0  0  0  0  0  0  0  0
   30.1910   43.4390   -7.3160 O   0  0  0  0  0  0  0  0  0  0  0  0
   32.1640   44.5100   -6.7750 N   0  0  0  0  0  0  0  0  0  0  0  0
   32.9590   45.3260   -5.8310 C   0  0  2  0  0  0  0  0  0  0  0  0
   34.2200   45.7840   -6.2990 O   0  0  0  0  0  0  0  0  0  0  0  0
   33.1250   44.5790   -4.4800 C   0  0  0  0  0  0  0  0  0  0  0  0
   34.4830   44.6450   -3.9430 N   0  0  0  0  0  0  0  0  0  0  0  0
   34.8970   43.6910   -3.0450 C   0  0  0  0  0  0  0  0  0  0  0  0
   34.2910   42.6570   -2.8100 O   0  0  0  0  0  0  0  0  0  0  0  0
   36.0770   44.0460   -2.4350 N   0  0  0  0  0  0  0  0  0  0  0  0
   36.8820   43.0250   -1.7670 C   0  0  0  0  0  0  0  0  0  0  0  0
   38.0080   42.5060   -2.6760 C   0  0  0  0  0  0  0  0  0  0  0  0
   37.4340   43.5460   -0.4390 C   0  0  0  0  0  0  0  0  0  0  0  0
   38.9250   41.4870   -1.9950 C   0  0  0  0  0  0  0  0  0  0  0  0
   38.3710   42.5440    0.2450 C   0  0  0  0  0  0  0  0  0  0  0  0
   39.4700   42.0030   -0.6710 C   0  0  0  0  0  0  0  0  0  0  0  0
  1  2  1  0
  2  3  1  0
  2  4  2  0
  3  5  1  6
  3  6  1  0
  4  7  1  0
  5  8  2  0
  6  9  2  0
  8  9  1  0
  6 10  1  0
  7 10  2  0
  8 11  1  0
 11 12  1  0
 11 13  2  3
 13 14  1  0
 14 15  1  6
 14 16  1  0
 16 17  1  0
 17 18  1  0
 18 19  2  0
 18 20  1  0
 20 21  1  0
 21 22  1  0
 21 23  1  0
 22 24  1  0
 23 25  1  0
 24 26  1  0
 25 26  1  0
M  END
