mac-x0396-mac-x0305
     RDKit          3D

 18 19  0  0  0  0  0  0  0  0999 V2000
   26.8070   51.9450   -5.8400 N   0  0  0  0  0  0  0  0  0  0  0  0
   27.9170   51.5730   -4.9550 C   0  0  2  0  0  0  0  0  0  0  0  0
   28.8340   52.7650   -4.7610 C   0  0  0  0  0  0  0  0  0  0  0  0
   28.6490   50.3130   -5.3960 C   0  0  0  0  0  0  0  0  0  0  0  0
   29.2250   53.1520   -3.4790 C   0  0  0  0  0  0  0  0  0  0  0  0
   29.3280   53.5230   -5.8300 C   0  0  0  0  0  0  0  0  0  0  0  0
   28.8160   49.9280   -6.7350 C   0  0  0  0  0  0  0  0  0  0  0  0
   29.2040   49.4630   -4.4340 C   0  0  0  0  0  0  0  0  0  0  0  0
   30.0390   54.2010   -3.2140 N   0  0  0  0  0  0  0  0  0  0  0  0
   30.1660   54.6060   -5.5860 C   0  0  0  0  0  0  0  0  0  0  0  0
   29.5010   48.7550   -7.0530 C   0  0  0  0  0  0  0  0  0  0  0  0
   29.8740   48.3190   -4.7060 N   0  0  0  0  0  0  0  0  0  0  0  0
   30.4900   54.9020   -4.2730 C   0  0  0  0  0  0  0  0  0  0  0  0
   29.6120   48.4610   -8.3820 O   0  0  0  0  0  0  0  0  0  0  0  0
   30.0170   47.9770   -6.0140 C   0  0  0  0  0  0  0  0  0  0  0  0
   30.7680   46.7000   -6.2470 C   0  0  0  0  0  0  0  0  0  0  0  0
   31.4830   46.7040   -7.4010 O   0  0  0  0  0  0  0  0  0  0  0  0
   30.7900   45.7110   -5.5330 O   0  0  0  0  0  0  0  0  0  0  0  0
  2  1  1  6
  2  3  1  0
  2  4  1  0
  3  5  2  0
  3  6  1  0
  4  7  2  0
  4  8  1  0
  5  9  1  0
  6 10  2  0
  7 11  1  0
  8 12  2  0
  9 13  2  0
 10 13  1  0
 11 14  1  0
 11 15  2  0
 12 15  1  0
 15 16  1  0
 16 17  1  0
 16 18  2  0
M  END
