mac-x0305-mac-x0223
     RDKit          3D

 21 22  0  0  0  0  0  0  0  0999 V2000
   30.0750   46.3500   -7.2390 O   0  0  0  0  0  0  0  0  0  0  0  0
   30.8960   47.2900   -6.5600 C   0  0  2  0  0  0  0  0  0  0  0  0
   31.9350   46.6360   -5.6090 C   0  0  0  0  0  0  0  0  0  0  0  0
   30.1270   48.4890   -5.9840 C   0  0  0  0  0  0  0  0  0  0  0  0
   31.5580   45.5140   -4.6610 C   0  0  0  0  0  0  0  0  0  0  0  0
   33.1180   47.0000   -5.6170 O   0  0  0  0  0  0  0  0  0  0  0  0
   29.1970   49.1840   -6.7690 C   0  0  0  0  0  0  0  0  0  0  0  0
   30.3730   48.8690   -4.7000 N   0  0  0  0  0  0  0  0  0  0  0  0
   28.9580   48.7930   -8.0580 O   0  0  0  0  0  0  0  0  0  0  0  0
   28.5150   50.2770   -6.2410 C   0  0  0  0  0  0  0  0  0  0  0  0
   29.6940   49.9380   -4.2070 C   0  0  0  0  0  0  0  0  0  0  0  0
   30.6500   46.0000   -3.5770 C   0  0  0  0  0  0  0  0  0  0  0  0
   28.7670   50.6630   -4.9340 C   0  0  0  0  0  0  0  0  0  0  0  0
   30.9190   47.2120   -2.9360 C   0  0  0  0  0  0  0  0  0  0  0  0
   29.5280   45.2510   -3.2080 C   0  0  0  0  0  0  0  0  0  0  0  0
   28.6700   45.7030   -2.2100 C   0  0  0  0  0  0  0  0  0  0  0  0
   30.0690   47.6750   -1.9380 C   0  0  0  0  0  0  0  0  0  0  0  0
   27.5550   45.0390   -1.7900 O   0  0  0  0  0  0  0  0  0  0  0  0
   28.9530   46.9250   -1.5830 C   0  0  0  0  0  0  0  0  0  0  0  0
   27.4660   43.6590   -2.1180 C   0  0  0  0  0  0  0  0  0  0  0  0
   28.1150   47.3840   -0.6060 O   0  0  0  0  0  0  0  0  0  0  0  0
  2  1  1  1
  2  3  1  0
  2  4  1  0
  3  5  1  0
  3  6  2  0
  4  7  2  0
  4  8  1  0
  7  9  1  0
  7 10  1  0
  8 11  2  0
  5 12  1  0
 10 13  2  0
 11 13  1  0
 12 14  2  0
 12 15  1  0
 15 16  2  0
 14 17  1  0
 16 18  1  0
 16 19  1  0
 17 19  2  0
 18 20  1  0
 19 21  1  0
M  END
