mac-x0213-mac-x0139
     RDKit          3D

 25 28  0  0  0  0  0  0  0  0999 V2000
   32.4630   46.9360   -5.6950 O   0  0  0  0  0  0  0  0  0  0  0  0
   31.7960   45.6610   -5.5720 C   0  0  2  0  0  0  0  0  0  0  0  0
   32.4190   44.5430   -6.3950 N   0  0  0  0  0  0  0  0  0  0  0  0
   30.2850   45.7680   -5.9870 C   0  0  0  0  0  0  0  0  0  0  0  0
   31.9590   45.2660   -4.0670 C   0  0  0  0  0  0  0  0  0  0  0  0
   29.7000   47.1320   -5.8380 N   0  0  0  0  0  0  0  0  0  0  0  0
   32.2770   44.6980   -7.6130 O   0  0  0  0  0  0  0  0  0  0  0  0
   31.9020   46.4410   -3.0550 C   0  0  0  0  0  0  0  0  0  0  0  0
   30.8960   44.2330   -3.6030 C   0  0  0  0  0  0  0  0  0  0  0  0
   29.4250   47.5340   -4.4630 C   0  0  0  0  0  0  0  0  0  0  0  0
   30.5650   46.2760   -2.4030 C   0  0  0  0  0  0  0  0  0  0  0  0
   30.0010   45.0360   -2.7140 C   0  0  0  0  0  0  0  0  0  0  0  0
   29.2400   47.8360   -6.9540 C   0  0  0  0  0  0  0  0  0  0  0  0
   29.9000   47.1760   -1.5870 C   0  0  0  0  0  0  0  0  0  0  0  0
   28.7600   44.6730   -2.2160 C   0  0  0  0  0  0  0  0  0  0  0  0
   29.1440   49.1810   -6.9800 C   0  0  0  0  0  0  0  0  0  0  0  0
   28.8720   47.0650   -8.0700 N   0  0  0  0  0  0  0  0  0  0  0  0
   28.6490   46.8180   -1.0800 C   0  0  0  0  0  0  0  0  0  0  0  0
   28.0830   45.5740   -1.3940 C   0  0  0  0  0  0  0  0  0  0  0  0
   28.6420   49.8190   -8.2210 C   0  0  0  0  0  0  0  0  0  0  0  0
   28.4380   47.6720   -9.1310 C   0  0  0  0  0  0  0  0  0  0  0  0
   29.3910   50.2990   -6.1230 C   0  0  0  0  0  0  0  0  0  0  0  0
   28.3120   49.0150   -9.2590 N   0  0  0  0  0  0  0  0  0  0  0  0
   28.5950   51.1180   -8.1220 N   0  0  0  0  0  0  0  0  0  0  0  0
   29.0550   51.3810   -6.8410 C   0  0  0  0  0  0  0  0  0  0  0  0
  2  1  1  1
  2  3  1  0
  2  4  1  0
  2  5  1  0
  4  6  1  0
  3  7  2  0
  5  8  1  0
  5  9  1  0
  6 10  1  0
  8 11  1  0
  9 12  1  0
 11 12  2  0
  6 13  1  0
 11 14  1  0
 12 15  1  0
 13 16  2  0
 13 17  1  0
 14 18  2  0
 15 19  2  0
 18 19  1  0
 16 20  1  0
 17 21  2  0
 16 22  1  0
 20 23  1  0
 21 23  1  0
 20 24  2  0
 22 25  2  0
 24 25  1  0
M  END
