mac-x0392-mac-x0159
     RDKit          3D

 21 23  0  0  0  0  0  0  0  0999 V2000
   29.3230   47.3040   -8.6450 N   0  0  0  0  0  0  0  0  0  0  0  0
   29.4770   48.6750   -8.1260 C   0  0  0  0  0  0  0  0  0  0  0  0
   28.3870   49.1790   -7.1240 C   0  0  2  0  0  0  0  0  0  0  0  0
   28.7180   50.5670   -6.6880 N   0  0  0  0  0  0  0  0  0  0  0  0
   28.1420   48.2680   -5.8880 C   0  0  1  0  0  0  0  0  0  0  0  0
   27.8330   51.6290   -6.9290 N   0  0  0  0  0  0  0  0  0  0  0  0
   29.2210   48.4870   -4.7840 C   0  0  1  0  0  0  0  0  0  0  0  0
   29.6070   50.7580   -5.6590 C   0  0  0  0  0  0  0  0  0  0  0  0
   26.8470   48.5620   -5.1520 C   0  0  0  0  0  0  0  0  0  0  0  0
   30.3350   47.3560   -4.7670 C   0  0  0  0  0  0  0  0  0  0  0  0
   29.8830   49.8260   -4.7410 C   0  0  0  0  0  0  0  0  0  0  0  0
   28.3990   48.3290   -3.5110 N   0  0  0  0  0  0  0  0  0  0  0  0
   27.0690   48.5790   -3.8350 C   0  0  0  0  0  0  0  0  0  0  0  0
   30.5210   46.2330   -4.1560 N   0  0  0  0  0  0  0  0  0  0  0  0
   31.3370   47.6710   -5.6310 O   0  0  0  0  0  0  0  0  0  0  0  0
   29.5730   45.7570   -3.2680 C   0  0  0  0  0  0  0  0  0  0  0  0
   28.7520   44.7180   -3.6360 C   0  0  0  0  0  0  0  0  0  0  0  0
   29.3840   46.2480   -2.0020 N   0  0  0  0  0  0  0  0  0  0  0  0
   28.4160   45.5770   -1.4130 C   0  0  0  0  0  0  0  0  0  0  0  0
   27.6950   44.3310   -2.3520 S   0  0  0  0  0  0  0  0  0  0  0  0
   27.9340   45.8350   -0.0310 C   0  0  0  0  0  0  0  0  0  0  0  0
  1  2  1  0
  3  2  1  1
  3  4  1  0
  3  5  1  0
  4  6  1  0
  5  7  1  0
  4  8  1  0
  5  9  1  1
  7 10  1  1
  7 11  1  0
  8 11  2  0
  7 12  1  0
  9 13  2  0
 12 13  1  0
 10 14  2  3
 10 15  1  0
 14 16  1  0
 16 17  2  0
 16 18  1  0
 18 19  2  0
 17 20  1  0
 19 20  1  0
 19 21  1  0
M  END
