mac-x0226-mac-x0588
     RDKit          3D

 32 36  0  0  0  0  0  0  0  0999 V2000
   32.7620   45.2390   -7.2970 O   0  0  0  0  0  0  0  0  0  0  0  0
   33.1970   46.0750   -6.2460 C   0  0  0  0  0  0  0  0  0  0  0  0
   34.2190   46.8920   -6.7950 O   0  0  0  0  0  0  0  0  0  0  0  0
   32.0300   46.9340   -5.7640 C   0  0  0  0  0  0  0  0  0  0  0  0
   33.6840   45.2790   -5.0810 C   0  0  0  0  0  0  0  0  0  0  0  0
   31.2120   46.1990   -4.6900 C   0  0  0  0  0  0  0  0  0  0  0  0
   33.1840   44.0520   -4.6010 C   0  0  0  0  0  0  0  0  0  0  0  0
   34.7180   45.5680   -4.2180 C   0  0  0  0  0  0  0  0  0  0  0  0
   30.2020   47.0940   -3.9420 C   0  0  1  0  0  0  0  0  0  0  0  0
   33.8410   43.6080   -3.5320 N   0  0  0  0  0  0  0  0  0  0  0  0
   34.7900   44.5500   -3.2980 N   0  0  0  0  0  0  0  0  0  0  0  0
   35.7000   44.4280   -2.2190 C   0  0  0  0  0  0  0  0  0  0  0  0
   30.0010   48.2990   -4.8010 N   0  0  0  0  0  0  0  0  0  0  0  0
   28.9850   46.2430   -3.4550 C   0  0  2  0  0  0  0  0  0  0  0  0
   36.5260   45.5160   -1.9030 C   0  0  0  0  0  0  0  0  0  0  0  0
   35.7910   43.2500   -1.4680 C   0  0  0  0  0  0  0  0  0  0  0  0
   29.9120   49.5460   -4.0200 C   0  0  0  0  0  0  0  0  0  0  0  0
   29.0170   48.2750   -5.8580 C   0  0  1  0  0  0  0  0  0  0  0  0
   28.4940   46.7530   -2.1900 O   0  0  0  0  0  0  0  0  0  0  0  0
   29.3300   44.7800   -3.1660 C   0  0  0  0  0  0  0  0  0  0  0  0
   37.4320   45.4260   -0.8470 C   0  0  0  0  0  0  0  0  0  0  0  0
   36.7010   43.1680   -0.4120 C   0  0  0  0  0  0  0  0  0  0  0  0
   28.9770   50.4910   -4.6210 N   0  0  0  0  0  0  0  0  0  0  0  0
   29.3060   49.4110   -6.8300 C   0  0  2  0  0  0  0  0  0  0  0  0
   29.1400   47.1480   -6.7810 N   0  0  0  0  0  0  0  0  0  0  0  0
   28.3110   44.4000   -2.1230 C   0  0  0  0  0  0  0  0  0  0  0  0
   28.2210   45.6650   -1.3050 C   0  0  0  0  0  0  0  0  0  0  0  0
   37.5190   44.2540   -0.1030 C   0  0  0  0  0  0  0  0  0  0  0  0
   29.2560   50.7320   -6.0230 C   0  0  1  0  0  0  0  0  0  0  0  0
   28.3650   49.0980   -7.9130 N   0  0  0  0  0  0  0  0  0  0  0  0
   28.5710   47.6460   -8.0390 C   0  0  0  0  0  0  0  0  0  0  0  0
   28.2410   51.6770   -6.4300 N   0  0  0  0  0  0  0  0  0  0  0  0
  2  1  1  0
  2  3  1  0
  2  4  1  0
  2  5  1  0
  4  6  1  0
  5  7  1  0
  5  8  2  0
  9  6  1  6
  7 10  2  0
  8 11  1  0
 10 11  1  0
 11 12  1  0
  9 13  1  0
  9 14  1  0
 12 15  2  0
 12 16  1  0
 13 17  1  0
 13 18  1  0
 14 19  1  0
 14 20  1  1
 15 21  1  0
 16 22  2  0
 17 23  1  0
 18 24  1  0
 18 25  1  6
 20 26  1  0
 19 27  1  0
 26 27  1  0
 21 28  2  0
 22 28  1  0
 23 29  1  0
 24 29  1  0
 24 30  1  6
 25 31  1  0
 30 31  1  0
 29 32  1  6
M  END
