mac-x0587-mac-x0283
     RDKit          3D

 20 21  0  0  0  0  0  0  0  0999 V2000
   29.3820   45.7800   -3.5380 C   0  0  0  0  0  0  0  0  0  0  0  0
   30.4230   46.7610   -4.0760 C   0  0  2  0  0  0  0  0  0  0  0  0
   32.1160   46.1650   -3.6220 S   0  0  0  0  0  0  0  0  0  0  0  0
   30.1620   48.2030   -3.5930 C   0  0  0  0  0  0  0  0  0  0  0  0
   33.2000   46.7460   -4.9690 C   0  0  0  0  0  0  0  0  0  0  0  0
   30.4580   48.5240   -2.4310 O   0  0  0  0  0  0  0  0  0  0  0  0
   29.5880   49.1350   -4.4690 N   0  0  0  0  0  0  0  0  0  0  0  0
   33.2220   45.8680   -6.2040 C   0  0  0  0  0  0  0  0  0  0  0  0
   29.0370   50.4240   -4.0330 C   0  0  0  0  0  0  0  0  0  0  0  0
   29.4510   49.0960   -5.8620 C   0  0  0  0  0  0  0  0  0  0  0  0
   34.2450   45.5770   -6.8050 O   0  0  0  0  0  0  0  0  0  0  0  0
   32.0130   45.4160   -6.6130 O   0  0  0  0  0  0  0  0  0  0  0  0
   29.3730   48.1220   -6.5960 O   0  0  0  0  0  0  0  0  0  0  0  0
   29.3960   51.3710   -5.1920 C   0  0  1  0  0  0  0  0  0  0  0  0
   29.4090   50.4280   -6.3210 N   0  0  0  0  0  0  0  0  0  0  0  0
   28.5510   52.6880   -5.3930 C   0  0  2  0  0  0  0  0  0  0  0  0
   30.6850   52.0720   -4.8570 C   0  0  0  0  0  0  0  0  0  0  0  0
   28.6720   53.4250   -6.6360 N   0  0  0  0  0  0  0  0  0  0  0  0
   29.0140   53.6330   -4.3840 N   0  0  0  0  0  0  0  0  0  0  0  0
   30.3130   53.1240   -3.9480 O   0  0  0  0  0  0  0  0  0  0  0  0
  2  1  1  1
  2  3  1  0
  2  4  1  0
  3  5  1  0
  4  6  2  0
  4  7  1  0
  5  8  1  0
  7  9  1  0
  7 10  1  0
  8 11  2  0
  8 12  1  0
 10 13  2  0
 14  9  1  1
 10 15  1  0
 14 15  1  0
 14 16  1  0
 14 17  1  0
 16 18  1  6
 16 19  1  0
 17 20  1  0
 19 20  1  0
M  END
