mac-x0228-mac-x0213
     RDKit          3D

 23 26  0  0  0  0  0  0  0  0999 V2000
   31.3140   48.3310   -5.9110 O   0  0  0  0  0  0  0  0  0  0  0  0
   30.9500   48.3650   -4.5300 C   0  0  1  0  0  0  0  0  0  0  0  0
   30.4680   49.7850   -4.3370 C   0  0  0  0  0  0  0  0  0  0  0  0
   30.1120   47.1170   -4.3330 C   0  0  1  0  0  0  0  0  0  0  0  0
   30.1290   50.6180   -5.4100 C   0  0  0  0  0  0  0  0  0  0  0  0
   30.3650   50.2990   -3.0180 C   0  0  0  0  0  0  0  0  0  0  0  0
   30.4970   45.8380   -5.1120 C   0  0  1  0  0  0  0  0  0  0  0  0
   29.5750   46.6340   -3.0300 C   0  0  0  0  0  0  0  0  0  0  0  0
   29.7160   51.9090   -5.1560 C   0  0  0  0  0  0  0  0  0  0  0  0
   29.9440   51.6110   -2.7740 C   0  0  0  0  0  0  0  0  0  0  0  0
   31.7630   45.8890   -5.9490 C   0  0  0  0  0  0  0  0  0  0  0  0
   29.7220   45.2500   -2.9370 C   0  0  0  0  0  0  0  0  0  0  0  0
   30.4130   44.6570   -4.1340 C   0  0  0  0  0  0  0  0  0  0  0  0
   28.9840   47.3680   -2.0150 C   0  0  0  0  0  0  0  0  0  0  0  0
   29.6300   52.3930   -3.8650 C   0  0  0  0  0  0  0  0  0  0  0  0
   29.3170   52.9720   -6.1050 C   0  0  0  0  0  0  0  0  0  0  0  0
   32.8780   46.2200   -5.2630 O   0  0  0  0  0  0  0  0  0  0  0  0
   31.8310   45.6680   -7.1420 O   0  0  0  0  0  0  0  0  0  0  0  0
   28.5180   46.6910   -0.8930 C   0  0  0  0  0  0  0  0  0  0  0  0
   29.2540   44.5730   -1.8270 C   0  0  0  0  0  0  0  0  0  0  0  0
   29.2120   53.6970   -3.8070 O   0  0  0  0  0  0  0  0  0  0  0  0
   29.4450   54.1640   -5.1580 C   0  0  0  0  0  0  0  0  0  0  0  0
   28.6470   45.3010   -0.8020 C   0  0  0  0  0  0  0  0  0  0  0  0
  2  1  1  6
  2  3  1  0
  2  4  1  0
  3  5  2  0
  3  6  1  0
  4  7  1  0
  4  8  1  1
  5  9  1  0
  6 10  2  0
  7 11  1  1
  8 12  2  0
  7 13  1  0
 12 13  1  0
  8 14  1  0
  9 15  2  0
 10 15  1  0
  9 16  1  0
 11 17  1  0
 11 18  2  0
 14 19  2  0
 12 20  1  0
 15 21  1  0
 16 22  1  0
 21 22  1  0
 19 23  1  0
 20 23  2  0
M  END
