mac-x0387-mac-x0277
     RDKit          3D

 24 26  0  0  0  0  0  0  0  0999 V2000
   27.5570   51.3420   -6.9170 N   0  0  0  0  0  0  0  0  0  0  0  0
   28.2000   50.1650   -7.3130 C   0  0  0  0  0  0  0  0  0  0  0  0
   27.9160   49.7540   -8.5650 N   0  0  0  0  0  0  0  0  0  0  0  0
   29.0800   49.4830   -6.4460 C   0  0  0  0  0  0  0  0  0  0  0  0
   29.6840   48.3260   -6.9610 C   0  0  0  0  0  0  0  0  0  0  0  0
   28.5050   48.6390   -9.0100 C   0  0  0  0  0  0  0  0  0  0  0  0
   29.3890   49.8870   -5.1190 C   0  0  0  0  0  0  0  0  0  0  0  0
   29.3790   47.9130   -8.2590 C   0  0  0  0  0  0  0  0  0  0  0  0
   30.5700   47.6070   -6.2010 C   0  0  0  0  0  0  0  0  0  0  0  0
   30.2750   49.1540   -4.3330 C   0  0  0  0  0  0  0  0  0  0  0  0
   31.2070   46.3870   -6.8270 C   0  0  0  0  0  0  0  0  0  0  0  0
   30.8700   48.0130   -4.8710 C   0  0  0  0  0  0  0  0  0  0  0  0
   31.3130   45.4780   -5.7700 N   0  0  0  0  0  0  0  0  0  0  0  0
   32.3990   45.5040   -5.1510 C   0  0  0  0  0  0  0  0  0  0  0  0
   33.4680   46.2740   -5.4450 O   0  0  0  0  0  0  0  0  0  0  0  0
   32.4190   44.6480   -3.9520 C   0  0  0  0  0  0  0  0  0  0  0  0
   31.1710   45.0940   -3.2320 C   0  0  0  0  0  0  0  0  0  0  0  0
   31.1890   46.2680   -2.4650 C   0  0  0  0  0  0  0  0  0  0  0  0
   29.9780   44.3640   -3.3250 C   0  0  0  0  0  0  0  0  0  0  0  0
   30.0480   46.7110   -1.7980 C   0  0  0  0  0  0  0  0  0  0  0  0
   28.8330   44.8070   -2.6560 C   0  0  0  0  0  0  0  0  0  0  0  0
   30.1700   48.1680   -0.8790 Cl  0  0  0  0  0  0  0  0  0  0  0  0
   28.8670   45.9790   -1.8920 C   0  0  0  0  0  0  0  0  0  0  0  0
   27.4160   46.4630   -1.0920 Cl  0  0  0  0  0  0  0  0  0  0  0  0
  1  2  1  0
  2  3  2  0
  2  4  1  0
  4  5  2  0
  3  6  1  0
  4  7  1  0
  5  8  1  0
  6  8  2  0
  5  9  1  0
  7 10  2  0
  9 11  1  0
  9 12  2  0
 10 12  1  0
 11 13  1  0
 13 14  2  3
 14 15  1  0
 14 16  1  0
 16 17  1  0
 17 18  2  0
 17 19  1  0
 18 20  1  0
 19 21  2  0
 20 22  1  0
 20 23  2  0
 21 23  1  0
 23 24  1  0
M  END
