mac-x0417-mac-x0472
     RDKit          3D

 30 33  0  0  0  0  0  0  0  0999 V2000
   32.0260   45.3870   -6.2220 O   0  0  0  0  0  0  0  0  0  0  0  0
   33.1910   45.3540   -5.5270 C   0  0  0  0  0  0  0  0  0  0  0  0
   34.2660   45.5550   -6.0790 O   0  0  0  0  0  0  0  0  0  0  0  0
   33.0160   45.0340   -4.0470 C   0  0  2  0  0  0  0  0  0  0  0  0
   32.0970   46.0070   -3.2860 C   0  0  0  0  0  0  0  0  0  0  0  0
   34.3510   44.9150   -3.3740 C   0  0  0  0  0  0  0  0  0  0  0  0
   31.4920   47.1140   -4.1400 C   0  0  0  0  0  0  0  0  0  0  0  0
   34.7390   43.7030   -2.9540 N   0  0  0  0  0  0  0  0  0  0  0  0
   35.3340   45.9040   -3.0780 C   0  0  0  0  0  0  0  0  0  0  0  0
   31.2810   48.2920   -3.2920 N   0  0  0  0  0  0  0  0  0  0  0  0
   35.9840   43.8790   -2.3780 O   0  0  0  0  0  0  0  0  0  0  0  0
   36.3400   45.1860   -2.4500 C   0  0  0  0  0  0  0  0  0  0  0  0
   35.5090   47.2900   -3.2510 C   0  0  0  0  0  0  0  0  0  0  0  0
   30.7340   49.5420   -3.9740 S   0  0  2  0  0  0  0  0  0  0  0  0
   37.5260   45.7390   -1.9740 C   0  0  0  0  0  0  0  0  0  0  0  0
   36.6930   47.8800   -2.7820 C   0  0  0  0  0  0  0  0  0  0  0  0
   29.8280   50.5060   -3.3950 O   0  0  0  0  0  0  0  0  0  0  0  0
   29.9380   48.9530   -5.3270 N   0  0  0  0  0  0  0  0  0  0  0  0
   37.6810   47.1180   -2.1550 C   0  0  0  0  0  0  0  0  0  0  0  0
   32.1600   50.4190   -4.5750 C   0  0  0  0  0  0  0  0  0  0  0  0
   29.3880   49.7890   -6.2330 C   0  0  0  0  0  0  0  0  0  0  0  0
   33.3060   49.7120   -4.9480 C   0  0  0  0  0  0  0  0  0  0  0  0
   32.1180   51.8150   -4.6680 C   0  0  0  0  0  0  0  0  0  0  0  0
   29.1550   49.4140   -7.4810 N   0  0  0  0  0  0  0  0  0  0  0  0
   28.9110   51.4230   -5.9380 S   0  0  0  0  0  0  0  0  0  0  0  0
   34.4170   50.4070   -5.4200 C   0  0  0  0  0  0  0  0  0  0  0  0
   33.2360   52.5020   -5.1410 C   0  0  0  0  0  0  0  0  0  0  0  0
   28.4100   51.5090   -7.5670 C   0  0  0  0  0  0  0  0  0  0  0  0
   28.5900   50.4050   -8.2550 N   0  0  0  0  0  0  0  0  0  0  0  0
   34.3820   51.7990   -5.5160 C   0  0  0  0  0  0  0  0  0  0  0  0
  1  2  1  0
  2  3  2  0
  2  4  1  0
  4  5  1  1
  4  6  1  0
  5  7  1  0
  6  8  2  0
  6  9  1  0
  7 10  1  0
  8 11  1  0
  9 12  2  0
 11 12  1  0
  9 13  1  0
 10 14  2  0
 12 15  1  0
 13 16  2  0
 14 17  2  0
 14 18  1  6
 15 19  2  0
 16 19  1  0
 14 20  1  0
 18 21  1  0
 20 22  2  0
 20 23  1  0
 21 24  2  0
 21 25  1  0
 22 26  1  0
 23 27  2  0
 25 28  1  0
 24 29  1  0
 28 29  2  0
 26 30  2  0
 27 30  1  0
M  END
