mac-x1493-mac-x0193
     RDKit          3D

 30 32  0  0  0  0  0  0  0  0999 V2000
   29.0800   47.9880   -5.1500 O   0  0  0  0  0  0  0  0  0  0  0  0
   30.1950   48.6080   -4.5270 C   0  0  0  0  0  0  0  0  0  0  0  0
   30.2140   48.0880   -3.2120 O   0  0  0  0  0  0  0  0  0  0  0  0
   31.4370   48.1270   -5.3160 C   0  0  0  0  0  0  0  0  0  0  0  0
   29.9610   50.1080   -4.5350 C   0  0  0  0  0  0  0  0  0  0  0  0
   31.2260   47.7460   -6.7960 C   0  0  0  0  0  0  0  0  0  0  0  0
   29.3590   50.7370   -5.6310 C   0  0  0  0  0  0  0  0  0  0  0  0
   30.3270   50.9400   -3.4800 C   0  0  0  0  0  0  0  0  0  0  0  0
   31.9580   46.5050   -7.3130 C   0  0  0  0  0  0  0  0  0  0  0  0
   29.1530   52.1240   -5.6450 C   0  0  0  0  0  0  0  0  0  0  0  0
   30.1430   52.2880   -3.4560 N   0  0  0  0  0  0  0  0  0  0  0  0
   31.9910   45.4880   -6.2630 N   0  0  0  0  0  0  0  0  0  0  0  0
   29.5680   52.8670   -4.5220 C   0  0  0  0  0  0  0  0  0  0  0  0
   28.5550   52.7690   -6.7390 C   0  0  0  0  0  0  0  0  0  0  0  0
   33.1500   45.2330   -5.7610 C   0  0  0  0  0  0  0  0  0  0  0  0
   29.3710   54.2410   -4.5350 C   0  0  0  0  0  0  0  0  0  0  0  0
   28.3680   54.1490   -6.7270 C   0  0  0  0  0  0  0  0  0  0  0  0
   34.2710   45.8490   -6.1810 O   0  0  0  0  0  0  0  0  0  0  0  0
   33.3440   44.2200   -4.6460 C   0  0  0  0  0  0  0  0  0  0  0  0
   28.7780   54.8870   -5.6240 C   0  0  0  0  0  0  0  0  0  0  0  0
   34.5320   44.5540   -3.8870 N   0  0  0  0  0  0  0  0  0  0  0  0
   35.0480   43.6890   -2.9600 C   0  0  0  0  0  0  0  0  0  0  0  0
   34.6020   42.5690   -2.7480 O   0  0  0  0  0  0  0  0  0  0  0  0
   36.1170   44.2610   -2.3110 N   0  0  0  0  0  0  0  0  0  0  0  0
   37.2840   43.5330   -1.8080 C   0  0  0  0  0  0  0  0  0  0  0  0
   37.5890   42.2740   -2.6240 C   0  0  0  0  0  0  0  0  0  0  0  0
   37.1610   43.2300   -0.3090 C   0  0  0  0  0  0  0  0  0  0  0  0
   38.7670   41.4730   -2.0620 C   0  0  0  0  0  0  0  0  0  0  0  0
   38.3480   42.4390    0.2420 C   0  0  0  0  0  0  0  0  0  0  0  0
   39.3860   42.1350   -0.8340 C   0  0  0  0  0  0  0  0  0  0  0  0
  2  1  1  0
  2  3  1  0
  2  4  1  0
  2  5  1  0
  4  6  1  0
  5  7  2  0
  5  8  1  0
  6  9  1  0
  7 10  1  0
  8 11  2  0
  9 12  1  0
 10 13  2  0
 11 13  1  0
 10 14  1  0
 12 15  2  3
 13 16  1  0
 14 17  2  0
 15 18  1  0
 15 19  1  0
 16 20  2  0
 17 20  1  0
 19 21  1  0
 21 22  1  0
 22 23  2  0
 22 24  1  0
 24 25  1  0
 25 26  1  0
 25 27  1  0
 26 28  1  0
 27 29  1  0
 28 30  1  0
 29 30  1  0
M  END
