mac-x0213-mac-x0142
     RDKit          3D

 22 26  0  0  0  0  0  0  0  0999 V2000
   33.0880   45.0700   -3.7340 O   0  0  0  0  0  0  0  0  0  0  0  0
   32.2280   44.8460   -4.6750 C   0  0  0  0  0  0  0  0  0  0  0  0
   31.9880   43.7210   -5.1050 O   0  0  0  0  0  0  0  0  0  0  0  0
   31.2220   46.3920   -5.5130 S   0  0  0  0  0  0  0  0  0  0  0  0
   29.7190   47.3830   -4.9800 C   0  0  2  0  0  0  0  0  0  0  0  0
   29.7440   45.3860   -5.3330 C   0  0  0  0  0  0  0  0  0  0  0  0
   32.5060   47.4810   -5.2080 C   0  0  0  0  0  0  0  0  0  0  0  0
   32.3570   47.3390   -6.5790 C   0  0  0  0  0  0  0  0  0  0  0  0
   29.3870   46.8230   -3.7110 C   0  0  0  0  0  0  0  0  0  0  0  0
   29.3760   45.4910   -3.8430 C   0  0  0  0  0  0  0  0  0  0  0  0
   28.4710   47.1120   -5.6910 N   0  0  0  0  0  0  0  0  0  0  0  0
   29.8510   48.7970   -5.2670 C   0  0  2  0  0  0  0  0  0  0  0  0
   29.0780   47.2590   -2.4170 C   0  0  0  0  0  0  0  0  0  0  0  0
   29.0970   44.6060   -2.8450 C   0  0  0  0  0  0  0  0  0  0  0  0
   28.3470   47.8650   -6.8540 C   0  0  0  0  0  0  0  0  0  0  0  0
   28.5050   49.5710   -5.3260 C   0  0  2  0  0  0  0  0  0  0  0  0
   30.3730   49.3000   -6.5530 C   0  0  0  0  0  0  0  0  0  0  0  0
   28.7890   46.4000   -1.3740 C   0  0  0  0  0  0  0  0  0  0  0  0
   28.7930   45.0400   -1.5730 C   0  0  0  0  0  0  0  0  0  0  0  0
   27.7480   49.1670   -6.4690 N   0  0  0  0  0  0  0  0  0  0  0  0
   29.0860   50.8960   -5.6440 N   0  0  0  0  0  0  0  0  0  0  0  0
   29.9230   50.5190   -6.7600 C   0  0  0  0  0  0  0  0  0  0  0  0
  1  2  1  0
  2  3  2  0
  2  4  1  0
  4  5  1  0
  4  6  1  0
  4  7  1  0
  4  8  1  0
  7  8  1  0
  5  9  1  0
  6 10  1  0
  9 10  2  0
  5 11  1  6
  5 12  1  0
  9 13  1  0
 10 14  1  0
 11 15  1  0
 12 16  1  0
 12 17  1  6
 13 18  2  0
 14 19  2  0
 18 19  1  0
 15 20  1  0
 16 20  1  6
 16 21  1  0
 17 22  2  0
 21 22  1  0
M  END
