mac-x0188-mac-x0358
     RDKit          3D

 18 20  0  0  0  0  0  0  0  0999 V2000
   32.5810   44.9100   -4.6030 C   0  0  0  0  0  0  0  0  0  0  0  0
   32.6360   45.5270   -5.9690 C   0  0  0  0  0  0  0  0  0  0  0  0
   33.7000   45.6160   -6.5800 O   0  0  0  0  0  0  0  0  0  0  0  0
   31.8010   45.7200   -3.5920 C   0  0  1  0  0  0  0  0  0  0  0  0
   31.4900   45.9790   -6.4950 O   0  0  0  0  0  0  0  0  0  0  0  0
   32.6270   46.6580   -2.7000 C   0  0  1  0  0  0  0  0  0  0  0  0
   30.7430   46.5950   -4.2430 C   0  0  2  0  0  0  0  0  0  0  0  0
   30.4680   46.2830   -5.6920 C   0  0  0  0  0  0  0  0  0  0  0  0
   33.9480   46.7740   -3.1670 O   0  0  0  0  0  0  0  0  0  0  0  0
   32.0190   47.9700   -2.7940 N   0  0  0  0  0  0  0  0  0  0  0  0
   31.3520   47.9960   -4.1140 C   0  0  2  0  0  0  0  0  0  0  0  0
   29.3160   46.2930   -6.1240 O   0  0  0  0  0  0  0  0  0  0  0  0
   30.3710   49.1540   -4.2270 C   0  0  0  0  0  0  0  0  0  0  0  0
   30.0660   49.9240   -3.0940 C   0  0  0  0  0  0  0  0  0  0  0  0
   29.7520   49.4870   -5.4450 C   0  0  0  0  0  0  0  0  0  0  0  0
   29.1710   50.9940   -3.1750 C   0  0  0  0  0  0  0  0  0  0  0  0
   28.8580   50.5560   -5.5230 C   0  0  0  0  0  0  0  0  0  0  0  0
   28.5680   51.3090   -4.3900 C   0  0  0  0  0  0  0  0  0  0  0  0
  1  2  1  0
  2  3  2  0
  4  1  1  6
  2  5  1  0
  4  6  1  0
  4  7  1  0
  5  8  1  0
  7  8  1  6
  6  9  1  6
  6 10  1  0
  7 11  1  0
 10 11  1  0
  8 12  2  0
 11 13  1  1
 13 14  2  0
 13 15  1  0
 14 16  1  0
 15 17  2  0
 16 18  2  0
 17 18  1  0
M  END
