mac-x0346-mac-x0139
     RDKit          3D

 23 24  0  0  0  0  0  0  0  0999 V2000
   29.0560   55.2070   -5.1990 O   0  0  0  0  0  0  0  0  0  0  0  0
   29.7040   53.9550   -5.1770 N   0  0  0  0  0  0  0  0  0  0  0  0
   29.4140   53.1460   -4.1000 C   0  0  0  0  0  0  0  0  0  0  0  0
   29.5440   53.5610   -2.9470 O   0  0  0  0  0  0  0  0  0  0  0  0
   28.9610   51.7150   -4.4340 C   0  0  2  0  0  0  0  0  0  0  0  0
   30.2200   50.8700   -4.4850 C   0  0  1  0  0  0  0  0  0  0  0  0
   28.0020   51.5070   -5.5790 C   0  0  0  0  0  0  0  0  0  0  0  0
   30.2760   50.0890   -3.2970 O   0  0  0  0  0  0  0  0  0  0  0  0
   30.4690   50.0470   -5.7640 C   0  0  0  0  0  0  0  0  0  0  0  0
   28.1200   50.5320   -6.5140 C   0  0  0  0  0  0  0  0  0  0  0  0
   29.2740   49.5070   -6.6080 C   0  0  2  0  0  0  0  0  0  0  0  0
   29.2390   47.8850   -6.6020 C   0  0  1  0  0  0  0  0  0  0  0  0
   29.6690   49.6180   -8.1070 C   0  0  0  0  0  0  0  0  0  0  0  0
   29.5640   47.0430   -5.4200 N   0  0  0  0  0  0  0  0  0  0  0  0
   28.7700   48.9210   -9.0550 N   0  0  0  0  0  0  0  0  0  0  0  0
   28.2890   47.2410   -7.4830 N   0  0  0  0  0  0  0  0  0  0  0  0
   30.1460   47.6500   -4.2280 C   0  0  0  0  0  0  0  0  0  0  0  0
   30.1670   45.7130   -5.7420 C   0  0  0  0  0  0  0  0  0  0  0  0
   28.5910   47.4990   -8.8590 C   0  0  0  0  0  0  0  0  0  0  0  0
   31.6740   45.5030   -5.5200 C   0  0  0  0  0  0  0  0  0  0  0  0
   32.3470   45.1040   -6.8150 C   0  0  0  0  0  0  0  0  0  0  0  0
   31.7440   44.7170   -7.8040 O   0  0  0  0  0  0  0  0  0  0  0  0
   33.6950   45.2100   -6.7980 O   0  0  0  0  0  0  0  0  0  0  0  0
  1  2  1  0
  2  3  1  0
  3  4  2  0
  5  3  1  6
  5  6  1  0
  5  7  1  0
  6  8  1  1
  6  9  1  0
  7 10  2  0
 11  9  1  1
 11 10  1  0
 11 12  1  0
 11 13  1  0
 12 14  1  1
 13 15  1  0
 12 16  1  0
 14 17  1  0
 14 18  1  0
 15 19  1  0
 16 19  1  0
 18 20  1  0
 20 21  1  0
 21 22  2  0
 21 23  1  0
M  END
