mac-x0283-mac-x0124
     RDKit          3D

 20 23  0  0  0  0  0  0  0  0999 V2000
   29.3930   52.8310   -7.6580 N   0  0  0  0  0  0  0  0  0  0  0  0
   29.3270   53.2450   -6.3790 C   0  0  0  0  0  0  0  0  0  0  0  0
   29.4170   54.5300   -6.0180 N   0  0  0  0  0  0  0  0  0  0  0  0
   29.1520   52.3840   -5.2540 C   0  0  0  0  0  0  0  0  0  0  0  0
   29.3030   54.5440   -4.6440 O   0  0  0  0  0  0  0  0  0  0  0  0
   29.1470   53.2770   -4.1880 C   0  0  0  0  0  0  0  0  0  0  0  0
   28.9990   51.0000   -4.9600 C   0  0  0  0  0  0  0  0  0  0  0  0
   29.0030   52.9330   -2.8510 C   0  0  0  0  0  0  0  0  0  0  0  0
   28.8490   50.6450   -3.5980 C   0  0  0  0  0  0  0  0  0  0  0  0
   28.9900   49.9250   -5.9390 C   0  0  0  0  0  0  0  0  0  0  0  0
   28.8510   51.5830   -2.5720 C   0  0  0  0  0  0  0  0  0  0  0  0
   29.5120   48.6930   -5.5460 C   0  0  0  0  0  0  0  0  0  0  0  0
   28.4970   50.0700   -7.2010 N   0  0  0  0  0  0  0  0  0  0  0  0
   30.0990   48.1690   -4.3590 C   0  0  0  0  0  0  0  0  0  0  0  0
   29.4960   47.6740   -6.4790 C   0  0  0  0  0  0  0  0  0  0  0  0
   28.5460   48.9850   -8.0100 C   0  0  0  0  0  0  0  0  0  0  0  0
   30.0490   46.5640   -5.8860 N   0  0  0  0  0  0  0  0  0  0  0  0
   30.4180   46.8550   -4.5990 C   0  0  0  0  0  0  0  0  0  0  0  0
   29.0250   47.7560   -7.7330 N   0  0  0  0  0  0  0  0  0  0  0  0
   30.2130   45.2860   -6.5300 C   0  0  0  0  0  0  0  0  0  0  0  0
  1  2  1  0
  2  3  2  0
  2  4  1  0
  3  5  1  0
  4  6  2  0
  5  6  1  0
  4  7  1  0
  6  8  1  0
  7  9  2  0
  7 10  1  0
  8 11  2  0
  9 11  1  0
 10 12  1  0
 10 13  2  0
 12 14  1  0
 12 15  2  0
 13 16  1  0
 15 17  1  0
 14 18  2  0
 17 18  1  0
 15 19  1  0
 16 19  2  0
 17 20  1  0
M  END
