mac-x0365-mac-x0263
     RDKit          3D

 25 27  0  0  0  0  0  0  0  0999 V2000
   29.8340   47.9260   -5.7710 O   0  0  0  0  0  0  0  0  0  0  0  0
   30.2490   48.4300   -4.5870 C   0  0  0  0  0  0  0  0  0  0  0  0
   30.6930   47.7530   -3.6780 O   0  0  0  0  0  0  0  0  0  0  0  0
   30.1060   49.9110   -4.4960 C   0  0  0  0  0  0  0  0  0  0  0  0
   30.0980   50.5240   -3.2360 C   0  0  0  0  0  0  0  0  0  0  0  0
   29.9820   50.6910   -5.6520 C   0  0  0  0  0  0  0  0  0  0  0  0
   29.9600   51.9160   -3.1310 C   0  0  0  0  0  0  0  0  0  0  0  0
   29.8440   52.0940   -5.5420 C   0  0  0  0  0  0  0  0  0  0  0  0
   29.9510   52.4650   -1.9130 F   0  0  0  0  0  0  0  0  0  0  0  0
   29.8260   52.7350   -4.2670 C   0  0  0  0  0  0  0  0  0  0  0  0
   29.6620   54.1450   -4.1120 O   0  0  0  0  0  0  0  0  0  0  0  0
   28.7850   54.3690   -5.1710 N   0  0  0  0  0  0  0  0  0  0  0  0
   28.3700   55.3990   -6.0380 C   0  0  0  0  0  0  0  0  0  0  0  0
   28.1380   53.2540   -5.4560 C   0  0  0  0  0  0  0  0  0  0  0  0
   28.7750   56.8450   -6.0860 C   0  0  0  0  0  0  0  0  0  0  0  0
   27.3580   53.5510   -6.5260 C   0  0  0  0  0  0  0  0  0  0  0  0
   27.4950   54.8750   -6.8890 N   0  0  0  0  0  0  0  0  0  0  0  0
   28.2120   52.0180   -4.8300 C   0  0  0  0  0  0  0  0  0  0  0  0
   27.6050   57.6860   -5.5350 C   0  0  0  0  0  0  0  0  0  0  0  0
   27.4380   51.0040   -5.3540 C   0  0  0  0  0  0  0  0  0  0  0  0
   26.5830   52.5150   -7.0560 C   0  0  0  0  0  0  0  0  0  0  0  0
   27.2580   58.9400   -6.3080 C   0  0  0  0  0  0  0  0  0  0  0  0
   26.6370   51.2450   -6.4560 C   0  0  0  0  0  0  0  0  0  0  0  0
   28.3110   59.7450   -6.5310 O   0  0  0  0  0  0  0  0  0  0  0  0
   26.1370   59.2480   -6.7060 O   0  0  0  0  0  0  0  0  0  0  0  0
  1  2  1  0
  2  3  2  0
  2  4  1  0
  4  5  2  0
  4  6  1  0
  5  7  1  0
  6  8  2  0
  7  9  1  0
  7 10  2  0
  8 10  1  0
 10 11  1  0
 11 12  1  0
 12 13  1  0
 12 14  1  0
 13 15  1  0
 14 16  2  0
 13 17  2  0
 16 17  1  0
 14 18  1  0
 15 19  1  0
 18 20  2  0
 16 21  1  0
 19 22  1  0
 20 23  1  0
 21 23  2  0
 22 24  1  0
 22 25  2  0
M  END
