mac-x0137-mac-x0263
     RDKit          3D

 25 28  0  0  0  0  0  0  0  0999 V2000
   31.8360   49.8210   -3.6940 F   0  0  0  0  0  0  0  0  0  0  0  0
   31.2050   48.6480   -3.4240 C   0  0  2  0  0  0  0  0  0  0  0  0
   32.1590   47.5010   -3.8050 C   0  0  0  0  0  0  0  0  0  0  0  0
   29.8660   48.6390   -4.1790 C   0  0  0  0  0  0  0  0  0  0  0  0
   30.2000   48.5960   -5.6030 N   0  0  0  0  0  0  0  0  0  0  0  0
   32.2070   47.2280   -5.3080 C   0  0  0  0  0  0  0  0  0  0  0  0
   30.8270   47.3220   -5.9740 C   0  0  0  0  0  0  0  0  0  0  0  0
   29.2190   49.0660   -6.5000 C   0  0  0  0  0  0  0  0  0  0  0  0
   28.7680   48.2040   -7.4320 N   0  0  0  0  0  0  0  0  0  0  0  0
   28.7160   50.3730   -6.4620 C   0  0  0  0  0  0  0  0  0  0  0  0
   27.8410   48.6500   -8.2930 C   0  0  0  0  0  0  0  0  0  0  0  0
   27.7610   50.7090   -7.3930 C   0  0  0  0  0  0  0  0  0  0  0  0
   28.9880   51.5740   -5.5960 C   0  0  0  0  0  0  0  0  0  0  0  0
   27.3030   49.8750   -8.3260 N   0  0  0  0  0  0  0  0  0  0  0  0
   27.2890   52.0530   -7.2680 N   0  0  0  0  0  0  0  0  0  0  0  0
   28.1530   52.7400   -6.2910 C   0  0  1  0  0  0  0  0  0  0  0  0
   27.3090   53.4930   -5.2300 C   0  0  0  0  0  0  0  0  0  0  0  0
   28.9250   53.9110   -6.8660 N   0  0  0  0  0  0  0  0  0  0  0  0
   28.7920   55.1300   -6.0230 C   0  0  2  0  0  0  0  0  0  0  0  0
   28.0810   54.6930   -4.8430 N   0  0  0  0  0  0  0  0  0  0  0  0
   28.1150   56.3530   -6.7110 C   0  0  0  0  0  0  0  0  0  0  0  0
   27.4970   57.3710   -5.7240 C   0  0  0  0  0  0  0  0  0  0  0  0
   27.1170   58.7200   -6.3360 C   0  0  0  0  0  0  0  0  0  0  0  0
   28.1780   59.5530   -6.4730 O   0  0  0  0  0  0  0  0  0  0  0  0
   25.9920   59.0660   -6.6680 O   0  0  0  0  0  0  0  0  0  0  0  0
  2  1  1  6
  2  3  1  0
  2  4  1  0
  4  5  1  0
  3  6  1  0
  5  7  1  0
  6  7  1  0
  5  8  1  0
  8  9  2  0
  8 10  1  0
  9 11  1  0
 10 12  2  0
 10 13  1  0
 11 14  2  0
 12 14  1  0
 12 15  1  0
 16 13  1  1
 16 15  1  0
 16 17  1  0
 16 18  1  0
 18 19  1  0
 17 20  1  0
 19 20  1  0
 19 21  1  6
 21 22  1  0
 22 23  1  0
 23 24  1  0
 23 25  2  0
M  END
