mac-x0546-mac-x0338
     RDKit          3D

 25 27  0  0  0  0  0  0  0  0999 V2000
   30.1570   48.6100    0.2100 C   0  0  0  0  0  0  0  0  0  0  0  0
   30.1750   48.6820   -1.2580 N   0  0  0  0  0  0  0  0  0  0  0  0
   30.9470   49.8480   -1.7550 C   0  0  0  0  0  0  0  0  0  0  0  0
   29.9630   47.5450   -2.0440 C   0  0  0  0  0  0  0  0  0  0  0  0
   30.9050   47.0140   -2.8660 C   0  0  0  0  0  0  0  0  0  0  0  0
   28.6500   46.8750   -1.9920 C   0  0  0  0  0  0  0  0  0  0  0  0
   30.3510   50.5290   -2.9760 C   0  0  0  0  0  0  0  0  0  0  0  0
   30.6140   45.8070   -3.6900 C   0  0  2  0  0  0  0  0  0  0  0  0
   28.4440   45.6070   -2.3910 C   0  0  0  0  0  0  0  0  0  0  0  0
   29.9170   49.7910   -4.0820 C   0  0  0  0  0  0  0  0  0  0  0  0
   30.2550   51.8930   -2.9580 N   0  0  0  0  0  0  0  0  0  0  0  0
   29.6620   44.9500   -2.8840 C   0  0  0  0  0  0  0  0  0  0  0  0
   31.6440   44.7390   -3.8900 C   0  0  0  0  0  0  0  0  0  0  0  0
   29.3810   50.3590   -5.1950 N   0  0  0  0  0  0  0  0  0  0  0  0
   29.7190   52.4660   -4.0670 C   0  0  0  0  0  0  0  0  0  0  0  0
   32.9280   44.9420   -4.6260 C   0  0  0  0  0  0  0  0  0  0  0  0
   30.0010   43.7120   -2.6910 N   0  0  0  0  0  0  0  0  0  0  0  0
   31.2190   43.6060   -3.3130 C   0  0  0  0  0  0  0  0  0  0  0  0
   29.2940   51.7200   -5.1570 C   0  0  0  0  0  0  0  0  0  0  0  0
   32.7150   45.5610   -5.9930 C   0  0  0  0  0  0  0  0  0  0  0  0
   28.7180   52.4060   -6.3460 C   0  0  0  0  0  0  0  0  0  0  0  0
   31.8040   45.3140   -6.7730 O   0  0  0  0  0  0  0  0  0  0  0  0
   33.6690   46.4630   -6.3180 O   0  0  0  0  0  0  0  0  0  0  0  0
   28.4500   51.6070   -7.4260 N   0  0  0  0  0  0  0  0  0  0  0  0
   28.4940   53.6110   -6.3650 O   0  0  0  0  0  0  0  0  0  0  0  0
  1  2  1  0
  2  3  1  0
  2  4  1  0
  4  5  2  0
  4  6  1  0
  3  7  1  0
  8  5  1  1
  6  9  2  0
  7 10  2  0
  7 11  1  0
  8 12  1  0
  9 12  1  0
  8 13  1  0
 10 14  1  0
 11 15  2  0
 13 16  1  0
 12 17  2  0
 13 18  2  0
 17 18  1  0
 14 19  2  0
 15 19  1  0
 16 20  1  0
 19 21  1  0
 20 22  2  0
 20 23  1  0
 21 24  1  0
 21 25  2  0
M  END
