mac-x0337-mac-x0123
     RDKit          3D

 23 26  0  0  0  0  0  0  0  0999 V2000
   35.9900   52.0680   -5.1310 C   0  0  0  0  0  0  0  0  0  0  0  0
   34.5500   51.6880   -5.3530 C   0  0  0  0  0  0  0  0  0  0  0  0
   33.6230   52.6370   -5.7150 C   0  0  0  0  0  0  0  0  0  0  0  0
   34.1180   50.4000   -5.2050 C   0  0  0  0  0  0  0  0  0  0  0  0
   32.7980   50.0750   -5.4130 C   0  0  0  0  0  0  0  0  0  0  0  0
   32.3140   52.2760   -5.9160 C   0  0  0  0  0  0  0  0  0  0  0  0
   31.8260   50.9930   -5.7800 C   0  0  0  0  0  0  0  0  0  0  0  0
   30.1570   50.5690   -6.0410 S   0  0  0  0  0  0  0  0  0  0  0  0
   30.2890   48.9930   -5.5700 O   0  0  0  0  0  0  0  0  0  0  0  0
   29.9170   49.7290   -7.4910 N   0  0  0  0  0  0  0  0  0  0  0  0
   29.1360   50.7040   -4.8620 N   0  0  0  0  0  0  0  0  0  0  0  0
   28.5530   51.8100   -4.4610 N   0  0  0  0  0  0  0  0  0  0  0  0
   29.5970   50.0960   -3.6210 C   0  0  0  0  0  0  0  0  0  0  0  0
   27.7610   52.6030   -5.2980 C   0  0  2  0  0  0  0  0  0  0  0  0
   28.9080   52.2240   -3.1690 C   0  0  1  0  0  0  0  0  0  0  0  0
   29.8890   51.2290   -2.7620 N   0  0  0  0  0  0  0  0  0  0  0  0
   27.7430   52.1950   -6.6920 N   0  0  0  0  0  0  0  0  0  0  0  0
   29.5030   53.5710   -3.1450 N   0  0  0  0  0  0  0  0  0  0  0  0
   28.2230   54.0530   -5.1550 C   0  0  1  0  0  0  0  0  0  0  0  0
   29.6010   53.9750   -4.5000 C   0  0  1  0  0  0  0  0  0  0  0  0
   28.5590   54.7360   -6.4000 C   0  0  0  0  0  0  0  0  0  0  0  0
   30.0580   55.3850   -4.7580 C   0  0  0  0  0  0  0  0  0  0  0  0
   29.6140   55.5150   -6.1960 C   0  0  0  0  0  0  0  0  0  0  0  0
  1  2  1  0
  2  3  2  0
  2  4  1  0
  4  5  2  0
  3  6  1  0
  5  7  1  0
  6  7  2  0
  7  8  1  0
  8  9  2  0
  8 10  1  0
  8 11  1  0
 11 12  1  0
 11 13  1  0
 12 14  1  0
 12 15  1  0
 13 16  1  0
 15 16  1  6
 14 17  1  6
 15 18  1  0
 14 19  1  0
 18 20  1  0
 19 20  1  0
 19 21  1  6
 20 22  1  1
 21 23  2  0
 22 23  1  0
M  END
