mac-x0228-mac-x0587
     RDKit          3D

 19 20  0  0  0  0  0  0  0  0999 V2000
   30.2550   47.5460   -6.0100 O   0  0  0  0  0  0  0  0  0  0  0  0
   30.2160   47.8960   -4.0240 S   0  0  0  0  0  0  0  0  0  0  0  0
   30.7770   46.1600   -4.1060 N   0  0  0  0  0  0  0  0  0  0  0  0
   29.2880   47.5150   -2.5690 C   0  0  0  0  0  0  0  0  0  0  0  0
   32.2640   47.5440   -3.8760 S   0  0  0  0  0  0  0  0  0  0  0  0
   30.0220   49.6810   -3.9700 C   0  0  0  0  0  0  0  0  0  0  0  0
   32.9830   46.2710   -4.6110 C   0  0  0  0  0  0  0  0  0  0  0  0
   30.9730   45.5140   -3.2040 O   0  0  0  0  0  0  0  0  0  0  0  0
   29.7300   50.4500   -5.1360 C   0  0  0  0  0  0  0  0  0  0  0  0
   30.1280   50.4240   -2.8590 C   0  0  0  0  0  0  0  0  0  0  0  0
   33.1210   45.9960   -6.0440 C   0  0  0  0  0  0  0  0  0  0  0  0
   29.5690   51.7960   -5.1470 C   0  0  0  0  0  0  0  0  0  0  0  0
   29.9720   51.7860   -2.8230 C   0  0  0  0  0  0  0  0  0  0  0  0
   34.2040   46.1630   -6.6460 O   0  0  0  0  0  0  0  0  0  0  0  0
   32.0730   45.5220   -6.8250 O   0  0  0  0  0  0  0  0  0  0  0  0
   29.6990   52.4090   -3.9680 C   0  0  0  0  0  0  0  0  0  0  0  0
   29.2700   52.8230   -6.1670 C   0  0  0  0  0  0  0  0  0  0  0  0
   29.4940   53.8040   -4.1740 O   0  0  0  0  0  0  0  0  0  0  0  0
   29.9390   54.0630   -5.5180 C   0  0  0  0  0  0  0  0  0  0  0  0
  1  2  1  0
  2  3  1  0
  2  4  1  0
  2  5  1  0
  2  6  1  0
  5  7  1  0
  3  8  2  0
  6  9  2  0
  6 10  1  0
  7 11  1  0
  9 12  1  0
 10 13  2  0
 11 14  2  0
 11 15  1  0
 12 16  2  0
 13 16  1  0
 12 17  1  0
 16 18  1  0
 17 19  1  0
 18 19  1  0
M  END
