mac-x0433-mac-x0361
     RDKit          3D

 12 12  0  0  0  0  0  0  0  0999 V2000
   29.0440   49.7570   -6.1160 C   0  0  0  0  0  0  0  0  0  0  0  0
   28.7640   50.6700   -4.9230 C   0  0  2  0  0  0  0  0  0  0  0  0
   28.6200   52.1230   -5.4100 C   0  0  0  0  0  0  0  0  0  0  0  0
   29.8420   50.5080   -3.9260 N   0  0  0  0  0  0  0  0  0  0  0  0
   29.7120   49.1200   -3.4290 O   0  0  0  0  0  0  0  0  0  0  0  0
   29.5830   51.4060   -2.8170 C   0  0  1  0  0  0  0  0  0  0  0  0
   28.8830   53.1640   -4.3030 C   0  0  2  0  0  0  0  0  0  0  0  0
   29.3270   54.4270   -4.9790 C   0  0  0  0  0  0  0  0  0  0  0  0
   30.5600   51.1490   -1.8070 N   0  0  0  0  0  0  0  0  0  0  0  0
   29.8520   52.7380   -3.2770 N   0  0  0  0  0  0  0  0  0  0  0  0
   29.2490   54.6600   -6.2920 C   0  0  0  0  0  0  0  0  0  0  0  0
   29.6180   55.7570   -7.0100 N   0  0  0  0  0  0  0  0  0  0  0  0
  2  1  1  6
  2  3  1  0
  2  4  1  0
  4  5  1  0
  4  6  1  0
  3  7  1  0
  7  8  1  6
  6  9  1  1
  6 10  1  0
  7 10  1  0
  8 11  2  3
 11 12  1  0
M  END
