mac-x0437-mac-x0178
     RDKit          3D

 25 27  0  0  0  0  0  0  0  0999 V2000
   32.2580   46.0000   -5.8790 N   0  0  0  0  0  0  0  0  0  0  0  0
   32.9900   45.4140   -6.8720 C   0  0  0  0  0  0  0  0  0  0  0  0
   32.8080   45.5370   -8.0790 O   0  0  0  0  0  0  0  0  0  0  0  0
   31.4250   45.3120   -5.1680 C   0  0  0  0  0  0  0  0  0  0  0  0
   34.1120   44.5490   -6.3390 C   0  0  0  0  0  0  0  0  0  0  0  0
   30.5700   45.7230   -4.0440 C   0  0  0  0  0  0  0  0  0  0  0  0
   34.0670   44.4530   -4.8150 C   0  0  0  0  0  0  0  0  0  0  0  0
   29.2340   45.3270   -3.9460 C   0  0  0  0  0  0  0  0  0  0  0  0
   31.1500   46.5300   -3.0600 C   0  0  0  0  0  0  0  0  0  0  0  0
   34.9330   45.4050   -4.1460 N   0  0  0  0  0  0  0  0  0  0  0  0
   28.4710   45.7400   -2.8520 C   0  0  0  0  0  0  0  0  0  0  0  0
   30.3910   46.9440   -1.9670 C   0  0  0  0  0  0  0  0  0  0  0  0
   34.8440   46.7670   -4.2570 C   0  0  0  0  0  0  0  0  0  0  0  0
   35.9730   45.1160   -3.2990 C   0  0  0  0  0  0  0  0  0  0  0  0
   29.0560   46.5460   -1.8680 C   0  0  0  0  0  0  0  0  0  0  0  0
   28.0960   47.0720   -0.4780 S   0  0  0  0  0  0  0  0  0  0  0  0
   35.7590   47.3770   -3.5390 N   0  0  0  0  0  0  0  0  0  0  0  0
   36.4700   46.3690   -2.9360 C   0  0  0  0  0  0  0  0  0  0  0  0
   36.5190   43.9200   -2.8210 C   0  0  0  0  0  0  0  0  0  0  0  0
   27.6070   45.6070    0.1770 N   0  0  0  0  0  0  0  0  0  0  0  0
   28.9760   47.6710    0.4970 O   0  0  0  0  0  0  0  0  0  0  0  0
   26.8950   47.7230   -0.9440 O   0  0  0  0  0  0  0  0  0  0  0  0
   37.5600   46.4470   -2.0600 C   0  0  0  0  0  0  0  0  0  0  0  0
   37.6070   44.0200   -1.9470 C   0  0  0  0  0  0  0  0  0  0  0  0
   38.1230   45.2640   -1.5700 C   0  0  0  0  0  0  0  0  0  0  0  0
  1  2  1  0
  2  3  2  0
  1  4  2  3
  2  5  1  0
  4  6  1  0
  5  7  1  0
  6  8  2  0
  6  9  1  0
  7 10  1  0
  8 11  1  0
  9 12  2  0
 10 13  1  0
 10 14  1  0
 11 15  2  0
 12 15  1  0
 15 16  1  0
 13 17  2  0
 14 18  2  0
 17 18  1  0
 14 19  1  0
 16 20  1  0
 16 21  2  0
 16 22  2  0
 18 23  1  0
 19 24  2  0
 23 25  2  0
 24 25  1  0
M  END
