mac-x0398-mac-x0226
     RDKit          3D

 27 29  0  0  0  0  0  0  0  0999 V2000
   28.6660   54.0330   -6.6740 N   0  0  0  0  0  0  0  0  0  0  0  0
   28.9910   52.9060   -5.9130 C   0  0  0  0  0  0  0  0  0  0  0  0
   28.9960   51.6320   -6.4900 C   0  0  0  0  0  0  0  0  0  0  0  0
   29.3170   53.0280   -4.5590 C   0  0  0  0  0  0  0  0  0  0  0  0
   29.6430   51.9020   -3.8000 C   0  0  0  0  0  0  0  0  0  0  0  0
   29.3200   50.4980   -5.7350 C   0  0  0  0  0  0  0  0  0  0  0  0
   29.9480   52.1340   -2.4830 O   0  0  0  0  0  0  0  0  0  0  0  0
   29.6490   50.6240   -4.3770 C   0  0  0  0  0  0  0  0  0  0  0  0
   30.0010   49.4490   -3.5360 C   0  0  0  0  0  0  0  0  0  0  0  0
   30.3530   49.5630   -2.3700 O   0  0  0  0  0  0  0  0  0  0  0  0
   29.8800   48.2820   -4.2160 O   0  0  0  0  0  0  0  0  0  0  0  0
   31.1120   47.7090   -4.6900 C   0  0  0  0  0  0  0  0  0  0  0  0
   30.9360   47.2590   -6.1420 C   0  0  0  0  0  0  0  0  0  0  0  0
   31.7350   46.0870   -6.4160 O   0  0  0  0  0  0  0  0  0  0  0  0
   33.0720   46.1890   -6.1710 C   0  0  0  0  0  0  0  0  0  0  0  0
   33.8540   46.8710   -6.8210 O   0  0  0  0  0  0  0  0  0  0  0  0
   33.4840   45.3980   -5.0320 C   0  0  0  0  0  0  0  0  0  0  0  0
   32.9090   44.2440   -4.4660 C   0  0  0  0  0  0  0  0  0  0  0  0
   34.5840   45.6350   -4.2390 C   0  0  0  0  0  0  0  0  0  0  0  0
   33.5860   43.7920   -3.4090 N   0  0  0  0  0  0  0  0  0  0  0  0
   34.6250   44.6620   -3.2730 N   0  0  0  0  0  0  0  0  0  0  0  0
   35.5850   44.5200   -2.2420 C   0  0  0  0  0  0  0  0  0  0  0  0
   36.4490   45.5790   -1.9300 C   0  0  0  0  0  0  0  0  0  0  0  0
   35.6780   43.3190   -1.5280 C   0  0  0  0  0  0  0  0  0  0  0  0
   37.3930   45.4320   -0.9130 C   0  0  0  0  0  0  0  0  0  0  0  0
   36.6240   43.1790   -0.5120 C   0  0  0  0  0  0  0  0  0  0  0  0
   37.4800   44.2360   -0.2050 C   0  0  0  0  0  0  0  0  0  0  0  0
  1  2  1  0
  2  3  2  0
  2  4  1  0
  4  5  2  0
  3  6  1  0
  5  7  1  0
  5  8  1  0
  6  8  2  0
  8  9  1  0
  9 10  2  0
  9 11  1  0
 11 12  1  0
 12 13  1  0
 13 14  1  0
 14 15  1  0
 15 16  2  0
 15 17  1  0
 17 18  1  0
 17 19  2  0
 18 20  2  0
 19 21  1  0
 20 21  1  0
 21 22  1  0
 22 23  2  0
 22 24  1  0
 23 25  1  0
 24 26  2  0
 25 27  2  0
 26 27  1  0
M  END
