mac-x0387-mac-x0375
     RDKit          3D

 24 26  0  0  0  0  0  0  0  0999 V2000
   28.3750   51.4010   -7.3110 N   0  0  0  0  0  0  0  0  0  0  0  0
   28.6540   50.0300   -7.3370 C   0  0  0  0  0  0  0  0  0  0  0  0
   28.3450   49.4320   -8.5010 N   0  0  0  0  0  0  0  0  0  0  0  0
   29.2110   49.3580   -6.2240 C   0  0  0  0  0  0  0  0  0  0  0  0
   29.4580   47.9690   -6.3430 C   0  0  0  0  0  0  0  0  0  0  0  0
   28.5870   48.1140   -8.5920 C   0  0  0  0  0  0  0  0  0  0  0  0
   29.5290   50.0080   -5.0110 C   0  0  0  0  0  0  0  0  0  0  0  0
   29.1280   47.3590   -7.5680 C   0  0  0  0  0  0  0  0  0  0  0  0
   30.0190   47.2640   -5.2410 C   0  0  0  0  0  0  0  0  0  0  0  0
   30.0780   49.3130   -3.9360 C   0  0  0  0  0  0  0  0  0  0  0  0
   30.3100   45.7780   -5.2950 C   0  0  0  0  0  0  0  0  0  0  0  0
   30.3220   47.9490   -4.0500 C   0  0  0  0  0  0  0  0  0  0  0  0
   30.8790   45.3630   -6.6530 C   0  0  0  0  0  0  0  0  0  0  0  0
   31.9580   44.4340   -6.4970 O   0  0  0  0  0  0  0  0  0  0  0  0
   33.1040   44.9270   -5.9570 C   0  0  0  0  0  0  0  0  0  0  0  0
   34.0350   45.4050   -6.5950 O   0  0  0  0  0  0  0  0  0  0  0  0
   33.0830   44.8040   -4.4400 C   0  0  0  0  0  0  0  0  0  0  0  0
   34.3440   44.6320   -3.8180 O   0  0  0  0  0  0  0  0  0  0  0  0
   35.0750   45.7550   -3.5560 C   0  0  0  0  0  0  0  0  0  0  0  0
   36.4390   45.5210   -3.3630 C   0  0  0  0  0  0  0  0  0  0  0  0
   34.5890   47.0620   -3.4700 C   0  0  0  0  0  0  0  0  0  0  0  0
   37.3110   46.5750   -3.0870 C   0  0  0  0  0  0  0  0  0  0  0  0
   35.4630   48.1180   -3.1940 C   0  0  0  0  0  0  0  0  0  0  0  0
   36.8210   47.8760   -3.0030 C   0  0  0  0  0  0  0  0  0  0  0  0
  1  2  1  0
  2  3  2  0
  2  4  1  0
  4  5  2  0
  3  6  1  0
  4  7  1  0
  5  8  1  0
  6  8  2  0
  5  9  1  0
  7 10  2  0
  9 11  1  0
  9 12  2  0
 10 12  1  0
 11 13  1  0
 13 14  1  0
 14 15  1  0
 15 16  2  0
 15 17  1  0
 17 18  1  0
 18 19  1  0
 19 20  2  0
 19 21  1  0
 20 22  1  0
 21 23  2  0
 22 24  2  0
 23 24  1  0
M  END
