mac-x0132-mac-x0142
     RDKit          3D

 26 31  0  0  0  0  0  0  0  0999 V2000
   28.4710   53.4400   -7.2760 N   0  0  0  0  0  0  0  0  0  0  0  0
   28.7320   53.6010   -5.9320 C   0  0  0  0  0  0  0  0  0  0  0  0
   28.6280   54.9000   -5.4460 N   0  0  0  0  0  0  0  0  0  0  0  0
   29.0730   52.5610   -5.1230 C   0  0  0  0  0  0  0  0  0  0  0  0
   29.3440   52.7880   -3.6920 C   0  0  0  0  0  0  0  0  0  0  0  0
   28.8690   55.0670   -4.1850 C   0  0  0  0  0  0  0  0  0  0  0  0
   29.1910   51.1630   -5.6340 C   0  0  0  0  0  0  0  0  0  0  0  0
   29.2120   54.0950   -3.2890 N   0  0  0  0  0  0  0  0  0  0  0  0
   29.6890   51.7630   -2.8870 C   0  0  0  0  0  0  0  0  0  0  0  0
   29.5800   50.1070   -4.6510 C   0  0  0  0  0  0  0  0  0  0  0  0
   29.0080   50.6740   -6.8350 N   0  0  0  0  0  0  0  0  0  0  0  0
   29.8110   50.4020   -3.3680 C   0  0  0  0  0  0  0  0  0  0  0  0
   29.2670   49.2850   -6.7080 C   0  0  0  0  0  0  0  0  0  0  0  0
   29.6150   48.8850   -5.4260 C   0  0  0  0  0  0  0  0  0  0  0  0
   29.1690   48.4810   -7.7670 N   0  0  0  0  0  0  0  0  0  0  0  0
   29.8820   47.5540   -5.2270 C   0  0  0  0  0  0  0  0  0  0  0  0
   30.2420   47.0740   -3.9470 N   0  0  0  0  0  0  0  0  0  0  0  0
   29.7970   46.6990   -6.2710 N   0  0  0  0  0  0  0  0  0  0  0  0
   29.4480   47.2040   -7.4770 C   0  0  0  0  0  0  0  0  0  0  0  0
   31.4990   47.7020   -3.4910 C   0  0  0  0  0  0  0  0  0  0  0  0
   30.1990   45.6090   -3.8360 C   0  0  0  0  0  0  0  0  0  0  0  0
   31.4320   45.0110   -4.5090 C   0  0  0  0  0  0  0  0  0  0  0  0
   32.7180   47.1280   -4.2130 C   0  0  0  0  0  0  0  0  0  0  0  0
   31.4380   43.5230   -4.8000 C   0  0  0  0  0  0  0  0  0  0  0  0
   31.2930   44.4960   -5.9290 C   0  0  0  0  0  0  0  0  0  0  0  0
   32.7600   45.6140   -4.0820 C   0  0  0  0  0  0  0  0  0  0  0  0
  1  2  1  0
  2  3  1  0
  2  4  2  0
  4  5  1  0
  3  6  2  0
  4  7  1  0
  5  8  1  0
  6  8  1  0
  5  9  2  0
  7 10  1  0
  7 11  2  0
  9 12  1  0
 10 12  2  0
 11 13  1  0
 10 14  1  0
 13 14  2  0
 13 15  1  0
 14 16  1  0
 16 17  1  0
 16 18  2  0
 15 19  2  0
 18 19  1  0
 17 20  1  0
 17 21  1  0
 22 21  1  0
 20 23  1  0
 22 24  1  0
 22 25  1  0
 24 25  1  0
 22 26  1  0
 23 26  1  0
M  END
