mac-x0204-mac-x0321
     RDKit          3D

 19 20  0  0  0  0  0  0  0  0999 V2000
   31.4510   47.1690   -6.2270 O   0  0  0  0  0  0  0  0  0  0  0  0
   30.7110   46.8550   -5.0670 C   0  0  0  0  0  0  0  0  0  0  0  0
   30.2790   45.5070   -5.2080 O   0  0  0  0  0  0  0  0  0  0  0  0
   29.5180   47.7790   -4.6690 C   0  0  0  0  0  0  0  0  0  0  0  0
   31.4690   47.0700   -3.8030 C   0  0  0  0  0  0  0  0  0  0  0  0
   28.5000   47.2850   -4.2480 O   0  0  0  0  0  0  0  0  0  0  0  0
   30.7050   47.0360   -2.6300 C   0  0  0  0  0  0  0  0  0  0  0  0
   32.8230   47.3200   -3.6940 C   0  0  0  0  0  0  0  0  0  0  0  0
   29.5260   49.2790   -4.6440 C   0  0  0  0  0  0  0  0  0  0  0  0
   31.2990   47.2560   -1.4160 C   0  0  0  0  0  0  0  0  0  0  0  0
   33.4390   47.5350   -2.5080 N   0  0  0  0  0  0  0  0  0  0  0  0
   29.1670   50.0430   -5.7500 C   0  0  0  0  0  0  0  0  0  0  0  0
   29.8900   49.9290   -3.4440 C   0  0  0  0  0  0  0  0  0  0  0  0
   30.5720   47.2350   -0.2650 O   0  0  0  0  0  0  0  0  0  0  0  0
   32.6600   47.5030   -1.3950 C   0  0  0  0  0  0  0  0  0  0  0  0
   29.1640   51.4350   -5.6580 C   0  0  0  0  0  0  0  0  0  0  0  0
   29.8880   51.3250   -3.3630 C   0  0  0  0  0  0  0  0  0  0  0  0
   28.7090   52.3590   -7.0360 Cl  0  0  0  0  0  0  0  0  0  0  0  0
   29.5210   52.0810   -4.4740 C   0  0  0  0  0  0  0  0  0  0  0  0
  2  1  1  0
  2  3  1  0
  2  4  1  0
  2  5  1  0
  4  6  2  0
  5  7  2  0
  5  8  1  0
  4  9  1  0
  7 10  1  0
  8 11  2  0
  9 12  2  0
  9 13  1  0
 10 14  1  0
 10 15  2  0
 11 15  1  0
 12 16  1  0
 13 17  2  0
 16 18  1  0
 16 19  2  0
 17 19  1  0
M  END
