mac-x0319-mac-x0584
     RDKit          3D

 22 25  0  0  0  0  0  0  0  0999 V2000
   35.8230   45.7810   -6.1320 O   0  0  0  0  0  0  0  0  0  0  0  0
   34.4850   45.7730   -5.7820 C   0  0  0  0  0  0  0  0  0  0  0  0
   33.7070   46.1540   -6.7340 O   0  0  0  0  0  0  0  0  0  0  0  0
   33.8690   45.4100   -4.5430 C   0  0  0  0  0  0  0  0  0  0  0  0
   31.9190   45.5820   -4.8140 S   0  0  0  0  0  0  0  0  0  0  0  0
   31.1740   45.6520   -3.1500 C   0  0  0  0  0  0  0  0  0  0  0  0
   31.1380   47.2480   -4.4480 C   0  0  0  0  0  0  0  0  0  0  0  0
   31.4840   43.8200   -5.2370 C   0  0  0  0  0  0  0  0  0  0  0  0
   31.0660   44.9350   -6.4050 C   0  0  0  0  0  0  0  0  0  0  0  0
   29.7030   45.8470   -3.1160 C   0  0  2  0  0  0  0  0  0  0  0  0
   29.8380   47.4600   -4.9640 C   0  0  2  0  0  0  0  0  0  0  0  0
   32.1510   43.9670   -6.5280 C   0  0  0  0  0  0  0  0  0  0  0  0
   29.1130   44.6530   -3.6240 O   0  0  0  0  0  0  0  0  0  0  0  0
   28.9890   46.9760   -3.7670 C   0  0  0  0  0  0  0  0  0  0  0  0
   29.4440   46.8220   -6.1770 N   0  0  0  0  0  0  0  0  0  0  0  0
   29.6700   48.9760   -5.1570 C   0  0  1  0  0  0  0  0  0  0  0  0
   28.4120   47.5640   -6.8150 C   0  0  0  0  0  0  0  0  0  0  0  0
   29.6710   49.5250   -6.5720 C   0  0  1  0  0  0  0  0  0  0  0  0
   28.4300   49.4770   -4.5800 C   0  0  0  0  0  0  0  0  0  0  0  0
   28.8610   48.7300   -7.4810 N   0  0  0  0  0  0  0  0  0  0  0  0
   29.0080   50.7910   -6.3060 N   0  0  0  0  0  0  0  0  0  0  0  0
   28.0650   50.5500   -5.2690 C   0  0  0  0  0  0  0  0  0  0  0  0
  1  2  1  0
  2  3  2  0
  2  4  1  0
  4  5  1  0
  5  6  1  0
  5  7  1  0
  5  8  1  0
  5  9  1  0
  6 10  1  0
 11  7  1  1
  8 12  1  0
  9 12  1  0
 10 13  1  6
 10 14  1  0
 11 14  1  0
 11 15  1  0
 11 16  1  0
 15 17  1  0
 16 18  1  0
 16 19  1  6
 17 20  1  0
 18 20  1  6
 18 21  1  0
 19 22  2  0
 21 22  1  0
M  END
