mac-x0375-mac-x0567
     RDKit          3D

 24 26  0  0  0  0  0  0  0  0999 V2000
   32.2370   43.5810   -6.4070 O   0  0  0  0  0  0  0  0  0  0  0  0
   32.6590   44.8670   -5.9680 C   0  0  0  0  0  0  0  0  0  0  0  0
   33.7980   45.1820   -6.7490 O   0  0  0  0  0  0  0  0  0  0  0  0
   33.0710   44.8410   -4.4760 C   0  0  0  0  0  0  0  0  0  0  0  0
   31.5090   45.8380   -6.2750 C   0  0  0  0  0  0  0  0  0  0  0  0
   34.4960   44.7820   -4.3670 O   0  0  0  0  0  0  0  0  0  0  0  0
   30.4310   45.2610   -7.1980 C   0  0  0  0  0  0  0  0  0  0  0  0
   29.2330   46.2030   -7.3030 C   0  0  0  0  0  0  0  0  0  0  0  0
   35.1360   45.8650   -3.8280 C   0  0  0  0  0  0  0  0  0  0  0  0
   29.5900   47.4100   -8.0340 N   0  0  0  0  0  0  0  0  0  0  0  0
   36.4540   45.6190   -3.4300 C   0  0  0  0  0  0  0  0  0  0  0  0
   34.5980   47.1420   -3.6530 C   0  0  0  0  0  0  0  0  0  0  0  0
   37.2290   46.6330   -2.8650 C   0  0  0  0  0  0  0  0  0  0  0  0
   35.3750   48.1580   -3.0870 C   0  0  0  0  0  0  0  0  0  0  0  0
   29.2740   48.6610   -7.6010 C   0  0  0  0  0  0  0  0  0  0  0  0
   36.6890   47.9040   -2.6940 C   0  0  0  0  0  0  0  0  0  0  0  0
   28.7100   49.6280   -8.3990 N   0  0  0  0  0  0  0  0  0  0  0  0
   29.4050   49.2770   -6.3820 C   0  0  0  0  0  0  0  0  0  0  0  0
   28.4710   50.8060   -7.7870 N   0  0  0  0  0  0  0  0  0  0  0  0
   28.8930   50.6200   -6.5260 C   0  0  0  0  0  0  0  0  0  0  0  0
   29.9330   48.7090   -5.2230 C   0  0  0  0  0  0  0  0  0  0  0  0
   28.8910   51.5070   -5.4380 C   0  0  0  0  0  0  0  0  0  0  0  0
   29.9160   49.6230   -4.1480 C   0  0  0  0  0  0  0  0  0  0  0  0
   29.4200   50.9580   -4.2480 C   0  0  0  0  0  0  0  0  0  0  0  0
  2  1  1  0
  2  3  1  0
  2  4  1  0
  2  5  1  0
  4  6  1  0
  5  7  1  0
  7  8  1  0
  6  9  1  0
  8 10  1  0
  9 11  2  0
  9 12  1  0
 11 13  1  0
 12 14  2  0
 10 15  1  0
 13 16  2  0
 14 16  1  0
 15 17  1  0
 15 18  2  0
 17 19  1  0
 18 20  1  0
 19 20  2  0
 18 21  1  0
 20 22  1  0
 21 23  2  0
 22 24  2  0
 23 24  1  0
M  END
