mac-x0394-mac-x0212
     RDKit          3D

 25 26  0  0  0  0  0  0  0  0999 V2000
   23.7810   50.1390   -4.2320 Cl  0  0  0  0  0  0  0  0  0  0  0  0
   24.9210   51.4310   -4.2570 C   0  0  0  0  0  0  0  0  0  0  0  0
   24.7060   52.5330   -3.4390 C   0  0  0  0  0  0  0  0  0  0  0  0
   26.0480   51.3690   -5.0910 C   0  0  0  0  0  0  0  0  0  0  0  0
   26.9870   52.4270   -5.1100 C   0  0  0  0  0  0  0  0  0  0  0  0
   25.6230   53.5720   -3.4570 C   0  0  0  0  0  0  0  0  0  0  0  0
   25.4010   54.9520   -2.4610 Cl  0  0  0  0  0  0  0  0  0  0  0  0
   28.2750   52.4660   -5.9650 C   0  0  1  0  0  0  0  0  0  0  0  0
   26.7400   53.5210   -4.2750 C   0  0  0  0  0  0  0  0  0  0  0  0
   28.0550   52.6960   -7.4660 C   0  0  0  0  0  0  0  0  0  0  0  0
   29.3450   53.9260   -5.4900 S   0  0  0  0  0  0  0  0  0  0  0  0
   29.0060   51.1810   -5.5530 C   0  0  0  0  0  0  0  0  0  0  0  0
   29.0730   53.3380   -8.0780 O   0  0  0  0  0  0  0  0  0  0  0  0
   27.0840   52.3780   -8.1410 O   0  0  0  0  0  0  0  0  0  0  0  0
   30.8710   53.8070   -6.4090 C   0  0  0  0  0  0  0  0  0  0  0  0
   28.7090   55.1540   -5.9490 O   0  0  0  0  0  0  0  0  0  0  0  0
   29.7120   53.8410   -4.0840 O   0  0  0  0  0  0  0  0  0  0  0  0
   29.4350   50.2180   -6.4710 C   0  0  0  0  0  0  0  0  0  0  0  0
   29.2410   50.9530   -4.1780 C   0  0  0  0  0  0  0  0  0  0  0  0
   30.0710   49.0580   -6.0320 C   0  0  0  0  0  0  0  0  0  0  0  0
   29.8750   49.7970   -3.7360 C   0  0  0  0  0  0  0  0  0  0  0  0
   30.2870   48.8510   -4.6700 C   0  0  0  0  0  0  0  0  0  0  0  0
   30.9520   47.6220   -4.1970 C   0  0  0  0  0  0  0  0  0  0  0  0
   31.2870   46.7280   -4.9500 O   0  0  0  0  0  0  0  0  0  0  0  0
   31.1380   47.5980   -2.8630 O   0  0  0  0  0  0  0  0  0  0  0  0
  1  2  1  0
  2  3  2  0
  2  4  1  0
  4  5  2  0
  3  6  1  0
  6  7  1  0
  5  8  1  0
  5  9  1  0
  6  9  2  0
  8 10  1  6
  8 11  1  0
  8 12  1  0
 10 13  1  0
 10 14  2  0
 11 15  1  0
 11 16  2  0
 11 17  2  0
 12 18  2  0
 12 19  1  0
 18 20  1  0
 19 21  2  0
 20 22  2  0
 21 22  1  0
 22 23  1  0
 23 24  2  0
 23 25  1  0
M  END
