mac-x0375-mac-x0226
     RDKit          3D

 22 24  0  0  0  0  0  0  0  0999 V2000
   31.7350   45.1480   -6.4640 O   0  0  0  0  0  0  0  0  0  0  0  0
   33.0500   45.0640   -5.9340 C   0  0  0  0  0  0  0  0  0  0  0  0
   33.9480   45.1960   -7.0350 O   0  0  0  0  0  0  0  0  0  0  0  0
   33.2840   46.2460   -4.9630 C   0  0  0  0  0  0  0  0  0  0  0  0
   33.3410   43.7070   -5.2550 C   0  0  2  0  0  0  0  0  0  0  0  0
   34.0700   45.7850   -3.8450 O   0  0  0  0  0  0  0  0  0  0  0  0
   32.4040   43.3810   -4.0870 C   0  0  0  0  0  0  0  0  0  0  0  0
   34.7260   43.6790   -4.5900 C   0  0  0  0  0  0  0  0  0  0  0  0
   35.1550   46.5730   -3.5960 C   0  0  0  0  0  0  0  0  0  0  0  0
   33.0440   43.9430   -2.8880 N   0  0  0  0  0  0  0  0  0  0  0  0
   34.4210   43.8500   -3.1690 N   0  0  0  0  0  0  0  0  0  0  0  0
   36.4620   46.0870   -3.6890 C   0  0  0  0  0  0  0  0  0  0  0  0
   34.9190   47.8960   -3.2380 C   0  0  0  0  0  0  0  0  0  0  0  0
   35.3980   44.0210   -2.1790 C   0  0  0  0  0  0  0  0  0  0  0  0
   37.5330   46.9330   -3.4200 C   0  0  0  0  0  0  0  0  0  0  0  0
   35.9920   48.7400   -2.9690 C   0  0  0  0  0  0  0  0  0  0  0  0
   35.4940   45.1870   -1.4050 C   0  0  0  0  0  0  0  0  0  0  0  0
   36.3410   43.0110   -1.9150 C   0  0  0  0  0  0  0  0  0  0  0  0
   37.3000   48.2620   -3.0600 C   0  0  0  0  0  0  0  0  0  0  0  0
   36.4770   45.3450   -0.4190 C   0  0  0  0  0  0  0  0  0  0  0  0
   37.3260   43.1600   -0.9320 C   0  0  0  0  0  0  0  0  0  0  0  0
   37.3940   44.3270   -0.1840 C   0  0  0  0  0  0  0  0  0  0  0  0
  2  1  1  0
  2  3  1  0
  2  4  1  0
  5  2  1  1
  4  6  1  0
  5  7  1  0
  5  8  1  0
  6  9  1  0
  7 10  1  0
  8 11  1  0
 10 11  1  0
  9 12  2  0
  9 13  1  0
 11 14  1  0
 12 15  1  0
 13 16  2  0
 14 17  2  0
 14 18  1  0
 15 19  2  0
 16 19  1  0
 17 20  1  0
 18 21  2  0
 20 22  2  0
 21 22  1  0
M  END
