mac-x0565-mac-x0231
     RDKit          3D

 26 29  0  0  0  0  0  0  0  0999 V2000
   27.3280   52.5730   -4.6130 O   0  0  0  0  0  0  0  0  0  0  0  0
   28.0430   52.5140   -3.4760 C   0  0  0  0  0  0  0  0  0  0  0  0
   27.9390   53.3800   -2.6280 O   0  0  0  0  0  0  0  0  0  0  0  0
   28.9250   51.3210   -3.4030 C   0  0  0  0  0  0  0  0  0  0  0  0
   29.9280   51.1780   -4.3710 C   0  0  0  0  0  0  0  0  0  0  0  0
   28.7740   50.3460   -2.3930 C   0  0  0  0  0  0  0  0  0  0  0  0
   30.7460   50.0700   -4.3000 C   0  0  0  0  0  0  0  0  0  0  0  0
   29.6180   49.2290   -2.3430 C   0  0  0  0  0  0  0  0  0  0  0  0
   30.6070   49.1020   -3.3080 C   0  0  0  0  0  0  0  0  0  0  0  0
   31.7580   49.8210   -5.1850 O   0  0  0  0  0  0  0  0  0  0  0  0
   31.6420   48.0310   -3.5000 C   0  0  2  0  0  0  0  0  0  0  0  0
   32.5240   48.7620   -4.5510 C   0  0  0  0  0  0  0  0  0  0  0  0
   31.1150   46.6360   -4.0010 C   0  0  1  0  0  0  0  0  0  0  0  0
   32.4700   47.9150   -2.2120 C   0  0  0  0  0  0  0  0  0  0  0  0
   31.5980   45.3870   -3.1800 C   0  0  1  0  0  0  0  0  0  0  0  0
   29.6210   46.4820   -4.2330 C   0  0  0  0  0  0  0  0  0  0  0  0
   33.1160   46.8070   -1.8620 C   0  0  0  0  0  0  0  0  0  0  0  0
   28.7900   47.3770   -4.3000 O   0  0  0  0  0  0  0  0  0  0  0  0
   31.3060   44.0380   -3.9190 C   0  0  2  0  0  0  0  0  0  0  0  0
   29.2620   45.1520   -4.3680 N   0  0  0  0  0  0  0  0  0  0  0  0
   33.0490   45.5970   -2.7240 C   0  0  0  0  0  0  0  0  0  0  0  0
   32.5420   43.3950   -4.5800 C   0  0  0  0  0  0  0  0  0  0  0  0
   30.1890   44.2170   -4.8790 N   0  0  0  0  0  0  0  0  0  0  0  0
   32.2740   42.8900   -5.9750 C   0  0  0  0  0  0  0  0  0  0  0  0
   33.1500   43.3890   -6.8720 O   0  0  0  0  0  0  0  0  0  0  0  0
   31.3980   42.1180   -6.3240 O   0  0  0  0  0  0  0  0  0  0  0  0
  1  2  1  0
  2  3  2  0
  2  4  1  0
  4  5  2  0
  4  6  1  0
  5  7  1  0
  6  8  2  0
  7  9  2  0
  8  9  1  0
  7 10  1  0
  9 11  1  0
 10 12  1  0
 11 12  1  6
 11 13  1  0
 11 14  1  0
 13 15  1  0
 13 16  1  1
 14 17  2  0
 16 18  2  0
 15 19  1  0
 16 20  1  0
 15 21  1  6
 17 21  1  0
 19 22  1  6
 19 23  1  0
 20 23  1  0
 22 24  1  0
 24 25  1  0
 24 26  2  0
M  END
