mac-x0178-mac-x0576
     RDKit          3D

 26 28  0  0  0  0  0  0  0  0999 V2000
   28.7110   44.0040   -0.3700 N   0  0  0  0  0  0  0  0  0  0  0  0
   28.9620   45.6580   -0.4160 S   0  0  0  0  0  0  0  0  0  0  0  0
   29.8130   45.9880    0.7020 O   0  0  0  0  0  0  0  0  0  0  0  0
   27.6590   46.2540   -0.5900 O   0  0  0  0  0  0  0  0  0  0  0  0
   29.8920   45.8730   -1.9050 C   0  0  0  0  0  0  0  0  0  0  0  0
   29.6540   47.0150   -2.6510 C   0  0  0  0  0  0  0  0  0  0  0  0
   30.8330   44.9380   -2.3230 C   0  0  0  0  0  0  0  0  0  0  0  0
   30.3460   47.2680   -3.8370 C   0  0  0  0  0  0  0  0  0  0  0  0
   31.5390   45.1650   -3.5090 C   0  0  0  0  0  0  0  0  0  0  0  0
   29.9610   48.4880   -4.4280 N   0  0  0  0  0  0  0  0  0  0  0  0
   31.3120   46.3230   -4.2810 C   0  0  0  0  0  0  0  0  0  0  0  0
   32.1170   46.4750   -5.5210 C   0  0  0  0  0  0  0  0  0  0  0  0
   29.3620   48.6920   -5.5700 C   0  0  0  0  0  0  0  0  0  0  0  0
   31.8980   45.9810   -6.6110 O   0  0  0  0  0  0  0  0  0  0  0  0
   33.1990   47.2510   -5.3110 O   0  0  0  0  0  0  0  0  0  0  0  0
   28.9610   47.7980   -6.5440 N   0  0  0  0  0  0  0  0  0  0  0  0
   29.0430   50.1750   -5.8300 C   0  0  2  0  0  0  0  0  0  0  0  0
   29.2680   48.1420   -7.9040 C   0  0  1  0  0  0  0  0  0  0  0  0
   28.7180   50.3690   -7.3360 C   0  0  2  0  0  0  0  0  0  0  0  0
   30.2150   50.9970   -5.4110 N   0  0  0  0  0  0  0  0  0  0  0  0
   28.2620   47.8460   -8.8780 N   0  0  0  0  0  0  0  0  0  0  0  0
   29.5370   49.5280   -8.2000 N   0  0  0  0  0  0  0  0  0  0  0  0
   29.0050   51.7200   -7.7530 N   0  0  0  0  0  0  0  0  0  0  0  0
   29.8220   52.4150   -5.5150 C   0  0  0  0  0  0  0  0  0  0  0  0
   29.1450   52.7440   -6.8470 C   0  0  0  0  0  0  0  0  0  0  0  0
   28.7310   53.8710   -7.1190 O   0  0  0  0  0  0  0  0  0  0  0  0
  2  1  1  0
  2  3  2  0
  2  4  2  0
  2  5  1  0
  5  6  2  0
  5  7  1  0
  6  8  1  0
  7  9  2  0
  8 10  1  0
  8 11  2  0
  9 11  1  0
 11 12  1  0
 10 13  2  3
 12 14  2  0
 12 15  1  0
 13 16  1  0
 13 17  1  0
 16 18  1  0
 17 19  1  0
 17 20  1  6
 18 21  1  6
 18 22  1  0
 19 22  1  6
 19 23  1  0
 20 24  1  0
 23 25  1  0
 24 25  1  0
 25 26  2  0
M  END
