mac-x0358-mac-x0231
     RDKit          3D

 16 17  0  0  0  0  0  0  0  0999 V2000
   32.6810   45.9940   -8.1870 O   0  0  0  0  0  0  0  0  0  0  0  0
   32.7640   46.4160   -6.9140 C   0  0  0  0  0  0  0  0  0  0  0  0
   33.8320   46.7540   -6.3020 N   0  0  0  0  0  0  0  0  0  0  0  0
   33.7760   47.1910   -4.9190 C   0  0  0  0  0  0  0  0  0  0  0  0
   34.0460   46.1990   -3.9250 O   0  0  0  0  0  0  0  0  0  0  0  0
   33.0790   46.1550   -2.8710 C   0  0  2  0  0  0  0  0  0  0  0  0
   31.7530   45.5890   -3.4770 C   0  0  2  0  0  0  0  0  0  0  0  0
   32.9320   47.5450   -2.3180 C   0  0  0  0  0  0  0  0  0  0  0  0
   31.8110   47.9610   -1.7410 C   0  0  0  0  0  0  0  0  0  0  0  0
   30.4380   46.1790   -2.8770 C   0  0  2  0  0  0  0  0  0  0  0  0
   31.7710   44.0470   -3.3870 C   0  0  0  0  0  0  0  0  0  0  0  0
   30.6390   47.0470   -1.6250 C   0  0  0  0  0  0  0  0  0  0  0  0
   29.4340   45.0510   -2.6330 C   0  0  0  0  0  0  0  0  0  0  0  0
   30.5890   43.3910   -3.9580 N   0  0  0  0  0  0  0  0  0  0  0  0
   28.6880   44.9780   -1.6630 O   0  0  0  0  0  0  0  0  0  0  0  0
   29.4210   44.0830   -3.6200 N   0  0  0  0  0  0  0  0  0  0  0  0
  1  2  1  0
  2  3  2  3
  3  4  1  0
  4  5  1  0
  6  5  1  6
  6  7  1  0
  6  8  1  0
  8  9  2  0
  7 10  1  0
  7 11  1  1
  9 12  1  0
 10 12  1  1
 10 13  1  0
 11 14  1  0
 13 15  2  0
 13 16  1  0
 14 16  1  0
M  END
