mac-x0588-mac-x0398
     RDKit          3D

 26 29  0  0  0  0  0  0  0  0999 V2000
   26.5060   50.5650   -7.5680 N   0  0  0  0  0  0  0  0  0  0  0  0
   27.0240   49.2210   -7.3860 C   0  0  1  0  0  0  0  0  0  0  0  0
   28.5700   49.1710   -7.5880 C   0  0  1  0  0  0  0  0  0  0  0  0
   26.5610   48.8630   -6.0580 N   0  0  0  0  0  0  0  0  0  0  0  0
   27.5400   49.2780   -5.0550 C   0  0  0  0  0  0  0  0  0  0  0  0
   29.3320   48.4580   -6.4520 C   0  0  1  0  0  0  0  0  0  0  0  0
   28.9040   48.3410   -8.7590 N   0  0  0  0  0  0  0  0  0  0  0  0
   28.6970   48.4270   -5.1680 N   0  0  0  0  0  0  0  0  0  0  0  0
   29.5490   47.0780   -6.9300 N   0  0  0  0  0  0  0  0  0  0  0  0
   28.9200   46.9950   -8.2420 C   0  0  0  0  0  0  0  0  0  0  0  0
   29.4540   48.2240   -3.9040 C   0  0  1  0  0  0  0  0  0  0  0  0
   29.4330   49.5680   -3.1190 C   0  0  0  0  0  0  0  0  0  0  0  0
   29.1300   46.9890   -3.0080 C   0  0  2  0  0  0  0  0  0  0  0  0
   29.0100   49.6400   -1.9600 O   0  0  0  0  0  0  0  0  0  0  0  0
   29.7740   47.1000   -1.7180 O   0  0  0  0  0  0  0  0  0  0  0  0
   29.6430   45.6610   -3.5530 C   0  0  0  0  0  0  0  0  0  0  0  0
   29.9240   50.8180   -3.7510 C   0  0  0  0  0  0  0  0  0  0  0  0
   29.6740   44.8050   -2.3110 C   0  0  0  0  0  0  0  0  0  0  0  0
   30.1240   45.7880   -1.2550 C   0  0  0  0  0  0  0  0  0  0  0  0
   29.4640   52.0650   -3.3200 C   0  0  0  0  0  0  0  0  0  0  0  0
   30.8570   50.7420   -4.7880 C   0  0  0  0  0  0  0  0  0  0  0  0
   28.5540   52.1520   -2.3030 O   0  0  0  0  0  0  0  0  0  0  0  0
   29.9340   53.2320   -3.9270 C   0  0  0  0  0  0  0  0  0  0  0  0
   31.3240   51.9150   -5.3910 C   0  0  0  0  0  0  0  0  0  0  0  0
   30.8680   53.1680   -4.9690 C   0  0  0  0  0  0  0  0  0  0  0  0
   31.3360   54.3350   -5.5750 N   0  0  0  0  0  0  0  0  0  0  0  0
  2  1  1  1
  2  3  1  0
  2  4  1  0
  4  5  1  0
  3  6  1  0
  3  7  1  6
  5  8  1  0
  6  8  1  0
  6  9  1  6
  7 10  1  0
  9 10  1  0
  8 11  1  0
 11 12  1  1
 11 13  1  0
 12 14  2  0
 13 15  1  0
 13 16  1  6
 12 17  1  0
 16 18  1  0
 15 19  1  0
 18 19  1  0
 17 20  2  0
 17 21  1  0
 20 22  1  0
 20 23  1  0
 21 24  2  0
 23 25  2  0
 24 25  1  0
 25 26  1  0
M  END
