mac-x0131-mac-x0380
     RDKit          3D

 30 35  0  0  0  0  0  0  0  0999 V2000
   30.9910   49.6650   -3.4290 C   0  0  0  0  0  0  0  0  0  0  0  0
   29.8160   49.1370   -3.1520 C   0  0  0  0  0  0  0  0  0  0  0  0
   29.9670   47.7110   -3.8640 C   0  0  1  0  0  0  0  0  0  0  0  0
   30.6290   49.5220   -4.7810 C   0  0  0  0  0  0  0  0  0  0  0  0
   30.6740   50.2510   -5.9030 C   0  0  0  0  0  0  0  0  0  0  0  0
   29.9960   48.3810   -5.0490 N   0  0  0  0  0  0  0  0  0  0  0  0
   29.0470   50.3270   -3.6660 C   0  0  0  0  0  0  0  0  0  0  0  0
   31.2610   51.5980   -6.0320 C   0  0  0  0  0  0  0  0  0  0  0  0
   29.9990   49.4550   -6.8990 C   0  0  0  0  0  0  0  0  0  0  0  0
   29.6010   48.2630   -6.3120 C   0  0  0  0  0  0  0  0  0  0  0  0
   31.2880   46.9610   -3.9740 C   0  0  0  0  0  0  0  0  0  0  0  0
   29.3080   51.6570   -3.2660 C   0  0  0  0  0  0  0  0  0  0  0  0
   28.0600   50.1600   -4.6690 C   0  0  0  0  0  0  0  0  0  0  0  0
   29.6680   49.6140   -8.2330 C   0  0  0  0  0  0  0  0  0  0  0  0
   28.9530   47.2380   -6.8800 N   0  0  0  0  0  0  0  0  0  0  0  0
   31.6270   45.6650   -4.3480 C   0  0  0  0  0  0  0  0  0  0  0  0
   32.4410   47.6430   -3.6780 O   0  0  0  0  0  0  0  0  0  0  0  0
   28.6370   52.7520   -3.8590 C   0  0  0  0  0  0  0  0  0  0  0  0
   27.3900   51.2500   -5.2570 C   0  0  0  0  0  0  0  0  0  0  0  0
   29.9670   50.7530   -8.9570 N   0  0  0  0  0  0  0  0  0  0  0  0
   29.0110   48.6220   -8.8660 N   0  0  0  0  0  0  0  0  0  0  0  0
   28.7000   47.5110   -8.1690 C   0  0  0  0  0  0  0  0  0  0  0  0
   33.4880   46.7980   -3.8640 C   0  0  0  0  0  0  0  0  0  0  0  0
   33.0420   45.5670   -4.2770 C   0  0  0  0  0  0  0  0  0  0  0  0
   27.6900   52.5530   -4.8570 C   0  0  0  0  0  0  0  0  0  0  0  0
   29.0160   54.4130   -3.3440 S   0  0  0  0  0  0  0  0  0  0  0  0
   27.0510   53.6510   -5.4640 N   0  0  0  0  0  0  0  0  0  0  0  0
   28.9110   55.2260   -4.9580 C   0  0  0  0  0  0  0  0  0  0  0  0
   27.6970   54.8300   -5.7770 C   0  0  0  0  0  0  0  0  0  0  0  0
   27.2900   55.5390   -6.7050 O   0  0  0  0  0  0  0  0  0  0  0  0
  1  2  2  0
  2  3  1  0
  1  4  1  0
  4  5  2  0
  3  6  1  0
  4  6  1  0
  2  7  1  0
  5  8  1  0
  5  9  1  0
  6 10  1  0
  9 10  2  0
  3 11  1  1
  7 12  2  0
  7 13  1  0
  9 14  1  0
 10 15  1  0
 11 16  2  0
 11 17  1  0
 12 18  1  0
 13 19  2  0
 14 20  1  0
 14 21  2  0
 15 22  2  0
 21 22  1  0
 17 23  1  0
 16 24  1  0
 23 24  2  0
 18 25  2  0
 19 25  1  0
 18 26  1  0
 25 27  1  0
 26 28  1  0
 27 29  1  0
 28 29  1  0
 29 30  2  0
M  END
