mac-x0142-mac-x0163
     RDKit          3D

 24 28  0  0  0  0  0  0  0  0999 V2000
   30.8930   50.5620   -6.4180 Cl  0  0  0  0  0  0  0  0  0  0  0  0
   29.7840   49.3960   -5.5990 C   0  0  1  0  0  0  0  0  0  0  0  0
   28.3900   49.6290   -6.1600 C   0  0  0  0  0  0  0  0  0  0  0  0
   30.1990   47.8830   -5.8790 C   0  0  1  0  0  0  0  0  0  0  0  0
   29.4910   49.9410   -4.2360 C   0  0  0  0  0  0  0  0  0  0  0  0
   29.5670   47.0210   -4.8520 N   0  0  0  0  0  0  0  0  0  0  0  0
   29.8360   47.4530   -7.2750 N   0  0  0  0  0  0  0  0  0  0  0  0
   28.2520   49.2220   -7.4640 N   0  0  0  0  0  0  0  0  0  0  0  0
   27.5230   50.1750   -5.3540 N   0  0  0  0  0  0  0  0  0  0  0  0
   28.2210   50.3540   -4.1870 C   0  0  0  0  0  0  0  0  0  0  0  0
   31.7650   47.7580   -5.7450 C   0  0  0  0  0  0  0  0  0  0  0  0
   27.8240   50.1840   -8.4090 N   0  0  0  0  0  0  0  0  0  0  0  0
   29.7120   45.5760   -5.0380 C   0  0  0  0  0  0  0  0  0  0  0  0
   28.9370   48.1260   -7.9230 C   0  0  0  0  0  0  0  0  0  0  0  0
   32.3930   48.1720   -4.3870 C   0  0  1  0  0  0  0  0  0  0  0  0
   31.0170   45.0770   -4.4210 C   0  0  0  0  0  0  0  0  0  0  0  0
   33.3940   47.1030   -3.8750 C   0  0  2  0  0  0  0  0  0  0  0  0
   33.2740   49.4210   -4.5420 C   0  0  0  0  0  0  0  0  0  0  0  0
   31.3040   43.5900   -4.5780 C   0  0  0  0  0  0  0  0  0  0  0  0
   32.1510   44.5780   -5.3070 C   0  0  0  0  0  0  0  0  0  0  0  0
   31.3470   45.6850   -3.0620 C   0  0  0  0  0  0  0  0  0  0  0  0
   32.8060   46.1070   -2.8630 C   0  0  0  0  0  0  0  0  0  0  0  0
   34.5600   47.8890   -3.2280 C   0  0  0  0  0  0  0  0  0  0  0  0
   34.2110   49.3650   -3.3530 C   0  0  0  0  0  0  0  0  0  0  0  0
  2  1  1  6
  2  3  1  0
  2  4  1  0
  2  5  1  0
  4  6  1  0
  4  7  1  0
  3  8  1  0
  3  9  2  0
  5 10  2  0
  9 10  1  0
  4 11  1  6
  8 12  1  0
  6 13  1  0
  7 14  2  0
  8 14  1  0
 15 11  1  6
 16 13  1  0
 15 17  1  0
 15 18  1  0
 16 19  1  0
 16 20  1  0
 19 20  1  0
 16 21  1  0
 17 22  1  1
 21 22  1  0
 17 23  1  0
 18 24  1  0
 23 24  1  0
M  END
