mac-x0305-mac-x0282
     RDKit          3D

 13 14  0  0  0  0  0  0  0  0999 V2000
   31.2160   46.8760   -7.3250 O   0  0  0  0  0  0  0  0  0  0  0  0
   30.8260   47.4290   -6.1560 C   0  0  0  0  0  0  0  0  0  0  0  0
   31.6140   47.4180   -5.2120 O   0  0  0  0  0  0  0  0  0  0  0  0
   29.4030   48.0280   -6.1200 C   0  0  2  0  0  0  0  0  0  0  0  0
   29.3180   49.2110   -7.1960 C   0  0  2  0  0  0  0  0  0  0  0  0
   29.1110   48.3590   -4.6850 N   0  0  0  0  0  0  0  0  0  0  0  0
   28.3650   47.0600   -6.6490 C   0  0  0  0  0  0  0  0  0  0  0  0
   30.4330   49.3540   -8.0480 O   0  0  0  0  0  0  0  0  0  0  0  0
   28.9900   50.5470   -6.5920 C   0  0  0  0  0  0  0  0  0  0  0  0
   29.5060   49.7130   -4.3030 C   0  0  0  0  0  0  0  0  0  0  0  0
   27.7300   47.5850   -7.7050 C   0  0  0  0  0  0  0  0  0  0  0  0
   28.1710   48.8500   -8.0380 N   0  0  0  0  0  0  0  0  0  0  0  0
   29.0800   50.7670   -5.2700 C   0  0  0  0  0  0  0  0  0  0  0  0
  1  2  1  0
  2  3  2  0
  4  2  1  1
  4  5  1  0
  4  6  1  0
  4  7  1  0
  5  8  1  6
  5  9  1  0
  6 10  1  0
  7 11  2  0
  5 12  1  0
 11 12  1  0
  9 13  2  0
 10 13  1  0
M  END
