mac-x0115-mac-x0123
     RDKit          3D

 29 33  0  0  0  0  0  0  0  0999 V2000
   27.9650   45.7160   -1.7190 C   0  0  0  0  0  0  0  0  0  0  0  0
   28.9470   44.6870   -2.2630 C   0  0  0  0  0  0  0  0  0  0  0  0
   28.2070   43.6110   -3.0530 C   0  0  0  0  0  0  0  0  0  0  0  0
   29.8820   45.3270   -3.1370 O   0  0  0  0  0  0  0  0  0  0  0  0
   30.3620   44.5650   -4.2420 C   0  0  0  0  0  0  0  0  0  0  0  0
   31.3520   45.4230   -5.0530 C   0  0  0  0  0  0  0  0  0  0  0  0
   30.7650   46.1690   -6.1990 N   0  0  0  0  0  0  0  0  0  0  0  0
   30.2360   45.4320   -7.2680 C   0  0  0  0  0  0  0  0  0  0  0  0
   30.0970   47.4360   -5.8450 C   0  0  2  0  0  0  0  0  0  0  0  0
   30.5840   43.8470   -7.6790 S   0  0  0  0  0  0  0  0  0  0  0  0
   29.3200   46.0670   -8.0730 N   0  0  0  0  0  0  0  0  0  0  0  0
   29.5510   48.2460   -6.9740 C   0  0  1  0  0  0  0  0  0  0  0  0
   30.8130   48.6760   -5.2490 C   0  0  0  0  0  0  0  0  0  0  0  0
   28.9560   47.3840   -8.0770 C   0  0  0  0  0  0  0  0  0  0  0  0
   28.6200   49.0500   -6.1540 N   0  0  0  0  0  0  0  0  0  0  0  0
   29.5730   49.6320   -5.1520 C   0  0  2  0  0  0  0  0  0  0  0  0
   28.2130   47.8360   -8.9470 O   0  0  0  0  0  0  0  0  0  0  0  0
   29.5270   51.1580   -5.2060 C   0  0  0  0  0  0  0  0  0  0  0  0
   29.1920   49.5780   -3.6270 C   0  0  0  0  0  0  0  0  0  0  0  0
   29.2420   52.0610   -6.2300 C   0  0  0  0  0  0  0  0  0  0  0  0
   29.8160   51.6650   -3.9260 C   0  0  0  0  0  0  0  0  0  0  0  0
   30.0440   50.6080   -3.0160 N   0  0  0  0  0  0  0  0  0  0  0  0
   28.9270   51.6580   -7.5300 N   0  0  0  0  0  0  0  0  0  0  0  0
   29.8640   52.9660   -3.5810 N   0  0  0  0  0  0  0  0  0  0  0  0
   29.2730   53.4130   -5.8980 C   0  0  0  0  0  0  0  0  0  0  0  0
   29.5850   53.8100   -4.5930 C   0  0  0  0  0  0  0  0  0  0  0  0
   29.0060   54.6080   -6.7630 C   0  0  0  0  0  0  0  0  0  0  0  0
   29.5630   55.3100   -4.4610 C   0  0  0  0  0  0  0  0  0  0  0  0
   29.5740   55.7620   -5.9270 C   0  0  0  0  0  0  0  0  0  0  0  0
  1  2  1  0
  2  3  1  0
  2  4  1  0
  4  5  1  0
  5  6  1  0
  6  7  1  0
  7  8  1  0
  7  9  1  0
  8 10  2  0
  8 11  1  0
  9 12  1  0
  9 13  1  6
 11 14  1  0
 12 14  1  0
 12 15  1  1
 16 13  1  1
 16 15  1  0
 14 17  2  0
 16 18  1  0
 16 19  1  0
 18 20  2  0
 18 21  1  0
 19 22  1  0
 21 22  1  0
 20 23  1  0
 21 24  2  0
 20 25  1  0
 24 26  1  0
 25 26  2  0
 25 27  1  0
 26 28  1  0
 27 29  1  0
 28 29  1  0
M  END
