mac-x0148
     RDKit          3D

 18 21  0  0  0  0  0  0  0  0999 V2000
   32.6340   47.4960   -2.1590 C   0  0  0  0  0  0  0  0  0  0  0  0
   31.3470   47.9630   -1.5630 O   0  0  0  0  0  0  0  0  0  0  0  0
   30.5720   48.1770   -2.9640 C   0  0  0  0  0  0  0  0  0  0  0  0
   30.6590   47.0530   -3.4400 C   0  0  2  0  0  0  0  0  0  0  0  0
   32.1530   46.4760   -2.8670 C   0  0  1  0  0  0  0  0  0  0  0  0
   33.0880   45.8920   -3.8880 C   0  0  0  0  0  0  0  0  0  0  0  0
   33.0680   46.8730   -4.8810 C   0  0  0  0  0  0  0  0  0  0  0  0
   31.6770   46.3930   -5.6750 C   0  0  0  0  0  0  0  0  0  0  0  0
   30.4020   46.9490   -4.9720 N   0  0  0  0  0  0  0  0  0  0  0  0
   29.7390   47.7190   -5.9750 C   0  0  0  0  0  0  0  0  0  0  0  0
   29.4550   47.0590   -7.0840 N   0  0  0  0  0  0  0  0  0  0  0  0
   28.9580   47.6590   -8.1070 C   0  0  0  0  0  0  0  0  0  0  0  0
   28.6300   48.8880   -8.0850 N   0  0  0  0  0  0  0  0  0  0  0  0
   28.8920   49.6200   -7.0180 C   0  0  0  0  0  0  0  0  0  0  0  0
   28.7080   50.9110   -6.8120 N   0  0  0  0  0  0  0  0  0  0  0  0
   29.0700   51.2330   -5.5960 C   0  0  0  0  0  0  0  0  0  0  0  0
   29.5530   50.1570   -4.9860 C   0  0  0  0  0  0  0  0  0  0  0  0
   29.4920   49.0950   -5.9140 C   0  0  0  0  0  0  0  0  0  0  0  0
  1  2  1  0
  2  3  1  0
  4  3  1  6
  5  1  1  6
  4  5  1  0
  5  6  1  0
  6  7  1  0
  7  8  1  0
  4  9  1  0
  8  9  1  0
  9 10  1  0
 10 11  2  0
 11 12  1  0
 12 13  2  0
 13 14  1  0
 14 15  1  0
 15 16  1  0
 16 17  2  0
 10 18  1  0
 14 18  2  0
 17 18  1  0
M  END
