mac-x0328-mac-x0415
     RDKit          3D

 25 27  0  0  0  0  0  0  0  0999 V2000
   30.2340   47.9400   -3.8230 O   0  0  0  0  0  0  0  0  0  0  0  0
   30.0450   48.6350   -4.9630 C   0  0  0  0  0  0  0  0  0  0  0  0
   29.8620   48.0790   -6.1060 N   0  0  0  0  0  0  0  0  0  0  0  0
   30.0760   50.0990   -4.7600 C   0  0  0  0  0  0  0  0  0  0  0  0
   29.8580   46.6200   -6.0880 C   0  0  0  0  0  0  0  0  0  0  0  0
   29.8190   50.9430   -5.8520 C   0  0  0  0  0  0  0  0  0  0  0  0
   30.3560   50.6440   -3.5020 C   0  0  0  0  0  0  0  0  0  0  0  0
   31.0850   46.1060   -6.6950 N   0  0  0  0  0  0  0  0  0  0  0  0
   29.8410   52.3280   -5.6820 C   0  0  0  0  0  0  0  0  0  0  0  0
   30.3780   52.0330   -3.3390 C   0  0  0  0  0  0  0  0  0  0  0  0
   32.1080   45.8590   -5.9590 C   0  0  0  0  0  0  0  0  0  0  0  0
   30.1210   52.8620   -4.4260 C   0  0  0  0  0  0  0  0  0  0  0  0
   30.1520   54.2060   -4.2100 O   0  0  0  0  0  0  0  0  0  0  0  0
   33.1890   45.3860   -6.6030 O   0  0  0  0  0  0  0  0  0  0  0  0
   32.3220   46.0060   -4.4710 C   0  0  0  0  0  0  0  0  0  0  0  0
   31.3450   45.2190   -3.6710 C   0  0  0  0  0  0  0  0  0  0  0  0
   30.7400   43.9300   -4.0520 C   0  0  0  0  0  0  0  0  0  0  0  0
   30.7600   45.4200   -2.4920 C   0  0  0  0  0  0  0  0  0  0  0  0
   29.8820   43.3750   -3.2380 N   0  0  0  0  0  0  0  0  0  0  0  0
   29.8360   44.3160   -2.1040 C   0  0  2  0  0  0  0  0  0  0  0  0
   30.8630   46.5060   -1.5550 C   0  0  0  0  0  0  0  0  0  0  0  0
   28.5080   44.9010   -1.7570 C   0  0  0  0  0  0  0  0  0  0  0  0
   29.7220   46.8540   -0.9080 C   0  0  0  0  0  0  0  0  0  0  0  0
   29.6630   48.2420    0.3400 Br  0  0  0  0  0  0  0  0  0  0  0  0
   28.4760   46.1230   -1.1820 C   0  0  0  0  0  0  0  0  0  0  0  0
  1  2  1  0
  2  3  2  3
  2  4  1  0
  3  5  1  0
  4  6  2  0
  4  7  1  0
  5  8  1  0
  6  9  1  0
  7 10  2  0
  8 11  2  3
  9 12  2  0
 10 12  1  0
 12 13  1  0
 11 14  1  0
 11 15  1  0
 15 16  1  0
 16 17  1  0
 16 18  2  0
 17 19  2  0
 18 20  1  0
 19 20  1  0
 18 21  1  0
 20 22  1  6
 21 23  2  0
 23 24  1  0
 22 25  2  0
 23 25  1  0
M  END
