mac-x0375-mac-x0139
     RDKit          3D

 24 26  0  0  0  0  0  0  0  0999 V2000
   32.4590   44.1010   -6.6710 N   0  0  0  0  0  0  0  0  0  0  0  0
   32.4040   45.2560   -5.7070 C   0  0  2  0  0  0  0  0  0  0  0  0
   33.2160   46.3720   -6.1070 O   0  0  0  0  0  0  0  0  0  0  0  0
   32.0860   44.4340   -7.8040 O   0  0  0  0  0  0  0  0  0  0  0  0
   32.9060   44.7870   -4.3050 C   0  0  0  0  0  0  0  0  0  0  0  0
   30.8460   45.5560   -5.6070 C   0  0  0  0  0  0  0  0  0  0  0  0
   34.3330   44.5550   -4.2560 O   0  0  0  0  0  0  0  0  0  0  0  0
   30.3830   46.9710   -5.5470 N   0  0  0  0  0  0  0  0  0  0  0  0
   30.3230   47.5630   -4.2080 C   0  0  0  0  0  0  0  0  0  0  0  0
   35.0830   45.6260   -3.8210 C   0  0  0  0  0  0  0  0  0  0  0  0
   29.7080   47.5420   -6.6430 C   0  0  0  0  0  0  0  0  0  0  0  0
   36.4290   45.4300   -3.5090 C   0  0  0  0  0  0  0  0  0  0  0  0
   34.5070   46.8900   -3.6970 C   0  0  0  0  0  0  0  0  0  0  0  0
   29.4500   48.8670   -6.6840 C   0  0  0  0  0  0  0  0  0  0  0  0
   29.3140   46.6990   -7.6980 N   0  0  0  0  0  0  0  0  0  0  0  0
   37.2060   46.5060   -3.0710 C   0  0  0  0  0  0  0  0  0  0  0  0
   35.2900   47.9660   -3.2580 C   0  0  0  0  0  0  0  0  0  0  0  0
   28.7540   49.4140   -7.8690 C   0  0  0  0  0  0  0  0  0  0  0  0
   28.7060   47.2310   -8.7170 C   0  0  0  0  0  0  0  0  0  0  0  0
   29.6650   50.0110   -5.8620 C   0  0  0  0  0  0  0  0  0  0  0  0
   36.6350   47.7710   -2.9470 C   0  0  0  0  0  0  0  0  0  0  0  0
   28.4130   48.5480   -8.8530 N   0  0  0  0  0  0  0  0  0  0  0  0
   28.5740   50.7010   -7.7740 N   0  0  0  0  0  0  0  0  0  0  0  0
   29.1360   51.0360   -6.5490 C   0  0  0  0  0  0  0  0  0  0  0  0
  2  1  1  0
  2  3  1  6
  1  4  2  0
  2  5  1  0
  2  6  1  0
  5  7  1  0
  6  8  1  0
  8  9  1  0
  7 10  1  0
  8 11  1  0
 10 12  2  0
 10 13  1  0
 11 14  2  0
 11 15  1  0
 12 16  1  0
 13 17  2  0
 14 18  1  0
 15 19  2  0
 14 20  1  0
 16 21  2  0
 17 21  1  0
 18 22  1  0
 19 22  1  0
 18 23  2  0
 20 24  2  0
 23 24  1  0
M  END
