mac-x0132-mac-x0576
     RDKit          3D

 18 20  0  0  0  0  0  0  0  0999 V2000
   28.6240   52.4890   -7.4170 N   0  0  0  0  0  0  0  0  0  0  0  0
   28.8640   52.7310   -6.0640 C   0  0  0  0  0  0  0  0  0  0  0  0
   28.5170   53.9640   -5.6640 N   0  0  0  0  0  0  0  0  0  0  0  0
   29.4120   51.7750   -5.2150 C   0  0  0  0  0  0  0  0  0  0  0  0
   29.5710   52.2050   -3.9000 C   0  0  0  0  0  0  0  0  0  0  0  0
   28.7230   54.2530   -4.3730 C   0  0  0  0  0  0  0  0  0  0  0  0
   29.8280   50.3520   -5.6160 C   0  0  1  0  0  0  0  0  0  0  0  0
   29.2370   53.4300   -3.4590 N   0  0  0  0  0  0  0  0  0  0  0  0
   30.1300   51.3250   -2.8740 C   0  0  0  0  0  0  0  0  0  0  0  0
   30.8960   49.7610   -4.6410 C   0  0  0  0  0  0  0  0  0  0  0  0
   28.6900   49.3230   -5.5950 C   0  0  0  0  0  0  0  0  0  0  0  0
   30.4140   50.4060   -7.0550 C   0  0  0  0  0  0  0  0  0  0  0  0
   27.6490   49.4550   -4.9420 O   0  0  0  0  0  0  0  0  0  0  0  0
   30.7470   50.1860   -3.2090 C   0  0  0  0  0  0  0  0  0  0  0  0
   28.8620   48.1930   -6.3500 N   0  0  0  0  0  0  0  0  0  0  0  0
   29.6550   49.5860   -8.0040 N   0  0  0  0  0  0  0  0  0  0  0  0
   29.6180   48.2420   -7.5360 C   0  0  2  0  0  0  0  0  0  0  0  0
   28.8670   47.5020   -8.4870 N   0  0  0  0  0  0  0  0  0  0  0  0
  1  2  1  0
  2  3  2  0
  2  4  1  0
  4  5  2  0
  3  6  1  0
  4  7  1  0
  5  8  1  0
  6  8  2  0
  5  9  1  0
  7 10  1  1
  7 11  1  0
  7 12  1  0
 11 13  2  0
  9 14  2  0
 10 14  1  0
 11 15  1  0
 12 16  1  0
 15 17  1  0
 16 17  1  0
 17 18  1  6
M  END
