mac-x0337-mac-x0282
     RDKit          3D

 20 22  0  0  0  0  0  0  0  0999 V2000
   34.9780   51.5350   -6.5480 C   0  0  0  0  0  0  0  0  0  0  0  0
   33.6860   51.3010   -5.8250 C   0  0  0  0  0  0  0  0  0  0  0  0
   32.8020   52.3650   -5.5950 C   0  0  0  0  0  0  0  0  0  0  0  0
   33.3490   50.0180   -5.3710 C   0  0  0  0  0  0  0  0  0  0  0  0
   32.1460   49.7990   -4.6940 C   0  0  0  0  0  0  0  0  0  0  0  0
   31.6000   52.1550   -4.9200 C   0  0  0  0  0  0  0  0  0  0  0  0
   31.2800   50.8710   -4.4740 C   0  0  0  0  0  0  0  0  0  0  0  0
   29.7520   50.6240   -3.6240 S   0  0  2  0  0  0  0  0  0  0  0  0
   29.8870   49.4910   -2.7350 O   0  0  0  0  0  0  0  0  0  0  0  0
   28.5890   50.9400   -4.5650 N   0  0  0  0  0  0  0  0  0  0  0  0
   29.5400   51.8740   -2.5140 N   0  0  0  0  0  0  0  0  0  0  0  0
   28.6870   50.6270   -5.9820 C   0  0  0  0  0  0  0  0  0  0  0  0
   28.2010   51.4390   -6.9790 C   0  0  0  0  0  0  0  0  0  0  0  0
   29.2720   49.4780   -6.5670 C   0  0  0  0  0  0  0  0  0  0  0  0
   29.1180   49.6330   -7.9440 C   0  0  0  0  0  0  0  0  0  0  0  0
   28.4700   50.8220   -8.1710 N   0  0  0  0  0  0  0  0  0  0  0  0
   29.9200   48.3120   -6.1200 C   0  0  0  0  0  0  0  0  0  0  0  0
   30.3560   47.4050   -7.0870 C   0  0  0  0  0  0  0  0  0  0  0  0
   29.5170   48.7920   -8.9150 N   0  0  0  0  0  0  0  0  0  0  0  0
   30.1340   47.6880   -8.4280 C   0  0  0  0  0  0  0  0  0  0  0  0
  1  2  1  0
  2  3  2  0
  2  4  1  0
  4  5  2  0
  3  6  1  0
  5  7  1  0
  6  7  2  0
  7  8  1  0
  8  9  2  0
  8 10  2  0
  8 11  1  1
 10 12  1  0
 12 13  2  0
 12 14  1  0
 14 15  2  0
 13 16  1  0
 15 16  1  0
 14 17  1  0
 17 18  2  0
 15 19  1  0
 18 20  1  0
 19 20  2  0
M  END
