mac-x0365-mac-x0358
     RDKit          3D

 22 23  0  0  0  0  0  0  0  0999 V2000
   29.4250   48.0990   -3.3050 O   0  0  0  0  0  0  0  0  0  0  0  0
   30.3720   48.9830   -3.6630 C   0  0  0  0  0  0  0  0  0  0  0  0
   31.6040   48.6200   -3.5450 N   0  0  0  0  0  0  0  0  0  0  0  0
   29.7570   50.2340   -4.1340 C   0  0  0  0  0  0  0  0  0  0  0  0
   29.6700   51.3410   -3.2840 C   0  0  0  0  0  0  0  0  0  0  0  0
   29.2600   50.3090   -5.4450 C   0  0  0  0  0  0  0  0  0  0  0  0
   31.9480   47.3490   -3.0560 C   0  0  0  0  0  0  0  0  0  0  0  0
   29.0860   52.5090   -3.7570 C   0  0  0  0  0  0  0  0  0  0  0  0
   28.6740   51.4910   -5.9080 C   0  0  0  0  0  0  0  0  0  0  0  0
   32.7090   46.4580   -3.8430 C   0  0  0  0  0  0  0  0  0  0  0  0
   31.5300   46.9670   -1.7710 C   0  0  0  0  0  0  0  0  0  0  0  0
   28.9950   53.5800   -2.9550 F   0  0  0  0  0  0  0  0  0  0  0  0
   33.1670   46.8590   -5.2350 C   0  0  0  0  0  0  0  0  0  0  0  0
   28.5920   52.5860   -5.0580 C   0  0  0  0  0  0  0  0  0  0  0  0
   33.0240   45.2020   -3.2940 C   0  0  0  0  0  0  0  0  0  0  0  0
   31.8560   45.7150   -1.2530 C   0  0  0  0  0  0  0  0  0  0  0  0
   28.0180   53.7340   -5.5230 O   0  0  0  0  0  0  0  0  0  0  0  0
   33.3630   45.7080   -6.1900 C   0  0  0  0  0  0  0  0  0  0  0  0
   33.7580   44.2770   -3.9840 O   0  0  0  0  0  0  0  0  0  0  0  0
   32.6060   44.8310   -2.0180 C   0  0  0  0  0  0  0  0  0  0  0  0
   32.4600   45.6810   -7.1920 O   0  0  0  0  0  0  0  0  0  0  0  0
   34.2360   44.8520   -6.1260 O   0  0  0  0  0  0  0  0  0  0  0  0
  1  2  1  0
  2  3  2  3
  2  4  1  0
  4  5  2  0
  4  6  1  0
  3  7  1  0
  5  8  1  0
  6  9  2  0
  7 10  2  0
  7 11  1  0
  8 12  1  0
 10 13  1  0
  8 14  2  0
  9 14  1  0
 10 15  1  0
 11 16  2  0
 14 17  1  0
 13 18  1  0
 15 19  1  0
 15 20  2  0
 16 20  1  0
 18 21  1  0
 18 22  2  0
M  END
