mac-x0179-mac-x0375
     RDKit          3D

 17 18  0  0  0  0  0  0  0  0999 V2000
   31.6570   45.4490   -5.4970 O   0  0  0  0  0  0  0  0  0  0  0  0
   32.7040   45.9740   -4.8390 C   0  0  0  0  0  0  0  0  0  0  0  0
   33.5310   46.7120   -5.3540 O   0  0  0  0  0  0  0  0  0  0  0  0
   32.1210   44.6480   -6.5790 C   0  0  0  0  0  0  0  0  0  0  0  0
   32.7820   45.5260   -3.4140 C   0  0  0  0  0  0  0  0  0  0  0  0
   34.2370   45.5870   -3.0270 C   0  0  0  0  0  0  0  0  0  0  0  0
   34.9330   45.1960   -4.2020 O   0  0  0  0  0  0  0  0  0  0  0  0
   34.7220   44.6980   -1.8920 C   0  0  0  0  0  0  0  0  0  0  0  0
   34.6870   46.9560   -2.5200 C   0  0  0  0  0  0  0  0  0  0  0  0
   34.2570   43.6580   -1.4690 O   0  0  0  0  0  0  0  0  0  0  0  0
   34.1670   48.0450   -2.6830 O   0  0  0  0  0  0  0  0  0  0  0  0
   35.9360   45.3680   -1.3910 C   0  0  0  0  0  0  0  0  0  0  0  0
   35.9080   46.7080   -1.7680 C   0  0  0  0  0  0  0  0  0  0  0  0
   36.9890   44.8470   -0.6650 C   0  0  0  0  0  0  0  0  0  0  0  0
   36.9210   47.5890   -1.4390 C   0  0  0  0  0  0  0  0  0  0  0  0
   38.0280   45.7210   -0.3240 C   0  0  0  0  0  0  0  0  0  0  0  0
   37.9960   47.0810   -0.7050 C   0  0  0  0  0  0  0  0  0  0  0  0
  1  2  1  0
  2  3  2  0
  1  4  1  0
  2  5  1  0
  5  6  1  0
  6  7  1  0
  6  8  1  0
  6  9  1  0
  8 10  2  0
  9 11  2  0
  8 12  1  0
  9 13  1  0
 12 13  2  0
 12 14  1  0
 13 15  1  0
 14 16  2  0
 15 17  2  0
 16 17  1  0
M  END
