mac-x0337-mac-x0439
     RDKit          3D

 26 28  0  0  0  0  0  0  0  0999 V2000
   35.5380   52.1680   -5.4040 C   0  0  0  0  0  0  0  0  0  0  0  0
   34.0910   51.7680   -5.3440 C   0  0  0  0  0  0  0  0  0  0  0  0
   33.0810   52.7310   -5.4740 C   0  0  0  0  0  0  0  0  0  0  0  0
   33.7420   50.4220   -5.1560 C   0  0  0  0  0  0  0  0  0  0  0  0
   32.3960   50.0430   -5.0990 C   0  0  0  0  0  0  0  0  0  0  0  0
   31.7380   52.3560   -5.4180 C   0  0  0  0  0  0  0  0  0  0  0  0
   31.4020   51.0140   -5.2300 C   0  0  0  0  0  0  0  0  0  0  0  0
   29.7000   50.5560   -5.1600 S   0  0  2  0  0  0  0  0  0  0  0  0
   29.3390   50.1940   -3.7270 N   0  0  0  0  0  0  0  0  0  0  0  0
   29.3290   49.8380   -6.3550 O   0  0  0  0  0  0  0  0  0  0  0  0
   28.7700   51.9430   -5.2770 N   0  0  0  0  0  0  0  0  0  0  0  0
   29.0950   48.7940   -3.3840 C   0  0  0  0  0  0  0  0  0  0  0  0
   29.7180   48.5170   -2.0200 C   0  0  0  0  0  0  0  0  0  0  0  0
   30.6120   47.2800   -2.0410 C   0  0  0  0  0  0  0  0  0  0  0  0
   29.8020   46.0100   -2.1340 C   0  0  0  0  0  0  0  0  0  0  0  0
   30.2920   44.8600   -2.9690 C   0  0  2  0  0  0  0  0  0  0  0  0
   28.6320   45.8550   -1.4760 C   0  0  0  0  0  0  0  0  0  0  0  0
   30.9680   45.0340   -4.2870 C   0  0  0  0  0  0  0  0  0  0  0  0
   29.0890   44.1060   -3.5110 C   0  0  0  0  0  0  0  0  0  0  0  0
   27.8610   44.6230   -1.5650 C   0  0  0  0  0  0  0  0  0  0  0  0
   30.2440   44.4320   -5.2460 C   0  0  0  0  0  0  0  0  0  0  0  0
   29.0760   43.8560   -4.7840 N   0  0  0  0  0  0  0  0  0  0  0  0
   28.0440   43.7250   -2.5500 C   0  0  0  0  0  0  0  0  0  0  0  0
   30.6860   44.4090   -6.6650 C   0  0  0  0  0  0  0  0  0  0  0  0
   30.4460   43.2270   -7.2620 O   0  0  0  0  0  0  0  0  0  0  0  0
   31.2190   45.3230   -7.2730 O   0  0  0  0  0  0  0  0  0  0  0  0
  1  2  1  0
  2  3  2  0
  2  4  1  0
  4  5  2  0
  3  6  1  0
  5  7  1  0
  6  7  2  0
  7  8  1  0
  8  9  2  0
  8 10  2  0
  8 11  1  6
  9 12  1  0
 12 13  1  0
 13 14  1  0
 14 15  1  0
 15 16  1  0
 15 17  2  0
 16 18  1  6
 16 19  1  0
 17 20  1  0
 18 21  2  0
 19 22  2  0
 21 22  1  0
 19 23  1  0
 20 23  2  0
 21 24  1  0
 24 25  1  0
 24 26  2  0
M  END
