mac-x0380-mac-x0190
     RDKit          3D

 15 16  0  0  0  0  0  0  0  0999 V2000
   29.5250   48.2230   -4.6830 O   0  0  0  0  0  0  0  0  0  0  0  0
   29.3740   49.2990   -3.8820 C   0  0  0  0  0  0  0  0  0  0  0  0
   29.5610   49.2760   -2.6780 O   0  0  0  0  0  0  0  0  0  0  0  0
   28.9580   50.5160   -4.6190 C   0  0  0  0  0  0  0  0  0  0  0  0
   28.9200   51.7390   -3.9350 C   0  0  0  0  0  0  0  0  0  0  0  0
   28.6090   50.4590   -5.9710 C   0  0  0  0  0  0  0  0  0  0  0  0
   28.5310   52.9080   -4.6030 C   0  0  0  0  0  0  0  0  0  0  0  0
   28.2200   51.6250   -6.6390 C   0  0  0  0  0  0  0  0  0  0  0  0
   28.1820   52.8490   -5.9580 C   0  0  0  0  0  0  0  0  0  0  0  0
   28.4980   54.4350   -3.6930 S   0  0  0  0  0  0  0  0  0  0  0  0
   27.7890   53.9910   -6.6710 N   0  0  0  0  0  0  0  0  0  0  0  0
   28.8020   55.6040   -5.0530 C   0  0  1  0  0  0  0  0  0  0  0  0
   30.2900   55.6500   -5.3890 C   0  0  0  0  0  0  0  0  0  0  0  0
   27.9920   55.2910   -6.3000 C   0  0  0  0  0  0  0  0  0  0  0  0
   27.5110   56.1920   -6.9940 O   0  0  0  0  0  0  0  0  0  0  0  0
  1  2  1  0
  2  3  2  0
  2  4  1  0
  4  5  2  0
  4  6  1  0
  5  7  1  0
  6  8  2  0
  7  9  2  0
  8  9  1  0
  7 10  1  0
  9 11  1  0
 10 12  1  0
 12 13  1  6
 11 14  1  0
 12 14  1  0
 14 15  2  0
M  END
