mac-x0148-mac-x0182
     RDKit          3D

 30 35  0  0  0  0  0  0  0  0999 V2000
   34.5170   43.3260   -2.8620 O   0  0  0  0  0  0  0  0  0  0  0  0
   34.7520   44.3920   -3.4120 C   0  0  0  0  0  0  0  0  0  0  0  0
   34.0990   44.8790   -4.5180 N   0  0  0  0  0  0  0  0  0  0  0  0
   35.7960   45.3420   -2.9540 C   0  0  0  0  0  0  0  0  0  0  0  0
   34.9870   46.1180   -5.2330 S   0  0  2  0  0  0  0  0  0  0  0  0
   36.0200   46.3670   -3.8660 C   0  0  0  0  0  0  0  0  0  0  0  0
   36.5160   45.2980   -1.7740 C   0  0  0  0  0  0  0  0  0  0  0  0
   34.0720   47.2720   -5.3780 N   0  0  0  0  0  0  0  0  0  0  0  0
   35.7260   45.5030   -6.2830 O   0  0  0  0  0  0  0  0  0  0  0  0
   36.9310   47.3810   -3.6620 C   0  0  0  0  0  0  0  0  0  0  0  0
   37.4550   46.3100   -1.5370 C   0  0  0  0  0  0  0  0  0  0  0  0
   32.8120   47.1930   -4.7260 C   0  0  2  0  0  0  0  0  0  0  0  0
   37.6600   47.3460   -2.4740 C   0  0  0  0  0  0  0  0  0  0  0  0
   32.9570   46.6530   -3.3560 C   0  0  0  0  0  0  0  0  0  0  0  0
   31.6360   46.4920   -5.3760 C   0  0  0  0  0  0  0  0  0  0  0  0
   32.0180   47.5690   -2.6620 C   0  0  2  0  0  0  0  0  0  0  0  0
   30.4460   47.1420   -4.8070 N   0  0  0  0  0  0  0  0  0  0  0  0
   31.5340   47.0080   -1.3690 C   0  0  0  0  0  0  0  0  0  0  0  0
   30.7330   47.8690   -3.5010 C   0  0  1  0  0  0  0  0  0  0  0  0
   29.7640   47.8210   -5.8250 C   0  0  0  0  0  0  0  0  0  0  0  0
   30.3000   47.6670   -1.1660 O   0  0  0  0  0  0  0  0  0  0  0  0
   29.6470   47.6900   -2.4480 C   0  0  0  0  0  0  0  0  0  0  0  0
   29.3940   47.1110   -6.9530 N   0  0  0  0  0  0  0  0  0  0  0  0
   29.4380   49.1250   -5.8400 C   0  0  0  0  0  0  0  0  0  0  0  0
   28.7680   47.6860   -8.0190 C   0  0  0  0  0  0  0  0  0  0  0  0
   28.7420   49.6870   -7.0280 C   0  0  0  0  0  0  0  0  0  0  0  0
   29.5690   50.2640   -4.9860 C   0  0  0  0  0  0  0  0  0  0  0  0
   28.4230   48.9250   -8.1150 N   0  0  0  0  0  0  0  0  0  0  0  0
   28.4940   50.9620   -6.9020 N   0  0  0  0  0  0  0  0  0  0  0  0
   29.0060   51.2830   -5.6550 C   0  0  0  0  0  0  0  0  0  0  0  0
  1  2  2  0
  2  3  1  0
  2  4  1  0
  5  3  1  1
  4  6  2  0
  5  6  1  0
  4  7  1  0
  5  8  2  0
  5  9  2  0
  6 10  1  0
  7 11  2  0
 12  8  1  6
 10 13  2  0
 11 13  1  0
 12 14  1  0
 12 15  1  0
 16 14  1  6
 15 17  1  0
 16 18  1  0
 16 19  1  0
 17 19  1  0
 17 20  1  0
 18 21  1  0
 19 22  1  1
 21 22  1  0
 20 23  1  0
 20 24  2  0
 23 25  1  0
 24 26  1  0
 24 27  1  0
 25 28  2  0
 26 28  1  0
 26 29  2  0
 27 30  2  0
 29 30  1  0
M  END
