mac-x0567-mac-x0439
     RDKit          3D

 25 28  0  0  0  0  0  0  0  0999 V2000
   29.7620   48.1990   -8.6750 N   0  0  0  0  0  0  0  0  0  0  0  0
   29.1490   49.1330   -7.9120 C   0  0  0  0  0  0  0  0  0  0  0  0
   28.1250   49.9110   -8.3920 N   0  0  0  0  0  0  0  0  0  0  0  0
   29.3110   49.5510   -6.6180 C   0  0  0  0  0  0  0  0  0  0  0  0
   27.6230   50.7930   -7.5050 N   0  0  0  0  0  0  0  0  0  0  0  0
   28.3420   50.5940   -6.3880 C   0  0  0  0  0  0  0  0  0  0  0  0
   30.2400   49.0580   -5.7030 C   0  0  0  0  0  0  0  0  0  0  0  0
   28.2580   51.2310   -5.1390 C   0  0  0  0  0  0  0  0  0  0  0  0
   30.1460   49.7090   -4.4460 C   0  0  0  0  0  0  0  0  0  0  0  0
   29.1880   50.7520   -4.1880 C   0  0  0  0  0  0  0  0  0  0  0  0
   31.0980   49.2800   -3.3470 C   0  0  0  0  0  0  0  0  0  0  0  0
   31.3830   47.7730   -3.2760 C   0  0  0  0  0  0  0  0  0  0  0  0
   30.9250   47.0620   -1.9970 C   0  0  0  0  0  0  0  0  0  0  0  0
   29.8550   46.0100   -2.1540 C   0  0  0  0  0  0  0  0  0  0  0  0
   30.1910   44.6380   -2.6790 C   0  0  2  0  0  0  0  0  0  0  0  0
   28.5620   46.2570   -1.8290 C   0  0  0  0  0  0  0  0  0  0  0  0
   31.1660   44.4330   -3.7830 C   0  0  0  0  0  0  0  0  0  0  0  0
   28.9810   44.1410   -3.4580 C   0  0  0  0  0  0  0  0  0  0  0  0
   27.5250   45.2430   -1.9790 C   0  0  0  0  0  0  0  0  0  0  0  0
   30.5450   43.9210   -4.8570 C   0  0  0  0  0  0  0  0  0  0  0  0
   29.1880   43.7330   -4.6710 N   0  0  0  0  0  0  0  0  0  0  0  0
   27.6830   44.1750   -2.7730 C   0  0  0  0  0  0  0  0  0  0  0  0
   31.2190   43.5810   -6.1390 C   0  0  0  0  0  0  0  0  0  0  0  0
   30.3520   43.2590   -7.1200 O   0  0  0  0  0  0  0  0  0  0  0  0
   32.4200   43.5760   -6.3550 O   0  0  0  0  0  0  0  0  0  0  0  0
  1  2  1  0
  2  3  1  0
  2  4  2  0
  3  5  1  0
  4  6  1  0
  5  6  2  0
  4  7  1  0
  6  8  1  0
  7  9  2  0
  8 10  2  0
  9 10  1  0
  9 11  1  0
 11 12  1  0
 12 13  1  0
 13 14  1  0
 14 15  1  0
 14 16  2  0
 15 17  1  6
 15 18  1  0
 16 19  1  0
 17 20  2  0
 18 21  2  0
 20 21  1  0
 18 22  1  0
 19 22  2  0
 20 23  1  0
 23 24  1  0
 23 25  2  0
M  END
