mac-x0411-mac-x0402
     RDKit          3D

 25 27  0  0  0  0  0  0  0  0999 V2000
   37.5000   44.1780   -3.3380 Cl  0  0  0  0  0  0  0  0  0  0  0  0
   36.5810   45.6390   -3.2340 C   0  0  0  0  0  0  0  0  0  0  0  0
   35.1910   45.6330   -3.4350 C   0  0  0  0  0  0  0  0  0  0  0  0
   37.2520   46.8240   -2.9460 C   0  0  0  0  0  0  0  0  0  0  0  0
   34.5790   44.4270   -3.7170 O   0  0  0  0  0  0  0  0  0  0  0  0
   34.4570   46.8400   -3.3420 C   0  0  0  0  0  0  0  0  0  0  0  0
   36.5420   48.0200   -2.8540 C   0  0  0  0  0  0  0  0  0  0  0  0
   32.9560   46.8560   -3.5550 C   0  0  0  0  0  0  0  0  0  0  0  0
   33.2690   44.4820   -4.2990 C   0  0  0  0  0  0  0  0  0  0  0  0
   35.1560   48.0280   -3.0490 C   0  0  0  0  0  0  0  0  0  0  0  0
   33.3490   45.0020   -5.7240 C   0  0  0  0  0  0  0  0  0  0  0  0
   32.1660   48.1060   -3.1800 C   0  0  0  0  0  0  0  0  0  0  0  0
   32.1480   45.0630   -6.3390 O   0  0  0  0  0  0  0  0  0  0  0  0
   34.3630   45.3450   -6.3110 O   0  0  0  0  0  0  0  0  0  0  0  0
   30.7420   48.1080   -3.7640 C   0  0  0  0  0  0  0  0  0  0  0  0
   30.2500   49.4660   -4.2000 C   0  0  0  0  0  0  0  0  0  0  0  0
   30.1420   50.4950   -3.2680 C   0  0  0  0  0  0  0  0  0  0  0  0
   29.9030   49.7020   -5.5460 C   0  0  0  0  0  0  0  0  0  0  0  0
   29.4580   50.9880   -5.9120 C   0  0  0  0  0  0  0  0  0  0  0  0
   29.7000   51.7620   -3.6420 C   0  0  0  0  0  0  0  0  0  0  0  0
   29.3540   52.0190   -4.9770 C   0  0  0  0  0  0  0  0  0  0  0  0
   28.9700   51.5960   -7.4470 S   0  0  0  0  0  0  0  0  0  0  0  0
   28.6750   53.1370   -6.7530 C   0  0  0  0  0  0  0  0  0  0  0  0
   28.9070   53.2340   -5.4710 N   0  0  0  0  0  0  0  0  0  0  0  0
   28.2320   54.1700   -7.4910 N   0  0  0  0  0  0  0  0  0  0  0  0
  1  2  1  0
  2  3  2  0
  2  4  1  0
  3  5  1  0
  3  6  1  0
  4  7  2  0
  6  8  1  0
  5  9  1  0
  6 10  2  0
  7 10  1  0
  9 11  1  0
  8 12  1  0
 11 13  1  0
 11 14  2  0
 12 15  1  0
 15 16  1  0
 16 17  2  0
 16 18  1  0
 18 19  2  0
 17 20  1  0
 19 21  1  0
 20 21  2  0
 19 22  1  0
 22 23  1  0
 21 24  1  0
 23 24  2  0
 23 25  1  0
M  END
