mac-x0345-mac-x0271
     RDKit          3D

 14 15  0  0  0  0  0  0  0  0999 V2000
   31.1330   54.0960   -5.1910 C   0  0  0  0  0  0  0  0  0  0  0  0
   29.9020   53.4300   -4.5450 C   0  0  2  0  0  0  0  0  0  0  0  0
   30.4530   52.4110   -3.6170 N   0  0  0  0  0  0  0  0  0  0  0  0
   28.8730   52.8590   -5.5980 C   0  0  1  0  0  0  0  0  0  0  0  0
   29.2880   54.5170   -3.7880 O   0  0  0  0  0  0  0  0  0  0  0  0
   29.7510   52.0510   -7.1630 Br  0  0  0  0  0  0  0  0  0  0  0  0
   28.0360   51.7470   -5.0200 C   0  0  0  0  0  0  0  0  0  0  0  0
   29.7780   51.3400   -3.3800 C   0  0  0  0  0  0  0  0  0  0  0  0
   28.0050   53.9560   -6.1680 C   0  0  0  0  0  0  0  0  0  0  0  0
   28.7300   55.5480   -4.4420 C   0  0  0  0  0  0  0  0  0  0  0  0
   30.3420   50.4560   -2.5130 N   0  0  0  0  0  0  0  0  0  0  0  0
   28.8530   56.7160   -4.0970 O   0  0  0  0  0  0  0  0  0  0  0  0
   28.4550   51.0240   -3.9730 C   0  0  0  0  0  0  0  0  0  0  0  0
   27.9480   55.1850   -5.6320 C   0  0  0  0  0  0  0  0  0  0  0  0
  2  1  1  6
  2  3  1  0
  2  4  1  0
  2  5  1  0
  4  6  1  6
  4  7  1  0
  3  8  2  0
  4  9  1  0
  5 10  1  0
  8 11  1  0
 10 12  2  0
  7 13  2  0
  8 13  1  0
  9 14  2  0
 10 14  1  0
M  END
