mac-x0398-mac-x0412
     RDKit          3D

 16 17  0  0  0  0  0  0  0  0999 V2000
   30.4490   53.8870   -8.7080 N   0  0  0  0  0  0  0  0  0  0  0  0
   30.4460   53.3850   -7.3300 C   0  0  0  0  0  0  0  0  0  0  0  0
   29.1630   52.5890   -6.9890 C   0  0  1  0  0  0  0  0  0  0  0  0
   29.2830   51.8130   -5.6580 C   0  0  2  0  0  0  0  0  0  0  0  0
   27.9130   53.4560   -6.9720 C   0  0  0  0  0  0  0  0  0  0  0  0
   28.9800   52.7080   -4.4680 C   0  0  2  0  0  0  0  0  0  0  0  0
   30.6280   51.2070   -5.2300 C   0  0  0  0  0  0  0  0  0  0  0  0
   27.2450   53.7210   -5.8320 C   0  0  0  0  0  0  0  0  0  0  0  0
   29.8440   53.8150   -4.3920 O   0  0  0  0  0  0  0  0  0  0  0  0
   29.1820   51.7220   -3.2930 C   0  0  1  0  0  0  0  0  0  0  0  0
   30.4330   50.9270   -3.7210 C   0  0  1  0  0  0  0  0  0  0  0  0
   27.6360   53.2390   -4.6030 N   0  0  0  0  0  0  0  0  0  0  0  0
   30.2020   49.4550   -3.4800 C   0  0  0  0  0  0  0  0  0  0  0  0
   29.4220   52.3940   -2.0440 O   0  0  0  0  0  0  0  0  0  0  0  0
   29.7430   48.9520   -2.4660 O   0  0  0  0  0  0  0  0  0  0  0  0
   30.5630   48.6820   -4.5210 O   0  0  0  0  0  0  0  0  0  0  0  0
  1  2  1  0
  3  2  1  1
  3  4  1  0
  3  5  1  0
  4  6  1  0
  4  7  1  1
  5  8  2  0
  6  9  1  1
  6 10  1  0
  7 11  1  0
 10 11  1  0
  6 12  1  0
  8 12  1  0
 11 13  1  6
 10 14  1  1
 13 15  2  0
 13 16  1  0
M  END
