mac-x0345-mac-x0572
     RDKit          3D

 13 14  0  0  0  0  0  0  0  0999 V2000
   30.2450   51.2510   -2.1870 N   0  0  0  0  0  0  0  0  0  0  0  0
   29.2800   51.3790   -3.2460 C   0  0  2  0  0  0  0  0  0  0  0  0
   29.7740   50.7510   -4.5230 C   0  0  0  0  0  0  0  0  0  0  0  0
   28.9200   52.7920   -3.2750 N   0  0  0  0  0  0  0  0  0  0  0  0
   29.2090   53.4130   -4.5600 C   0  0  1  0  0  0  0  0  0  0  0  0
   29.5880   51.2990   -5.7400 C   0  0  0  0  0  0  0  0  0  0  0  0
   30.6020   53.7310   -4.4880 O   0  0  0  0  0  0  0  0  0  0  0  0
   28.8530   52.5910   -5.8250 C   0  0  1  0  0  0  0  0  0  0  0  0
   28.5130   54.7160   -4.9580 C   0  0  0  0  0  0  0  0  0  0  0  0
   26.9540   52.1790   -5.9820 Br  0  0  0  0  0  0  0  0  0  0  0  0
   28.9180   54.8220   -6.4510 C   0  0  2  0  0  0  0  0  0  0  0  0
   29.2500   53.4560   -6.9320 N   0  0  0  0  0  0  0  0  0  0  0  0
   30.0900   55.7620   -6.6710 C   0  0  0  0  0  0  0  0  0  0  0  0
  2  1  1  1
  2  3  1  0
  2  4  1  0
  4  5  1  0
  3  6  2  0
  5  7  1  1
  5  8  1  0
  6  8  1  0
  5  9  1  0
  8 10  1  6
  9 11  1  0
  8 12  1  0
 11 12  1  0
 11 13  1  1
M  END
