mac-x0453
     RDKit          3D

  8  8  0  0  0  0  0  0  0  0999 V2000
   29.5210   54.8140   -6.9140 N   0  0  0  0  0  0  0  0  0  0  0  0
   29.9810   53.5900   -6.2840 C   0  0  0  0  0  0  0  0  0  0  0  0
   28.8240   52.6350   -6.0080 C   0  0  0  0  0  0  0  0  0  0  0  0
   29.3030   51.3440   -5.3000 C   0  0  0  0  0  0  0  0  0  0  0  0
   29.5490   50.1360   -5.8950 C   0  0  0  0  0  0  0  0  0  0  0  0
   29.9560   49.3040   -4.9660 N   0  0  0  0  0  0  0  0  0  0  0  0
   29.9980   49.9520   -3.8180 C   0  0  0  0  0  0  0  0  0  0  0  0
   29.5870   51.1980   -4.0210 N   0  0  0  0  0  0  0  0  0  0  0  0
  1  2  1  0
  2  3  1  0
  3  4  1  0
  4  5  2  0
  5  6  1  0
  6  7  1  0
  4  8  1  0
  7  8  2  0
M  END
