mac-x0415-mac-x0277
     RDKit          3D

 15 16  0  0  0  0  0  0  0  0999 V2000
   33.7080   46.5540   -5.8860 O   0  0  0  0  0  0  0  0  0  0  0  0
   32.5570   45.8560   -5.7660 C   0  0  0  0  0  0  0  0  0  0  0  0
   31.6710   45.9180   -6.6100 O   0  0  0  0  0  0  0  0  0  0  0  0
   32.4660   45.0030   -4.5120 C   0  0  0  0  0  0  0  0  0  0  0  0
   31.0980   45.0840   -3.9570 C   0  0  0  0  0  0  0  0  0  0  0  0
   30.0540   44.0550   -4.1050 C   0  0  0  0  0  0  0  0  0  0  0  0
   30.4650   45.9870   -3.2120 C   0  0  0  0  0  0  0  0  0  0  0  0
   28.8910   44.2710   -3.5450 N   0  0  0  0  0  0  0  0  0  0  0  0
   29.0270   45.6280   -2.9730 C   0  0  1  0  0  0  0  0  0  0  0  0
   30.9440   47.2240   -2.6470 C   0  0  0  0  0  0  0  0  0  0  0  0
   28.6100   45.9650   -1.5690 C   0  0  0  0  0  0  0  0  0  0  0  0
   30.3470   47.6730   -1.5170 C   0  0  0  0  0  0  0  0  0  0  0  0
   30.8740   49.2510   -0.6770 Br  0  0  0  0  0  0  0  0  0  0  0  0
   27.3070   45.1370   -0.8340 Cl  0  0  0  0  0  0  0  0  0  0  0  0
   29.2490   46.9360   -0.8990 C   0  0  0  0  0  0  0  0  0  0  0  0
  1  2  1  0
  2  3  2  0
  2  4  1  0
  4  5  1  0
  5  6  1  0
  5  7  2  0
  6  8  2  0
  7  9  1  0
  9  8  1  1
  7 10  1  0
  9 11  1  0
 10 12  2  0
 12 13  1  0
 11 14  1  0
 11 15  2  0
 12 15  1  0
M  END
