mac-x0319-mac-x0398
     RDKit          3D

 22 23  0  0  0  0  0  0  0  0999 V2000
   34.3310   45.8600   -6.6970 O   0  0  0  0  0  0  0  0  0  0  0  0
   33.0670   45.6000   -6.3110 C   0  0  0  0  0  0  0  0  0  0  0  0
   32.1510   45.7260   -7.1060 O   0  0  0  0  0  0  0  0  0  0  0  0
   32.9910   45.1760   -4.8640 C   0  0  0  0  0  0  0  0  0  0  0  0
   31.6390   45.4780   -4.2750 C   0  0  0  0  0  0  0  0  0  0  0  0
   30.8070   44.4440   -3.8300 C   0  0  0  0  0  0  0  0  0  0  0  0
   31.1980   46.8130   -4.1810 C   0  0  0  0  0  0  0  0  0  0  0  0
   29.5540   44.7420   -3.2990 C   0  0  0  0  0  0  0  0  0  0  0  0
   29.9300   47.0790   -3.6490 C   0  0  0  0  0  0  0  0  0  0  0  0
   28.7170   43.7640   -2.8620 O   0  0  0  0  0  0  0  0  0  0  0  0
   29.3820   48.3740   -3.5450 O   0  0  0  0  0  0  0  0  0  0  0  0
   29.1130   46.0510   -3.2050 C   0  0  0  0  0  0  0  0  0  0  0  0
   30.1670   49.4790   -3.3000 C   0  0  0  0  0  0  0  0  0  0  0  0
   31.0610   49.5540   -2.4780 O   0  0  0  0  0  0  0  0  0  0  0  0
   29.7660   50.6430   -4.1620 C   0  0  0  0  0  0  0  0  0  0  0  0
   29.6870   51.9590   -3.6960 C   0  0  0  0  0  0  0  0  0  0  0  0
   29.4510   50.4080   -5.5190 C   0  0  0  0  0  0  0  0  0  0  0  0
   29.9600   52.3390   -2.4090 O   0  0  0  0  0  0  0  0  0  0  0  0
   29.3110   53.0100   -4.5430 C   0  0  0  0  0  0  0  0  0  0  0  0
   29.0740   51.4690   -6.3640 C   0  0  0  0  0  0  0  0  0  0  0  0
   29.0010   52.7790   -5.8840 C   0  0  0  0  0  0  0  0  0  0  0  0
   28.6280   53.8400   -6.7180 N   0  0  0  0  0  0  0  0  0  0  0  0
  1  2  1  0
  2  3  2  0
  2  4  1  0
  4  5  1  0
  5  6  2  0
  5  7  1  0
  6  8  1  0
  7  9  2  0
  8 10  1  0
  9 11  1  0
  8 12  2  0
  9 12  1  0
 11 13  1  0
 13 14  2  0
 13 15  1  0
 15 16  2  0
 15 17  1  0
 16 18  1  0
 16 19  1  0
 17 20  2  0
 19 21  2  0
 20 21  1  0
 21 22  1  0
M  END
