mac-x0346-mac-x0206
     RDKit          3D

 19 21  0  0  0  0  0  0  0  0999 V2000
   27.3520   54.4440   -2.8810 O   0  0  0  0  0  0  0  0  0  0  0  0
   28.4370   53.5900   -2.6220 N   0  0  0  0  0  0  0  0  0  0  0  0
   28.6930   52.7030   -3.6620 C   0  0  0  0  0  0  0  0  0  0  0  0
   29.2440   52.9650   -4.8190 N   0  0  0  0  0  0  0  0  0  0  0  0
   28.3700   51.2440   -3.6340 C   0  0  0  0  0  0  0  0  0  0  0  0
   28.7740   50.6750   -4.8370 C   0  0  0  0  0  0  0  0  0  0  0  0
   27.7700   50.5110   -2.6150 C   0  0  0  0  0  0  0  0  0  0  0  0
   29.8160   53.9340   -5.6620 C   0  0  0  0  0  0  0  0  0  0  0  0
   29.3430   51.6450   -5.6750 N   0  0  0  0  0  0  0  0  0  0  0  0
   28.5880   49.3190   -5.0700 C   0  0  0  0  0  0  0  0  0  0  0  0
   27.5770   49.1380   -2.8420 C   0  0  0  0  0  0  0  0  0  0  0  0
   30.2220   53.3590   -6.8620 C   0  0  0  0  0  0  0  0  0  0  0  0
   29.9980   55.2930   -5.4390 C   0  0  0  0  0  0  0  0  0  0  0  0
   29.9040   51.9020   -6.8210 C   0  0  0  0  0  0  0  0  0  0  0  0
   27.9830   48.5460   -4.0600 C   0  0  0  0  0  0  0  0  0  0  0  0
   30.6010   56.0600   -6.4540 C   0  0  0  0  0  0  0  0  0  0  0  0
   30.8190   54.0860   -7.8860 C   0  0  0  0  0  0  0  0  0  0  0  0
   30.1540   50.9880   -7.8080 N   0  0  0  0  0  0  0  0  0  0  0  0
   31.0070   55.4610   -7.6690 C   0  0  0  0  0  0  0  0  0  0  0  0
  1  2  1  0
  2  3  1  0
  3  4  2  0
  3  5  1  0
  5  6  2  0
  5  7  1  0
  4  8  1  0
  6  9  1  0
  6 10  1  0
  7 11  2  0
  8 12  2  0
  8 13  1  0
  9 14  2  0
 12 14  1  0
 10 15  2  0
 11 15  1  0
 13 16  2  0
 12 17  1  0
 14 18  1  0
 16 19  1  0
 17 19  2  0
M  END
