mac-x0138-mac-x0348
     RDKit          3D

 26 29  0  0  0  0  0  0  0  0999 V2000
   30.5000   47.0350   -4.1740 C   0  0  1  0  0  0  0  0  0  0  0  0
   30.8540   46.0040   -5.2800 C   0  0  0  0  0  0  0  0  0  0  0  0
   32.2900   45.9720   -5.7440 C   0  0  0  0  0  0  0  0  0  0  0  0
   30.1720   48.3650   -4.7180 N   0  0  0  0  0  0  0  0  0  0  0  0
   29.4600   46.5570   -3.1200 C   0  0  1  0  0  0  0  0  0  0  0  0
   30.3590   49.5800   -4.0980 C   0  0  0  0  0  0  0  0  0  0  0  0
   29.6140   48.6340   -5.9500 C   0  0  0  0  0  0  0  0  0  0  0  0
   29.7770   45.2180   -2.4530 C   0  0  0  0  0  0  0  0  0  0  0  0
   29.2180   47.4620   -1.8860 C   0  0  1  0  0  0  0  0  0  0  0  0
   32.6990   45.6910   -6.8570 O   0  0  0  0  0  0  0  0  0  0  0  0
   33.1600   46.3020   -4.7690 O   0  0  0  0  0  0  0  0  0  0  0  0
   29.9620   50.5910   -4.8430 N   0  0  0  0  0  0  0  0  0  0  0  0
   29.4970   50.0130   -5.9990 C   0  0  0  0  0  0  0  0  0  0  0  0
   29.2540   47.7690   -6.9100 N   0  0  0  0  0  0  0  0  0  0  0  0
   28.8050   45.1540   -1.3520 N   0  0  0  0  0  0  0  0  0  0  0  0
   28.4370   46.5200   -0.9140 C   0  0  1  0  0  0  0  0  0  0  0  0
   30.4320   48.1200   -1.2780 C   0  0  0  0  0  0  0  0  0  0  0  0
   27.7200   44.2170   -1.5710 C   0  0  0  0  0  0  0  0  0  0  0  0
   28.9460   50.5540   -7.1680 C   0  0  0  0  0  0  0  0  0  0  0  0
   28.7420   48.3860   -7.9860 C   0  0  0  0  0  0  0  0  0  0  0  0
   30.6430   48.1720    0.0420 C   0  0  0  0  0  0  0  0  0  0  0  0
   28.6930   46.8300    0.5460 C   0  0  0  0  0  0  0  0  0  0  0  0
   28.7660   51.9180   -7.3590 N   0  0  0  0  0  0  0  0  0  0  0  0
   28.3440   47.5780   -9.0330 N   0  0  0  0  0  0  0  0  0  0  0  0
   28.5730   49.7100   -8.1590 N   0  0  0  0  0  0  0  0  0  0  0  0
   29.7100   47.5910    0.9660 C   0  0  0  0  0  0  0  0  0  0  0  0
  1  2  1  6
  2  3  1  0
  1  4  1  0
  1  5  1  0
  4  6  1  0
  4  7  1  0
  5  8  1  1
  5  9  1  0
  3 10  2  0
  3 11  1  0
  6 12  2  0
  7 13  2  0
 12 13  1  0
  7 14  1  0
  8 15  1  0
  9 16  1  0
 15 16  1  0
  9 17  1  1
 15 18  1  0
 13 19  1  0
 14 20  2  0
 17 21  2  0
 16 22  1  1
 19 23  1  0
 20 24  1  0
 19 25  2  0
 20 25  1  0
 21 26  1  0
 22 26  2  0
M  END
