mac-x0148-mac-x0439
     RDKit          3D

 31 36  0  0  0  0  0  0  0  0999 V2000
   32.1740   45.3360   -2.6380 C   0  0  0  0  0  0  0  0  0  0  0  0
   30.6780   45.2720   -2.8430 C   0  0  0  0  0  0  0  0  0  0  0  0
   30.0920   44.9980   -4.2060 C   0  0  1  0  0  0  0  0  0  0  0  0
   32.8700   46.6260   -3.1380 C   0  0  2  0  0  0  0  0  0  0  0  0
   32.2980   47.9600   -2.5990 C   0  0  2  0  0  0  0  0  0  0  0  0
   33.0060   46.5890   -4.6770 C   0  0  0  0  0  0  0  0  0  0  0  0
   29.8110   45.4550   -1.8170 C   0  0  0  0  0  0  0  0  0  0  0  0
   31.5830   47.8480   -1.2550 C   0  0  0  0  0  0  0  0  0  0  0  0
   31.2670   48.6750   -3.4880 C   0  0  2  0  0  0  0  0  0  0  0  0
   32.7090   47.9250   -5.3440 C   0  0  0  0  0  0  0  0  0  0  0  0
   30.7070   44.0140   -5.1370 C   0  0  0  0  0  0  0  0  0  0  0  0
   28.8050   44.2160   -3.9950 C   0  0  0  0  0  0  0  0  0  0  0  0
   28.3700   45.3930   -2.0100 C   0  0  0  0  0  0  0  0  0  0  0  0
   30.1780   48.0020   -1.4750 O   0  0  0  0  0  0  0  0  0  0  0  0
   29.9480   48.2260   -2.8730 C   0  0  0  0  0  0  0  0  0  0  0  0
   31.3790   48.3670   -4.9380 N   0  0  0  0  0  0  0  0  0  0  0  0
   29.8680   42.9850   -5.3390 C   0  0  0  0  0  0  0  0  0  0  0  0
   28.6830   43.0970   -4.6370 N   0  0  0  0  0  0  0  0  0  0  0  0
   27.8150   44.7910   -3.0740 C   0  0  0  0  0  0  0  0  0  0  0  0
   30.1590   41.8220   -6.2210 C   0  0  0  0  0  0  0  0  0  0  0  0
   30.4110   48.7650   -5.8760 C   0  0  0  0  0  0  0  0  0  0  0  0
   29.0970   41.0060   -6.3810 O   0  0  0  0  0  0  0  0  0  0  0  0
   31.2170   41.5690   -6.7720 O   0  0  0  0  0  0  0  0  0  0  0  0
   30.2650   48.0710   -7.0690 N   0  0  0  0  0  0  0  0  0  0  0  0
   29.5640   49.8070   -5.7360 C   0  0  0  0  0  0  0  0  0  0  0  0
   29.3430   48.4060   -8.0190 C   0  0  0  0  0  0  0  0  0  0  0  0
   28.5830   50.1190   -6.8110 C   0  0  0  0  0  0  0  0  0  0  0  0
   29.2870   50.8200   -4.7610 C   0  0  0  0  0  0  0  0  0  0  0  0
   28.5030   49.3820   -7.9570 N   0  0  0  0  0  0  0  0  0  0  0  0
   27.8360   51.1520   -6.5280 N   0  0  0  0  0  0  0  0  0  0  0  0
   28.2870   51.5540   -5.2800 C   0  0  0  0  0  0  0  0  0  0  0  0
  1  2  1  0
  2  3  1  0
  4  1  1  6
  4  5  1  0
  4  6  1  0
  2  7  2  0
  5  8  1  1
  5  9  1  0
  6 10  1  0
  3 11  1  6
  3 12  1  0
  7 13  1  0
  8 14  1  0
  9 15  1  1
 14 15  1  0
  9 16  1  0
 10 16  1  0
 11 17  2  0
 12 18  2  0
 17 18  1  0
 12 19  1  0
 13 19  2  0
 17 20  1  0
 16 21  1  0
 20 22  1  0
 20 23  2  0
 21 24  1  0
 21 25  2  0
 24 26  1  0
 25 27  1  0
 25 28  1  0
 26 29  2  0
 27 29  1  0
 27 30  2  0
 28 31  2  0
 30 31  1  0
M  END
