mac-x0564-mac-x0206
     RDKit          3D

 23 26  0  0  0  0  0  0  0  0999 V2000
   31.0890   46.3040   -6.6930 O   0  0  0  0  0  0  0  0  0  0  0  0
   31.0080   46.4230   -5.4760 C   0  0  0  0  0  0  0  0  0  0  0  0
   31.3940   45.4160   -4.5920 N   0  0  0  0  0  0  0  0  0  0  0  0
   30.5130   47.5960   -4.8010 C   0  0  0  0  0  0  0  0  0  0  0  0
   30.3360   47.7040   -3.4500 C   0  0  0  0  0  0  0  0  0  0  0  0
   31.1950   45.5860   -3.3220 C   0  0  0  0  0  0  0  0  0  0  0  0
   30.1580   48.7530   -5.4210 O   0  0  0  0  0  0  0  0  0  0  0  0
   30.6350   46.6570   -2.6620 N   0  0  0  0  0  0  0  0  0  0  0  0
   29.7450   49.6130   -4.4320 C   0  0  0  0  0  0  0  0  0  0  0  0
   29.8400   48.9950   -3.1800 C   0  0  0  0  0  0  0  0  0  0  0  0
   29.4610   49.7190   -2.0350 C   0  0  0  0  0  0  0  0  0  0  0  0
   29.2900   50.9280   -4.6360 C   0  0  0  0  0  0  0  0  0  0  0  0
   29.0000   51.0300   -2.1960 C   0  0  0  0  0  0  0  0  0  0  0  0
   28.9180   51.6170   -3.4600 C   0  0  0  0  0  0  0  0  0  0  0  0
   29.1870   51.6080   -5.9870 C   0  0  1  0  0  0  0  0  0  0  0  0
   28.1260   50.9910   -6.7960 N   0  0  0  0  0  0  0  0  0  0  0  0
   29.0960   53.1280   -5.8820 C   0  0  0  0  0  0  0  0  0  0  0  0
   30.1750   53.9030   -5.4080 C   0  0  0  0  0  0  0  0  0  0  0  0
   27.9290   53.8220   -6.2520 C   0  0  0  0  0  0  0  0  0  0  0  0
   31.3650   53.3560   -5.0140 O   0  0  0  0  0  0  0  0  0  0  0  0
   30.0920   55.2910   -5.3100 C   0  0  0  0  0  0  0  0  0  0  0  0
   27.8420   55.2130   -6.1550 C   0  0  0  0  0  0  0  0  0  0  0  0
   28.9260   55.9490   -5.6830 C   0  0  0  0  0  0  0  0  0  0  0  0
  1  2  2  0
  2  3  1  0
  2  4  1  0
  4  5  2  0
  3  6  2  0
  4  7  1  0
  5  8  1  0
  6  8  1  0
  7  9  1  0
  5 10  1  0
  9 10  2  0
 10 11  1  0
  9 12  1  0
 11 13  2  0
 12 14  2  0
 13 14  1  0
 12 15  1  0
 15 16  1  1
 15 17  1  0
 17 18  2  0
 17 19  1  0
 18 20  1  0
 18 21  1  0
 19 22  2  0
 21 23  2  0
 22 23  1  0
M  END
