mac-x0436-mac-x0255
     RDKit          3D

 25 28  0  0  0  0  0  0  0  0999 V2000
   33.5270   45.2100   -7.2440 O   0  0  0  0  0  0  0  0  0  0  0  0
   32.3330   45.1900   -6.6270 C   0  0  0  0  0  0  0  0  0  0  0  0
   31.3160   44.9820   -7.2590 O   0  0  0  0  0  0  0  0  0  0  0  0
   32.4170   45.4690   -5.1580 C   0  0  2  0  0  0  0  0  0  0  0  0
   33.4400   44.7480   -4.3560 C   0  0  0  0  0  0  0  0  0  0  0  0
   31.2030   45.4330   -4.3430 C   0  0  0  0  0  0  0  0  0  0  0  0
   34.4770   45.6430   -3.7600 C   0  0  0  0  0  0  0  0  0  0  0  0
   30.1610   44.5510   -4.2060 C   0  0  0  0  0  0  0  0  0  0  0  0
   31.0850   46.7750   -3.3200 S   0  0  0  0  0  0  0  0  0  0  0  0
   34.3000   47.1790   -3.7240 C   0  0  0  0  0  0  0  0  0  0  0  0
   35.5170   45.0450   -3.3220 N   0  0  0  0  0  0  0  0  0  0  0  0
   29.2390   44.9930   -3.2090 C   0  0  0  0  0  0  0  0  0  0  0  0
   29.6430   46.2090   -2.6490 C   0  0  0  0  0  0  0  0  0  0  0  0
   33.2260   47.7330   -3.9180 O   0  0  0  0  0  0  0  0  0  0  0  0
   35.4500   47.8710   -3.4510 N   0  0  0  0  0  0  0  0  0  0  0  0
   36.5550   45.8150   -2.8340 C   0  0  0  0  0  0  0  0  0  0  0  0
   28.0500   44.4150   -2.7300 C   0  0  0  0  0  0  0  0  0  0  0  0
   28.9200   46.8560   -1.6510 C   0  0  0  0  0  0  0  0  0  0  0  0
   36.5470   47.2150   -2.8960 C   0  0  0  0  0  0  0  0  0  0  0  0
   37.6330   45.1460   -2.2850 C   0  0  0  0  0  0  0  0  0  0  0  0
   27.3200   45.0580   -1.7270 C   0  0  0  0  0  0  0  0  0  0  0  0
   27.7540   46.2640   -1.1960 C   0  0  0  0  0  0  0  0  0  0  0  0
   38.7180   45.8630   -1.7940 C   0  0  0  0  0  0  0  0  0  0  0  0
   37.6300   47.9410   -2.4080 C   0  0  0  0  0  0  0  0  0  0  0  0
   38.7140   47.2560   -1.8590 C   0  0  0  0  0  0  0  0  0  0  0  0
  1  2  1  0
  2  3  2  0
  2  4  1  0
  4  5  1  1
  4  6  1  0
  5  7  1  0
  6  8  2  0
  6  9  1  0
  7 10  1  0
  7 11  2  0
  8 12  1  0
  9 13  1  0
 12 13  2  0
 10 14  2  0
 10 15  1  0
 11 16  1  0
 12 17  1  0
 13 18  1  0
 15 19  1  0
 16 19  2  0
 16 20  1  0
 17 21  2  0
 18 22  2  0
 21 22  1  0
 20 23  2  0
 19 24  1  0
 23 25  1  0
 24 25  2  0
M  END
