mac-x0226-mac-x0522
     RDKit          3D

 29 32  0  0  0  0  0  0  0  0999 V2000
   31.7010   45.5670   -6.6080 O   0  0  0  0  0  0  0  0  0  0  0  0
   32.9650   45.9410   -6.2870 C   0  0  0  0  0  0  0  0  0  0  0  0
   33.6000   46.7170   -6.9890 O   0  0  0  0  0  0  0  0  0  0  0  0
   33.5020   45.3660   -5.0690 C   0  0  0  0  0  0  0  0  0  0  0  0
   33.0360   44.2090   -4.4130 C   0  0  0  0  0  0  0  0  0  0  0  0
   34.5540   45.7850   -4.2770 C   0  0  0  0  0  0  0  0  0  0  0  0
   33.7260   43.9200   -3.3110 N   0  0  0  0  0  0  0  0  0  0  0  0
   34.6660   44.8950   -3.2250 N   0  0  0  0  0  0  0  0  0  0  0  0
   35.6100   44.9350   -2.1600 C   0  0  0  0  0  0  0  0  0  0  0  0
   35.4300   45.8770   -1.1380 C   0  0  0  0  0  0  0  0  0  0  0  0
   36.7100   44.0660   -2.1060 C   0  0  0  0  0  0  0  0  0  0  0  0
   36.3340   45.9480   -0.0780 C   0  0  0  0  0  0  0  0  0  0  0  0
   37.6270   44.1400   -1.0370 C   0  0  0  0  0  0  0  0  0  0  0  0
   38.8180   43.2090   -0.9780 C   0  0  0  0  0  0  0  0  0  0  0  0
   37.4240   45.0860   -0.0290 C   0  0  0  0  0  0  0  0  0  0  0  0
   38.5750   41.9450   -0.2940 N   0  0  0  0  0  0  0  0  0  0  0  0
   38.7640   40.7840   -0.8440 C   0  0  0  0  0  0  0  0  0  0  0  0
   39.2090   40.5430   -2.1340 N   0  0  0  0  0  0  0  0  0  0  0  0
   38.4450   39.6440    0.0810 C   0  0  0  0  0  0  0  0  0  0  0  0
   39.7140   41.3730   -3.0830 C   0  0  0  0  0  0  0  0  0  0  0  0
   39.1590   38.4440   -0.0220 C   0  0  0  0  0  0  0  0  0  0  0  0
   37.4400   39.7770    1.0460 C   0  0  0  0  0  0  0  0  0  0  0  0
   40.9770   41.5170   -3.4230 N   0  0  0  0  0  0  0  0  0  0  0  0
   38.6270   42.3790   -3.9840 S   0  0  0  0  0  0  0  0  0  0  0  0
   38.8670   37.3820    0.8380 C   0  0  0  0  0  0  0  0  0  0  0  0
   37.1500   38.7130    1.9030 C   0  0  0  0  0  0  0  0  0  0  0  0
   39.9430   43.0330   -4.8600 C   0  0  0  0  0  0  0  0  0  0  0  0
   41.1120   42.4560   -4.4280 C   0  0  0  0  0  0  0  0  0  0  0  0
   37.8640   37.5180    1.8000 C   0  0  0  0  0  0  0  0  0  0  0  0
  1  2  1  0
  2  3  2  0
  2  4  1  0
  4  5  1  0
  4  6  2  0
  5  7  2  0
  6  8  1  0
  7  8  1  0
  8  9  1  0
  9 10  2  0
  9 11  1  0
 10 12  1  0
 11 13  2  0
 13 14  1  0
 12 15  2  0
 13 15  1  0
 14 16  1  0
 16 17  2  3
 17 18  1  0
 17 19  1  0
 18 20  1  0
 19 21  2  0
 19 22  1  0
 20 23  2  0
 20 24  1  0
 21 25  1  0
 22 26  2  0
 24 27  1  0
 23 28  1  0
 27 28  2  0
 25 29  2  0
 26 29  1  0
M  END
