mac-x0451-mac-x0555
     RDKit          3D

 17 19  0  0  0  0  0  0  0  0999 V2000
   29.8760   53.2800   -9.6870 N   0  0  0  0  0  0  0  0  0  0  0  0
   29.7820   52.4480   -8.6350 C   0  0  0  0  0  0  0  0  0  0  0  0
   29.8670   52.8560   -7.3920 N   0  0  0  0  0  0  0  0  0  0  0  0
   29.5410   50.7610   -8.8400 S   0  0  0  0  0  0  0  0  0  0  0  0
   29.7370   51.7920   -6.5200 C   0  0  0  0  0  0  0  0  0  0  0  0
   29.5520   50.5710   -7.1480 C   0  0  0  0  0  0  0  0  0  0  0  0
   29.7940   51.9600   -5.0010 C   0  0  2  0  0  0  0  0  0  0  0  0
   29.3820   49.2520   -6.4790 C   0  0  0  0  0  0  0  0  0  0  0  0
   30.0860   50.5380   -4.4070 C   0  0  0  0  0  0  0  0  0  0  0  0
   29.1750   49.4430   -4.9750 C   0  0  2  0  0  0  0  0  0  0  0  0
   28.4090   52.4240   -4.4400 C   0  0  0  0  0  0  0  0  0  0  0  0
   30.9910   52.8520   -4.5340 C   0  0  0  0  0  0  0  0  0  0  0  0
   29.4750   48.2710   -4.3460 F   0  0  0  0  0  0  0  0  0  0  0  0
   28.2950   53.8900   -3.9670 C   0  0  2  0  0  0  0  0  0  0  0  0
   30.7170   54.2630   -4.2730 N   0  0  0  0  0  0  0  0  0  0  0  0
   27.8830   54.7440   -5.0930 N   0  0  0  0  0  0  0  0  0  0  0  0
   29.6060   54.3990   -3.3470 C   0  0  0  0  0  0  0  0  0  0  0  0
  1  2  1  0
  2  3  2  0
  2  4  1  0
  3  5  1  0
  4  6  1  0
  5  6  2  0
  5  7  1  0
  6  8  1  0
  7  9  1  1
  8 10  1  0
  9 10  1  0
  7 11  1  0
  7 12  1  0
 10 13  1  1
 11 14  1  0
 12 15  1  0
 14 16  1  6
 14 17  1  0
 15 17  1  0
M  END
