mac-x0131-mac-x0572
     RDKit          3D

 30 34  0  0  0  0  0  0  0  0999 V2000
   30.8690   47.5270   -2.3930 C   0  0  0  0  0  0  0  0  0  0  0  0
   30.3290   47.9510   -3.7170 C   0  0  0  0  0  0  0  0  0  0  0  0
   29.6790   49.1170   -4.0600 C   0  0  0  0  0  0  0  0  0  0  0  0
   30.4150   47.1710   -4.8560 N   0  0  0  0  0  0  0  0  0  0  0  0
   29.3770   50.2370   -3.1240 C   0  0  0  0  0  0  0  0  0  0  0  0
   31.0170   45.8560   -4.9450 C   0  0  0  0  0  0  0  0  0  0  0  0
   29.3660   49.0320   -5.4590 C   0  0  0  0  0  0  0  0  0  0  0  0
   29.8350   47.8260   -5.9220 C   0  0  0  0  0  0  0  0  0  0  0  0
   28.7330   49.8350   -6.3880 C   0  0  0  0  0  0  0  0  0  0  0  0
   29.7360   47.3770   -7.1890 N   0  0  0  0  0  0  0  0  0  0  0  0
   32.4900   45.9440   -4.8860 C   0  0  0  0  0  0  0  0  0  0  0  0
   28.5940   49.4640   -7.6830 N   0  0  0  0  0  0  0  0  0  0  0  0
   29.1080   48.2550   -8.0000 C   0  0  0  0  0  0  0  0  0  0  0  0
   33.5000   45.1070   -5.2990 C   0  0  0  0  0  0  0  0  0  0  0  0
   33.0140   47.0680   -4.3130 O   0  0  0  0  0  0  0  0  0  0  0  0
   28.2260   51.0640   -5.8390 C   0  0  0  0  0  0  0  0  0  0  0  0
   34.3630   46.9400   -4.3670 C   0  0  0  0  0  0  0  0  0  0  0  0
   34.7110   45.7520   -4.9630 C   0  0  0  0  0  0  0  0  0  0  0  0
   28.7840   52.4460   -5.8670 C   0  0  0  0  0  0  0  0  0  0  0  0
   27.1150   50.9540   -5.1010 C   0  0  0  0  0  0  0  0  0  0  0  0
   28.8130   53.0060   -4.4680 C   0  0  1  0  0  0  0  0  0  0  0  0
   29.1540   53.1180   -6.9210 N   0  0  0  0  0  0  0  0  0  0  0  0
   26.5550   52.0850   -4.4070 C   0  0  0  0  0  0  0  0  0  0  0  0
   29.5920   54.4240   -6.7580 C   0  0  0  0  0  0  0  0  0  0  0  0
   29.6150   54.2630   -4.3390 C   0  0  0  0  0  0  0  0  0  0  0  0
   27.3710   53.0990   -4.0720 C   0  0  0  0  0  0  0  0  0  0  0  0
   29.7840   55.1650   -8.0560 C   0  0  0  0  0  0  0  0  0  0  0  0
   30.1050   54.6820   -3.2880 O   0  0  0  0  0  0  0  0  0  0  0  0
   29.8300   55.0340   -5.5790 C   0  0  0  0  0  0  0  0  0  0  0  0
   30.2580   56.3380   -5.4450 O   0  0  0  0  0  0  0  0  0  0  0  0
  1  2  1  0
  2  3  2  0
  2  4  1  0
  3  5  1  0
  4  6  1  0
  3  7  1  0
  4  8  1  0
  7  8  2  0
  7  9  1  0
  8 10  1  0
  6 11  1  0
  9 12  2  0
 10 13  2  0
 12 13  1  0
 11 14  2  0
 11 15  1  0
  9 16  1  0
 15 17  1  0
 14 18  1  0
 17 18  2  0
 16 19  1  0
 16 20  2  0
 19 21  1  0
 19 22  2  0
 20 23  1  0
 22 24  1  0
 21 25  1  0
 21 26  1  6
 23 26  2  0
 24 27  1  0
 25 28  2  0
 24 29  2  0
 25 29  1  0
 29 30  1  0
M  END
