mac-x0284-mac-x0226
     RDKit          3D

 26 28  0  0  0  0  0  0  0  0999 V2000
   28.2260   51.6950   -6.0850 C   0  0  0  0  0  0  0  0  0  0  0  0
   28.7400   50.7450   -5.0420 C   0  0  0  0  0  0  0  0  0  0  0  0
   28.9010   51.1770   -3.7200 C   0  0  0  0  0  0  0  0  0  0  0  0
   29.0650   49.4200   -5.3710 C   0  0  0  0  0  0  0  0  0  0  0  0
   29.5470   48.5250   -4.3990 C   0  0  0  0  0  0  0  0  0  0  0  0
   29.3780   50.3010   -2.7410 C   0  0  0  0  0  0  0  0  0  0  0  0
   29.8700   47.1330   -4.8350 C   0  0  0  0  0  0  0  0  0  0  0  0
   29.6990   48.9850   -3.0810 C   0  0  0  0  0  0  0  0  0  0  0  0
   30.1670   48.1460   -2.1020 O   0  0  0  0  0  0  0  0  0  0  0  0
   30.9050   46.8500   -5.5510 N   0  0  0  0  0  0  0  0  0  0  0  0
   29.0100   46.1750   -4.4320 O   0  0  0  0  0  0  0  0  0  0  0  0
   31.0900   45.4360   -5.8940 C   0  0  0  0  0  0  0  0  0  0  0  0
   32.1690   45.2080   -6.8150 O   0  0  0  0  0  0  0  0  0  0  0  0
   33.3840   45.6750   -6.4150 C   0  0  0  0  0  0  0  0  0  0  0  0
   33.9450   46.6630   -6.8790 O   0  0  0  0  0  0  0  0  0  0  0  0
   33.9670   44.8650   -5.3610 C   0  0  0  0  0  0  0  0  0  0  0  0
   33.8770   43.4800   -5.1310 C   0  0  0  0  0  0  0  0  0  0  0  0
   34.7660   45.3170   -4.3260 C   0  0  0  0  0  0  0  0  0  0  0  0
   34.5550   43.0850   -4.0500 N   0  0  0  0  0  0  0  0  0  0  0  0
   35.1050   44.2250   -3.5530 N   0  0  0  0  0  0  0  0  0  0  0  0
   35.9170   44.2010   -2.3800 C   0  0  0  0  0  0  0  0  0  0  0  0
   36.6640   45.3400   -2.0360 C   0  0  0  0  0  0  0  0  0  0  0  0
   35.9850   43.0630   -1.5640 C   0  0  0  0  0  0  0  0  0  0  0  0
   37.4670   45.3380   -0.8920 C   0  0  0  0  0  0  0  0  0  0  0  0
   36.7920   43.0690   -0.4190 C   0  0  0  0  0  0  0  0  0  0  0  0
   37.5310   44.2050   -0.0860 C   0  0  0  0  0  0  0  0  0  0  0  0
  1  2  1  0
  2  3  2  0
  2  4  1  0
  4  5  2  0
  3  6  1  0
  5  7  1  0
  5  8  1  0
  6  8  2  0
  8  9  1  0
  7 10  2  3
  7 11  1  0
 10 12  1  0
 12 13  1  0
 13 14  1  0
 14 15  2  0
 14 16  1  0
 16 17  1  0
 16 18  2  0
 17 19  2  0
 18 20  1  0
 19 20  1  0
 20 21  1  0
 21 22  2  0
 21 23  1  0
 22 24  1  0
 23 25  2  0
 24 26  2  0
 25 26  1  0
M  END
