MAC-242_0_A_Î±
     RDKit          3D

 11 12  0  0  0  0  0  0  0  0999 V2000
   -3.9510   14.5330    1.9640 N   0  0  0  0  0  0  0  0  0  0  0  0
   -2.6590   14.3140    1.3400 C   0  0  0  0  0  0  0  0  0  0  0  0
   -1.6000   14.0440    2.0750 N   0  0  0  0  0  0  0  0  0  0  0  0
   -0.3950   13.8490    1.5790 C   0  0  0  0  0  0  0  0  0  0  0  0
   -0.2290   13.9010    0.1970 C   0  0  0  0  0  0  0  0  0  0  0  0
   -1.3500   14.1800   -0.6500 C   0  0  0  0  0  0  0  0  0  0  0  0
   -1.2350   14.2500   -2.0680 C   0  0  0  0  0  0  0  0  0  0  0  0
   -2.3610   14.5210   -2.8400 C   0  0  0  0  0  0  0  0  0  0  0  0
   -3.6000   14.7280   -2.2310 C   0  0  0  0  0  0  0  0  0  0  0  0
   -3.7190   14.6640   -0.8540 C   0  0  0  0  0  0  0  0  0  0  0  0
   -2.5700   14.3860   -0.0700 C   0  0  0  0  0  0  0  0  0  0  0  0
  1  2  1  0
  2  3  2  0
  2 11  1  0
  3  4  1  0
 11  6  2  0
 11 10  1  0
  4  5  2  0
  5  6  1  0
  6  7  1  0
  7  8  2  0
  8  9  1  0
  9 10  2  0
M  END
