mac-x0159-mac-x0396
     RDKit          3D

 25 28  0  0  0  0  0  0  0  0999 V2000
   28.3920   50.9010   -5.7250 N   0  0  0  0  0  0  0  0  0  0  0  0
   29.5920   51.5420   -5.4980 C   0  0  0  0  0  0  0  0  0  0  0  0
   30.6850   51.0510   -5.7640 O   0  0  0  0  0  0  0  0  0  0  0  0
   28.2220   49.4680   -5.7970 C   0  0  2  0  0  0  0  0  0  0  0  0
   28.4830   49.0170   -4.4340 N   0  0  0  0  0  0  0  0  0  0  0  0
   29.1280   48.7470   -6.8230 C   0  0  1  0  0  0  0  0  0  0  0  0
   29.5290   52.9010   -4.9010 C   0  0  0  0  0  0  0  0  0  0  0  0
   29.8600   48.5560   -4.1670 C   0  0  0  0  0  0  0  0  0  0  0  0
   29.4070   47.3830   -6.2200 C   0  0  2  0  0  0  0  0  0  0  0  0
   28.5710   48.3490   -8.1270 N   0  0  0  0  0  0  0  0  0  0  0  0
   29.9260   53.1700   -3.5980 C   0  0  0  0  0  0  0  0  0  0  0  0
   29.0550   53.9660   -5.6690 C   0  0  0  0  0  0  0  0  0  0  0  0
   30.2880   47.4660   -5.0600 N   0  0  0  0  0  0  0  0  0  0  0  0
   30.0100   46.6520   -7.3400 N   0  0  0  0  0  0  0  0  0  0  0  0
   29.4470   47.2580   -8.5510 C   0  0  0  0  0  0  0  0  0  0  0  0
   29.8800   54.4050   -3.0300 N   0  0  0  0  0  0  0  0  0  0  0  0
   28.9960   55.2460   -5.1120 C   0  0  0  0  0  0  0  0  0  0  0  0
   30.4420   46.1590   -4.3800 C   0  0  0  0  0  0  0  0  0  0  0  0
   29.4150   55.4110   -3.8030 C   0  0  0  0  0  0  0  0  0  0  0  0
   29.3250   45.8790   -3.4060 C   0  0  0  0  0  0  0  0  0  0  0  0
   28.0250   45.5300   -3.7250 C   0  0  0  0  0  0  0  0  0  0  0  0
   29.5830   45.9630   -2.0410 N   0  0  0  0  0  0  0  0  0  0  0  0
   28.4930   45.6820   -1.3580 C   0  0  0  0  0  0  0  0  0  0  0  0
   27.1060   45.3020   -2.2980 S   0  0  0  0  0  0  0  0  0  0  0  0
   28.4060   45.6790    0.1280 C   0  0  0  0  0  0  0  0  0  0  0  0
  1  2  1  0
  2  3  2  0
  4  1  1  1
  4  5  1  0
  4  6  1  0
  2  7  1  0
  5  8  1  0
  6  9  1  0
  6 10  1  6
  7 11  2  0
  7 12  1  0
  8 13  1  0
  9 13  1  0
  9 14  1  6
 10 15  1  0
 14 15  1  0
 11 16  1  0
 12 17  2  0
 13 18  1  0
 16 19  2  0
 17 19  1  0
 18 20  1  0
 20 21  2  0
 20 22  1  0
 22 23  2  0
 21 24  1  0
 23 24  1  0
 23 25  1  0
M  END
