mac-x0584-mac-x0404
     RDKit          3D

 28 32  0  0  0  0  0  0  0  0999 V2000
   34.4370   46.6070   -5.4850 O   0  0  0  0  0  0  0  0  0  0  0  0
   34.2540   45.3770   -4.9580 C   0  0  0  0  0  0  0  0  0  0  0  0
   35.0070   44.4660   -5.2650 O   0  0  0  0  0  0  0  0  0  0  0  0
   33.0790   45.2750   -3.9930 C   0  0  0  0  0  0  0  0  0  0  0  0
   32.2690   46.4400   -3.9840 O   0  0  0  0  0  0  0  0  0  0  0  0
   30.8420   46.3460   -4.1840 C   0  0  1  0  0  0  0  0  0  0  0  0
   30.5070   45.4330   -5.4030 C   0  0  0  0  0  0  0  0  0  0  0  0
   30.0490   46.1460   -2.8180 C   0  0  2  0  0  0  0  0  0  0  0  0
   30.3930   47.7540   -4.4850 N   0  0  0  0  0  0  0  0  0  0  0  0
   31.2340   45.3890   -6.7910 C   0  0  0  0  0  0  0  0  0  0  0  0
   30.6590   43.8780   -5.3770 C   0  0  0  0  0  0  0  0  0  0  0  0
   30.3850   48.4980   -3.2210 C   0  0  0  0  0  0  0  0  0  0  0  0
   30.4220   47.4590   -2.1100 C   0  0  0  0  0  0  0  0  0  0  0  0
   29.7480   48.2340   -5.6520 C   0  0  0  0  0  0  0  0  0  0  0  0
   30.6120   44.9370   -1.9670 C   0  0  0  0  0  0  0  0  0  0  0  0
   28.5290   46.0900   -2.8990 C   0  0  0  0  0  0  0  0  0  0  0  0
   31.8040   44.0110   -6.3980 C   0  0  0  0  0  0  0  0  0  0  0  0
   29.5100   47.4080   -6.7430 N   0  0  0  0  0  0  0  0  0  0  0  0
   29.3100   49.4960   -5.8330 C   0  0  0  0  0  0  0  0  0  0  0  0
   27.7660   45.3710   -2.0620 C   0  0  0  0  0  0  0  0  0  0  0  0
   29.6600   44.3690   -0.9460 C   0  0  0  0  0  0  0  0  0  0  0  0
   28.8950   47.8150   -7.8860 C   0  0  0  0  0  0  0  0  0  0  0  0
   28.6430   49.8840   -7.1110 C   0  0  0  0  0  0  0  0  0  0  0  0
   29.2800   50.7290   -5.0950 C   0  0  0  0  0  0  0  0  0  0  0  0
   28.3380   44.5830   -1.0080 C   0  0  0  0  0  0  0  0  0  0  0  0
   28.4520   49.0010   -8.1320 N   0  0  0  0  0  0  0  0  0  0  0  0
   28.2760   51.1370   -7.1320 N   0  0  0  0  0  0  0  0  0  0  0  0
   28.6760   51.6190   -5.8990 C   0  0  0  0  0  0  0  0  0  0  0  0
  1  2  1  0
  2  3  2  0
  2  4  1  0
  4  5  1  0
  6  5  1  1
  6  7  1  0
  6  8  1  0
  6  9  1  0
  7 10  1  0
  7 11  1  0
  9 12  1  0
  8 13  1  1
 12 13  1  0
  9 14  1  0
  8 15  1  0
  8 16  1  0
 10 17  1  0
 11 17  1  0
 14 18  1  0
 14 19  2  0
 16 20  2  0
 15 21  1  0
 18 22  1  0
 19 23  1  0
 19 24  1  0
 20 25  1  0
 21 25  2  0
 22 26  2  0
 23 26  1  0
 23 27  2  0
 24 28  2  0
 27 28  1  0
M  END
