mac-x0302-mac-x0360
     RDKit          3D

 25 26  0  0  0  0  0  0  0  0999 V2000
   30.7200   45.3910   -4.4410 O   0  0  0  0  0  0  0  0  0  0  0  0
   30.7650   46.4600   -5.2630 C   0  0  0  0  0  0  0  0  0  0  0  0
   30.4850   46.3310   -6.4460 O   0  0  0  0  0  0  0  0  0  0  0  0
   31.1860   47.7370   -4.5550 C   0  0  0  0  0  0  0  0  0  0  0  0
   30.2340   48.8560   -4.8510 N   0  0  0  0  0  0  0  0  0  0  0  0
   29.7510   49.6230   -3.7610 C   0  0  0  0  0  0  0  0  0  0  0  0
   30.3330   49.5630   -6.3900 S   0  0  0  0  0  0  0  0  0  0  0  0
   29.7460   49.2250   -2.6010 O   0  0  0  0  0  0  0  0  0  0  0  0
   29.0550   50.1620   -6.7010 O   0  0  0  0  0  0  0  0  0  0  0  0
   30.9180   48.6510   -7.3360 O   0  0  0  0  0  0  0  0  0  0  0  0
   29.2420   50.9630   -4.1000 C   0  0  0  0  0  0  0  0  0  0  0  0
   31.4800   50.9230   -6.2000 C   0  0  0  0  0  0  0  0  0  0  0  0
   29.8340   52.0970   -3.5490 C   0  0  0  0  0  0  0  0  0  0  0  0
   28.1660   51.0760   -4.9850 C   0  0  0  0  0  0  0  0  0  0  0  0
   32.7270   50.6960   -5.6160 C   0  0  0  0  0  0  0  0  0  0  0  0
   31.1290   52.2120   -6.6370 C   0  0  0  0  0  0  0  0  0  0  0  0
   29.3360   53.3480   -3.8990 C   0  0  0  0  0  0  0  0  0  0  0  0
   27.6810   52.3350   -5.3280 C   0  0  0  0  0  0  0  0  0  0  0  0
   33.6220   51.7550   -5.4720 C   0  0  0  0  0  0  0  0  0  0  0  0
   32.0420   53.2590   -6.4840 C   0  0  0  0  0  0  0  0  0  0  0  0
   29.9270   54.4460   -3.3470 O   0  0  0  0  0  0  0  0  0  0  0  0
   31.6340   54.8460   -7.0180 Cl  0  0  0  0  0  0  0  0  0  0  0  0
   35.1610   51.4740   -4.7580 Cl  0  0  0  0  0  0  0  0  0  0  0  0
   28.2670   53.4770   -4.7840 C   0  0  0  0  0  0  0  0  0  0  0  0
   33.2870   53.0370   -5.9030 C   0  0  0  0  0  0  0  0  0  0  0  0
  1  2  1  0
  2  3  2  0
  2  4  1  0
  4  5  1  0
  5  6  1  0
  7  5  1  0
  6  8  2  0
  7  9  2  0
  7 10  2  0
  6 11  1  0
  7 12  1  0
 11 13  2  0
 11 14  1  0
 12 15  2  0
 12 16  1  0
 13 17  1  0
 14 18  2  0
 15 19  1  0
 16 20  2  0
 17 21  1  0
 20 22  1  0
 19 23  1  0
 17 24  2  0
 18 24  1  0
 19 25  2  0
 20 25  1  0
M  END
