mac-x0436-mac-x0228
     RDKit          3D

 29 32  0  0  0  0  0  0  0  0999 V2000
   33.6900   44.8490   -7.1610 O   0  0  0  0  0  0  0  0  0  0  0  0
   32.5890   44.5920   -6.4180 C   0  0  0  0  0  0  0  0  0  0  0  0
   31.4630   44.6360   -6.8900 O   0  0  0  0  0  0  0  0  0  0  0  0
   32.8930   44.2500   -4.9780 C   0  0  0  0  0  0  0  0  0  0  0  0
   32.6160   45.4490   -4.0700 C   0  0  0  0  0  0  0  0  0  0  0  0
   33.9130   46.0640   -3.5950 C   0  0  0  0  0  0  0  0  0  0  0  0
   34.0560   47.5900   -3.4130 C   0  0  0  0  0  0  0  0  0  0  0  0
   34.9320   45.2830   -3.3420 N   0  0  0  0  0  0  0  0  0  0  0  0
   33.1770   48.4530   -3.0230 N   0  0  0  0  0  0  0  0  0  0  0  0
   35.3220   48.0530   -3.7040 N   0  0  0  0  0  0  0  0  0  0  0  0
   36.1330   45.9010   -2.9230 C   0  0  0  0  0  0  0  0  0  0  0  0
   31.7970   48.2080   -2.6370 C   0  0  0  0  0  0  0  0  0  0  0  0
   36.3460   47.2870   -3.0990 C   0  0  0  0  0  0  0  0  0  0  0  0
   37.1290   45.1250   -2.3280 C   0  0  0  0  0  0  0  0  0  0  0  0
   30.9790   47.5850   -3.6690 N   0  0  0  0  0  0  0  0  0  0  0  0
   38.3240   45.7140   -1.9110 C   0  0  0  0  0  0  0  0  0  0  0  0
   37.5430   47.8720   -2.6800 C   0  0  0  0  0  0  0  0  0  0  0  0
   30.1480   48.2920   -4.3500 C   0  0  0  0  0  0  0  0  0  0  0  0
   38.5310   47.0830   -2.0860 C   0  0  0  0  0  0  0  0  0  0  0  0
   29.3640   47.7760   -5.3150 O   0  0  0  0  0  0  0  0  0  0  0  0
   29.9500   49.7400   -4.1650 C   0  0  0  0  0  0  0  0  0  0  0  0
   29.9840   50.5640   -5.3010 C   0  0  0  0  0  0  0  0  0  0  0  0
   29.7300   50.2920   -2.8840 C   0  0  0  0  0  0  0  0  0  0  0  0
   29.7940   51.9220   -5.1270 C   0  0  0  0  0  0  0  0  0  0  0  0
   29.5430   51.6670   -2.7320 C   0  0  0  0  0  0  0  0  0  0  0  0
   29.5800   52.4550   -3.8660 C   0  0  0  0  0  0  0  0  0  0  0  0
   29.7780   53.0090   -6.1310 C   0  0  0  0  0  0  0  0  0  0  0  0
   29.4130   53.8140   -3.8660 O   0  0  0  0  0  0  0  0  0  0  0  0
   29.8380   54.2150   -5.1910 C   0  0  0  0  0  0  0  0  0  0  0  0
  1  2  1  0
  2  3  2  0
  2  4  1  0
  4  5  1  0
  5  6  1  0
  6  7  1  0
  6  8  2  0
  7  9  2  3
  7 10  1  0
  8 11  1  0
  9 12  1  0
 10 13  1  0
 11 13  2  0
 11 14  1  0
 12 15  1  0
 14 16  2  0
 13 17  1  0
 15 18  2  3
 16 19  1  0
 17 19  2  0
 18 20  1  0
 18 21  1  0
 21 22  2  0
 21 23  1  0
 22 24  1  0
 23 25  2  0
 24 26  2  0
 25 26  1  0
 24 27  1  0
 26 28  1  0
 27 29  1  0
 28 29  1  0
M  END
