mac-x0178-mac-x0204
     RDKit          3D

 14 14  0  0  0  0  0  0  0  0999 V2000
   28.5360   45.0940   -0.1440 N   0  0  0  0  0  0  0  0  0  0  0  0
   29.0090   46.6640   -0.5340 S   0  0  0  0  0  0  0  0  0  0  0  0
   29.9690   47.0970    0.4540 O   0  0  0  0  0  0  0  0  0  0  0  0
   27.7820   47.3830   -0.7940 O   0  0  0  0  0  0  0  0  0  0  0  0
   29.8560   46.4120   -2.0720 C   0  0  0  0  0  0  0  0  0  0  0  0
   29.3690   45.4610   -2.9730 C   0  0  0  0  0  0  0  0  0  0  0  0
   30.9980   47.1630   -2.3700 C   0  0  0  0  0  0  0  0  0  0  0  0
   30.0330   45.2610   -4.1860 C   0  0  0  0  0  0  0  0  0  0  0  0
   31.6580   46.9550   -3.5860 C   0  0  0  0  0  0  0  0  0  0  0  0
   31.1870   46.0030   -4.5110 C   0  0  0  0  0  0  0  0  0  0  0  0
   31.9140   45.7850   -5.8290 C   0  0  1  0  0  0  0  0  0  0  0  0
   31.1490   46.4430   -6.9410 N   0  0  0  0  0  0  0  0  0  0  0  0
   33.2880   46.1400   -5.6660 O   0  0  0  0  0  0  0  0  0  0  0  0
   30.4590   45.6330   -7.5750 O   0  0  0  0  0  0  0  0  0  0  0  0
  2  1  1  0
  2  3  2  0
  2  4  2  0
  2  5  1  0
  5  6  2  0
  5  7  1  0
  6  8  1  0
  7  9  2  0
  8 10  2  0
  9 10  1  0
 10 11  1  0
 11 12  1  0
 11 13  1  1
 12 14  2  0
M  END
