mac-x0472-mac-x0433
     RDKit          3D

 23 25  0  0  0  0  0  0  0  0999 V2000
   29.9290   50.0750   -3.1080 N   0  0  0  0  0  0  0  0  0  0  0  0
   30.8440   49.2990   -4.1030 S   0  0  1  0  0  0  0  0  0  0  0  0
   31.5000   48.0550   -3.7550 O   0  0  0  0  0  0  0  0  0  0  0  0
   29.0200   51.2540   -3.4510 N   0  0  0  0  0  0  0  0  0  0  0  0
   29.8700   48.8040   -5.3920 N   0  0  0  0  0  0  0  0  0  0  0  0
   32.1710   50.3340   -4.6830 C   0  0  0  0  0  0  0  0  0  0  0  0
   28.7830   51.5830   -4.8720 C   0  0  1  0  0  0  0  0  0  0  0  0
   29.0470   52.4270   -2.5710 C   0  0  0  0  0  0  0  0  0  0  0  0
   27.6920   50.6560   -5.4090 C   0  0  0  0  0  0  0  0  0  0  0  0
   29.6590   49.5000   -6.5400 C   0  0  0  0  0  0  0  0  0  0  0  0
   33.3520   49.7460   -5.1450 C   0  0  0  0  0  0  0  0  0  0  0  0
   32.0190   51.7240   -4.6700 C   0  0  0  0  0  0  0  0  0  0  0  0
   29.8750   53.4770   -3.1570 N   0  0  0  0  0  0  0  0  0  0  0  0
   28.3830   53.0440   -5.1390 C   0  0  0  0  0  0  0  0  0  0  0  0
   28.7220   49.1350   -7.4000 N   0  0  0  0  0  0  0  0  0  0  0  0
   30.5020   50.9090   -7.0870 S   0  0  0  0  0  0  0  0  0  0  0  0
   34.3880   50.5590   -5.5990 C   0  0  0  0  0  0  0  0  0  0  0  0
   33.0640   52.5280   -5.1280 C   0  0  0  0  0  0  0  0  0  0  0  0
   29.2180   54.0590   -4.3330 C   0  0  2  0  0  0  0  0  0  0  0  0
   30.2740   54.7450   -5.1930 C   0  0  0  0  0  0  0  0  0  0  0  0
   29.5050   50.9190   -8.4670 C   0  0  0  0  0  0  0  0  0  0  0  0
   28.6270   49.9480   -8.5100 N   0  0  0  0  0  0  0  0  0  0  0  0
   34.2470   51.9470   -5.5920 C   0  0  0  0  0  0  0  0  0  0  0  0
  1  2  2  0
  2  3  2  0
  1  4  1  0
  2  5  1  6
  2  6  1  0
  4  7  1  0
  4  8  1  0
  7  9  1  1
  5 10  1  0
  6 11  2  0
  6 12  1  0
  8 13  1  0
  7 14  1  0
 10 15  2  0
 10 16  1  0
 11 17  1  0
 12 18  2  0
 13 19  1  0
 14 19  1  0
 19 20  1  6
 16 21  1  0
 15 22  1  0
 21 22  2  0
 17 23  2  0
 18 23  1  0
M  END
