mac-x0123-mac-x0392
     RDKit          3D

 22 25  0  0  0  0  0  0  0  0999 V2000
   28.9340   52.1690   -7.5050 N   0  0  0  0  0  0  0  0  0  0  0  0
   28.7770   52.2150   -6.0570 C   0  0  2  0  0  0  0  0  0  0  0  0
   28.6130   53.6750   -5.5650 C   0  0  1  0  0  0  0  0  0  0  0  0
   29.8150   51.4140   -5.3860 N   0  0  0  0  0  0  0  0  0  0  0  0
   30.5020   51.8970   -4.2090 C   0  0  1  0  0  0  0  0  0  0  0  0
   29.3190   54.0410   -4.2520 C   0  0  1  0  0  0  0  0  0  0  0  0
   29.0320   54.7570   -6.5200 C   0  0  0  0  0  0  0  0  0  0  0  0
   29.4370   50.0010   -5.0990 C   0  0  2  0  0  0  0  0  0  0  0  0
   30.5550   53.3190   -3.9580 N   0  0  0  0  0  0  0  0  0  0  0  0
   29.5840   55.5600   -4.3910 C   0  0  0  0  0  0  0  0  0  0  0  0
   29.5630   55.7930   -5.8670 C   0  0  0  0  0  0  0  0  0  0  0  0
   29.8480   51.2940   -3.0880 N   0  0  0  0  0  0  0  0  0  0  0  0
   29.4720   49.9460   -3.5580 C   0  0  0  0  0  0  0  0  0  0  0  0
   30.2780   48.8200   -5.7350 C   0  0  1  0  0  0  0  0  0  0  0  0
   28.0390   49.6740   -5.6610 C   0  0  0  0  0  0  0  0  0  0  0  0
   30.4010   47.5310   -4.9350 C   0  0  0  0  0  0  0  0  0  0  0  0
   29.9680   48.5250   -7.2310 C   0  0  1  0  0  0  0  0  0  0  0  0
   27.9370   50.0320   -7.0850 N   0  0  0  0  0  0  0  0  0  0  0  0
   29.2860   47.2480   -7.5150 N   0  0  0  0  0  0  0  0  0  0  0  0
   30.7690   47.4580   -3.7740 O   0  0  0  0  0  0  0  0  0  0  0  0
   30.0770   46.3940   -5.5880 O   0  0  0  0  0  0  0  0  0  0  0  0
   29.1430   49.6770   -7.8520 C   0  0  0  0  0  0  0  0  0  0  0  0
  2  1  1  6
  2  3  1  0
  2  4  1  0
  4  5  1  0
  3  6  1  0
  3  7  1  6
  4  8  1  0
  5  9  1  1
  6  9  1  0
  6 10  1  6
  7 11  2  0
 10 11  1  0
  5 12  1  0
  8 13  1  1
 12 13  1  0
  8 14  1  0
  8 15  1  0
 14 16  1  1
 14 17  1  0
 15 18  1  0
 17 19  1  1
 16 20  2  0
 16 21  1  0
 17 22  1  0
 18 22  1  0
M  END
