mac-x0496-mac-x0179
     RDKit          3D

 36 39  0  0  0  0  0  0  0  0999 V2000
   24.6080   58.7390   -6.2590 C   0  0  0  0  0  0  0  0  0  0  0  0
   25.8840   58.4100   -5.5960 C   0  0  0  0  0  0  0  0  0  0  0  0
   26.2320   58.9350   -4.4130 N   0  0  0  0  0  0  0  0  0  0  0  0
   26.8030   57.5490   -6.1420 N   0  0  0  0  0  0  0  0  0  0  0  0
   27.4840   58.3660   -4.1670 O   0  0  0  0  0  0  0  0  0  0  0  0
   27.7570   57.5590   -5.2310 C   0  0  0  0  0  0  0  0  0  0  0  0
   29.0490   56.8310   -5.2080 C   0  0  0  0  0  0  0  0  0  0  0  0
   28.8280   55.4380   -5.5520 N   0  0  0  0  0  0  0  0  0  0  0  0
   29.2980   54.4260   -4.7470 C   0  0  0  0  0  0  0  0  0  0  0  0
   29.9560   54.6330   -3.7340 O   0  0  0  0  0  0  0  0  0  0  0  0
   28.9700   53.0360   -5.1670 C   0  0  0  0  0  0  0  0  0  0  0  0
   28.3320   52.8430   -6.3990 C   0  0  0  0  0  0  0  0  0  0  0  0
   29.2800   51.9270   -4.3620 C   0  0  0  0  0  0  0  0  0  0  0  0
   28.0030   51.5580   -6.8350 C   0  0  0  0  0  0  0  0  0  0  0  0
   28.9470   50.6420   -4.8060 C   0  0  0  0  0  0  0  0  0  0  0  0
   29.2620   49.4560   -3.9800 C   0  0  0  0  0  0  0  0  0  0  0  0
   28.3120   50.4540   -6.0360 C   0  0  0  0  0  0  0  0  0  0  0  0
   29.5930   48.3330   -4.5040 N   0  0  0  0  0  0  0  0  0  0  0  0
   29.1800   49.6590   -2.6520 O   0  0  0  0  0  0  0  0  0  0  0  0
   29.8860   47.2330   -3.5740 C   0  0  0  0  0  0  0  0  0  0  0  0
   30.3850   46.0250   -4.3730 C   0  0  0  0  0  0  0  0  0  0  0  0
   31.6050   46.3940   -5.0360 O   0  0  0  0  0  0  0  0  0  0  0  0
   32.7270   45.7240   -4.6570 C   0  0  0  0  0  0  0  0  0  0  0  0
   33.5650   45.2780   -5.4340 O   0  0  0  0  0  0  0  0  0  0  0  0
   32.8230   45.5880   -3.1380 C   0  0  0  0  0  0  0  0  0  0  0  0
   34.1770   45.7610   -2.6370 N   0  0  0  0  0  0  0  0  0  0  0  0
   34.8570   44.7610   -1.9920 C   0  0  0  0  0  0  0  0  0  0  0  0
   34.7450   46.9820   -2.3940 C   0  0  0  0  0  0  0  0  0  0  0  0
   34.5460   43.5930   -1.8430 O   0  0  0  0  0  0  0  0  0  0  0  0
   34.3250   48.0940   -2.6540 O   0  0  0  0  0  0  0  0  0  0  0  0
   36.0890   45.3620   -1.4810 C   0  0  0  0  0  0  0  0  0  0  0  0
   36.0190   46.7220   -1.7290 C   0  0  0  0  0  0  0  0  0  0  0  0
   37.1760   44.7870   -0.8560 C   0  0  0  0  0  0  0  0  0  0  0  0
   37.0360   47.5820   -1.3640 C   0  0  0  0  0  0  0  0  0  0  0  0
   38.2220   45.6380   -0.4760 C   0  0  0  0  0  0  0  0  0  0  0  0
   38.1490   47.0260   -0.7300 C   0  0  0  0  0  0  0  0  0  0  0  0
  1  2  1  0
  2  3  2  0
  2  4  1  0
  3  5  1  0
  4  6  2  0
  5  6  1  0
  6  7  1  0
  7  8  1  0
  8  9  1  0
  9 10  2  0
  9 11  1  0
 11 12  2  0
 11 13  1  0
 12 14  1  0
 13 15  2  0
 15 16  1  0
 14 17  2  0
 15 17  1  0
 16 18  2  3
 16 19  1  0
 18 20  1  0
 20 21  1  0
 21 22  1  0
 22 23  1  0
 23 24  2  0
 23 25  1  0
 25 26  1  0
 26 27  1  0
 26 28  1  0
 27 29  2  0
 28 30  2  0
 27 31  1  0
 28 32  1  0
 31 32  2  0
 31 33  1  0
 32 34  1  0
 33 35  2  0
 34 36  2  0
 35 36  1  0
M  END
