mac-x0588-mac-x0404
     RDKit          3D

 26 29  0  0  0  0  0  0  0  0999 V2000
   28.3510   51.9850   -5.8420 N   0  0  0  0  0  0  0  0  0  0  0  0
   29.2670   50.9260   -6.2120 C   0  0  2  0  0  0  0  0  0  0  0  0
   28.5650   49.6680   -6.7470 C   0  0  2  0  0  0  0  0  0  0  0  0
   29.9270   50.6030   -4.9590 N   0  0  0  0  0  0  0  0  0  0  0  0
   29.1820   49.5830   -4.2160 C   0  0  0  0  0  0  0  0  0  0  0  0
   29.3560   48.4560   -6.3060 C   0  0  1  0  0  0  0  0  0  0  0  0
   28.5140   49.4460   -8.2120 N   0  0  0  0  0  0  0  0  0  0  0  0
   29.3280   48.2780   -4.8610 N   0  0  0  0  0  0  0  0  0  0  0  0
   28.5780   47.4170   -6.9850 N   0  0  0  0  0  0  0  0  0  0  0  0
   28.1850   48.0170   -8.2600 C   0  0  0  0  0  0  0  0  0  0  0  0
   28.3130   47.3030   -4.3580 C   0  0  0  0  0  0  0  0  0  0  0  0
   28.7730   45.9390   -3.7550 C   0  0  2  0  0  0  0  0  0  0  0  0
   27.6620   45.3950   -2.9840 O   0  0  0  0  0  0  0  0  0  0  0  0
   29.9980   45.9370   -2.7870 C   0  0  1  0  0  0  0  0  0  0  0  0
   29.6630   44.7410   -1.9030 C   0  0  0  0  0  0  0  0  0  0  0  0
   28.1610   44.8120   -1.7760 C   0  0  0  0  0  0  0  0  0  0  0  0
   31.4460   45.8050   -3.3850 C   0  0  2  0  0  0  0  0  0  0  0  0
   29.9340   47.2480   -1.9720 C   0  0  0  0  0  0  0  0  0  0  0  0
   31.6600   44.5160   -3.9730 O   0  0  0  0  0  0  0  0  0  0  0  0
   31.0110   47.7050   -1.3150 C   0  0  0  0  0  0  0  0  0  0  0  0
   32.4900   46.0770   -2.3210 C   0  0  0  0  0  0  0  0  0  0  0  0
   32.9820   44.2520   -4.4420 C   0  0  0  0  0  0  0  0  0  0  0  0
   32.2570   46.9810   -1.3540 C   0  0  0  0  0  0  0  0  0  0  0  0
   33.4290   44.8460   -5.7760 C   0  0  0  0  0  0  0  0  0  0  0  0
   32.8540   44.2900   -6.8590 O   0  0  0  0  0  0  0  0  0  0  0  0
   34.2420   45.7490   -5.9150 O   0  0  0  0  0  0  0  0  0  0  0  0
  2  1  1  1
  2  3  1  0
  2  4  1  0
  4  5  1  0
  3  6  1  0
  3  7  1  6
  5  8  1  0
  6  8  1  0
  6  9  1  6
  7 10  1  0
  9 10  1  0
  8 11  1  0
 12 11  1  1
 12 13  1  0
 12 14  1  0
 14 15  1  1
 13 16  1  0
 15 16  1  0
 14 17  1  0
 14 18  1  0
 17 19  1  1
 18 20  2  0
 17 21  1  0
 19 22  1  0
 20 23  1  0
 21 23  2  0
 22 24  1  0
 24 25  1  0
 24 26  2  0
M  END
