mac-x0319-mac-x0159
     RDKit          3D

 23 25  0  0  0  0  0  0  0  0999 V2000
   34.0990   45.9190   -6.5940 O   0  0  0  0  0  0  0  0  0  0  0  0
   32.7960   45.5710   -6.4310 C   0  0  0  0  0  0  0  0  0  0  0  0
   31.9450   45.8940   -7.2420 O   0  0  0  0  0  0  0  0  0  0  0  0
   32.5170   44.7570   -5.1970 C   0  0  0  0  0  0  0  0  0  0  0  0
   31.3780   45.1620   -4.2540 C   0  0  0  0  0  0  0  0  0  0  0  0
   30.6400   44.1060   -3.7060 C   0  0  0  0  0  0  0  0  0  0  0  0
   30.9840   46.4670   -3.8740 C   0  0  0  0  0  0  0  0  0  0  0  0
   31.5990   47.7260   -4.3740 C   0  0  0  0  0  0  0  0  0  0  0  0
   29.5860   44.3300   -2.8200 C   0  0  0  0  0  0  0  0  0  0  0  0
   29.9270   46.6650   -2.9610 C   0  0  0  0  0  0  0  0  0  0  0  0
   28.9460   43.2190   -2.3750 O   0  0  0  0  0  0  0  0  0  0  0  0
   29.2130   45.6050   -2.4130 C   0  0  0  0  0  0  0  0  0  0  0  0
   30.6830   48.7130   -5.0170 N   0  0  0  0  0  0  0  0  0  0  0  0
   28.0910   45.8520   -1.4330 C   0  0  0  0  0  0  0  0  0  0  0  0
   30.0730   49.5440   -3.9770 C   0  0  0  0  0  0  0  0  0  0  0  0
   29.6170   48.2480   -5.8990 C   0  0  1  0  0  0  0  0  0  0  0  0
   29.4600   50.7220   -4.5860 N   0  0  0  0  0  0  0  0  0  0  0  0
   29.0870   49.4280   -6.6980 C   0  0  2  0  0  0  0  0  0  0  0  0
   30.0060   47.3550   -6.9800 N   0  0  0  0  0  0  0  0  0  0  0  0
   28.5250   50.4240   -5.6590 C   0  0  2  0  0  0  0  0  0  0  0  0
   28.2300   48.7840   -7.6930 N   0  0  0  0  0  0  0  0  0  0  0  0
   28.9560   47.5420   -7.9900 C   0  0  0  0  0  0  0  0  0  0  0  0
   28.2490   51.7400   -6.2210 N   0  0  0  0  0  0  0  0  0  0  0  0
  1  2  1  0
  2  3  2  0
  2  4  1  0
  4  5  1  0
  5  6  2  0
  5  7  1  0
  7  8  1  0
  6  9  1  0
  7 10  2  0
  9 11  1  0
  9 12  2  0
 10 12  1  0
  8 13  1  0
 12 14  1  0
 13 15  1  0
 13 16  1  0
 15 17  1  0
 16 18  1  0
 16 19  1  6
 17 20  1  0
 18 20  1  0
 18 21  1  6
 19 22  1  0
 21 22  1  0
 20 23  1  6
M  END
