mac-x0437-mac-x0397
     RDKit          3D

 28 31  0  0  0  0  0  0  0  0999 V2000
   31.7190   43.3270   -5.5440 O   0  0  0  0  0  0  0  0  0  0  0  0
   32.2990   44.1290   -6.4660 C   0  0  0  0  0  0  0  0  0  0  0  0
   32.0760   44.0090   -7.6600 O   0  0  0  0  0  0  0  0  0  0  0  0
   33.2240   45.1520   -5.8550 C   0  0  0  0  0  0  0  0  0  0  0  0
   33.0840   45.2430   -4.3240 C   0  0  2  0  0  0  0  0  0  0  0  0
   31.7240   45.8430   -3.8890 C   0  0  0  0  0  0  0  0  0  0  0  0
   34.2210   45.9820   -3.7680 N   0  0  0  0  0  0  0  0  0  0  0  0
   31.5430   47.3060   -4.3280 C   0  0  0  0  0  0  0  0  0  0  0  0
   34.4590   47.3250   -3.9150 C   0  0  0  0  0  0  0  0  0  0  0  0
   35.2430   45.4580   -3.0060 C   0  0  0  0  0  0  0  0  0  0  0  0
   30.0790   47.6700   -4.6060 C   0  0  0  0  0  0  0  0  0  0  0  0
   35.5580   47.6980   -3.3040 N   0  0  0  0  0  0  0  0  0  0  0  0
   36.0590   46.5550   -2.7340 C   0  0  0  0  0  0  0  0  0  0  0  0
   35.5360   44.1710   -2.5370 C   0  0  0  0  0  0  0  0  0  0  0  0
   37.2180   46.3820   -1.9630 C   0  0  0  0  0  0  0  0  0  0  0  0
   36.6950   44.0160   -1.7700 C   0  0  0  0  0  0  0  0  0  0  0  0
   29.8290   49.1570   -4.7080 C   0  0  0  0  0  0  0  0  0  0  0  0
   37.5260   45.1020   -1.4860 C   0  0  0  0  0  0  0  0  0  0  0  0
   29.9330   49.9700   -3.5770 C   0  0  0  0  0  0  0  0  0  0  0  0
   29.4890   49.7290   -5.9480 C   0  0  0  0  0  0  0  0  0  0  0  0
   29.2610   51.1160   -6.0240 C   0  0  0  0  0  0  0  0  0  0  0  0
   29.7010   51.3420   -3.6800 C   0  0  0  0  0  0  0  0  0  0  0  0
   29.8160   52.3730   -2.3210 Cl  0  0  0  0  0  0  0  0  0  0  0  0
   29.3580   51.9510   -4.9070 C   0  0  0  0  0  0  0  0  0  0  0  0
   28.8360   52.0630   -7.3990 S   0  0  0  0  0  0  0  0  0  0  0  0
   28.8160   53.4720   -6.4270 C   0  0  0  0  0  0  0  0  0  0  0  0
   29.1000   53.2940   -5.1630 N   0  0  0  0  0  0  0  0  0  0  0  0
   28.5240   54.6770   -6.9450 N   0  0  0  0  0  0  0  0  0  0  0  0
  1  2  1  0
  2  3  2  0
  2  4  1  0
  5  4  1  6
  5  6  1  0
  5  7  1  0
  6  8  1  0
  7  9  1  0
  7 10  1  0
  8 11  1  0
  9 12  2  0
 10 13  2  0
 12 13  1  0
 10 14  1  0
 13 15  1  0
 14 16  2  0
 11 17  1  0
 15 18  2  0
 16 18  1  0
 17 19  2  0
 17 20  1  0
 20 21  2  0
 19 22  1  0
 22 23  1  0
 21 24  1  0
 22 24  2  0
 21 25  1  0
 25 26  1  0
 24 27  1  0
 26 27  2  0
 26 28  1  0
M  END
