mac-x0328-mac-x0451
     RDKit          3D

 15 16  0  0  0  0  0  0  0  0999 V2000
   30.5510   47.4580   -3.3360 O   0  0  0  0  0  0  0  0  0  0  0  0
   30.1020   48.0050   -4.4810 C   0  0  0  0  0  0  0  0  0  0  0  0
   29.7040   47.2870   -5.3850 O   0  0  0  0  0  0  0  0  0  0  0  0
   30.1550   49.5280   -4.5480 C   0  0  1  0  0  0  0  0  0  0  0  0
   28.9220   50.1510   -5.2180 C   0  0  0  0  0  0  0  0  0  0  0  0
   30.4550   50.2490   -3.2610 C   0  0  0  0  0  0  0  0  0  0  0  0
   29.2770   51.6000   -5.5510 C   0  0  2  0  0  0  0  0  0  0  0  0
   30.1610   51.5490   -3.1100 C   0  0  0  0  0  0  0  0  0  0  0  0
   29.5090   52.3740   -4.1920 C   0  0  1  0  0  0  0  0  0  0  0  0
   28.2400   52.2840   -6.4140 N   0  0  0  0  0  0  0  0  0  0  0  0
   30.4820   51.4140   -6.4560 C   0  0  0  0  0  0  0  0  0  0  0  0
   30.2710   53.5670   -4.3250 O   0  0  0  0  0  0  0  0  0  0  0  0
   28.7870   53.2780   -7.3270 C   0  0  1  0  0  0  0  0  0  0  0  0
   30.2890   52.5010   -7.8150 S   0  0  0  0  0  0  0  0  0  0  0  0
   27.8640   53.4530   -8.3870 N   0  0  0  0  0  0  0  0  0  0  0  0
  1  2  1  0
  2  3  2  0
  4  2  1  1
  4  5  1  0
  4  6  1  0
  7  5  1  1
  6  8  2  0
  7  9  1  0
  8  9  1  0
  7 10  1  0
  7 11  1  0
  9 12  1  6
 10 13  1  0
 11 14  2  0
 13 14  1  0
 13 15  1  6
M  END
