mac-x0404-mac-x0576
     RDKit          3D

 28 31  0  0  0  0  0  0  0  0999 V2000
   31.5100   43.3290   -6.5510 O   0  0  0  0  0  0  0  0  0  0  0  0
   32.3360   43.8410   -5.6040 C   0  0  0  0  0  0  0  0  0  0  0  0
   33.5350   43.9040   -5.8320 O   0  0  0  0  0  0  0  0  0  0  0  0
   31.5860   44.2710   -4.3540 C   0  0  0  0  0  0  0  0  0  0  0  0
   30.4430   45.0570   -4.6900 O   0  0  0  0  0  0  0  0  0  0  0  0
   30.2800   46.1020   -3.7960 C   0  0  0  0  0  0  0  0  0  0  0  0
   29.7860   45.8120   -2.5010 C   0  0  0  0  0  0  0  0  0  0  0  0
   30.6060   47.4250   -4.1850 C   0  0  0  0  0  0  0  0  0  0  0  0
   31.0940   47.6980   -5.4840 N   0  0  0  0  0  0  0  0  0  0  0  0
   29.6220   46.8760   -1.5800 C   0  0  0  0  0  0  0  0  0  0  0  0
   30.4350   48.4520   -3.2550 C   0  0  0  0  0  0  0  0  0  0  0  0
   29.4470   44.5080   -2.0800 C   0  0  0  0  0  0  0  0  0  0  0  0
   29.9490   48.1830   -1.9690 C   0  0  0  0  0  0  0  0  0  0  0  0
   29.1320   46.6110   -0.2900 C   0  0  0  0  0  0  0  0  0  0  0  0
   28.9620   44.2580   -0.7950 C   0  0  0  0  0  0  0  0  0  0  0  0
   30.8470   48.7830   -6.1800 C   0  0  0  0  0  0  0  0  0  0  0  0
   28.8030   45.3110    0.1000 C   0  0  0  0  0  0  0  0  0  0  0  0
   31.3390   49.0170   -7.4530 N   0  0  0  0  0  0  0  0  0  0  0  0
   29.9700   49.9450   -5.6350 C   0  0  1  0  0  0  0  0  0  0  0  0
   30.4960   49.5040   -8.4930 C   0  0  1  0  0  0  0  0  0  0  0  0
   29.7310   50.9620   -6.7910 C   0  0  1  0  0  0  0  0  0  0  0  0
   28.7060   49.5770   -4.9650 N   0  0  0  0  0  0  0  0  0  0  0  0
   29.7200   48.5060   -9.1660 N   0  0  0  0  0  0  0  0  0  0  0  0
   29.4900   50.4610   -8.1340 N   0  0  0  0  0  0  0  0  0  0  0  0
   28.6050   51.8270   -6.5670 N   0  0  0  0  0  0  0  0  0  0  0  0
   28.0640   50.7740   -4.3760 C   0  0  0  0  0  0  0  0  0  0  0  0
   28.0610   51.9900   -5.3170 C   0  0  0  0  0  0  0  0  0  0  0  0
   27.5980   53.0820   -5.0010 O   0  0  0  0  0  0  0  0  0  0  0  0
  1  2  1  0
  2  3  2  0
  2  4  1  0
  4  5  1  0
  5  6  1  0
  6  7  2  0
  6  8  1  0
  8  9  1  0
  7 10  1  0
  8 11  2  0
  7 12  1  0
 10 13  2  0
 11 13  1  0
 10 14  1  0
 12 15  2  0
  9 16  2  3
 14 17  2  0
 15 17  1  0
 16 18  1  0
 16 19  1  0
 18 20  1  0
 19 21  1  0
 19 22  1  6
 20 23  1  1
 20 24  1  0
 21 24  1  6
 21 25  1  0
 22 26  1  0
 25 27  1  0
 26 27  1  0
 27 28  2  0
M  END
