mac-x0338-mac-x0206
     RDKit          3D

 19 20  0  0  0  0  0  0  0  0999 V2000
   30.0360   51.2340   -8.3940 N   0  0  0  0  0  0  0  0  0  0  0  0
   30.4570   51.6640   -7.1630 C   0  0  0  0  0  0  0  0  0  0  0  0
   30.7880   52.8390   -7.0070 O   0  0  0  0  0  0  0  0  0  0  0  0
   30.5100   50.6210   -6.0240 C   0  0  2  0  0  0  0  0  0  0  0  0
   29.9210   51.0760   -4.6990 N   0  0  0  0  0  0  0  0  0  0  0  0
   31.9910   50.1530   -5.9140 C   0  0  0  0  0  0  0  0  0  0  0  0
   28.4790   51.3540   -4.6530 C   0  0  1  0  0  0  0  0  0  0  0  0
   30.6440   50.7980   -3.5290 C   0  0  0  0  0  0  0  0  0  0  0  0
   32.3160   49.5220   -4.6250 N   0  0  0  0  0  0  0  0  0  0  0  0
   27.6070   50.7410   -5.6300 N   0  0  0  0  0  0  0  0  0  0  0  0
   28.0550   50.7830   -3.4270 O   0  0  0  0  0  0  0  0  0  0  0  0
   31.7670   50.0680   -3.4950 C   0  0  0  0  0  0  0  0  0  0  0  0
   28.2410   52.8880   -4.7200 C   0  0  0  0  0  0  0  0  0  0  0  0
   28.3180   53.7550   -3.6140 C   0  0  0  0  0  0  0  0  0  0  0  0
   27.9240   53.4820   -5.9680 C   0  0  0  0  0  0  0  0  0  0  0  0
   28.6210   53.2440   -2.3770 O   0  0  0  0  0  0  0  0  0  0  0  0
   28.0940   55.1300   -3.7350 C   0  0  0  0  0  0  0  0  0  0  0  0
   27.7000   54.8530   -6.0950 C   0  0  0  0  0  0  0  0  0  0  0  0
   27.7840   55.6770   -4.9790 C   0  0  0  0  0  0  0  0  0  0  0  0
  1  2  1  0
  2  3  2  0
  4  2  1  6
  4  5  1  0
  4  6  1  0
  5  7  1  0
  5  8  1  0
  6  9  1  0
  7 10  1  6
  7 11  1  0
  8 12  2  0
  9 12  1  0
  7 13  1  0
 13 14  2  0
 13 15  1  0
 14 16  1  0
 14 17  1  0
 15 18  2  0
 17 19  2  0
 18 19  1  0
M  END
