mac-x0385-mac-x0277
     RDKit          3D

 22 23  0  0  0  0  0  0  0  0999 V2000
   29.2780   51.9500   -2.9120 C   0  0  0  0  0  0  0  0  0  0  0  0
   29.2590   50.8650   -3.9380 C   0  0  0  0  0  0  0  0  0  0  0  0
   30.0540   49.7470   -3.7980 C   0  0  0  0  0  0  0  0  0  0  0  0
   28.4730   50.8920   -5.0820 C   0  0  0  0  0  0  0  0  0  0  0  0
   27.6210   51.9710   -5.3500 N   0  0  0  0  0  0  0  0  0  0  0  0
   28.4780   49.8990   -5.9850 N   0  0  0  0  0  0  0  0  0  0  0  0
   30.0880   48.7360   -4.6790 N   0  0  0  0  0  0  0  0  0  0  0  0
   29.2900   48.8490   -5.7510 C   0  0  0  0  0  0  0  0  0  0  0  0
   29.3010   47.7310   -6.7610 C   0  0  0  0  0  0  0  0  0  0  0  0
   29.9680   46.4660   -6.2220 C   0  0  0  0  0  0  0  0  0  0  0  0
   31.4210   46.5590   -6.3820 N   0  0  0  0  0  0  0  0  0  0  0  0
   32.2040   45.8030   -5.7050 C   0  0  0  0  0  0  0  0  0  0  0  0
   33.5150   45.9830   -5.9380 O   0  0  0  0  0  0  0  0  0  0  0  0
   31.9280   44.7310   -4.6830 C   0  0  0  0  0  0  0  0  0  0  0  0
   30.8820   45.0820   -3.6460 C   0  0  0  0  0  0  0  0  0  0  0  0
   31.1650   45.9710   -2.5950 C   0  0  0  0  0  0  0  0  0  0  0  0
   29.6020   44.5150   -3.7220 C   0  0  0  0  0  0  0  0  0  0  0  0
   30.1880   46.2840   -1.6420 C   0  0  0  0  0  0  0  0  0  0  0  0
   28.6260   44.8290   -2.7730 C   0  0  0  0  0  0  0  0  0  0  0  0
   30.6170   47.3860   -0.3770 Cl  0  0  0  0  0  0  0  0  0  0  0  0
   28.9160   45.7110   -1.7310 C   0  0  0  0  0  0  0  0  0  0  0  0
   27.6580   46.0490   -0.5940 Cl  0  0  0  0  0  0  0  0  0  0  0  0
  1  2  1  0
  2  3  2  0
  2  4  1  0
  4  5  1  0
  4  6  2  0
  3  7  1  0
  6  8  1  0
  7  8  2  0
  8  9  1  0
  9 10  1  0
 10 11  1  0
 11 12  2  3
 12 13  1  0
 12 14  1  0
 14 15  1  0
 15 16  2  0
 15 17  1  0
 16 18  1  0
 17 19  2  0
 18 20  1  0
 18 21  2  0
 19 21  1  0
 21 22  1  0
M  END
