mac-x0347-mac-x0398
     RDKit          3D

 19 20  0  0  0  0  0  0  0  0999 V2000
   30.7720   44.3300   -5.6150 O   0  0  0  0  0  0  0  0  0  0  0  0
   30.7550   45.5570   -6.1770 C   0  0  0  0  0  0  0  0  0  0  0  0
   31.1290   45.7690   -7.3190 O   0  0  0  0  0  0  0  0  0  0  0  0
   30.2420   46.6250   -5.2970 C   0  0  0  0  0  0  0  0  0  0  0  0
   30.1430   47.9690   -5.6750 C   0  0  0  0  0  0  0  0  0  0  0  0
   29.8340   46.2740   -4.0140 C   0  0  0  0  0  0  0  0  0  0  0  0
   29.6420   48.9230   -4.7730 C   0  0  0  0  0  0  0  0  0  0  0  0
   29.3460   47.1600   -3.1120 N   0  0  0  0  0  0  0  0  0  0  0  0
   29.2620   48.4520   -3.5110 C   0  0  0  0  0  0  0  0  0  0  0  0
   29.5200   50.3440   -5.1340 C   0  0  0  0  0  0  0  0  0  0  0  0
   28.8700   50.6680   -6.3420 C   0  0  0  0  0  0  0  0  0  0  0  0
   30.0120   51.4170   -4.3500 C   0  0  0  0  0  0  0  0  0  0  0  0
   30.7030   51.1750   -3.0720 C   0  0  0  0  0  0  0  0  0  0  0  0
   28.7130   51.9970   -6.7540 C   0  0  0  0  0  0  0  0  0  0  0  0
   29.8510   52.7470   -4.7700 C   0  0  0  0  0  0  0  0  0  0  0  0
   30.2100   51.2610   -1.9610 O   0  0  0  0  0  0  0  0  0  0  0  0
   31.9890   50.8440   -3.2850 O   0  0  0  0  0  0  0  0  0  0  0  0
   30.3300   53.7680   -3.9980 O   0  0  0  0  0  0  0  0  0  0  0  0
   29.2030   53.0340   -5.9690 C   0  0  0  0  0  0  0  0  0  0  0  0
  1  2  1  0
  2  3  2  0
  2  4  1  0
  4  5  2  0
  4  6  1  0
  5  7  1  0
  6  8  2  0
  7  9  2  0
  8  9  1  0
  7 10  1  0
 10 11  2  0
 10 12  1  0
 12 13  1  0
 11 14  1  0
 12 15  2  0
 13 16  2  0
 13 17  1  0
 15 18  1  0
 14 19  2  0
 15 19  1  0
M  END
