mac-x0138-mac-x0437
     RDKit          3D

 29 32  0  0  0  0  0  0  0  0999 V2000
   30.0560   47.0360   -3.8870 C   0  0  0  0  0  0  0  0  0  0  0  0
   29.7870   48.3470   -4.4120 N   0  0  0  0  0  0  0  0  0  0  0  0
   29.7800   49.5180   -3.7050 C   0  0  0  0  0  0  0  0  0  0  0  0
   29.4910   48.6440   -5.7140 C   0  0  0  0  0  0  0  0  0  0  0  0
   29.4960   50.5500   -4.4710 N   0  0  0  0  0  0  0  0  0  0  0  0
   29.3140   50.0120   -5.7300 C   0  0  0  0  0  0  0  0  0  0  0  0
   29.3920   47.8010   -6.7520 N   0  0  0  0  0  0  0  0  0  0  0  0
   28.9950   50.5750   -6.9730 C   0  0  0  0  0  0  0  0  0  0  0  0
   29.0860   48.4310   -7.8990 C   0  0  0  0  0  0  0  0  0  0  0  0
   28.7850   51.9360   -7.1610 N   0  0  0  0  0  0  0  0  0  0  0  0
   28.9780   47.5880   -9.0020 N   0  0  0  0  0  0  0  0  0  0  0  0
   28.8870   49.7560   -8.0450 N   0  0  0  0  0  0  0  0  0  0  0  0
   29.4950   46.2400   -8.8090 C   0  0  0  0  0  0  0  0  0  0  0  0
   31.0240   46.2560   -8.6520 C   0  0  0  0  0  0  0  0  0  0  0  0
   31.6050   44.9480   -8.1080 C   0  0  0  0  0  0  0  0  0  0  0  0
   31.7310   45.0180   -6.6800 O   0  0  0  0  0  0  0  0  0  0  0  0
   32.9830   44.8640   -6.1670 C   0  0  0  0  0  0  0  0  0  0  0  0
   34.0160   45.2780   -6.6760 O   0  0  0  0  0  0  0  0  0  0  0  0
   32.9200   44.1000   -4.8700 C   0  0  0  0  0  0  0  0  0  0  0  0
   32.7580   45.0570   -3.6940 C   0  0  0  0  0  0  0  0  0  0  0  0
   33.9630   45.8230   -3.4450 N   0  0  0  0  0  0  0  0  0  0  0  0
   34.0660   47.1800   -3.5940 C   0  0  0  0  0  0  0  0  0  0  0  0
   35.1800   45.3490   -3.0260 C   0  0  0  0  0  0  0  0  0  0  0  0
   35.2700   47.6160   -3.3020 N   0  0  0  0  0  0  0  0  0  0  0  0
   35.9770   46.4920   -2.9480 C   0  0  0  0  0  0  0  0  0  0  0  0
   35.6590   44.0710   -2.7140 C   0  0  0  0  0  0  0  0  0  0  0  0
   37.3140   46.3730   -2.5450 C   0  0  0  0  0  0  0  0  0  0  0  0
   36.9970   43.9740   -2.3140 C   0  0  0  0  0  0  0  0  0  0  0  0
   37.8130   45.1050   -2.2310 C   0  0  0  0  0  0  0  0  0  0  0  0
  1  2  1  0
  2  3  1  0
  2  4  1  0
  3  5  2  0
  4  6  2  0
  5  6  1  0
  4  7  1  0
  6  8  1  0
  7  9  2  0
  8 10  1  0
  9 11  1  0
  8 12  2  0
  9 12  1  0
 11 13  1  0
 13 14  1  0
 14 15  1  0
 15 16  1  0
 16 17  1  0
 17 18  2  0
 17 19  1  0
 19 20  1  0
 20 21  1  0
 21 22  1  0
 21 23  1  0
 22 24  2  0
 23 25  2  0
 24 25  1  0
 23 26  1  0
 25 27  1  0
 26 28  2  0
 27 29  2  0
 28 29  1  0
M  END
