mac-x0255-mac-x0576
     RDKit          3D

 26 29  0  0  0  0  0  0  0  0999 V2000
   31.4990   44.8430   -7.0830 O   0  0  0  0  0  0  0  0  0  0  0  0
   32.7200   45.3360   -6.7810 C   0  0  0  0  0  0  0  0  0  0  0  0
   33.6490   45.1430   -7.5450 O   0  0  0  0  0  0  0  0  0  0  0  0
   32.7510   46.1000   -5.4780 C   0  0  0  0  0  0  0  0  0  0  0  0
   31.6170   45.8020   -4.5420 C   0  0  0  0  0  0  0  0  0  0  0  0
   30.5870   46.6250   -4.1350 C   0  0  0  0  0  0  0  0  0  0  0  0
   31.4720   44.2870   -3.7860 S   0  0  0  0  0  0  0  0  0  0  0  0
   30.4190   47.9610   -4.5430 N   0  0  0  0  0  0  0  0  0  0  0  0
   29.6730   46.0350   -3.2160 C   0  0  0  0  0  0  0  0  0  0  0  0
   30.0470   44.7440   -2.9270 C   0  0  0  0  0  0  0  0  0  0  0  0
   28.5170   46.5600   -2.5930 C   0  0  0  0  0  0  0  0  0  0  0  0
   29.2970   43.9710   -2.0290 C   0  0  0  0  0  0  0  0  0  0  0  0
   29.9060   48.3420   -5.6770 C   0  0  0  0  0  0  0  0  0  0  0  0
   27.7680   45.7980   -1.7050 C   0  0  0  0  0  0  0  0  0  0  0  0
   28.1620   44.5130   -1.4240 C   0  0  0  0  0  0  0  0  0  0  0  0
   29.4240   47.5990   -6.7420 N   0  0  0  0  0  0  0  0  0  0  0  0
   29.8540   49.8880   -5.7800 C   0  0  1  0  0  0  0  0  0  0  0  0
   29.2550   48.2380   -7.9970 C   0  0  1  0  0  0  0  0  0  0  0  0
   29.4750   50.3980   -7.2070 C   0  0  1  0  0  0  0  0  0  0  0  0
   29.0860   50.4860   -4.6710 N   0  0  0  0  0  0  0  0  0  0  0  0
   28.5520   47.5160   -9.0200 N   0  0  0  0  0  0  0  0  0  0  0  0
   28.6210   49.5250   -7.9920 N   0  0  0  0  0  0  0  0  0  0  0  0
   28.7550   51.6370   -7.1040 N   0  0  0  0  0  0  0  0  0  0  0  0
   29.1810   51.9510   -4.6770 C   0  0  0  0  0  0  0  0  0  0  0  0
   29.0650   52.5370   -6.0980 C   0  0  0  0  0  0  0  0  0  0  0  0
   29.2250   53.7280   -6.3450 O   0  0  0  0  0  0  0  0  0  0  0  0
  1  2  1  0
  2  3  2  0
  2  4  1  0
  4  5  1  0
  5  6  2  0
  5  7  1  0
  6  8  1  0
  6  9  1  0
  7 10  1  0
  9 10  2  0
  9 11  1  0
 10 12  1  0
  8 13  2  3
 11 14  2  0
 12 15  2  0
 14 15  1  0
 13 16  1  0
 13 17  1  0
 16 18  1  0
 17 19  1  0
 17 20  1  1
 18 21  1  6
 18 22  1  0
 19 22  1  1
 19 23  1  0
 20 24  1  0
 23 25  1  0
 24 25  1  0
 25 26  2  0
M  END
