mac-x0338-mac-x0137
     RDKit          3D

 25 28  0  0  0  0  0  0  0  0999 V2000
   29.2720   53.7410   -7.0390 N   0  0  0  0  0  0  0  0  0  0  0  0
   28.6370   52.8520   -6.0670 C   0  0  2  0  0  0  0  0  0  0  0  0
   27.3080   53.3630   -5.9600 O   0  0  0  0  0  0  0  0  0  0  0  0
   29.3390   52.9340   -4.7030 C   0  0  0  0  0  0  0  0  0  0  0  0
   28.5340   51.4030   -6.5540 C   0  0  0  0  0  0  0  0  0  0  0  0
   30.7000   53.1260   -4.6900 N   0  0  0  0  0  0  0  0  0  0  0  0
   28.6240   52.8160   -3.5120 C   0  0  0  0  0  0  0  0  0  0  0  0
   27.6660   51.0710   -7.6060 N   0  0  0  0  0  0  0  0  0  0  0  0
   29.2230   50.3490   -6.0600 C   0  0  0  0  0  0  0  0  0  0  0  0
   31.2690   53.1880   -3.4620 C   0  0  0  0  0  0  0  0  0  0  0  0
   29.2030   52.8800   -2.2850 N   0  0  0  0  0  0  0  0  0  0  0  0
   27.8270   49.7850   -7.7620 C   0  0  0  0  0  0  0  0  0  0  0  0
   28.8130   49.2060   -6.8140 C   0  0  0  0  0  0  0  0  0  0  0  0
   30.5420   53.0680   -2.2910 C   0  0  0  0  0  0  0  0  0  0  0  0
   27.1750   49.0200   -8.6880 N   0  0  0  0  0  0  0  0  0  0  0  0
   29.0920   47.8860   -6.8470 C   0  0  0  0  0  0  0  0  0  0  0  0
   29.9990   47.2090   -6.0160 N   0  0  0  0  0  0  0  0  0  0  0  0
   28.3900   47.1780   -7.8140 N   0  0  0  0  0  0  0  0  0  0  0  0
   27.4920   47.7680   -8.6600 C   0  0  0  0  0  0  0  0  0  0  0  0
   29.9240   47.3760   -4.5360 C   0  0  0  0  0  0  0  0  0  0  0  0
   30.7140   46.0030   -6.4710 C   0  0  0  0  0  0  0  0  0  0  0  0
   31.2590   47.1490   -3.8070 C   0  0  2  0  0  0  0  0  0  0  0  0
   32.1080   45.9440   -5.8600 C   0  0  0  0  0  0  0  0  0  0  0  0
   32.0460   48.2560   -3.9700 F   0  0  0  0  0  0  0  0  0  0  0  0
   32.0400   45.9500   -4.3340 C   0  0  0  0  0  0  0  0  0  0  0  0
  2  1  1  6
  2  3  1  0
  2  4  1  0
  2  5  1  0
  4  6  2  0
  4  7  1  0
  5  8  1  0
  5  9  2  0
  6 10  1  0
  7 11  2  0
  8 12  2  0
  9 13  1  0
 12 13  1  0
 10 14  2  0
 11 14  1  0
 12 15  1  0
 13 16  2  0
 16 17  1  0
 16 18  1  0
 15 19  2  0
 18 19  1  0
 17 20  1  0
 17 21  1  0
 20 22  1  0
 21 23  1  0
 22 24  1  6
 22 25  1  0
 23 25  1  0
M  END
