mac-x0283-mac-x0344
     RDKit          3D

 25 27  0  0  0  0  0  0  0  0999 V2000
   28.6450   54.5230   -6.6290 N   0  0  0  0  0  0  0  0  0  0  0  0
   29.0710   53.8030   -5.5680 C   0  0  0  0  0  0  0  0  0  0  0  0
   29.4810   54.3240   -4.4100 N   0  0  0  0  0  0  0  0  0  0  0  0
   29.1360   52.3860   -5.5520 C   0  0  0  0  0  0  0  0  0  0  0  0
   29.8260   53.2450   -3.6090 O   0  0  0  0  0  0  0  0  0  0  0  0
   29.6220   52.0830   -4.2920 C   0  0  0  0  0  0  0  0  0  0  0  0
   28.8500   51.3420   -6.4360 C   0  0  0  0  0  0  0  0  0  0  0  0
   29.8520   50.7760   -3.8330 C   0  0  0  0  0  0  0  0  0  0  0  0
   29.0680   50.0240   -6.0140 C   0  0  0  0  0  0  0  0  0  0  0  0
   29.5620   49.7240   -4.7350 C   0  0  0  0  0  0  0  0  0  0  0  0
   29.7690   48.2550   -4.3700 C   0  0  0  0  0  0  0  0  0  0  0  0
   29.0400   47.2110   -5.2600 C   0  0  0  0  0  0  0  0  0  0  0  0
   29.8160   45.9020   -5.5500 C   0  0  0  0  0  0  0  0  0  0  0  0
   31.2380   46.2110   -5.6640 N   0  0  0  0  0  0  0  0  0  0  0  0
   32.1200   45.5250   -5.0470 C   0  0  0  0  0  0  0  0  0  0  0  0
   31.7190   44.4800   -4.3100 O   0  0  0  0  0  0  0  0  0  0  0  0
   33.6350   45.7380   -5.0110 C   0  0  0  0  0  0  0  0  0  0  0  0
   34.2220   46.0630   -6.0270 O   0  0  0  0  0  0  0  0  0  0  0  0
   34.1540   45.5410   -3.7460 N   0  0  0  0  0  0  0  0  0  0  0  0
   35.2920   46.1580   -3.1880 C   0  0  0  0  0  0  0  0  0  0  0  0
   36.2910   45.4660   -2.5020 C   0  0  0  0  0  0  0  0  0  0  0  0
   35.4120   47.5480   -3.3420 C   0  0  0  0  0  0  0  0  0  0  0  0
   37.3920   46.1510   -1.9790 C   0  0  0  0  0  0  0  0  0  0  0  0
   36.5130   48.2310   -2.8180 C   0  0  0  0  0  0  0  0  0  0  0  0
   37.5050   47.5300   -2.1360 C   0  0  0  0  0  0  0  0  0  0  0  0
  1  2  1  0
  2  3  2  0
  2  4  1  0
  3  5  1  0
  4  6  2  0
  5  6  1  0
  4  7  1  0
  6  8  1  0
  7  9  2  0
  8 10  2  0
  9 10  1  0
 10 11  1  0
 11 12  1  0
 12 13  1  0
 13 14  1  0
 14 15  2  3
 15 16  1  0
 15 17  1  0
 17 18  2  0
 17 19  1  0
 19 20  1  0
 20 21  2  0
 20 22  1  0
 21 23  1  0
 22 24  2  0
 23 25  2  0
 24 25  1  0
M  END
