mac-x0138
     RDKit          3D

 12 13  0  0  0  0  0  0  0  0999 V2000
   30.3300   46.9430   -4.0170 C   0  0  0  0  0  0  0  0  0  0  0  0
   29.9780   48.2790   -4.4720 N   0  0  0  0  0  0  0  0  0  0  0  0
   29.9930   49.3750   -3.7400 C   0  0  0  0  0  0  0  0  0  0  0  0
   29.6170   50.3660   -4.4560 N   0  0  0  0  0  0  0  0  0  0  0  0
   29.3870   49.8930   -5.7080 C   0  0  0  0  0  0  0  0  0  0  0  0
   28.9930   50.4580   -6.9320 C   0  0  0  0  0  0  0  0  0  0  0  0
   28.6930   51.8720   -7.1190 N   0  0  0  0  0  0  0  0  0  0  0  0
   28.9060   49.6780   -7.9720 N   0  0  0  0  0  0  0  0  0  0  0  0
   29.1520   48.3920   -7.8930 C   0  0  0  0  0  0  0  0  0  0  0  0
   28.9840   47.6240   -9.0800 N   0  0  0  0  0  0  0  0  0  0  0  0
   29.5220   47.8060   -6.8130 N   0  0  0  0  0  0  0  0  0  0  0  0
   29.6350   48.5780   -5.7000 C   0  0  0  0  0  0  0  0  0  0  0  0
  1  2  1  0
  2  3  1  0
  3  4  2  0
  4  5  1  0
  5  6  1  0
  6  7  1  0
  6  8  2  0
  8  9  1  0
  9 10  1  0
  9 11  2  0
  2 12  1  0
  5 12  2  0
 11 12  1  0
M  END
