mac-x0226-mac-x0402
     RDKit          3D

 27 30  0  0  0  0  0  0  0  0999 V2000
   32.1710   45.4420   -7.0240 O   0  0  0  0  0  0  0  0  0  0  0  0
   32.9550   46.2460   -6.1550 C   0  0  0  0  0  0  0  0  0  0  0  0
   33.9830   46.8040   -6.9510 O   0  0  0  0  0  0  0  0  0  0  0  0
   32.0210   47.3810   -5.7280 C   0  0  0  0  0  0  0  0  0  0  0  0
   33.4640   45.4440   -5.0010 C   0  0  0  0  0  0  0  0  0  0  0  0
   30.7530   46.9860   -4.9640 C   0  0  0  0  0  0  0  0  0  0  0  0
   32.9210   44.2530   -4.4690 C   0  0  0  0  0  0  0  0  0  0  0  0
   34.5600   45.6760   -4.1950 C   0  0  0  0  0  0  0  0  0  0  0  0
   30.3850   47.9140   -3.8100 C   0  0  0  0  0  0  0  0  0  0  0  0
   33.6070   43.7840   -3.4290 N   0  0  0  0  0  0  0  0  0  0  0  0
   34.6230   44.6700   -3.2620 N   0  0  0  0  0  0  0  0  0  0  0  0
   35.5910   44.5210   -2.2350 C   0  0  0  0  0  0  0  0  0  0  0  0
   30.0360   49.3250   -4.2220 C   0  0  0  0  0  0  0  0  0  0  0  0
   36.4560   45.5730   -1.9250 C   0  0  0  0  0  0  0  0  0  0  0  0
   35.6800   43.3140   -1.5280 C   0  0  0  0  0  0  0  0  0  0  0  0
   30.0580   50.3590   -3.2810 C   0  0  0  0  0  0  0  0  0  0  0  0
   29.6840   49.6120   -5.5550 C   0  0  0  0  0  0  0  0  0  0  0  0
   37.4060   45.4230   -0.9130 C   0  0  0  0  0  0  0  0  0  0  0  0
   36.6330   43.1710   -0.5160 C   0  0  0  0  0  0  0  0  0  0  0  0
   29.3600   50.9350   -5.9050 C   0  0  0  0  0  0  0  0  0  0  0  0
   29.7340   51.6680   -3.6390 C   0  0  0  0  0  0  0  0  0  0  0  0
   37.4920   44.2220   -0.2110 C   0  0  0  0  0  0  0  0  0  0  0  0
   29.3790   51.9670   -4.9660 C   0  0  0  0  0  0  0  0  0  0  0  0
   28.8940   51.5930   -7.4270 S   0  0  0  0  0  0  0  0  0  0  0  0
   28.7590   53.1510   -6.7230 C   0  0  0  0  0  0  0  0  0  0  0  0
   29.0360   53.2180   -5.4480 N   0  0  0  0  0  0  0  0  0  0  0  0
   28.3920   54.2260   -7.4470 N   0  0  0  0  0  0  0  0  0  0  0  0
  2  1  1  0
  2  3  1  0
  2  4  1  0
  2  5  1  0
  4  6  1  0
  5  7  1  0
  5  8  2  0
  6  9  1  0
  7 10  2  0
  8 11  1  0
 10 11  1  0
 11 12  1  0
  9 13  1  0
 12 14  2  0
 12 15  1  0
 13 16  2  0
 13 17  1  0
 14 18  1  0
 15 19  2  0
 17 20  2  0
 16 21  1  0
 18 22  2  0
 19 22  1  0
 20 23  1  0
 21 23  2  0
 20 24  1  0
 24 25  1  0
 23 26  1  0
 25 26  2  0
 25 27  1  0
M  END
