mac-x0358-mac-x0303
     RDKit          3D

 25 27  0  0  0  0  0  0  0  0999 V2000
   31.8310   44.8860   -6.5150 O   0  0  0  0  0  0  0  0  0  0  0  0
   32.9430   45.1430   -5.7910 C   0  0  0  0  0  0  0  0  0  0  0  0
   33.9220   45.6250   -6.3390 O   0  0  0  0  0  0  0  0  0  0  0  0
   32.8090   44.8010   -4.3190 C   0  0  0  0  0  0  0  0  0  0  0  0
   32.2540   45.9990   -3.6090 C   0  0  0  0  0  0  0  0  0  0  0  0
   33.0400   47.1090   -3.2950 C   0  0  0  0  0  0  0  0  0  0  0  0
   30.9010   46.0100   -3.2750 C   0  0  0  0  0  0  0  0  0  0  0  0
   34.3770   47.1550   -3.5800 O   0  0  0  0  0  0  0  0  0  0  0  0
   32.4790   48.2300   -2.6890 C   0  0  0  0  0  0  0  0  0  0  0  0
   30.3340   47.1200   -2.6730 C   0  0  0  0  0  0  0  0  0  0  0  0
   31.1050   48.2420   -2.3930 C   0  0  0  0  0  0  0  0  0  0  0  0
   30.4180   49.4440   -1.8120 C   0  0  0  0  0  0  0  0  0  0  0  0
   29.9960   50.3690   -2.9720 C   0  0  0  0  0  0  0  0  0  0  0  0
   30.0710   51.7570   -2.7940 C   0  0  0  0  0  0  0  0  0  0  0  0
   29.5420   49.8610   -4.2220 C   0  0  0  0  0  0  0  0  0  0  0  0
   29.7040   52.5780   -3.8610 C   0  0  0  0  0  0  0  0  0  0  0  0
   29.1740   50.7180   -5.2840 C   0  0  0  0  0  0  0  0  0  0  0  0
   29.6830   53.9360   -3.9800 N   0  0  0  0  0  0  0  0  0  0  0  0
   29.2630   52.1080   -5.0920 C   0  0  0  0  0  0  0  0  0  0  0  0
   29.2510   54.2530   -5.2340 C   0  0  0  0  0  0  0  0  0  0  0  0
   28.9800   53.1590   -5.9410 N   0  0  0  0  0  0  0  0  0  0  0  0
   29.1030   55.9300   -5.7700 S   0  0  0  0  0  0  0  0  0  0  0  0
   30.3920   56.2040   -6.8170 N   0  0  0  0  0  0  0  0  0  0  0  0
   27.8830   55.9750   -6.5380 O   0  0  0  0  0  0  0  0  0  0  0  0
   29.3060   56.7260   -4.5820 O   0  0  0  0  0  0  0  0  0  0  0  0
  1  2  1  0
  2  3  2  0
  2  4  1  0
  4  5  1  0
  5  6  2  0
  5  7  1  0
  6  8  1  0
  6  9  1  0
  7 10  2  0
  9 11  2  0
 10 11  1  0
 11 12  1  0
 12 13  1  0
 13 14  2  0
 13 15  1  0
 14 16  1  0
 15 17  2  0
 16 18  1  0
 16 19  2  0
 17 19  1  0
 18 20  1  0
 19 21  1  0
 20 21  2  0
 20 22  1  0
 22 23  1  0
 22 24  2  0
 22 25  2  0
M  END
