mac-x0182-mac-x0565
     RDKit          3D

 24 27  0  0  0  0  0  0  0  0999 V2000
   34.3540   43.3340   -2.7120 O   0  0  0  0  0  0  0  0  0  0  0  0
   34.4410   44.4570   -3.1780 C   0  0  0  0  0  0  0  0  0  0  0  0
   33.5240   45.0420   -4.0160 N   0  0  0  0  0  0  0  0  0  0  0  0
   35.5770   45.3760   -2.9040 C   0  0  0  0  0  0  0  0  0  0  0  0
   33.7860   46.6960   -4.1530 S   0  0  2  0  0  0  0  0  0  0  0  0
   35.3550   46.6570   -3.3960 C   0  0  0  0  0  0  0  0  0  0  0  0
   36.7580   45.0700   -2.2410 C   0  0  0  0  0  0  0  0  0  0  0  0
   32.7940   47.3410   -3.1390 N   0  0  0  0  0  0  0  0  0  0  0  0
   33.9650   46.9310   -5.5710 O   0  0  0  0  0  0  0  0  0  0  0  0
   36.2770   47.6800   -3.2640 C   0  0  0  0  0  0  0  0  0  0  0  0
   37.7090   46.0890   -2.0900 C   0  0  0  0  0  0  0  0  0  0  0  0
   37.4700   47.3810   -2.5980 C   0  0  0  0  0  0  0  0  0  0  0  0
   31.3250   47.6510   -3.2780 N   0  0  0  0  0  0  0  0  0  0  0  0
   30.8400   48.9710   -3.3310 C   0  0  0  0  0  0  0  0  0  0  0  0
   30.4650   47.0260   -4.3000 C   0  0  0  0  0  0  0  0  0  0  0  0
   30.1350   49.1840   -4.5050 C   0  0  0  0  0  0  0  0  0  0  0  0
   30.9930   49.9960   -2.4100 C   0  0  0  0  0  0  0  0  0  0  0  0
   30.0780   48.0470   -5.2690 O   0  0  0  0  0  0  0  0  0  0  0  0
   29.5750   50.4050   -4.8320 C   0  0  0  0  0  0  0  0  0  0  0  0
   30.4370   51.2490   -2.7080 C   0  0  0  0  0  0  0  0  0  0  0  0
   29.7390   51.4560   -3.9170 C   0  0  0  0  0  0  0  0  0  0  0  0
   29.1950   52.8100   -4.1910 C   0  0  0  0  0  0  0  0  0  0  0  0
   28.5980   52.9130   -5.3960 O   0  0  0  0  0  0  0  0  0  0  0  0
   29.2930   53.7400   -3.4100 O   0  0  0  0  0  0  0  0  0  0  0  0
  1  2  2  0
  2  3  1  0
  2  4  1  0
  5  3  1  6
  4  6  2  0
  5  6  1  0
  4  7  1  0
  5  8  2  0
  5  9  2  0
  6 10  1  0
  7 11  2  0
 10 12  2  0
 11 12  1  0
  8 13  1  0
 13 14  1  0
 13 15  1  0
 14 16  2  0
 14 17  1  0
 15 18  1  0
 16 18  1  0
 16 19  1  0
 17 20  2  0
 19 21  2  0
 20 21  1  0
 21 22  1  0
 22 23  1  0
 22 24  2  0
M  END
