mac-x0555-mac-x0568
     RDKit          3D

 14 15  0  0  0  0  0  0  0  0999 V2000
   29.4650   54.1230   -7.2230 N   0  0  0  0  0  0  0  0  0  0  0  0
   29.4740   53.5320   -5.9560 C   0  0  0  0  0  0  0  0  0  0  0  0
   29.4870   54.3310   -4.8190 C   0  0  0  0  0  0  0  0  0  0  0  0
   29.4700   52.1420   -5.7150 C   0  0  0  0  0  0  0  0  0  0  0  0
   29.4590   51.1870   -6.8560 C   0  0  0  0  0  0  0  0  0  0  0  0
   29.4780   51.6190   -4.4030 C   0  0  0  0  0  0  0  0  0  0  0  0
   29.4980   53.8760   -3.5450 N   0  0  0  0  0  0  0  0  0  0  0  0
   30.3320   50.3400   -7.0010 O   0  0  0  0  0  0  0  0  0  0  0  0
   28.4220   51.2770   -7.7400 N   0  0  0  0  0  0  0  0  0  0  0  0
   29.4930   52.5490   -3.3490 C   0  0  0  0  0  0  0  0  0  0  0  0
   29.4730   50.2340   -4.0910 C   0  0  0  0  0  0  0  0  0  0  0  0
   29.5030   52.0800   -2.0430 C   0  0  0  0  0  0  0  0  0  0  0  0
   29.4820   49.7870   -2.7740 C   0  0  0  0  0  0  0  0  0  0  0  0
   29.4970   50.7140   -1.7460 C   0  0  0  0  0  0  0  0  0  0  0  0
  1  2  1  0
  2  3  2  0
  2  4  1  0
  4  5  1  0
  4  6  2  0
  3  7  1  0
  5  8  2  0
  5  9  1  0
  6 10  1  0
  7 10  2  0
  6 11  1  0
 10 12  1  0
 11 13  2  0
 12 14  2  0
 13 14  1  0
M  END
