mac-x0344-mac-x0231
     RDKit          3D

 23 25  0  0  0  0  0  0  0  0999 V2000
   32.8640   43.3270   -5.4660 O   0  0  0  0  0  0  0  0  0  0  0  0
   32.4980   44.6820   -5.3420 C   0  0  0  0  0  0  0  0  0  0  0  0
   31.8540   45.0060   -6.5650 O   0  0  0  0  0  0  0  0  0  0  0  0
   33.7350   45.6220   -5.0800 C   0  0  0  0  0  0  0  0  0  0  0  0
   31.5000   44.7590   -4.1660 C   0  0  1  0  0  0  0  0  0  0  0  0
   34.1850   46.3620   -5.9480 O   0  0  0  0  0  0  0  0  0  0  0  0
   34.2140   45.4980   -3.7780 N   0  0  0  0  0  0  0  0  0  0  0  0
   31.0660   46.2050   -3.8640 C   0  0  1  0  0  0  0  0  0  0  0  0
   30.3240   43.9090   -4.4390 N   0  0  0  0  0  0  0  0  0  0  0  0
   35.3230   46.1440   -3.2050 C   0  0  0  0  0  0  0  0  0  0  0  0
   29.8470   46.2990   -2.8950 C   0  0  1  0  0  0  0  0  0  0  0  0
   29.5270   43.8530   -3.3070 N   0  0  0  0  0  0  0  0  0  0  0  0
   32.2410   47.0910   -3.4760 C   0  0  0  0  0  0  0  0  0  0  0  0
   36.3220   45.4760   -2.4960 C   0  0  0  0  0  0  0  0  0  0  0  0
   35.4200   47.5330   -3.3620 C   0  0  0  0  0  0  0  0  0  0  0  0
   29.0210   45.0030   -2.7280 C   0  0  0  0  0  0  0  0  0  0  0  0
   30.1700   46.9170   -1.5570 C   0  0  0  0  0  0  0  0  0  0  0  0
   32.3380   47.7050   -2.2980 C   0  0  0  0  0  0  0  0  0  0  0  0
   27.9570   44.9440   -2.1260 O   0  0  0  0  0  0  0  0  0  0  0  0
   37.3980   46.1830   -1.9540 C   0  0  0  0  0  0  0  0  0  0  0  0
   36.4970   48.2410   -2.8220 C   0  0  0  0  0  0  0  0  0  0  0  0
   31.3200   47.5620   -1.3010 C   0  0  0  0  0  0  0  0  0  0  0  0
   37.4880   47.5620   -2.1150 C   0  0  0  0  0  0  0  0  0  0  0  0
  2  1  1  0
  2  3  1  0
  2  4  1  0
  5  2  1  6
  4  6  2  0
  4  7  1  0
  5  8  1  0
  5  9  1  0
  7 10  1  0
  8 11  1  0
  9 12  1  0
  8 13  1  1
 10 14  2  0
 10 15  1  0
 11 16  1  0
 12 16  1  0
 11 17  1  1
 13 18  2  0
 16 19  2  0
 14 20  1  0
 15 21  2  0
 17 22  2  0
 18 22  1  0
 20 23  2  0
 21 23  1  0
M  END
