mac-x0365-mac-x0572
     RDKit          3D

 16 17  0  0  0  0  0  0  0  0999 V2000
   28.9790   47.9250   -5.8790 O   0  0  0  0  0  0  0  0  0  0  0  0
   29.9270   48.3930   -5.0430 C   0  0  0  0  0  0  0  0  0  0  0  0
   30.7840   47.6890   -4.5420 O   0  0  0  0  0  0  0  0  0  0  0  0
   29.8300   49.8480   -4.7820 C   0  0  0  0  0  0  0  0  0  0  0  0
   30.0210   50.2980   -3.4770 C   0  0  0  0  0  0  0  0  0  0  0  0
   29.5570   50.7600   -5.8080 C   0  0  0  0  0  0  0  0  0  0  0  0
   29.9360   51.6610   -3.2150 C   0  0  0  0  0  0  0  0  0  0  0  0
   29.4700   52.1230   -5.5540 C   0  0  0  0  0  0  0  0  0  0  0  0
   30.1210   52.0860   -1.9560 F   0  0  0  0  0  0  0  0  0  0  0  0
   29.6630   52.5870   -4.2360 C   0  0  0  0  0  0  0  0  0  0  0  0
   29.2080   52.9530   -6.5750 N   0  0  0  0  0  0  0  0  0  0  0  0
   29.1260   54.2900   -6.3270 C   0  0  0  0  0  0  0  0  0  0  0  0
   29.5750   53.9640   -3.9990 C   0  0  0  0  0  0  0  0  0  0  0  0
   28.8300   55.1790   -7.4990 C   0  0  0  0  0  0  0  0  0  0  0  0
   29.3050   54.8220   -5.0530 C   0  0  0  0  0  0  0  0  0  0  0  0
   29.2090   56.1710   -4.8600 O   0  0  0  0  0  0  0  0  0  0  0  0
  1  2  1  0
  2  3  2  0
  2  4  1  0
  4  5  2  0
  4  6  1  0
  5  7  1  0
  6  8  2  0
  7  9  1  0
  7 10  2  0
  8 10  1  0
  8 11  1  0
 11 12  2  0
 10 13  1  0
 12 14  1  0
 12 15  1  0
 13 15  2  0
 15 16  1  0
M  END
