mac-x0303-mac-x0179
     RDKit          3D

 31 34  0  0  0  0  0  0  0  0999 V2000
   30.4100   56.3270   -6.7380 N   0  0  0  0  0  0  0  0  0  0  0  0
   29.1220   55.9870   -5.7070 S   0  0  0  0  0  0  0  0  0  0  0  0
   27.8900   56.0940   -6.4510 O   0  0  0  0  0  0  0  0  0  0  0  0
   29.3500   56.6870   -4.4650 O   0  0  0  0  0  0  0  0  0  0  0  0
   29.2590   54.2730   -5.2960 C   0  0  0  0  0  0  0  0  0  0  0  0
   29.6920   53.8410   -4.0730 N   0  0  0  0  0  0  0  0  0  0  0  0
   28.9660   53.2610   -6.0970 N   0  0  0  0  0  0  0  0  0  0  0  0
   29.6820   52.4670   -4.0810 C   0  0  0  0  0  0  0  0  0  0  0  0
   29.2260   52.1350   -5.3520 C   0  0  0  0  0  0  0  0  0  0  0  0
   30.0230   51.5200   -3.1160 C   0  0  0  0  0  0  0  0  0  0  0  0
   29.0960   50.7840   -5.6990 C   0  0  0  0  0  0  0  0  0  0  0  0
   29.8910   50.1650   -3.4710 C   0  0  0  0  0  0  0  0  0  0  0  0
   29.4320   49.8080   -4.7500 C   0  0  0  0  0  0  0  0  0  0  0  0
   30.2500   49.0840   -2.4680 C   0  0  0  0  0  0  0  0  0  0  0  0
   31.7180   49.1770   -2.0290 C   0  0  0  0  0  0  0  0  0  0  0  0
   32.6810   48.6770   -3.1070 C   0  0  0  0  0  0  0  0  0  0  0  0
   33.9370   48.2510   -2.5160 N   0  0  0  0  0  0  0  0  0  0  0  0
   34.3960   47.0670   -2.3870 C   0  0  0  0  0  0  0  0  0  0  0  0
   33.9230   45.8210   -2.7240 N   0  0  0  0  0  0  0  0  0  0  0  0
   35.7050   46.8380   -1.7540 C   0  0  0  0  0  0  0  0  0  0  0  0
   32.7290   45.4440   -3.4790 C   0  0  0  0  0  0  0  0  0  0  0  0
   34.6380   44.8450   -2.0570 C   0  0  0  0  0  0  0  0  0  0  0  0
   35.8470   45.4800   -1.5540 C   0  0  0  0  0  0  0  0  0  0  0  0
   36.6920   47.7330   -1.3810 C   0  0  0  0  0  0  0  0  0  0  0  0
   32.8480   45.6180   -4.9910 C   0  0  0  0  0  0  0  0  0  0  0  0
   34.3560   43.6710   -1.8940 O   0  0  0  0  0  0  0  0  0  0  0  0
   36.9760   44.9320   -0.9730 C   0  0  0  0  0  0  0  0  0  0  0  0
   37.8480   47.2040   -0.7910 C   0  0  0  0  0  0  0  0  0  0  0  0
   31.6900   45.5150   -5.6830 O   0  0  0  0  0  0  0  0  0  0  0  0
   33.9120   45.8360   -5.5580 O   0  0  0  0  0  0  0  0  0  0  0  0
   37.9880   45.8170   -0.5890 C   0  0  0  0  0  0  0  0  0  0  0  0
  2  1  1  0
  2  3  2  0
  2  4  2  0
  2  5  1  0
  5  6  1  0
  5  7  2  0
  6  8  1  0
  7  9  1  0
  8  9  2  0
  8 10  1  0
  9 11  1  0
 10 12  2  0
 11 13  2  0
 12 13  1  0
 12 14  1  0
 14 15  1  0
 15 16  1  0
 16 17  1  0
 17 18  2  3
 18 19  1  0
 18 20  1  0
 19 21  1  0
 19 22  1  0
 20 23  2  0
 22 23  1  0
 20 24  1  0
 21 25  1  0
 22 26  2  0
 23 27  1  0
 24 28  2  0
 25 29  1  0
 25 30  2  0
 27 31  2  0
 28 31  1  0
M  END
