mac-x0387-mac-x0124
     RDKit          3D

 12 13  0  0  0  0  0  0  0  0999 V2000
   28.3750   51.2820   -7.4440 N   0  0  0  0  0  0  0  0  0  0  0  0
   28.6950   49.9140   -7.3770 C   0  0  0  0  0  0  0  0  0  0  0  0
   28.4610   49.2120   -8.5000 N   0  0  0  0  0  0  0  0  0  0  0  0
   29.2250   49.3430   -6.1940 C   0  0  0  0  0  0  0  0  0  0  0  0
   29.5210   47.9580   -6.1980 C   0  0  0  0  0  0  0  0  0  0  0  0
   28.7510   47.9000   -8.4810 C   0  0  0  0  0  0  0  0  0  0  0  0
   29.4720   50.0830   -5.0140 C   0  0  0  0  0  0  0  0  0  0  0  0
   29.2700   47.2390   -7.3810 C   0  0  0  0  0  0  0  0  0  0  0  0
   30.0520   47.3550   -5.0190 C   0  0  0  0  0  0  0  0  0  0  0  0
   29.9930   49.4870   -3.8720 C   0  0  0  0  0  0  0  0  0  0  0  0
   30.3830   45.8910   -4.9440 C   0  0  0  0  0  0  0  0  0  0  0  0
   30.2810   48.1280   -3.8760 C   0  0  0  0  0  0  0  0  0  0  0  0
  1  2  1  0
  2  3  2  0
  2  4  1  0
  4  5  2  0
  3  6  1  0
  4  7  1  0
  5  8  1  0
  6  8  2  0
  5  9  1  0
  7 10  2  0
  9 11  1  0
  9 12  2  0
 10 12  1  0
M  END
