mac-x0439-mac-x0163
     RDKit          3D

 28 31  0  0  0  0  0  0  0  0999 V2000
   26.8230   45.5040   -2.9430 Cl  0  0  0  0  0  0  0  0  0  0  0  0
   28.3730   44.9270   -2.4440 C   0  0  0  0  0  0  0  0  0  0  0  0
   29.5100   44.9330   -3.4350 C   0  0  2  0  0  0  0  0  0  0  0  0
   28.5750   44.4810   -1.1850 C   0  0  0  0  0  0  0  0  0  0  0  0
   29.2730   44.4850   -4.8560 C   0  0  0  0  0  0  0  0  0  0  0  0
   30.3300   43.6980   -3.0560 C   0  0  0  0  0  0  0  0  0  0  0  0
   29.8890   43.9990   -0.7710 C   0  0  0  0  0  0  0  0  0  0  0  0
   30.3050   46.2660   -3.4800 C   0  0  0  0  0  0  0  0  0  0  0  0
   29.8860   43.3090   -5.0780 C   0  0  0  0  0  0  0  0  0  0  0  0
   30.5460   42.8080   -3.9780 N   0  0  0  0  0  0  0  0  0  0  0  0
   30.8040   43.5960   -1.6710 C   0  0  0  0  0  0  0  0  0  0  0  0
   31.6280   46.2970   -4.2800 C   0  0  1  0  0  0  0  0  0  0  0  0
   29.8280   42.6340   -6.4040 C   0  0  0  0  0  0  0  0  0  0  0  0
   31.4030   47.0050   -5.6380 C   0  0  0  0  0  0  0  0  0  0  0  0
   32.7790   46.9740   -3.4970 C   0  0  0  0  0  0  0  0  0  0  0  0
   28.7320   41.8690   -6.5550 O   0  0  0  0  0  0  0  0  0  0  0  0
   30.6590   42.7290   -7.2920 O   0  0  0  0  0  0  0  0  0  0  0  0
   33.5400   47.9890   -4.3430 C   0  0  0  0  0  0  0  0  0  0  0  0
   31.3380   48.4470   -5.3930 N   0  0  0  0  0  0  0  0  0  0  0  0
   30.6530   49.1550   -6.4030 C   0  0  0  0  0  0  0  0  0  0  0  0
   32.6190   49.0420   -4.9800 C   0  0  0  0  0  0  0  0  0  0  0  0
   29.7710   50.1920   -6.0860 C   0  0  0  0  0  0  0  0  0  0  0  0
   30.8680   48.8060   -7.6900 N   0  0  0  0  0  0  0  0  0  0  0  0
   29.4530   50.6870   -4.4510 Cl  0  0  0  0  0  0  0  0  0  0  0  0
   29.1350   50.8380   -7.1460 C   0  0  0  0  0  0  0  0  0  0  0  0
   30.2070   49.4920   -8.6310 C   0  0  0  0  0  0  0  0  0  0  0  0
   28.2280   51.8970   -6.9370 N   0  0  0  0  0  0  0  0  0  0  0  0
   29.3480   50.4940   -8.4240 N   0  0  0  0  0  0  0  0  0  0  0  0
  1  2  1  0
  2  3  1  0
  2  4  2  0
  3  5  1  0
  3  6  1  0
  4  7  1  0
  3  8  1  6
  5  9  2  0
  6 10  2  0
  9 10  1  0
  6 11  1  0
  7 11  2  0
 12  8  1  1
  9 13  1  0
 12 14  1  0
 12 15  1  0
 13 16  1  0
 13 17  2  0
 15 18  1  0
 14 19  1  0
 19 20  1  0
 18 21  1  0
 19 21  1  0
 20 22  2  0
 20 23  1  0
 22 24  1  0
 22 25  1  0
 23 26  2  0
 25 27  1  0
 25 28  2  0
 26 28  1  0
M  END
