mac-x0283-mac-x0572
     RDKit          3D

 11 12  0  0  0  0  0  0  0  0999 V2000
   28.8900   54.4360   -6.9140 N   0  0  0  0  0  0  0  0  0  0  0  0
   29.0850   53.8100   -5.7090 C   0  0  0  0  0  0  0  0  0  0  0  0
   29.4400   54.4340   -4.5200 N   0  0  0  0  0  0  0  0  0  0  0  0
   28.9760   52.5030   -5.4340 C   0  0  0  0  0  0  0  0  0  0  0  0
   29.8950   55.7410   -4.4960 O   0  0  0  0  0  0  0  0  0  0  0  0
   29.9600   53.5170   -3.5860 O   0  0  0  0  0  0  0  0  0  0  0  0
   29.2650   52.3130   -3.9740 C   0  0  2  0  0  0  0  0  0  0  0  0
   28.6470   51.3480   -6.2280 C   0  0  0  0  0  0  0  0  0  0  0  0
   29.9750   51.0190   -3.7000 C   0  0  0  0  0  0  0  0  0  0  0  0
   29.0860   50.1450   -5.8040 C   0  0  0  0  0  0  0  0  0  0  0  0
   29.8740   50.0020   -4.5820 C   0  0  0  0  0  0  0  0  0  0  0  0
  1  2  1  0
  2  3  1  0
  2  4  2  0
  3  5  1  0
  3  6  1  0
  4  7  1  0
  6  7  1  0
  4  8  1  0
  7  9  1  6
  8 10  2  0
  9 11  2  0
 10 11  1  0
M  END
