mac-x0385-mac-x0380
     RDKit          3D

 23 25  0  0  0  0  0  0  0  0999 V2000
   30.9990   50.7240   -4.7660 C   0  0  0  0  0  0  0  0  0  0  0  0
   30.4160   49.6040   -5.5740 C   0  0  0  0  0  0  0  0  0  0  0  0
   30.9500   48.3390   -5.4970 C   0  0  0  0  0  0  0  0  0  0  0  0
   29.3230   49.7480   -6.4340 C   0  0  0  0  0  0  0  0  0  0  0  0
   28.7320   51.0300   -6.5290 N   0  0  0  0  0  0  0  0  0  0  0  0
   28.8350   48.7150   -7.1360 N   0  0  0  0  0  0  0  0  0  0  0  0
   30.4840   47.2850   -6.1840 N   0  0  0  0  0  0  0  0  0  0  0  0
   29.4330   47.5230   -6.9840 C   0  0  0  0  0  0  0  0  0  0  0  0
   28.4780   51.6640   -5.2970 C   0  0  0  0  0  0  0  0  0  0  0  0
   28.8850   46.3720   -7.7630 C   0  0  0  0  0  0  0  0  0  0  0  0
   28.2430   53.0500   -5.1800 C   0  0  0  0  0  0  0  0  0  0  0  0
   28.4730   50.8590   -4.1640 C   0  0  0  0  0  0  0  0  0  0  0  0
   28.2480   51.3880   -2.9090 C   0  0  0  0  0  0  0  0  0  0  0  0
   28.0130   53.5970   -3.9070 C   0  0  0  0  0  0  0  0  0  0  0  0
   28.2520   53.8370   -6.3420 N   0  0  0  0  0  0  0  0  0  0  0  0
   28.2550   50.5080   -1.7190 C   0  0  0  0  0  0  0  0  0  0  0  0
   28.0170   52.7630   -2.7760 C   0  0  0  0  0  0  0  0  0  0  0  0
   28.2840   55.2020   -6.3960 C   0  0  0  0  0  0  0  0  0  0  0  0
   27.7190   55.3370   -3.6790 S   0  0  0  0  0  0  0  0  0  0  0  0
   27.7910   49.2750   -1.9820 O   0  0  0  0  0  0  0  0  0  0  0  0
   28.6370   50.8120   -0.6060 O   0  0  0  0  0  0  0  0  0  0  0  0
   28.0590   55.7800   -7.4610 O   0  0  0  0  0  0  0  0  0  0  0  0
   28.5920   55.9630   -5.1280 C   0  0  0  0  0  0  0  0  0  0  0  0
  1  2  1  0
  2  3  2  0
  2  4  1  0
  4  5  1  0
  4  6  2  0
  3  7  1  0
  6  8  1  0
  7  8  2  0
  5  9  1  0
  8 10  1  0
  9 11  1  0
  9 12  2  0
 12 13  1  0
 11 14  2  0
 11 15  1  0
 13 16  1  0
 13 17  2  0
 14 17  1  0
 15 18  1  0
 14 19  1  0
 16 20  1  0
 16 21  2  0
 18 22  2  0
 18 23  1  0
 19 23  1  0
M  END
