mac-x0319-mac-x0284
     RDKit          3D

 22 23  0  0  0  0  0  0  0  0999 V2000
   34.5330   45.3010   -6.2460 O   0  0  0  0  0  0  0  0  0  0  0  0
   33.1820   45.2790   -6.2170 C   0  0  0  0  0  0  0  0  0  0  0  0
   32.5410   44.4570   -6.8610 O   0  0  0  0  0  0  0  0  0  0  0  0
   32.5410   46.3450   -5.3490 C   0  0  0  0  0  0  0  0  0  0  0  0
   31.7490   45.8440   -4.1570 C   0  0  0  0  0  0  0  0  0  0  0  0
   30.3570   45.6290   -4.1560 C   0  0  0  0  0  0  0  0  0  0  0  0
   32.4290   45.5790   -2.9610 C   0  0  0  0  0  0  0  0  0  0  0  0
   29.5440   45.8610   -5.2590 O   0  0  0  0  0  0  0  0  0  0  0  0
   29.6790   45.1650   -3.0230 C   0  0  0  0  0  0  0  0  0  0  0  0
   31.7510   45.1230   -1.8270 C   0  0  0  0  0  0  0  0  0  0  0  0
   28.3250   44.9690   -3.0960 O   0  0  0  0  0  0  0  0  0  0  0  0
   29.8260   47.0490   -5.9030 C   0  0  0  0  0  0  0  0  0  0  0  0
   30.3730   44.9120   -1.8530 C   0  0  0  0  0  0  0  0  0  0  0  0
   30.1440   47.1410   -7.0810 O   0  0  0  0  0  0  0  0  0  0  0  0
   29.6900   48.2390   -5.0100 C   0  0  0  0  0  0  0  0  0  0  0  0
   29.0110   49.3170   -5.6000 C   0  0  0  0  0  0  0  0  0  0  0  0
   30.1620   48.3840   -3.6860 C   0  0  0  0  0  0  0  0  0  0  0  0
   30.8410   47.4550   -2.9500 O   0  0  0  0  0  0  0  0  0  0  0  0
   28.7990   50.5140   -4.9060 C   0  0  0  0  0  0  0  0  0  0  0  0
   29.9510   49.5760   -2.9960 C   0  0  0  0  0  0  0  0  0  0  0  0
   28.0720   51.6490   -5.5590 C   0  0  0  0  0  0  0  0  0  0  0  0
   29.2740   50.6360   -3.5980 C   0  0  0  0  0  0  0  0  0  0  0  0
  1  2  1  0
  2  3  2  0
  2  4  1  0
  4  5  1  0
  5  6  2  0
  5  7  1  0
  6  8  1  0
  6  9  1  0
  7 10  2  0
  9 11  1  0
  8 12  1  0
  9 13  2  0
 10 13  1  0
 12 14  2  0
 12 15  1  0
 15 16  2  0
 15 17  1  0
 17 18  1  0
 16 19  1  0
 17 20  2  0
 19 21  1  0
 19 22  2  0
 20 22  1  0
M  END
