mac-x0348-mac-x0277
     RDKit          3D

 17 18  0  0  0  0  0  0  0  0999 V2000
   27.4250   44.7410   -0.4660 C   0  0  0  0  0  0  0  0  0  0  0  0
   28.1960   45.7700   -1.1460 N   0  0  0  0  0  0  0  0  0  0  0  0
   28.4620   45.6750   -2.4820 C   0  0  0  0  0  0  0  0  0  0  0  0
   29.4170   46.2510   -0.4960 C   0  0  1  0  0  0  0  0  0  0  0  0
   27.2980   44.8410   -3.3430 Cl  0  0  0  0  0  0  0  0  0  0  0  0
   29.5990   46.2580   -2.9110 C   0  0  0  0  0  0  0  0  0  0  0  0
   30.2280   46.9110   -1.6850 C   0  0  2  0  0  0  0  0  0  0  0  0
   29.0520   47.1980    0.6090 C   0  0  0  0  0  0  0  0  0  0  0  0
   30.1580   46.3000   -4.3170 C   0  0  0  0  0  0  0  0  0  0  0  0
   31.9440   46.5330   -1.4530 Cl  0  0  0  0  0  0  0  0  0  0  0  0
   30.2120   48.4130   -1.6980 C   0  0  0  0  0  0  0  0  0  0  0  0
   29.2170   48.5230    0.5140 C   0  0  0  0  0  0  0  0  0  0  0  0
   31.6410   45.9410   -4.4790 C   0  0  0  0  0  0  0  0  0  0  0  0
   29.7510   49.1380   -0.6760 C   0  0  0  0  0  0  0  0  0  0  0  0
   32.1310   46.1630   -5.8840 C   0  0  0  0  0  0  0  0  0  0  0  0
   31.4870   46.0030   -6.9070 O   0  0  0  0  0  0  0  0  0  0  0  0
   33.4110   46.5770   -5.9390 O   0  0  0  0  0  0  0  0  0  0  0  0
  1  2  1  0
  2  3  1  0
  2  4  1  0
  3  5  1  0
  3  6  2  0
  4  7  1  0
  6  7  1  0
  4  8  1  1
  6  9  1  0
  7 10  1  1
  7 11  1  0
  8 12  2  0
  9 13  1  0
 11 14  2  0
 12 14  1  0
 13 15  1  0
 15 16  2  0
 15 17  1  0
M  END
