mac-x0346-mac-x0567
     RDKit          3D

 16 17  0  0  0  0  0  0  0  0999 V2000
   29.0450   55.0400   -5.2890 O   0  0  0  0  0  0  0  0  0  0  0  0
   30.0400   54.5140   -4.4330 N   0  0  0  0  0  0  0  0  0  0  0  0
   29.7490   53.3150   -3.8060 C   0  0  0  0  0  0  0  0  0  0  0  0
   30.1650   53.0870   -2.6740 O   0  0  0  0  0  0  0  0  0  0  0  0
   28.8900   52.3320   -4.6140 C   0  0  2  0  0  0  0  0  0  0  0  0
   29.4130   50.9080   -4.3690 C   0  0  1  0  0  0  0  0  0  0  0  0
   28.8320   52.6140   -6.0940 C   0  0  0  0  0  0  0  0  0  0  0  0
   29.4050   50.5970   -2.9680 O   0  0  0  0  0  0  0  0  0  0  0  0
   28.5360   49.9380   -5.1500 C   0  0  0  0  0  0  0  0  0  0  0  0
   28.7800   51.6310   -7.0050 C   0  0  0  0  0  0  0  0  0  0  0  0
   28.7710   50.1600   -6.6500 C   0  0  2  0  0  0  0  0  0  0  0  0
   27.7530   49.5210   -7.4810 N   0  0  0  0  0  0  0  0  0  0  0  0
   30.0660   49.4410   -7.0280 C   0  0  0  0  0  0  0  0  0  0  0  0
   29.7370   48.6210   -8.2630 C   0  0  2  0  0  0  0  0  0  0  0  0
   28.4470   49.1340   -8.7030 N   0  0  0  0  0  0  0  0  0  0  0  0
   29.5210   47.2190   -7.9760 N   0  0  0  0  0  0  0  0  0  0  0  0
  1  2  1  0
  2  3  1  0
  3  4  2  0
  5  3  1  1
  5  6  1  0
  5  7  1  0
  6  8  1  1
  6  9  1  0
  7 10  2  0
 11  9  1  1
 11 10  1  0
 11 12  1  0
 11 13  1  0
 13 14  1  0
 12 15  1  0
 14 15  1  0
 14 16  1  1
M  END
