mac-x0124-mac-x0373
     RDKit          3D

 20 22  0  0  0  0  0  0  0  0999 V2000
   30.3520   46.3840   -5.1240 C   0  0  0  0  0  0  0  0  0  0  0  0
   31.1040   46.0070   -6.2720 O   0  0  0  0  0  0  0  0  0  0  0  0
   29.2310   45.5000   -5.1210 O   0  0  0  0  0  0  0  0  0  0  0  0
   31.1700   46.1410   -3.8340 C   0  0  0  0  0  0  0  0  0  0  0  0
   29.8820   47.7710   -5.2650 N   0  0  0  0  0  0  0  0  0  0  0  0
   29.9730   48.7610   -4.3070 C   0  0  0  0  0  0  0  0  0  0  0  0
   29.2750   48.2950   -6.3870 C   0  0  0  0  0  0  0  0  0  0  0  0
   32.4680   46.9130   -3.7030 C   0  0  0  0  0  0  0  0  0  0  0  0
   29.4240   49.9120   -4.8230 C   0  0  0  0  0  0  0  0  0  0  0  0
   28.9780   49.6290   -6.1410 C   0  0  0  0  0  0  0  0  0  0  0  0
   29.0190   47.6150   -7.5230 N   0  0  0  0  0  0  0  0  0  0  0  0
   33.3910   46.5750   -2.7030 C   0  0  0  0  0  0  0  0  0  0  0  0
   32.7690   47.9740   -4.5700 C   0  0  0  0  0  0  0  0  0  0  0  0
   28.3510   50.3370   -7.1770 C   0  0  0  0  0  0  0  0  0  0  0  0
   28.4170   48.4000   -8.4400 C   0  0  0  0  0  0  0  0  0  0  0  0
   34.5890   47.2830   -2.5750 C   0  0  0  0  0  0  0  0  0  0  0  0
   33.9680   48.6810   -4.4390 C   0  0  0  0  0  0  0  0  0  0  0  0
   27.9920   51.6720   -7.0860 N   0  0  0  0  0  0  0  0  0  0  0  0
   28.0750   49.7000   -8.3310 N   0  0  0  0  0  0  0  0  0  0  0  0
   34.8760   48.3330   -3.4420 C   0  0  0  0  0  0  0  0  0  0  0  0
  1  2  1  0
  1  3  1  0
  1  4  1  0
  1  5  1  0
  5  6  1  0
  5  7  1  0
  4  8  1  0
  6  9  2  0
  7 10  2  0
  9 10  1  0
  7 11  1  0
  8 12  2  0
  8 13  1  0
 10 14  1  0
 11 15  2  0
 12 16  1  0
 13 17  2  0
 14 18  1  0
 14 19  2  0
 15 19  1  0
 16 20  2  0
 17 20  1  0
M  END
