mac-x0357-mac-x0417
     RDKit          3D

 18 19  0  0  0  0  0  0  0  0999 V2000
   32.4850   43.4430   -4.4710 C   0  0  0  0  0  0  0  0  0  0  0  0
   33.6070   44.4340   -4.4980 C   0  0  2  0  0  0  0  0  0  0  0  0
   34.6720   44.2870   -3.4820 C   0  0  2  0  0  0  0  0  0  0  0  0
   33.1410   45.8770   -4.6910 C   0  0  2  0  0  0  0  0  0  0  0  0
   34.1410   43.7480   -2.3280 O   0  0  0  0  0  0  0  0  0  0  0  0
   31.9200   45.9910   -5.6960 S   0  0  0  0  0  0  0  0  0  0  0  0
   34.4030   46.5660   -4.9680 C   0  0  0  0  0  0  0  0  0  0  0  0
   35.5460   45.5220   -3.1450 C   0  0  1  0  0  0  0  0  0  0  0  0
   30.9510   47.4560   -5.6340 O   0  0  0  0  0  0  0  0  0  0  0  0
   31.5040   44.9210   -6.8110 O   0  0  0  0  0  0  0  0  0  0  0  0
   32.7040   46.7120   -6.7110 O   0  0  0  0  0  0  0  0  0  0  0  0
   30.8540   45.4450   -4.6420 C   0  0  0  0  0  0  0  0  0  0  0  0
   35.4700   46.4290   -4.3260 C   0  0  0  0  0  0  0  0  0  0  0  0
   35.1450   46.4450   -2.0910 C   0  0  0  0  0  0  0  0  0  0  0  0
   36.9310   45.1040   -2.9480 C   0  0  0  0  0  0  0  0  0  0  0  0
   37.8250   45.8590   -2.3960 C   0  0  0  0  0  0  0  0  0  0  0  0
   36.1520   47.4500   -1.8160 C   0  0  0  0  0  0  0  0  0  0  0  0
   37.4310   47.2130   -1.9480 C   0  0  0  0  0  0  0  0  0  0  0  0
  2  1  1  1
  2  3  1  0
  2  4  1  0
  3  5  1  1
  4  6  1  6
  4  7  1  0
  3  8  1  0
  6  9  2  0
  6 10  1  0
  6 11  1  0
  6 12  1  0
  7 13  2  0
  8 13  1  6
  8 14  1  0
  8 15  1  0
 15 16  2  0
 14 17  1  0
 16 18  1  0
 17 18  2  0
M  END
