mac-x0115-mac-x0255
     RDKit          3D

 29 32  0  0  0  0  0  0  0  0999 V2000
   27.1040   45.8210   -2.6170 C   0  0  0  0  0  0  0  0  0  0  0  0
   26.9310   44.3720   -3.0610 C   0  0  0  0  0  0  0  0  0  0  0  0
   25.4570   43.9880   -3.0510 C   0  0  0  0  0  0  0  0  0  0  0  0
   27.3960   44.2010   -4.4030 O   0  0  0  0  0  0  0  0  0  0  0  0
   28.7930   43.9050   -4.4980 C   0  0  0  0  0  0  0  0  0  0  0  0
   29.6290   44.9460   -3.8050 C   0  0  0  0  0  0  0  0  0  0  0  0
   30.2040   46.0540   -4.4130 C   0  0  0  0  0  0  0  0  0  0  0  0
   29.9400   44.9080   -2.3850 C   0  0  0  0  0  0  0  0  0  0  0  0
   30.1590   46.4710   -5.7480 N   0  0  0  0  0  0  0  0  0  0  0  0
   30.7300   45.9930   -1.9940 C   0  0  0  0  0  0  0  0  0  0  0  0
   31.0820   47.0180   -3.3220 S   0  0  0  0  0  0  0  0  0  0  0  0
   29.5750   43.9750   -1.3800 C   0  0  0  0  0  0  0  0  0  0  0  0
   30.7880   45.7960   -6.7920 C   0  0  0  0  0  0  0  0  0  0  0  0
   29.4590   47.6200   -6.0410 C   0  0  0  0  0  0  0  0  0  0  0  0
   29.9910   44.1390   -0.0580 C   0  0  0  0  0  0  0  0  0  0  0  0
   31.1530   46.1660   -0.6640 C   0  0  0  0  0  0  0  0  0  0  0  0
   31.5590   44.1620   -6.6290 S   0  0  0  0  0  0  0  0  0  0  0  0
   30.7910   46.4680   -8.0150 N   0  0  0  0  0  0  0  0  0  0  0  0
   28.7900   47.6840   -7.3670 C   0  0  2  0  0  0  0  0  0  0  0  0
   29.2670   48.7330   -5.3350 C   0  0  0  0  0  0  0  0  0  0  0  0
   30.7750   45.2270    0.3000 C   0  0  0  0  0  0  0  0  0  0  0  0
   29.8260   47.3870   -8.4330 C   0  0  0  0  0  0  0  0  0  0  0  0
   28.1550   49.0250   -7.4160 N   0  0  0  0  0  0  0  0  0  0  0  0
   28.4590   49.5310   -6.2580 C   0  0  0  0  0  0  0  0  0  0  0  0
   31.7350   44.7440   -8.3380 C   0  0  0  0  0  0  0  0  0  0  0  0
   29.8640   47.8760   -9.5620 O   0  0  0  0  0  0  0  0  0  0  0  0
   33.0110   45.3510   -8.5190 O   0  0  0  0  0  0  0  0  0  0  0  0
   33.9850   44.4720   -8.8710 C   0  0  0  0  0  0  0  0  0  0  0  0
   35.1390   44.7450   -9.1610 O   0  0  0  0  0  0  0  0  0  0  0  0
  1  2  1  0
  2  3  1  0
  2  4  1  0
  4  5  1  0
  5  6  1  0
  6  7  2  0
  6  8  1  0
  7  9  1  0
  8 10  2  0
  7 11  1  0
 10 11  1  0
  8 12  1  0
  9 13  1  0
  9 14  1  0
 12 15  2  0
 10 16  1  0
 13 17  2  3
 13 18  1  0
 14 19  1  0
 14 20  2  0
 15 21  1  0
 16 21  2  0
 18 22  1  0
 19 22  1  0
 19 23  1  6
 20 24  1  0
 23 24  2  0
 17 25  1  0
 22 26  2  0
 25 27  1  0
 27 28  1  0
 28 29  2  0
M  END
