mac-x0178-mac-x0437
     RDKit          3D

 25 27  0  0  0  0  0  0  0  0999 V2000
   28.3690   45.0690   -0.3060 N   0  0  0  0  0  0  0  0  0  0  0  0
   28.7410   46.6720   -0.6600 S   0  0  0  0  0  0  0  0  0  0  0  0
   29.6990   47.1360    0.3150 O   0  0  0  0  0  0  0  0  0  0  0  0
   27.4770   47.3310   -0.8860 O   0  0  0  0  0  0  0  0  0  0  0  0
   29.5700   46.5170   -2.2200 C   0  0  0  0  0  0  0  0  0  0  0  0
   29.2600   45.4490   -3.0660 C   0  0  0  0  0  0  0  0  0  0  0  0
   30.5270   47.4640   -2.5900 C   0  0  0  0  0  0  0  0  0  0  0  0
   29.9180   45.3320   -4.2920 C   0  0  0  0  0  0  0  0  0  0  0  0
   31.1820   47.3430   -3.8180 C   0  0  0  0  0  0  0  0  0  0  0  0
   30.8850   46.2760   -4.6770 C   0  0  0  0  0  0  0  0  0  0  0  0
   31.5510   46.0820   -5.9890 C   0  0  0  0  0  0  0  0  0  0  0  0
   31.0460   46.4940   -7.0300 O   0  0  0  0  0  0  0  0  0  0  0  0
   32.8820   45.3560   -6.0870 C   0  0  0  0  0  0  0  0  0  0  0  0
   33.6880   45.6390   -6.9660 O   0  0  0  0  0  0  0  0  0  0  0  0
   33.1330   44.2840   -5.0520 C   0  0  0  0  0  0  0  0  0  0  0  0
   33.1170   44.8480   -3.6370 C   0  0  0  0  0  0  0  0  0  0  0  0
   34.2680   45.6870   -3.3750 N   0  0  0  0  0  0  0  0  0  0  0  0
   34.3110   47.0470   -3.5180 C   0  0  0  0  0  0  0  0  0  0  0  0
   35.4920   45.2610   -2.9440 C   0  0  0  0  0  0  0  0  0  0  0  0
   35.4930   47.5280   -3.2070 N   0  0  0  0  0  0  0  0  0  0  0  0
   36.2390   46.4330   -2.8480 C   0  0  0  0  0  0  0  0  0  0  0  0
   36.0100   44.0000   -2.6350 C   0  0  0  0  0  0  0  0  0  0  0  0
   37.5720   46.3620   -2.4270 C   0  0  0  0  0  0  0  0  0  0  0  0
   37.3430   43.9510   -2.2160 C   0  0  0  0  0  0  0  0  0  0  0  0
   38.1140   45.1100   -2.1130 C   0  0  0  0  0  0  0  0  0  0  0  0
  2  1  1  0
  2  3  2  0
  2  4  2  0
  2  5  1  0
  5  6  2  0
  5  7  1  0
  6  8  1  0
  7  9  2  0
  8 10  2  0
  9 10  1  0
 10 11  1  0
 11 12  2  0
 11 13  1  0
 13 14  2  0
 13 15  1  0
 15 16  1  0
 16 17  1  0
 17 18  1  0
 17 19  1  0
 18 20  2  0
 19 21  2  0
 20 21  1  0
 19 22  1  0
 21 23  1  0
 22 24  2  0
 23 25  2  0
 24 25  1  0
M  END
