mac-x0148-mac-x0437
     RDKit          3D

 32 37  0  0  0  0  0  0  0  0999 V2000
   33.0490   43.9220   -7.2800 O   0  0  0  0  0  0  0  0  0  0  0  0
   33.9170   44.6330   -6.5280 C   0  0  0  0  0  0  0  0  0  0  0  0
   34.5250   45.5900   -6.9780 O   0  0  0  0  0  0  0  0  0  0  0  0
   34.0650   44.1320   -5.1130 C   0  0  0  0  0  0  0  0  0  0  0  0
   33.6120   45.1810   -4.0520 C   0  0  2  0  0  0  0  0  0  0  0  0
   32.4960   46.1830   -4.5360 C   0  0  2  0  0  0  0  0  0  0  0  0
   34.8000   45.8460   -3.4960 N   0  0  0  0  0  0  0  0  0  0  0  0
   31.6150   46.7560   -3.4020 C   0  0  1  0  0  0  0  0  0  0  0  0
   31.5010   45.5300   -5.5510 C   0  0  0  0  0  0  0  0  0  0  0  0
   35.1100   47.1810   -3.6240 C   0  0  0  0  0  0  0  0  0  0  0  0
   35.8030   45.2570   -2.7550 C   0  0  0  0  0  0  0  0  0  0  0  0
   32.2160   47.5750   -2.2700 C   0  0  0  0  0  0  0  0  0  0  0  0
   30.6390   47.7860   -3.9550 C   0  0  2  0  0  0  0  0  0  0  0  0
   30.0110   45.7680   -5.2330 C   0  0  0  0  0  0  0  0  0  0  0  0
   36.2360   47.4820   -3.0210 N   0  0  0  0  0  0  0  0  0  0  0  0
   36.6790   46.3030   -2.4770 C   0  0  0  0  0  0  0  0  0  0  0  0
   36.0280   43.9440   -2.3110 C   0  0  0  0  0  0  0  0  0  0  0  0
   31.1010   48.2950   -1.6960 O   0  0  0  0  0  0  0  0  0  0  0  0
   30.0200   48.2730   -2.6510 C   0  0  0  0  0  0  0  0  0  0  0  0
   29.7290   47.1860   -4.9480 N   0  0  0  0  0  0  0  0  0  0  0  0
   37.8400   46.0550   -1.7240 C   0  0  0  0  0  0  0  0  0  0  0  0
   37.1940   43.7180   -1.5600 C   0  0  0  0  0  0  0  0  0  0  0  0
   29.0140   47.9740   -5.8690 C   0  0  0  0  0  0  0  0  0  0  0  0
   38.0830   44.7530   -1.2710 C   0  0  0  0  0  0  0  0  0  0  0  0
   28.2120   47.3790   -6.8260 N   0  0  0  0  0  0  0  0  0  0  0  0
   29.0330   49.3270   -5.9150 C   0  0  0  0  0  0  0  0  0  0  0  0
   27.4960   48.0940   -7.7450 C   0  0  0  0  0  0  0  0  0  0  0  0
   28.2290   50.0430   -6.9440 C   0  0  0  0  0  0  0  0  0  0  0  0
   29.6560   50.4010   -5.2050 C   0  0  0  0  0  0  0  0  0  0  0  0
   27.4620   49.3800   -7.8580 N   0  0  0  0  0  0  0  0  0  0  0  0
   28.3490   51.3400   -6.8640 N   0  0  0  0  0  0  0  0  0  0  0  0
   29.2190   51.5280   -5.8030 C   0  0  0  0  0  0  0  0  0  0  0  0
  1  2  1  0
  2  3  2  0
  2  4  1  0
  5  4  1  6
  5  6  1  0
  5  7  1  0
  6  8  1  0
  6  9  1  6
  7 10  1  0
  7 11  1  0
  8 12  1  1
  8 13  1  0
  9 14  1  0
 10 15  2  0
 11 16  2  0
 15 16  1  0
 11 17  1  0
 12 18  1  0
 13 19  1  1
 18 19  1  0
 13 20  1  0
 14 20  1  0
 16 21  1  0
 17 22  2  0
 20 23  1  0
 21 24  2  0
 22 24  1  0
 23 25  1  0
 23 26  2  0
 25 27  1  0
 26 28  1  0
 26 29  1  0
 27 30  2  0
 28 30  1  0
 28 31  2  0
 29 32  2  0
 31 32  1  0
M  END
