mac-x0321-mac-x0417
     RDKit          3D

 24 26  0  0  0  0  0  0  0  0999 V2000
   28.5140   52.0710   -7.0180 Cl  0  0  0  0  0  0  0  0  0  0  0  0
   29.0840   51.3920   -5.5430 C   0  0  0  0  0  0  0  0  0  0  0  0
   29.4620   50.0510   -5.4950 C   0  0  0  0  0  0  0  0  0  0  0  0
   29.1630   52.1940   -4.4040 C   0  0  0  0  0  0  0  0  0  0  0  0
   29.9270   49.5000   -4.2910 C   0  0  0  0  0  0  0  0  0  0  0  0
   29.6240   51.6510   -3.2050 C   0  0  0  0  0  0  0  0  0  0  0  0
   30.3210   48.0630   -4.2720 C   0  0  0  0  0  0  0  0  0  0  0  0
   30.0050   50.3080   -3.1480 C   0  0  0  0  0  0  0  0  0  0  0  0
   30.4360   47.5640   -5.5270 O   0  0  0  0  0  0  0  0  0  0  0  0
   30.5120   47.4450   -3.2360 O   0  0  0  0  0  0  0  0  0  0  0  0
   31.7840   47.2950   -5.9310 C   0  0  0  0  0  0  0  0  0  0  0  0
   31.9970   45.8890   -6.0860 O   0  0  0  0  0  0  0  0  0  0  0  0
   33.1940   45.4650   -5.5850 C   0  0  0  0  0  0  0  0  0  0  0  0
   34.2000   45.2920   -6.2630 O   0  0  0  0  0  0  0  0  0  0  0  0
   33.0640   45.2570   -4.0940 C   0  0  0  0  0  0  0  0  0  0  0  0
   34.3620   45.0130   -3.4120 C   0  0  0  0  0  0  0  0  0  0  0  0
   34.6920   43.7700   -3.0230 N   0  0  0  0  0  0  0  0  0  0  0  0
   35.3830   45.9460   -3.0770 C   0  0  0  0  0  0  0  0  0  0  0  0
   35.9400   43.8780   -2.4280 O   0  0  0  0  0  0  0  0  0  0  0  0
   36.3480   45.1740   -2.4610 C   0  0  0  0  0  0  0  0  0  0  0  0
   35.6060   47.3280   -3.2160 C   0  0  0  0  0  0  0  0  0  0  0  0
   37.5510   45.6700   -1.9580 C   0  0  0  0  0  0  0  0  0  0  0  0
   36.8070   47.8620   -2.7200 C   0  0  0  0  0  0  0  0  0  0  0  0
   37.7580   47.0460   -2.1040 C   0  0  0  0  0  0  0  0  0  0  0  0
  1  2  1  0
  2  3  2  0
  2  4  1  0
  3  5  1  0
  4  6  2  0
  5  7  1  0
  5  8  2  0
  6  8  1  0
  7  9  1  0
  7 10  2  0
  9 11  1  0
 11 12  1  0
 12 13  1  0
 13 14  2  0
 13 15  1  0
 15 16  1  0
 16 17  2  0
 16 18  1  0
 17 19  1  0
 18 20  2  0
 19 20  1  0
 18 21  1  0
 20 22  1  0
 21 23  2  0
 22 24  2  0
 23 24  1  0
M  END
