mac-x0415-mac-x0510
     RDKit          3D

 27 30  0  0  0  0  0  0  0  0999 V2000
   33.7650   46.5560   -5.8850 O   0  0  0  0  0  0  0  0  0  0  0  0
   32.6410   45.8040   -5.8190 C   0  0  0  0  0  0  0  0  0  0  0  0
   31.8230   45.7860   -6.7270 O   0  0  0  0  0  0  0  0  0  0  0  0
   32.5070   45.0050   -4.5360 C   0  0  0  0  0  0  0  0  0  0  0  0
   31.1540   45.0780   -3.9320 C   0  0  0  0  0  0  0  0  0  0  0  0
   30.1590   44.0020   -4.1030 C   0  0  0  0  0  0  0  0  0  0  0  0
   30.4690   45.9170   -3.1560 C   0  0  0  0  0  0  0  0  0  0  0  0
   28.9900   44.1220   -3.5350 N   0  0  0  0  0  0  0  0  0  0  0  0
   29.0720   45.4510   -2.9060 C   0  0  1  0  0  0  0  0  0  0  0  0
   30.8350   47.1640   -2.5440 C   0  0  0  0  0  0  0  0  0  0  0  0
   28.6910   45.6010   -1.4740 C   0  0  0  0  0  0  0  0  0  0  0  0
   30.2470   47.4910   -1.3710 C   0  0  0  0  0  0  0  0  0  0  0  0
   30.5820   48.6760   -0.7550 O   0  0  0  0  0  0  0  0  0  0  0  0
   29.2630   46.5930   -0.7530 C   0  0  0  0  0  0  0  0  0  0  0  0
   30.9000   49.8090   -1.5640 C   0  0  0  0  0  0  0  0  0  0  0  0
   29.7620   50.3080   -2.4630 C   0  0  0  0  0  0  0  0  0  0  0  0
   29.5900   49.4690   -3.6380 N   0  0  0  0  0  0  0  0  0  0  0  0
   29.2830   49.9110   -4.7940 C   0  0  0  0  0  0  0  0  0  0  0  0
   29.0600   49.2730   -6.0550 C   0  0  0  0  0  0  0  0  0  0  0  0
   29.1280   51.2780   -4.8500 N   0  0  0  0  0  0  0  0  0  0  0  0
   28.9120   52.0430   -5.9730 C   0  0  0  0  0  0  0  0  0  0  0  0
   28.7950   50.0090   -7.1840 C   0  0  0  0  0  0  0  0  0  0  0  0
   29.0310   47.9830   -6.5090 N   0  0  0  0  0  0  0  0  0  0  0  0
   28.8830   53.2700   -5.9120 O   0  0  0  0  0  0  0  0  0  0  0  0
   28.7320   51.3670   -7.1500 N   0  0  0  0  0  0  0  0  0  0  0  0
   28.6090   49.2470   -8.2910 N   0  0  0  0  0  0  0  0  0  0  0  0
   28.7570   48.0170   -7.8530 C   0  0  0  0  0  0  0  0  0  0  0  0
  1  2  1  0
  2  3  2  0
  2  4  1  0
  4  5  1  0
  5  6  1  0
  5  7  2  0
  6  8  2  0
  7  9  1  0
  8  9  1  0
  7 10  1  0
  9 11  1  1
 10 12  2  0
 12 13  1  0
 11 14  2  0
 12 14  1  0
 13 15  1  0
 15 16  1  0
 16 17  1  0
 17 18  2  3
 18 19  1  0
 18 20  1  0
 20 21  1  0
 19 22  2  0
 19 23  1  0
 21 24  2  0
 21 25  1  0
 22 25  1  0
 22 26  1  0
 23 27  1  0
 26 27  2  0
M  END
