mac-x0344-mac-x0436
     RDKit          3D

 16 18  0  0  0  0  0  0  0  0999 V2000
   32.4670   46.3780   -4.3550 O   0  0  0  0  0  0  0  0  0  0  0  0
   32.2680   45.2250   -5.0410 C   0  0  0  0  0  0  0  0  0  0  0  0
   31.1840   44.6750   -5.1560 O   0  0  0  0  0  0  0  0  0  0  0  0
   33.7010   46.7320   -3.8170 C   0  0  0  0  0  0  0  0  0  0  0  0
   33.5420   44.6460   -5.6860 C   0  0  0  0  0  0  0  0  0  0  0  0
   34.8360   46.0290   -3.6290 C   0  0  0  0  0  0  0  0  0  0  0  0
   34.0150   48.1090   -3.2780 C   0  0  0  0  0  0  0  0  0  0  0  0
   33.6940   44.8350   -6.8870 O   0  0  0  0  0  0  0  0  0  0  0  0
   34.4590   43.9450   -4.9250 N   0  0  0  0  0  0  0  0  0  0  0  0
   33.5100   49.1570   -3.6580 O   0  0  0  0  0  0  0  0  0  0  0  0
   35.0420   44.6130   -3.9860 C   0  0  0  0  0  0  0  0  0  0  0  0
   35.0580   47.9210   -2.1980 C   0  0  1  0  0  0  0  0  0  0  0  0
   35.7760   46.9250   -3.0430 C   0  0  0  0  0  0  0  0  0  0  0  0
   37.0950   47.1090   -3.0660 C   0  0  0  0  0  0  0  0  0  0  0  0
   36.2010   48.7840   -1.7700 C   0  0  0  0  0  0  0  0  0  0  0  0
   37.3580   48.2870   -2.2610 C   0  0  0  0  0  0  0  0  0  0  0  0
  1  2  1  0
  2  3  2  0
  1  4  1  0
  2  5  1  0
  4  6  2  0
  4  7  1  0
  5  8  2  0
  5  9  1  0
  7 10  2  0
  6 11  1  0
  9 11  2  0
  7 12  1  0
  6 13  1  0
 12 13  1  0
 13 14  2  0
 12 15  1  6
 14 16  1  0
 15 16  2  0
M  END
