mac-x0178-mac-x0124
     RDKit          3D

 23 25  0  0  0  0  0  0  0  0999 V2000
   28.5920   44.6730   -0.1640 N   0  0  0  0  0  0  0  0  0  0  0  0
   29.0490   46.2630   -0.4500 S   0  0  0  0  0  0  0  0  0  0  0  0
   29.9460   46.6980    0.5890 O   0  0  0  0  0  0  0  0  0  0  0  0
   27.8250   46.9770   -0.7600 O   0  0  0  0  0  0  0  0  0  0  0  0
   29.9720   46.1410   -1.9570 C   0  0  0  0  0  0  0  0  0  0  0  0
   29.6700   47.0470   -2.9110 C   0  0  0  0  0  0  0  0  0  0  0  0
   30.9630   45.1990   -2.2030 C   0  0  0  0  0  0  0  0  0  0  0  0
   30.3250   47.0610   -4.1240 C   0  0  0  0  0  0  0  0  0  0  0  0
   31.6290   45.1950   -3.4460 C   0  0  0  0  0  0  0  0  0  0  0  0
   31.3170   46.1310   -4.4400 C   0  0  0  0  0  0  0  0  0  0  0  0
   29.8570   48.1220   -4.8780 N   0  0  0  0  0  0  0  0  0  0  0  0
   32.0840   46.0360   -5.7120 C   0  0  0  0  0  0  0  0  0  0  0  0
   29.9160   49.3570   -4.2670 C   0  0  0  0  0  0  0  0  0  0  0  0
   29.3200   48.2660   -6.1390 C   0  0  0  0  0  0  0  0  0  0  0  0
   31.6600   45.6310   -6.7790 O   0  0  0  0  0  0  0  0  0  0  0  0
   33.3540   46.4560   -5.5690 O   0  0  0  0  0  0  0  0  0  0  0  0
   29.4300   50.2920   -5.1100 C   0  0  0  0  0  0  0  0  0  0  0  0
   29.0520   49.6250   -6.2910 C   0  0  0  0  0  0  0  0  0  0  0  0
   29.0850   47.3190   -7.0660 N   0  0  0  0  0  0  0  0  0  0  0  0
   28.5030   50.0340   -7.4930 C   0  0  0  0  0  0  0  0  0  0  0  0
   28.5530   47.8340   -8.1850 C   0  0  0  0  0  0  0  0  0  0  0  0
   28.2000   51.3610   -7.7560 N   0  0  0  0  0  0  0  0  0  0  0  0
   28.2530   49.1210   -8.4480 N   0  0  0  0  0  0  0  0  0  0  0  0
  2  1  1  0
  2  3  2  0
  2  4  2  0
  2  5  1  0
  5  6  2  0
  5  7  1  0
  6  8  1  0
  7  9  2  0
  8 10  2  0
  9 10  1  0
  8 11  1  0
 10 12  1  0
 11 13  1  0
 11 14  1  0
 12 15  2  0
 12 16  1  0
 13 17  2  0
 14 18  2  0
 17 18  1  0
 14 19  1  0
 18 20  1  0
 19 21  2  0
 20 22  1  0
 20 23  2  0
 21 23  1  0
M  END
