mac-x0496-mac-x0412
     RDKit          3D

 23 25  0  0  0  0  0  0  0  0999 V2000
   24.3590   58.7400   -6.2840 C   0  0  0  0  0  0  0  0  0  0  0  0
   25.6820   58.4690   -5.6920 C   0  0  0  0  0  0  0  0  0  0  0  0
   26.0770   59.0290   -4.5380 N   0  0  0  0  0  0  0  0  0  0  0  0
   26.6000   57.6300   -6.2750 N   0  0  0  0  0  0  0  0  0  0  0  0
   27.3620   58.5090   -4.3550 O   0  0  0  0  0  0  0  0  0  0  0  0
   27.6020   57.6900   -5.4210 C   0  0  0  0  0  0  0  0  0  0  0  0
   28.9230   57.0130   -5.4520 C   0  0  0  0  0  0  0  0  0  0  0  0
   28.7340   55.5810   -5.5690 N   0  0  0  0  0  0  0  0  0  0  0  0
   29.5800   54.6970   -4.9510 C   0  0  0  0  0  0  0  0  0  0  0  0
   30.5040   55.0650   -4.2350 O   0  0  0  0  0  0  0  0  0  0  0  0
   29.2910   53.2580   -5.2100 C   0  0  0  0  0  0  0  0  0  0  0  0
   28.6180   52.7090   -6.3780 C   0  0  0  0  0  0  0  0  0  0  0  0
   29.6280   52.2300   -4.4100 C   0  0  0  0  0  0  0  0  0  0  0  0
   28.5490   51.3660   -6.2870 C   0  0  0  0  0  0  0  0  0  0  0  0
   29.1770   50.9040   -4.9880 C   0  0  2  0  0  0  0  0  0  0  0  0
   30.3270   52.1650   -3.1580 C   0  0  0  0  0  0  0  0  0  0  0  0
   28.1460   50.1630   -4.1070 C   0  0  0  0  0  0  0  0  0  0  0  0
   30.4260   50.0450   -5.0820 C   0  0  0  0  0  0  0  0  0  0  0  0
   31.1950   51.1410   -3.0330 C   0  0  0  0  0  0  0  0  0  0  0  0
   28.5100   48.7410   -3.7670 C   0  0  0  0  0  0  0  0  0  0  0  0
   31.3780   50.1820   -4.1250 C   0  0  0  0  0  0  0  0  0  0  0  0
   28.7540   47.8350   -4.5480 O   0  0  0  0  0  0  0  0  0  0  0  0
   28.5460   48.5110   -2.4420 O   0  0  0  0  0  0  0  0  0  0  0  0
  1  2  1  0
  2  3  2  0
  2  4  1  0
  3  5  1  0
  4  6  2  0
  5  6  1  0
  6  7  1  0
  7  8  1  0
  8  9  1  0
  9 10  2  0
  9 11  1  0
 11 12  1  0
 11 13  2  0
 12 14  2  0
 13 15  1  0
 14 15  1  0
 13 16  1  0
 15 17  1  1
 15 18  1  0
 16 19  2  0
 17 20  1  0
 18 21  2  0
 19 21  1  0
 20 22  2  0
 20 23  1  0
M  END
