mac-x0396-mac-x0433
     RDKit          3D

 10 10  0  0  0  0  0  0  0  0999 V2000
   28.6730   50.5220   -6.7250 N   0  0  0  0  0  0  0  0  0  0  0  0
   29.1770   50.6830   -5.4600 C   0  0  0  0  0  0  0  0  0  0  0  0
   29.4570   49.7070   -4.7780 O   0  0  0  0  0  0  0  0  0  0  0  0
   29.3700   52.0730   -4.9700 C   0  0  0  0  0  0  0  0  0  0  0  0
   29.7090   52.3560   -3.6280 C   0  0  0  0  0  0  0  0  0  0  0  0
   29.2090   53.1460   -5.8590 C   0  0  0  0  0  0  0  0  0  0  0  0
   29.8960   51.3730   -2.6300 N   0  0  0  0  0  0  0  0  0  0  0  0
   29.8790   53.6270   -3.2020 N   0  0  0  0  0  0  0  0  0  0  0  0
   29.3870   54.4490   -5.4110 C   0  0  0  0  0  0  0  0  0  0  0  0
   29.7200   54.6350   -4.0830 C   0  0  0  0  0  0  0  0  0  0  0  0
  1  2  1  0
  2  3  2  0
  2  4  1  0
  4  5  2  0
  4  6  1  0
  5  7  1  0
  5  8  1  0
  6  9  2  0
  8 10  2  0
  9 10  1  0
M  END
