mac-x0182-mac-x0178
     RDKit          3D

 24 26  0  0  0  0  0  0  0  0999 V2000
   35.3530   43.4830   -1.7070 O   0  0  0  0  0  0  0  0  0  0  0  0
   35.2710   44.5630   -2.2640 C   0  0  0  0  0  0  0  0  0  0  0  0
   34.1260   45.3070   -2.3910 N   0  0  0  0  0  0  0  0  0  0  0  0
   36.4230   45.2440   -2.8980 C   0  0  0  0  0  0  0  0  0  0  0  0
   34.3330   46.5600   -3.5060 S   0  0  2  0  0  0  0  0  0  0  0  0
   36.0520   46.3710   -3.6220 C   0  0  0  0  0  0  0  0  0  0  0  0
   37.7530   44.8650   -2.8230 C   0  0  0  0  0  0  0  0  0  0  0  0
   34.0310   47.7500   -2.7500 O   0  0  0  0  0  0  0  0  0  0  0  0
   33.6440   46.0310   -4.7600 N   0  0  0  0  0  0  0  0  0  0  0  0
   36.9590   47.1630   -4.2970 C   0  0  0  0  0  0  0  0  0  0  0  0
   38.6980   45.6470   -3.4960 C   0  0  0  0  0  0  0  0  0  0  0  0
   32.4030   46.5650   -5.1370 C   0  0  0  0  0  0  0  0  0  0  0  0
   38.3020   46.7860   -4.2260 C   0  0  0  0  0  0  0  0  0  0  0  0
   32.2360   47.0810   -6.2400 O   0  0  0  0  0  0  0  0  0  0  0  0
   31.2250   46.5270   -4.2040 C   0  0  0  0  0  0  0  0  0  0  0  0
   30.4150   45.3820   -4.1130 C   0  0  0  0  0  0  0  0  0  0  0  0
   30.9270   47.6490   -3.4110 C   0  0  0  0  0  0  0  0  0  0  0  0
   29.3220   45.3590   -3.2410 C   0  0  0  0  0  0  0  0  0  0  0  0
   29.8350   47.6280   -2.5390 C   0  0  0  0  0  0  0  0  0  0  0  0
   29.0370   46.4820   -2.4580 C   0  0  0  0  0  0  0  0  0  0  0  0
   27.6460   46.4430   -1.3530 S   0  0  0  0  0  0  0  0  0  0  0  0
   27.6760   44.8490   -0.8190 N   0  0  0  0  0  0  0  0  0  0  0  0
   27.9400   47.3000   -0.2270 O   0  0  0  0  0  0  0  0  0  0  0  0
   26.4370   46.5730   -2.1350 O   0  0  0  0  0  0  0  0  0  0  0  0
  1  2  2  0
  2  3  1  0
  2  4  1  0
  5  3  1  1
  4  6  2  0
  5  6  1  0
  4  7  1  0
  5  8  2  0
  5  9  2  0
  6 10  1  0
  7 11  2  0
  9 12  1  0
 10 13  2  0
 11 13  1  0
 12 14  2  0
 12 15  1  0
 15 16  2  0
 15 17  1  0
 16 18  1  0
 17 19  2  0
 18 20  2  0
 19 20  1  0
 20 21  1  0
 21 22  1  0
 21 23  2  0
 21 24  2  0
M  END
