mac-x0360-mac-x0271
     RDKit          3D

 23 25  0  0  0  0  0  0  0  0999 V2000
   31.8340   54.8650   -7.3610 Cl  0  0  0  0  0  0  0  0  0  0  0  0
   32.0960   53.2700   -6.7710 C   0  0  0  0  0  0  0  0  0  0  0  0
   33.2930   52.9680   -6.1290 C   0  0  0  0  0  0  0  0  0  0  0  0
   31.1120   52.2910   -6.9420 C   0  0  0  0  0  0  0  0  0  0  0  0
   31.3470   50.9950   -6.4580 C   0  0  0  0  0  0  0  0  0  0  0  0
   33.5120   51.6760   -5.6530 C   0  0  0  0  0  0  0  0  0  0  0  0
   34.9940   51.3000   -4.8630 Cl  0  0  0  0  0  0  0  0  0  0  0  0
   30.1060   49.7250   -6.6600 S   0  0  0  0  0  0  0  0  0  0  0  0
   32.5470   50.6840   -5.8110 C   0  0  0  0  0  0  0  0  0  0  0  0
   29.5330   49.6430   -5.0920 N   0  0  0  0  0  0  0  0  0  0  0  0
   29.0560   50.2550   -7.5010 O   0  0  0  0  0  0  0  0  0  0  0  0
   30.7650   48.4730   -6.9440 O   0  0  0  0  0  0  0  0  0  0  0  0
   29.4600   50.9370   -4.5620 C   0  0  0  0  0  0  0  0  0  0  0  0
   29.8540   51.1950   -3.2530 C   0  0  0  0  0  0  0  0  0  0  0  0
   28.9940   51.9530   -5.3940 C   0  0  0  0  0  0  0  0  0  0  0  0
   29.7840   52.5010   -2.7760 C   0  0  0  0  0  0  0  0  0  0  0  0
   28.9240   53.2490   -4.9280 C   0  0  0  0  0  0  0  0  0  0  0  0
   29.3210   53.5090   -3.6230 C   0  0  0  0  0  0  0  0  0  0  0  0
   28.4530   54.3360   -5.7650 C   0  0  0  0  0  0  0  0  0  0  0  0
   28.5380   55.5860   -5.3090 C   0  0  0  0  0  0  0  0  0  0  0  0
   29.2650   54.8180   -3.1150 O   0  0  0  0  0  0  0  0  0  0  0  0
   29.0900   55.8920   -3.9800 C   0  0  0  0  0  0  0  0  0  0  0  0
   29.3760   57.0380   -3.6640 O   0  0  0  0  0  0  0  0  0  0  0  0
  1  2  1  0
  2  3  2  0
  2  4  1  0
  4  5  2  0
  3  6  1  0
  6  7  1  0
  5  8  1  0
  5  9  1  0
  6  9  2  0
  8 10  1  0
  8 11  2  0
  8 12  2  0
 10 13  1  0
 13 14  2  0
 13 15  1  0
 14 16  1  0
 15 17  2  0
 16 18  2  0
 17 18  1  0
 17 19  1  0
 19 20  2  0
 18 21  1  0
 20 22  1  0
 21 22  1  0
 22 23  2  0
M  END
