mac-x0163-mac-x0226
     RDKit          3D

 31 35  0  0  0  0  0  0  0  0999 V2000
   28.8530   49.7240   -4.3620 Cl  0  0  0  0  0  0  0  0  0  0  0  0
   28.8340   49.2240   -6.0200 C   0  0  0  0  0  0  0  0  0  0  0  0
   28.1000   49.9290   -6.9680 C   0  0  0  0  0  0  0  0  0  0  0  0
   29.5430   48.1060   -6.4730 C   0  0  0  0  0  0  0  0  0  0  0  0
   27.3500   51.0700   -6.6260 N   0  0  0  0  0  0  0  0  0  0  0  0
   29.5120   47.7330   -7.7700 N   0  0  0  0  0  0  0  0  0  0  0  0
   28.0640   49.5660   -8.2590 N   0  0  0  0  0  0  0  0  0  0  0  0
   30.3240   47.3280   -5.5600 N   0  0  0  0  0  0  0  0  0  0  0  0
   28.7730   48.4840   -8.5970 C   0  0  0  0  0  0  0  0  0  0  0  0
   29.4300   46.3340   -4.9200 C   0  0  0  0  0  0  0  0  0  0  0  0
   31.4210   47.8460   -4.7330 C   0  0  1  0  0  0  0  0  0  0  0  0
   30.1960   45.3640   -4.0180 C   0  0  0  0  0  0  0  0  0  0  0  0
   32.8930   47.4940   -5.2310 C   0  0  1  0  0  0  0  0  0  0  0  0
   31.8080   49.3280   -5.0680 C   0  0  0  0  0  0  0  0  0  0  0  0
   31.0860   47.5990   -3.2490 C   0  0  0  0  0  0  0  0  0  0  0  0
   33.2890   46.1690   -5.8990 C   0  0  0  0  0  0  0  0  0  0  0  0
   30.9350   46.1080   -2.9240 C   0  0  0  0  0  0  0  0  0  0  0  0
   32.7910   48.7680   -6.1150 C   0  0  0  0  0  0  0  0  0  0  0  0
   32.1810   45.5430   -6.5170 O   0  0  0  0  0  0  0  0  0  0  0  0
   34.2240   46.4310   -6.9360 O   0  0  0  0  0  0  0  0  0  0  0  0
   33.9000   45.2480   -4.8860 C   0  0  0  0  0  0  0  0  0  0  0  0
   33.7070   43.8590   -4.7580 C   0  0  0  0  0  0  0  0  0  0  0  0
   34.7760   45.5470   -3.8600 C   0  0  0  0  0  0  0  0  0  0  0  0
   34.3970   43.3270   -3.7470 N   0  0  0  0  0  0  0  0  0  0  0  0
   35.0600   44.3740   -3.1900 N   0  0  0  0  0  0  0  0  0  0  0  0
   35.9160   44.1900   -2.0670 C   0  0  0  0  0  0  0  0  0  0  0  0
   36.7580   45.2390   -1.6680 C   0  0  0  0  0  0  0  0  0  0  0  0
   35.9310   42.9850   -1.3520 C   0  0  0  0  0  0  0  0  0  0  0  0
   37.6060   45.0850   -0.5680 C   0  0  0  0  0  0  0  0  0  0  0  0
   36.7830   42.8370   -0.2520 C   0  0  0  0  0  0  0  0  0  0  0  0
   37.6180   43.8830    0.1370 C   0  0  0  0  0  0  0  0  0  0  0  0
  1  2  1  0
  2  3  2  0
  2  4  1  0
  3  5  1  0
  4  6  2  0
  3  7  1  0
  4  8  1  0
  6  9  1  0
  7  9  2  0
  8 10  1  0
 11  8  1  0
 10 12  1  0
 11 13  1  0
 11 14  1  1
 11 15  1  0
 13 16  1  6
 12 17  1  0
 15 17  1  0
 13 18  1  0
 14 18  1  0
 16 19  1  0
 16 20  1  0
 16 21  1  0
 21 22  1  0
 21 23  2  0
 22 24  2  0
 23 25  1  0
 24 25  1  0
 25 26  1  0
 26 27  2  0
 26 28  1  0
 27 29  1  0
 28 30  2  0
 29 31  2  0
 30 31  1  0
M  END
