mac-x0453-mac-x0411
     RDKit          3D

 23 24  0  0  0  0  0  0  0  0999 V2000
   29.3940   54.7840   -6.9290 N   0  0  0  0  0  0  0  0  0  0  0  0
   29.9310   53.5600   -6.2940 C   0  0  0  0  0  0  0  0  0  0  0  0
   28.8800   52.4700   -6.0210 C   0  0  0  0  0  0  0  0  0  0  0  0
   29.4350   51.2770   -5.3170 C   0  0  0  0  0  0  0  0  0  0  0  0
   29.9550   50.1200   -5.8660 C   0  0  0  0  0  0  0  0  0  0  0  0
   29.4910   51.2120   -3.9420 N   0  0  0  0  0  0  0  0  0  0  0  0
   30.3350   49.3490   -4.8010 N   0  0  0  0  0  0  0  0  0  0  0  0
   30.0340   50.0460   -3.6690 C   0  0  0  0  0  0  0  0  0  0  0  0
   30.9500   48.0300   -4.8460 C   0  0  0  0  0  0  0  0  0  0  0  0
   32.4760   48.0300   -4.6150 C   0  0  0  0  0  0  0  0  0  0  0  0
   32.9520   47.2990   -3.3410 C   0  0  0  0  0  0  0  0  0  0  0  0
   34.4560   47.0380   -3.2600 C   0  0  0  0  0  0  0  0  0  0  0  0
   35.0760   45.7610   -3.3880 C   0  0  0  0  0  0  0  0  0  0  0  0
   35.2930   48.1520   -3.0360 C   0  0  0  0  0  0  0  0  0  0  0  0
   34.3470   44.6090   -3.6060 O   0  0  0  0  0  0  0  0  0  0  0  0
   36.6800   48.0220   -2.9390 C   0  0  0  0  0  0  0  0  0  0  0  0
   36.4790   45.6460   -3.2880 C   0  0  0  0  0  0  0  0  0  0  0  0
   37.2800   44.1210   -3.4310 Cl  0  0  0  0  0  0  0  0  0  0  0  0
   33.0880   44.7800   -4.2750 C   0  0  0  0  0  0  0  0  0  0  0  0
   37.2710   46.7700   -3.0660 C   0  0  0  0  0  0  0  0  0  0  0  0
   33.3080   45.0730   -5.7450 C   0  0  0  0  0  0  0  0  0  0  0  0
   32.1520   45.0340   -6.4440 O   0  0  0  0  0  0  0  0  0  0  0  0
   34.3720   45.3230   -6.2860 O   0  0  0  0  0  0  0  0  0  0  0  0
  1  2  1  0
  2  3  1  0
  3  4  1  0
  4  5  2  0
  4  6  1  0
  5  7  1  0
  6  8  2  0
  7  8  1  0
  7  9  1  0
  9 10  1  0
 10 11  1  0
 11 12  1  0
 12 13  2  0
 12 14  1  0
 13 15  1  0
 14 16  2  0
 13 17  1  0
 17 18  1  0
 15 19  1  0
 16 20  1  0
 17 20  2  0
 19 21  1  0
 21 22  1  0
 21 23  2  0
M  END
