mac-x0263-mac-x0387
     RDKit          3D

 25 28  0  0  0  0  0  0  0  0999 V2000
   28.1830   59.9860   -6.6850 O   0  0  0  0  0  0  0  0  0  0  0  0
   27.1440   59.1430   -6.4930 C   0  0  0  0  0  0  0  0  0  0  0  0
   26.0050   59.4230   -6.8410 O   0  0  0  0  0  0  0  0  0  0  0  0
   27.5540   57.8660   -5.8080 C   0  0  0  0  0  0  0  0  0  0  0  0
   28.4330   56.9710   -6.6910 C   0  0  0  0  0  0  0  0  0  0  0  0
   28.2920   55.5490   -6.2590 C   0  0  0  0  0  0  0  0  0  0  0  0
   27.9740   55.2630   -4.9610 N   0  0  0  0  0  0  0  0  0  0  0  0
   28.4270   54.4370   -6.9700 N   0  0  0  0  0  0  0  0  0  0  0  0
   27.8870   53.9130   -4.8150 C   0  0  0  0  0  0  0  0  0  0  0  0
   28.1720   53.4000   -6.0770 C   0  0  0  0  0  0  0  0  0  0  0  0
   27.5870   53.1320   -3.7040 C   0  0  0  0  0  0  0  0  0  0  0  0
   28.1630   51.9860   -6.2590 C   0  0  0  0  0  0  0  0  0  0  0  0
   28.4500   51.3400   -7.4690 N   0  0  0  0  0  0  0  0  0  0  0  0
   27.5710   51.7580   -3.8940 C   0  0  0  0  0  0  0  0  0  0  0  0
   27.8500   51.2050   -5.1370 C   0  0  0  0  0  0  0  0  0  0  0  0
   28.7430   49.9520   -7.5340 C   0  0  0  0  0  0  0  0  0  0  0  0
   29.3640   49.3310   -6.4010 C   0  0  0  0  0  0  0  0  0  0  0  0
   28.4240   49.2520   -8.6490 N   0  0  0  0  0  0  0  0  0  0  0  0
   29.6340   47.9470   -6.4720 C   0  0  0  0  0  0  0  0  0  0  0  0
   28.7050   47.9350   -8.6740 C   0  0  0  0  0  0  0  0  0  0  0  0
   29.7320   49.9990   -5.1990 C   0  0  0  0  0  0  0  0  0  0  0  0
   29.2960   47.2490   -7.6320 C   0  0  0  0  0  0  0  0  0  0  0  0
   30.2360   47.2840   -5.3870 C   0  0  0  0  0  0  0  0  0  0  0  0
   30.3280   49.3310   -4.1290 C   0  0  0  0  0  0  0  0  0  0  0  0
   30.5790   47.9710   -4.2220 C   0  0  0  0  0  0  0  0  0  0  0  0
  1  2  1  0
  2  3  2  0
  2  4  1  0
  4  5  1  0
  5  6  1  0
  6  7  1  0
  6  8  2  0
  7  9  1  0
  8 10  1  0
  9 10  2  0
  9 11  1  0
 10 12  1  0
 12 13  1  0
 11 14  2  0
 12 15  2  0
 14 15  1  0
 13 16  1  0
 16 17  1  0
 16 18  2  0
 17 19  2  0
 18 20  1  0
 17 21  1  0
 19 22  1  0
 20 22  2  0
 19 23  1  0
 21 24  2  0
 23 25  2  0
 24 25  1  0
M  END
