mac-x0328-mac-x0358
     RDKit          3D

 22 23  0  0  0  0  0  0  0  0999 V2000
   29.2090   47.4170   -4.0070 O   0  0  0  0  0  0  0  0  0  0  0  0
   29.8360   48.1200   -4.9610 C   0  0  0  0  0  0  0  0  0  0  0  0
   30.3330   47.4750   -5.9530 N   0  0  0  0  0  0  0  0  0  0  0  0
   29.8090   49.5490   -4.6310 C   0  0  0  0  0  0  0  0  0  0  0  0
   30.1830   46.0150   -5.9690 C   0  0  0  0  0  0  0  0  0  0  0  0
   29.4310   50.4720   -5.6140 C   0  0  0  0  0  0  0  0  0  0  0  0
   30.1570   49.9860   -3.3490 C   0  0  0  0  0  0  0  0  0  0  0  0
   31.3290   45.2680   -6.4070 O   0  0  0  0  0  0  0  0  0  0  0  0
   29.4010   51.8360   -5.3140 C   0  0  0  0  0  0  0  0  0  0  0  0
   30.1270   51.3500   -3.0530 C   0  0  0  0  0  0  0  0  0  0  0  0
   32.5170   45.6480   -5.8620 C   0  0  0  0  0  0  0  0  0  0  0  0
   29.7490   52.2630   -4.0330 C   0  0  0  0  0  0  0  0  0  0  0  0
   29.7320   53.5840   -3.6980 O   0  0  0  0  0  0  0  0  0  0  0  0
   33.3530   46.3460   -6.4270 O   0  0  0  0  0  0  0  0  0  0  0  0
   32.6740   45.0850   -4.4630 C   0  0  0  0  0  0  0  0  0  0  0  0
   32.5160   46.0910   -3.3420 C   0  0  0  0  0  0  0  0  0  0  0  0
   33.5670   46.9010   -2.8830 C   0  0  0  0  0  0  0  0  0  0  0  0
   31.2620   46.2310   -2.7200 C   0  0  0  0  0  0  0  0  0  0  0  0
   34.8250   46.8440   -3.4170 O   0  0  0  0  0  0  0  0  0  0  0  0
   33.3790   47.8150   -1.8460 C   0  0  0  0  0  0  0  0  0  0  0  0
   31.0720   47.1480   -1.6810 C   0  0  0  0  0  0  0  0  0  0  0  0
   32.1300   47.9400   -1.2440 C   0  0  0  0  0  0  0  0  0  0  0  0
  1  2  1  0
  2  3  2  3
  2  4  1  0
  3  5  1  0
  4  6  2  0
  4  7  1  0
  5  8  1  0
  6  9  1  0
  7 10  2  0
  8 11  1  0
  9 12  2  0
 10 12  1  0
 12 13  1  0
 11 14  2  0
 11 15  1  0
 15 16  1  0
 16 17  2  0
 16 18  1  0
 17 19  1  0
 17 20  1  0
 18 21  2  0
 20 22  2  0
 21 22  1  0
M  END
