mac-x0179-mac-x0472
     RDKit          3D

 31 34  0  0  0  0  0  0  0  0999 V2000
   31.8810   45.6540   -5.5510 O   0  0  0  0  0  0  0  0  0  0  0  0
   32.9740   45.6900   -4.7540 C   0  0  0  0  0  0  0  0  0  0  0  0
   34.0870   45.8980   -5.2180 O   0  0  0  0  0  0  0  0  0  0  0  0
   32.6240   45.4420   -3.2930 C   0  0  0  0  0  0  0  0  0  0  0  0
   33.7910   45.7230   -2.4620 N   0  0  0  0  0  0  0  0  0  0  0  0
   34.6140   44.7560   -1.9670 C   0  0  0  0  0  0  0  0  0  0  0  0
   34.1870   46.9640   -2.0110 C   0  0  0  0  0  0  0  0  0  0  0  0
   34.4130   43.5660   -1.8200 O   0  0  0  0  0  0  0  0  0  0  0  0
   33.3750   47.9600   -1.9060 N   0  0  0  0  0  0  0  0  0  0  0  0
   35.8610   45.4470   -1.6300 C   0  0  0  0  0  0  0  0  0  0  0  0
   35.6190   46.8170   -1.6730 C   0  0  0  0  0  0  0  0  0  0  0  0
   31.9420   47.9980   -2.1610 C   0  0  0  0  0  0  0  0  0  0  0  0
   37.0960   44.9030   -1.3160 C   0  0  0  0  0  0  0  0  0  0  0  0
   36.6500   47.7060   -1.4030 C   0  0  0  0  0  0  0  0  0  0  0  0
   31.6430   48.1320   -3.5680 N   0  0  0  0  0  0  0  0  0  0  0  0
   38.1340   45.7930   -1.0370 C   0  0  0  0  0  0  0  0  0  0  0  0
   37.9130   47.1800   -1.0840 C   0  0  0  0  0  0  0  0  0  0  0  0
   30.9610   49.4080   -4.0610 S   0  0  2  0  0  0  0  0  0  0  0  0
   30.0580   50.2280   -3.2750 O   0  0  0  0  0  0  0  0  0  0  0  0
   29.9980   48.9030   -5.3420 N   0  0  0  0  0  0  0  0  0  0  0  0
   32.2560   50.4540   -4.6580 C   0  0  0  0  0  0  0  0  0  0  0  0
   29.4300   49.7510   -6.2290 C   0  0  0  0  0  0  0  0  0  0  0  0
   33.4250   49.8240   -5.0930 C   0  0  0  0  0  0  0  0  0  0  0  0
   32.1340   51.8450   -4.6980 C   0  0  0  0  0  0  0  0  0  0  0  0
   29.1750   49.4080   -7.4840 N   0  0  0  0  0  0  0  0  0  0  0  0
   28.9520   51.3760   -5.8910 S   0  0  0  0  0  0  0  0  0  0  0  0
   34.4820   50.5880   -5.5720 C   0  0  0  0  0  0  0  0  0  0  0  0
   33.2000   52.6050   -5.1820 C   0  0  0  0  0  0  0  0  0  0  0  0
   28.4240   51.5040   -7.5110 C   0  0  0  0  0  0  0  0  0  0  0  0
   28.5940   50.4140   -8.2290 N   0  0  0  0  0  0  0  0  0  0  0  0
   34.3710   51.9790   -5.6170 C   0  0  0  0  0  0  0  0  0  0  0  0
  1  2  1  0
  2  3  2  0
  2  4  1  0
  4  5  1  0
  5  6  1  0
  5  7  1  0
  6  8  2  0
  7  9  2  3
  6 10  1  0
  7 11  1  0
 10 11  2  0
  9 12  1  0
 10 13  1  0
 11 14  1  0
 12 15  1  0
 13 16  2  0
 14 17  2  0
 16 17  1  0
 15 18  2  0
 18 19  2  0
 18 20  1  6
 18 21  1  0
 20 22  1  0
 21 23  2  0
 21 24  1  0
 22 25  2  0
 22 26  1  0
 23 27  1  0
 24 28  2  0
 26 29  1  0
 25 30  1  0
 29 30  2  0
 27 31  2  0
 28 31  1  0
M  END
