mac-x0182-mac-x0358
     RDKit          3D

 21 24  0  0  0  0  0  0  0  0999 V2000
   36.6770   42.7820   -2.2330 O   0  0  0  0  0  0  0  0  0  0  0  0
   35.9790   43.6470   -2.8900 C   0  0  0  0  0  0  0  0  0  0  0  0
   34.8220   43.3960   -3.6450 N   0  0  0  0  0  0  0  0  0  0  0  0
   36.2200   45.0690   -3.0020 C   0  0  0  0  0  0  0  0  0  0  0  0
   33.8690   44.6040   -3.8610 S   0  0  0  0  0  0  0  0  0  0  0  0
   35.1450   45.7150   -3.5200 C   0  0  0  0  0  0  0  0  0  0  0  0
   37.4020   45.7230   -2.6310 C   0  0  0  0  0  0  0  0  0  0  0  0
   32.9000   45.2370   -2.6440 N   0  0  0  0  0  0  0  0  0  0  0  0
   33.7370   45.3570   -5.4070 N   0  0  0  0  0  0  0  0  0  0  0  0
   35.3010   47.1040   -3.6590 C   0  0  0  0  0  0  0  0  0  0  0  0
   37.4750   47.0600   -2.7950 C   0  0  0  0  0  0  0  0  0  0  0  0
   32.9280   46.1890   -5.8470 C   0  0  0  0  0  0  0  0  0  0  0  0
   36.4200   47.7530   -3.3120 C   0  0  0  0  0  0  0  0  0  0  0  0
   32.1830   46.4350   -2.7040 C   0  0  0  0  0  0  0  0  0  0  0  0
   33.1150   46.6020   -7.2050 O   0  0  0  0  0  0  0  0  0  0  0  0
   31.7700   46.8640   -5.2480 C   0  0  0  0  0  0  0  0  0  0  0  0
   31.7280   47.0840   -3.8220 C   0  0  0  0  0  0  0  0  0  0  0  0
   31.9640   46.9400   -1.4180 C   0  0  0  0  0  0  0  0  0  0  0  0
   31.2840   48.1030   -1.2140 C   0  0  0  0  0  0  0  0  0  0  0  0
   31.0330   48.2780   -3.5580 C   0  0  0  0  0  0  0  0  0  0  0  0
   30.8100   48.7830   -2.3180 C   0  0  0  0  0  0  0  0  0  0  0  0
  1  2  2  0
  2  3  1  0
  2  4  1  0
  3  5  1  0
  4  6  2  0
  5  6  1  0
  4  7  1  0
  5  8  2  0
  5  9  1  0
  6 10  1  0
  7 11  2  0
  9 12  2  0
 10 13  2  0
 11 13  1  0
  8 14  1  0
 12 15  1  0
 12 16  1  0
 14 17  2  0
 16 17  1  0
 14 18  1  0
 18 19  2  0
 17 20  1  0
 19 21  1  0
 20 21  2  0
M  END
