mac-x0204-mac-x0132
     RDKit          3D

 22 24  0  0  0  0  0  0  0  0999 V2000
   31.4940   46.6650   -6.1600 O   0  0  0  0  0  0  0  0  0  0  0  0
   30.6230   46.5600   -5.1380 C   0  0  0  0  0  0  0  0  0  0  0  0
   29.4930   46.1420   -5.3210 O   0  0  0  0  0  0  0  0  0  0  0  0
   31.2250   46.9610   -3.8360 C   0  0  0  0  0  0  0  0  0  0  0  0
   30.6080   47.7270   -2.7860 C   0  0  0  0  0  0  0  0  0  0  0  0
   32.5310   46.5380   -3.6280 C   0  0  0  0  0  0  0  0  0  0  0  0
   29.2340   48.3380   -2.7900 C   0  0  0  0  0  0  0  0  0  0  0  0
   31.3530   47.9410   -1.6380 C   0  0  0  0  0  0  0  0  0  0  0  0
   33.2530   46.7810   -2.5120 N   0  0  0  0  0  0  0  0  0  0  0  0
   30.8530   48.6210   -0.5690 O   0  0  0  0  0  0  0  0  0  0  0  0
   32.6410   47.4720   -1.5360 C   0  0  0  0  0  0  0  0  0  0  0  0
   29.2140   49.6700   -3.5440 C   0  0  0  0  0  0  0  0  0  0  0  0
   29.4850   50.9830   -3.0190 C   0  0  0  0  0  0  0  0  0  0  0  0
   28.8930   49.5600   -4.8770 C   0  0  0  0  0  0  0  0  0  0  0  0
   29.4150   52.1400   -3.8420 C   0  0  0  0  0  0  0  0  0  0  0  0
   28.8220   50.6670   -5.6840 C   0  0  0  0  0  0  0  0  0  0  0  0
   29.0740   51.9490   -5.1850 C   0  0  0  0  0  0  0  0  0  0  0  0
   29.6600   53.3740   -3.3650 N   0  0  0  0  0  0  0  0  0  0  0  0
   28.9990   53.0830   -5.9820 C   0  0  0  0  0  0  0  0  0  0  0  0
   29.5560   54.4000   -4.2390 C   0  0  0  0  0  0  0  0  0  0  0  0
   28.6600   52.9730   -7.3360 N   0  0  0  0  0  0  0  0  0  0  0  0
   29.2340   54.3190   -5.5370 N   0  0  0  0  0  0  0  0  0  0  0  0
  1  2  1  0
  2  3  2  0
  2  4  1  0
  4  5  2  0
  4  6  1  0
  5  7  1  0
  5  8  1  0
  6  9  2  0
  8 10  1  0
  8 11  2  0
  9 11  1  0
  7 12  1  0
 12 13  2  0
 12 14  1  0
 13 15  1  0
 14 16  2  0
 15 17  2  0
 16 17  1  0
 15 18  1  0
 17 19  1  0
 18 20  2  0
 19 21  1  0
 19 22  2  0
 20 22  1  0
M  END
