mac-x0190-mac-x0357
     RDKit          3D

 24 26  0  0  0  0  0  0  0  0999 V2000
   28.3880   56.7250   -5.5070 O   0  0  0  0  0  0  0  0  0  0  0  0
   29.6610   56.1940   -5.1470 C   0  0  0  0  0  0  0  0  0  0  0  0
   29.5490   54.7170   -5.0350 C   0  0  0  0  0  0  0  0  0  0  0  0
   29.6680   54.0890   -3.8260 N   0  0  0  0  0  0  0  0  0  0  0  0
   29.3370   53.8350   -6.0030 N   0  0  0  0  0  0  0  0  0  0  0  0
   29.5350   52.7460   -4.0160 C   0  0  0  0  0  0  0  0  0  0  0  0
   29.3310   52.6030   -5.3830 C   0  0  0  0  0  0  0  0  0  0  0  0
   29.5790   51.6820   -3.1250 C   0  0  0  0  0  0  0  0  0  0  0  0
   29.1600   51.3030   -5.9120 C   0  0  0  0  0  0  0  0  0  0  0  0
   29.4130   50.4090   -3.6610 C   0  0  0  0  0  0  0  0  0  0  0  0
   29.2090   50.1990   -5.0240 C   0  0  0  0  0  0  0  0  0  0  0  0
   29.0570   48.7730   -5.4900 C   0  0  0  0  0  0  0  0  0  0  0  0
   30.1440   47.8420   -4.9020 C   0  0  0  0  0  0  0  0  0  0  0  0
   30.5840   46.9130   -5.9310 N   0  0  0  0  0  0  0  0  0  0  0  0
   31.5980   46.1180   -5.9700 C   0  0  0  0  0  0  0  0  0  0  0  0
   31.8330   45.3410   -7.0330 O   0  0  0  0  0  0  0  0  0  0  0  0
   32.6660   45.8820   -4.9490 C   0  0  0  0  0  0  0  0  0  0  0  0
   32.9920   44.5810   -4.4870 C   0  0  0  0  0  0  0  0  0  0  0  0
   33.3690   46.9950   -4.4490 C   0  0  0  0  0  0  0  0  0  0  0  0
   32.2660   43.3640   -4.9940 C   0  0  0  0  0  0  0  0  0  0  0  0
   34.3880   46.8310   -3.5030 C   0  0  0  0  0  0  0  0  0  0  0  0
   34.0190   44.4480   -3.5380 C   0  0  0  0  0  0  0  0  0  0  0  0
   34.4060   43.2340   -3.0370 O   0  0  0  0  0  0  0  0  0  0  0  0
   34.7100   45.5530   -3.0490 C   0  0  0  0  0  0  0  0  0  0  0  0
  1  2  1  0
  2  3  1  0
  3  4  1  0
  3  5  2  0
  4  6  1  0
  5  7  1  0
  6  7  2  0
  6  8  1  0
  7  9  1  0
  8 10  2  0
  9 11  2  0
 10 11  1  0
 11 12  1  0
 12 13  1  0
 13 14  1  0
 14 15  2  3
 15 16  1  0
 15 17  1  0
 17 18  2  0
 17 19  1  0
 18 20  1  0
 19 21  2  0
 18 22  1  0
 22 23  1  0
 21 24  1  0
 22 24  2  0
M  END
