mac-x0178-mac-x0139
     RDKit          3D

 26 28  0  0  0  0  0  0  0  0999 V2000
   28.5120   45.0020   -0.0860 N   0  0  0  0  0  0  0  0  0  0  0  0
   28.9690   46.5750   -0.4780 S   0  0  0  0  0  0  0  0  0  0  0  0
   29.8510   47.0090    0.5770 O   0  0  0  0  0  0  0  0  0  0  0  0
   27.7820   47.3080   -0.8460 O   0  0  0  0  0  0  0  0  0  0  0  0
   29.9210   46.3080   -1.9370 C   0  0  0  0  0  0  0  0  0  0  0  0
   29.3560   45.5500   -2.9520 C   0  0  0  0  0  0  0  0  0  0  0  0
   31.2040   46.8510   -2.0610 C   0  0  0  0  0  0  0  0  0  0  0  0
   30.0820   45.3400   -4.1090 C   0  0  0  0  0  0  0  0  0  0  0  0
   31.9330   46.6340   -3.2360 C   0  0  0  0  0  0  0  0  0  0  0  0
   31.3770   45.8780   -4.2770 C   0  0  0  0  0  0  0  0  0  0  0  0
   32.0070   45.5820   -5.6110 C   0  0  2  0  0  0  0  0  0  0  0  0
   32.0570   44.1740   -5.8060 O   0  0  0  0  0  0  0  0  0  0  0  0
   33.3300   46.1440   -5.7460 O   0  0  0  0  0  0  0  0  0  0  0  0
   31.0270   46.0620   -6.6650 C   0  0  0  0  0  0  0  0  0  0  0  0
   29.9780   46.9410   -6.1200 N   0  0  0  0  0  0  0  0  0  0  0  0
   33.9790   45.4150   -6.8460 O   0  0  0  0  0  0  0  0  0  0  0  0
   30.3790   47.7010   -4.9280 C   0  0  0  0  0  0  0  0  0  0  0  0
   29.3480   47.6560   -7.0780 C   0  0  0  0  0  0  0  0  0  0  0  0
   29.1950   48.9770   -6.9540 C   0  0  0  0  0  0  0  0  0  0  0  0
   28.9080   46.9310   -8.1760 N   0  0  0  0  0  0  0  0  0  0  0  0
   28.5360   49.6770   -8.0640 C   0  0  0  0  0  0  0  0  0  0  0  0
   28.3380   47.5860   -9.1240 C   0  0  0  0  0  0  0  0  0  0  0  0
   29.5050   50.0020   -6.0140 C   0  0  0  0  0  0  0  0  0  0  0  0
   28.1350   48.9280   -9.1230 N   0  0  0  0  0  0  0  0  0  0  0  0
   28.4520   50.9530   -7.8300 N   0  0  0  0  0  0  0  0  0  0  0  0
   29.0440   51.1250   -6.5830 C   0  0  0  0  0  0  0  0  0  0  0  0
  2  1  1  0
  2  3  2  0
  2  4  2  0
  2  5  1  0
  5  6  2  0
  5  7  1  0
  6  8  1  0
  7  9  2  0
  8 10  2  0
  9 10  1  0
 10 11  1  0
 11 12  1  6
 11 13  1  0
 11 14  1  0
 14 15  1  0
 13 16  1  0
 15 17  1  0
 15 18  1  0
 18 19  2  0
 18 20  1  0
 19 21  1  0
 20 22  2  0
 19 23  1  0
 21 24  1  0
 22 24  1  0
 21 25  2  0
 23 26  2  0
 25 26  1  0
M  END
