mac-x0496-mac-x0398
     RDKit          3D

 20 21  0  0  0  0  0  0  0  0999 V2000
   24.6170   58.4870   -6.1240 C   0  0  0  0  0  0  0  0  0  0  0  0
   25.9520   58.2370   -5.5480 C   0  0  0  0  0  0  0  0  0  0  0  0
   26.3500   58.7750   -4.3880 N   0  0  0  0  0  0  0  0  0  0  0  0
   26.8750   57.4350   -6.1630 N   0  0  0  0  0  0  0  0  0  0  0  0
   27.6490   58.2780   -4.2360 O   0  0  0  0  0  0  0  0  0  0  0  0
   27.8920   57.4890   -5.3270 C   0  0  0  0  0  0  0  0  0  0  0  0
   29.2210   56.8270   -5.4140 C   0  0  0  0  0  0  0  0  0  0  0  0
   29.0520   55.4120   -5.6880 N   0  0  0  0  0  0  0  0  0  0  0  0
   29.1250   54.4720   -4.6850 C   0  0  0  0  0  0  0  0  0  0  0  0
   29.3190   54.7910   -3.5170 O   0  0  0  0  0  0  0  0  0  0  0  0
   28.9700   53.0190   -5.0400 C   0  0  0  0  0  0  0  0  0  0  0  0
   28.4630   52.7200   -6.3200 C   0  0  0  0  0  0  0  0  0  0  0  0
   29.2940   51.9530   -4.1710 C   0  0  0  0  0  0  0  0  0  0  0  0
   29.7920   52.2290   -2.9100 O   0  0  0  0  0  0  0  0  0  0  0  0
   28.2850   51.3980   -6.7360 C   0  0  0  0  0  0  0  0  0  0  0  0
   29.1140   50.6200   -4.5920 C   0  0  0  0  0  0  0  0  0  0  0  0
   29.4610   49.5120   -3.6720 C   0  0  0  0  0  0  0  0  0  0  0  0
   28.6090   50.3510   -5.8750 C   0  0  0  0  0  0  0  0  0  0  0  0
   29.6090   48.3540   -4.0240 O   0  0  0  0  0  0  0  0  0  0  0  0
   29.6060   49.8830   -2.3890 O   0  0  0  0  0  0  0  0  0  0  0  0
  1  2  1  0
  2  3  2  0
  2  4  1  0
  3  5  1  0
  4  6  2  0
  5  6  1  0
  6  7  1  0
  7  8  1  0
  8  9  1  0
  9 10  2  0
  9 11  1  0
 11 12  2  0
 11 13  1  0
 13 14  1  0
 12 15  1  0
 13 16  2  0
 16 17  1  0
 15 18  2  0
 16 18  1  0
 17 19  2  0
 17 20  1  0
M  END
