mac-x0255-mac-x0346
     RDKit          3D

 26 28  0  0  0  0  0  0  0  0999 V2000
   31.5340   45.4570   -7.6110 O   0  0  0  0  0  0  0  0  0  0  0  0
   32.6420   45.3910   -6.8410 C   0  0  0  0  0  0  0  0  0  0  0  0
   33.5970   46.0990   -7.1040 O   0  0  0  0  0  0  0  0  0  0  0  0
   32.4940   44.3910   -5.7190 C   0  0  0  0  0  0  0  0  0  0  0  0
   31.4650   44.8220   -4.7200 C   0  0  0  0  0  0  0  0  0  0  0  0
   30.3780   44.1140   -4.2610 C   0  0  0  0  0  0  0  0  0  0  0  0
   31.5520   46.3630   -3.9940 S   0  0  0  0  0  0  0  0  0  0  0  0
   29.5970   44.8380   -3.2990 C   0  0  0  0  0  0  0  0  0  0  0  0
   30.1270   46.1080   -3.0500 C   0  0  0  0  0  0  0  0  0  0  0  0
   28.4270   44.4470   -2.6140 C   0  0  0  0  0  0  0  0  0  0  0  0
   29.5230   47.0100   -2.1350 C   0  0  0  0  0  0  0  0  0  0  0  0
   30.0620   48.3950   -1.8430 C   0  0  0  0  0  0  0  0  0  0  0  0
   27.8170   45.3120   -1.7100 C   0  0  0  0  0  0  0  0  0  0  0  0
   28.3580   46.5700   -1.4780 C   0  0  0  0  0  0  0  0  0  0  0  0
   29.1430   49.4960   -2.3880 C   0  0  0  0  0  0  0  0  0  0  0  0
   29.8990   50.4260   -3.1860 O   0  0  0  0  0  0  0  0  0  0  0  0
   29.3560   50.7460   -4.4110 C   0  0  0  0  0  0  0  0  0  0  0  0
   29.2060   52.1060   -4.7620 C   0  0  0  0  0  0  0  0  0  0  0  0
   28.9520   49.7470   -5.3050 C   0  0  0  0  0  0  0  0  0  0  0  0
   29.6090   53.2430   -3.8690 C   0  0  0  0  0  0  0  0  0  0  0  0
   28.4020   50.0770   -6.5430 C   0  0  0  0  0  0  0  0  0  0  0  0
   28.6460   52.4210   -6.0220 C   0  0  0  0  0  0  0  0  0  0  0  0
   29.3570   54.5350   -4.2610 N   0  0  0  0  0  0  0  0  0  0  0  0
   30.1570   53.0240   -2.7900 O   0  0  0  0  0  0  0  0  0  0  0  0
   28.2480   51.4110   -6.9020 C   0  0  0  0  0  0  0  0  0  0  0  0
   29.6140   54.8710   -5.6060 O   0  0  0  0  0  0  0  0  0  0  0  0
  1  2  1  0
  2  3  2  0
  2  4  1  0
  4  5  1  0
  5  6  2  0
  5  7  1  0
  6  8  1  0
  7  9  1  0
  8  9  2  0
  8 10  1  0
  9 11  1  0
 11 12  1  0
 10 13  2  0
 11 14  2  0
 13 14  1  0
 12 15  1  0
 15 16  1  0
 16 17  1  0
 17 18  2  0
 17 19  1  0
 18 20  1  0
 19 21  2  0
 18 22  1  0
 20 23  1  0
 20 24  2  0
 21 25  1  0
 22 25  2  0
 23 26  1  0
M  END
