mac-x0131-mac-x0213
     RDKit          3D

 30 34  0  0  0  0  0  0  0  0999 V2000
   30.7490   49.5950   -2.0190 C   0  0  0  0  0  0  0  0  0  0  0  0
   30.3510   49.4190   -3.4480 C   0  0  0  0  0  0  0  0  0  0  0  0
   29.4960   50.2250   -4.1920 C   0  0  0  0  0  0  0  0  0  0  0  0
   30.7980   48.3870   -4.2670 N   0  0  0  0  0  0  0  0  0  0  0  0
   28.7860   51.4460   -3.7250 C   0  0  0  0  0  0  0  0  0  0  0  0
   31.7200   47.2980   -3.9010 C   0  0  2  0  0  0  0  0  0  0  0  0
   29.4150   49.6700   -5.5060 C   0  0  0  0  0  0  0  0  0  0  0  0
   30.2230   48.5440   -5.5260 C   0  0  0  0  0  0  0  0  0  0  0  0
   28.7430   49.9930   -6.6990 C   0  0  0  0  0  0  0  0  0  0  0  0
   30.4110   47.7450   -6.5930 N   0  0  0  0  0  0  0  0  0  0  0  0
   32.9690   47.2090   -4.7600 C   0  0  0  0  0  0  0  0  0  0  0  0
   31.1160   45.9400   -3.4050 C   0  0  2  0  0  0  0  0  0  0  0  0
   27.8970   51.0870   -6.8490 N   0  0  0  0  0  0  0  0  0  0  0  0
   28.9080   49.2140   -7.7830 N   0  0  0  0  0  0  0  0  0  0  0  0
   29.7210   48.1500   -7.6690 C   0  0  0  0  0  0  0  0  0  0  0  0
   33.8080   46.1930   -5.1830 C   0  0  0  0  0  0  0  0  0  0  0  0
   33.4270   48.4020   -5.2620 O   0  0  0  0  0  0  0  0  0  0  0  0
   30.7500   44.6960   -4.2800 C   0  0  2  0  0  0  0  0  0  0  0  0
   29.8520   46.0090   -2.5680 C   0  0  0  0  0  0  0  0  0  0  0  0
   31.4770   44.3300   -5.5630 C   0  0  0  0  0  0  0  0  0  0  0  0
   34.5390   48.1390   -5.9930 C   0  0  0  0  0  0  0  0  0  0  0  0
   34.8150   46.7950   -5.9750 C   0  0  0  0  0  0  0  0  0  0  0  0
   28.7910   45.4190   -3.2710 C   0  0  0  0  0  0  0  0  0  0  0  0
   29.2570   44.9150   -4.6050 C   0  0  0  0  0  0  0  0  0  0  0  0
   29.6450   46.5430   -1.3050 C   0  0  0  0  0  0  0  0  0  0  0  0
   32.6760   43.7560   -5.3900 O   0  0  0  0  0  0  0  0  0  0  0  0
   31.0340   44.5050   -6.6900 O   0  0  0  0  0  0  0  0  0  0  0  0
   28.3600   46.4770   -0.7560 C   0  0  0  0  0  0  0  0  0  0  0  0
   27.5130   45.3500   -2.7340 C   0  0  0  0  0  0  0  0  0  0  0  0
   27.3050   45.8880   -1.4630 C   0  0  0  0  0  0  0  0  0  0  0  0
  1  2  1  0
  2  3  2  0
  2  4  1  0
  3  5  1  0
  4  6  1  0
  3  7  1  0
  4  8  1  0
  7  8  2  0
  7  9  1  0
  8 10  1  0
  6 11  1  6
  6 12  1  0
  9 13  1  0
  9 14  2  0
 10 15  2  0
 14 15  1  0
 11 16  2  0
 11 17  1  0
 12 18  1  0
 12 19  1  6
 18 20  1  6
 17 21  1  0
 16 22  1  0
 21 22  2  0
 19 23  2  0
 18 24  1  0
 23 24  1  0
 19 25  1  0
 20 26  1  0
 20 27  2  0
 25 28  2  0
 23 29  1  0
 28 30  1  0
 29 30  2  0
M  END
