mac-x0206-mac-x0302
     RDKit          3D

 16 16  0  0  0  0  0  0  0  0999 V2000
   28.8440   49.9580   -6.0710 N   0  0  0  0  0  0  0  0  0  0  0  0
   28.9190   50.6380   -4.7620 C   0  0  1  0  0  0  0  0  0  0  0  0
   29.9590   49.8080   -3.9260 C   0  0  0  0  0  0  0  0  0  0  0  0
   29.1080   52.1320   -5.0550 C   0  0  0  0  0  0  0  0  0  0  0  0
   30.5570   48.6800   -4.4710 N   0  0  0  0  0  0  0  0  0  0  0  0
   30.2550   50.0780   -2.7590 O   0  0  0  0  0  0  0  0  0  0  0  0
   29.7190   53.0630   -4.1870 C   0  0  0  0  0  0  0  0  0  0  0  0
   28.6310   52.6260   -6.2850 C   0  0  0  0  0  0  0  0  0  0  0  0
   30.2160   52.6900   -2.9740 O   0  0  0  0  0  0  0  0  0  0  0  0
   30.5030   47.2850   -3.9980 C   0  0  0  0  0  0  0  0  0  0  0  0
   29.8370   54.4140   -4.5260 C   0  0  0  0  0  0  0  0  0  0  0  0
   28.7460   53.9770   -6.6260 C   0  0  0  0  0  0  0  0  0  0  0  0
   30.7870   46.2210   -5.0700 C   0  0  0  0  0  0  0  0  0  0  0  0
   29.3480   54.8690   -5.7480 C   0  0  0  0  0  0  0  0  0  0  0  0
   30.8640   44.9560   -4.5970 O   0  0  0  0  0  0  0  0  0  0  0  0
   30.9330   46.4800   -6.2560 O   0  0  0  0  0  0  0  0  0  0  0  0
  2  1  1  6
  2  3  1  0
  2  4  1  0
  3  5  1  0
  3  6  2  0
  4  7  2  0
  4  8  1  0
  7  9  1  0
  5 10  1  0
  7 11  1  0
  8 12  2  0
 10 13  1  0
 11 14  2  0
 12 14  1  0
 13 15  1  0
 13 16  2  0
M  END
