mac-x0345-mac-x1493
     RDKit          3D

 16 17  0  0  0  0  0  0  0  0999 V2000
   31.1570   53.7350   -5.1610 C   0  0  0  0  0  0  0  0  0  0  0  0
   29.7290   53.3100   -4.8210 C   0  0  2  0  0  0  0  0  0  0  0  0
   29.8060   52.7010   -3.4760 N   0  0  0  0  0  0  0  0  0  0  0  0
   29.0670   52.3990   -5.9330 C   0  0  1  0  0  0  0  0  0  0  0  0
   29.0890   54.6840   -4.7370 C   0  0  0  0  0  0  0  0  0  0  0  0
   29.9090   52.6520   -7.6940 Br  0  0  0  0  0  0  0  0  0  0  0  0
   29.2430   50.9180   -5.6640 C   0  0  0  0  0  0  0  0  0  0  0  0
   29.7410   51.4120   -3.3280 C   0  0  0  0  0  0  0  0  0  0  0  0
   27.9190   54.9670   -5.3010 C   0  0  0  0  0  0  0  0  0  0  0  0
   27.6580   52.7650   -6.3020 C   0  0  0  0  0  0  0  0  0  0  0  0
   29.8440   50.9780   -2.0300 N   0  0  0  0  0  0  0  0  0  0  0  0
   29.5700   50.4230   -4.4520 C   0  0  0  0  0  0  0  0  0  0  0  0
   27.1580   53.9700   -6.0080 C   0  0  0  0  0  0  0  0  0  0  0  0
   29.7680   48.9570   -4.2390 C   0  0  0  0  0  0  0  0  0  0  0  0
   29.5560   48.1860   -5.3290 O   0  0  0  0  0  0  0  0  0  0  0  0
   30.1030   48.4730   -3.1650 O   0  0  0  0  0  0  0  0  0  0  0  0
  2  1  1  6
  2  3  1  0
  2  4  1  0
  2  5  1  0
  4  6  1  6
  4  7  1  0
  3  8  2  0
  5  9  2  0
  4 10  1  0
  8 11  1  0
  7 12  2  0
  8 12  1  0
  9 13  1  0
 10 13  2  0
 12 14  1  0
 14 15  1  0
 14 16  2  0
M  END
