mac-x0131-mac-x0441
     RDKit          3D

 34 38  0  0  0  0  0  0  0  0999 V2000
   30.8460   49.4490   -1.9750 C   0  0  0  0  0  0  0  0  0  0  0  0
   30.2780   49.2840   -3.3410 C   0  0  0  0  0  0  0  0  0  0  0  0
   29.6700   50.2140   -4.1760 C   0  0  0  0  0  0  0  0  0  0  0  0
   30.3000   48.0720   -3.9950 N   0  0  0  0  0  0  0  0  0  0  0  0
   29.4360   51.6560   -3.8820 C   0  0  0  0  0  0  0  0  0  0  0  0
   30.8780   46.8300   -3.4480 C   0  0  0  0  0  0  0  0  0  0  0  0
   29.3040   49.5410   -5.3880 C   0  0  0  0  0  0  0  0  0  0  0  0
   29.7020   48.2140   -5.2460 C   0  0  0  0  0  0  0  0  0  0  0  0
   28.6820   49.8910   -6.5990 C   0  0  0  0  0  0  0  0  0  0  0  0
   29.5310   47.2510   -6.1720 N   0  0  0  0  0  0  0  0  0  0  0  0
   31.9460   46.4130   -4.3810 C   0  0  0  0  0  0  0  0  0  0  0  0
   28.2300   51.1710   -6.9050 N   0  0  0  0  0  0  0  0  0  0  0  0
   28.4980   48.9500   -7.5480 N   0  0  0  0  0  0  0  0  0  0  0  0
   28.9250   47.7040   -7.2820 C   0  0  0  0  0  0  0  0  0  0  0  0
   33.2200   45.8300   -4.4750 C   0  0  0  0  0  0  0  0  0  0  0  0
   31.5240   46.7280   -5.6280 O   0  0  0  0  0  0  0  0  0  0  0  0
   32.4570   46.3700   -6.5040 C   0  0  0  0  0  0  0  0  0  0  0  0
   33.5020   45.8160   -5.8620 C   0  0  0  0  0  0  0  0  0  0  0  0
   34.2250   45.3070   -3.6050 N   0  0  0  0  0  0  0  0  0  0  0  0
   34.2720   44.0230   -3.1190 N   0  0  0  0  0  0  0  0  0  0  0  0
   35.3060   46.0220   -3.1590 C   0  0  0  0  0  0  0  0  0  0  0  0
   34.5960   45.3380   -6.4420 O   0  0  0  0  0  0  0  0  0  0  0  0
   35.4050   43.9510   -2.3720 C   0  0  0  0  0  0  0  0  0  0  0  0
   36.0740   45.1940   -2.3780 C   0  0  0  0  0  0  0  0  0  0  0  0
   35.6230   47.4420   -3.4620 C   0  0  0  0  0  0  0  0  0  0  0  0
   34.3400   44.3760   -7.3410 C   0  0  0  0  0  0  0  0  0  0  0  0
   35.8740   42.7080   -1.6530 C   0  0  0  0  0  0  0  0  0  0  0  0
   37.3410   45.6280   -1.7290 C   0  0  0  0  0  0  0  0  0  0  0  0
   36.6950   47.9690   -2.4930 C   0  0  0  0  0  0  0  0  0  0  0  0
   33.2460   44.0050   -7.7420 O   0  0  0  0  0  0  0  0  0  0  0  0
   36.9490   42.1530   -2.2780 F   0  0  0  0  0  0  0  0  0  0  0  0
   36.2890   42.9930   -0.3870 F   0  0  0  0  0  0  0  0  0  0  0  0
   34.9380   41.7320   -1.5460 F   0  0  0  0  0  0  0  0  0  0  0  0
   37.8370   46.9520   -2.3320 C   0  0  0  0  0  0  0  0  0  0  0  0
  1  2  1  0
  2  3  2  0
  2  4  1  0
  3  5  1  0
  4  6  1  0
  3  7  1  0
  4  8  1  0
  7  8  2  0
  7  9  1  0
  8 10  1  0
  6 11  1  0
  9 12  1  0
  9 13  2  0
 10 14  2  0
 13 14  1  0
 11 15  2  0
 11 16  1  0
 16 17  1  0
 15 18  1  0
 17 18  2  0
 15 19  1  0
 19 20  1  0
 19 21  1  0
 18 22  1  0
 20 23  2  0
 21 24  2  0
 23 24  1  0
 21 25  1  0
 22 26  1  0
 23 27  1  0
 24 28  1  0
 25 29  1  0
 26 30  2  0
 27 31  1  0
 27 32  1  0
 27 33  1  0
 28 34  1  0
 29 34  1  0
M  END
