mac-x0394-mac-x0568
     RDKit          3D

 23 24  0  0  0  0  0  0  0  0999 V2000
   24.7100   50.8730   -2.4380 Cl  0  0  0  0  0  0  0  0  0  0  0  0
   25.3980   51.6810   -3.7940 C   0  0  0  0  0  0  0  0  0  0  0  0
   25.3330   53.0670   -3.8740 C   0  0  0  0  0  0  0  0  0  0  0  0
   26.0150   50.9340   -4.8020 C   0  0  0  0  0  0  0  0  0  0  0  0
   26.5830   51.5680   -5.9200 C   0  0  0  0  0  0  0  0  0  0  0  0
   25.8900   53.7080   -4.9750 C   0  0  0  0  0  0  0  0  0  0  0  0
   25.8120   55.4250   -5.0830 Cl  0  0  0  0  0  0  0  0  0  0  0  0
   27.2570   50.7650   -7.0270 C   0  0  1  0  0  0  0  0  0  0  0  0
   26.5110   52.9730   -5.9930 C   0  0  0  0  0  0  0  0  0  0  0  0
   26.7260   51.1580   -8.4030 C   0  0  0  0  0  0  0  0  0  0  0  0
   28.8060   50.7570   -7.0350 C   0  0  0  0  0  0  0  0  0  0  0  0
   27.6200   51.7890   -9.1920 O   0  0  0  0  0  0  0  0  0  0  0  0
   25.5960   50.9440   -8.8160 O   0  0  0  0  0  0  0  0  0  0  0  0
   29.5530   50.5930   -5.6840 C   0  0  1  0  0  0  0  0  0  0  0  0
   28.7080   49.8290   -4.8390 O   0  0  0  0  0  0  0  0  0  0  0  0
   30.7300   49.7560   -5.8060 N   0  0  0  0  0  0  0  0  0  0  0  0
   29.8090   51.9110   -4.9770 C   0  0  0  0  0  0  0  0  0  0  0  0
   30.5040   52.0190   -3.7760 C   0  0  0  0  0  0  0  0  0  0  0  0
   29.3400   53.1160   -5.5210 C   0  0  0  0  0  0  0  0  0  0  0  0
   30.7510   53.1840   -3.1230 N   0  0  0  0  0  0  0  0  0  0  0  0
   29.5750   54.3270   -4.8770 C   0  0  0  0  0  0  0  0  0  0  0  0
   30.2810   54.3230   -3.6830 C   0  0  0  0  0  0  0  0  0  0  0  0
   30.5510   55.6100   -2.9660 C   0  0  0  0  0  0  0  0  0  0  0  0
  1  2  1  0
  2  3  2  0
  2  4  1  0
  4  5  2  0
  3  6  1  0
  6  7  1  0
  5  8  1  0
  5  9  1  0
  6  9  2  0
  8 10  1  0
  8 11  1  6
 10 12  1  0
 10 13  2  0
 11 14  1  0
 14 15  1  0
 14 16  1  6
 14 17  1  0
 17 18  2  0
 17 19  1  0
 18 20  1  0
 19 21  2  0
 20 22  2  0
 21 22  1  0
 22 23  1  0
M  END
