mac-x0137-mac-x0396
     RDKit          3D

 25 28  0  0  0  0  0  0  0  0999 V2000
   31.9920   49.0990   -3.8910 F   0  0  0  0  0  0  0  0  0  0  0  0
   31.2500   47.9610   -3.7360 C   0  0  2  0  0  0  0  0  0  0  0  0
   32.1270   46.7790   -4.1220 C   0  0  0  0  0  0  0  0  0  0  0  0
   29.9800   48.0440   -4.6030 C   0  0  0  0  0  0  0  0  0  0  0  0
   30.2580   47.9620   -6.0670 N   0  0  0  0  0  0  0  0  0  0  0  0
   32.4020   46.7830   -5.6200 C   0  0  0  0  0  0  0  0  0  0  0  0
   31.0940   46.7830   -6.4060 C   0  0  0  0  0  0  0  0  0  0  0  0
   29.2390   48.2780   -6.9900 C   0  0  0  0  0  0  0  0  0  0  0  0
   28.8580   47.3740   -7.9620 N   0  0  0  0  0  0  0  0  0  0  0  0
   28.5660   49.4540   -7.0090 C   0  0  0  0  0  0  0  0  0  0  0  0
   27.8810   47.6400   -8.8770 C   0  0  0  0  0  0  0  0  0  0  0  0
   27.5140   49.6790   -8.0330 C   0  0  0  0  0  0  0  0  0  0  0  0
   28.5510   50.6820   -6.2690 C   0  0  0  0  0  0  0  0  0  0  0  0
   29.3660   50.9330   -5.2090 N   0  0  0  0  0  0  0  0  0  0  0  0
   27.1940   48.7300   -8.9630 N   0  0  0  0  0  0  0  0  0  0  0  0
   26.9530   50.8540   -7.9340 N   0  0  0  0  0  0  0  0  0  0  0  0
   27.6050   51.4430   -6.8520 C   0  0  0  0  0  0  0  0  0  0  0  0
   29.0360   51.6280   -4.0630 C   0  0  0  0  0  0  0  0  0  0  0  0
   28.4940   51.1580   -3.0670 O   0  0  0  0  0  0  0  0  0  0  0  0
   29.3720   53.0690   -4.0690 C   0  0  0  0  0  0  0  0  0  0  0  0
   29.6700   53.7560   -2.9010 C   0  0  0  0  0  0  0  0  0  0  0  0
   29.3950   53.7800   -5.2700 C   0  0  0  0  0  0  0  0  0  0  0  0
   29.9840   55.0730   -2.8560 N   0  0  0  0  0  0  0  0  0  0  0  0
   29.7120   55.1360   -5.2570 C   0  0  0  0  0  0  0  0  0  0  0  0
   29.9970   55.7320   -4.0360 C   0  0  0  0  0  0  0  0  0  0  0  0
  2  1  1  6
  2  3  1  0
  2  4  1  0
  4  5  1  0
  3  6  1  0
  5  7  1  0
  6  7  1  0
  5  8  1  0
  8  9  1  0
  8 10  2  0
  9 11  1  0
 10 12  1  0
 10 13  1  0
 13 14  1  0
 11 15  2  0
 12 15  1  0
 12 16  2  0
 13 17  2  0
 16 17  1  0
 14 18  1  0
 18 19  2  0
 18 20  1  0
 20 21  2  0
 20 22  1  0
 21 23  1  0
 22 24  2  0
 23 25  2  0
 24 25  1  0
M  END
