mac-x0131-mac-x1494
     RDKit          3D

 21 24  0  0  0  0  0  0  0  0999 V2000
   30.0170   48.7080   -2.1500 C   0  0  0  0  0  0  0  0  0  0  0  0
   30.3560   48.8610   -3.6300 C   0  0  2  0  0  0  0  0  0  0  0  0
   29.7780   50.1470   -4.3260 C   0  0  2  0  0  0  0  0  0  0  0  0
   29.8750   47.7540   -4.4680 N   0  0  0  0  0  0  0  0  0  0  0  0
   28.5990   50.6790   -3.4970 C   0  0  0  0  0  0  0  0  0  0  0  0
   30.4870   46.4410   -4.2430 C   0  0  0  0  0  0  0  0  0  0  0  0
   29.4930   49.6730   -5.7920 C   0  0  1  0  0  0  0  0  0  0  0  0
   29.9450   48.2060   -5.8540 C   0  0  2  0  0  0  0  0  0  0  0  0
   30.7880   51.2940   -4.5020 C   0  0  0  0  0  0  0  0  0  0  0  0
   28.0430   49.7720   -6.3120 C   0  0  1  0  0  0  0  0  0  0  0  0
   29.0600   47.3930   -6.6830 N   0  0  0  0  0  0  0  0  0  0  0  0
   31.9680   46.4450   -4.4250 C   0  0  0  0  0  0  0  0  0  0  0  0
   30.7040   51.7460   -5.8460 O   0  0  0  0  0  0  0  0  0  0  0  0
   30.4300   50.5820   -6.6260 C   0  0  0  0  0  0  0  0  0  0  0  0
   27.4910   51.1080   -6.4000 N   0  0  0  0  0  0  0  0  0  0  0  0
   27.8800   49.1890   -7.6280 N   0  0  0  0  0  0  0  0  0  0  0  0
   28.7510   48.0720   -7.9160 C   0  0  0  0  0  0  0  0  0  0  0  0
   32.8010   45.9510   -5.4090 C   0  0  0  0  0  0  0  0  0  0  0  0
   32.7150   47.0480   -3.4510 O   0  0  0  0  0  0  0  0  0  0  0  0
   34.0140   46.9360   -3.8170 C   0  0  0  0  0  0  0  0  0  0  0  0
   34.1240   46.2680   -5.0170 C   0  0  0  0  0  0  0  0  0  0  0  0
  2  1  1  1
  2  3  1  0
  2  4  1  0
  3  5  1  1
  4  6  1  0
  3  7  1  0
  4  8  1  0
  7  8  1  0
  3  9  1  0
  7 10  1  0
  8 11  1  6
  6 12  1  0
  9 13  1  0
  7 14  1  6
 13 14  1  0
 10 15  1  6
 10 16  1  0
 11 17  1  0
 16 17  1  0
 12 18  2  0
 12 19  1  0
 19 20  1  0
 18 21  1  0
 20 21  2  0
M  END
