mac-x0179-mac-x0436
     RDKit          3D

 16 17  0  0  0  0  0  0  0  0999 V2000
   31.6380   45.9910   -5.6370 N   0  0  0  0  0  0  0  0  0  0  0  0
   32.8360   45.8370   -4.7810 C   0  0  0  0  0  0  0  0  0  0  0  0
   33.9100   45.9840   -5.3560 O   0  0  0  0  0  0  0  0  0  0  0  0
   31.7970   45.5940   -6.7970 O   0  0  0  0  0  0  0  0  0  0  0  0
   32.6870   45.5220   -3.2960 C   0  0  0  0  0  0  0  0  0  0  0  0
   33.9340   45.7520   -2.5950 N   0  0  0  0  0  0  0  0  0  0  0  0
   34.6890   44.7650   -2.0310 C   0  0  0  0  0  0  0  0  0  0  0  0
   34.5060   46.9840   -2.4450 C   0  0  0  0  0  0  0  0  0  0  0  0
   34.4320   43.5790   -1.9340 O   0  0  0  0  0  0  0  0  0  0  0  0
   34.0580   48.0630   -2.7690 O   0  0  0  0  0  0  0  0  0  0  0  0
   35.9130   45.4090   -1.5450 C   0  0  0  0  0  0  0  0  0  0  0  0
   35.8000   46.7650   -1.8010 C   0  0  0  0  0  0  0  0  0  0  0  0
   37.0270   44.8700   -0.9350 C   0  0  0  0  0  0  0  0  0  0  0  0
   36.7970   47.6580   -1.4630 C   0  0  0  0  0  0  0  0  0  0  0  0
   38.0530   45.7540   -0.5810 C   0  0  0  0  0  0  0  0  0  0  0  0
   37.9400   47.1380   -0.8440 C   0  0  0  0  0  0  0  0  0  0  0  0
  1  2  1  0
  2  3  2  0
  1  4  2  0
  2  5  1  0
  5  6  1  0
  6  7  1  0
  6  8  1  0
  7  9  2  0
  8 10  2  0
  7 11  1  0
  8 12  1  0
 11 12  2  0
 11 13  1  0
 12 14  1  0
 13 15  2  0
 14 16  2  0
 15 16  1  0
M  END
