mac-x0328-mac-x0142
     RDKit          3D

 23 26  0  0  0  0  0  0  0  0999 V2000
   32.6370   49.0250   -3.6270 O   0  0  0  0  0  0  0  0  0  0  0  0
   32.0650   49.2540   -4.8270 C   0  0  0  0  0  0  0  0  0  0  0  0
   32.5220   48.7320   -5.8350 O   0  0  0  0  0  0  0  0  0  0  0  0
   30.8620   50.1870   -4.7920 C   0  0  1  0  0  0  0  0  0  0  0  0
   29.5400   49.6830   -5.4770 C   0  0  1  0  0  0  0  0  0  0  0  0
   30.6230   50.6280   -3.3690 C   0  0  0  0  0  0  0  0  0  0  0  0
   28.4490   50.7960   -5.3220 C   0  0  0  0  0  0  0  0  0  0  0  0
   29.5330   51.3150   -3.0350 C   0  0  0  0  0  0  0  0  0  0  0  0
   29.8350   49.5380   -7.0090 C   0  0  0  0  0  0  0  0  0  0  0  0
   29.0280   48.2440   -4.9780 C   0  0  2  0  0  0  0  0  0  0  0  0
   28.4950   51.6860   -4.0490 C   0  0  1  0  0  0  0  0  0  0  0  0
   30.0850   47.2760   -4.6230 N   0  0  0  0  0  0  0  0  0  0  0  0
   28.0560   47.6740   -5.9180 N   0  0  0  0  0  0  0  0  0  0  0  0
   28.7230   48.9350   -7.7400 N   0  0  0  0  0  0  0  0  0  0  0  0
   28.7160   53.0300   -4.4660 O   0  0  0  0  0  0  0  0  0  0  0  0
   30.5630   47.4030   -3.2320 C   0  0  0  0  0  0  0  0  0  0  0  0
   29.9370   45.8420   -4.9430 C   0  0  0  0  0  0  0  0  0  0  0  0
   28.5280   47.5910   -7.2740 C   0  0  0  0  0  0  0  0  0  0  0  0
   31.1860   45.0200   -4.6670 C   0  0  0  0  0  0  0  0  0  0  0  0
   31.8790   46.6740   -2.9580 C   0  0  0  0  0  0  0  0  0  0  0  0
   31.2490   43.6190   -5.2460 C   0  0  0  0  0  0  0  0  0  0  0  0
   32.1450   44.6890   -5.7960 C   0  0  0  0  0  0  0  0  0  0  0  0
   31.7400   45.1940   -3.2760 C   0  0  0  0  0  0  0  0  0  0  0  0
  1  2  1  0
  2  3  2  0
  4  2  1  1
  4  5  1  0
  4  6  1  0
  5  7  1  6
  6  8  2  0
  5  9  1  0
  5 10  1  0
  7 11  1  0
  8 11  1  0
 10 12  1  6
 10 13  1  0
  9 14  1  0
 11 15  1  6
 12 16  1  0
 12 17  1  0
 13 18  1  0
 14 18  1  0
 19 17  1  0
 16 20  1  0
 19 21  1  0
 19 22  1  0
 21 22  1  0
 19 23  1  0
 20 23  1  0
M  END
