mac-x0328-mac-x0404
     RDKit          3D

 26 28  0  0  0  0  0  0  0  0999 V2000
   32.2660   48.7230   -5.7840 O   0  0  0  0  0  0  0  0  0  0  0  0
   30.9370   48.5340   -5.7430 C   0  0  0  0  0  0  0  0  0  0  0  0
   30.4480   47.5290   -6.3740 N   0  0  0  0  0  0  0  0  0  0  0  0
   30.3080   49.5770   -4.9380 C   0  0  0  0  0  0  0  0  0  0  0  0
   31.3810   46.6490   -7.0860 C   0  0  0  0  0  0  0  0  0  0  0  0
   30.0920   50.8460   -5.4870 C   0  0  0  0  0  0  0  0  0  0  0  0
   29.9280   49.2950   -3.6220 C   0  0  0  0  0  0  0  0  0  0  0  0
   31.2370   45.2530   -6.7900 O   0  0  0  0  0  0  0  0  0  0  0  0
   29.4920   51.8370   -4.7110 C   0  0  0  0  0  0  0  0  0  0  0  0
   29.3280   50.2910   -2.8490 C   0  0  0  0  0  0  0  0  0  0  0  0
   32.2900   44.6980   -6.1290 C   0  0  0  0  0  0  0  0  0  0  0  0
   29.1170   51.5520   -3.4020 C   0  0  0  0  0  0  0  0  0  0  0  0
   28.5340   52.5500   -2.6770 O   0  0  0  0  0  0  0  0  0  0  0  0
   33.0060   43.8070   -6.5730 O   0  0  0  0  0  0  0  0  0  0  0  0
   32.4820   45.3190   -4.7490 C   0  0  0  0  0  0  0  0  0  0  0  0
   31.5020   44.9930   -3.7720 O   0  0  0  0  0  0  0  0  0  0  0  0
   31.2250   45.9300   -2.7990 C   0  0  0  0  0  0  0  0  0  0  0  0
   29.9030   45.9260   -2.2790 C   0  0  0  0  0  0  0  0  0  0  0  0
   32.1580   46.8570   -2.3180 C   0  0  0  0  0  0  0  0  0  0  0  0
   29.5520   46.8650   -1.2760 C   0  0  0  0  0  0  0  0  0  0  0  0
   31.7970   47.7740   -1.3330 C   0  0  0  0  0  0  0  0  0  0  0  0
   28.9080   45.0230   -2.7140 C   0  0  0  0  0  0  0  0  0  0  0  0
   30.5070   47.7780   -0.8160 C   0  0  0  0  0  0  0  0  0  0  0  0
   28.2480   46.8750   -0.7500 C   0  0  0  0  0  0  0  0  0  0  0  0
   27.6160   45.0450   -2.1810 C   0  0  0  0  0  0  0  0  0  0  0  0
   27.2890   45.9720   -1.1990 C   0  0  0  0  0  0  0  0  0  0  0  0
  1  2  1  0
  2  3  2  3
  2  4  1  0
  3  5  1  0
  4  6  2  0
  4  7  1  0
  5  8  1  0
  6  9  1  0
  7 10  2  0
  8 11  1  0
  9 12  2  0
 10 12  1  0
 12 13  1  0
 11 14  2  0
 11 15  1  0
 15 16  1  0
 16 17  1  0
 17 18  1  0
 17 19  2  0
 18 20  2  0
 19 21  1  0
 18 22  1  0
 20 23  1  0
 21 23  2  0
 20 24  1  0
 22 25  2  0
 24 26  2  0
 25 26  1  0
M  END
