mac-x0347-mac-x0371
     RDKit          3D

 26 28  0  0  0  0  0  0  0  0999 V2000
   29.3540   45.6080   -6.7520 O   0  0  0  0  0  0  0  0  0  0  0  0
   30.3810   46.2750   -6.1990 C   0  0  0  0  0  0  0  0  0  0  0  0
   31.5700   45.8250   -6.4330 N   0  0  0  0  0  0  0  0  0  0  0  0
   29.8580   47.4100   -5.4330 C   0  0  0  0  0  0  0  0  0  0  0  0
   32.6600   46.4760   -5.8950 C   0  0  0  0  0  0  0  0  0  0  0  0
   29.9710   48.7050   -5.9430 C   0  0  0  0  0  0  0  0  0  0  0  0
   29.2400   47.2350   -4.2010 C   0  0  0  0  0  0  0  0  0  0  0  0
   33.0550   47.5630   -6.3040 O   0  0  0  0  0  0  0  0  0  0  0  0
   33.3380   45.7190   -4.7550 C   0  0  0  0  0  0  0  0  0  0  0  0
   29.4670   49.7940   -5.2180 C   0  0  0  0  0  0  0  0  0  0  0  0
   28.7380   48.2610   -3.4650 N   0  0  0  0  0  0  0  0  0  0  0  0
   28.8650   49.5040   -3.9920 C   0  0  0  0  0  0  0  0  0  0  0  0
   29.5660   51.1680   -5.7220 C   0  0  0  0  0  0  0  0  0  0  0  0
   32.3840   44.9680   -3.8530 C   0  0  0  0  0  0  0  0  0  0  0  0
   28.7970   51.5870   -6.8200 C   0  0  0  0  0  0  0  0  0  0  0  0
   30.4280   52.1000   -5.1240 C   0  0  0  0  0  0  0  0  0  0  0  0
   32.0400   45.4610   -2.5750 C   0  0  0  0  0  0  0  0  0  0  0  0
   31.8020   43.7450   -4.2510 C   0  0  0  0  0  0  0  0  0  0  0  0
   32.1370   43.0180   -5.7870 Cl  0  0  0  0  0  0  0  0  0  0  0  0
   32.6810   46.9460   -1.9540 Cl  0  0  0  0  0  0  0  0  0  0  0  0
   28.8870   52.8940   -7.3040 C   0  0  0  0  0  0  0  0  0  0  0  0
   30.5180   53.4090   -5.6060 C   0  0  0  0  0  0  0  0  0  0  0  0
   31.1560   44.7670   -1.7420 C   0  0  0  0  0  0  0  0  0  0  0  0
   30.9180   43.0540   -3.4130 C   0  0  0  0  0  0  0  0  0  0  0  0
   29.7470   53.8030   -6.6960 C   0  0  0  0  0  0  0  0  0  0  0  0
   30.5940   43.5660   -2.1600 C   0  0  0  0  0  0  0  0  0  0  0  0
  1  2  1  0
  2  3  2  3
  2  4  1  0
  3  5  1  0
  4  6  2  0
  4  7  1  0
  5  8  2  0
  5  9  1  0
  6 10  1  0
  7 11  2  0
 10 12  2  0
 11 12  1  0
 10 13  1  0
  9 14  1  0
 13 15  2  0
 13 16  1  0
 14 17  2  0
 14 18  1  0
 18 19  1  0
 17 20  1  0
 15 21  1  0
 16 22  2  0
 17 23  1  0
 18 24  2  0
 21 25  2  0
 22 25  1  0
 23 26  2  0
 24 26  1  0
M  END
