mac-x0346-mac-x0328
     RDKit          3D

 14 14  0  0  0  0  0  0  0  0999 V2000
   29.4770   54.8250   -5.6690 O   0  0  0  0  0  0  0  0  0  0  0  0
   29.4100   54.5560   -4.2890 N   0  0  0  0  0  0  0  0  0  0  0  0
   29.5460   53.2590   -3.8510 C   0  0  0  0  0  0  0  0  0  0  0  0
   29.9190   53.0470   -2.6970 O   0  0  0  0  0  0  0  0  0  0  0  0
   29.2610   52.0880   -4.7340 C   0  0  0  0  0  0  0  0  0  0  0  0
   29.6680   50.7810   -4.4050 C   0  0  0  0  0  0  0  0  0  0  0  0
   28.5620   52.3140   -5.9360 C   0  0  0  0  0  0  0  0  0  0  0  0
   30.3450   50.5830   -3.2240 O   0  0  0  0  0  0  0  0  0  0  0  0
   29.3860   49.7040   -5.2730 C   0  0  0  0  0  0  0  0  0  0  0  0
   28.2720   51.2510   -6.7980 C   0  0  0  0  0  0  0  0  0  0  0  0
   29.8380   48.3220   -4.9200 C   0  0  0  0  0  0  0  0  0  0  0  0
   28.6830   49.9540   -6.4690 C   0  0  0  0  0  0  0  0  0  0  0  0
   30.3460   48.1590   -3.6840 O   0  0  0  0  0  0  0  0  0  0  0  0
   29.7700   47.3830   -5.6950 O   0  0  0  0  0  0  0  0  0  0  0  0
  1  2  1  0
  2  3  1  0
  3  4  2  0
  3  5  1  0
  5  6  2  0
  5  7  1  0
  6  8  1  0
  6  9  1  0
  7 10  2  0
  9 11  1  0
  9 12  2  0
 10 12  1  0
 11 13  1  0
 11 14  2  0
M  END
