mac-x0380-mac-x0178
     RDKit          3D

 29 31  0  0  0  0  0  0  0  0999 V2000
   29.0560   48.5430   -4.3010 O   0  0  0  0  0  0  0  0  0  0  0  0
   28.9920   49.7230   -3.6680 C   0  0  0  0  0  0  0  0  0  0  0  0
   29.1510   49.7710   -2.4090 N   0  0  0  0  0  0  0  0  0  0  0  0
   28.7190   50.8100   -4.5790 C   0  0  0  0  0  0  0  0  0  0  0  0
   29.3820   48.5940   -1.6010 C   0  0  0  0  0  0  0  0  0  0  0  0
   28.8140   52.0850   -4.0440 C   0  0  0  0  0  0  0  0  0  0  0  0
   28.3710   50.6110   -5.9160 C   0  0  0  0  0  0  0  0  0  0  0  0
   28.0960   48.2940   -0.8140 C   0  0  0  0  0  0  0  0  0  0  0  0
   28.5610   53.1960   -4.8280 C   0  0  0  0  0  0  0  0  0  0  0  0
   28.1140   51.7270   -6.7160 C   0  0  0  0  0  0  0  0  0  0  0  0
   27.9220   46.8430   -0.6580 N   0  0  0  0  0  0  0  0  0  0  0  0
   28.2070   53.0180   -6.1720 C   0  0  0  0  0  0  0  0  0  0  0  0
   28.7040   54.7890   -4.0620 S   0  0  0  0  0  0  0  0  0  0  0  0
   29.2140   46.0520   -0.5550 S   0  0  2  0  0  0  0  0  0  0  0  0
   27.9390   54.1110   -7.0050 N   0  0  0  0  0  0  0  0  0  0  0  0
   29.0790   55.7500   -5.5370 C   0  0  0  0  0  0  0  0  0  0  0  0
   28.5650   44.5430   -0.2360 N   0  0  0  0  0  0  0  0  0  0  0  0
   30.2020   46.2070    0.4830 O   0  0  0  0  0  0  0  0  0  0  0  0
   28.1650   55.4250   -6.6950 C   0  0  0  0  0  0  0  0  0  0  0  0
   30.0210   46.0310   -2.1280 C   0  0  0  0  0  0  0  0  0  0  0  0
   27.6160   56.3030   -7.3650 O   0  0  0  0  0  0  0  0  0  0  0  0
   29.3840   45.4400   -3.2220 C   0  0  0  0  0  0  0  0  0  0  0  0
   31.2910   46.6100   -2.2690 C   0  0  0  0  0  0  0  0  0  0  0  0
   30.0160   45.4260   -4.4710 C   0  0  0  0  0  0  0  0  0  0  0  0
   31.9180   46.5950   -3.5200 C   0  0  0  0  0  0  0  0  0  0  0  0
   31.2870   46.0060   -4.6230 C   0  0  0  0  0  0  0  0  0  0  0  0
   31.9890   46.0120   -5.9330 C   0  0  0  0  0  0  0  0  0  0  0  0
   31.4840   45.7500   -7.0090 O   0  0  0  0  0  0  0  0  0  0  0  0
   33.2890   46.3480   -5.8270 O   0  0  0  0  0  0  0  0  0  0  0  0
  1  2  1  0
  2  3  2  3
  2  4  1  0
  3  5  1  0
  4  6  2  0
  4  7  1  0
  5  8  1  0
  6  9  1  0
  7 10  2  0
  8 11  1  0
  9 12  2  0
 10 12  1  0
  9 13  1  0
 11 14  2  0
 12 15  1  0
 13 16  1  0
 14 17  1  1
 14 18  2  0
 15 19  1  0
 16 19  1  0
 14 20  1  0
 19 21  2  0
 20 22  2  0
 20 23  1  0
 22 24  1  0
 23 25  2  0
 24 26  2  0
 25 26  1  0
 26 27  1  0
 27 28  2  0
 27 29  1  0
M  END
