mac-x0301-mac-x0439
     RDKit          3D

 24 27  0  0  0  0  0  0  0  0999 V2000
   28.0780   46.6260   -4.5950 O   0  0  0  0  0  0  0  0  0  0  0  0
   29.0940   47.4160   -4.1880 C   0  0  0  0  0  0  0  0  0  0  0  0
   29.9280   47.0410   -3.2670 N   0  0  0  0  0  0  0  0  0  0  0  0
   29.1910   48.7340   -4.8620 C   0  0  0  0  0  0  0  0  0  0  0  0
   29.0830   48.9000   -6.2350 C   0  0  0  0  0  0  0  0  0  0  0  0
   29.4020   49.8890   -4.0910 C   0  0  0  0  0  0  0  0  0  0  0  0
   29.7160   45.7910   -2.7420 C   0  0  0  0  0  0  0  0  0  0  0  0
   29.1780   50.1450   -6.8200 C   0  0  0  0  0  0  0  0  0  0  0  0
   29.4970   51.1550   -4.6940 C   0  0  0  0  0  0  0  0  0  0  0  0
   28.8790   47.9220   -7.1660 O   0  0  0  0  0  0  0  0  0  0  0  0
   30.6630   44.6770   -3.0940 C   0  0  2  0  0  0  0  0  0  0  0  0
   28.6820   45.5070   -1.9170 C   0  0  0  0  0  0  0  0  0  0  0  0
   29.3840   51.2890   -6.0800 C   0  0  0  0  0  0  0  0  0  0  0  0
   29.0470   50.1000   -8.1740 O   0  0  0  0  0  0  0  0  0  0  0  0
   28.8910   48.6870   -8.3910 C   0  0  0  0  0  0  0  0  0  0  0  0
   31.2320   44.5490   -4.4710 C   0  0  0  0  0  0  0  0  0  0  0  0
   29.8440   43.4030   -3.1440 C   0  0  0  0  0  0  0  0  0  0  0  0
   28.4790   44.1670   -1.3820 C   0  0  0  0  0  0  0  0  0  0  0  0
   30.7780   43.4210   -5.0380 C   0  0  0  0  0  0  0  0  0  0  0  0
   29.9190   42.6970   -4.2330 N   0  0  0  0  0  0  0  0  0  0  0  0
   29.0360   43.0870   -1.9570 C   0  0  0  0  0  0  0  0  0  0  0  0
   31.1570   42.9810   -6.4160 C   0  0  0  0  0  0  0  0  0  0  0  0
   30.2960   42.0690   -6.9360 O   0  0  0  0  0  0  0  0  0  0  0  0
   32.1320   43.3850   -7.0330 O   0  0  0  0  0  0  0  0  0  0  0  0
  1  2  1  0
  2  3  2  3
  2  4  1  0
  4  5  1  0
  4  6  2  0
  3  7  1  0
  5  8  2  0
  6  9  1  0
  5 10  1  0
  7 11  1  0
  7 12  2  0
  8 13  1  0
  9 13  2  0
  8 14  1  0
 10 15  1  0
 14 15  1  0
 11 16  1  6
 11 17  1  0
 12 18  1  0
 16 19  2  0
 17 20  2  0
 19 20  1  0
 17 21  1  0
 18 21  2  0
 19 22  1  0
 22 23  1  0
 22 24  2  0
M  END
