mac-x0455-mac-x0178
     RDKit          3D

 23 24  0  0  0  0  0  0  0  0999 V2000
   32.8950   47.6720   -6.8720 C   0  0  0  0  0  0  0  0  0  0  0  0
   32.2760   47.4610   -5.5160 C   0  0  1  0  0  0  0  0  0  0  0  0
   31.9070   48.7850   -5.1090 O   0  0  0  0  0  0  0  0  0  0  0  0
   31.0480   46.3800   -5.5700 S   0  0  0  0  0  0  0  0  0  0  0  0
   33.3580   47.1870   -4.5210 C   0  0  0  0  0  0  0  0  0  0  0  0
   30.0310   47.4480   -6.0100 O   0  0  0  0  0  0  0  0  0  0  0  0
   30.4020   45.6760   -6.9990 O   0  0  0  0  0  0  0  0  0  0  0  0
   31.9450   45.2370   -5.5750 O   0  0  0  0  0  0  0  0  0  0  0  0
   34.2940   48.1510   -4.2790 C   0  0  0  0  0  0  0  0  0  0  0  0
   33.4950   46.0170   -3.8050 C   0  0  0  0  0  0  0  0  0  0  0  0
   30.2870   46.1550   -4.1280 C   0  0  0  0  0  0  0  0  0  0  0  0
   35.3500   47.9770   -3.3550 C   0  0  0  0  0  0  0  0  0  0  0  0
   34.5290   45.7990   -2.8750 C   0  0  0  0  0  0  0  0  0  0  0  0
   29.2350   45.3160   -3.8520 C   0  0  0  0  0  0  0  0  0  0  0  0
   30.7330   46.9000   -3.0110 C   0  0  0  0  0  0  0  0  0  0  0  0
   35.4390   46.7990   -2.6740 C   0  0  0  0  0  0  0  0  0  0  0  0
   28.6570   45.2030   -2.6050 C   0  0  0  0  0  0  0  0  0  0  0  0
   30.1760   46.7980   -1.7920 C   0  0  0  0  0  0  0  0  0  0  0  0
   29.1260   45.9490   -1.5630 C   0  0  0  0  0  0  0  0  0  0  0  0
   28.4250   45.8590    0.0540 S   0  0  0  0  0  0  0  0  0  0  0  0
   28.0180   44.1660    0.3470 N   0  0  0  0  0  0  0  0  0  0  0  0
   29.3430   46.3410    1.1110 O   0  0  0  0  0  0  0  0  0  0  0  0
   27.1230   46.5940    0.0770 O   0  0  0  0  0  0  0  0  0  0  0  0
  2  1  1  6
  2  3  1  0
  2  4  1  0
  2  5  1  0
  4  6  2  0
  4  7  1  0
  4  8  1  0
  5  9  2  0
  5 10  1  0
  4 11  1  0
  9 12  1  0
 10 13  2  0
 11 14  2  0
 11 15  1  0
 12 16  2  0
 13 16  1  0
 14 17  1  0
 15 18  2  0
 17 19  2  0
 18 19  1  0
 19 20  1  0
 20 21  1  0
 20 22  2  0
 20 23  2  0
M  END
