mac-x0305-mac-x0354
     RDKit          3D

 26 28  0  0  0  0  0  0  0  0999 V2000
   30.8500   47.1040   -7.3960 O   0  0  0  0  0  0  0  0  0  0  0  0
   30.4390   47.1960   -6.1090 C   0  0  0  0  0  0  0  0  0  0  0  0
   30.5740   46.2590   -5.2370 N   0  0  0  0  0  0  0  0  0  0  0  0
   29.8160   48.5060   -5.8020 C   0  0  0  0  0  0  0  0  0  0  0  0
   31.2400   45.0490   -5.7070 C   0  0  0  0  0  0  0  0  0  0  0  0
   29.1000   49.2150   -6.7680 C   0  0  0  0  0  0  0  0  0  0  0  0
   30.0130   48.9340   -4.5180 N   0  0  0  0  0  0  0  0  0  0  0  0
   28.8960   48.7940   -8.0550 O   0  0  0  0  0  0  0  0  0  0  0  0
   32.4070   45.5610   -6.4060 N   0  0  0  0  0  0  0  0  0  0  0  0
   28.5520   50.4360   -6.3990 C   0  0  0  0  0  0  0  0  0  0  0  0
   29.4620   50.1270   -4.2050 C   0  0  0  0  0  0  0  0  0  0  0  0
   33.5900   45.3260   -5.9610 C   0  0  0  0  0  0  0  0  0  0  0  0
   28.7360   50.9020   -5.0960 C   0  0  0  0  0  0  0  0  0  0  0  0
   34.6780   45.8220   -6.5930 O   0  0  0  0  0  0  0  0  0  0  0  0
   33.8570   44.5320   -4.7720 C   0  0  0  0  0  0  0  0  0  0  0  0
   33.2520   43.3110   -4.3810 C   0  0  0  0  0  0  0  0  0  0  0  0
   34.7760   44.7900   -3.7510 C   0  0  0  0  0  0  0  0  0  0  0  0
   34.6490   43.7410   -2.8670 N   0  0  0  0  0  0  0  0  0  0  0  0
   33.7260   42.8320   -3.2330 N   0  0  0  0  0  0  0  0  0  0  0  0
   35.7200   45.8910   -3.5510 C   0  0  0  0  0  0  0  0  0  0  0  0
   35.3860   43.5390   -1.6400 C   0  0  0  0  0  0  0  0  0  0  0  0
   37.1000   45.6460   -3.5200 C   0  0  0  0  0  0  0  0  0  0  0  0
   35.2590   47.2020   -3.3880 C   0  0  0  0  0  0  0  0  0  0  0  0
   38.0000   46.6960   -3.3310 C   0  0  0  0  0  0  0  0  0  0  0  0
   36.1600   48.2520   -3.1990 C   0  0  0  0  0  0  0  0  0  0  0  0
   37.5300   47.9990   -3.1710 C   0  0  0  0  0  0  0  0  0  0  0  0
  1  2  1  0
  2  3  2  3
  2  4  1  0
  3  5  1  0
  4  6  2  0
  4  7  1  0
  6  8  1  0
  5  9  1  0
  6 10  1  0
  7 11  2  0
  9 12  2  3
 10 13  2  0
 11 13  1  0
 12 14  1  0
 12 15  1  0
 15 16  1  0
 15 17  2  0
 17 18  1  0
 16 19  2  0
 18 19  1  0
 17 20  1  0
 18 21  1  0
 20 22  2  0
 20 23  1  0
 22 24  1  0
 23 25  2  0
 24 26  2  0
 25 26  1  0
M  END
