mac-x0338-mac-x0212
     RDKit          3D

 15 15  0  0  0  0  0  0  0  0999 V2000
   27.7290   52.3380   -6.7730 N   0  0  0  0  0  0  0  0  0  0  0  0
   29.1620   52.3260   -6.3540 C   0  0  1  0  0  0  0  0  0  0  0  0
   29.6820   53.7990   -6.1410 C   0  0  0  0  0  0  0  0  0  0  0  0
   29.4220   51.3960   -5.1700 C   0  0  0  0  0  0  0  0  0  0  0  0
   30.9860   54.1260   -6.8660 C   0  0  0  0  0  0  0  0  0  0  0  0
   28.6940   54.7100   -6.6250 O   0  0  0  0  0  0  0  0  0  0  0  0
   29.8120   54.0710   -4.7590 O   0  0  0  0  0  0  0  0  0  0  0  0
   30.0250   50.1870   -5.4080 N   0  0  0  0  0  0  0  0  0  0  0  0
   29.0480   51.7760   -3.8770 C   0  0  0  0  0  0  0  0  0  0  0  0
   30.2220   49.4070   -4.2960 C   0  0  0  0  0  0  0  0  0  0  0  0
   29.2520   50.9890   -2.7890 N   0  0  0  0  0  0  0  0  0  0  0  0
   30.8710   48.0910   -4.5140 C   0  0  0  0  0  0  0  0  0  0  0  0
   29.8470   49.7970   -3.0240 C   0  0  0  0  0  0  0  0  0  0  0  0
   31.0500   47.5700   -5.6020 O   0  0  0  0  0  0  0  0  0  0  0  0
   31.2380   47.5400   -3.3310 O   0  0  0  0  0  0  0  0  0  0  0  0
  2  1  1  1
  2  3  1  0
  2  4  1  0
  3  5  1  0
  3  6  1  0
  3  7  1  0
  4  8  2  0
  4  9  1  0
  8 10  1  0
  9 11  2  0
 10 12  1  0
 10 13  2  0
 11 13  1  0
 12 14  2  0
 12 15  1  0
M  END
