mac-x0387-mac-x0373
     RDKit          3D

 20 22  0  0  0  0  0  0  0  0999 V2000
   28.0280   51.1470   -7.3580 N   0  0  0  0  0  0  0  0  0  0  0  0
   28.3950   49.7600   -7.5920 C   0  0  1  0  0  0  0  0  0  0  0  0
   29.4290   49.5770   -8.5860 N   0  0  0  0  0  0  0  0  0  0  0  0
   28.7120   49.0330   -6.2410 C   0  0  1  0  0  0  0  0  0  0  0  0
   29.9240   48.0220   -6.3240 C   0  0  1  0  0  0  0  0  0  0  0  0
   30.7250   49.3510   -8.2350 C   0  0  0  0  0  0  0  0  0  0  0  0
   28.8890   50.0300   -5.0800 C   0  0  0  0  0  0  0  0  0  0  0  0
   31.0410   48.6220   -7.1740 C   0  0  0  0  0  0  0  0  0  0  0  0
   30.3750   47.4440   -4.9010 C   0  0  2  0  0  0  0  0  0  0  0  0
   29.0160   49.2980   -3.7940 C   0  0  0  0  0  0  0  0  0  0  0  0
   29.6760   48.1390   -3.7160 C   0  0  0  0  0  0  0  0  0  0  0  0
   31.9200   47.5940   -4.7250 C   0  0  0  0  0  0  0  0  0  0  0  0
   30.0270   45.9290   -4.7920 C   0  0  0  0  0  0  0  0  0  0  0  0
   32.7860   46.5020   -4.5320 C   0  0  0  0  0  0  0  0  0  0  0  0
   32.5070   48.8780   -4.7540 C   0  0  0  0  0  0  0  0  0  0  0  0
   30.6050   45.1470   -5.7360 O   0  0  0  0  0  0  0  0  0  0  0  0
   29.3020   45.3900   -3.9690 O   0  0  0  0  0  0  0  0  0  0  0  0
   34.1650   46.6810   -4.3760 C   0  0  0  0  0  0  0  0  0  0  0  0
   33.8840   49.0580   -4.5990 C   0  0  0  0  0  0  0  0  0  0  0  0
   34.7140   47.9600   -4.4110 C   0  0  0  0  0  0  0  0  0  0  0  0
  2  1  1  1
  2  3  1  0
  2  4  1  0
  4  5  1  0
  3  6  1  0
  4  7  1  1
  5  8  1  1
  6  8  2  0
  5  9  1  0
  7 10  1  0
  9 11  1  0
 10 11  2  0
  9 12  1  0
  9 13  1  6
 12 14  2  0
 12 15  1  0
 13 16  1  0
 13 17  2  0
 14 18  1  0
 15 19  2  0
 18 20  2  0
 19 20  1  0
M  END
