mac-x0204-mac-x0375
     RDKit          3D

 20 21  0  0  0  0  0  0  0  0999 V2000
   32.0270   46.1990   -5.9400 O   0  0  0  0  0  0  0  0  0  0  0  0
   30.8790   46.1250   -5.2320 C   0  0  0  0  0  0  0  0  0  0  0  0
   29.8590   45.5140   -5.4920 O   0  0  0  0  0  0  0  0  0  0  0  0
   32.8470   45.1110   -5.9770 C   0  0  0  0  0  0  0  0  0  0  0  0
   33.2450   44.4950   -6.9600 O   0  0  0  0  0  0  0  0  0  0  0  0
   33.2470   44.7100   -4.5540 C   0  0  0  0  0  0  0  0  0  0  0  0
   31.0140   46.9430   -3.9990 C   0  0  0  0  0  0  0  0  0  0  0  0
   34.6360   44.5130   -4.3130 O   0  0  0  0  0  0  0  0  0  0  0  0
   30.5560   46.5340   -2.7390 C   0  0  0  0  0  0  0  0  0  0  0  0
   31.6290   48.1900   -4.0890 C   0  0  0  0  0  0  0  0  0  0  0  0
   30.7300   47.3750   -1.6470 C   0  0  0  0  0  0  0  0  0  0  0  0
   31.8060   49.0260   -3.0310 N   0  0  0  0  0  0  0  0  0  0  0  0
   35.3560   45.5600   -3.7980 C   0  0  0  0  0  0  0  0  0  0  0  0
   30.2740   46.9570   -0.4340 O   0  0  0  0  0  0  0  0  0  0  0  0
   31.3530   48.5990   -1.8320 C   0  0  0  0  0  0  0  0  0  0  0  0
   36.7060   45.2760   -3.5630 C   0  0  0  0  0  0  0  0  0  0  0  0
   34.8660   46.8310   -3.5020 C   0  0  0  0  0  0  0  0  0  0  0  0
   37.5570   46.2510   -3.0400 C   0  0  0  0  0  0  0  0  0  0  0  0
   35.7190   47.8080   -2.9790 C   0  0  0  0  0  0  0  0  0  0  0  0
   37.0610   47.5190   -2.7480 C   0  0  0  0  0  0  0  0  0  0  0  0
  1  2  1  0
  2  3  2  0
  1  4  1  0
  4  5  2  0
  4  6  1  0
  2  7  1  0
  6  8  1  0
  7  9  2  0
  7 10  1  0
  9 11  1  0
 10 12  2  0
  8 13  1  0
 11 14  1  0
 11 15  2  0
 12 15  1  0
 13 16  2  0
 13 17  1  0
 16 18  1  0
 17 19  2  0
 18 20  2  0
 19 20  1  0
M  END
