mac-x0193-mac-x0375
     RDKit          3D

 20 21  0  0  0  0  0  0  0  0999 V2000
   34.2470   45.7120   -6.3000 O   0  0  0  0  0  0  0  0  0  0  0  0
   33.1170   45.1470   -5.8140 C   0  0  0  0  0  0  0  0  0  0  0  0
   32.0890   45.1060   -6.4840 O   0  0  0  0  0  0  0  0  0  0  0  0
   33.2150   44.5740   -4.3970 C   0  0  0  0  0  0  0  0  0  0  0  0
   34.5820   44.5270   -3.8330 N   0  0  0  0  0  0  0  0  0  0  0  0
   34.8550   43.4660   -2.9790 C   0  0  0  0  0  0  0  0  0  0  0  0
   35.2770   45.7510   -3.6180 C   0  0  0  0  0  0  0  0  0  0  0  0
   34.4110   42.3380   -3.1730 O   0  0  0  0  0  0  0  0  0  0  0  0
   35.6420   43.7980   -1.9020 N   0  0  0  0  0  0  0  0  0  0  0  0
   36.6700   45.7260   -3.5120 C   0  0  0  0  0  0  0  0  0  0  0  0
   34.6250   46.9890   -3.4970 C   0  0  0  0  0  0  0  0  0  0  0  0
   37.0490   43.4360   -1.7020 C   0  0  0  0  0  0  0  0  0  0  0  0
   37.3990   46.8910   -3.2900 C   0  0  0  0  0  0  0  0  0  0  0  0
   35.3550   48.1600   -3.2740 C   0  0  0  0  0  0  0  0  0  0  0  0
   37.4520   42.1590   -2.4660 C   0  0  0  0  0  0  0  0  0  0  0  0
   37.3300   43.3450   -0.1960 C   0  0  0  0  0  0  0  0  0  0  0  0
   36.7420   48.1090   -3.1690 C   0  0  0  0  0  0  0  0  0  0  0  0
   38.8550   41.6050   -2.1730 C   0  0  0  0  0  0  0  0  0  0  0  0
   38.4290   42.3580    0.1890 C   0  0  0  0  0  0  0  0  0  0  0  0
   39.4730   42.1510   -0.8970 C   0  0  0  0  0  0  0  0  0  0  0  0
  1  2  1  0
  2  3  2  0
  2  4  1  0
  4  5  1  0
  5  6  1  0
  5  7  1  0
  6  8  2  0
  6  9  1  0
  7 10  2  0
  7 11  1  0
  9 12  1  0
 10 13  1  0
 11 14  2  0
 12 15  1  0
 12 16  1  0
 13 17  2  0
 14 17  1  0
 15 18  1  0
 16 19  1  0
 18 20  1  0
 19 20  1  0
M  END
