mac-x0123-mac-x0226
     RDKit          3D

 30 34  0  0  0  0  0  0  0  0999 V2000
   28.4110   51.5480   -7.2360 N   0  0  0  0  0  0  0  0  0  0  0  0
   29.1310   52.2160   -6.1450 C   0  0  1  0  0  0  0  0  0  0  0  0
   28.5990   53.6150   -5.8050 C   0  0  1  0  0  0  0  0  0  0  0  0
   29.1670   51.4090   -4.9300 N   0  0  0  0  0  0  0  0  0  0  0  0
   30.2090   51.9150   -4.0810 C   0  0  1  0  0  0  0  0  0  0  0  0
   29.0720   54.0940   -4.3910 C   0  0  1  0  0  0  0  0  0  0  0  0
   29.0250   54.7280   -6.7230 C   0  0  0  0  0  0  0  0  0  0  0  0
   29.5800   49.9880   -5.0370 N   0  0  0  0  0  0  0  0  0  0  0  0
   30.5470   49.7250   -6.1170 C   0  0  0  0  0  0  0  0  0  0  0  0
   30.0210   53.2610   -3.5990 N   0  0  0  0  0  0  0  0  0  0  0  0
   29.6170   55.5280   -4.5920 C   0  0  0  0  0  0  0  0  0  0  0  0
   29.5680   55.7560   -6.0670 C   0  0  0  0  0  0  0  0  0  0  0  0
   30.3040   50.9530   -3.0190 N   0  0  0  0  0  0  0  0  0  0  0  0
   30.0990   49.6770   -3.7010 C   0  0  0  0  0  0  0  0  0  0  0  0
   30.5480   48.3090   -6.7410 C   0  0  0  0  0  0  0  0  0  0  0  0
   31.0010   47.2410   -5.7410 C   0  0  0  0  0  0  0  0  0  0  0  0
   31.7430   46.1950   -6.3980 O   0  0  0  0  0  0  0  0  0  0  0  0
   33.0910   46.2140   -6.1950 C   0  0  0  0  0  0  0  0  0  0  0  0
   33.8860   46.8300   -6.8920 O   0  0  0  0  0  0  0  0  0  0  0  0
   33.5080   45.4330   -5.0490 C   0  0  0  0  0  0  0  0  0  0  0  0
   32.8960   44.2950   -4.4890 C   0  0  0  0  0  0  0  0  0  0  0  0
   34.6080   45.6410   -4.2490 C   0  0  0  0  0  0  0  0  0  0  0  0
   33.5560   43.8260   -3.4260 N   0  0  0  0  0  0  0  0  0  0  0  0
   34.6150   44.6650   -3.2830 N   0  0  0  0  0  0  0  0  0  0  0  0
   35.5670   44.4970   -2.2440 C   0  0  0  0  0  0  0  0  0  0  0  0
   36.4250   45.5650   -1.9400 C   0  0  0  0  0  0  0  0  0  0  0  0
   35.6680   43.3020   -1.5230 C   0  0  0  0  0  0  0  0  0  0  0  0
   37.3740   45.4380   -0.9260 C   0  0  0  0  0  0  0  0  0  0  0  0
   36.6220   43.1820   -0.5070 C   0  0  0  0  0  0  0  0  0  0  0  0
   37.4710   44.2480   -0.2110 C   0  0  0  0  0  0  0  0  0  0  0  0
  2  1  1  6
  2  3  1  0
  2  4  1  0
  4  5  1  0
  3  6  1  0
  3  7  1  6
  4  8  1  0
  8  9  1  0
  5 10  1  1
  6 10  1  0
  6 11  1  6
  7 12  2  0
 11 12  1  0
  5 13  1  0
  8 14  1  0
 13 14  1  0
  9 15  1  0
 15 16  1  0
 16 17  1  0
 17 18  1  0
 18 19  2  0
 18 20  1  0
 20 21  1  0
 20 22  2  0
 21 23  2  0
 22 24  1  0
 23 24  1  0
 24 25  1  0
 25 26  2  0
 25 27  1  0
 26 28  1  0
 27 29  2  0
 28 30  2  0
 29 30  1  0
M  END
