mac-x0188-mac-x0510
     RDKit          3D

 21 23  0  0  0  0  0  0  0  0999 V2000
   32.9390   44.8650   -4.2850 C   0  0  0  0  0  0  0  0  0  0  0  0
   32.1150   46.0900   -4.2200 C   0  0  0  0  0  0  0  0  0  0  0  0
   32.6960   47.1540   -3.6260 O   0  0  0  0  0  0  0  0  0  0  0  0
   30.8380   46.4150   -4.6390 C   0  0  0  0  0  0  0  0  0  0  0  0
   29.9960   45.4500   -5.3070 C   0  0  0  0  0  0  0  0  0  0  0  0
   31.8250   48.2110   -3.6330 N   0  0  0  0  0  0  0  0  0  0  0  0
   30.6930   47.7980   -4.2390 C   0  0  0  0  0  0  0  0  0  0  0  0
   28.9010   45.0610   -4.9210 O   0  0  0  0  0  0  0  0  0  0  0  0
   30.5050   44.9520   -6.4530 O   0  0  0  0  0  0  0  0  0  0  0  0
   29.5880   48.8470   -4.3400 C   0  0  1  0  0  0  0  0  0  0  0  0
   29.8140   49.9570   -3.3090 C   0  0  0  0  0  0  0  0  0  0  0  0
   29.2250   49.3930   -5.7730 C   0  0  2  0  0  0  0  0  0  0  0  0
   30.6870   49.8560   -2.4390 O   0  0  0  0  0  0  0  0  0  0  0  0
   28.9650   51.1970   -3.3430 C   0  0  0  0  0  0  0  0  0  0  0  0
   28.2060   50.5430   -5.7150 C   0  0  0  0  0  0  0  0  0  0  0  0
   28.6010   48.3200   -6.6400 N   0  0  0  0  0  0  0  0  0  0  0  0
   30.4300   49.8080   -6.6330 C   0  0  0  0  0  0  0  0  0  0  0  0
   28.5940   51.6190   -4.7310 C   0  0  0  0  0  0  0  0  0  0  0  0
   29.8670   49.6950   -7.9800 N   0  0  0  0  0  0  0  0  0  0  0  0
   29.2600   48.3820   -7.9450 C   0  0  0  0  0  0  0  0  0  0  0  0
   28.6010   52.8090   -5.0660 O   0  0  0  0  0  0  0  0  0  0  0  0
  1  2  1  0
  2  3  1  0
  2  4  2  0
  4  5  1  0
  3  6  1  0
  4  7  1  0
  6  7  2  0
  5  8  2  0
  5  9  1  0
 10  7  1  6
 10 11  1  0
 10 12  1  0
 11 13  2  0
 11 14  1  0
 12 15  1  1
 12 16  1  0
 12 17  1  0
 14 18  1  0
 15 18  1  0
 17 19  1  0
 16 20  1  0
 19 20  1  0
 18 21  2  0
M  END
