mac-x0436-mac-x0380
     RDKit          3D

 32 35  0  0  0  0  0  0  0  0999 V2000
   33.6400   45.3870   -6.9960 O   0  0  0  0  0  0  0  0  0  0  0  0
   32.5190   44.9920   -6.3670 C   0  0  0  0  0  0  0  0  0  0  0  0
   31.4230   45.1610   -6.8730 O   0  0  0  0  0  0  0  0  0  0  0  0
   32.8020   44.3440   -5.0380 C   0  0  0  0  0  0  0  0  0  0  0  0
   32.6060   45.3340   -3.8960 C   0  0  0  0  0  0  0  0  0  0  0  0
   33.9070   46.0110   -3.5180 C   0  0  0  0  0  0  0  0  0  0  0  0
   34.0660   47.5510   -3.5410 C   0  0  0  0  0  0  0  0  0  0  0  0
   34.9020   45.2420   -3.1710 N   0  0  0  0  0  0  0  0  0  0  0  0
   33.1420   48.4520   -3.5040 N   0  0  0  0  0  0  0  0  0  0  0  0
   35.3640   48.0120   -3.6070 N   0  0  0  0  0  0  0  0  0  0  0  0
   36.1300   45.8410   -2.8250 C   0  0  0  0  0  0  0  0  0  0  0  0
   31.7090   48.2580   -3.4290 C   0  0  0  0  0  0  0  0  0  0  0  0
   36.3730   47.2130   -3.0360 C   0  0  0  0  0  0  0  0  0  0  0  0
   37.1280   45.0460   -2.2620 C   0  0  0  0  0  0  0  0  0  0  0  0
   31.0420   48.3760   -4.7990 C   0  0  0  0  0  0  0  0  0  0  0  0
   38.3590   45.6000   -1.9100 C   0  0  0  0  0  0  0  0  0  0  0  0
   37.6080   47.7650   -2.6820 C   0  0  0  0  0  0  0  0  0  0  0  0
   29.6180   48.3620   -4.6110 O   0  0  0  0  0  0  0  0  0  0  0  0
   38.5990   46.9590   -2.1200 C   0  0  0  0  0  0  0  0  0  0  0  0
   29.1750   49.3110   -3.7570 C   0  0  0  0  0  0  0  0  0  0  0  0
   29.0740   49.1940   -2.5460 O   0  0  0  0  0  0  0  0  0  0  0  0
   28.8210   50.5570   -4.4890 C   0  0  0  0  0  0  0  0  0  0  0  0
   28.9410   51.8250   -3.9110 C   0  0  0  0  0  0  0  0  0  0  0  0
   28.3510   50.4420   -5.8060 C   0  0  0  0  0  0  0  0  0  0  0  0
   28.5960   52.9700   -4.6380 C   0  0  0  0  0  0  0  0  0  0  0  0
   28.0050   51.5830   -6.5340 C   0  0  0  0  0  0  0  0  0  0  0  0
   28.1260   52.8500   -5.9520 C   0  0  0  0  0  0  0  0  0  0  0  0
   28.7680   54.5590   -3.8560 S   0  0  0  0  0  0  0  0  0  0  0  0
   27.7680   53.9660   -6.7200 N   0  0  0  0  0  0  0  0  0  0  0  0
   29.0780   55.5540   -5.3280 C   0  0  0  0  0  0  0  0  0  0  0  0
   28.1300   55.2640   -6.4690 C   0  0  0  0  0  0  0  0  0  0  0  0
   27.6770   56.1650   -7.1790 O   0  0  0  0  0  0  0  0  0  0  0  0
  1  2  1  0
  2  3  2  0
  2  4  1  0
  4  5  1  0
  5  6  1  0
  6  7  1  0
  6  8  2  0
  7  9  2  3
  7 10  1  0
  8 11  1  0
  9 12  1  0
 10 13  1  0
 11 13  2  0
 11 14  1  0
 12 15  1  0
 14 16  2  0
 13 17  1  0
 15 18  1  0
 16 19  1  0
 17 19  2  0
 18 20  1  0
 20 21  2  0
 20 22  1  0
 22 23  2  0
 22 24  1  0
 23 25  1  0
 24 26  2  0
 25 27  2  0
 26 27  1  0
 25 28  1  0
 27 29  1  0
 28 30  1  0
 29 31  1  0
 30 31  1  0
 31 32  2  0
M  END
