mac-x0397-mac-x0358
     RDKit          3D

 23 25  0  0  0  0  0  0  0  0999 V2000
   29.7150   53.0000   -2.3860 Cl  0  0  0  0  0  0  0  0  0  0  0  0
   29.4720   51.6770   -3.4370 C   0  0  0  0  0  0  0  0  0  0  0  0
   29.2250   51.9680   -4.7860 C   0  0  0  0  0  0  0  0  0  0  0  0
   29.5150   50.3890   -2.9480 C   0  0  0  0  0  0  0  0  0  0  0  0
   29.1460   53.2220   -5.3800 N   0  0  0  0  0  0  0  0  0  0  0  0
   29.0300   50.8810   -5.6490 C   0  0  0  0  0  0  0  0  0  0  0  0
   29.3130   49.3120   -3.7840 C   0  0  0  0  0  0  0  0  0  0  0  0
   29.3680   47.9480   -3.1120 C   0  0  0  0  0  0  0  0  0  0  0  0
   28.8970   53.1120   -6.6530 C   0  0  0  0  0  0  0  0  0  0  0  0
   28.7520   51.5040   -7.2380 S   0  0  0  0  0  0  0  0  0  0  0  0
   29.0720   49.5370   -5.1750 C   0  0  0  0  0  0  0  0  0  0  0  0
   28.7590   54.1820   -7.4580 N   0  0  0  0  0  0  0  0  0  0  0  0
   30.7840   47.4990   -2.9550 C   0  0  0  0  0  0  0  0  0  0  0  0
   31.6850   48.0890   -2.0550 C   0  0  0  0  0  0  0  0  0  0  0  0
   31.1970   46.4660   -3.7710 C   0  0  0  0  0  0  0  0  0  0  0  0
   32.4960   46.0100   -3.7360 C   0  0  0  0  0  0  0  0  0  0  0  0
   33.0050   47.6380   -2.0060 C   0  0  0  0  0  0  0  0  0  0  0  0
   32.8730   44.9000   -4.6680 C   0  0  0  0  0  0  0  0  0  0  0  0
   33.3980   46.6030   -2.8580 C   0  0  0  0  0  0  0  0  0  0  0  0
   32.9120   45.4080   -6.0860 C   0  0  0  0  0  0  0  0  0  0  0  0
   34.6820   46.1510   -2.8540 O   0  0  0  0  0  0  0  0  0  0  0  0
   31.7920   45.1000   -6.7810 O   0  0  0  0  0  0  0  0  0  0  0  0
   33.7980   46.0420   -6.6300 O   0  0  0  0  0  0  0  0  0  0  0  0
  1  2  1  0
  2  3  2  0
  2  4  1  0
  3  5  1  0
  3  6  1  0
  4  7  2  0
  7  8  1  0
  5  9  2  0
  6 10  1  0
  9 10  1  0
  6 11  2  0
  7 11  1  0
  9 12  1  0
  8 13  1  0
 13 14  2  0
 13 15  1  0
 15 16  2  0
 14 17  1  0
 16 18  1  0
 16 19  1  0
 17 19  2  0
 18 20  1  0
 19 21  1  0
 20 22  1  0
 20 23  2  0
M  END
