
     RDKit          3D

 13 14  0  0  0  0  0  0  0  0999 V2000
   -0.8070   25.0750   14.5090 C   0  0  0  0  0  0  0  0  0  0  0  0
    0.3000   26.0590   14.9070 C   0  0  0  0  0  0  0  0  0  0  0  0
   -0.0500   27.3570   15.2940 C   0  0  0  0  0  0  0  0  0  0  0  0
    0.9290   28.2630   15.6690 C   0  0  0  0  0  0  0  0  0  0  0  0
    2.2760   27.8600   15.6630 C   0  0  0  0  0  0  0  0  0  0  0  0
    3.3880   28.5380   15.9750 N   0  0  0  0  0  0  0  0  0  0  0  0
    4.4530   27.7780   15.8180 C   0  0  0  0  0  0  0  0  0  0  0  0
    4.0470   26.5200   15.3740 C   0  0  0  0  0  0  0  0  0  0  0  0
    2.6370   26.5770   15.2730 C   0  0  0  0  0  0  0  0  0  0  0  0
    1.6440   25.6510   14.8800 C   0  0  0  0  0  0  0  0  0  0  0  0
    5.8730   28.2560   16.0870 C   0  0  0  0  0  0  0  0  0  0  0  0
    6.8270   27.8630   15.3680 O   0  0  0  0  0  0  0  0  0  0  0  0
    6.0790   29.0800   17.0170 O   0  0  0  0  0  0  0  0  0  0  0  0
  1  2  1  0
  2  3  2  0
  2 10  1  0
  3  4  1  0
 10  9  2  0
  4  5  2  0
  5  6  1  0
  5  9  1  0
  6  7  1  0
  9  8  1  0
  7  8  2  0
  7 11  1  0
 11 12  2  0
 11 13  1  0
M  END
