mac-x0182-mac-x0572
     RDKit          3D

 28 31  0  0  0  0  0  0  0  0999 V2000
   34.4480   43.3680   -2.7630 O   0  0  0  0  0  0  0  0  0  0  0  0
   34.5490   44.5110   -3.1720 C   0  0  0  0  0  0  0  0  0  0  0  0
   33.6270   45.1570   -3.9630 N   0  0  0  0  0  0  0  0  0  0  0  0
   35.7060   45.3850   -2.8670 C   0  0  0  0  0  0  0  0  0  0  0  0
   34.1980   46.6600   -4.4660 S   0  0  2  0  0  0  0  0  0  0  0  0
   35.6460   46.6100   -3.5170 C   0  0  0  0  0  0  0  0  0  0  0  0
   36.7710   45.0830   -2.0350 C   0  0  0  0  0  0  0  0  0  0  0  0
   33.1700   47.6080   -3.8500 N   0  0  0  0  0  0  0  0  0  0  0  0
   34.5340   46.4930   -5.8570 O   0  0  0  0  0  0  0  0  0  0  0  0
   36.6190   47.5790   -3.3790 C   0  0  0  0  0  0  0  0  0  0  0  0
   37.7720   46.0450   -1.8760 C   0  0  0  0  0  0  0  0  0  0  0  0
   31.7390   47.3390   -4.0270 C   0  0  0  0  0  0  0  0  0  0  0  0
   37.6970   47.2850   -2.5420 C   0  0  0  0  0  0  0  0  0  0  0  0
   30.8700   48.5630   -3.7410 C   0  0  0  0  0  0  0  0  0  0  0  0
   29.5310   48.5900   -4.4970 C   0  0  0  0  0  0  0  0  0  0  0  0
   29.0940   49.9460   -5.0050 C   0  0  0  0  0  0  0  0  0  0  0  0
   28.5400   50.0340   -6.3460 C   0  0  0  0  0  0  0  0  0  0  0  0
   29.2030   51.0610   -4.2610 C   0  0  0  0  0  0  0  0  0  0  0  0
   28.7730   52.4200   -4.7520 C   0  0  1  0  0  0  0  0  0  0  0  0
   28.3120   51.1970   -6.9690 C   0  0  0  0  0  0  0  0  0  0  0  0
   29.6620   53.5510   -4.2860 C   0  0  0  0  0  0  0  0  0  0  0  0
   28.6360   52.4580   -6.2650 C   0  0  0  0  0  0  0  0  0  0  0  0
   30.4530   53.4600   -3.3470 O   0  0  0  0  0  0  0  0  0  0  0  0
   29.5230   54.8300   -5.0520 C   0  0  0  0  0  0  0  0  0  0  0  0
   28.7940   53.5420   -6.9670 N   0  0  0  0  0  0  0  0  0  0  0  0
   29.8340   56.0060   -4.4000 O   0  0  0  0  0  0  0  0  0  0  0  0
   29.1000   54.7290   -6.3310 C   0  0  0  0  0  0  0  0  0  0  0  0
   28.9110   55.9280   -7.2300 C   0  0  0  0  0  0  0  0  0  0  0  0
  1  2  2  0
  2  3  1  0
  2  4  1  0
  5  3  1  1
  4  6  2  0
  5  6  1  0
  4  7  1  0
  5  8  2  0
  5  9  2  0
  6 10  1  0
  7 11  2  0
  8 12  1  0
 10 13  2  0
 11 13  1  0
 12 14  1  0
 14 15  1  0
 15 16  1  0
 16 17  1  0
 16 18  2  0
 19 18  1  6
 17 20  2  0
 19 21  1  0
 19 22  1  0
 20 22  1  0
 21 23  2  0
 21 24  1  0
 22 25  2  0
 24 26  1  0
 24 27  2  0
 25 27  1  0
 27 28  1  0
M  END
