mac-x0139-mac-x0392
     RDKit          3D

 17 18  0  0  0  0  0  0  0  0999 V2000
   29.9440   47.2580   -4.4240 C   0  0  0  0  0  0  0  0  0  0  0  0
   30.0550   46.6890   -5.7750 N   0  0  0  0  0  0  0  0  0  0  0  0
   30.3910   45.2480   -5.8010 C   0  0  0  0  0  0  0  0  0  0  0  0
   29.4180   47.3010   -6.8790 C   0  0  0  0  0  0  0  0  0  0  0  0
   31.8760   44.9760   -5.6210 C   0  0  0  0  0  0  0  0  0  0  0  0
   29.3450   48.6380   -6.9560 C   0  0  0  0  0  0  0  0  0  0  0  0
   28.8730   46.4910   -7.8760 N   0  0  0  0  0  0  0  0  0  0  0  0
   32.5930   44.9160   -6.9390 C   0  0  0  0  0  0  0  0  0  0  0  0
   28.6690   49.2710   -8.0950 C   0  0  0  0  0  0  0  0  0  0  0  0
   28.3070   47.0930   -8.8880 C   0  0  0  0  0  0  0  0  0  0  0  0
   29.7670   49.7140   -6.1750 C   0  0  0  0  0  0  0  0  0  0  0  0
   32.0290   44.6690   -7.9950 O   0  0  0  0  0  0  0  0  0  0  0  0
   33.9170   45.1580   -6.8720 O   0  0  0  0  0  0  0  0  0  0  0  0
   30.4720   49.4940   -5.0650 N   0  0  0  0  0  0  0  0  0  0  0  0
   28.1990   48.4440   -9.0550 N   0  0  0  0  0  0  0  0  0  0  0  0
   28.6340   50.5740   -7.9820 N   0  0  0  0  0  0  0  0  0  0  0  0
   29.3180   50.8170   -6.7930 C   0  0  0  0  0  0  0  0  0  0  0  0
  1  2  1  0
  2  3  1  0
  2  4  1  0
  3  5  1  0
  4  6  2  0
  4  7  1  0
  5  8  1  0
  6  9  1  0
  7 10  2  0
  6 11  1  0
  8 12  2  0
  8 13  1  0
 11 14  1  0
  9 15  1  0
 10 15  1  0
  9 16  2  0
 11 17  2  0
 16 17  1  0
M  END
