mac-x0496-mac-x0402
     RDKit          3D

 25 28  0  0  0  0  0  0  0  0999 V2000
   25.0540   58.7250   -6.3110 C   0  0  0  0  0  0  0  0  0  0  0  0
   26.2040   58.3080   -5.4860 C   0  0  0  0  0  0  0  0  0  0  0  0
   26.6220   59.0080   -4.4220 N   0  0  0  0  0  0  0  0  0  0  0  0
   26.9260   57.1710   -5.7530 N   0  0  0  0  0  0  0  0  0  0  0  0
   27.7090   58.2620   -3.9580 O   0  0  0  0  0  0  0  0  0  0  0  0
   27.8280   57.1840   -4.7940 C   0  0  0  0  0  0  0  0  0  0  0  0
   28.9340   56.2320   -4.4940 C   0  0  0  0  0  0  0  0  0  0  0  0
   28.7860   55.0350   -5.3070 N   0  0  0  0  0  0  0  0  0  0  0  0
   28.7330   53.7680   -4.7490 C   0  0  0  0  0  0  0  0  0  0  0  0
   28.3710   53.5890   -3.5920 O   0  0  0  0  0  0  0  0  0  0  0  0
   29.1630   52.6480   -5.7200 C   0  0  2  0  0  0  0  0  0  0  0  0
   28.3810   52.8750   -7.0480 C   0  0  1  0  0  0  0  0  0  0  0  0
   28.9620   51.1850   -5.1620 C   0  0  2  0  0  0  0  0  0  0  0  0
   29.1190   52.3760   -8.2180 N   0  0  0  0  0  0  0  0  0  0  0  0
   27.0270   52.2180   -7.0460 C   0  0  0  0  0  0  0  0  0  0  0  0
   27.4520   50.9280   -4.9360 C   0  0  0  0  0  0  0  0  0  0  0  0
   29.8930   50.8200   -3.9560 C   0  0  2  0  0  0  0  0  0  0  0  0
   29.6270   50.1750   -6.1150 C   0  0  0  0  0  0  0  0  0  0  0  0
   30.2880   51.6410   -2.7320 C   0  0  1  0  0  0  0  0  0  0  0  0
   26.6110   51.3500   -6.1080 C   0  0  0  0  0  0  0  0  0  0  0  0
   31.2440   50.8780   -4.6440 C   0  0  2  0  0  0  0  0  0  0  0  0
   30.9340   49.9980   -5.8020 C   0  0  0  0  0  0  0  0  0  0  0  0
   32.1930   50.4510   -3.6130 N   0  0  0  0  0  0  0  0  0  0  0  0
   29.5290   51.4590   -1.5500 O   0  0  0  0  0  0  0  0  0  0  0  0
   31.6120   50.9270   -2.5400 C   0  0  0  0  0  0  0  0  0  0  0  0
  1  2  1  0
  2  3  2  0
  2  4  1  0
  3  5  1  0
  4  6  2  0
  5  6  1  0
  6  7  1  0
  7  8  1  0
  8  9  1  0
  9 10  2  0
 11  9  1  1
 11 12  1  0
 11 13  1  0
 12 14  1  6
 12 15  1  0
 13 16  1  1
 13 17  1  0
 13 18  1  0
 17 19  1  1
 15 20  2  0
 16 20  1  0
 17 21  1  0
 18 22  2  0
 21 22  1  6
 21 23  1  0
 19 24  1  1
 19 25  1  0
 23 25  2  0
M  END
