mac-x0341-mac-x0572
     RDKit          3D

 13 14  0  0  0  0  0  0  0  0999 V2000
   28.4110   54.9160   -7.4650 N   0  0  0  0  0  0  0  0  0  0  0  0
   28.7080   53.7420   -6.8400 C   0  0  0  0  0  0  0  0  0  0  0  0
   28.5270   52.6080   -7.4700 N   0  0  0  0  0  0  0  0  0  0  0  0
   29.1910   53.7860   -5.5460 N   0  0  0  0  0  0  0  0  0  0  0  0
   29.5840   55.0460   -5.0080 O   0  0  0  0  0  0  0  0  0  0  0  0
   29.4610   52.6620   -4.7840 C   0  0  0  0  0  0  0  0  0  0  0  0
   28.8340   51.4060   -6.8030 C   0  0  0  0  0  0  0  0  0  0  0  0
   29.8160   52.7220   -3.6090 O   0  0  0  0  0  0  0  0  0  0  0  0
   29.2960   51.3710   -5.4850 C   0  0  0  0  0  0  0  0  0  0  0  0
   28.6730   50.1910   -7.4810 C   0  0  0  0  0  0  0  0  0  0  0  0
   28.9700   48.9760   -6.8510 C   0  0  0  0  0  0  0  0  0  0  0  0
   29.5950   50.1630   -4.8460 C   0  0  0  0  0  0  0  0  0  0  0  0
   29.4320   48.9610   -5.5340 C   0  0  0  0  0  0  0  0  0  0  0  0
  1  2  1  0
  2  3  2  0
  2  4  1  0
  4  5  1  0
  4  6  1  0
  3  7  1  0
  6  8  2  0
  6  9  1  0
  7  9  2  0
  7 10  1  0
 10 11  2  0
  9 12  1  0
 11 13  1  0
 12 13  2  0
M  END
