mac-x0337-mac-x0284
     RDKit          3D

 21 22  0  0  0  0  0  0  0  0999 V2000
   35.3400   51.6930   -4.7340 C   0  0  0  0  0  0  0  0  0  0  0  0
   33.8870   51.6420   -5.1040 C   0  0  0  0  0  0  0  0  0  0  0  0
   33.1370   52.8260   -5.1380 C   0  0  0  0  0  0  0  0  0  0  0  0
   33.2680   50.4260   -5.4190 C   0  0  0  0  0  0  0  0  0  0  0  0
   31.9140   50.3910   -5.7670 C   0  0  0  0  0  0  0  0  0  0  0  0
   31.7860   52.7990   -5.4840 C   0  0  0  0  0  0  0  0  0  0  0  0
   31.1800   51.5800   -5.7980 C   0  0  0  0  0  0  0  0  0  0  0  0
   29.4550   51.5720   -6.2390 S   0  0  0  0  0  0  0  0  0  0  0  0
   29.0120   52.9370   -6.3620 O   0  0  0  0  0  0  0  0  0  0  0  0
   29.2720   50.6150   -7.3100 O   0  0  0  0  0  0  0  0  0  0  0  0
   28.7170   50.9010   -4.8790 N   0  0  0  0  0  0  0  0  0  0  0  0
   29.4160   49.8650   -4.2190 C   0  0  0  0  0  0  0  0  0  0  0  0
   29.4810   48.6090   -4.8160 C   0  0  0  0  0  0  0  0  0  0  0  0
   30.0310   50.1030   -2.9940 C   0  0  0  0  0  0  0  0  0  0  0  0
   30.1720   47.5600   -4.1840 C   0  0  0  0  0  0  0  0  0  0  0  0
   30.7200   49.0740   -2.3560 C   0  0  0  0  0  0  0  0  0  0  0  0
   30.1930   46.2420   -4.8890 C   0  0  0  0  0  0  0  0  0  0  0  0
   30.7860   47.8140   -2.9510 C   0  0  0  0  0  0  0  0  0  0  0  0
   31.4680   46.8120   -2.3060 O   0  0  0  0  0  0  0  0  0  0  0  0
   29.6660   46.0660   -5.9750 O   0  0  0  0  0  0  0  0  0  0  0  0
   30.8430   45.2540   -4.2390 O   0  0  0  0  0  0  0  0  0  0  0  0
  1  2  1  0
  2  3  2  0
  2  4  1  0
  4  5  2  0
  3  6  1  0
  5  7  1  0
  6  7  2  0
  7  8  1  0
  8  9  2  0
  8 10  2  0
  8 11  1  0
 11 12  1  0
 12 13  2  0
 12 14  1  0
 13 15  1  0
 14 16  2  0
 15 17  1  0
 15 18  2  0
 16 18  1  0
 18 19  1  0
 17 20  2  0
 17 21  1  0
M  END
