mac-x0303-mac-x0333
     RDKit          3D

 14 15  0  0  0  0  0  0  0  0999 V2000
   30.4700   56.3180   -6.6650 N   0  0  0  0  0  0  0  0  0  0  0  0
   29.1750   55.9930   -5.6360 S   0  0  0  0  0  0  0  0  0  0  0  0
   27.9470   56.1570   -6.3770 O   0  0  0  0  0  0  0  0  0  0  0  0
   29.4260   56.6580   -4.3820 O   0  0  0  0  0  0  0  0  0  0  0  0
   29.2520   54.2630   -5.2920 C   0  0  0  0  0  0  0  0  0  0  0  0
   29.5920   53.7290   -4.0720 N   0  0  0  0  0  0  0  0  0  0  0  0
   28.9910   53.3210   -6.1770 N   0  0  0  0  0  0  0  0  0  0  0  0
   29.5460   52.3570   -4.1890 C   0  0  0  0  0  0  0  0  0  0  0  0
   29.1680   52.1410   -5.5100 C   0  0  0  0  0  0  0  0  0  0  0  0
   29.7930   51.3060   -3.2920 C   0  0  0  0  0  0  0  0  0  0  0  0
   29.0220   50.8330   -5.9860 C   0  0  0  0  0  0  0  0  0  0  0  0
   29.6390   50.0060   -3.8050 C   0  0  0  0  0  0  0  0  0  0  0  0
   29.2620   49.7690   -5.1170 C   0  0  0  0  0  0  0  0  0  0  0  0
   29.8750   48.9460   -2.9780 O   0  0  0  0  0  0  0  0  0  0  0  0
  2  1  1  0
  2  3  2  0
  2  4  2  0
  2  5  1  0
  5  6  1  0
  5  7  2  0
  6  8  1  0
  7  9  1  0
  8  9  2  0
  8 10  1  0
  9 11  1  0
 10 12  2  0
 11 13  2  0
 12 13  1  0
 12 14  1  0
M  END
