mac-x1493-mac-x0510
     RDKit          3D

 18 20  0  0  0  0  0  0  0  0999 V2000
   29.9330   47.7460   -5.3670 O   0  0  0  0  0  0  0  0  0  0  0  0
   30.0130   48.5170   -4.2730 C   0  0  0  0  0  0  0  0  0  0  0  0
   30.4490   48.0430   -3.2340 O   0  0  0  0  0  0  0  0  0  0  0  0
   29.5310   49.9390   -4.4530 C   0  0  2  0  0  0  0  0  0  0  0  0
   29.1040   50.3280   -5.8920 C   0  0  2  0  0  0  0  0  0  0  0  0
   30.4640   50.9100   -3.7510 C   0  0  0  0  0  0  0  0  0  0  0  0
   28.8240   51.8650   -5.9530 C   0  0  0  0  0  0  0  0  0  0  0  0
   29.9560   52.3120   -3.7110 N   0  0  1  0  0  0  0  0  0  0  0  0
   27.9850   49.3750   -6.2030 N   0  0  0  0  0  0  0  0  0  0  0  0
   30.0650   49.9780   -7.0520 C   0  0  0  0  0  0  0  0  0  0  0  0
   30.9250   53.2300   -3.6500 O   0  0  0  0  0  0  0  0  0  0  0  0
   29.2460   52.7430   -4.9080 C   0  0  0  0  0  0  0  0  0  0  0  0
   28.1630   52.4830   -7.0270 C   0  0  0  0  0  0  0  0  0  0  0  0
   29.1960   49.4060   -8.0980 N   0  0  0  0  0  0  0  0  0  0  0  0
   28.3610   48.5370   -7.3270 C   0  0  0  0  0  0  0  0  0  0  0  0
   29.0180   54.1240   -4.9530 C   0  0  0  0  0  0  0  0  0  0  0  0
   27.9400   53.8680   -7.0630 C   0  0  0  0  0  0  0  0  0  0  0  0
   28.3660   54.6900   -6.0300 C   0  0  0  0  0  0  0  0  0  0  0  0
  1  2  1  0
  2  3  2  0
  4  2  1  6
  4  5  1  0
  4  6  1  0
  5  7  1  0
  6  8  1  0
  5  9  1  0
  5 10  1  6
  8 11  1  6
  7 12  2  0
  8 12  1  0
  7 13  1  0
 10 14  1  0
  9 15  1  0
 14 15  1  0
 12 16  1  0
 13 17  2  0
 16 18  2  0
 17 18  1  0
M  CHG  2   8   1  11  -1
M  END
