mac-x0115-mac-x0223
     RDKit          3D

 26 28  0  0  0  0  0  0  0  0999 V2000
   29.5410   43.6360   -2.4460 C   0  0  0  0  0  0  0  0  0  0  0  0
   28.3110   43.2370   -3.2430 C   0  0  0  0  0  0  0  0  0  0  0  0
   30.7530   43.6720   -3.2160 O   0  0  0  0  0  0  0  0  0  0  0  0
   30.6240   43.9680   -4.6240 C   0  0  0  0  0  0  0  0  0  0  0  0
   30.8780   45.4980   -4.9320 C   0  0  1  0  0  0  0  0  0  0  0  0
   32.4090   45.6600   -5.1710 C   0  0  0  0  0  0  0  0  0  0  0  0
   30.1600   46.1070   -6.1580 N   0  0  0  0  0  0  0  0  0  0  0  0
   30.3330   46.1630   -3.6320 C   0  0  0  0  0  0  0  0  0  0  0  0
   33.2260   46.1610   -4.4070 O   0  0  0  0  0  0  0  0  0  0  0  0
   32.8570   45.1990   -6.3590 O   0  0  0  0  0  0  0  0  0  0  0  0
   29.8840   45.3980   -7.3670 C   0  0  0  0  0  0  0  0  0  0  0  0
   29.8270   47.4700   -6.1300 C   0  0  0  0  0  0  0  0  0  0  0  0
   31.1130   46.8890   -2.7100 C   0  0  0  0  0  0  0  0  0  0  0  0
   28.9540   46.0330   -3.3610 C   0  0  0  0  0  0  0  0  0  0  0  0
   30.0230   43.7610   -7.7000 S   0  0  0  0  0  0  0  0  0  0  0  0
   29.4250   46.1670   -8.4380 N   0  0  0  0  0  0  0  0  0  0  0  0
   28.7380   47.9600   -7.0230 C   0  0  2  0  0  0  0  0  0  0  0  0
   30.3110   48.4960   -5.4230 C   0  0  0  0  0  0  0  0  0  0  0  0
   28.3670   46.5910   -2.2290 C   0  0  0  0  0  0  0  0  0  0  0  0
   30.5210   47.4520   -1.5730 C   0  0  0  0  0  0  0  0  0  0  0  0
   29.0780   47.5120   -8.4200 C   0  0  0  0  0  0  0  0  0  0  0  0
   28.6240   49.4200   -6.8040 N   0  0  0  0  0  0  0  0  0  0  0  0
   29.5250   49.6280   -5.8960 C   0  0  0  0  0  0  0  0  0  0  0  0
   29.1610   47.2990   -1.3430 C   0  0  0  0  0  0  0  0  0  0  0  0
   29.0650   48.1920   -9.4380 O   0  0  0  0  0  0  0  0  0  0  0  0
   28.6290   47.8650   -0.2250 O   0  0  0  0  0  0  0  0  0  0  0  0
  1  2  1  0
  1  3  1  0
  3  4  1  0
  5  4  1  1
  5  6  1  0
  5  7  1  0
  5  8  1  0
  6  9  2  0
  6 10  1  0
  7 11  1  0
  7 12  1  0
  8 13  2  0
  8 14  1  0
 11 15  2  0
 11 16  1  0
 12 17  1  0
 12 18  2  0
 14 19  2  0
 13 20  1  0
 16 21  1  0
 17 21  1  0
 17 22  1  6
 18 23  1  0
 22 23  2  0
 19 24  1  0
 20 24  2  0
 21 25  2  0
 24 26  1  0
M  END
