mac-x0224-mac-x0373
     RDKit          3D

 19 20  0  0  0  0  0  0  0  0999 V2000
   28.8790   52.6510   -6.0460 C   0  0  0  0  0  0  0  0  0  0  0  0
   27.9100   51.1500   -6.3610 S   0  0  0  0  0  0  0  0  0  0  0  0
   28.9070   49.9240   -5.5290 C   0  0  0  0  0  0  0  0  0  0  0  0
   29.1210   48.6430   -6.0590 C   0  0  0  0  0  0  0  0  0  0  0  0
   29.4920   50.2620   -4.3060 C   0  0  0  0  0  0  0  0  0  0  0  0
   29.9130   47.6820   -5.3920 C   0  0  0  0  0  0  0  0  0  0  0  0
   30.2780   49.3370   -3.6250 C   0  0  0  0  0  0  0  0  0  0  0  0
   30.1090   46.3070   -6.0150 C   0  0  0  0  0  0  0  0  0  0  0  0
   30.4860   48.0600   -4.1640 C   0  0  0  0  0  0  0  0  0  0  0  0
   31.2700   47.1650   -3.4710 O   0  0  0  0  0  0  0  0  0  0  0  0
   28.9860   46.0180   -6.8050 O   0  0  0  0  0  0  0  0  0  0  0  0
   30.2350   45.3230   -5.0210 O   0  0  0  0  0  0  0  0  0  0  0  0
   31.2380   46.1580   -6.8400 O   0  0  0  0  0  0  0  0  0  0  0  0
   32.6100   47.4730   -3.3560 C   0  0  0  0  0  0  0  0  0  0  0  0
   33.5300   46.6710   -2.6720 C   0  0  0  0  0  0  0  0  0  0  0  0
   33.0310   48.6570   -3.9660 C   0  0  0  0  0  0  0  0  0  0  0  0
   34.8700   47.0580   -2.6030 C   0  0  0  0  0  0  0  0  0  0  0  0
   34.3690   49.0400   -3.8960 C   0  0  0  0  0  0  0  0  0  0  0  0
   35.2890   48.2420   -3.2150 C   0  0  0  0  0  0  0  0  0  0  0  0
  1  2  1  0
  2  3  1  0
  3  4  2  0
  3  5  1  0
  4  6  1  0
  5  7  2  0
  6  8  1  0
  6  9  2  0
  7  9  1  0
  9 10  1  0
  8 11  1  0
  8 12  1  0
  8 13  1  0
 10 14  1  0
 14 15  2  0
 14 16  1  0
 15 17  1  0
 16 18  2  0
 17 19  2  0
 18 19  1  0
M  END
