mac-x0213-mac-x0132
     RDKit          3D

 24 27  0  0  0  0  0  0  0  0999 V2000
   33.2410   46.5720   -5.9330 O   0  0  0  0  0  0  0  0  0  0  0  0
   31.9580   46.1930   -5.8410 C   0  0  0  0  0  0  0  0  0  0  0  0
   31.3080   46.0070   -6.8610 O   0  0  0  0  0  0  0  0  0  0  0  0
   31.4150   46.0280   -4.4330 C   0  0  1  0  0  0  0  0  0  0  0  0
   30.8510   47.3370   -3.7950 C   0  0  1  0  0  0  0  0  0  0  0  0
   30.2590   45.0140   -4.3600 C   0  0  0  0  0  0  0  0  0  0  0  0
   30.1340   48.2780   -4.7860 C   0  0  0  0  0  0  0  0  0  0  0  0
   29.9270   46.7620   -2.7600 C   0  0  0  0  0  0  0  0  0  0  0  0
   29.5860   45.4450   -3.0920 C   0  0  0  0  0  0  0  0  0  0  0  0
   29.4180   47.3530   -1.6190 C   0  0  0  0  0  0  0  0  0  0  0  0
   28.7290   44.7020   -2.2980 C   0  0  0  0  0  0  0  0  0  0  0  0
   29.9790   49.7430   -4.4030 C   0  0  0  0  0  0  0  0  0  0  0  0
   28.5550   46.6140   -0.8110 C   0  0  0  0  0  0  0  0  0  0  0  0
   28.2110   45.2970   -1.1490 C   0  0  0  0  0  0  0  0  0  0  0  0
   30.2880   50.2360   -3.1300 C   0  0  0  0  0  0  0  0  0  0  0  0
   29.5170   50.6490   -5.3580 C   0  0  0  0  0  0  0  0  0  0  0  0
   29.3700   52.0240   -5.0730 C   0  0  0  0  0  0  0  0  0  0  0  0
   30.1400   51.6060   -2.8460 C   0  0  0  0  0  0  0  0  0  0  0  0
   28.9190   52.9750   -5.9900 C   0  0  0  0  0  0  0  0  0  0  0  0
   29.6880   52.5140   -3.8030 C   0  0  0  0  0  0  0  0  0  0  0  0
   28.5630   52.6120   -7.2960 N   0  0  0  0  0  0  0  0  0  0  0  0
   29.5730   53.8120   -3.4900 N   0  0  0  0  0  0  0  0  0  0  0  0
   28.7950   54.2770   -5.7070 N   0  0  0  0  0  0  0  0  0  0  0  0
   29.1330   54.6290   -4.4600 C   0  0  0  0  0  0  0  0  0  0  0  0
  1  2  1  0
  2  3  2  0
  4  2  1  6
  4  5  1  0
  4  6  1  0
  5  7  1  6
  5  8  1  0
  6  9  1  0
  8  9  2  0
  8 10  1  0
  9 11  1  0
  7 12  1  0
 10 13  2  0
 11 14  2  0
 13 14  1  0
 12 15  2  0
 12 16  1  0
 16 17  2  0
 15 18  1  0
 17 19  1  0
 17 20  1  0
 18 20  2  0
 19 21  1  0
 20 22  1  0
 19 23  2  0
 22 24  2  0
 23 24  1  0
M  END
