mac-x0190-mac-x0321
     RDKit          3D

 15 16  0  0  0  0  0  0  0  0999 V2000
   28.6080   56.7090   -5.1650 O   0  0  0  0  0  0  0  0  0  0  0  0
   29.6540   56.0760   -4.4400 C   0  0  0  0  0  0  0  0  0  0  0  0
   29.5410   54.6150   -4.6870 C   0  0  0  0  0  0  0  0  0  0  0  0
   30.0960   53.6960   -3.8320 N   0  0  0  0  0  0  0  0  0  0  0  0
   28.9340   54.0160   -5.6910 N   0  0  0  0  0  0  0  0  0  0  0  0
   29.8300   52.4400   -4.3140 C   0  0  0  0  0  0  0  0  0  0  0  0
   29.0980   52.6610   -5.4820 C   0  0  0  0  0  0  0  0  0  0  0  0
   30.1560   51.1630   -3.8430 C   0  0  0  0  0  0  0  0  0  0  0  0
   28.6740   51.5370   -6.2130 C   0  0  0  0  0  0  0  0  0  0  0  0
   27.7790   51.8340   -7.6340 Cl  0  0  0  0  0  0  0  0  0  0  0  0
   29.7130   50.0630   -4.6040 C   0  0  0  0  0  0  0  0  0  0  0  0
   28.9770   50.2410   -5.7810 C   0  0  0  0  0  0  0  0  0  0  0  0
   30.0520   48.7040   -4.1140 C   0  0  0  0  0  0  0  0  0  0  0  0
   30.7380   47.9660   -5.0100 O   0  0  0  0  0  0  0  0  0  0  0  0
   29.7360   48.3020   -3.0080 O   0  0  0  0  0  0  0  0  0  0  0  0
  1  2  1  0
  2  3  1  0
  3  4  1  0
  3  5  2  0
  4  6  1  0
  5  7  1  0
  6  7  2  0
  6  8  1  0
  7  9  1  0
  9 10  1  0
  8 11  2  0
  9 12  2  0
 11 12  1  0
 11 13  1  0
 13 14  1  0
 13 15  2  0
M  END
