mac-x0333-mac-x1493
     RDKit          3D

 12 13  0  0  0  0  0  0  0  0999 V2000
   30.0100   48.3700   -4.0870 C   0  0  0  0  0  0  0  0  0  0  0  0
   29.8520   47.5040   -5.1020 O   0  0  0  0  0  0  0  0  0  0  0  0
   30.3450   48.0010   -2.9780 O   0  0  0  0  0  0  0  0  0  0  0  0
   29.7340   49.7580   -4.5080 C   0  0  0  0  0  0  0  0  0  0  0  0
   29.9950   50.8690   -3.6920 C   0  0  0  0  0  0  0  0  0  0  0  0
   29.1900   49.9280   -5.7950 C   0  0  0  0  0  0  0  0  0  0  0  0
   29.6970   52.1150   -4.2100 C   0  0  0  0  0  0  0  0  0  0  0  0
   28.9000   51.2010   -6.2870 C   0  0  0  0  0  0  0  0  0  0  0  0
   29.1660   52.2750   -5.4700 C   0  0  0  0  0  0  0  0  0  0  0  0
   29.8770   53.3110   -3.5800 O   0  0  0  0  0  0  0  0  0  0  0  0
   28.9530   53.5820   -5.7770 O   0  0  0  0  0  0  0  0  0  0  0  0
   29.6330   54.2150   -4.6770 C   0  0  0  0  0  0  0  0  0  0  0  0
  1  2  1  0
  1  3  2  0
  1  4  1  0
  4  5  2  0
  4  6  1  0
  5  7  1  0
  6  8  2  0
  7  9  2  0
  8  9  1  0
  7 10  1  0
  9 11  1  0
 10 12  1  0
 11 12  1  0
M  END
