mac-x0453-mac-x0439
     RDKit          3D

 22 24  0  0  0  0  0  0  0  0999 V2000
   29.4430   54.9660   -6.8310 N   0  0  0  0  0  0  0  0  0  0  0  0
   29.9680   53.7360   -6.2270 C   0  0  0  0  0  0  0  0  0  0  0  0
   28.8610   52.9050   -5.5740 C   0  0  0  0  0  0  0  0  0  0  0  0
   29.3540   51.5690   -5.1360 C   0  0  0  0  0  0  0  0  0  0  0  0
   30.1600   50.6780   -5.8080 C   0  0  0  0  0  0  0  0  0  0  0  0
   29.0150   51.0640   -3.9030 N   0  0  0  0  0  0  0  0  0  0  0  0
   30.3070   49.6150   -4.9630 N   0  0  0  0  0  0  0  0  0  0  0  0
   29.5990   49.8850   -3.8170 C   0  0  0  0  0  0  0  0  0  0  0  0
   29.5260   48.9450   -2.6600 C   0  0  0  0  0  0  0  0  0  0  0  0
   30.3100   47.6380   -2.8680 C   0  0  0  0  0  0  0  0  0  0  0  0
   29.6440   46.3140   -2.5360 C   0  0  0  0  0  0  0  0  0  0  0  0
   30.3170   45.0540   -3.0320 C   0  0  2  0  0  0  0  0  0  0  0  0
   28.4990   46.1530   -1.8300 C   0  0  0  0  0  0  0  0  0  0  0  0
   30.9620   45.0020   -4.3740 C   0  0  0  0  0  0  0  0  0  0  0  0
   29.2330   44.0410   -3.3470 C   0  0  0  0  0  0  0  0  0  0  0  0
   27.9340   44.8350   -1.5610 C   0  0  0  0  0  0  0  0  0  0  0  0
   30.3160   44.1200   -5.1560 C   0  0  0  0  0  0  0  0  0  0  0  0
   29.2440   43.5160   -4.5340 N   0  0  0  0  0  0  0  0  0  0  0  0
   28.2640   43.7520   -2.2850 C   0  0  0  0  0  0  0  0  0  0  0  0
   30.6970   43.8090   -6.5620 C   0  0  0  0  0  0  0  0  0  0  0  0
   30.0220   42.7540   -7.0650 O   0  0  0  0  0  0  0  0  0  0  0  0
   31.5160   44.3960   -7.2470 O   0  0  0  0  0  0  0  0  0  0  0  0
  1  2  1  0
  2  3  1  0
  3  4  1  0
  4  5  2  0
  4  6  1  0
  5  7  1  0
  6  8  2  0
  7  8  1  0
  8  9  1  0
  9 10  1  0
 10 11  1  0
 11 12  1  0
 11 13  2  0
 12 14  1  6
 12 15  1  0
 13 16  1  0
 14 17  2  0
 15 18  2  0
 17 18  1  0
 15 19  1  0
 16 19  2  0
 17 20  1  0
 20 21  1  0
 20 22  2  0
M  END
