mac-x0271-mac-x0567
     RDKit          3D

 17 19  0  0  0  0  0  0  0  0999 V2000
   29.9070   49.3730   -2.8680 O   0  0  0  0  0  0  0  0  0  0  0  0
   29.9360   50.3450   -3.9130 C   0  0  1  0  0  0  0  0  0  0  0  0
   28.7650   50.1650   -4.8690 C   0  0  0  0  0  0  0  0  0  0  0  0
   29.9590   51.7760   -3.3770 C   0  0  0  0  0  0  0  0  0  0  0  0
   29.5970   52.7870   -4.4330 C   0  0  0  0  0  0  0  0  0  0  0  0
   29.0180   50.9840   -6.1540 C   0  0  2  0  0  0  0  0  0  0  0  0
   29.1760   52.4730   -5.6910 C   0  0  0  0  0  0  0  0  0  0  0  0
   29.7350   54.1240   -3.9700 O   0  0  0  0  0  0  0  0  0  0  0  0
   27.9510   50.8070   -7.1880 N   0  0  0  0  0  0  0  0  0  0  0  0
   30.1720   50.2080   -6.8310 C   0  0  0  0  0  0  0  0  0  0  0  0
   28.8630   53.6080   -6.5500 C   0  0  0  0  0  0  0  0  0  0  0  0
   29.2910   55.1820   -4.7040 C   0  0  0  0  0  0  0  0  0  0  0  0
   29.3970   49.0110   -7.3670 C   0  0  1  0  0  0  0  0  0  0  0  0
   28.3300   49.6850   -8.0690 N   0  0  0  0  0  0  0  0  0  0  0  0
   29.2030   56.3220   -4.2500 O   0  0  0  0  0  0  0  0  0  0  0  0
   30.0900   48.1630   -8.3060 N   0  0  0  0  0  0  0  0  0  0  0  0
   28.9140   54.8810   -6.0980 C   0  0  0  0  0  0  0  0  0  0  0  0
  2  1  1  1
  2  3  1  0
  2  4  1  0
  4  5  1  0
  6  3  1  1
  5  7  2  0
  6  7  1  0
  5  8  1  0
  6  9  1  0
  6 10  1  0
  7 11  1  0
  8 12  1  0
 10 13  1  0
  9 14  1  0
 13 14  1  0
 12 15  2  0
 13 16  1  6
 11 17  2  0
 12 17  1  0
M  END
