mac-x0436-mac-x0116
     RDKit          3D

 33 37  0  0  0  0  0  0  0  0999 V2000
   32.4360   44.8400   -7.2830 O   0  0  0  0  0  0  0  0  0  0  0  0
   31.9210   45.1890   -6.0880 C   0  0  0  0  0  0  0  0  0  0  0  0
   30.7870   45.7800   -5.9590 N   0  0  0  0  0  0  0  0  0  0  0  0
   32.7550   44.8410   -4.8810 C   0  0  0  0  0  0  0  0  0  0  0  0
   32.7300   45.9490   -3.8290 C   0  0  0  0  0  0  0  0  0  0  0  0
   30.0010   46.0920   -7.1540 C   0  0  0  0  0  0  0  0  0  0  0  0
   34.1290   46.3440   -3.4190 C   0  0  0  0  0  0  0  0  0  0  0  0
   29.7410   47.5140   -7.3290 N   0  0  0  0  0  0  0  0  0  0  0  0
   34.4150   47.8380   -3.2760 C   0  0  0  0  0  0  0  0  0  0  0  0
   35.0300   45.4330   -3.1990 N   0  0  0  0  0  0  0  0  0  0  0  0
   29.4640   48.4370   -6.3530 C   0  0  0  0  0  0  0  0  0  0  0  0
   29.7300   48.1670   -8.5330 C   0  0  0  0  0  0  0  0  0  0  0  0
   33.4870   48.6410   -3.2250 O   0  0  0  0  0  0  0  0  0  0  0  0
   35.7400   48.1740   -3.2090 N   0  0  0  0  0  0  0  0  0  0  0  0
   36.3140   45.8630   -2.8240 C   0  0  0  0  0  0  0  0  0  0  0  0
   29.3680   48.2530   -5.0240 N   0  0  0  0  0  0  0  0  0  0  0  0
   29.2990   49.6350   -7.0410 C   0  0  0  0  0  0  0  0  0  0  0  0
   29.4680   49.4490   -8.4000 N   0  0  0  0  0  0  0  0  0  0  0  0
   36.6850   47.2200   -2.8230 C   0  0  0  0  0  0  0  0  0  0  0  0
   37.2520   44.9070   -2.4390 C   0  0  0  0  0  0  0  0  0  0  0  0
   29.0810   49.4070   -4.3940 C   0  0  0  0  0  0  0  0  0  0  0  0
   29.0020   50.7830   -6.2780 C   0  0  0  0  0  0  0  0  0  0  0  0
   28.8240   52.0310   -6.8850 N   0  0  0  0  0  0  0  0  0  0  0  0
   38.5380   45.2930   -2.0600 C   0  0  0  0  0  0  0  0  0  0  0  0
   37.9680   47.6120   -2.4460 C   0  0  0  0  0  0  0  0  0  0  0  0
   28.8980   50.6350   -4.9310 N   0  0  0  0  0  0  0  0  0  0  0  0
   29.4040   53.1790   -6.1950 C   0  0  0  0  0  0  0  0  0  0  0  0
   38.8950   46.6430   -2.0630 C   0  0  0  0  0  0  0  0  0  0  0  0
   30.6170   53.7980   -6.8090 C   0  0  0  0  0  0  0  0  0  0  0  0
   31.7830   53.6660   -6.1060 O   0  0  0  0  0  0  0  0  0  0  0  0
   30.8540   54.5060   -7.9710 C   0  0  0  0  0  0  0  0  0  0  0  0
   32.2360   54.8200   -7.9770 C   0  0  0  0  0  0  0  0  0  0  0  0
   32.7560   54.2860   -6.8200 C   0  0  0  0  0  0  0  0  0  0  0  0
  1  2  1  0
  2  3  2  3
  2  4  1  0
  4  5  1  0
  3  6  1  0
  5  7  1  0
  6  8  1  0
  7  9  1  0
  7 10  2  0
  8 11  1  0
  8 12  1  0
  9 13  2  0
  9 14  1  0
 10 15  1  0
 11 16  2  0
 11 17  1  0
 12 18  2  0
 17 18  1  0
 14 19  1  0
 15 19  2  0
 15 20  1  0
 16 21  1  0
 17 22  2  0
 22 23  1  0
 20 24  2  0
 19 25  1  0
 21 26  2  0
 22 26  1  0
 23 27  1  0
 24 28  1  0
 25 28  2  0
 27 29  1  0
 29 30  1  0
 29 31  2  0
 31 32  1  0
 30 33  1  0
 32 33  2  0
M  END
