mac-x0436-mac-x0365
     RDKit          3D

 28 30  0  0  0  0  0  0  0  0999 V2000
   33.6100   44.1430   -7.0710 O   0  0  0  0  0  0  0  0  0  0  0  0
   32.5360   44.0380   -6.2590 C   0  0  0  0  0  0  0  0  0  0  0  0
   31.4070   43.9730   -6.7110 O   0  0  0  0  0  0  0  0  0  0  0  0
   32.9170   44.0140   -4.8050 C   0  0  0  0  0  0  0  0  0  0  0  0
   32.5650   45.3190   -4.1030 C   0  0  0  0  0  0  0  0  0  0  0  0
   33.8040   46.0590   -3.6310 C   0  0  0  0  0  0  0  0  0  0  0  0
   33.8260   47.6120   -3.5470 C   0  0  0  0  0  0  0  0  0  0  0  0
   34.8620   45.3670   -3.3120 N   0  0  0  0  0  0  0  0  0  0  0  0
   32.7220   48.2610   -3.3270 N   0  0  0  0  0  0  0  0  0  0  0  0
   35.0860   48.1400   -3.7050 N   0  0  0  0  0  0  0  0  0  0  0  0
   36.0210   46.0650   -2.9070 C   0  0  0  0  0  0  0  0  0  0  0  0
   31.4460   47.5920   -3.1390 C   0  0  0  0  0  0  0  0  0  0  0  0
   36.1460   47.4540   -3.1010 C   0  0  0  0  0  0  0  0  0  0  0  0
   37.0590   45.3550   -2.3070 C   0  0  0  0  0  0  0  0  0  0  0  0
   30.7570   47.4710   -4.4120 N   0  0  0  0  0  0  0  0  0  0  0  0
   38.2220   46.0140   -1.8970 C   0  0  0  0  0  0  0  0  0  0  0  0
   37.3130   48.1120   -2.6890 C   0  0  0  0  0  0  0  0  0  0  0  0
   30.1580   48.4420   -4.9900 C   0  0  0  0  0  0  0  0  0  0  0  0
   38.3470   47.3900   -2.0880 C   0  0  0  0  0  0  0  0  0  0  0  0
   29.5670   48.1570   -6.1600 O   0  0  0  0  0  0  0  0  0  0  0  0
   29.9450   49.8660   -4.6760 C   0  0  0  0  0  0  0  0  0  0  0  0
   30.0820   50.3660   -3.3810 C   0  0  0  0  0  0  0  0  0  0  0  0
   29.5910   50.7270   -5.7280 C   0  0  0  0  0  0  0  0  0  0  0  0
   29.8650   51.7220   -3.1490 C   0  0  0  0  0  0  0  0  0  0  0  0
   29.3760   52.0850   -5.4850 C   0  0  0  0  0  0  0  0  0  0  0  0
   29.9980   52.1980   -1.9020 F   0  0  0  0  0  0  0  0  0  0  0  0
   29.5150   52.5790   -4.1910 C   0  0  0  0  0  0  0  0  0  0  0  0
   29.3120   53.9010   -3.9260 O   0  0  0  0  0  0  0  0  0  0  0  0
  1  2  1  0
  2  3  2  0
  2  4  1  0
  4  5  1  0
  5  6  1  0
  6  7  1  0
  6  8  2  0
  7  9  2  3
  7 10  1  0
  8 11  1  0
  9 12  1  0
 10 13  1  0
 11 13  2  0
 11 14  1  0
 12 15  1  0
 14 16  2  0
 13 17  1  0
 15 18  2  3
 16 19  1  0
 17 19  2  0
 18 20  1  0
 18 21  1  0
 21 22  2  0
 21 23  1  0
 22 24  1  0
 23 25  2  0
 24 26  1  0
 24 27  2  0
 25 27  1  0
 27 28  1  0
M  END
