mac-x0365-mac-x0397
     RDKit          3D

 15 16  0  0  0  0  0  0  0  0999 V2000
   29.5050   48.0310   -6.1960 O   0  0  0  0  0  0  0  0  0  0  0  0
   29.9910   48.3300   -4.9820 C   0  0  0  0  0  0  0  0  0  0  0  0
   30.5090   47.4610   -4.3010 O   0  0  0  0  0  0  0  0  0  0  0  0
   29.8300   49.7450   -4.5850 C   0  0  0  0  0  0  0  0  0  0  0  0
   30.0930   50.1150   -3.1950 C   0  0  0  0  0  0  0  0  0  0  0  0
   29.4650   50.8780   -5.2750 C   0  0  0  0  0  0  0  0  0  0  0  0
   29.9020   51.4140   -3.0410 C   0  0  0  0  0  0  0  0  0  0  0  0
   29.5040   51.9590   -4.2970 C   0  0  0  0  0  0  0  0  0  0  0  0
   29.0190   51.2470   -6.8930 S   0  0  0  0  0  0  0  0  0  0  0  0
   30.0480   52.1140   -1.9120 F   0  0  0  0  0  0  0  0  0  0  0  0
   29.2150   53.2260   -4.5560 C   0  0  0  0  0  0  0  0  0  0  0  0
   28.7290   52.9920   -6.7820 C   0  0  0  0  0  0  0  0  0  0  0  0
   29.2810   54.1640   -3.5740 O   0  0  0  0  0  0  0  0  0  0  0  0
   28.3470   53.5870   -7.9400 N   0  0  0  0  0  0  0  0  0  0  0  0
   28.8420   53.7350   -5.7430 N   0  0  0  0  0  0  0  0  0  0  0  0
  1  2  1  0
  2  3  2  0
  2  4  1  0
  4  5  1  0
  4  6  2  0
  5  7  2  0
  6  8  1  0
  7  8  1  0
  6  9  1  0
  7 10  1  0
  8 11  2  0
  9 12  1  0
 11 13  1  0
 12 14  1  0
 11 15  1  0
 12 15  2  0
M  END
