mac-x0402-mac-x0345
     RDKit          3D

 13 14  0  0  0  0  0  0  0  0999 V2000
   30.4960   48.0660   -3.6480 Cl  0  0  0  0  0  0  0  0  0  0  0  0
   30.0650   49.6400   -4.2420 C   0  0  0  0  0  0  0  0  0  0  0  0
   30.1130   50.7630   -3.3890 C   0  0  0  0  0  0  0  0  0  0  0  0
   29.6760   49.7400   -5.5770 C   0  0  0  0  0  0  0  0  0  0  0  0
   30.5130   50.6190   -2.0370 N   0  0  0  0  0  0  0  0  0  0  0  0
   29.3270   51.0060   -6.0600 C   0  0  0  0  0  0  0  0  0  0  0  0
   29.7560   52.0400   -3.8970 C   0  0  0  0  0  0  0  0  0  0  0  0
   29.7930   53.2660   -3.0210 C   0  0  0  0  0  0  0  0  0  0  0  0
   29.3580   52.1450   -5.2550 C   0  0  0  0  0  0  0  0  0  0  0  0
   28.8090   51.4550   -7.6410 S   0  0  0  0  0  0  0  0  0  0  0  0
   28.6720   53.0830   -7.1380 C   0  0  0  0  0  0  0  0  0  0  0  0
   28.9800   53.3180   -5.8930 N   0  0  0  0  0  0  0  0  0  0  0  0
   28.2730   54.0490   -7.9820 N   0  0  0  0  0  0  0  0  0  0  0  0
  1  2  1  0
  2  3  2  0
  2  4  1  0
  3  5  1  0
  4  6  2  0
  3  7  1  0
  7  8  1  0
  6  9  1  0
  7  9  2  0
  6 10  1  0
 10 11  1  0
  9 12  1  0
 11 12  2  0
 11 13  1  0
M  END
