mac-x0344-mac-x0397
     RDKit          3D

 26 28  0  0  0  0  0  0  0  0999 V2000
   31.7380   44.5770   -4.1270 O   0  0  0  0  0  0  0  0  0  0  0  0
   32.2570   45.2950   -5.1360 C   0  0  0  0  0  0  0  0  0  0  0  0
   31.4260   45.7560   -6.0010 N   0  0  0  0  0  0  0  0  0  0  0  0
   33.7940   45.4220   -5.0450 C   0  0  0  0  0  0  0  0  0  0  0  0
   34.4740   45.4980   -6.0570 O   0  0  0  0  0  0  0  0  0  0  0  0
   34.2300   45.4350   -3.7310 N   0  0  0  0  0  0  0  0  0  0  0  0
   30.0050   45.4690   -5.8140 C   0  0  0  0  0  0  0  0  0  0  0  0
   29.2750   46.7660   -5.4450 C   0  0  0  0  0  0  0  0  0  0  0  0
   35.3460   46.0920   -3.1840 C   0  0  0  0  0  0  0  0  0  0  0  0
   30.0450   47.6780   -4.4780 C   0  0  0  0  0  0  0  0  0  0  0  0
   36.3900   45.4360   -2.5330 C   0  0  0  0  0  0  0  0  0  0  0  0
   35.3960   47.4900   -3.3070 C   0  0  0  0  0  0  0  0  0  0  0  0
   37.4700   46.1590   -2.0120 C   0  0  0  0  0  0  0  0  0  0  0  0
   36.4740   48.2120   -2.7870 C   0  0  0  0  0  0  0  0  0  0  0  0
   29.7440   49.1520   -4.6460 C   0  0  0  0  0  0  0  0  0  0  0  0
   37.5090   47.5470   -2.1410 C   0  0  0  0  0  0  0  0  0  0  0  0
   29.7090   49.9920   -3.5290 C   0  0  0  0  0  0  0  0  0  0  0  0
   29.4990   49.6830   -5.9240 C   0  0  0  0  0  0  0  0  0  0  0  0
   29.2210   51.0550   -6.0570 C   0  0  0  0  0  0  0  0  0  0  0  0
   29.4310   51.3510   -3.6900 C   0  0  0  0  0  0  0  0  0  0  0  0
   29.3810   52.4150   -2.3500 Cl  0  0  0  0  0  0  0  0  0  0  0  0
   29.1790   51.9200   -4.9550 C   0  0  0  0  0  0  0  0  0  0  0  0
   28.8870   51.9540   -7.4860 S   0  0  0  0  0  0  0  0  0  0  0  0
   28.7210   53.3820   -6.5570 C   0  0  0  0  0  0  0  0  0  0  0  0
   28.8910   53.2440   -5.2710 N   0  0  0  0  0  0  0  0  0  0  0  0
   28.4330   54.5610   -7.1330 N   0  0  0  0  0  0  0  0  0  0  0  0
  1  2  1  0
  2  3  2  3
  2  4  1  0
  4  5  2  0
  4  6  1  0
  3  7  1  0
  7  8  1  0
  6  9  1  0
  8 10  1  0
  9 11  2  0
  9 12  1  0
 11 13  1  0
 12 14  2  0
 10 15  1  0
 13 16  2  0
 14 16  1  0
 15 17  2  0
 15 18  1  0
 18 19  2  0
 17 20  1  0
 20 21  1  0
 19 22  1  0
 20 22  2  0
 19 23  1  0
 23 24  1  0
 22 25  1  0
 24 25  2  0
 24 26  1  0
M  END
