mac-x0567-mac-x0417
     RDKit          3D

 25 28  0  0  0  0  0  0  0  0999 V2000
   29.9260   46.6270   -6.4080 N   0  0  0  0  0  0  0  0  0  0  0  0
   29.8430   47.9550   -6.5860 C   0  0  0  0  0  0  0  0  0  0  0  0
   30.2420   48.5260   -7.7200 N   0  0  0  0  0  0  0  0  0  0  0  0
   29.4320   48.9650   -5.8040 C   0  0  0  0  0  0  0  0  0  0  0  0
   30.8350   47.6880   -8.7440 C   0  0  0  0  0  0  0  0  0  0  0  0
   30.0650   49.8900   -7.7760 N   0  0  0  0  0  0  0  0  0  0  0  0
   29.5650   50.1870   -6.5500 C   0  0  0  0  0  0  0  0  0  0  0  0
   28.9800   48.8030   -4.5150 C   0  0  0  0  0  0  0  0  0  0  0  0
   32.0810   46.8870   -8.1750 C   0  0  0  0  0  0  0  0  0  0  0  0
   29.2000   51.4080   -5.9540 C   0  0  0  0  0  0  0  0  0  0  0  0
   28.6380   50.0290   -3.9410 C   0  0  0  0  0  0  0  0  0  0  0  0
   31.9770   46.3430   -6.7830 O   0  0  0  0  0  0  0  0  0  0  0  0
   28.7390   51.2780   -4.6240 C   0  0  0  0  0  0  0  0  0  0  0  0
   33.1290   45.8430   -6.1230 C   0  0  0  0  0  0  0  0  0  0  0  0
   34.1820   45.6120   -6.6960 O   0  0  0  0  0  0  0  0  0  0  0  0
   32.9030   45.6260   -4.6130 C   0  0  0  0  0  0  0  0  0  0  0  0
   34.1340   45.2590   -3.7960 C   0  0  0  0  0  0  0  0  0  0  0  0
   34.3380   43.9850   -3.3880 N   0  0  0  0  0  0  0  0  0  0  0  0
   35.2070   46.0910   -3.3350 C   0  0  0  0  0  0  0  0  0  0  0  0
   35.5320   43.9800   -2.6710 O   0  0  0  0  0  0  0  0  0  0  0  0
   36.0500   45.2350   -2.6420 C   0  0  0  0  0  0  0  0  0  0  0  0
   35.5640   47.4470   -3.4190 C   0  0  0  0  0  0  0  0  0  0  0  0
   37.2390   45.6240   -2.0180 C   0  0  0  0  0  0  0  0  0  0  0  0
   36.7510   47.8750   -2.8040 C   0  0  0  0  0  0  0  0  0  0  0  0
   37.5750   46.9800   -2.1170 C   0  0  0  0  0  0  0  0  0  0  0  0
  1  2  1  0
  2  3  1  0
  2  4  2  0
  3  5  1  0
  3  6  1  0
  4  7  1  0
  6  7  2  0
  4  8  1  0
  5  9  1  0
  7 10  1  0
  8 11  2  0
  9 12  1  0
 10 13  2  0
 11 13  1  0
 12 14  1  0
 14 15  2  0
 14 16  1  0
 16 17  1  0
 17 18  2  0
 17 19  1  0
 18 20  1  0
 19 21  2  0
 20 21  1  0
 19 22  1  0
 21 23  1  0
 22 24  2  0
 23 25  2  0
 24 25  1  0
M  END
