mac-x0193-mac-x0231
     RDKit          3D

 25 27  0  0  0  0  0  0  0  0999 V2000
   34.1380   45.9290   -6.0670 O   0  0  0  0  0  0  0  0  0  0  0  0
   33.0650   45.1330   -5.8650 C   0  0  0  0  0  0  0  0  0  0  0  0
   32.0820   45.2420   -6.5850 O   0  0  0  0  0  0  0  0  0  0  0  0
   33.2550   44.1480   -4.7020 C   0  0  1  0  0  0  0  0  0  0  0  0
   34.4930   44.4850   -3.9850 N   0  0  0  0  0  0  0  0  0  0  0  0
   31.9880   44.1550   -3.7860 C   0  0  1  0  0  0  0  0  0  0  0  0
   35.0140   43.6460   -3.0310 C   0  0  0  0  0  0  0  0  0  0  0  0
   31.7330   45.4510   -2.9400 C   0  0  2  0  0  0  0  0  0  0  0  0
   30.7710   43.7780   -4.5820 N   0  0  0  0  0  0  0  0  0  0  0  0
   34.6390   42.4930   -2.8620 O   0  0  0  0  0  0  0  0  0  0  0  0
   35.9990   44.2580   -2.2980 N   0  0  0  0  0  0  0  0  0  0  0  0
   30.3120   46.0210   -3.1960 C   0  0  1  0  0  0  0  0  0  0  0  0
   29.5770   43.7970   -3.8290 N   0  0  0  0  0  0  0  0  0  0  0  0
   32.7650   46.5580   -2.9270 C   0  0  0  0  0  0  0  0  0  0  0  0
   37.1870   43.5570   -1.8260 C   0  0  0  0  0  0  0  0  0  0  0  0
   29.3350   44.8660   -2.9770 C   0  0  0  0  0  0  0  0  0  0  0  0
   30.0640   47.2300   -2.3260 C   0  0  0  0  0  0  0  0  0  0  0  0
   32.4250   47.7770   -2.4720 C   0  0  0  0  0  0  0  0  0  0  0  0
   28.4220   44.8400   -2.1560 O   0  0  0  0  0  0  0  0  0  0  0  0
   37.4260   42.2750   -2.6330 C   0  0  0  0  0  0  0  0  0  0  0  0
   37.0750   43.2470   -0.3260 C   0  0  0  0  0  0  0  0  0  0  0  0
   31.0820   48.0450   -1.9990 C   0  0  0  0  0  0  0  0  0  0  0  0
   38.6730   41.5320   -2.1570 C   0  0  0  0  0  0  0  0  0  0  0  0
   38.2610   42.4220    0.1710 C   0  0  0  0  0  0  0  0  0  0  0  0
   39.2930   42.1920   -0.9290 C   0  0  0  0  0  0  0  0  0  0  0  0
  1  2  1  0
  2  3  2  0
  2  4  1  0
  4  5  1  1
  4  6  1  0
  5  7  1  0
  6  8  1  0
  6  9  1  6
  7 10  2  0
  7 11  1  0
  8 12  1  0
  9 13  1  0
  8 14  1  6
 11 15  1  0
 12 16  1  0
 13 16  1  0
 12 17  1  1
 14 18  2  0
 16 19  2  0
 15 20  1  0
 15 21  1  0
 17 22  2  0
 18 22  1  0
 20 23  1  0
 21 24  1  0
 23 25  1  0
 24 25  1  0
M  END
