mac-x0357-mac-x0385
     RDKit          3D

 21 22  0  0  0  0  0  0  0  0999 V2000
   32.3790   43.2950   -4.9350 C   0  0  0  0  0  0  0  0  0  0  0  0
   33.1420   44.4910   -4.4340 C   0  0  0  0  0  0  0  0  0  0  0  0
   34.1700   44.3390   -3.4930 C   0  0  0  0  0  0  0  0  0  0  0  0
   32.8480   45.7880   -4.8920 C   0  0  0  0  0  0  0  0  0  0  0  0
   34.4690   43.0830   -3.0380 O   0  0  0  0  0  0  0  0  0  0  0  0
   31.7770   46.0100   -5.8900 C   0  0  0  0  0  0  0  0  0  0  0  0
   33.5710   46.8950   -4.4110 C   0  0  0  0  0  0  0  0  0  0  0  0
   34.8900   45.4360   -3.0130 C   0  0  0  0  0  0  0  0  0  0  0  0
   30.6410   46.5270   -5.6670 N   0  0  0  0  0  0  0  0  0  0  0  0
   32.1690   45.5730   -7.0960 O   0  0  0  0  0  0  0  0  0  0  0  0
   34.5890   46.7160   -3.4730 C   0  0  0  0  0  0  0  0  0  0  0  0
   29.7140   46.6500   -6.7840 C   0  0  0  0  0  0  0  0  0  0  0  0
   28.5190   47.5130   -6.4320 C   0  0  0  0  0  0  0  0  0  0  0  0
   28.8230   48.5860   -5.4310 C   0  0  0  0  0  0  0  0  0  0  0  0
   28.5250   49.8530   -5.7740 N   0  0  0  0  0  0  0  0  0  0  0  0
   29.3680   48.2190   -4.2590 N   0  0  0  0  0  0  0  0  0  0  0  0
   28.7920   50.8040   -4.8720 C   0  0  0  0  0  0  0  0  0  0  0  0
   29.6190   49.2080   -3.3870 C   0  0  0  0  0  0  0  0  0  0  0  0
   28.4670   52.1000   -5.2620 N   0  0  0  0  0  0  0  0  0  0  0  0
   29.3500   50.5380   -3.6350 C   0  0  0  0  0  0  0  0  0  0  0  0
   29.6440   51.5980   -2.6320 C   0  0  0  0  0  0  0  0  0  0  0  0
  1  2  1  0
  2  3  2  0
  2  4  1  0
  3  5  1  0
  4  6  1  0
  4  7  2  0
  3  8  1  0
  6  9  2  3
  6 10  1  0
  7 11  1  0
  8 11  2  0
  9 12  1  0
 12 13  1  0
 13 14  1  0
 14 15  2  0
 14 16  1  0
 15 17  1  0
 16 18  2  0
 17 19  1  0
 17 20  2  0
 18 20  1  0
 20 21  1  0
M  END
