mac-x0341-mac-x0328
     RDKit          3D

 20 22  0  0  0  0  0  0  0  0999 V2000
   29.4070   54.7830   -7.3400 N   0  0  0  0  0  0  0  0  0  0  0  0
   29.0100   53.4900   -7.2190 C   0  0  0  0  0  0  0  0  0  0  0  0
   27.9720   53.0600   -7.8630 N   0  0  0  0  0  0  0  0  0  0  0  0
   29.7910   52.7450   -6.3850 N   0  0  0  0  0  0  0  0  0  0  0  0
   29.2950   51.6030   -5.7540 C   0  0  0  0  0  0  0  0  0  0  0  0
   27.6640   51.6960   -7.6540 C   0  0  0  0  0  0  0  0  0  0  0  0
   28.2780   50.9250   -6.6370 C   0  0  0  0  0  0  0  0  0  0  0  0
   26.7130   51.1140   -8.5020 C   0  0  0  0  0  0  0  0  0  0  0  0
   29.6870   51.1760   -4.5130 C   0  0  0  0  0  0  0  0  0  0  0  0
   26.3570   49.7750   -8.3630 C   0  0  0  0  0  0  0  0  0  0  0  0
   27.9030   49.5740   -6.5180 C   0  0  0  0  0  0  0  0  0  0  0  0
   30.7020   51.9110   -3.7350 C   0  0  0  0  0  0  0  0  0  0  0  0
   29.1440   49.9720   -3.8670 C   0  0  0  0  0  0  0  0  0  0  0  0
   26.9520   49.0060   -7.3700 C   0  0  0  0  0  0  0  0  0  0  0  0
   31.3620   51.3070   -2.7300 C   0  0  0  0  0  0  0  0  0  0  0  0
   29.7980   49.3670   -2.8640 C   0  0  0  0  0  0  0  0  0  0  0  0
   31.1200   49.8660   -2.3270 C   0  0  0  0  0  0  0  0  0  0  0  0
   32.2610   48.9580   -2.8200 C   0  0  0  0  0  0  0  0  0  0  0  0
   32.1380   47.6750   -2.4030 O   0  0  0  0  0  0  0  0  0  0  0  0
   33.2170   49.2650   -3.5160 O   0  0  0  0  0  0  0  0  0  0  0  0
  1  2  1  0
  2  3  2  0
  2  4  1  0
  4  5  1  0
  3  6  1  0
  5  7  1  0
  6  7  2  0
  6  8  1  0
  5  9  2  3
  8 10  2  0
  7 11  1  0
  9 12  1  0
  9 13  1  0
 10 14  1  0
 11 14  2  0
 12 15  2  0
 13 16  2  0
 15 17  1  0
 16 17  1  0
 17 18  1  0
 18 19  1  0
 18 20  2  0
M  END
