mac-x0226-mac-x0193
     RDKit          3D

 25 27  0  0  0  0  0  0  0  0999 V2000
   31.9070   45.2750   -6.0640 O   0  0  0  0  0  0  0  0  0  0  0  0
   33.2840   45.3290   -5.7080 C   0  0  0  0  0  0  0  0  0  0  0  0
   33.7690   46.5240   -6.3040 O   0  0  0  0  0  0  0  0  0  0  0  0
   33.9710   44.0450   -6.2840 C   0  0  0  0  0  0  0  0  0  0  0  0
   33.4390   45.3680   -4.2180 C   0  0  0  0  0  0  0  0  0  0  0  0
   35.3600   43.8270   -5.8570 N   0  0  0  0  0  0  0  0  0  0  0  0
   32.4520   45.5710   -3.2370 C   0  0  0  0  0  0  0  0  0  0  0  0
   34.5960   45.2090   -3.4850 C   0  0  0  0  0  0  0  0  0  0  0  0
   35.6940   42.8120   -4.9970 C   0  0  0  0  0  0  0  0  0  0  0  0
   32.9410   45.5400   -1.9960 N   0  0  0  0  0  0  0  0  0  0  0  0
   34.2740   45.3140   -2.1560 N   0  0  0  0  0  0  0  0  0  0  0  0
   34.9650   41.8490   -4.7880 O   0  0  0  0  0  0  0  0  0  0  0  0
   36.9230   43.0010   -4.4190 N   0  0  0  0  0  0  0  0  0  0  0  0
   35.1610   45.2070   -1.0510 C   0  0  0  0  0  0  0  0  0  0  0  0
   36.1390   46.1800   -0.8080 C   0  0  0  0  0  0  0  0  0  0  0  0
   35.0580   44.1010   -0.1910 C   0  0  0  0  0  0  0  0  0  0  0  0
   37.2420   42.4700   -3.0960 C   0  0  0  0  0  0  0  0  0  0  0  0
   37.0030   46.0470    0.2820 C   0  0  0  0  0  0  0  0  0  0  0  0
   35.9230   43.9760    0.8960 C   0  0  0  0  0  0  0  0  0  0  0  0
   38.2860   41.3520   -3.2010 C   0  0  0  0  0  0  0  0  0  0  0  0
   37.7260   43.5890   -2.1530 C   0  0  0  0  0  0  0  0  0  0  0  0
   36.8930   44.9450    1.1320 C   0  0  0  0  0  0  0  0  0  0  0  0
   38.7780   40.8640   -1.8370 C   0  0  0  0  0  0  0  0  0  0  0  0
   38.1990   43.0850   -0.7830 C   0  0  0  0  0  0  0  0  0  0  0  0
   39.2400   41.9870   -0.9060 C   0  0  0  0  0  0  0  0  0  0  0  0
  2  1  1  0
  2  3  1  0
  2  4  1  0
  2  5  1  0
  4  6  1  0
  5  7  1  0
  5  8  2  0
  6  9  1  0
  7 10  2  0
  8 11  1  0
 10 11  1  0
  9 12  2  0
  9 13  1  0
 11 14  1  0
 14 15  2  0
 14 16  1  0
 13 17  1  0
 15 18  1  0
 16 19  2  0
 17 20  1  0
 17 21  1  0
 18 22  2  0
 19 22  1  0
 20 23  1  0
 21 24  1  0
 23 25  1  0
 24 25  1  0
M  END
