mac-x0392-mac-x0284
     RDKit          3D

 17 19  0  0  0  0  0  0  0  0999 V2000
   29.2590   46.1190   -7.7950 N   0  0  0  0  0  0  0  0  0  0  0  0
   29.5350   47.4910   -7.9400 C   0  0  0  0  0  0  0  0  0  0  0  0
   29.2670   48.1280   -9.1570 C   0  0  0  0  0  0  0  0  0  0  0  0
   30.0750   48.2940   -6.9190 C   0  0  0  0  0  0  0  0  0  0  0  0
   30.4210   47.8340   -5.5750 C   0  0  0  0  0  0  0  0  0  0  0  0
   30.3060   49.6570   -7.1840 C   0  0  0  0  0  0  0  0  0  0  0  0
   29.4830   49.4380   -9.4270 N   0  0  0  0  0  0  0  0  0  0  0  0
   30.6080   47.6330   -4.2320 N   0  0  0  0  0  0  0  0  0  0  0  0
   29.6840   49.0300   -5.4460 O   0  0  0  0  0  0  0  0  0  0  0  0
   30.0000   50.1740   -8.4270 C   0  0  0  0  0  0  0  0  0  0  0  0
   29.4730   49.4660   -4.2040 C   0  0  0  0  0  0  0  0  0  0  0  0
   30.0620   48.5780   -3.4220 C   0  0  0  0  0  0  0  0  0  0  0  0
   28.7910   50.6000   -3.8020 C   0  0  0  0  0  0  0  0  0  0  0  0
   30.0210   48.7540   -2.0350 C   0  0  0  0  0  0  0  0  0  0  0  0
   28.7320   50.8060   -2.4180 C   0  0  0  0  0  0  0  0  0  0  0  0
   29.3450   49.8870   -1.5440 C   0  0  0  0  0  0  0  0  0  0  0  0
   28.0140   52.0100   -1.8810 C   0  0  0  0  0  0  0  0  0  0  0  0
  1  2  1  0
  2  3  2  0
  2  4  1  0
  4  5  1  0
  4  6  2  0
  3  7  1  0
  5  8  2  0
  5  9  1  0
  6 10  1  0
  7 10  2  0
  9 11  1  0
  8 12  1  0
 11 12  2  0
 11 13  1  0
 12 14  1  0
 13 15  2  0
 14 16  2  0
 15 16  1  0
 15 17  1  0
M  END
