mac-x0137-mac-x0394
     RDKit          3D

 27 30  0  0  0  0  0  0  0  0999 V2000
   31.5400   49.7880   -3.9960 F   0  0  0  0  0  0  0  0  0  0  0  0
   31.2170   48.5170   -3.6180 C   0  0  2  0  0  0  0  0  0  0  0  0
   32.3200   47.5970   -4.1150 C   0  0  0  0  0  0  0  0  0  0  0  0
   29.7880   48.1820   -4.1280 C   0  0  0  0  0  0  0  0  0  0  0  0
   29.6770   47.4880   -5.4550 N   0  0  0  0  0  0  0  0  0  0  0  0
   32.0840   47.1470   -5.5510 C   0  0  0  0  0  0  0  0  0  0  0  0
   30.7160   46.4940   -5.7310 C   0  0  0  0  0  0  0  0  0  0  0  0
   29.4300   48.3590   -6.5430 C   0  0  0  0  0  0  0  0  0  0  0  0
   29.8970   48.0730   -7.7730 N   0  0  0  0  0  0  0  0  0  0  0  0
   28.7020   49.5420   -6.4170 C   0  0  0  0  0  0  0  0  0  0  0  0
   29.6570   48.9310   -8.7790 C   0  0  0  0  0  0  0  0  0  0  0  0
   28.5290   50.3660   -7.5190 C   0  0  0  0  0  0  0  0  0  0  0  0
   28.0480   50.1410   -5.3660 C   0  0  0  0  0  0  0  0  0  0  0  0
   28.9980   50.0950   -8.7400 N   0  0  0  0  0  0  0  0  0  0  0  0
   27.8010   51.4910   -7.1440 N   0  0  0  0  0  0  0  0  0  0  0  0
   27.4850   51.2890   -5.8040 C   0  0  0  0  0  0  0  0  0  0  0  0
   26.6930   52.0280   -4.9060 C   0  0  0  0  0  0  0  0  0  0  0  0
   27.4730   52.5600   -7.9880 C   0  0  0  0  0  0  0  0  0  0  0  0
   26.9040   53.2730   -4.3440 C   0  0  0  0  0  0  0  0  0  0  0  0
   25.5660   51.2770   -4.6190 C   0  0  0  0  0  0  0  0  0  0  0  0
   28.4340   53.5150   -7.9780 O   0  0  0  0  0  0  0  0  0  0  0  0
   26.4710   52.6520   -8.6600 O   0  0  0  0  0  0  0  0  0  0  0  0
   25.9220   53.7410   -3.4640 C   0  0  0  0  0  0  0  0  0  0  0  0
   24.6170   51.7410   -3.7640 C   0  0  0  0  0  0  0  0  0  0  0  0
   23.2470   50.7440   -3.4590 Cl  0  0  0  0  0  0  0  0  0  0  0  0
   26.1100   55.2750   -2.7210 Cl  0  0  0  0  0  0  0  0  0  0  0  0
   24.7770   52.9810   -3.1700 C   0  0  0  0  0  0  0  0  0  0  0  0
  2  1  1  6
  2  3  1  0
  2  4  1  0
  4  5  1  0
  3  6  1  0
  5  7  1  0
  6  7  1  0
  5  8  1  0
  8  9  2  0
  8 10  1  0
  9 11  1  0
 10 12  2  0
 10 13  1  0
 11 14  2  0
 12 14  1  0
 12 15  1  0
 13 16  2  0
 15 16  1  0
 16 17  1  0
 15 18  1  0
 17 19  2  0
 17 20  1  0
 18 21  1  0
 18 22  2  0
 19 23  1  0
 20 24  2  0
 24 25  1  0
 23 26  1  0
 23 27  2  0
 24 27  1  0
M  END
