mac-x0373-mac-x0302
     RDKit          3D

 20 21  0  0  0  0  0  0  0  0999 V2000
   30.6170   47.2720   -7.1000 O   0  0  0  0  0  0  0  0  0  0  0  0
   30.4600   46.6340   -5.9280 C   0  0  0  0  0  0  0  0  0  0  0  0
   30.2060   45.3580   -5.9880 N   0  0  0  0  0  0  0  0  0  0  0  0
   30.6290   47.5120   -4.6580 C   0  0  1  0  0  0  0  0  0  0  0  0
   30.1020   44.7460   -4.7300 O   0  0  0  0  0  0  0  0  0  0  0  0
   29.9000   46.6640   -3.5820 C   0  0  0  0  0  0  0  0  0  0  0  0
   32.1120   47.6640   -4.2160 C   0  0  0  0  0  0  0  0  0  0  0  0
   30.0400   48.9550   -4.7780 C   0  0  0  0  0  0  0  0  0  0  0  0
   32.8000   46.6430   -3.5320 C   0  0  0  0  0  0  0  0  0  0  0  0
   32.8280   48.8450   -4.4930 C   0  0  0  0  0  0  0  0  0  0  0  0
   29.8320   49.7260   -3.6170 C   0  0  0  0  0  0  0  0  0  0  0  0
   29.6950   49.5730   -6.0070 C   0  0  0  0  0  0  0  0  0  0  0  0
   34.1330   46.7970   -3.1460 C   0  0  0  0  0  0  0  0  0  0  0  0
   34.1590   49.0000   -4.1060 C   0  0  0  0  0  0  0  0  0  0  0  0
   29.3350   51.0250   -3.6540 C   0  0  0  0  0  0  0  0  0  0  0  0
   29.1870   50.8880   -6.0500 C   0  0  0  0  0  0  0  0  0  0  0  0
   30.1330   49.1970   -2.3920 O   0  0  0  0  0  0  0  0  0  0  0  0
   34.8140   47.9730   -3.4340 C   0  0  0  0  0  0  0  0  0  0  0  0
   29.0180   51.6060   -4.8660 C   0  0  0  0  0  0  0  0  0  0  0  0
   28.5540   52.8970   -4.8140 O   0  0  0  0  0  0  0  0  0  0  0  0
  1  2  1  0
  2  3  2  3
  4  2  1  0
  3  5  1  0
  4  6  1  1
  4  7  1  0
  4  8  1  0
  7  9  2  0
  7 10  1  0
  8 11  2  0
  8 12  1  0
  9 13  1  0
 10 14  2  0
 11 15  1  0
 12 16  2  0
 11 17  1  0
 13 18  2  0
 14 18  1  0
 15 19  2  0
 16 19  1  0
 19 20  1  0
M  END
