mac-x0159-mac-x0338
     RDKit          3D

 19 21  0  0  0  0  0  0  0  0999 V2000
   29.1130   51.7620   -6.7640 C   0  0  0  0  0  0  0  0  0  0  0  0
   28.2980   52.1730   -7.7870 N   0  0  0  0  0  0  0  0  0  0  0  0
   30.2080   52.2930   -6.5870 O   0  0  0  0  0  0  0  0  0  0  0  0
   28.5570   50.6270   -5.8890 C   0  0  2  0  0  0  0  0  0  0  0  0
   29.3580   50.4420   -4.6330 N   0  0  0  0  0  0  0  0  0  0  0  0
   28.4440   49.3110   -6.6600 C   0  0  2  0  0  0  0  0  0  0  0  0
   29.0360   49.1970   -3.9070 C   0  0  0  0  0  0  0  0  0  0  0  0
   29.5120   48.3770   -6.1060 C   0  0  1  0  0  0  0  0  0  0  0  0
   28.7950   49.2780   -8.0990 N   0  0  0  0  0  0  0  0  0  0  0  0
   29.2380   48.0080   -4.7220 N   0  0  0  0  0  0  0  0  0  0  0  0
   29.4600   47.2700   -7.0580 N   0  0  0  0  0  0  0  0  0  0  0  0
   29.0510   47.8570   -8.3340 C   0  0  0  0  0  0  0  0  0  0  0  0
   30.2370   47.0840   -4.1670 C   0  0  0  0  0  0  0  0  0  0  0  0
   29.5810   46.0590   -3.2770 C   0  0  0  0  0  0  0  0  0  0  0  0
   29.2140   44.7750   -3.6390 C   0  0  0  0  0  0  0  0  0  0  0  0
   29.2950   46.3850   -1.9540 N   0  0  0  0  0  0  0  0  0  0  0  0
   28.7270   45.3670   -1.3460 C   0  0  0  0  0  0  0  0  0  0  0  0
   28.5000   43.9630   -2.3090 S   0  0  0  0  0  0  0  0  0  0  0  0
   28.2890   45.3730    0.0750 C   0  0  0  0  0  0  0  0  0  0  0  0
  1  2  1  0
  1  3  2  0
  4  1  1  6
  4  5  1  0
  4  6  1  0
  5  7  1  0
  6  8  1  0
  6  9  1  6
  7 10  1  0
  8 10  1  0
  8 11  1  6
  9 12  1  0
 11 12  1  0
 10 13  1  0
 13 14  1  0
 14 15  2  0
 14 16  1  0
 16 17  2  0
 15 18  1  0
 17 18  1  0
 17 19  1  0
M  END
