mac-x0568-mac-x0226
     RDKit          3D

 26 28  0  0  0  0  0  0  0  0999 V2000
   29.5450   55.7030   -5.3990 C   0  0  0  0  0  0  0  0  0  0  0  0
   29.5460   54.2050   -5.3290 C   0  0  0  0  0  0  0  0  0  0  0  0
   29.1800   53.4490   -6.4430 C   0  0  0  0  0  0  0  0  0  0  0  0
   29.9120   53.6410   -4.1530 N   0  0  0  0  0  0  0  0  0  0  0  0
   29.9160   52.2860   -4.0840 C   0  0  0  0  0  0  0  0  0  0  0  0
   29.1920   52.0550   -6.3460 C   0  0  0  0  0  0  0  0  0  0  0  0
   29.5670   51.4640   -5.1420 C   0  0  0  0  0  0  0  0  0  0  0  0
   29.6120   50.0030   -4.9510 C   0  0  0  0  0  0  0  0  0  0  0  0
   29.7970   49.5520   -3.8270 O   0  0  0  0  0  0  0  0  0  0  0  0
   29.4480   49.1420   -6.0180 N   0  0  0  0  0  0  0  0  0  0  0  0
   29.8260   47.7210   -6.0280 C   0  0  0  0  0  0  0  0  0  0  0  0
   31.1470   47.4650   -6.7680 C   0  0  0  0  0  0  0  0  0  0  0  0
   31.7220   46.1860   -6.4170 O   0  0  0  0  0  0  0  0  0  0  0  0
   33.0720   46.2080   -6.2000 C   0  0  0  0  0  0  0  0  0  0  0  0
   33.8650   46.8260   -6.8970 O   0  0  0  0  0  0  0  0  0  0  0  0
   33.4930   45.4300   -5.0510 C   0  0  0  0  0  0  0  0  0  0  0  0
   32.8920   44.2910   -4.4860 C   0  0  0  0  0  0  0  0  0  0  0  0
   34.5960   45.6500   -4.2540 C   0  0  0  0  0  0  0  0  0  0  0  0
   33.5570   43.8310   -3.4220 N   0  0  0  0  0  0  0  0  0  0  0  0
   34.6100   44.6760   -3.2840 N   0  0  0  0  0  0  0  0  0  0  0  0
   35.5710   44.5250   -2.2490 C   0  0  0  0  0  0  0  0  0  0  0  0
   36.4380   45.5780   -1.9310 C   0  0  0  0  0  0  0  0  0  0  0  0
   35.6560   43.3190   -1.5400 C   0  0  0  0  0  0  0  0  0  0  0  0
   37.3790   45.4230   -0.9130 C   0  0  0  0  0  0  0  0  0  0  0  0
   36.6000   43.1730   -0.5230 C   0  0  0  0  0  0  0  0  0  0  0  0
   37.4610   44.2250   -0.2110 C   0  0  0  0  0  0  0  0  0  0  0  0
  1  2  1  0
  2  3  2  0
  2  4  1  0
  4  5  2  0
  3  6  1  0
  5  7  1  0
  6  7  2  0
  7  8  1  0
  8  9  2  0
  8 10  1  0
 10 11  1  0
 11 12  1  0
 12 13  1  0
 13 14  1  0
 14 15  2  0
 14 16  1  0
 16 17  1  0
 16 18  2  0
 17 19  2  0
 18 20  1  0
 19 20  1  0
 20 21  1  0
 21 22  2  0
 21 23  1  0
 22 24  1  0
 23 25  2  0
 24 26  2  0
 25 26  1  0
M  END
