mac-x0510-mac-x0567
     RDKit          3D

 12 13  0  0  0  0  0  0  0  0999 V2000
   28.7480   53.2240   -5.7940 O   0  0  0  0  0  0  0  0  0  0  0  0
   28.8570   52.0010   -5.8720 C   0  0  0  0  0  0  0  0  0  0  0  0
   29.1860   51.2400   -4.7640 N   0  0  0  0  0  0  0  0  0  0  0  0
   28.6550   51.3280   -7.0530 N   0  0  0  0  0  0  0  0  0  0  0  0
   28.8870   49.9880   -7.1280 C   0  0  0  0  0  0  0  0  0  0  0  0
   29.3580   49.8690   -4.7290 C   0  0  0  0  0  0  0  0  0  0  0  0
   29.5950   49.2530   -3.6980 O   0  0  0  0  0  0  0  0  0  0  0  0
   29.2270   49.2800   -6.0120 C   0  0  0  0  0  0  0  0  0  0  0  0
   28.8250   49.2080   -8.2350 N   0  0  0  0  0  0  0  0  0  0  0  0
   29.3820   47.9970   -6.4470 N   0  0  0  0  0  0  0  0  0  0  0  0
   29.1280   48.0060   -7.7980 C   0  0  0  0  0  0  0  0  0  0  0  0
   29.2020   46.8790   -8.5190 N   0  0  0  0  0  0  0  0  0  0  0  0
  1  2  2  0
  2  3  1  0
  2  4  1  0
  4  5  1  0
  3  6  1  0
  6  7  2  0
  5  8  2  0
  6  8  1  0
  5  9  1  0
  8 10  1  0
  9 11  2  0
 10 11  1  0
 11 12  1  0
M  END
