mac-x0568-mac-x0453
     RDKit          3D

 17 18  0  0  0  0  0  0  0  0999 V2000
   29.7160   54.5460   -5.7400 C   0  0  0  0  0  0  0  0  0  0  0  0
   28.2740   54.2700   -6.1860 C   0  0  0  0  0  0  0  0  0  0  0  0
   27.3370   53.7930   -5.0700 C   0  0  0  0  0  0  0  0  0  0  0  0
   30.5040   53.2910   -5.4820 C   0  0  0  0  0  0  0  0  0  0  0  0
   31.1230   53.1730   -4.2830 N   0  0  0  0  0  0  0  0  0  0  0  0
   30.5780   52.2980   -6.4580 C   0  0  0  0  0  0  0  0  0  0  0  0
   31.8280   52.0370   -4.0530 C   0  0  0  0  0  0  0  0  0  0  0  0
   31.3090   51.1390   -6.1970 C   0  0  0  0  0  0  0  0  0  0  0  0
   26.7770   52.4210   -5.2530 C   0  0  0  0  0  0  0  0  0  0  0  0
   31.9510   50.9990   -4.9680 C   0  0  0  0  0  0  0  0  0  0  0  0
   26.9630   51.5430   -6.3020 C   0  0  0  0  0  0  0  0  0  0  0  0
   25.9510   51.8550   -4.3080 N   0  0  0  0  0  0  0  0  0  0  0  0
   32.7500   49.8080   -4.5920 C   0  0  0  0  0  0  0  0  0  0  0  0
   26.2360   50.4310   -5.9790 N   0  0  0  0  0  0  0  0  0  0  0  0
   25.6440   50.6650   -4.7700 C   0  0  0  0  0  0  0  0  0  0  0  0
   33.4480   49.7980   -3.5860 O   0  0  0  0  0  0  0  0  0  0  0  0
   32.6840   48.7110   -5.4060 N   0  0  0  0  0  0  0  0  0  0  0  0
  1  2  1  0
  2  3  1  0
  1  4  1  0
  4  5  2  0
  4  6  1  0
  5  7  1  0
  6  8  2  0
  3  9  1  0
  7 10  2  0
  8 10  1  0
  9 11  2  0
  9 12  1  0
 10 13  1  0
 11 14  1  0
 12 15  2  0
 14 15  1  0
 13 16  2  0
 13 17  1  0
M  END
