mac-x0345-mac-x0284
     RDKit          3D

 19 20  0  0  0  0  0  0  0  0999 V2000
   29.1990   54.4850   -6.2310 C   0  0  0  0  0  0  0  0  0  0  0  0
   29.1180   53.4990   -5.1000 C   0  0  0  0  0  0  0  0  0  0  0  0
   28.4620   53.9510   -3.9970 N   0  0  0  0  0  0  0  0  0  0  0  0
   29.6710   52.2180   -5.1740 C   0  0  0  0  0  0  0  0  0  0  0  0
   30.5800   51.6450   -6.7500 Br  0  0  0  0  0  0  0  0  0  0  0  0
   29.5420   51.3640   -4.0640 C   0  0  0  0  0  0  0  0  0  0  0  0
   28.3410   53.1360   -2.9400 C   0  0  0  0  0  0  0  0  0  0  0  0
   27.6630   53.6260   -1.8210 N   0  0  0  0  0  0  0  0  0  0  0  0
   28.8610   51.8510   -2.9360 C   0  0  0  0  0  0  0  0  0  0  0  0
   30.0790   49.9960   -4.0180 C   0  0  0  0  0  0  0  0  0  0  0  0
   29.4270   48.9440   -4.6860 C   0  0  0  0  0  0  0  0  0  0  0  0
   31.2540   49.7140   -3.3070 C   0  0  0  0  0  0  0  0  0  0  0  0
   29.9350   47.6340   -4.6450 C   0  0  0  0  0  0  0  0  0  0  0  0
   31.7670   48.4140   -3.2600 C   0  0  0  0  0  0  0  0  0  0  0  0
   29.2210   46.5440   -5.3620 C   0  0  0  0  0  0  0  0  0  0  0  0
   31.1090   47.3810   -3.9270 C   0  0  0  0  0  0  0  0  0  0  0  0
   31.6290   46.1210   -3.8650 O   0  0  0  0  0  0  0  0  0  0  0  0
   28.0330   46.2850   -5.3480 O   0  0  0  0  0  0  0  0  0  0  0  0
   30.0700   45.7970   -6.1000 O   0  0  0  0  0  0  0  0  0  0  0  0
  1  2  1  0
  2  3  2  0
  2  4  1  0
  4  5  1  0
  4  6  2  0
  3  7  1  0
  7  8  1  0
  6  9  1  0
  7  9  2  0
  6 10  1  0
 10 11  2  0
 10 12  1  0
 11 13  1  0
 12 14  2  0
 13 15  1  0
 13 16  2  0
 14 16  1  0
 16 17  1  0
 15 18  2  0
 15 19  1  0
M  END
