mac-x0123-mac-x0398
     RDKit          3D

 18 20  0  0  0  0  0  0  0  0999 V2000
   27.7640   52.0030   -7.3930 N   0  0  0  0  0  0  0  0  0  0  0  0
   28.8300   52.0750   -6.3910 C   0  0  1  0  0  0  0  0  0  0  0  0
   29.0650   53.4470   -5.6810 C   0  0  1  0  0  0  0  0  0  0  0  0
   28.5410   51.0250   -5.4080 N   0  0  0  0  0  0  0  0  0  0  0  0
   27.8420   53.9440   -4.9940 N   0  0  0  0  0  0  0  0  0  0  0  0
   28.9990   51.1890   -4.0190 C   0  0  2  0  0  0  0  0  0  0  0  0
   30.2230   53.2090   -4.7030 C   0  0  2  0  0  0  0  0  0  0  0  0
   29.6340   54.5920   -6.4710 C   0  0  0  0  0  0  0  0  0  0  0  0
   29.0620   49.7040   -5.8440 N   0  0  0  0  0  0  0  0  0  0  0  0
   27.8560   51.4040   -3.2290 O   0  0  0  0  0  0  0  0  0  0  0  0
   29.9570   52.2020   -3.6740 N   0  0  0  0  0  0  0  0  0  0  0  0
   30.5530   54.6650   -4.3130 C   0  0  0  0  0  0  0  0  0  0  0  0
   30.4750   55.2940   -5.6830 C   0  0  0  0  0  0  0  0  0  0  0  0
   29.5810   49.9290   -3.6240 N   0  0  0  0  0  0  0  0  0  0  0  0
   29.0970   48.9670   -4.5910 C   0  0  0  0  0  0  0  0  0  0  0  0
   31.0690   51.8230   -2.9220 C   0  0  0  0  0  0  0  0  0  0  0  0
   31.4620   52.4220   -1.9290 O   0  0  0  0  0  0  0  0  0  0  0  0
   31.7230   50.7130   -3.3390 O   0  0  0  0  0  0  0  0  0  0  0  0
  2  1  1  6
  2  3  1  0
  2  4  1  0
  3  5  1  1
  4  6  1  0
  3  7  1  0
  3  8  1  0
  4  9  1  0
  6 10  1  1
  6 11  1  0
  7 11  1  0
  7 12  1  1
  8 13  2  0
 12 13  1  0
  6 14  1  0
  9 15  1  0
 14 15  1  0
 11 16  1  0
 16 17  2  0
 16 18  1  0
M  END
