mac-x0373-mac-x0572
     RDKit          3D

 24 26  0  0  0  0  0  0  0  0999 V2000
   30.7980   46.1160   -6.6280 O   0  0  0  0  0  0  0  0  0  0  0  0
   30.2330   46.7490   -5.5730 C   0  0  0  0  0  0  0  0  0  0  0  0
   29.2130   46.2950   -5.0940 O   0  0  0  0  0  0  0  0  0  0  0  0
   31.0650   47.9700   -5.2120 C   0  0  2  0  0  0  0  0  0  0  0  0
   32.3430   47.8020   -4.4240 C   0  0  0  0  0  0  0  0  0  0  0  0
   30.3810   49.3580   -5.0130 C   0  0  2  0  0  0  0  0  0  0  0  0
   32.6630   46.6450   -3.6940 C   0  0  0  0  0  0  0  0  0  0  0  0
   33.2530   48.8600   -4.4360 C   0  0  0  0  0  0  0  0  0  0  0  0
   29.1960   49.5900   -4.0920 C   0  0  0  0  0  0  0  0  0  0  0  0
   30.2260   50.1240   -6.2930 C   0  0  0  0  0  0  0  0  0  0  0  0
   33.8760   46.5720   -3.0030 C   0  0  0  0  0  0  0  0  0  0  0  0
   34.4540   48.7860   -3.7510 C   0  0  0  0  0  0  0  0  0  0  0  0
   28.4890   50.7560   -4.1600 C   0  0  0  0  0  0  0  0  0  0  0  0
   29.5410   51.2630   -6.3580 C   0  0  0  0  0  0  0  0  0  0  0  0
   34.7700   47.6420   -3.0330 C   0  0  0  0  0  0  0  0  0  0  0  0
   28.8310   51.8750   -5.1650 C   0  0  2  0  0  0  0  0  0  0  0  0
   29.6070   53.0580   -4.4810 C   0  0  0  0  0  0  0  0  0  0  0  0
   27.6080   52.5340   -5.8310 C   0  0  0  0  0  0  0  0  0  0  0  0
   30.4680   52.9400   -3.6020 O   0  0  0  0  0  0  0  0  0  0  0  0
   29.2300   54.4850   -4.9320 C   0  0  1  0  0  0  0  0  0  0  0  0
   27.9710   53.5150   -6.8770 N   0  0  0  0  0  0  0  0  0  0  0  0
   30.2170   55.4510   -4.5590 O   0  0  0  0  0  0  0  0  0  0  0  0
   28.9990   54.4780   -6.4510 C   0  0  1  0  0  0  0  0  0  0  0  0
   28.6750   55.8820   -6.9870 C   0  0  0  0  0  0  0  0  0  0  0  0
  1  2  1  0
  2  3  2  0
  4  2  1  1
  4  5  1  0
  4  6  1  0
  5  7  2  0
  5  8  1  0
  6  9  1  6
  6 10  1  0
  7 11  1  0
  8 12  2  0
  9 13  2  0
 10 14  2  0
 11 15  2  0
 12 15  1  0
 16 13  1  1
 14 16  1  0
 16 17  1  0
 16 18  1  0
 17 19  2  0
 17 20  1  0
 18 21  1  0
 20 22  1  6
 20 23  1  0
 21 23  1  0
 23 24  1  1
M  END
