mac-x0131-mac-x0271
     RDKit          3D

 29 33  0  0  0  0  0  0  0  0999 V2000
   30.3410   49.8880   -3.3500 C   0  0  0  0  0  0  0  0  0  0  0  0
   29.7340   49.0560   -4.4360 C   0  0  0  0  0  0  0  0  0  0  0  0
   28.8950   49.5110   -5.4480 C   0  0  0  0  0  0  0  0  0  0  0  0
   30.3780   51.3060   -3.8580 C   0  0  0  0  0  0  0  0  0  0  0  0
   29.9090   47.6940   -4.6190 N   0  0  0  0  0  0  0  0  0  0  0  0
   29.7910   52.3780   -3.1760 C   0  0  0  0  0  0  0  0  0  0  0  0
   31.0230   51.5530   -5.0820 C   0  0  0  0  0  0  0  0  0  0  0  0
   28.4210   50.9060   -5.6630 C   0  0  0  0  0  0  0  0  0  0  0  0
   30.7070   46.7840   -3.8000 C   0  0  0  0  0  0  0  0  0  0  0  0
   28.5600   48.3980   -6.2660 C   0  0  0  0  0  0  0  0  0  0  0  0
   29.1980   47.2910   -5.7300 C   0  0  0  0  0  0  0  0  0  0  0  0
   29.8570   53.6550   -3.7290 C   0  0  0  0  0  0  0  0  0  0  0  0
   31.0800   52.8370   -5.6220 C   0  0  0  0  0  0  0  0  0  0  0  0
   27.7830   48.1910   -7.4140 C   0  0  0  0  0  0  0  0  0  0  0  0
   29.1360   46.0360   -6.2090 N   0  0  0  0  0  0  0  0  0  0  0  0
   32.0740   46.6260   -4.3550 C   0  0  0  0  0  0  0  0  0  0  0  0
   30.4930   53.8980   -4.9440 C   0  0  0  0  0  0  0  0  0  0  0  0
   29.2520   54.7060   -3.0140 O   0  0  0  0  0  0  0  0  0  0  0  0
   27.0840   49.1930   -8.0740 N   0  0  0  0  0  0  0  0  0  0  0  0
   27.6950   46.9510   -7.9270 N   0  0  0  0  0  0  0  0  0  0  0  0
   28.3640   45.9620   -7.3070 C   0  0  0  0  0  0  0  0  0  0  0  0
   32.6460   45.7300   -5.2340 C   0  0  0  0  0  0  0  0  0  0  0  0
   33.0120   47.5310   -3.9410 O   0  0  0  0  0  0  0  0  0  0  0  0
   30.5220   55.2510   -5.4710 C   0  0  0  0  0  0  0  0  0  0  0  0
   29.0810   55.9510   -3.6040 C   0  0  0  0  0  0  0  0  0  0  0  0
   28.3310   56.8040   -3.1430 O   0  0  0  0  0  0  0  0  0  0  0  0
   34.1750   47.2080   -4.5600 C   0  0  0  0  0  0  0  0  0  0  0  0
   34.0040   46.1070   -5.3660 C   0  0  0  0  0  0  0  0  0  0  0  0
   29.8520   56.2130   -4.8300 C   0  0  0  0  0  0  0  0  0  0  0  0
  1  2  1  0
  2  3  2  0
  1  4  1  0
  2  5  1  0
  4  6  2  0
  4  7  1  0
  3  8  1  0
  5  9  1  0
  3 10  1  0
  5 11  1  0
 10 11  2  0
  6 12  1  0
  7 13  2  0
 10 14  1  0
 11 15  1  0
  9 16  1  0
 12 17  2  0
 13 17  1  0
 12 18  1  0
 14 19  1  0
 14 20  2  0
 15 21  2  0
 20 21  1  0
 16 22  2  0
 16 23  1  0
 17 24  1  0
 18 25  1  0
 25 26  2  0
 23 27  1  0
 22 28  1  0
 27 28  2  0
 24 29  2  0
 25 29  1  0
M  END
