mac-x0228-mac-x0163
     RDKit          3D

 28 32  0  0  0  0  0  0  0  0999 V2000
   30.3510   48.1020   -1.8600 O   0  0  0  0  0  0  0  0  0  0  0  0
   29.9000   48.4840   -3.1630 C   0  0  1  0  0  0  0  0  0  0  0  0
   29.7800   49.9170   -3.0810 C   0  0  0  0  0  0  0  0  0  0  0  0
   31.2580   47.8700   -4.4170 S   0  0  0  0  0  0  0  0  0  0  0  0
   29.5330   50.5870   -4.2670 C   0  0  0  0  0  0  0  0  0  0  0  0
   29.8890   50.6730   -1.9370 C   0  0  0  0  0  0  0  0  0  0  0  0
   32.7160   49.2040   -4.3980 C   0  0  0  0  0  0  0  0  0  0  0  0
   32.8770   47.7180   -3.6420 C   0  0  0  0  0  0  0  0  0  0  0  0
   31.0250   47.0070   -6.1430 N   0  0  0  0  0  0  0  0  0  0  0  0
   30.8410   46.3570   -4.6380 C   0  0  0  0  0  0  0  0  0  0  0  0
   29.3970   51.9660   -4.3130 C   0  0  0  0  0  0  0  0  0  0  0  0
   29.7570   52.0330   -1.9750 C   0  0  0  0  0  0  0  0  0  0  0  0
   30.1750   47.6150   -6.9980 C   0  0  0  0  0  0  0  0  0  0  0  0
   32.0280   45.9790   -6.6030 C   0  0  0  0  0  0  0  0  0  0  0  0
   31.2370   44.9920   -4.6680 C   0  0  0  0  0  0  0  0  0  0  0  0
   33.5940   48.0300   -4.8400 C   0  0  0  0  0  0  0  0  0  0  0  0
   29.5130   52.6880   -3.1450 C   0  0  0  0  0  0  0  0  0  0  0  0
   29.1380   52.9460   -5.3890 C   0  0  0  0  0  0  0  0  0  0  0  0
   30.3190   48.7430   -7.5950 C   0  0  0  0  0  0  0  0  0  0  0  0
   29.0130   46.9320   -7.2580 N   0  0  0  0  0  0  0  0  0  0  0  0
   32.5410   45.2670   -5.3520 C   0  0  0  0  0  0  0  0  0  0  0  0
   29.3400   54.0590   -3.4260 O   0  0  0  0  0  0  0  0  0  0  0  0
   29.5920   54.2690   -4.8070 C   0  0  0  0  0  0  0  0  0  0  0  0
   31.7050   49.7150   -7.3860 Cl  0  0  0  0  0  0  0  0  0  0  0  0
   29.3290   49.2400   -8.4620 C   0  0  0  0  0  0  0  0  0  0  0  0
   28.0500   47.3580   -8.0680 C   0  0  0  0  0  0  0  0  0  0  0  0
   29.4970   50.4750   -9.1070 N   0  0  0  0  0  0  0  0  0  0  0  0
   28.2010   48.5320   -8.6860 N   0  0  0  0  0  0  0  0  0  0  0  0
  2  1  1  1
  2  3  1  0
  2  4  1  0
  3  5  2  0
  3  6  1  0
  4  7  1  0
  4  8  1  0
  4  9  1  0
  4 10  1  0
  5 11  1  0
  6 12  2  0
  9 13  1  0
  9 14  1  0
 10 15  1  0
  7 16  1  0
  8 16  1  0
 11 17  2  0
 12 17  1  0
 11 18  1  0
 13 19  2  0
 13 20  1  0
 14 21  1  0
 15 21  1  0
 17 22  1  0
 18 23  1  0
 22 23  1  0
 19 24  1  0
 19 25  1  0
 20 26  2  0
 25 27  1  0
 25 28  2  0
 26 28  1  0
M  END
