mac-x0223-mac-x0161
     RDKit          3D

 31 34  0  0  0  0  0  0  0  0999 V2000
   27.0430   43.3630   -1.9880 C   0  0  0  0  0  0  0  0  0  0  0  0
   27.4930   44.6900   -1.7530 O   0  0  0  0  0  0  0  0  0  0  0  0
   28.6150   45.0990   -2.4360 C   0  0  0  0  0  0  0  0  0  0  0  0
   28.8320   46.4870   -2.4300 C   0  0  0  0  0  0  0  0  0  0  0  0
   29.5130   44.2630   -3.1020 C   0  0  0  0  0  0  0  0  0  0  0  0
   27.9290   47.2710   -1.7610 O   0  0  0  0  0  0  0  0  0  0  0  0
   29.9330   47.0680   -3.0800 C   0  0  0  0  0  0  0  0  0  0  0  0
   30.6280   44.8020   -3.7650 C   0  0  0  0  0  0  0  0  0  0  0  0
   31.6040   43.8810   -4.4820 C   0  0  0  0  0  0  0  0  0  0  0  0
   30.2170   48.5880   -3.0960 C   0  0  2  0  0  0  0  0  0  0  0  0
   30.8250   46.1970   -3.7460 C   0  0  0  0  0  0  0  0  0  0  0  0
   31.5420   43.8830   -5.9940 C   0  0  0  0  0  0  0  0  0  0  0  0
   29.2910   49.4630   -3.8850 N   0  0  0  0  0  0  0  0  0  0  0  0
   31.6990   48.8080   -3.3060 C   0  0  0  0  0  0  0  0  0  0  0  0
   32.3320   44.3850   -6.7770 O   0  0  0  0  0  0  0  0  0  0  0  0
   30.4610   43.2240   -6.4630 O   0  0  0  0  0  0  0  0  0  0  0  0
   29.4150   50.8960   -3.5670 C   0  0  0  0  0  0  0  0  0  0  0  0
   29.2890   49.2740   -5.3270 C   0  0  2  0  0  0  0  0  0  0  0  0
   32.8120   48.0880   -2.9310 C   0  0  0  0  0  0  0  0  0  0  0  0
   32.1100   49.9180   -3.9940 O   0  0  0  0  0  0  0  0  0  0  0  0
   28.4670   51.7790   -4.2800 N   0  0  0  0  0  0  0  0  0  0  0  0
   28.2520   50.1000   -6.0410 C   0  0  1  0  0  0  0  0  0  0  0  0
   28.8580   47.9680   -5.8030 N   0  0  0  0  0  0  0  0  0  0  0  0
   33.5000   49.9330   -4.0720 N   0  0  0  0  0  0  0  0  0  0  0  0
   33.8890   48.8300   -3.4300 C   0  0  0  0  0  0  0  0  0  0  0  0
   35.1940   48.5020   -3.2980 O   0  0  0  0  0  0  0  0  0  0  0  0
   28.5640   51.5750   -5.7110 C   0  0  1  0  0  0  0  0  0  0  0  0
   28.4580   49.6440   -7.4280 N   0  0  0  0  0  0  0  0  0  0  0  0
   28.6770   48.2020   -7.2380 C   0  0  0  0  0  0  0  0  0  0  0  0
   27.6200   52.5090   -6.2930 N   0  0  0  0  0  0  0  0  0  0  0  0
   35.5150   47.8820   -2.0560 C   0  0  0  0  0  0  0  0  0  0  0  0
  1  2  1  0
  2  3  1  0
  3  4  2  0
  3  5  1  0
  4  6  1  0
  4  7  1  0
  5  8  2  0
  8  9  1  0
 10  7  1  6
  7 11  2  0
  8 11  1  0
  9 12  1  0
 10 13  1  0
 10 14  1  0
 12 15  2  0
 12 16  1  0
 13 17  1  0
 13 18  1  0
 14 19  2  0
 14 20  1  0
 17 21  1  0
 18 22  1  0
 18 23  1  1
 20 24  1  0
 19 25  1  0
 24 25  2  0
 25 26  1  0
 21 27  1  0
 22 27  1  0
 22 28  1  6
 23 29  1  0
 28 29  1  0
 27 30  1  6
 26 31  1  0
M  END
