mac-x0379-mac-x0472
     RDKit          3D

 23 25  0  0  0  0  0  0  0  0999 V2000
   25.2920   49.5450   -3.7530 C   0  0  0  0  0  0  0  0  0  0  0  0
   26.7010   49.1290   -3.5010 C   0  0  0  0  0  0  0  0  0  0  0  0
   27.4060   49.3100   -2.4040 N   0  0  0  0  0  0  0  0  0  0  0  0
   27.8040   48.3180   -4.5110 S   0  0  0  0  0  0  0  0  0  0  0  0
   28.6370   48.8860   -2.3370 C   0  0  0  0  0  0  0  0  0  0  0  0
   29.1660   48.2550   -3.4320 C   0  0  0  0  0  0  0  0  0  0  0  0
   30.4860   47.6750   -3.6740 C   0  0  0  0  0  0  0  0  0  0  0  0
   30.8260   48.7780   -4.0730 N   0  0  0  0  0  0  0  0  0  0  0  0
   29.6620   46.6460   -3.1500 O   0  0  0  0  0  0  0  0  0  0  0  0
   31.2040   50.1010   -4.5430 S   0  0  0  0  0  0  0  0  0  0  0  0
   31.7340   50.5080   -3.2530 O   0  0  0  0  0  0  0  0  0  0  0  0
   30.8230   49.9000   -6.0650 N   0  0  0  0  0  0  0  0  0  0  0  0
   32.8980   50.5370   -5.1220 C   0  0  0  0  0  0  0  0  0  0  0  0
   30.3590   50.8220   -7.0810 C   0  0  0  0  0  0  0  0  0  0  0  0
   33.6880   49.4930   -5.3910 C   0  0  0  0  0  0  0  0  0  0  0  0
   33.2650   51.8190   -5.2480 C   0  0  0  0  0  0  0  0  0  0  0  0
   30.0300   50.5560   -8.3400 N   0  0  0  0  0  0  0  0  0  0  0  0
   30.0810   52.5070   -7.0290 S   0  0  0  0  0  0  0  0  0  0  0  0
   34.9790   49.7200   -5.8290 C   0  0  0  0  0  0  0  0  0  0  0  0
   34.5560   52.0840   -5.6860 C   0  0  0  0  0  0  0  0  0  0  0  0
   29.5580   52.7280   -8.6520 C   0  0  0  0  0  0  0  0  0  0  0  0
   29.6410   51.4800   -9.1040 N   0  0  0  0  0  0  0  0  0  0  0  0
   35.4210   51.0380   -5.9790 C   0  0  0  0  0  0  0  0  0  0  0  0
  1  2  1  0
  2  3  2  0
  2  4  1  0
  3  5  1  0
  4  6  1  0
  5  6  2  0
  6  7  1  0
  7  8  2  3
  7  9  1  0
  8 10  1  0
 10 11  2  0
 10 12  1  0
 10 13  1  0
 12 14  1  0
 13 15  2  0
 13 16  1  0
 14 17  2  0
 14 18  1  0
 15 19  1  0
 16 20  2  0
 18 21  1  0
 17 22  1  0
 21 22  2  0
 19 23  2  0
 20 23  1  0
M  END
