mac-x0394-mac-x0137
     RDKit          3D

 27 30  0  0  0  0  0  0  0  0999 V2000
   23.2440   50.7620   -3.4680 Cl  0  0  0  0  0  0  0  0  0  0  0  0
   24.6150   51.7550   -3.7700 C   0  0  0  0  0  0  0  0  0  0  0  0
   24.7780   53.0000   -3.1820 C   0  0  0  0  0  0  0  0  0  0  0  0
   25.5690   51.2900   -4.6210 C   0  0  0  0  0  0  0  0  0  0  0  0
   26.6980   52.0340   -4.9100 C   0  0  0  0  0  0  0  0  0  0  0  0
   25.9210   53.7550   -3.4750 C   0  0  0  0  0  0  0  0  0  0  0  0
   26.1090   55.2920   -2.7360 Cl  0  0  0  0  0  0  0  0  0  0  0  0
   26.9080   53.2830   -4.3510 C   0  0  0  0  0  0  0  0  0  0  0  0
   27.4930   51.2880   -5.8030 C   0  0  0  0  0  0  0  0  0  0  0  0
   27.8000   51.4830   -7.1420 N   0  0  0  0  0  0  0  0  0  0  0  0
   28.0660   50.1470   -5.3620 C   0  0  0  0  0  0  0  0  0  0  0  0
   28.5290   50.3610   -7.5170 C   0  0  0  0  0  0  0  0  0  0  0  0
   28.7160   49.5430   -6.4130 C   0  0  0  0  0  0  0  0  0  0  0  0
   27.4470   52.5640   -7.9690 C   0  0  0  0  0  0  0  0  0  0  0  0
   28.9820   50.1040   -8.7510 N   0  0  0  0  0  0  0  0  0  0  0  0
   29.4490   48.3680   -6.5430 C   0  0  0  0  0  0  0  0  0  0  0  0
   28.3990   53.5410   -7.9580 O   0  0  0  0  0  0  0  0  0  0  0  0
   26.4200   52.6070   -8.6080 O   0  0  0  0  0  0  0  0  0  0  0  0
   29.7130   47.5070   -5.4650 N   0  0  0  0  0  0  0  0  0  0  0  0
   29.9040   48.0850   -7.7790 N   0  0  0  0  0  0  0  0  0  0  0  0
   29.6490   48.9380   -8.7880 C   0  0  0  0  0  0  0  0  0  0  0  0
   29.7660   48.1190   -4.1110 C   0  0  0  0  0  0  0  0  0  0  0  0
   30.7560   46.5130   -5.7300 C   0  0  0  0  0  0  0  0  0  0  0  0
   31.1940   48.5020   -3.6380 C   0  0  2  0  0  0  0  0  0  0  0  0
   32.1450   47.1200   -5.5170 C   0  0  0  0  0  0  0  0  0  0  0  0
   31.5040   49.7580   -4.0680 F   0  0  0  0  0  0  0  0  0  0  0  0
   32.3220   47.5680   -4.0780 C   0  0  0  0  0  0  0  0  0  0  0  0
  1  2  1  0
  2  3  2  0
  2  4  1  0
  4  5  2  0
  3  6  1  0
  6  7  1  0
  5  8  1  0
  6  8  2  0
  5  9  1  0
  9 10  1  0
  9 11  2  0
 10 12  1  0
 11 13  1  0
 12 13  2  0
 10 14  1  0
 12 15  1  0
 13 16  1  0
 14 17  1  0
 14 18  2  0
 16 19  1  0
 16 20  2  0
 15 21  2  0
 20 21  1  0
 19 22  1  0
 19 23  1  0
 22 24  1  0
 23 25  1  0
 24 26  1  6
 24 27  1  0
 25 27  1  0
M  END
