mac-x0277-mac-x0139
     RDKit          3D

 25 27  0  0  0  0  0  0  0  0999 V2000
   27.6090   46.4650   -0.9600 Cl  0  0  0  0  0  0  0  0  0  0  0  0
   28.9530   45.9450   -1.9680 C   0  0  0  0  0  0  0  0  0  0  0  0
   30.1650   46.6090   -1.9500 C   0  0  0  0  0  0  0  0  0  0  0  0
   28.8160   44.8650   -2.7930 C   0  0  0  0  0  0  0  0  0  0  0  0
   30.2900   47.9950   -0.8730 Cl  0  0  0  0  0  0  0  0  0  0  0  0
   31.2290   46.2030   -2.7420 C   0  0  0  0  0  0  0  0  0  0  0  0
   29.8790   44.4670   -3.5840 C   0  0  0  0  0  0  0  0  0  0  0  0
   31.0970   45.1120   -3.5840 C   0  0  0  0  0  0  0  0  0  0  0  0
   32.2380   44.6500   -4.4730 C   0  0  0  0  0  0  0  0  0  0  0  0
   32.3230   45.4670   -5.9250 S   0  0  0  0  0  0  0  0  0  0  0  0
   33.4630   46.5490   -5.2820 O   0  0  0  0  0  0  0  0  0  0  0  0
   31.6050   46.6340   -6.3740 O   0  0  0  0  0  0  0  0  0  0  0  0
   31.8290   44.5730   -6.7840 O   0  0  0  0  0  0  0  0  0  0  0  0
   33.9560   45.0640   -6.8080 O   0  0  0  0  0  0  0  0  0  0  0  0
   30.3990   47.0270   -6.0140 N   0  0  0  0  0  0  0  0  0  0  0  0
   30.2120   47.4950   -4.6430 C   0  0  0  0  0  0  0  0  0  0  0  0
   29.5830   47.6160   -6.9980 C   0  0  0  0  0  0  0  0  0  0  0  0
   29.3340   48.9630   -6.9440 C   0  0  0  0  0  0  0  0  0  0  0  0
   29.0520   46.9270   -8.0070 N   0  0  0  0  0  0  0  0  0  0  0  0
   28.5230   49.5250   -8.0030 C   0  0  0  0  0  0  0  0  0  0  0  0
   28.3200   47.4460   -8.9720 C   0  0  0  0  0  0  0  0  0  0  0  0
   29.6700   49.9870   -6.1130 C   0  0  0  0  0  0  0  0  0  0  0  0
   28.0440   48.7520   -9.0000 N   0  0  0  0  0  0  0  0  0  0  0  0
   28.4150   50.8380   -7.7480 N   0  0  0  0  0  0  0  0  0  0  0  0
   29.0890   51.1500   -6.6210 C   0  0  0  0  0  0  0  0  0  0  0  0
  1  2  1  0
  2  3  2  0
  2  4  1  0
  3  5  1  0
  3  6  1  0
  4  7  2  0
  6  8  2  0
  7  8  1  0
  8  9  1  0
  9 10  1  0
 10 11  1  0
 10 12  1  0
 10 13  2  0
 10 14  1  0
 12 15  1  0
 15 16  1  0
 15 17  1  0
 17 18  2  0
 17 19  1  0
 18 20  1  0
 19 21  2  0
 18 22  1  0
 20 23  1  0
 21 23  1  0
 20 24  2  0
 22 25  2  0
 24 25  1  0
M  END
