mac-x0139-mac-x0182
     RDKit          3D

 29 32  0  0  0  0  0  0  0  0999 V2000
   28.9990   46.9150   -4.6140 C   0  0  0  0  0  0  0  0  0  0  0  0
   29.3990   46.6510   -6.0030 N   0  0  0  0  0  0  0  0  0  0  0  0
   30.8270   46.2830   -6.1500 C   0  0  0  0  0  0  0  0  0  0  0  0
   28.8380   47.4840   -6.9960 C   0  0  0  0  0  0  0  0  0  0  0  0
   30.9810   44.8730   -6.7060 C   0  0  0  0  0  0  0  0  0  0  0  0
   29.0010   48.8260   -6.9130 C   0  0  0  0  0  0  0  0  0  0  0  0
   28.1210   46.9040   -8.0510 N   0  0  0  0  0  0  0  0  0  0  0  0
   32.2690   44.7550   -7.4790 C   0  0  0  0  0  0  0  0  0  0  0  0
   28.4060   49.6760   -7.9680 C   0  0  0  0  0  0  0  0  0  0  0  0
   27.6200   47.6950   -8.9520 C   0  0  0  0  0  0  0  0  0  0  0  0
   29.6310   49.7600   -6.0390 C   0  0  0  0  0  0  0  0  0  0  0  0
   32.3370   44.6980   -8.7000 O   0  0  0  0  0  0  0  0  0  0  0  0
   33.3360   44.7170   -6.6390 O   0  0  0  0  0  0  0  0  0  0  0  0
   27.7300   49.0530   -8.9650 N   0  0  0  0  0  0  0  0  0  0  0  0
   28.6380   50.9430   -7.7610 N   0  0  0  0  0  0  0  0  0  0  0  0
   29.3810   50.9640   -6.5850 C   0  0  0  0  0  0  0  0  0  0  0  0
   33.9610   45.9850   -6.4710 C   0  0  0  0  0  0  0  0  0  0  0  0
   35.0570   45.9900   -5.4950 N   0  0  0  0  0  0  0  0  0  0  0  0
   34.7550   46.5170   -4.1000 S   0  0  1  0  0  0  0  0  0  0  0  0
   33.9170   47.6240   -3.7110 O   0  0  0  0  0  0  0  0  0  0  0  0
   34.1200   45.1880   -3.3020 N   0  0  0  0  0  0  0  0  0  0  0  0
   36.2160   46.5510   -3.1640 C   0  0  0  0  0  0  0  0  0  0  0  0
   35.0430   44.5730   -2.5010 C   0  0  0  0  0  0  0  0  0  0  0  0
   36.2390   45.4340   -2.3380 C   0  0  0  0  0  0  0  0  0  0  0  0
   37.2210   47.4970   -3.1880 C   0  0  0  0  0  0  0  0  0  0  0  0
   34.9270   43.4770   -1.9810 O   0  0  0  0  0  0  0  0  0  0  0  0
   38.3010   47.2890   -2.3240 C   0  0  0  0  0  0  0  0  0  0  0  0
   37.3050   45.2210   -1.4800 C   0  0  0  0  0  0  0  0  0  0  0  0
   38.3430   46.1630   -1.4790 C   0  0  0  0  0  0  0  0  0  0  0  0
  1  2  1  0
  2  3  1  0
  2  4  1  0
  3  5  1  0
  4  6  2  0
  4  7  1  0
  5  8  1  0
  6  9  1  0
  7 10  2  0
  6 11  1  0
  8 12  2  0
  8 13  1  0
  9 14  1  0
 10 14  1  0
  9 15  2  0
 11 16  2  0
 15 16  1  0
 13 17  1  0
 17 18  1  0
 18 19  2  0
 19 20  2  0
 19 21  1  1
 19 22  1  0
 21 23  1  0
 22 24  2  0
 23 24  1  0
 22 25  1  0
 23 26  2  0
 25 27  2  0
 24 28  1  0
 27 29  1  0
 28 29  2  0
M  END
