mac-x0361-mac-x0131
     RDKit          3D

 22 24  0  0  0  0  0  0  0  0999 V2000
   28.5250   53.7780   -5.3270 N   0  0  0  0  0  0  0  0  0  0  0  0
   29.4410   53.2970   -4.4360 C   0  0  0  0  0  0  0  0  0  0  0  0
   29.7440   53.9650   -3.4540 O   0  0  0  0  0  0  0  0  0  0  0  0
   30.0260   51.9180   -4.7570 C   0  0  2  0  0  0  0  0  0  0  0  0
   28.9270   50.9260   -5.2020 C   0  0  0  0  0  0  0  0  0  0  0  0
   30.8540   51.4130   -3.5780 C   0  0  0  0  0  0  0  0  0  0  0  0
   29.3800   49.4770   -5.5970 C   0  0  2  0  0  0  0  0  0  0  0  0
   30.8140   49.8870   -3.4210 C   0  0  1  0  0  0  0  0  0  0  0  0
   29.8030   49.5050   -2.3320 C   0  0  0  0  0  0  0  0  0  0  0  0
   30.6710   49.1230   -4.7700 C   0  0  1  0  0  0  0  0  0  0  0  0
   29.6910   49.3910   -7.1480 C   0  0  2  0  0  0  0  0  0  0  0  0
   28.2420   48.4540   -5.3000 C   0  0  0  0  0  0  0  0  0  0  0  0
   30.7790   47.7110   -4.5650 O   0  0  0  0  0  0  0  0  0  0  0  0
   30.0670   50.6270   -7.8240 N   0  0  0  0  0  0  0  0  0  0  0  0
   28.5540   48.9060   -7.8830 N   0  0  0  0  0  0  0  0  0  0  0  0
   28.3450   47.2560   -6.1360 N   0  0  0  0  0  0  0  0  0  0  0  0
   28.0630   47.5930   -7.5230 C   0  0  0  0  0  0  0  0  0  0  0  0
   31.9960   47.1700   -4.5940 C   0  0  0  0  0  0  0  0  0  0  0  0
   32.5880   46.0510   -5.1430 C   0  0  0  0  0  0  0  0  0  0  0  0
   32.9240   47.8930   -3.9090 O   0  0  0  0  0  0  0  0  0  0  0  0
   34.1060   47.2370   -4.0190 C   0  0  0  0  0  0  0  0  0  0  0  0
   33.9540   46.0960   -4.7700 C   0  0  0  0  0  0  0  0  0  0  0  0
  1  2  1  0
  2  3  2  0
  4  2  1  1
  4  5  1  0
  4  6  1  0
  7  5  1  6
  6  8  1  0
  8  9  1  1
  7 10  1  0
  8 10  1  0
  7 11  1  0
  7 12  1  0
 10 13  1  1
 11 14  1  6
 11 15  1  0
 12 16  1  0
 15 17  1  0
 16 17  1  0
 13 18  1  0
 18 19  2  0
 18 20  1  0
 20 21  1  0
 19 22  1  0
 21 22  2  0
M  END
