mac-x0555-mac-x0161
     RDKit          3D

 24 27  0  0  0  0  0  0  0  0999 V2000
   29.0520   55.5320   -6.3270 N   0  0  0  0  0  0  0  0  0  0  0  0
   29.4190   54.3300   -5.7050 C   0  0  0  0  0  0  0  0  0  0  0  0
   30.2060   54.3000   -4.5590 C   0  0  0  0  0  0  0  0  0  0  0  0
   28.9990   53.1020   -6.2170 C   0  0  0  0  0  0  0  0  0  0  0  0
   29.3650   51.8970   -5.5950 C   0  0  0  0  0  0  0  0  0  0  0  0
   30.5860   53.1700   -3.9200 N   0  0  0  0  0  0  0  0  0  0  0  0
   30.1610   51.9970   -4.4490 C   0  0  0  0  0  0  0  0  0  0  0  0
   28.9640   50.5030   -6.0720 C   0  0  1  0  0  0  0  0  0  0  0  0
   30.5790   50.7280   -3.7520 C   0  0  0  0  0  0  0  0  0  0  0  0
   28.5290   49.6030   -4.8280 C   0  0  2  0  0  0  0  0  0  0  0  0
   27.8560   50.5890   -7.0700 N   0  0  0  0  0  0  0  0  0  0  0  0
   30.0130   49.7380   -6.9180 C   0  0  0  0  0  0  0  0  0  0  0  0
   27.0830   49.7850   -4.5140 N   0  0  0  0  0  0  0  0  0  0  0  0
   29.3500   49.8330   -3.5120 C   0  0  1  0  0  0  0  0  0  0  0  0
   29.2700   48.9570   -7.9230 N   0  0  0  0  0  0  0  0  0  0  0  0
   27.8740   49.3180   -7.7660 C   0  0  0  0  0  0  0  0  0  0  0  0
   29.7110   48.4540   -2.8890 C   0  0  0  0  0  0  0  0  0  0  0  0
   31.1030   48.0170   -3.1610 C   0  0  0  0  0  0  0  0  0  0  0  0
   32.3410   48.5760   -2.9550 C   0  0  0  0  0  0  0  0  0  0  0  0
   31.2570   46.7910   -3.7450 O   0  0  0  0  0  0  0  0  0  0  0  0
   32.6080   46.5330   -3.9280 N   0  0  0  0  0  0  0  0  0  0  0  0
   33.2330   47.6150   -3.4480 C   0  0  0  0  0  0  0  0  0  0  0  0
   34.5790   47.7250   -3.4590 O   0  0  0  0  0  0  0  0  0  0  0  0
   35.1530   47.9910   -2.1850 C   0  0  0  0  0  0  0  0  0  0  0  0
  1  2  1  0
  2  3  2  0
  2  4  1  0
  4  5  2  0
  3  6  1  0
  5  7  1  0
  6  7  2  0
  5  8  1  0
  7  9  1  0
  8 10  1  0
  8 11  1  0
  8 12  1  6
 10 13  1  1
  9 14  1  0
 10 14  1  0
 12 15  1  0
 11 16  1  0
 15 16  1  0
 14 17  1  6
 17 18  1  0
 18 19  2  0
 18 20  1  0
 20 21  1  0
 19 22  1  0
 21 22  2  0
 22 23  1  0
 23 24  1  0
M  END
