mac-x0346-mac-x0360
     RDKit          3D

 22 23  0  0  0  0  0  0  0  0999 V2000
   29.0570   55.2660   -5.3400 O   0  0  0  0  0  0  0  0  0  0  0  0
   29.3930   54.7560   -4.0690 N   0  0  0  0  0  0  0  0  0  0  0  0
   29.2710   53.4030   -3.8410 C   0  0  0  0  0  0  0  0  0  0  0  0
   29.7150   52.9230   -2.7980 O   0  0  0  0  0  0  0  0  0  0  0  0
   28.6000   52.5090   -4.8340 C   0  0  0  0  0  0  0  0  0  0  0  0
   28.8460   51.1420   -4.9510 C   0  0  0  0  0  0  0  0  0  0  0  0
   27.6630   53.0810   -5.7080 C   0  0  0  0  0  0  0  0  0  0  0  0
   29.7940   50.3960   -4.1590 N   0  0  0  0  0  0  0  0  0  0  0  0
   28.1820   50.3630   -5.8990 C   0  0  0  0  0  0  0  0  0  0  0  0
   27.0040   52.2960   -6.6620 C   0  0  0  0  0  0  0  0  0  0  0  0
   30.7100   49.8100   -5.2090 S   0  0  1  0  0  0  0  0  0  0  0  0
   27.2620   50.9350   -6.7550 C   0  0  0  0  0  0  0  0  0  0  0  0
   31.4290   48.5470   -4.3780 N   0  0  0  0  0  0  0  0  0  0  0  0
   30.3000   49.1860   -6.4440 O   0  0  0  0  0  0  0  0  0  0  0  0
   31.8480   51.0930   -5.6070 C   0  0  0  0  0  0  0  0  0  0  0  0
   33.1820   50.8860   -5.3060 C   0  0  0  0  0  0  0  0  0  0  0  0
   31.4130   52.2860   -6.2090 C   0  0  0  0  0  0  0  0  0  0  0  0
   34.1040   51.8800   -5.6060 C   0  0  0  0  0  0  0  0  0  0  0  0
   32.3600   53.2760   -6.5030 C   0  0  0  0  0  0  0  0  0  0  0  0
   31.8850   54.7590   -7.2400 Cl  0  0  0  0  0  0  0  0  0  0  0  0
   35.7590   51.6220   -5.2330 Cl  0  0  0  0  0  0  0  0  0  0  0  0
   33.7040   53.0730   -6.2010 C   0  0  0  0  0  0  0  0  0  0  0  0
  1  2  1  0
  2  3  1  0
  3  4  2  0
  3  5  1  0
  5  6  2  0
  5  7  1  0
  6  8  1  0
  6  9  1  0
  7 10  2  0
  8 11  2  0
  9 12  2  0
 10 12  1  0
 11 13  1  1
 11 14  2  0
 11 15  1  0
 15 16  2  0
 15 17  1  0
 16 18  1  0
 17 19  2  0
 19 20  1  0
 18 21  1  0
 18 22  2  0
 19 22  1  0
M  END
