mac-x0231-mac-x0226
     RDKit          3D

 26 29  0  0  0  0  0  0  0  0999 V2000
   33.6950   44.7750   -7.4740 O   0  0  0  0  0  0  0  0  0  0  0  0
   33.2100   45.1970   -6.2080 C   0  0  0  0  0  0  0  0  0  0  0  0
   33.5660   46.5690   -6.1630 O   0  0  0  0  0  0  0  0  0  0  0  0
   31.6710   45.0900   -6.2610 C   0  0  0  0  0  0  0  0  0  0  0  0
   33.9500   44.4260   -5.0960 C   0  0  2  0  0  0  0  0  0  0  0  0
   30.9300   45.0400   -4.9260 C   0  0  0  0  0  0  0  0  0  0  0  0
   33.2040   43.2760   -4.4180 C   0  0  0  0  0  0  0  0  0  0  0  0
   34.3470   45.2440   -3.8720 C   0  0  0  0  0  0  0  0  0  0  0  0
   31.0790   46.1080   -3.8960 C   0  0  0  0  0  0  0  0  0  0  0  0
   30.1550   44.0070   -4.7590 N   0  0  0  0  0  0  0  0  0  0  0  0
   34.0590   42.9300   -3.2690 N   0  0  0  0  0  0  0  0  0  0  0  0
   34.6010   44.1880   -2.8880 N   0  0  0  0  0  0  0  0  0  0  0  0
   30.3830   45.9280   -2.6980 C   0  0  0  0  0  0  0  0  0  0  0  0
   29.4580   43.8920   -3.5970 N   0  0  0  0  0  0  0  0  0  0  0  0
   31.8610   47.2600   -4.0590 C   0  0  0  0  0  0  0  0  0  0  0  0
   35.6430   44.2830   -1.9520 C   0  0  0  0  0  0  0  0  0  0  0  0
   29.5570   44.7260   -2.5140 C   0  0  0  0  0  0  0  0  0  0  0  0
   30.4630   46.8800   -1.6700 C   0  0  0  0  0  0  0  0  0  0  0  0
   31.9400   48.2100   -3.0320 C   0  0  0  0  0  0  0  0  0  0  0  0
   36.2520   45.5100   -1.6420 C   0  0  0  0  0  0  0  0  0  0  0  0
   36.1290   43.1490   -1.2770 C   0  0  0  0  0  0  0  0  0  0  0  0
   28.9890   44.4900   -1.4500 O   0  0  0  0  0  0  0  0  0  0  0  0
   31.2460   48.0210   -1.8430 C   0  0  0  0  0  0  0  0  0  0  0  0
   37.2920   45.6030   -0.7070 C   0  0  0  0  0  0  0  0  0  0  0  0
   37.1670   43.2320   -0.3420 C   0  0  0  0  0  0  0  0  0  0  0  0
   37.7490   44.4620   -0.0580 C   0  0  0  0  0  0  0  0  0  0  0  0
  2  1  1  0
  2  3  1  0
  2  4  1  0
  5  2  1  6
  4  6  1  0
  5  7  1  0
  5  8  1  0
  6  9  1  0
  6 10  2  0
  7 11  1  0
  8 12  1  0
 11 12  1  0
  9 13  2  0
 10 14  1  0
  9 15  1  0
 12 16  1  0
 13 17  1  0
 14 17  1  0
 13 18  1  0
 15 19  2  0
 16 20  2  0
 16 21  1  0
 17 22  2  0
 18 23  2  0
 19 23  1  0
 20 24  1  0
 21 25  2  0
 24 26  2  0
 25 26  1  0
M  END
