mac-x0282-mac-x1494
     RDKit          3D

 16 18  0  0  0  0  0  0  0  0999 V2000
   27.9600   51.7580   -6.9850 O   0  0  0  0  0  0  0  0  0  0  0  0
   29.1560   51.1280   -7.0700 N   0  0  1  0  0  0  0  0  0  0  0  0
   29.9740   51.3100   -5.8170 C   0  0  0  0  0  0  0  0  0  0  0  0
   29.0180   49.6690   -7.1810 C   0  0  0  0  0  0  0  0  0  0  0  0
   29.9240   49.9920   -4.9830 C   0  0  1  0  0  0  0  0  0  0  0  0
   29.4360   49.0260   -6.0270 C   0  0  0  0  0  0  0  0  0  0  0  0
   28.5520   49.0490   -8.2760 N   0  0  0  0  0  0  0  0  0  0  0  0
   29.3790   47.6440   -5.9650 C   0  0  0  0  0  0  0  0  0  0  0  0
   28.5090   47.6990   -8.1950 C   0  0  0  0  0  0  0  0  0  0  0  0
   31.3160   49.4250   -4.5760 C   0  0  0  0  0  0  0  0  0  0  0  0
   29.0020   50.2270   -3.8120 C   0  0  0  0  0  0  0  0  0  0  0  0
   28.9050   46.9650   -7.0800 C   0  0  0  0  0  0  0  0  0  0  0  0
   31.5030   48.9110   -3.1370 C   0  0  2  0  0  0  0  0  0  0  0  0
   29.3790   50.1330   -2.5340 C   0  0  0  0  0  0  0  0  0  0  0  0
   31.0940   47.1760   -2.9310 Cl  0  0  0  0  0  0  0  0  0  0  0  0
   30.7640   49.7700   -2.1130 C   0  0  0  0  0  0  0  0  0  0  0  0
  2  1  1  1
  2  3  1  0
  2  4  1  0
  5  3  1  6
  4  6  2  0
  5  6  1  0
  4  7  1  0
  6  8  1  0
  7  9  2  0
  5 10  1  0
  5 11  1  0
  8 12  2  0
  9 12  1  0
 10 13  1  0
 11 14  2  0
 13 15  1  6
 13 16  1  0
 14 16  1  0
M  CHG  2   1  -1   2   1
M  END
