mac-x0441-mac-x0522
     RDKit          3D

 30 33  0  0  0  0  0  0  0  0999 V2000
   34.3620   45.3630   -6.1440 O   0  0  0  0  0  0  0  0  0  0  0  0
   33.1030   45.1920   -5.6840 C   0  0  0  0  0  0  0  0  0  0  0  0
   32.1380   45.2310   -6.4450 O   0  0  0  0  0  0  0  0  0  0  0  0
   32.9410   44.9580   -4.2000 C   0  0  0  0  0  0  0  0  0  0  0  0
   34.1740   44.7530   -3.4470 N   0  0  0  0  0  0  0  0  0  0  0  0
   34.3820   43.5480   -2.8450 N   0  0  0  0  0  0  0  0  0  0  0  0
   35.1980   45.6220   -3.2350 C   0  0  0  0  0  0  0  0  0  0  0  0
   35.5880   43.6480   -2.2140 C   0  0  0  0  0  0  0  0  0  0  0  0
   36.1290   44.9580   -2.4510 C   0  0  0  0  0  0  0  0  0  0  0  0
   35.3100   47.0210   -3.7340 C   0  0  0  0  0  0  0  0  0  0  0  0
   36.1880   42.4840   -1.3890 C   0  0  0  0  0  0  0  0  0  0  0  0
   37.4000   45.6010   -2.0030 C   0  0  0  0  0  0  0  0  0  0  0  0
   36.3660   47.7710   -2.9010 C   0  0  0  0  0  0  0  0  0  0  0  0
   37.4790   42.0170   -1.9050 N   0  0  0  0  0  0  0  0  0  0  0  0
   36.3770   42.8980   -0.1060 F   0  0  0  0  0  0  0  0  0  0  0  0
   35.3080   41.4430   -1.3170 F   0  0  0  0  0  0  0  0  0  0  0  0
   37.6520   46.9410   -2.7330 C   0  0  0  0  0  0  0  0  0  0  0  0
   38.3070   41.0490   -1.4830 C   0  0  0  0  0  0  0  0  0  0  0  0
   39.4720   40.8550   -2.1900 N   0  0  0  0  0  0  0  0  0  0  0  0
   38.0860   40.1160   -0.2740 C   0  0  0  0  0  0  0  0  0  0  0  0
   39.9100   41.6800   -3.1670 C   0  0  0  0  0  0  0  0  0  0  0  0
   38.8750   38.9390   -0.2230 C   0  0  0  0  0  0  0  0  0  0  0  0
   37.1740   40.3450    0.7710 C   0  0  0  0  0  0  0  0  0  0  0  0
   40.6700   41.3850   -4.1970 N   0  0  0  0  0  0  0  0  0  0  0  0
   39.4290   43.3410   -3.0950 S   0  0  0  0  0  0  0  0  0  0  0  0
   38.7570   38.0240    0.8300 C   0  0  0  0  0  0  0  0  0  0  0  0
   37.0610   39.4200    1.8270 C   0  0  0  0  0  0  0  0  0  0  0  0
   40.2930   43.6660   -4.5290 C   0  0  0  0  0  0  0  0  0  0  0  0
   40.8900   42.5080   -4.9720 C   0  0  0  0  0  0  0  0  0  0  0  0
   37.8490   38.2660    1.8570 C   0  0  0  0  0  0  0  0  0  0  0  0
  1  2  1  0
  2  3  2  0
  2  4  1  0
  4  5  1  0
  5  6  1  0
  5  7  1  0
  6  8  2  0
  7  9  2  0
  8  9  1  0
  7 10  1  0
  8 11  1  0
  9 12  1  0
 10 13  1  0
 11 14  1  0
 11 15  1  0
 11 16  1  0
 12 17  1  0
 13 17  1  0
 14 18  2  3
 18 19  1  0
 18 20  1  0
 19 21  1  0
 20 22  2  0
 20 23  1  0
 21 24  2  0
 21 25  1  0
 22 26  1  0
 23 27  2  0
 25 28  1  0
 24 29  1  0
 28 29  2  0
 26 30  2  0
 27 30  1  0
M  END
