mac-x0361-mac-x0546
     RDKit          3D

 26 28  0  0  0  0  0  0  0  0999 V2000
   29.0100   53.9300   -6.5200 N   0  0  0  0  0  0  0  0  0  0  0  0
   29.6080   53.7420   -5.3110 C   0  0  0  0  0  0  0  0  0  0  0  0
   30.0940   54.6690   -4.6740 O   0  0  0  0  0  0  0  0  0  0  0  0
   29.6280   52.3690   -4.7780 C   0  0  0  0  0  0  0  0  0  0  0  0
   29.4470   51.2900   -5.6530 C   0  0  0  0  0  0  0  0  0  0  0  0
   29.8200   52.1640   -3.4220 C   0  0  0  0  0  0  0  0  0  0  0  0
   29.4440   49.9860   -5.1520 C   0  0  0  0  0  0  0  0  0  0  0  0
   29.8150   50.8790   -2.9360 C   0  0  0  0  0  0  0  0  0  0  0  0
   29.6210   49.8040   -3.7920 C   0  0  0  0  0  0  0  0  0  0  0  0
   29.6220   48.6650   -3.1030 O   0  0  0  0  0  0  0  0  0  0  0  0
   28.9880   48.8740   -1.8300 C   0  0  0  0  0  0  0  0  0  0  0  0
   29.6970   48.1690   -0.7990 N   0  0  0  0  0  0  0  0  0  0  0  0
   30.8050   48.9670   -0.2670 C   0  0  0  0  0  0  0  0  0  0  0  0
   29.9150   46.9010   -1.2490 C   0  0  0  0  0  0  0  0  0  0  0  0
   30.9490   46.5900   -2.0480 C   0  0  0  0  0  0  0  0  0  0  0  0
   28.9530   45.8640   -0.8730 C   0  0  0  0  0  0  0  0  0  0  0  0
   31.1240   45.2050   -2.5270 C   0  0  1  0  0  0  0  0  0  0  0  0
   28.8260   44.7100   -1.5450 C   0  0  0  0  0  0  0  0  0  0  0  0
   29.7450   44.5850   -2.6810 C   0  0  0  0  0  0  0  0  0  0  0  0
   31.5910   44.8880   -3.9110 C   0  0  0  0  0  0  0  0  0  0  0  0
   32.9240   45.2900   -4.4470 C   0  0  0  0  0  0  0  0  0  0  0  0
   29.4950   43.9930   -3.8070 N   0  0  0  0  0  0  0  0  0  0  0  0
   30.6350   44.1940   -4.5450 C   0  0  0  0  0  0  0  0  0  0  0  0
   32.8080   45.9360   -5.8140 C   0  0  0  0  0  0  0  0  0  0  0  0
   31.8420   45.8870   -6.5610 O   0  0  0  0  0  0  0  0  0  0  0  0
   33.9290   46.6060   -6.1470 O   0  0  0  0  0  0  0  0  0  0  0  0
  1  2  1  0
  2  3  2  0
  2  4  1  0
  4  5  2  0
  4  6  1  0
  5  7  1  0
  6  8  2  0
  7  9  2  0
  8  9  1  0
  9 10  1  0
 10 11  1  0
 11 12  1  0
 12 13  1  0
 12 14  1  0
 14 15  2  0
 14 16  1  0
 17 15  1  6
 16 18  2  0
 17 19  1  0
 18 19  1  0
 17 20  1  0
 20 21  1  0
 19 22  2  0
 20 23  2  0
 22 23  1  0
 21 24  1  0
 24 25  2  0
 24 26  1  0
M  END
