mac-x0365-mac-x0213
     RDKit          3D

 23 25  0  0  0  0  0  0  0  0999 V2000
   29.9190   48.2030   -6.1710 O   0  0  0  0  0  0  0  0  0  0  0  0
   30.8480   48.9240   -5.3660 C   0  0  1  0  0  0  0  0  0  0  0  0
   30.2350   50.2400   -4.9840 C   0  0  0  0  0  0  0  0  0  0  0  0
   31.2270   48.1160   -4.1280 C   0  0  0  0  0  0  0  0  0  0  0  0
   30.3670   50.7650   -3.6950 C   0  0  0  0  0  0  0  0  0  0  0  0
   29.5160   50.9580   -5.9530 C   0  0  0  0  0  0  0  0  0  0  0  0
   30.5280   46.7740   -4.1920 C   0  0  1  0  0  0  0  0  0  0  0  0
   29.7930   51.9880   -3.3910 C   0  0  0  0  0  0  0  0  0  0  0  0
   28.9410   52.1880   -5.6380 C   0  0  0  0  0  0  0  0  0  0  0  0
   31.4330   45.5530   -4.3880 C   0  0  2  0  0  0  0  0  0  0  0  0
   29.7520   46.3900   -2.9790 C   0  0  0  0  0  0  0  0  0  0  0  0
   29.9190   52.4960   -2.1580 F   0  0  0  0  0  0  0  0  0  0  0  0
   29.0870   52.6950   -4.3580 C   0  0  0  0  0  0  0  0  0  0  0  0
   31.9690   45.5400   -5.8060 C   0  0  0  0  0  0  0  0  0  0  0  0
   29.7320   45.0050   -2.8820 C   0  0  0  0  0  0  0  0  0  0  0  0
   30.5100   44.3800   -4.0050 C   0  0  0  0  0  0  0  0  0  0  0  0
   29.1170   47.1980   -2.0520 C   0  0  0  0  0  0  0  0  0  0  0  0
   28.5240   53.9010   -4.0680 O   0  0  0  0  0  0  0  0  0  0  0  0
   33.2510   45.9770   -5.8720 O   0  0  0  0  0  0  0  0  0  0  0  0
   31.3940   45.2070   -6.8260 O   0  0  0  0  0  0  0  0  0  0  0  0
   28.4360   46.5860   -1.0010 C   0  0  0  0  0  0  0  0  0  0  0  0
   29.0560   44.3850   -1.8450 C   0  0  0  0  0  0  0  0  0  0  0  0
   28.4050   45.1850   -0.9020 C   0  0  0  0  0  0  0  0  0  0  0  0
  2  1  1  1
  2  3  1  0
  2  4  1  0
  3  5  2  0
  3  6  1  0
  7  4  1  1
  5  8  1  0
  6  9  2  0
  7 10  1  0
  7 11  1  0
  8 12  1  0
  8 13  2  0
  9 13  1  0
 10 14  1  6
 11 15  2  0
 10 16  1  0
 15 16  1  0
 11 17  1  0
 13 18  1  0
 14 19  1  0
 14 20  2  0
 17 21  2  0
 15 22  1  0
 21 23  1  0
 22 23  2  0
M  END
