mac-x0439-mac-x0564
     RDKit          3D

 26 30  0  0  0  0  0  0  0  0999 V2000
   28.5310   46.9580   -1.2050 Cl  0  0  0  0  0  0  0  0  0  0  0  0
   28.3940   45.2890   -1.6110 C   0  0  0  0  0  0  0  0  0  0  0  0
   29.4120   44.6720   -2.5190 C   0  0  2  0  0  0  0  0  0  0  0  0
   27.3870   44.5390   -1.1190 C   0  0  0  0  0  0  0  0  0  0  0  0
   29.9620   45.3730   -3.7170 C   0  0  0  0  0  0  0  0  0  0  0  0
   28.6780   43.5960   -3.3000 C   0  0  0  0  0  0  0  0  0  0  0  0
   27.2770   43.1270   -1.4630 C   0  0  0  0  0  0  0  0  0  0  0  0
   29.5780   44.7320   -4.8370 C   0  0  0  0  0  0  0  0  0  0  0  0
   28.7810   43.6310   -4.5900 N   0  0  0  0  0  0  0  0  0  0  0  0
   27.9000   42.6090   -2.5360 C   0  0  0  0  0  0  0  0  0  0  0  0
   29.9380   45.1230   -6.2360 C   0  0  0  0  0  0  0  0  0  0  0  0
   29.2820   44.3390   -7.1230 O   0  0  0  0  0  0  0  0  0  0  0  0
   30.7510   46.0660   -6.5930 N   0  0  0  0  0  0  0  0  0  0  0  0
   31.4530   46.9060   -5.7360 C   0  0  0  0  0  0  0  0  0  0  0  0
   30.8950   48.1090   -5.3450 C   0  0  0  0  0  0  0  0  0  0  0  0
   32.6830   46.5820   -5.2690 N   0  0  0  0  0  0  0  0  0  0  0  0
   31.5930   48.9520   -4.4910 C   0  0  0  0  0  0  0  0  0  0  0  0
   33.2860   47.4660   -4.4430 C   0  0  0  0  0  0  0  0  0  0  0  0
   29.6900   48.6530   -5.6770 O   0  0  0  0  0  0  0  0  0  0  0  0
   32.8240   48.6520   -4.0090 N   0  0  0  0  0  0  0  0  0  0  0  0
   29.6120   49.8510   -5.0310 C   0  0  0  0  0  0  0  0  0  0  0  0
   30.7620   50.0870   -4.2830 C   0  0  0  0  0  0  0  0  0  0  0  0
   30.8540   51.2850   -3.5480 C   0  0  0  0  0  0  0  0  0  0  0  0
   28.5330   50.7320   -5.0980 C   0  0  0  0  0  0  0  0  0  0  0  0
   29.7830   52.1900   -3.5990 C   0  0  0  0  0  0  0  0  0  0  0  0
   28.6440   51.9170   -4.3610 C   0  0  0  0  0  0  0  0  0  0  0  0
  1  2  1  0
  2  3  1  0
  2  4  2  0
  3  5  1  6
  3  6  1  0
  4  7  1  0
  5  8  2  0
  6  9  2  0
  8  9  1  0
  6 10  1  0
  7 10  2  0
  8 11  1  0
 11 12  1  0
 11 13  2  3
 13 14  1  0
 14 15  1  0
 14 16  2  0
 15 17  2  0
 16 18  1  0
 15 19  1  0
 17 20  1  0
 18 20  2  0
 19 21  1  0
 17 22  1  0
 21 22  2  0
 22 23  1  0
 21 24  1  0
 23 25  2  0
 24 26  2  0
 25 26  1  0
M  END
