mac-x0584-mac-x0116
     RDKit          3D

 25 29  0  0  0  0  0  0  0  0999 V2000
   29.0010   53.4060   -6.9010 C   0  0  0  0  0  0  0  0  0  0  0  0
   28.6520   52.0940   -7.4860 N   0  0  0  0  0  0  0  0  0  0  0  0
   28.9800   51.0560   -6.5700 N   0  0  0  0  0  0  0  0  0  0  0  0
   30.4210   53.8170   -7.1210 C   0  0  0  0  0  0  0  0  0  0  0  0
   31.3690   53.3230   -6.2640 O   0  0  0  0  0  0  0  0  0  0  0  0
   31.0210   54.6340   -8.0550 C   0  0  0  0  0  0  0  0  0  0  0  0
   29.1160   49.6990   -6.8230 C   0  0  0  0  0  0  0  0  0  0  0  0
   29.2140   51.3170   -5.2600 C   0  0  0  0  0  0  0  0  0  0  0  0
   32.4040   54.6430   -7.7580 C   0  0  0  0  0  0  0  0  0  0  0  0
   32.5650   53.8300   -6.6610 C   0  0  0  0  0  0  0  0  0  0  0  0
   28.9530   49.0780   -8.0090 N   0  0  0  0  0  0  0  0  0  0  0  0
   29.4570   49.0910   -5.6150 C   0  0  0  0  0  0  0  0  0  0  0  0
   29.5110   50.1310   -4.6410 C   0  0  0  0  0  0  0  0  0  0  0  0
   29.1660   47.7570   -7.9010 C   0  0  0  0  0  0  0  0  0  0  0  0
   29.6590   47.6870   -5.6090 C   0  0  0  0  0  0  0  0  0  0  0  0
   29.9910   46.9610   -4.4500 N   0  0  0  0  0  0  0  0  0  0  0  0
   29.5000   47.0510   -6.8010 N   0  0  0  0  0  0  0  0  0  0  0  0
   31.4010   46.7910   -4.0150 C   0  0  2  0  0  0  0  0  0  0  0  0
   29.2320   47.4260   -3.2760 C   0  0  0  0  0  0  0  0  0  0  0  0
   32.2640   45.7220   -4.6730 C   0  0  0  0  0  0  0  0  0  0  0  0
   31.2290   46.4320   -2.5420 C   0  0  0  0  0  0  0  0  0  0  0  0
   30.2000   47.4230   -2.0980 C   0  0  0  0  0  0  0  0  0  0  0  0
   31.9930   45.0570   -6.0390 C   0  0  0  0  0  0  0  0  0  0  0  0
   33.6450   46.1250   -5.2480 C   0  0  0  0  0  0  0  0  0  0  0  0
   33.5280   44.8570   -6.1080 C   0  0  0  0  0  0  0  0  0  0  0  0
  1  2  1  0
  2  3  1  0
  1  4  1  0
  4  5  1  0
  4  6  2  0
  3  7  1  0
  3  8  1  0
  6  9  1  0
  5 10  1  0
  9 10  2  0
  7 11  2  0
  7 12  1  0
  8 13  2  0
 12 13  1  0
 11 14  1  0
 12 15  2  0
 15 16  1  0
 14 17  2  0
 15 17  1  0
 16 18  1  0
 16 19  1  0
 18 20  1  6
 18 21  1  0
 19 22  1  0
 21 22  1  0
 20 23  1  0
 20 24  1  0
 23 25  1  0
 24 25  1  0
M  END
