mac-x0345-mac-x0472
     RDKit          3D

 23 25  0  0  0  0  0  0  0  0999 V2000
   29.5940   55.1110   -4.2610 C   0  0  0  0  0  0  0  0  0  0  0  0
   29.0990   53.6990   -4.3770 C   0  0  0  0  0  0  0  0  0  0  0  0
   29.7710   52.7820   -3.6270 N   0  0  0  0  0  0  0  0  0  0  0  0
   28.0240   53.3490   -5.1970 C   0  0  0  0  0  0  0  0  0  0  0  0
   27.0750   54.6030   -6.2490 Br  0  0  0  0  0  0  0  0  0  0  0  0
   27.6280   52.0170   -5.2480 C   0  0  0  0  0  0  0  0  0  0  0  0
   29.3650   51.5010   -3.7010 C   0  0  0  0  0  0  0  0  0  0  0  0
   30.0900   50.5330   -2.9060 N   0  0  0  0  0  0  0  0  0  0  0  0
   28.3110   51.0720   -4.4850 C   0  0  0  0  0  0  0  0  0  0  0  0
   30.9510   49.5180   -3.6690 S   0  0  1  0  0  0  0  0  0  0  0  0
   31.5190   48.3180   -3.0870 O   0  0  0  0  0  0  0  0  0  0  0  0
   29.8810   48.8420   -4.7950 N   0  0  0  0  0  0  0  0  0  0  0  0
   32.2790   50.3310   -4.5390 C   0  0  0  0  0  0  0  0  0  0  0  0
   29.8540   49.2570   -6.0850 C   0  0  0  0  0  0  0  0  0  0  0  0
   33.1470   49.6070   -5.3590 C   0  0  0  0  0  0  0  0  0  0  0  0
   32.4390   51.7130   -4.3840 C   0  0  0  0  0  0  0  0  0  0  0  0
   29.3480   48.5140   -7.0580 N   0  0  0  0  0  0  0  0  0  0  0  0
   30.4530   50.7750   -6.6570 S   0  0  0  0  0  0  0  0  0  0  0  0
   34.1790   50.2690   -6.0280 C   0  0  0  0  0  0  0  0  0  0  0  0
   33.4700   52.3680   -5.0540 C   0  0  0  0  0  0  0  0  0  0  0  0
   29.9680   50.3040   -8.2280 C   0  0  0  0  0  0  0  0  0  0  0  0
   29.4110   49.1170   -8.2970 N   0  0  0  0  0  0  0  0  0  0  0  0
   34.3390   51.6470   -5.8750 C   0  0  0  0  0  0  0  0  0  0  0  0
  1  2  1  0
  2  3  2  0
  2  4  1  0
  4  5  1  0
  4  6  2  0
  3  7  1  0
  7  8  1  0
  6  9  1  0
  7  9  2  0
  8 10  2  0
 10 11  2  0
 10 12  1  6
 10 13  1  0
 12 14  1  0
 13 15  2  0
 13 16  1  0
 14 17  2  0
 14 18  1  0
 15 19  1  0
 16 20  2  0
 18 21  1  0
 17 22  1  0
 21 22  2  0
 19 23  2  0
 20 23  1  0
M  END
