mac-x0148-mac-x0587
     RDKit          3D

 28 31  0  0  0  0  0  0  0  0999 V2000
   33.1620   48.2530   -2.7250 C   0  0  0  0  0  0  0  0  0  0  0  0
   32.3570   48.3430   -4.0170 C   0  0  2  0  0  0  0  0  0  0  0  0
   33.5270   48.7320   -5.3830 S   0  0  0  0  0  0  0  0  0  0  0  0
   31.2210   49.3770   -3.9100 C   0  0  0  0  0  0  0  0  0  0  0  0
   33.1330   47.3760   -6.5320 C   0  0  0  0  0  0  0  0  0  0  0  0
   31.0380   50.1060   -2.9310 O   0  0  0  0  0  0  0  0  0  0  0  0
   30.2900   49.5080   -5.0520 C   0  0  0  0  0  0  0  0  0  0  0  0
   34.3610   46.6090   -6.9560 C   0  0  0  0  0  0  0  0  0  0  0  0
   29.5850   48.4770   -5.7750 C   0  0  0  0  0  0  0  0  0  0  0  0
   29.9830   50.7100   -5.5660 C   0  0  0  0  0  0  0  0  0  0  0  0
   35.5000   46.7810   -6.5520 O   0  0  0  0  0  0  0  0  0  0  0  0
   34.1120   45.6520   -7.8750 O   0  0  0  0  0  0  0  0  0  0  0  0
   28.8130   49.2270   -6.8090 C   0  0  0  0  0  0  0  0  0  0  0  0
   29.4820   47.1270   -5.7350 C   0  0  0  0  0  0  0  0  0  0  0  0
   29.0530   50.5150   -6.6660 N   0  0  0  0  0  0  0  0  0  0  0  0
   28.5510   51.4300   -7.3900 O   0  0  0  0  0  0  0  0  0  0  0  0
   30.1550   46.3090   -4.8210 N   0  0  0  0  0  0  0  0  0  0  0  0
   28.6420   46.5590   -6.6770 N   0  0  0  0  0  0  0  0  0  0  0  0
   28.0030   48.5810   -7.7150 N   0  0  0  0  0  0  0  0  0  0  0  0
   30.0760   46.5910   -3.3410 C   0  0  1  0  0  0  0  0  0  0  0  0
   30.5950   44.9620   -5.2080 C   0  0  0  0  0  0  0  0  0  0  0  0
   27.9650   47.2950   -7.6020 C   0  0  0  0  0  0  0  0  0  0  0  0
   28.8720   45.9690   -2.6440 C   0  0  0  0  0  0  0  0  0  0  0  0
   31.2190   46.0120   -2.5040 C   0  0  1  0  0  0  0  0  0  0  0  0
   31.9040   44.6160   -4.5180 C   0  0  0  0  0  0  0  0  0  0  0  0
   30.6130   45.8990   -1.1100 C   0  0  0  0  0  0  0  0  0  0  0  0
   29.1830   45.9660   -1.2390 O   0  0  0  0  0  0  0  0  0  0  0  0
   31.8080   44.6950   -3.0020 C   0  0  0  0  0  0  0  0  0  0  0  0
  2  1  1  1
  2  3  1  0
  2  4  1  0
  3  5  1  0
  4  6  2  0
  4  7  1  0
  5  8  1  0
  7  9  1  0
  7 10  2  0
  8 11  2  0
  8 12  1  0
  9 13  1  0
  9 14  2  0
 10 15  1  0
 13 15  2  0
 15 16  1  0
 14 17  1  0
 14 18  1  0
 13 19  1  0
 17 20  1  0
 17 21  1  0
 18 22  1  0
 19 22  2  0
 20 23  1  1
 20 24  1  0
 21 25  1  0
 24 26  1  1
 23 27  1  0
 26 27  1  0
 24 28  1  0
 25 28  1  0
M  CHG  2  15   1  16  -1
M  END
