mac-x0115-mac-x0213
     RDKit          3D

 28 31  0  0  0  0  0  0  0  0999 V2000
   29.3020   43.9650   -1.7010 C   0  0  0  0  0  0  0  0  0  0  0  0
   29.6750   43.1170   -2.9290 C   0  0  0  0  0  0  0  0  0  0  0  0
   28.6010   43.2480   -3.9600 C   0  0  0  0  0  0  0  0  0  0  0  0
   30.9990   43.4450   -3.3350 O   0  0  0  0  0  0  0  0  0  0  0  0
   31.1030   43.7680   -4.7040 C   0  0  0  0  0  0  0  0  0  0  0  0
   31.4320   45.2870   -5.1980 S   0  0  0  0  0  0  0  0  0  0  0  0
   32.4110   44.9440   -6.3100 O   0  0  0  0  0  0  0  0  0  0  0  0
   32.7170   46.1870   -4.6760 O   0  0  0  0  0  0  0  0  0  0  0  0
   30.4570   46.0470   -6.3610 N   0  0  0  0  0  0  0  0  0  0  0  0
   30.6510   45.9150   -4.0180 C   0  0  0  0  0  0  0  0  0  0  0  0
   30.0670   45.3230   -7.4900 C   0  0  0  0  0  0  0  0  0  0  0  0
   30.1710   47.4240   -6.3150 C   0  0  0  0  0  0  0  0  0  0  0  0
   30.8980   47.2140   -3.2790 C   0  0  0  0  0  0  0  0  0  0  0  0
   29.1530   46.1510   -4.2540 C   0  0  0  0  0  0  0  0  0  0  0  0
   30.3310   43.7570   -7.7710 S   0  0  0  0  0  0  0  0  0  0  0  0
   29.3570   46.0370   -8.5090 N   0  0  0  0  0  0  0  0  0  0  0  0
   28.9270   47.9150   -6.9780 C   0  0  2  0  0  0  0  0  0  0  0  0
   30.8200   48.4360   -5.7680 C   0  0  0  0  0  0  0  0  0  0  0  0
   29.8580   47.0920   -2.2450 C   0  0  0  0  0  0  0  0  0  0  0  0
   28.7990   46.4410   -2.8420 C   0  0  0  0  0  0  0  0  0  0  0  0
   29.0410   47.4500   -8.3830 C   0  0  0  0  0  0  0  0  0  0  0  0
   28.9540   49.3040   -6.7400 N   0  0  0  0  0  0  0  0  0  0  0  0
   30.0150   49.6120   -6.0540 C   0  0  0  0  0  0  0  0  0  0  0  0
   29.7290   47.4530   -0.9250 C   0  0  0  0  0  0  0  0  0  0  0  0
   27.6460   46.1630   -2.1120 C   0  0  0  0  0  0  0  0  0  0  0  0
   28.8810   48.1910   -9.3720 O   0  0  0  0  0  0  0  0  0  0  0  0
   28.5900   47.1840   -0.1920 C   0  0  0  0  0  0  0  0  0  0  0  0
   27.5280   46.5270   -0.7890 C   0  0  0  0  0  0  0  0  0  0  0  0
  1  2  1  0
  2  3  1  0
  2  4  1  0
  4  5  1  0
  5  6  1  0
  6  7  1  0
  6  8  2  0
  6  9  1  0
  6 10  1  0
  9 11  1  0
  9 12  1  0
 10 13  1  0
 10 14  1  0
 11 15  2  0
 11 16  1  0
 12 17  1  0
 12 18  2  0
 13 19  1  0
 14 20  1  0
 19 20  2  0
 16 21  1  0
 17 21  1  0
 17 22  1  6
 18 23  1  0
 22 23  2  0
 19 24  1  0
 20 25  1  0
 21 26  2  0
 24 27  2  0
 25 28  2  0
 27 28  1  0
M  END
