mac-x0360-mac-x0437
     RDKit          3D

 29 31  0  0  0  0  0  0  0  0999 V2000
   32.0320   55.2810   -7.0090 Cl  0  0  0  0  0  0  0  0  0  0  0  0
   32.1690   53.6690   -6.4190 C   0  0  0  0  0  0  0  0  0  0  0  0
   33.4250   53.1520   -6.1210 C   0  0  0  0  0  0  0  0  0  0  0  0
   31.0210   52.9010   -6.2450 C   0  0  0  0  0  0  0  0  0  0  0  0
   31.1410   51.5940   -5.7650 C   0  0  0  0  0  0  0  0  0  0  0  0
   33.5370   51.8450   -5.6420 C   0  0  0  0  0  0  0  0  0  0  0  0
   35.0960   51.2230   -5.2760 Cl  0  0  0  0  0  0  0  0  0  0  0  0
   29.6650   50.6250   -5.5470 S   0  0  0  0  0  0  0  0  0  0  0  0
   32.3970   51.0540   -5.4590 C   0  0  0  0  0  0  0  0  0  0  0  0
   30.2280   49.1890   -4.8830 N   0  0  0  0  0  0  0  0  0  0  0  0
   28.8530   51.2860   -4.5500 O   0  0  0  0  0  0  0  0  0  0  0  0
   29.1350   50.3250   -6.8560 O   0  0  0  0  0  0  0  0  0  0  0  0
   30.2220   47.9710   -5.6970 C   0  0  0  0  0  0  0  0  0  0  0  0
   31.5620   47.7960   -6.4170 C   0  0  0  0  0  0  0  0  0  0  0  0
   31.5970   46.5900   -7.3630 C   0  0  0  0  0  0  0  0  0  0  0  0
   31.6750   45.3570   -6.6320 O   0  0  0  0  0  0  0  0  0  0  0  0
   32.8850   45.0320   -6.1050 C   0  0  0  0  0  0  0  0  0  0  0  0
   33.9710   45.3530   -6.5690 O   0  0  0  0  0  0  0  0  0  0  0  0
   32.7120   44.2010   -4.8550 C   0  0  0  0  0  0  0  0  0  0  0  0
   32.6820   45.0690   -3.5990 C   0  0  0  0  0  0  0  0  0  0  0  0
   33.9050   45.8290   -3.3950 N   0  0  0  0  0  0  0  0  0  0  0  0
   34.0190   47.1790   -3.5670 C   0  0  0  0  0  0  0  0  0  0  0  0
   35.1290   45.3450   -3.0060 C   0  0  0  0  0  0  0  0  0  0  0  0
   35.2410   47.5970   -3.3140 N   0  0  0  0  0  0  0  0  0  0  0  0
   35.9450   46.4740   -2.9660 C   0  0  0  0  0  0  0  0  0  0  0  0
   35.6100   44.0690   -2.6890 C   0  0  0  0  0  0  0  0  0  0  0  0
   37.2920   46.3520   -2.6030 C   0  0  0  0  0  0  0  0  0  0  0  0
   36.9580   43.9650   -2.3280 C   0  0  0  0  0  0  0  0  0  0  0  0
   37.7880   45.0860   -2.2840 C   0  0  0  0  0  0  0  0  0  0  0  0
  1  2  1  0
  2  3  2  0
  2  4  1  0
  4  5  2  0
  3  6  1  0
  6  7  1  0
  5  8  1  0
  5  9  1  0
  6  9  2  0
  8 10  1  0
  8 11  2  0
  8 12  2  0
 10 13  1  0
 13 14  1  0
 14 15  1  0
 15 16  1  0
 16 17  1  0
 17 18  2  0
 17 19  1  0
 19 20  1  0
 20 21  1  0
 21 22  1  0
 21 23  1  0
 22 24  2  0
 23 25  2  0
 24 25  1  0
 23 26  1  0
 25 27  1  0
 26 28  2  0
 27 29  2  0
 28 29  1  0
M  END
