mac-x0415-mac-x0228
     RDKit          3D

 27 30  0  0  0  0  0  0  0  0999 V2000
   33.0710   44.4700   -6.4400 O   0  0  0  0  0  0  0  0  0  0  0  0
   32.1950   45.2980   -5.8340 C   0  0  0  0  0  0  0  0  0  0  0  0
   31.3530   45.8760   -6.6120 N   0  0  0  0  0  0  0  0  0  0  0  0
   32.4030   45.3680   -4.3380 C   0  0  0  0  0  0  0  0  0  0  0  0
   30.3620   46.7920   -6.0430 C   0  0  0  0  0  0  0  0  0  0  0  0
   31.1840   45.0530   -3.5610 C   0  0  0  0  0  0  0  0  0  0  0  0
   30.5570   48.1750   -6.3340 O   0  0  0  0  0  0  0  0  0  0  0  0
   30.2240   43.9820   -3.9040 C   0  0  0  0  0  0  0  0  0  0  0  0
   30.6150   45.5560   -2.4670 C   0  0  0  0  0  0  0  0  0  0  0  0
   31.3530   48.8190   -5.4380 C   0  0  0  0  0  0  0  0  0  0  0  0
   29.1780   43.8090   -3.1460 N   0  0  0  0  0  0  0  0  0  0  0  0
   29.3550   44.8370   -2.0970 C   0  0  2  0  0  0  0  0  0  0  0  0
   30.9880   46.6490   -1.6060 C   0  0  0  0  0  0  0  0  0  0  0  0
   32.4810   48.4840   -5.1210 O   0  0  0  0  0  0  0  0  0  0  0  0
   28.2580   45.8440   -1.9360 C   0  0  0  0  0  0  0  0  0  0  0  0
   29.9760   47.3970   -1.1080 C   0  0  0  0  0  0  0  0  0  0  0  0
   30.6720   50.0140   -4.8700 C   0  0  0  0  0  0  0  0  0  0  0  0
   30.2750   48.8570    0.0310 Br  0  0  0  0  0  0  0  0  0  0  0  0
   28.5810   47.0720   -1.4580 C   0  0  0  0  0  0  0  0  0  0  0  0
   30.3280   51.0470   -5.7580 C   0  0  0  0  0  0  0  0  0  0  0  0
   30.3710   50.1350   -3.4940 C   0  0  0  0  0  0  0  0  0  0  0  0
   29.6970   52.1720   -5.2520 C   0  0  0  0  0  0  0  0  0  0  0  0
   29.7320   51.2810   -3.0040 C   0  0  0  0  0  0  0  0  0  0  0  0
   29.4090   52.2780   -3.9030 C   0  0  0  0  0  0  0  0  0  0  0  0
   29.2320   53.3890   -5.9540 C   0  0  0  0  0  0  0  0  0  0  0  0
   28.7850   53.4520   -3.5670 O   0  0  0  0  0  0  0  0  0  0  0  0
   28.9750   54.2840   -4.7380 C   0  0  0  0  0  0  0  0  0  0  0  0
  1  2  1  0
  2  3  2  3
  2  4  1  0
  3  5  1  0
  4  6  1  0
  5  7  1  0
  6  8  1  0
  6  9  2  0
  7 10  1  0
  8 11  2  0
  9 12  1  0
 11 12  1  0
  9 13  1  0
 10 14  2  0
 12 15  1  6
 13 16  2  0
 10 17  1  0
 16 18  1  0
 15 19  2  0
 16 19  1  0
 17 20  2  0
 17 21  1  0
 20 22  1  0
 21 23  2  0
 22 24  2  0
 23 24  1  0
 22 25  1  0
 24 26  1  0
 25 27  1  0
 26 27  1  0
M  END
