mac-x0124-mac-x0338
     RDKit          3D

 19 21  0  0  0  0  0  0  0  0999 V2000
   29.7180   45.4890   -5.0370 C   0  0  0  0  0  0  0  0  0  0  0  0
   29.3540   46.8840   -5.1220 N   0  0  0  0  0  0  0  0  0  0  0  0
   29.2600   47.7510   -4.0640 C   0  0  0  0  0  0  0  0  0  0  0  0
   29.0510   47.5420   -6.2880 C   0  0  0  0  0  0  0  0  0  0  0  0
   28.8900   48.9830   -4.5630 C   0  0  0  0  0  0  0  0  0  0  0  0
   28.7550   48.8640   -5.9740 C   0  0  0  0  0  0  0  0  0  0  0  0
   29.0470   46.9910   -7.5160 N   0  0  0  0  0  0  0  0  0  0  0  0
   28.4170   49.7040   -7.0480 C   0  0  0  0  0  0  0  0  0  0  0  0
   28.7100   47.8840   -8.4580 C   0  0  0  0  0  0  0  0  0  0  0  0
   28.1040   51.0530   -6.8160 N   0  0  0  0  0  0  0  0  0  0  0  0
   28.4010   49.1850   -8.2980 N   0  0  0  0  0  0  0  0  0  0  0  0
   28.9120   52.0490   -6.3170 C   0  0  0  0  0  0  0  0  0  0  0  0
   28.9760   53.1340   -6.8980 O   0  0  0  0  0  0  0  0  0  0  0  0
   29.7160   51.8450   -5.0870 C   0  0  0  0  0  0  0  0  0  0  0  0
   30.8930   51.1690   -5.1910 N   0  0  0  0  0  0  0  0  0  0  0  0
   29.2480   52.3430   -3.8790 C   0  0  0  0  0  0  0  0  0  0  0  0
   31.5670   51.0170   -4.0320 C   0  0  0  0  0  0  0  0  0  0  0  0
   29.9360   52.1870   -2.7140 N   0  0  0  0  0  0  0  0  0  0  0  0
   31.1010   51.5130   -2.8230 C   0  0  0  0  0  0  0  0  0  0  0  0
  1  2  1  0
  2  3  1  0
  2  4  1  0
  3  5  2  0
  4  6  2  0
  5  6  1  0
  4  7  1  0
  6  8  1  0
  7  9  2  0
  8 10  1  0
  8 11  2  0
  9 11  1  0
 10 12  1  0
 12 13  2  0
 12 14  1  0
 14 15  2  0
 14 16  1  0
 15 17  1  0
 16 18  2  0
 17 19  2  0
 18 19  1  0
M  END
