mac-x0228-mac-x0371
     RDKit          3D

 23 25  0  0  0  0  0  0  0  0999 V2000
   29.6130   47.7940   -5.4210 O   0  0  0  0  0  0  0  0  0  0  0  0
   30.2130   48.2580   -4.3100 C   0  0  0  0  0  0  0  0  0  0  0  0
   30.8170   47.5080   -3.4510 N   0  0  0  0  0  0  0  0  0  0  0  0
   30.0730   49.7200   -4.1820 C   0  0  0  0  0  0  0  0  0  0  0  0
   29.8000   50.4900   -5.3260 C   0  0  0  0  0  0  0  0  0  0  0  0
   30.2010   50.3420   -2.9260 C   0  0  0  0  0  0  0  0  0  0  0  0
   30.7860   46.1450   -3.7050 C   0  0  0  0  0  0  0  0  0  0  0  0
   29.6590   51.8600   -5.1770 C   0  0  0  0  0  0  0  0  0  0  0  0
   30.0560   51.7230   -2.7930 C   0  0  0  0  0  0  0  0  0  0  0  0
   31.8420   45.4010   -4.2770 C   0  0  0  0  0  0  0  0  0  0  0  0
   29.5870   45.5220   -3.3490 C   0  0  0  0  0  0  0  0  0  0  0  0
   33.1520   46.0890   -4.6480 C   0  0  0  0  0  0  0  0  0  0  0  0
   29.7850   52.4540   -3.9290 C   0  0  0  0  0  0  0  0  0  0  0  0
   29.3710   52.9020   -6.1830 C   0  0  0  0  0  0  0  0  0  0  0  0
   29.3910   44.1680   -3.5470 C   0  0  0  0  0  0  0  0  0  0  0  0
   31.6230   44.0180   -4.4760 C   0  0  0  0  0  0  0  0  0  0  0  0
   32.8130   42.9740   -5.1700 Cl  0  0  0  0  0  0  0  0  0  0  0  0
   33.3340   46.3950   -6.1210 C   0  0  0  0  0  0  0  0  0  0  0  0
   29.6160   53.8120   -3.9480 O   0  0  0  0  0  0  0  0  0  0  0  0
   29.6960   54.1450   -5.3540 C   0  0  0  0  0  0  0  0  0  0  0  0
   30.4110   43.4170   -4.1130 C   0  0  0  0  0  0  0  0  0  0  0  0
   32.2100   46.2600   -6.8500 O   0  0  0  0  0  0  0  0  0  0  0  0
   34.3760   46.7430   -6.6630 O   0  0  0  0  0  0  0  0  0  0  0  0
  1  2  1  0
  2  3  2  3
  2  4  1  0
  4  5  2  0
  4  6  1  0
  3  7  1  0
  5  8  1  0
  6  9  2  0
  7 10  2  0
  7 11  1  0
 10 12  1  0
  8 13  2  0
  9 13  1  0
  8 14  1  0
 11 15  2  0
 10 16  1  0
 16 17  1  0
 12 18  1  0
 13 19  1  0
 14 20  1  0
 19 20  1  0
 15 21  1  0
 16 21  2  0
 18 22  1  0
 18 23  2  0
M  END
