mac-x0572-mac-x0338
     RDKit          3D

 16 17  0  0  0  0  0  0  0  0999 V2000
   29.1260   56.2330   -6.6960 C   0  0  0  0  0  0  0  0  0  0  0  0
   29.3180   54.9810   -5.8770 C   0  0  0  0  0  0  0  0  0  0  0  0
   29.0190   53.8320   -6.5530 N   0  0  0  0  0  0  0  0  0  0  0  0
   29.7400   55.0150   -4.6050 C   0  0  0  0  0  0  0  0  0  0  0  0
   30.0460   56.1770   -3.9280 O   0  0  0  0  0  0  0  0  0  0  0  0
   29.8910   53.7180   -3.8870 C   0  0  0  0  0  0  0  0  0  0  0  0
   28.8960   52.7120   -5.9020 C   0  0  0  0  0  0  0  0  0  0  0  0
   30.6670   53.6550   -2.9350 O   0  0  0  0  0  0  0  0  0  0  0  0
   29.0520   52.5770   -4.4040 C   0  0  1  0  0  0  0  0  0  0  0  0
   28.5710   51.5110   -6.6780 C   0  0  0  0  0  0  0  0  0  0  0  0
   27.9880   51.6720   -8.0070 C   0  0  0  0  0  0  0  0  0  0  0  0
   28.8260   50.3020   -6.1490 C   0  0  0  0  0  0  0  0  0  0  0  0
   29.5310   51.2010   -4.0110 C   0  0  0  0  0  0  0  0  0  0  0  0
   27.9370   50.5820   -8.7960 N   0  0  0  0  0  0  0  0  0  0  0  0
   27.5780   52.7660   -8.3760 O   0  0  0  0  0  0  0  0  0  0  0  0
   29.4120   50.1470   -4.8380 C   0  0  0  0  0  0  0  0  0  0  0  0
  1  2  1  0
  2  3  1  0
  2  4  2  0
  4  5  1  0
  4  6  1  0
  3  7  2  0
  6  8  2  0
  6  9  1  0
  7  9  1  0
  7 10  1  0
 10 11  1  0
 10 12  2  0
  9 13  1  6
 11 14  1  0
 11 15  2  0
 12 16  1  0
 13 16  2  0
M  END
