mac-x0472-mac-x0509
     RDKit          3D

 28 31  0  0  0  0  0  0  0  0999 V2000
   29.7860   50.4610   -3.3880 O   0  0  0  0  0  0  0  0  0  0  0  0
   30.7150   49.5140   -3.9620 S   0  0  0  0  0  0  0  0  0  0  0  0
   31.1970   48.4070   -3.1600 O   0  0  0  0  0  0  0  0  0  0  0  0
   30.0760   48.7840   -5.3420 N   0  0  0  0  0  0  0  0  0  0  0  0
   32.1290   50.3850   -4.5860 C   0  0  0  0  0  0  0  0  0  0  0  0
   29.4570   49.7100   -6.2680 C   0  0  0  0  0  0  0  0  0  0  0  0
   33.2600   49.6710   -5.0020 C   0  0  0  0  0  0  0  0  0  0  0  0
   32.1070   51.7810   -4.6550 C   0  0  0  0  0  0  0  0  0  0  0  0
   29.1960   49.3810   -7.5120 N   0  0  0  0  0  0  0  0  0  0  0  0
   29.0110   51.3010   -5.8360 S   0  0  0  0  0  0  0  0  0  0  0  0
   34.3790   50.3570   -5.4920 C   0  0  0  0  0  0  0  0  0  0  0  0
   33.2190   52.4650   -5.1430 C   0  0  0  0  0  0  0  0  0  0  0  0
   35.6060   49.5990   -5.9440 C   0  0  0  0  0  0  0  0  0  0  0  0
   28.4530   51.4850   -7.4490 C   0  0  0  0  0  0  0  0  0  0  0  0
   28.6060   50.4220   -8.2080 N   0  0  0  0  0  0  0  0  0  0  0  0
   34.3500   51.7550   -5.5590 C   0  0  0  0  0  0  0  0  0  0  0  0
   36.0440   48.5700   -4.8970 C   0  0  0  0  0  0  0  0  0  0  0  0
   37.5630   48.4940   -4.7630 C   0  0  0  0  0  0  0  0  0  0  0  0
   38.0570   47.2310   -5.3040 N   0  0  0  0  0  0  0  0  0  0  0  0
   37.9540   46.1550   -4.6020 C   0  0  0  0  0  0  0  0  0  0  0  0
   37.3490   46.0190   -3.1870 C   0  0  0  0  0  0  0  0  0  0  0  0
   38.3920   44.9230   -5.0290 N   0  0  0  0  0  0  0  0  0  0  0  0
   37.5700   44.5530   -2.9140 C   0  0  0  0  0  0  0  0  0  0  0  0
   38.1870   43.9700   -4.0370 C   0  0  0  0  0  0  0  0  0  0  0  0
   37.2600   43.8120   -1.7920 C   0  0  0  0  0  0  0  0  0  0  0  0
   38.5010   42.6260   -4.0490 C   0  0  0  0  0  0  0  0  0  0  0  0
   37.5750   42.4520   -1.7980 C   0  0  0  0  0  0  0  0  0  0  0  0
   38.1920   41.8650   -2.9210 C   0  0  0  0  0  0  0  0  0  0  0  0
  1  2  2  0
  2  3  2  0
  2  4  1  0
  2  5  1  0
  4  6  1  0
  5  7  2  0
  5  8  1  0
  6  9  2  0
  6 10  1  0
  7 11  1  0
  8 12  2  0
 11 13  1  0
 10 14  1  0
  9 15  1  0
 14 15  2  0
 11 16  2  0
 12 16  1  0
 13 17  1  0
 17 18  1  0
 18 19  1  0
 19 20  2  3
 20 21  1  0
 20 22  1  0
 21 23  1  0
 22 24  1  0
 23 24  2  0
 23 25  1  0
 24 26  1  0
 25 27  2  0
 26 28  2  0
 27 28  1  0
M  END
