mac-x0584-mac-x0415
     RDKit          3D

 27 31  0  0  0  0  0  0  0  0999 V2000
   30.6810   47.1450   -0.9300 Br  0  0  0  0  0  0  0  0  0  0  0  0
   29.8570   46.8570   -2.6570 C   0  0  2  0  0  0  0  0  0  0  0  0
   30.3410   45.6370   -3.4630 C   0  0  1  0  0  0  0  0  0  0  0  0
   30.0830   48.0450   -3.5770 C   0  0  0  0  0  0  0  0  0  0  0  0
   30.2150   46.0840   -4.9610 C   0  0  1  0  0  0  0  0  0  0  0  0
   29.7560   47.4900   -4.8910 N   0  0  0  0  0  0  0  0  0  0  0  0
   31.6530   45.0000   -3.0210 C   0  0  0  0  0  0  0  0  0  0  0  0
   29.4830   44.4160   -3.1870 C   0  0  0  0  0  0  0  0  0  0  0  0
   32.9620   45.7380   -3.0530 C   0  0  0  0  0  0  0  0  0  0  0  0
   31.5130   45.9610   -5.7730 C   0  0  0  0  0  0  0  0  0  0  0  0
   29.2320   48.2730   -5.9150 C   0  0  0  0  0  0  0  0  0  0  0  0
   31.4010   43.7430   -2.6290 C   0  0  0  0  0  0  0  0  0  0  0  0
   30.0890   43.3720   -2.7240 N   0  0  0  0  0  0  0  0  0  0  0  0
   34.2110   44.9620   -3.4690 C   0  0  0  0  0  0  0  0  0  0  0  0
   31.4470   45.2570   -7.1620 C   0  0  0  0  0  0  0  0  0  0  0  0
   31.9900   47.2150   -6.5660 C   0  0  0  0  0  0  0  0  0  0  0  0
   28.5440   47.6440   -6.9340 N   0  0  0  0  0  0  0  0  0  0  0  0
   29.3240   49.6090   -6.0220 C   0  0  0  0  0  0  0  0  0  0  0  0
   35.2970   45.7650   -3.5330 O   0  0  0  0  0  0  0  0  0  0  0  0
   34.3200   43.7770   -3.7310 O   0  0  0  0  0  0  0  0  0  0  0  0
   32.5310   46.2450   -7.6300 C   0  0  0  0  0  0  0  0  0  0  0  0
   27.9990   48.3290   -7.9840 C   0  0  0  0  0  0  0  0  0  0  0  0
   28.7040   50.2940   -7.1870 C   0  0  0  0  0  0  0  0  0  0  0  0
   29.8940   50.6920   -5.2820 C   0  0  0  0  0  0  0  0  0  0  0  0
   28.0410   49.6090   -8.1640 N   0  0  0  0  0  0  0  0  0  0  0  0
   28.8740   51.5900   -7.1510 N   0  0  0  0  0  0  0  0  0  0  0  0
   29.5980   51.7970   -5.9850 C   0  0  0  0  0  0  0  0  0  0  0  0
  2  1  1  1
  2  3  1  0
  2  4  1  0
  3  5  1  0
  4  6  1  0
  5  6  1  0
  3  7  1  0
  3  8  1  6
  7  9  1  0
  5 10  1  1
  6 11  1  0
  7 12  2  0
  8 13  2  0
 12 13  1  0
  9 14  1  0
 10 15  1  0
 10 16  1  0
 11 17  1  0
 11 18  2  0
 14 19  1  0
 14 20  2  0
 15 21  1  0
 16 21  1  0
 17 22  1  0
 18 23  1  0
 18 24  1  0
 22 25  2  0
 23 25  1  0
 23 26  2  0
 24 27  2  0
 26 27  1  0
M  END
