mac-x0159-mac-x0398
     RDKit          3D

 27 30  0  0  0  0  0  0  0  0999 V2000
   27.0220   50.7050   -7.8510 N   0  0  0  0  0  0  0  0  0  0  0  0
   27.5210   49.5970   -7.0610 C   0  0  1  0  0  0  0  0  0  0  0  0
   28.9550   49.1900   -7.4150 C   0  0  1  0  0  0  0  0  0  0  0  0
   27.4140   50.0390   -5.6940 N   0  0  0  0  0  0  0  0  0  0  0  0
   27.7660   49.0030   -4.7340 C   0  0  0  0  0  0  0  0  0  0  0  0
   29.2870   48.0100   -6.5030 C   0  0  1  0  0  0  0  0  0  0  0  0
   29.2700   48.6330   -8.7410 N   0  0  0  0  0  0  0  0  0  0  0  0
   28.9160   48.1580   -5.0970 N   0  0  0  0  0  0  0  0  0  0  0  0
   28.5190   46.9840   -7.1950 N   0  0  0  0  0  0  0  0  0  0  0  0
   28.7390   47.2640   -8.6160 C   0  0  0  0  0  0  0  0  0  0  0  0
   29.9750   48.0020   -4.0570 C   0  0  1  0  0  0  0  0  0  0  0  0
   30.3070   49.2860   -3.2390 C   0  0  0  0  0  0  0  0  0  0  0  0
   29.6340   46.8050   -3.1830 C   0  0  0  0  0  0  0  0  0  0  0  0
   30.6670   49.2990   -2.0540 O   0  0  0  0  0  0  0  0  0  0  0  0
   29.7450   45.4720   -3.5610 C   0  0  0  0  0  0  0  0  0  0  0  0
   29.1630   46.9770   -1.8850 N   0  0  0  0  0  0  0  0  0  0  0  0
   30.2020   50.6270   -3.9020 C   0  0  0  0  0  0  0  0  0  0  0  0
   28.9280   45.8160   -1.3140 C   0  0  0  0  0  0  0  0  0  0  0  0
   29.2550   44.4400   -2.2860 S   0  0  0  0  0  0  0  0  0  0  0  0
   29.8100   51.7510   -3.1520 C   0  0  0  0  0  0  0  0  0  0  0  0
   30.4820   50.8070   -5.2630 C   0  0  0  0  0  0  0  0  0  0  0  0
   28.4150   45.6520    0.0720 C   0  0  0  0  0  0  0  0  0  0  0  0
   29.5160   51.6960   -1.8130 O   0  0  0  0  0  0  0  0  0  0  0  0
   29.6980   53.0110   -3.7460 C   0  0  0  0  0  0  0  0  0  0  0  0
   30.3680   52.0750   -5.8520 C   0  0  0  0  0  0  0  0  0  0  0  0
   29.9750   53.1840   -5.1020 C   0  0  0  0  0  0  0  0  0  0  0  0
   29.8620   54.4440   -5.7020 N   0  0  0  0  0  0  0  0  0  0  0  0
  2  1  1  6
  2  3  1  0
  2  4  1  0
  4  5  1  0
  3  6  1  0
  3  7  1  6
  5  8  1  0
  6  8  1  0
  6  9  1  6
  7 10  1  0
  9 10  1  0
  8 11  1  0
 11 12  1  1
 11 13  1  0
 12 14  2  0
 13 15  2  0
 13 16  1  0
 12 17  1  0
 16 18  2  0
 15 19  1  0
 18 19  1  0
 17 20  2  0
 17 21  1  0
 18 22  1  0
 20 23  1  0
 20 24  1  0
 21 25  2  0
 24 26  2  0
 25 26  1  0
 26 27  1  0
M  END
