mac-x0188-mac-x0365
     RDKit          3D

 19 21  0  0  0  0  0  0  0  0999 V2000
   32.3630   44.4470   -3.9620 C   0  0  0  0  0  0  0  0  0  0  0  0
   31.9580   45.8260   -3.6330 C   0  0  0  0  0  0  0  0  0  0  0  0
   32.4020   46.3320   -2.4480 O   0  0  0  0  0  0  0  0  0  0  0  0
   31.1990   46.7790   -4.2650 C   0  0  0  0  0  0  0  0  0  0  0  0
   30.4880   46.7580   -5.5590 C   0  0  0  0  0  0  0  0  0  0  0  0
   31.9320   47.6260   -2.2940 N   0  0  0  0  0  0  0  0  0  0  0  0
   31.2150   47.8830   -3.3900 C   0  0  0  0  0  0  0  0  0  0  0  0
   29.6400   45.6220   -5.6340 O   0  0  0  0  0  0  0  0  0  0  0  0
   31.4020   46.6540   -6.6370 O   0  0  0  0  0  0  0  0  0  0  0  0
   29.6050   48.0270   -5.7440 C   0  0  0  0  0  0  0  0  0  0  0  0
   30.5290   49.1290   -3.6760 C   0  0  0  0  0  0  0  0  0  0  0  0
   28.7810   48.0540   -6.6480 O   0  0  0  0  0  0  0  0  0  0  0  0
   30.6390   50.2420   -2.8310 C   0  0  0  0  0  0  0  0  0  0  0  0
   29.7390   49.2060   -4.8350 C   0  0  0  0  0  0  0  0  0  0  0  0
   29.9620   51.4130   -3.1550 C   0  0  0  0  0  0  0  0  0  0  0  0
   29.0600   50.3970   -5.1500 C   0  0  0  0  0  0  0  0  0  0  0  0
   30.0630   52.4820   -2.3550 F   0  0  0  0  0  0  0  0  0  0  0  0
   29.1800   51.4920   -4.3040 C   0  0  0  0  0  0  0  0  0  0  0  0
   28.5230   52.6500   -4.6150 O   0  0  0  0  0  0  0  0  0  0  0  0
  1  2  1  0
  2  3  1  0
  2  4  2  0
  4  5  1  0
  3  6  1  0
  4  7  1  0
  6  7  2  0
  5  8  1  0
  5  9  1  0
  5 10  1  0
  7 11  1  0
 10 12  2  0
 11 13  2  0
 10 14  1  0
 11 14  1  0
 13 15  1  0
 14 16  2  0
 15 17  1  0
 15 18  2  0
 16 18  1  0
 18 19  1  0
M  END
