mac-x0139-mac-x0228
     RDKit          3D

 26 29  0  0  0  0  0  0  0  0999 V2000
   30.6170   47.9800   -4.4200 C   0  0  0  0  0  0  0  0  0  0  0  0
   30.0740   47.2430   -5.5070 N   0  0  0  0  0  0  0  0  0  0  0  0
   30.4840   45.8140   -5.6350 C   0  0  0  0  0  0  0  0  0  0  0  0
   31.3090   47.4890   -3.5280 O   0  0  0  0  0  0  0  0  0  0  0  0
   30.3710   49.4390   -4.2820 C   0  0  0  0  0  0  0  0  0  0  0  0
   29.5140   47.8380   -6.6690 C   0  0  0  0  0  0  0  0  0  0  0  0
   30.6300   50.3300   -5.3370 C   0  0  0  0  0  0  0  0  0  0  0  0
   29.8690   49.9120   -3.0500 C   0  0  0  0  0  0  0  0  0  0  0  0
   32.0000   45.6140   -5.5290 C   0  0  0  0  0  0  0  0  0  0  0  0
   28.7520   48.9640   -6.6840 C   0  0  0  0  0  0  0  0  0  0  0  0
   29.8150   47.1450   -7.8540 N   0  0  0  0  0  0  0  0  0  0  0  0
   30.3710   51.6760   -5.1270 C   0  0  0  0  0  0  0  0  0  0  0  0
   29.6170   51.2730   -2.8610 C   0  0  0  0  0  0  0  0  0  0  0  0
   32.5180   44.7130   -6.6240 C   0  0  0  0  0  0  0  0  0  0  0  0
   28.2620   49.4290   -8.0100 C   0  0  0  0  0  0  0  0  0  0  0  0
   29.3480   47.5980   -8.9750 C   0  0  0  0  0  0  0  0  0  0  0  0
   28.2140   49.9420   -5.7930 C   0  0  0  0  0  0  0  0  0  0  0  0
   29.8760   52.1280   -3.9120 C   0  0  0  0  0  0  0  0  0  0  0  0
   30.5370   52.8290   -6.0390 C   0  0  0  0  0  0  0  0  0  0  0  0
   31.8400   43.9550   -7.3010 O   0  0  0  0  0  0  0  0  0  0  0  0
   33.8570   44.8200   -6.7920 O   0  0  0  0  0  0  0  0  0  0  0  0
   28.5810   48.7050   -9.1090 N   0  0  0  0  0  0  0  0  0  0  0  0
   27.5550   50.5210   -7.9270 N   0  0  0  0  0  0  0  0  0  0  0  0
   27.5420   50.8100   -6.5710 C   0  0  0  0  0  0  0  0  0  0  0  0
   29.6780   53.4850   -3.8700 O   0  0  0  0  0  0  0  0  0  0  0  0
   29.7430   53.8780   -5.2600 C   0  0  0  0  0  0  0  0  0  0  0  0
  1  2  1  0
  2  3  1  0
  1  4  2  0
  1  5  1  0
  2  6  1  0
  5  7  2  0
  5  8  1  0
  3  9  1  0
  6 10  2  0
  6 11  1  0
  7 12  1  0
  8 13  2  0
  9 14  1  0
 10 15  1  0
 11 16  2  0
 10 17  1  0
 12 18  2  0
 13 18  1  0
 12 19  1  0
 14 20  2  0
 14 21  1  0
 15 22  1  0
 16 22  1  0
 15 23  2  0
 17 24  2  0
 23 24  1  0
 18 25  1  0
 19 26  1  0
 25 26  1  0
M  END
