mac-x0224-mac-x0436
     RDKit          3D

 26 29  0  0  0  0  0  0  0  0999 V2000
   28.9320   52.4570   -5.6340 C   0  0  0  0  0  0  0  0  0  0  0  0
   28.8890   50.9380   -6.6280 S   0  0  0  0  0  0  0  0  0  0  0  0
   29.3740   49.7240   -5.4140 C   0  0  0  0  0  0  0  0  0  0  0  0
   30.2300   48.6620   -5.7200 C   0  0  0  0  0  0  0  0  0  0  0  0
   28.8750   49.8410   -4.1110 C   0  0  0  0  0  0  0  0  0  0  0  0
   30.5840   47.7260   -4.7350 C   0  0  0  0  0  0  0  0  0  0  0  0
   29.2240   48.9140   -3.1260 C   0  0  0  0  0  0  0  0  0  0  0  0
   31.4990   46.6360   -5.1570 C   0  0  0  0  0  0  0  0  0  0  0  0
   30.0760   47.8550   -3.4350 C   0  0  0  0  0  0  0  0  0  0  0  0
   30.4030   46.9560   -2.4550 O   0  0  0  0  0  0  0  0  0  0  0  0
   31.3540   46.1370   -6.3690 N   0  0  0  0  0  0  0  0  0  0  0  0
   32.5130   46.0730   -4.3990 N   0  0  0  0  0  0  0  0  0  0  0  0
   32.4030   45.0980   -6.4790 C   0  0  1  0  0  0  0  0  0  0  0  0
   32.8750   44.8160   -5.0360 C   0  0  0  0  0  0  0  0  0  0  0  0
   33.3910   46.7190   -3.4200 C   0  0  2  0  0  0  0  0  0  0  0  0
   31.9190   43.9140   -7.0930 O   0  0  0  0  0  0  0  0  0  0  0  0
   34.2240   47.9280   -4.0560 C   0  0  0  0  0  0  0  0  0  0  0  0
   34.2690   45.8170   -2.6180 N   0  0  0  0  0  0  0  0  0  0  0  0
   33.9570   48.4400   -5.1450 O   0  0  0  0  0  0  0  0  0  0  0  0
   35.3050   48.4180   -3.3410 N   0  0  0  0  0  0  0  0  0  0  0  0
   35.6710   46.0060   -3.0110 C   0  0  1  0  0  0  0  0  0  0  0  0
   36.0800   47.4560   -2.6070 C   0  0  1  0  0  0  0  0  0  0  0  0
   36.6200   45.0170   -2.3880 C   0  0  0  0  0  0  0  0  0  0  0  0
   37.9090   45.3550   -2.1900 C   0  0  0  0  0  0  0  0  0  0  0  0
   37.5530   47.6900   -2.7740 C   0  0  0  0  0  0  0  0  0  0  0  0
   38.4030   46.6670   -2.5690 C   0  0  0  0  0  0  0  0  0  0  0  0
  1  2  1  0
  2  3  1  0
  3  4  2  0
  3  5  1  0
  4  6  1  0
  5  7  2  0
  6  8  1  0
  6  9  2  0
  7  9  1  0
  9 10  1  0
  8 11  2  0
  8 12  1  0
 11 13  1  0
 12 14  1  0
 13 14  1  0
 15 12  1  6
 13 16  1  1
 15 17  1  0
 15 18  1  0
 17 19  2  0
 17 20  1  0
 18 21  1  0
 20 22  1  0
 21 22  1  0
 21 23  1  1
 23 24  2  0
 22 25  1  6
 24 26  1  0
 25 26  2  0
M  END
