mac-x0385-mac-x0302
     RDKit          3D

 23 24  0  0  0  0  0  0  0  0999 V2000
   26.6540   51.0080   -3.1240 C   0  0  0  0  0  0  0  0  0  0  0  0
   26.2760   50.5100   -4.4830 C   0  0  0  0  0  0  0  0  0  0  0  0
   25.1440   49.7440   -4.6680 C   0  0  0  0  0  0  0  0  0  0  0  0
   27.0210   50.7770   -5.6290 C   0  0  0  0  0  0  0  0  0  0  0  0
   28.1980   51.5550   -5.4890 N   0  0  0  0  0  0  0  0  0  0  0  0
   26.6470   50.3090   -6.8330 N   0  0  0  0  0  0  0  0  0  0  0  0
   24.7470   49.2630   -5.8580 N   0  0  0  0  0  0  0  0  0  0  0  0
   25.5270   49.5710   -6.9030 C   0  0  0  0  0  0  0  0  0  0  0  0
   29.4470   51.0930   -5.0170 C   0  0  0  0  0  0  0  0  0  0  0  0
   25.1190   49.0540   -8.2470 C   0  0  0  0  0  0  0  0  0  0  0  0
   30.1020   51.8000   -3.9900 C   0  0  0  0  0  0  0  0  0  0  0  0
   30.0740   49.9560   -5.5120 C   0  0  0  0  0  0  0  0  0  0  0  0
   29.5360   52.9310   -3.4600 O   0  0  0  0  0  0  0  0  0  0  0  0
   31.3330   51.3950   -3.4690 C   0  0  0  0  0  0  0  0  0  0  0  0
   31.3060   49.5340   -5.0040 C   0  0  0  0  0  0  0  0  0  0  0  0
   31.9400   50.2470   -3.9820 C   0  0  0  0  0  0  0  0  0  0  0  0
   33.2490   49.7370   -3.4860 C   0  0  0  0  0  0  0  0  0  0  0  0
   33.5080   48.3990   -3.6970 N   0  0  0  0  0  0  0  0  0  0  0  0
   34.0390   50.4890   -2.9250 O   0  0  0  0  0  0  0  0  0  0  0  0
   32.5870   47.3770   -3.2240 C   0  0  0  0  0  0  0  0  0  0  0  0
   32.8000   46.0760   -3.9790 C   0  0  0  0  0  0  0  0  0  0  0  0
   31.9960   45.0800   -3.5540 O   0  0  0  0  0  0  0  0  0  0  0  0
   33.6000   45.8830   -4.8860 O   0  0  0  0  0  0  0  0  0  0  0  0
  1  2  1  0
  2  3  2  0
  2  4  1  0
  4  5  1  0
  4  6  2  0
  3  7  1  0
  6  8  1  0
  7  8  2  0
  5  9  1  0
  8 10  1  0
  9 11  2  0
  9 12  1  0
 11 13  1  0
 11 14  1  0
 12 15  2  0
 14 16  2  0
 15 16  1  0
 16 17  1  0
 17 18  1  0
 17 19  2  0
 18 20  1  0
 20 21  1  0
 21 22  1  0
 21 23  2  0
M  END
