mac-x0398-mac-x0328
     RDKit          3D

 13 13  0  0  0  0  0  0  0  0999 V2000
   28.6310   54.0640   -6.6890 N   0  0  0  0  0  0  0  0  0  0  0  0
   28.9700   52.9380   -5.9240 C   0  0  0  0  0  0  0  0  0  0  0  0
   28.9860   51.6660   -6.5060 C   0  0  0  0  0  0  0  0  0  0  0  0
   29.2970   53.0700   -4.5720 C   0  0  0  0  0  0  0  0  0  0  0  0
   29.6370   51.9480   -3.8140 C   0  0  0  0  0  0  0  0  0  0  0  0
   29.3260   50.5350   -5.7510 C   0  0  0  0  0  0  0  0  0  0  0  0
   29.9550   52.0980   -2.4910 O   0  0  0  0  0  0  0  0  0  0  0  0
   29.6540   50.6780   -4.3980 C   0  0  0  0  0  0  0  0  0  0  0  0
   30.0190   49.4960   -3.5920 C   0  0  0  0  0  0  0  0  0  0  0  0
   30.2060   49.5380   -2.3760 O   0  0  0  0  0  0  0  0  0  0  0  0
   30.1940   48.1280   -4.2510 C   0  0  0  0  0  0  0  0  0  0  0  0
   30.7880   47.2870   -3.3810 O   0  0  0  0  0  0  0  0  0  0  0  0
   29.8580   47.8370   -5.3830 O   0  0  0  0  0  0  0  0  0  0  0  0
  1  2  1  0
  2  3  2  0
  2  4  1  0
  4  5  2  0
  3  6  1  0
  5  7  1  0
  5  8  1  0
  6  8  2  0
  8  9  1  0
  9 10  2  0
  9 11  1  0
 11 12  1  0
 11 13  2  0
M  END
