mac-x0337-mac-x0131
     RDKit          3D

 26 29  0  0  0  0  0  0  0  0999 V2000
   35.4330   51.7740   -6.4910 C   0  0  0  0  0  0  0  0  0  0  0  0
   34.1400   51.7240   -5.7390 C   0  0  0  0  0  0  0  0  0  0  0  0
   33.3020   52.8430   -5.7110 C   0  0  0  0  0  0  0  0  0  0  0  0
   33.7560   50.5650   -5.0570 C   0  0  0  0  0  0  0  0  0  0  0  0
   32.5530   50.5310   -4.3470 C   0  0  0  0  0  0  0  0  0  0  0  0
   32.1010   52.8090   -5.0030 C   0  0  0  0  0  0  0  0  0  0  0  0
   31.7200   51.6590   -4.3130 C   0  0  0  0  0  0  0  0  0  0  0  0
   30.1590   51.6670   -3.3780 S   0  0  0  0  0  0  0  0  0  0  0  0
   30.3170   50.6060   -2.3430 O   0  0  0  0  0  0  0  0  0  0  0  0
   29.2160   51.1640   -4.6240 N   0  0  0  0  0  0  0  0  0  0  0  0
   29.0170   49.7200   -4.7890 C   0  0  2  0  0  0  0  0  0  0  0  0
   29.9240   48.8310   -3.8920 C   0  0  1  0  0  0  0  0  0  0  0  0
   29.5050   49.2730   -6.1700 C   0  0  1  0  0  0  0  0  0  0  0  0
   29.3710   48.6750   -2.4690 C   0  0  0  0  0  0  0  0  0  0  0  0
   29.8610   47.7930   -6.0290 C   0  0  1  0  0  0  0  0  0  0  0  0
   29.8290   47.5440   -4.5880 N   0  0  0  0  0  0  0  0  0  0  0  0
   28.5320   49.4950   -7.3110 C   0  0  0  0  0  0  0  0  0  0  0  0
   30.5760   46.4140   -4.0360 C   0  0  0  0  0  0  0  0  0  0  0  0
   28.8330   48.6830   -8.4890 N   0  0  0  0  0  0  0  0  0  0  0  0
   28.8640   47.0240   -6.7610 N   0  0  0  0  0  0  0  0  0  0  0  0
   29.0130   47.2730   -8.1870 C   0  0  0  0  0  0  0  0  0  0  0  0
   31.9860   46.2920   -4.5040 C   0  0  0  0  0  0  0  0  0  0  0  0
   32.6360   45.3780   -5.3090 C   0  0  0  0  0  0  0  0  0  0  0  0
   32.8670   47.2500   -4.0890 O   0  0  0  0  0  0  0  0  0  0  0  0
   34.0740   46.9420   -4.6270 C   0  0  0  0  0  0  0  0  0  0  0  0
   33.9840   45.8000   -5.3860 C   0  0  0  0  0  0  0  0  0  0  0  0
  1  2  1  0
  2  3  2  0
  2  4  1  0
  4  5  2  0
  3  6  1  0
  5  7  1  0
  6  7  2  0
  7  8  1  0
  8  9  2  0
  8 10  1  6
 11 10  1  1
 11 12  1  0
 11 13  1  0
 12 14  1  1
 13 15  1  0
 12 16  1  0
 15 16  1  0
 13 17  1  6
 16 18  1  0
 17 19  1  0
 15 20  1  6
 19 21  1  0
 20 21  1  0
 18 22  1  0
 22 23  2  0
 22 24  1  0
 24 25  1  0
 23 26  1  0
 25 26  2  0
M  END
