mac-x0365-mac-x0123
     RDKit          3D

 19 21  0  0  0  0  0  0  0  0999 V2000
   30.8510   48.0180   -6.2960 O   0  0  0  0  0  0  0  0  0  0  0  0
   30.6360   48.8200   -5.2310 C   0  0  0  0  0  0  0  0  0  0  0  0
   31.3850   48.7490   -4.2670 O   0  0  0  0  0  0  0  0  0  0  0  0
   29.4400   49.7260   -5.4120 C   0  0  1  0  0  0  0  0  0  0  0  0
   28.7060   50.0440   -4.0970 C   0  0  0  0  0  0  0  0  0  0  0  0
   29.7880   51.1180   -5.9520 C   0  0  0  0  0  0  0  0  0  0  0  0
   28.5280   51.9020   -5.5870 C   0  0  2  0  0  0  0  0  0  0  0  0
   28.3810   51.4770   -4.1970 N   0  0  0  0  0  0  0  0  0  0  0  0
   27.4280   51.3500   -6.3730 N   0  0  0  0  0  0  0  0  0  0  0  0
   28.8510   52.3440   -3.1250 C   0  0  2  0  0  0  0  0  0  0  0  0
   28.6730   53.4460   -5.6850 C   0  0  1  0  0  0  0  0  0  0  0  0
   29.3020   51.6010   -2.0810 F   0  0  0  0  0  0  0  0  0  0  0  0
   27.6510   53.1820   -2.5860 C   0  0  0  0  0  0  0  0  0  0  0  0
   29.9810   53.1520   -3.5410 N   0  0  0  0  0  0  0  0  0  0  0  0
   29.6970   54.0240   -4.6730 C   0  0  1  0  0  0  0  0  0  0  0  0
   29.1740   53.9770   -6.9960 C   0  0  0  0  0  0  0  0  0  0  0  0
   27.8520   54.5990   -2.6990 O   0  0  0  0  0  0  0  0  0  0  0  0
   30.9610   54.2950   -5.5090 C   0  0  0  0  0  0  0  0  0  0  0  0
   30.4270   54.4420   -6.8950 C   0  0  0  0  0  0  0  0  0  0  0  0
  1  2  1  0
  2  3  2  0
  4  2  1  1
  4  5  1  0
  4  6  1  0
  6  7  1  0
  5  8  1  0
  7  8  1  0
  7  9  1  6
  8 10  1  0
  7 11  1  0
 10 12  1  1
 10 13  1  0
 10 14  1  0
 11 15  1  0
 14 15  1  0
 11 16  1  6
 13 17  1  0
 15 18  1  6
 16 19  2  0
 18 19  1  0
M  END
