mac-x0319-mac-x0358
     RDKit          3D

 18 19  0  0  0  0  0  0  0  0999 V2000
   34.2460   45.8350   -6.1440 O   0  0  0  0  0  0  0  0  0  0  0  0
   32.9160   45.7380   -5.8940 C   0  0  0  0  0  0  0  0  0  0  0  0
   32.0980   45.9590   -6.7820 O   0  0  0  0  0  0  0  0  0  0  0  0
   32.5220   45.3340   -4.4590 C   0  0  2  0  0  0  0  0  0  0  0  0
   31.0470   45.2890   -4.1530 C   0  0  0  0  0  0  0  0  0  0  0  0
   32.8730   46.3010   -3.3420 C   0  0  0  0  0  0  0  0  0  0  0  0
   30.2530   44.1470   -4.0770 C   0  0  0  0  0  0  0  0  0  0  0  0
   30.4710   46.5460   -3.9010 C   0  0  0  0  0  0  0  0  0  0  0  0
   33.9680   47.1490   -3.2460 C   0  0  0  0  0  0  0  0  0  0  0  0
   31.9250   46.3180   -2.2910 C   0  0  0  0  0  0  0  0  0  0  0  0
   34.8990   47.1520   -4.2440 O   0  0  0  0  0  0  0  0  0  0  0  0
   28.9070   44.2920   -3.7430 C   0  0  0  0  0  0  0  0  0  0  0  0
   29.1350   46.6750   -3.5710 C   0  0  0  0  0  0  0  0  0  0  0  0
   34.1150   47.9930   -2.1420 C   0  0  0  0  0  0  0  0  0  0  0  0
   32.0620   47.1520   -1.1960 C   0  0  0  0  0  0  0  0  0  0  0  0
   28.0860   43.2120   -3.6480 O   0  0  0  0  0  0  0  0  0  0  0  0
   28.3500   45.5390   -3.4900 C   0  0  0  0  0  0  0  0  0  0  0  0
   33.1600   47.9940   -1.1210 C   0  0  0  0  0  0  0  0  0  0  0  0
  1  2  1  0
  2  3  2  0
  4  2  1  6
  4  5  1  0
  4  6  1  0
  5  7  2  0
  5  8  1  0
  6  9  2  0
  6 10  1  0
  9 11  1  0
  7 12  1  0
  8 13  2  0
  9 14  1  0
 10 15  2  0
 12 16  1  0
 12 17  2  0
 13 17  1  0
 14 18  2  0
 15 18  1  0
M  END
