mac-x0179-mac-x0161
     RDKit          3D

 32 36  0  0  0  0  0  0  0  0999 V2000
   32.1160   44.8040   -5.4850 O   0  0  0  0  0  0  0  0  0  0  0  0
   33.2340   45.2170   -4.8410 C   0  0  0  0  0  0  0  0  0  0  0  0
   34.1720   45.7120   -5.4530 O   0  0  0  0  0  0  0  0  0  0  0  0
   33.1230   44.9730   -3.3400 C   0  0  0  0  0  0  0  0  0  0  0  0
   34.2870   45.4120   -2.5850 N   0  0  0  0  0  0  0  0  0  0  0  0
   35.0180   44.4910   -1.8620 C   0  0  0  0  0  0  0  0  0  0  0  0
   34.7950   46.7040   -2.4360 C   0  0  0  0  0  0  0  0  0  0  0  0
   34.7720   43.3190   -1.6430 O   0  0  0  0  0  0  0  0  0  0  0  0
   34.2220   47.8220   -2.8550 C   0  0  0  0  0  0  0  0  0  0  0  0
   36.2010   45.2080   -1.3820 C   0  0  0  0  0  0  0  0  0  0  0  0
   36.0780   46.5540   -1.7240 C   0  0  0  0  0  0  0  0  0  0  0  0
   34.7730   49.2140   -2.6940 C   0  0  0  0  0  0  0  0  0  0  0  0
   37.2860   44.6860   -0.6980 C   0  0  0  0  0  0  0  0  0  0  0  0
   37.0950   47.4260   -1.3650 C   0  0  0  0  0  0  0  0  0  0  0  0
   32.9770   47.7990   -3.5190 C   0  0  0  0  0  0  0  0  0  0  0  0
   38.3010   45.5690   -0.3410 C   0  0  0  0  0  0  0  0  0  0  0  0
   38.2090   46.9280   -0.6710 C   0  0  0  0  0  0  0  0  0  0  0  0
   31.7590   47.7580   -2.8240 C   0  0  0  0  0  0  0  0  0  0  0  0
   32.8030   47.7990   -4.8450 N   0  0  0  0  0  0  0  0  0  0  0  0
   30.8130   47.7250   -3.8040 C   0  0  0  0  0  0  0  0  0  0  0  0
   31.4300   47.7490   -5.0190 O   0  0  0  0  0  0  0  0  0  0  0  0
   29.3340   47.6690   -3.7640 C   0  0  0  0  0  0  0  0  0  0  0  0
   28.7820   48.8460   -4.4320 N   0  0  0  0  0  0  0  0  0  0  0  0
   29.1000   50.0600   -3.7200 C   0  0  0  0  0  0  0  0  0  0  0  0
   29.1710   48.9210   -5.8310 C   0  0  2  0  0  0  0  0  0  0  0  0
   28.2260   51.0870   -4.2470 N   0  0  0  0  0  0  0  0  0  0  0  0
   28.8600   50.2530   -6.5390 C   0  0  2  0  0  0  0  0  0  0  0  0
   28.3680   47.9350   -6.5810 N   0  0  0  0  0  0  0  0  0  0  0  0
   28.6460   51.4570   -5.5740 C   0  0  1  0  0  0  0  0  0  0  0  0
   27.7710   49.9540   -7.4890 N   0  0  0  0  0  0  0  0  0  0  0  0
   28.0540   48.5840   -7.8480 C   0  0  0  0  0  0  0  0  0  0  0  0
   27.5940   52.3440   -6.0250 N   0  0  0  0  0  0  0  0  0  0  0  0
  1  2  1  0
  2  3  2  0
  2  4  1  0
  4  5  1  0
  5  6  1  0
  5  7  1  0
  6  8  2  0
  7  9  2  3
  6 10  1  0
  7 11  1  0
 10 11  2  0
  9 12  1  0
 10 13  1  0
 11 14  1  0
  9 15  1  0
 13 16  2  0
 14 17  2  0
 16 17  1  0
 15 18  1  0
 15 19  2  0
 18 20  2  0
 19 21  1  0
 20 21  1  0
 20 22  1  0
 22 23  1  0
 23 24  1  0
 23 25  1  0
 24 26  1  0
 25 27  1  0
 25 28  1  6
 26 29  1  0
 27 29  1  0
 27 30  1  1
 28 31  1  0
 30 31  1  0
 29 32  1  6
M  END
