mac-x0587-mac-x0380
     RDKit          3D

 27 29  0  0  0  0  0  0  0  0999 V2000
   30.2620   47.0480   -1.7940 C   0  0  0  0  0  0  0  0  0  0  0  0
   30.6090   46.7930   -3.2600 C   0  0  2  0  0  0  0  0  0  0  0  0
   32.4530   46.9290   -3.4380 S   0  0  0  0  0  0  0  0  0  0  0  0
   29.7470   47.6070   -4.2800 C   0  0  1  0  0  0  0  0  0  0  0  0
   32.6840   46.5640   -5.2130 C   0  0  0  0  0  0  0  0  0  0  0  0
   29.5020   48.9870   -3.8400 N   0  0  0  0  0  0  0  0  0  0  0  0
   30.2380   47.7130   -5.6450 N   0  0  0  0  0  0  0  0  0  0  0  0
   33.6190   45.4120   -5.4980 C   0  0  0  0  0  0  0  0  0  0  0  0
   28.8600   49.5350   -4.8080 C   0  0  0  0  0  0  0  0  0  0  0  0
   31.0730   48.8490   -6.0000 C   0  0  0  0  0  0  0  0  0  0  0  0
   29.4990   47.3680   -6.7770 C   0  0  0  0  0  0  0  0  0  0  0  0
   34.8390   45.3970   -5.5070 O   0  0  0  0  0  0  0  0  0  0  0  0
   32.9370   44.2800   -5.7800 O   0  0  0  0  0  0  0  0  0  0  0  0
   28.9460   46.3180   -7.0390 O   0  0  0  0  0  0  0  0  0  0  0  0
   30.2790   49.5390   -7.0970 C   0  0  0  0  0  0  0  0  0  0  0  0
   29.4780   48.4720   -7.6240 N   0  0  0  0  0  0  0  0  0  0  0  0
   28.4240   50.9290   -4.9200 C   0  0  0  0  0  0  0  0  0  0  0  0
   29.0560   51.9540   -4.2120 C   0  0  0  0  0  0  0  0  0  0  0  0
   27.3570   51.2020   -5.7790 C   0  0  0  0  0  0  0  0  0  0  0  0
   28.6030   53.2690   -4.3860 C   0  0  0  0  0  0  0  0  0  0  0  0
   26.9130   52.5060   -5.9460 C   0  0  0  0  0  0  0  0  0  0  0  0
   27.5410   53.5350   -5.2510 C   0  0  0  0  0  0  0  0  0  0  0  0
   29.3880   54.6000   -3.5070 S   0  0  0  0  0  0  0  0  0  0  0  0
   27.0900   54.8380   -5.4400 N   0  0  0  0  0  0  0  0  0  0  0  0
   29.2340   55.8990   -4.7640 C   0  0  0  0  0  0  0  0  0  0  0  0
   27.9170   55.9210   -5.5180 C   0  0  0  0  0  0  0  0  0  0  0  0
   27.5800   56.8870   -6.2080 O   0  0  0  0  0  0  0  0  0  0  0  0
  2  1  1  1
  2  3  1  0
  2  4  1  0
  3  5  1  0
  4  6  1  1
  4  7  1  0
  5  8  1  0
  6  9  2  3
  7 10  1  0
  7 11  1  0
  8 12  2  0
  8 13  1  0
 11 14  2  0
 10 15  1  0
 11 16  1  0
 15 16  1  0
  9 17  1  0
 17 18  2  0
 17 19  1  0
 18 20  1  0
 19 21  2  0
 20 22  2  0
 21 22  1  0
 20 23  1  0
 22 24  1  0
 23 25  1  0
 24 26  1  0
 25 26  1  0
 26 27  2  0
M  END
