mac-x0123-mac-x0496
     RDKit          3D

 26 29  0  0  0  0  0  0  0  0999 V2000
   28.6240   50.5220   -6.9620 N   0  0  0  0  0  0  0  0  0  0  0  0
   29.1890   51.6350   -6.1510 C   0  0  1  0  0  0  0  0  0  0  0  0
   28.1610   52.7950   -6.1900 C   0  0  1  0  0  0  0  0  0  0  0  0
   29.6370   51.1750   -4.7250 C   0  0  2  0  0  0  0  0  0  0  0  0
   28.8650   49.9240   -4.2170 C   0  0  0  0  0  0  0  0  0  0  0  0
   29.6060   52.2560   -3.6040 C   0  0  2  0  0  0  0  0  0  0  0  0
   27.9160   53.5720   -4.8720 C   0  0  1  0  0  0  0  0  0  0  0  0
   28.5620   53.9200   -7.1140 C   0  0  0  0  0  0  0  0  0  0  0  0
   31.0960   50.7900   -4.7760 N   0  0  0  0  0  0  0  0  0  0  0  0
   28.5740   48.9550   -4.9080 O   0  0  0  0  0  0  0  0  0  0  0  0
   28.5220   49.9360   -2.9050 O   0  0  0  0  0  0  0  0  0  0  0  0
   29.0960   53.5810   -3.9840 N   0  0  0  0  0  0  0  0  0  0  0  0
   27.3760   54.9230   -5.3770 C   0  0  0  0  0  0  0  0  0  0  0  0
   28.1250   55.0980   -6.6610 C   0  0  0  0  0  0  0  0  0  0  0  0
   30.9990   52.3580   -3.1680 N   0  0  0  0  0  0  0  0  0  0  0  0
   31.5240   51.0320   -3.4160 C   0  0  0  0  0  0  0  0  0  0  0  0
   29.9670   54.6760   -3.9840 C   0  0  0  0  0  0  0  0  0  0  0  0
   29.7070   55.6060   -4.9530 N   0  0  0  0  0  0  0  0  0  0  0  0
   30.8770   54.7870   -3.1710 O   0  0  0  0  0  0  0  0  0  0  0  0
   29.6670   57.0440   -4.7170 C   0  0  0  0  0  0  0  0  0  0  0  0
   28.2880   57.5870   -4.8980 C   0  0  0  0  0  0  0  0  0  0  0  0
   27.7500   58.2480   -3.8290 O   0  0  0  0  0  0  0  0  0  0  0  0
   27.4720   57.5440   -5.9380 N   0  0  0  0  0  0  0  0  0  0  0  0
   26.3710   58.2150   -5.4720 C   0  0  0  0  0  0  0  0  0  0  0  0
   26.4740   58.6650   -4.2160 N   0  0  0  0  0  0  0  0  0  0  0  0
   25.1620   58.4290   -6.2890 C   0  0  0  0  0  0  0  0  0  0  0  0
  2  1  1  1
  2  3  1  0
  2  4  1  0
  4  5  1  1
  4  6  1  0
  3  7  1  0
  3  8  1  6
  4  9  1  0
  5 10  2  0
  5 11  1  0
  6 12  1  0
  7 12  1  0
  7 13  1  6
  8 14  2  0
 13 14  1  0
  6 15  1  6
  9 16  1  0
 15 16  1  0
 12 17  1  0
 17 18  1  0
 17 19  2  0
 18 20  1  0
 20 21  1  0
 21 22  1  0
 21 23  2  0
 23 24  1  0
 22 25  1  0
 24 25  2  0
 24 26  1  0
M  END
