mac-x0402-mac-x0392
     RDKit          3D

 14 15  0  0  0  0  0  0  0  0999 V2000
   30.5910   47.8330   -4.4400 N   0  0  0  0  0  0  0  0  0  0  0  0
   29.9350   46.7730   -5.1700 C   0  0  0  0  0  0  0  0  0  0  0  0
   30.1030   45.5900   -4.4310 O   0  0  0  0  0  0  0  0  0  0  0  0
   30.1880   49.1740   -4.6290 C   0  0  0  0  0  0  0  0  0  0  0  0
   30.1400   50.1030   -3.5830 C   0  0  0  0  0  0  0  0  0  0  0  0
   29.8160   49.5950   -5.9430 C   0  0  0  0  0  0  0  0  0  0  0  0
   29.8560   48.6720   -7.0230 N   0  0  0  0  0  0  0  0  0  0  0  0
   29.4140   50.9340   -6.1340 C   0  0  0  0  0  0  0  0  0  0  0  0
   29.7390   51.4260   -3.7980 C   0  0  0  0  0  0  0  0  0  0  0  0
   29.3700   51.8540   -5.0870 C   0  0  0  0  0  0  0  0  0  0  0  0
   28.9140   51.7380   -7.5780 S   0  0  0  0  0  0  0  0  0  0  0  0
   28.6920   53.1890   -6.7030 C   0  0  0  0  0  0  0  0  0  0  0  0
   28.9580   53.1310   -5.4240 N   0  0  0  0  0  0  0  0  0  0  0  0
   28.2670   54.3120   -7.3090 N   0  0  0  0  0  0  0  0  0  0  0  0
  1  2  1  0
  2  3  1  0
  1  4  1  0
  4  5  2  0
  4  6  1  0
  6  7  1  0
  6  8  2  0
  5  9  1  0
  8 10  1  0
  9 10  2  0
  8 11  1  0
 11 12  1  0
 10 13  1  0
 12 13  2  0
 12 14  1  0
M  END
