mac-x0206-mac-x0328
     RDKit          3D

 19 20  0  0  0  0  0  0  0  0999 V2000
   26.6080   51.2600   -6.2120 N   0  0  0  0  0  0  0  0  0  0  0  0
   26.9290   51.9110   -5.0480 C   0  0  0  0  0  0  0  0  0  0  0  0
   26.4680   51.5300   -3.9810 O   0  0  0  0  0  0  0  0  0  0  0  0
   27.8400   53.0800   -5.1690 C   0  0  0  0  0  0  0  0  0  0  0  0
   29.0620   53.1270   -4.4850 C   0  0  0  0  0  0  0  0  0  0  0  0
   27.4700   54.1620   -5.9900 C   0  0  0  0  0  0  0  0  0  0  0  0
   29.4430   52.0800   -3.6780 O   0  0  0  0  0  0  0  0  0  0  0  0
   29.9020   54.2440   -4.6200 C   0  0  0  0  0  0  0  0  0  0  0  0
   28.3120   55.2700   -6.1190 C   0  0  0  0  0  0  0  0  0  0  0  0
   29.5250   55.3100   -5.4360 C   0  0  0  0  0  0  0  0  0  0  0  0
   30.4050   51.2350   -4.1800 C   0  0  0  0  0  0  0  0  0  0  0  0
   31.4110   51.6670   -5.0550 C   0  0  0  0  0  0  0  0  0  0  0  0
   30.3450   49.9000   -3.7810 C   0  0  0  0  0  0  0  0  0  0  0  0
   31.2960   48.9970   -4.2590 C   0  0  0  0  0  0  0  0  0  0  0  0
   32.3560   50.7610   -5.5290 C   0  0  0  0  0  0  0  0  0  0  0  0
   31.2170   47.5840   -3.8230 C   0  0  0  0  0  0  0  0  0  0  0  0
   32.3040   49.4230   -5.1350 C   0  0  0  0  0  0  0  0  0  0  0  0
   31.8450   47.3670   -2.6480 O   0  0  0  0  0  0  0  0  0  0  0  0
   30.6440   46.7190   -4.4620 O   0  0  0  0  0  0  0  0  0  0  0  0
  1  2  1  0
  2  3  2  0
  2  4  1  0
  4  5  2  0
  4  6  1  0
  5  7  1  0
  5  8  1  0
  6  9  2  0
  8 10  2  0
  9 10  1  0
  7 11  1  0
 11 12  2  0
 11 13  1  0
 13 14  2  0
 12 15  1  0
 14 16  1  0
 14 17  1  0
 15 17  2  0
 16 18  1  0
 16 19  2  0
M  END
