mac-x0546-mac-x0306
     RDKit          3D

 28 31  0  0  0  0  0  0  0  0999 V2000
   31.2290   48.4170    0.1620 C   0  0  0  0  0  0  0  0  0  0  0  0
   29.9490   48.2790   -0.5230 N   0  0  0  0  0  0  0  0  0  0  0  0
   29.4540   49.6000   -0.9050 C   0  0  0  0  0  0  0  0  0  0  0  0
   29.7730   47.2810   -1.4770 C   0  0  0  0  0  0  0  0  0  0  0  0
   30.4370   50.2540   -1.8700 C   0  0  0  0  0  0  0  0  0  0  0  0
   30.7320   46.9860   -2.3810 C   0  0  0  0  0  0  0  0  0  0  0  0
   28.5050   46.5400   -1.5250 C   0  0  0  0  0  0  0  0  0  0  0  0
   30.5000   45.9550   -3.4310 C   0  0  2  0  0  0  0  0  0  0  0  0
   28.3440   45.3790   -2.1950 C   0  0  0  0  0  0  0  0  0  0  0  0
   29.9550   50.6390   -3.2370 C   0  0  0  0  0  0  0  0  0  0  0  0
   29.5570   44.9120   -2.8740 C   0  0  0  0  0  0  0  0  0  0  0  0
   31.5590   45.0010   -3.8780 C   0  0  0  0  0  0  0  0  0  0  0  0
   29.8350   51.9690   -3.5800 C   0  0  0  0  0  0  0  0  0  0  0  0
   29.6510   49.6380   -4.1050 N   0  0  0  0  0  0  0  0  0  0  0  0
   32.8640   45.4130   -4.4730 C   0  0  0  0  0  0  0  0  0  0  0  0
   29.8980   43.6710   -3.0560 N   0  0  0  0  0  0  0  0  0  0  0  0
   31.1270   43.7490   -3.6620 C   0  0  0  0  0  0  0  0  0  0  0  0
   29.2210   49.9840   -5.3390 C   0  0  0  0  0  0  0  0  0  0  0  0
   29.3940   52.3060   -4.8480 C   0  0  0  0  0  0  0  0  0  0  0  0
   32.7230   45.9810   -5.8650 C   0  0  0  0  0  0  0  0  0  0  0  0
   29.2720   53.7080   -5.2120 C   0  0  0  0  0  0  0  0  0  0  0  0
   29.0780   51.2960   -5.7540 C   0  0  0  0  0  0  0  0  0  0  0  0
   31.7460   45.8990   -6.5910 O   0  0  0  0  0  0  0  0  0  0  0  0
   33.8300   46.6290   -6.2740 O   0  0  0  0  0  0  0  0  0  0  0  0
   28.7800   54.1910   -6.3990 N   0  0  0  0  0  0  0  0  0  0  0  0
   29.6320   54.7060   -4.4260 N   0  0  0  0  0  0  0  0  0  0  0  0
   29.3680   55.8510   -5.1190 C   0  0  0  0  0  0  0  0  0  0  0  0
   28.8380   55.5570   -6.3490 C   0  0  0  0  0  0  0  0  0  0  0  0
  1  2  1  0
  2  3  1  0
  2  4  1  0
  3  5  1  0
  4  6  2  0
  4  7  1  0
  8  6  1  1
  7  9  2  0
  5 10  1  0
  8 11  1  0
  9 11  1  0
  8 12  1  0
 10 13  2  0
 10 14  1  0
 12 15  1  0
 11 16  2  0
 12 17  2  0
 16 17  1  0
 14 18  2  0
 13 19  1  0
 15 20  1  0
 19 21  1  0
 18 22  1  0
 19 22  2  0
 20 23  2  0
 20 24  1  0
 21 25  1  0
 21 26  2  0
 26 27  1  0
 25 28  1  0
 27 28  2  0
M  END
