mac-x0319-mac-x0282
     RDKit          3D

 21 23  0  0  0  0  0  0  0  0999 V2000
   33.5750   45.9500   -7.0500 O   0  0  0  0  0  0  0  0  0  0  0  0
   32.5760   45.4960   -6.2700 C   0  0  0  0  0  0  0  0  0  0  0  0
   31.3550   45.5530   -6.6630 N   0  0  0  0  0  0  0  0  0  0  0  0
   32.9670   44.9690   -4.9350 C   0  0  0  0  0  0  0  0  0  0  0  0
   30.8840   46.1060   -7.9140 C   0  0  0  0  0  0  0  0  0  0  0  0
   31.7970   45.3180   -4.0600 C   0  0  0  0  0  0  0  0  0  0  0  0
   30.6770   44.4770   -4.0140 C   0  0  0  0  0  0  0  0  0  0  0  0
   31.7960   46.4930   -3.2920 C   0  0  0  0  0  0  0  0  0  0  0  0
   30.1340   47.3790   -7.5920 C   0  0  0  0  0  0  0  0  0  0  0  0
   29.5870   44.8090   -3.2230 C   0  0  0  0  0  0  0  0  0  0  0  0
   30.6960   46.8180   -2.5000 C   0  0  0  0  0  0  0  0  0  0  0  0
   30.2450   47.9860   -6.3260 C   0  0  0  0  0  0  0  0  0  0  0  0
   29.3230   47.9930   -8.5410 C   0  0  0  0  0  0  0  0  0  0  0  0
   28.5230   43.9520   -3.2220 O   0  0  0  0  0  0  0  0  0  0  0  0
   29.5830   45.9750   -2.4620 C   0  0  0  0  0  0  0  0  0  0  0  0
   29.5480   49.1850   -6.1000 C   0  0  0  0  0  0  0  0  0  0  0  0
   28.6250   49.1430   -8.3740 N   0  0  0  0  0  0  0  0  0  0  0  0
   29.4020   50.0940   -5.0180 C   0  0  0  0  0  0  0  0  0  0  0  0
   28.7870   49.6800   -7.1490 C   0  0  0  0  0  0  0  0  0  0  0  0
   28.5680   51.1110   -5.4390 C   0  0  0  0  0  0  0  0  0  0  0  0
   28.2040   50.8440   -6.7340 N   0  0  0  0  0  0  0  0  0  0  0  0
  1  2  1  0
  2  3  2  3
  2  4  1  0
  3  5  1  0
  4  6  1  0
  6  7  2  0
  6  8  1  0
  5  9  1  0
  7 10  1  0
  8 11  2  0
  9 12  2  0
  9 13  1  0
 10 14  1  0
 10 15  2  0
 11 15  1  0
 12 16  1  0
 13 17  2  0
 16 18  1  0
 16 19  2  0
 17 19  1  0
 18 20  2  0
 19 21  1  0
 20 21  1  0
M  END
