mac-x0373-mac-x0588
     RDKit          3D

 26 29  0  0  0  0  0  0  0  0999 V2000
   31.6390   45.6090   -6.1920 O   0  0  0  0  0  0  0  0  0  0  0  0
   30.4500   45.8470   -5.5750 C   0  0  0  0  0  0  0  0  0  0  0  0
   29.4390   45.2720   -5.9630 O   0  0  0  0  0  0  0  0  0  0  0  0
   30.5110   46.8650   -4.3770 C   0  0  1  0  0  0  0  0  0  0  0  0
   31.9780   47.3700   -4.1880 C   0  0  0  0  0  0  0  0  0  0  0  0
   29.4500   48.0910   -4.6160 C   0  0  1  0  0  0  0  0  0  0  0  0
   30.0770   45.9170   -3.1920 C   0  0  1  0  0  0  0  0  0  0  0  0
   32.9980   46.5530   -3.6590 C   0  0  0  0  0  0  0  0  0  0  0  0
   32.3430   48.6870   -4.5440 C   0  0  0  0  0  0  0  0  0  0  0  0
   29.6740   49.2110   -3.5900 C   0  0  0  0  0  0  0  0  0  0  0  0
   29.0610   48.7900   -6.0100 C   0  0  1  0  0  0  0  0  0  0  0  0
   30.0620   46.6510   -1.9280 O   0  0  0  0  0  0  0  0  0  0  0  0
   28.7000   45.2360   -3.2870 C   0  0  0  0  0  0  0  0  0  0  0  0
   34.3060   47.0270   -3.4960 C   0  0  0  0  0  0  0  0  0  0  0  0
   33.6490   49.1600   -4.3810 C   0  0  0  0  0  0  0  0  0  0  0  0
   29.1710   50.4500   -3.6680 C   0  0  0  0  0  0  0  0  0  0  0  0
   27.9230   49.8720   -5.8340 C   0  0  2  0  0  0  0  0  0  0  0  0
   30.2140   49.6110   -6.5500 N   0  0  0  0  0  0  0  0  0  0  0  0
   28.7960   47.8980   -7.2230 C   0  0  0  0  0  0  0  0  0  0  0  0
   28.0400   45.4940   -1.9500 C   0  0  0  0  0  0  0  0  0  0  0  0
   28.6960   46.7740   -1.5080 C   0  0  0  0  0  0  0  0  0  0  0  0
   27.4710   50.5110   -7.0790 N   0  0  0  0  0  0  0  0  0  0  0  0
   34.6320   48.3290   -3.8560 C   0  0  0  0  0  0  0  0  0  0  0  0
   28.3000   50.9420   -4.7810 C   0  0  0  0  0  0  0  0  0  0  0  0
   29.0750   48.7680   -8.3760 N   0  0  0  0  0  0  0  0  0  0  0  0
   30.3180   49.4020   -7.9800 C   0  0  0  0  0  0  0  0  0  0  0  0
  1  2  1  0
  2  3  2  0
  4  2  1  6
  4  5  1  0
  4  6  1  0
  4  7  1  0
  5  8  2  0
  5  9  1  0
  6 10  1  1
  6 11  1  0
  7 12  1  0
  7 13  1  6
  8 14  1  0
  9 15  2  0
 10 16  2  0
 11 17  1  0
 11 18  1  0
 11 19  1  6
 13 20  1  0
 12 21  1  0
 20 21  1  0
 17 22  1  6
 14 23  2  0
 15 23  1  0
 16 24  1  0
 17 24  1  0
 19 25  1  0
 18 26  1  0
 25 26  1  0
M  END
