mac-x0303-mac-x0572
     RDKit          3D

 14 15  0  0  0  0  0  0  0  0999 V2000
   30.4820   56.2420   -6.7030 N   0  0  0  0  0  0  0  0  0  0  0  0
   29.1790   55.9500   -5.6630 S   0  0  0  0  0  0  0  0  0  0  0  0
   27.9600   56.1000   -6.4330 O   0  0  0  0  0  0  0  0  0  0  0  0
   29.4310   56.7050   -4.4570 O   0  0  0  0  0  0  0  0  0  0  0  0
   29.2230   54.2350   -5.2990 C   0  0  0  0  0  0  0  0  0  0  0  0
   29.4010   53.8150   -3.8800 N   0  0  2  0  0  0  0  0  0  0  0  0
   29.1110   53.2600   -6.1670 N   0  0  0  0  0  0  0  0  0  0  0  0
   30.6010   54.1970   -3.3770 O   0  0  0  0  0  0  0  0  0  0  0  0
   29.3850   52.3700   -4.0580 C   0  0  0  0  0  0  0  0  0  0  0  0
   29.2090   52.0920   -5.4090 C   0  0  0  0  0  0  0  0  0  0  0  0
   29.5150   51.3800   -3.1050 C   0  0  0  0  0  0  0  0  0  0  0  0
   29.1530   50.7890   -5.8560 C   0  0  0  0  0  0  0  0  0  0  0  0
   29.4620   50.0600   -3.5490 C   0  0  0  0  0  0  0  0  0  0  0  0
   29.2810   49.7640   -4.9130 C   0  0  0  0  0  0  0  0  0  0  0  0
  2  1  1  0
  2  3  2  0
  2  4  2  0
  2  5  1  0
  5  6  1  0
  5  7  2  0
  6  8  1  6
  6  9  1  0
  7 10  1  0
  9 10  2  0
  9 11  1  0
 10 12  1  0
 11 13  2  0
 12 14  2  0
 13 14  1  0
M  CHG  2   6   1   8  -1
M  END
