mac-x0375-mac-x0223
     RDKit          3D

 20 21  0  0  0  0  0  0  0  0999 V2000
   31.5910   45.8010   -6.7070 O   0  0  0  0  0  0  0  0  0  0  0  0
   32.2740   44.9920   -5.8510 C   0  0  0  0  0  0  0  0  0  0  0  0
   32.5580   43.8500   -6.1860 O   0  0  0  0  0  0  0  0  0  0  0  0
   32.6360   45.6420   -4.4850 C   0  0  2  0  0  0  0  0  0  0  0  0
   33.6780   45.0370   -3.7070 O   0  0  0  0  0  0  0  0  0  0  0  0
   31.4290   46.0850   -3.6420 C   0  0  0  0  0  0  0  0  0  0  0  0
   34.7340   45.8490   -3.3960 C   0  0  0  0  0  0  0  0  0  0  0  0
   31.2970   47.4370   -3.2730 C   0  0  0  0  0  0  0  0  0  0  0  0
   30.4420   45.1640   -3.2230 C   0  0  0  0  0  0  0  0  0  0  0  0
   36.0470   45.4170   -3.5560 C   0  0  0  0  0  0  0  0  0  0  0  0
   34.4710   47.1320   -2.9120 C   0  0  0  0  0  0  0  0  0  0  0  0
   29.3530   45.5850   -2.4550 C   0  0  0  0  0  0  0  0  0  0  0  0
   30.2130   47.8600   -2.5060 C   0  0  0  0  0  0  0  0  0  0  0  0
   28.3330   44.7950   -1.9880 O   0  0  0  0  0  0  0  0  0  0  0  0
   37.1030   46.2720   -3.2320 C   0  0  0  0  0  0  0  0  0  0  0  0
   35.5270   47.9860   -2.5890 C   0  0  0  0  0  0  0  0  0  0  0  0
   29.2560   46.9360   -2.1060 C   0  0  0  0  0  0  0  0  0  0  0  0
   28.5290   43.3870   -2.0610 C   0  0  0  0  0  0  0  0  0  0  0  0
   28.2010   47.3810   -1.3520 O   0  0  0  0  0  0  0  0  0  0  0  0
   36.8430   47.5540   -2.7500 C   0  0  0  0  0  0  0  0  0  0  0  0
  1  2  1  0
  2  3  2  0
  2  4  1  0
  4  5  1  1
  4  6  1  0
  5  7  1  0
  6  8  2  0
  6  9  1  0
  7 10  2  0
  7 11  1  0
  9 12  2  0
  8 13  1  0
 12 14  1  0
 10 15  1  0
 11 16  2  0
 12 17  1  0
 13 17  2  0
 14 18  1  0
 17 19  1  0
 15 20  2  0
 16 20  1  0
M  END
