mac-x0301-mac-x0337
     RDKit          3D

 22 24  0  0  0  0  0  0  0  0999 V2000
   30.3530   45.7060   -4.8450 O   0  0  0  0  0  0  0  0  0  0  0  0
   30.5370   46.9090   -4.2700 C   0  0  0  0  0  0  0  0  0  0  0  0
   31.2030   47.0300   -3.2520 O   0  0  0  0  0  0  0  0  0  0  0  0
   29.8240   47.9560   -5.0480 C   0  0  0  0  0  0  0  0  0  0  0  0
   29.4390   47.7050   -6.3620 C   0  0  0  0  0  0  0  0  0  0  0  0
   29.4980   49.2300   -4.5570 C   0  0  0  0  0  0  0  0  0  0  0  0
   28.7680   48.6620   -7.1160 C   0  0  0  0  0  0  0  0  0  0  0  0
   28.8110   50.1500   -5.3670 C   0  0  0  0  0  0  0  0  0  0  0  0
   29.6320   46.5770   -7.0870 O   0  0  0  0  0  0  0  0  0  0  0  0
   29.7340   49.7890   -3.4150 N   0  0  0  0  0  0  0  0  0  0  0  0
   28.4380   49.8830   -6.6480 C   0  0  0  0  0  0  0  0  0  0  0  0
   28.4770   48.2490   -8.3710 O   0  0  0  0  0  0  0  0  0  0  0  0
   29.1860   47.0040   -8.3860 C   0  0  0  0  0  0  0  0  0  0  0  0
   29.6820   51.3120   -4.2000 S   0  0  0  0  0  0  0  0  0  0  0  0
   29.8070   52.3130   -2.8950 N   0  0  0  0  0  0  0  0  0  0  0  0
   31.4410   51.3910   -4.6780 C   0  0  0  0  0  0  0  0  0  0  0  0
   32.3380   50.3160   -4.7110 C   0  0  0  0  0  0  0  0  0  0  0  0
   31.9060   52.6550   -5.0370 C   0  0  0  0  0  0  0  0  0  0  0  0
   33.6720   50.5130   -5.0880 C   0  0  0  0  0  0  0  0  0  0  0  0
   33.2320   52.8560   -5.4120 C   0  0  0  0  0  0  0  0  0  0  0  0
   34.1310   51.7870   -5.4380 C   0  0  0  0  0  0  0  0  0  0  0  0
   35.5570   52.0150   -5.8330 C   0  0  0  0  0  0  0  0  0  0  0  0
  1  2  1  0
  2  3  2  0
  2  4  1  0
  4  5  2  0
  4  6  1  0
  5  7  1  0
  6  8  2  0
  5  9  1  0
  6 10  1  0
  7 11  2  0
  8 11  1  0
  7 12  1  0
  9 13  1  0
 12 13  1  0
 10 14  2  3
 14 15  1  0
 14 16  1  0
 16 17  2  0
 16 18  1  0
 17 19  1  0
 18 20  2  0
 19 21  2  0
 20 21  1  0
 21 22  1  0
M  END
