mac-x0180-mac-x0527
     RDKit          3D

 28 30  0  0  0  0  0  0  0  0999 V2000
  -25.7120   60.3060    4.1980 C   0  0  0  0  0  0  0  0  0  0  0  0
  -24.9410   61.1690    3.2330 C   0  0  0  0  0  0  0  0  0  0  0  0
  -24.8710   62.3810    3.5170 O   0  0  0  0  0  0  0  0  0  0  0  0
  -24.3470   60.6070    2.0840 N   0  0  0  0  0  0  0  0  0  0  0  0
  -24.7780   59.4830    1.3630 C   0  0  0  0  0  0  0  0  0  0  0  0
  -24.6850   58.2590    1.9270 C   0  0  0  0  0  0  0  0  0  0  0  0
  -25.2750   59.6640    0.1160 C   0  0  0  0  0  0  0  0  0  0  0  0
  -25.1240   57.1970    1.1730 C   0  0  0  0  0  0  0  0  0  0  0  0
  -25.6940   58.5830   -0.5830 C   0  0  0  0  0  0  0  0  0  0  0  0
  -25.6490   57.2860   -0.1080 C   0  0  0  0  0  0  0  0  0  0  0  0
  -26.1440   55.8530   -0.8810 S   0  0  0  0  0  0  0  0  0  0  0  0
  -26.8000   54.8650   -1.5090 O   0  0  0  0  0  0  0  0  0  0  0  0
  -24.8850   55.5730   -1.5710 O   0  0  0  0  0  0  0  0  0  0  0  0
  -26.5620   55.0960    0.6120 N   0  0  0  0  0  0  0  0  0  0  0  0
  -27.4910   56.8710   -1.4910 C   0  0  0  0  0  0  0  0  0  0  0  0
  -27.7160   55.5060    1.2730 C   0  0  0  0  0  0  0  0  0  0  0  0
  -28.1200   57.6370   -0.5810 C   0  0  0  0  0  0  0  0  0  0  0  0
  -27.8120   56.8380   -2.7960 C   0  0  0  0  0  0  0  0  0  0  0  0
  -28.8150   55.5270    0.6570 O   0  0  0  0  0  0  0  0  0  0  0  0
  -27.7680   55.9070    2.6730 C   0  0  0  0  0  0  0  0  0  0  0  0
  -29.1770   58.4560   -0.9980 C   0  0  0  0  0  0  0  0  0  0  0  0
  -28.8670   57.6500   -3.2350 C   0  0  0  0  0  0  0  0  0  0  0  0
  -28.3350   57.1050    3.0470 C   0  0  0  0  0  0  0  0  0  0  0  0
  -27.2750   55.1390    3.6620 N   0  0  0  0  0  0  0  0  0  0  0  0
  -29.5390   58.4510   -2.3380 C   0  0  0  0  0  0  0  0  0  0  0  0
  -28.4070   57.5170    4.3450 N   0  0  0  0  0  0  0  0  0  0  0  0
  -27.3350   55.5320    4.9450 C   0  0  0  0  0  0  0  0  0  0  0  0
  -27.9090   56.7360    5.2880 C   0  0  0  0  0  0  0  0  0  0  0  0
  1  2  1  0
  2  3  2  0
  2  4  1  0
  4  5  1  0
  5  6  2  0
  5  7  1  0
  6  8  1  0
  7  9  2  0
  8 10  2  0
  9 10  1  0
 10 11  1  0
 11 12  2  0
 11 13  1  0
 11 14  1  0
 11 15  1  0
 14 16  1  0
 15 17  2  0
 15 18  1  0
 16 19  2  0
 16 20  1  0
 17 21  1  0
 18 22  2  0
 20 23  2  0
 20 24  1  0
 21 25  2  0
 22 25  1  0
 23 26  1  0
 24 27  2  0
 26 28  2  0
 27 28  1  0
M  END
