mac-x0188-mac-x0572
     RDKit          3D

 23 25  0  0  0  0  0  0  0  0999 V2000
   32.0650   44.4740   -3.8940 C   0  0  0  0  0  0  0  0  0  0  0  0
   31.7510   45.9120   -3.7590 C   0  0  0  0  0  0  0  0  0  0  0  0
   32.2060   46.5170   -2.6410 O   0  0  0  0  0  0  0  0  0  0  0  0
   31.0770   46.8260   -4.5440 C   0  0  0  0  0  0  0  0  0  0  0  0
   30.4810   46.4470   -5.8010 C   0  0  0  0  0  0  0  0  0  0  0  0
   31.8480   47.8430   -2.6590 N   0  0  0  0  0  0  0  0  0  0  0  0
   31.1670   48.0590   -3.8010 C   0  0  0  0  0  0  0  0  0  0  0  0
   29.3250   46.0560   -5.8870 O   0  0  0  0  0  0  0  0  0  0  0  0
   31.2770   46.5380   -6.8890 O   0  0  0  0  0  0  0  0  0  0  0  0
   30.6830   49.4920   -4.0460 C   0  0  2  0  0  0  0  0  0  0  0  0
   29.5010   49.9790   -3.2150 C   0  0  0  0  0  0  0  0  0  0  0  0
   30.4710   49.8810   -5.4850 C   0  0  0  0  0  0  0  0  0  0  0  0
   28.7660   51.0710   -3.5640 C   0  0  0  0  0  0  0  0  0  0  0  0
   29.7570   50.9690   -5.8380 C   0  0  0  0  0  0  0  0  0  0  0  0
   29.0670   51.8920   -4.8300 C   0  0  2  0  0  0  0  0  0  0  0  0
   29.9200   53.1040   -4.3550 C   0  0  0  0  0  0  0  0  0  0  0  0
   27.8500   52.4850   -5.5540 C   0  0  0  0  0  0  0  0  0  0  0  0
   30.5410   53.0920   -3.2820 O   0  0  0  0  0  0  0  0  0  0  0  0
   29.9870   54.3900   -5.2110 C   0  0  2  0  0  0  0  0  0  0  0  0
   28.1550   53.3390   -6.7180 N   0  0  0  0  0  0  0  0  0  0  0  0
   29.6530   55.5500   -4.4450 O   0  0  0  0  0  0  0  0  0  0  0  0
   29.2050   54.3760   -6.5470 C   0  0  1  0  0  0  0  0  0  0  0  0
   28.6720   55.7690   -6.9300 C   0  0  0  0  0  0  0  0  0  0  0  0
  1  2  1  0
  2  3  1  0
  2  4  2  0
  4  5  1  0
  3  6  1  0
  4  7  1  0
  6  7  2  0
  5  8  2  0
  5  9  1  0
 10  7  1  6
 10 11  1  0
 10 12  1  0
 11 13  2  0
 12 14  2  0
 15 13  1  1
 14 15  1  0
 15 16  1  0
 15 17  1  0
 16 18  2  0
 16 19  1  0
 17 20  1  0
 19 21  1  1
 19 22  1  0
 20 22  1  0
 22 23  1  1
M  END
