mac-x0142-mac-x0333
     RDKit          3D

 22 26  0  0  0  0  0  0  0  0999 V2000
   29.2320   49.6950   -3.3440 O   0  0  0  0  0  0  0  0  0  0  0  0
   29.7590   50.1370   -4.6000 C   0  0  1  0  0  0  0  0  0  0  0  0
   29.3850   49.1700   -5.6750 C   0  0  0  0  0  0  0  0  0  0  0  0
   29.0310   51.4340   -5.1220 C   0  0  2  0  0  0  0  0  0  0  0  0
   28.3860   49.7150   -6.4630 C   0  0  0  0  0  0  0  0  0  0  0  0
   29.8420   47.9040   -5.9990 C   0  0  0  0  0  0  0  0  0  0  0  0
   27.9780   51.0190   -6.0520 N   0  0  0  0  0  0  0  0  0  0  0  0
   29.9310   52.3110   -5.8170 O   0  0  0  0  0  0  0  0  0  0  0  0
   28.4820   52.3120   -4.0100 C   0  0  0  0  0  0  0  0  0  0  0  0
   30.8600   47.2490   -5.2600 N   0  0  0  0  0  0  0  0  0  0  0  0
   29.2970   47.2620   -7.0540 N   0  0  0  0  0  0  0  0  0  0  0  0
   27.8330   49.1060   -7.5050 N   0  0  0  0  0  0  0  0  0  0  0  0
   29.5700   53.1690   -3.6630 O   0  0  0  0  0  0  0  0  0  0  0  0
   30.2610   53.3500   -4.8940 C   0  0  0  0  0  0  0  0  0  0  0  0
   31.2060   47.9390   -4.0020 C   0  0  0  0  0  0  0  0  0  0  0  0
   30.5490   45.8230   -5.0620 C   0  0  0  0  0  0  0  0  0  0  0  0
   28.3300   47.8900   -7.7490 C   0  0  0  0  0  0  0  0  0  0  0  0
   31.7640   45.1470   -4.4520 C   0  0  0  0  0  0  0  0  0  0  0  0
   32.4380   47.2800   -3.3750 C   0  0  0  0  0  0  0  0  0  0  0  0
   31.9250   43.6490   -4.6130 C   0  0  0  0  0  0  0  0  0  0  0  0
   32.8210   44.5840   -5.3780 C   0  0  0  0  0  0  0  0  0  0  0  0
   32.2130   45.7870   -3.1610 C   0  0  0  0  0  0  0  0  0  0  0  0
  2  1  1  1
  2  3  1  0
  2  4  1  0
  3  5  2  0
  3  6  1  0
  4  7  1  0
  5  7  1  0
  4  8  1  0
  4  9  1  1
  6 10  1  0
  6 11  2  0
  5 12  1  0
  9 13  1  0
  8 14  1  0
 13 14  1  0
 10 15  1  0
 10 16  1  0
 11 17  1  0
 12 17  2  0
 18 16  1  0
 15 19  1  0
 18 20  1  0
 18 21  1  0
 20 21  1  0
 18 22  1  0
 19 22  1  0
M  END
