mac-x0116-mac-x0354
     RDKit          3D

 33 37  0  0  0  0  0  0  0  0999 V2000
   29.1990   53.3840   -6.3600 C   0  0  0  0  0  0  0  0  0  0  0  0
   28.6960   52.1160   -6.8660 N   0  0  0  0  0  0  0  0  0  0  0  0
   29.1590   50.9660   -6.2140 C   0  0  0  0  0  0  0  0  0  0  0  0
   30.5340   53.8310   -6.8670 C   0  0  0  0  0  0  0  0  0  0  0  0
   31.6250   53.4100   -6.1630 O   0  0  0  0  0  0  0  0  0  0  0  0
   30.9410   54.6090   -7.9310 C   0  0  0  0  0  0  0  0  0  0  0  0
   32.3550   54.6630   -7.8750 C   0  0  0  0  0  0  0  0  0  0  0  0
   32.7230   53.9150   -6.7810 C   0  0  0  0  0  0  0  0  0  0  0  0
   29.5160   50.9860   -4.9060 N   0  0  0  0  0  0  0  0  0  0  0  0
   29.2680   49.7460   -6.9020 C   0  0  0  0  0  0  0  0  0  0  0  0
   29.9580   49.8450   -4.3380 C   0  0  0  0  0  0  0  0  0  0  0  0
   29.7390   48.6520   -6.1940 C   0  0  0  0  0  0  0  0  0  0  0  0
   28.9850   49.4050   -8.2090 N   0  0  0  0  0  0  0  0  0  0  0  0
   30.1050   48.6280   -4.9030 N   0  0  0  0  0  0  0  0  0  0  0  0
   29.7430   47.6340   -7.1110 N   0  0  0  0  0  0  0  0  0  0  0  0
   29.2830   48.1310   -8.2950 C   0  0  0  0  0  0  0  0  0  0  0  0
   30.1520   46.2620   -6.9260 C   0  0  0  0  0  0  0  0  0  0  0  0
   31.6330   46.0390   -7.2730 C   0  0  0  0  0  0  0  0  0  0  0  0
   32.1830   45.2490   -6.1930 N   0  0  0  0  0  0  0  0  0  0  0  0
   33.3700   45.2840   -5.7330 C   0  0  0  0  0  0  0  0  0  0  0  0
   34.2610   46.1220   -6.3010 O   0  0  0  0  0  0  0  0  0  0  0  0
   33.8220   44.4830   -4.6310 C   0  0  0  0  0  0  0  0  0  0  0  0
   33.3100   43.2230   -4.2520 C   0  0  0  0  0  0  0  0  0  0  0  0
   34.8240   44.7460   -3.7010 C   0  0  0  0  0  0  0  0  0  0  0  0
   34.8240   43.6530   -2.8650 N   0  0  0  0  0  0  0  0  0  0  0  0
   33.9110   42.7160   -3.1850 N   0  0  0  0  0  0  0  0  0  0  0  0
   35.7320   45.8820   -3.5400 C   0  0  0  0  0  0  0  0  0  0  0  0
   35.6750   43.4260   -1.7220 C   0  0  0  0  0  0  0  0  0  0  0  0
   37.1140   45.6670   -3.5210 C   0  0  0  0  0  0  0  0  0  0  0  0
   35.2390   47.1840   -3.4000 C   0  0  0  0  0  0  0  0  0  0  0  0
   37.9930   46.7410   -3.3650 C   0  0  0  0  0  0  0  0  0  0  0  0
   36.1200   48.2580   -3.2440 C   0  0  0  0  0  0  0  0  0  0  0  0
   37.4960   48.0350   -3.2270 C   0  0  0  0  0  0  0  0  0  0  0  0
  1  2  1  0
  2  3  1  0
  1  4  1  0
  4  5  1  0
  4  6  2  0
  6  7  1  0
  5  8  1  0
  7  8  2  0
  3  9  2  0
  3 10  1  0
  9 11  1  0
 10 12  2  0
 10 13  1  0
 11 14  2  0
 12 14  1  0
 12 15  1  0
 13 16  2  0
 15 16  1  0
 15 17  1  0
 17 18  1  0
 18 19  1  0
 19 20  2  3
 20 21  1  0
 20 22  1  0
 22 23  1  0
 22 24  2  0
 24 25  1  0
 23 26  2  0
 25 26  1  0
 24 27  1  0
 25 28  1  0
 27 29  2  0
 27 30  1  0
 29 31  1  0
 30 32  2  0
 31 33  2  0
 32 33  1  0
M  END
