mac-x0255-mac-x0159
     RDKit          3D

 25 28  0  0  0  0  0  0  0  0999 V2000
   32.4610   44.0290   -7.4830 O   0  0  0  0  0  0  0  0  0  0  0  0
   33.2860   44.7210   -6.6680 C   0  0  0  0  0  0  0  0  0  0  0  0
   33.8770   45.7040   -7.0870 O   0  0  0  0  0  0  0  0  0  0  0  0
   33.3680   44.1450   -5.2760 C   0  0  0  0  0  0  0  0  0  0  0  0
   32.1380   44.4830   -4.4900 C   0  0  0  0  0  0  0  0  0  0  0  0
   31.4070   43.6540   -3.6710 C   0  0  0  0  0  0  0  0  0  0  0  0
   31.4700   46.0490   -4.5290 S   0  0  0  0  0  0  0  0  0  0  0  0
   30.2790   44.3040   -3.0620 C   0  0  0  0  0  0  0  0  0  0  0  0
   30.1750   45.6490   -3.4420 C   0  0  0  0  0  0  0  0  0  0  0  0
   29.3190   43.7740   -2.1740 C   0  0  0  0  0  0  0  0  0  0  0  0
   29.1250   46.4990   -2.9620 C   0  0  0  0  0  0  0  0  0  0  0  0
   28.9890   47.9700   -3.3590 C   0  0  0  0  0  0  0  0  0  0  0  0
   28.2890   44.5760   -1.6910 C   0  0  0  0  0  0  0  0  0  0  0  0
   28.1820   45.9170   -2.0660 C   0  0  0  0  0  0  0  0  0  0  0  0
   27.0360   46.7150   -1.4940 C   0  0  0  0  0  0  0  0  0  0  0  0
   29.5220   48.3100   -4.6890 N   0  0  0  0  0  0  0  0  0  0  0  0
   30.5820   49.3160   -4.6030 C   0  0  0  0  0  0  0  0  0  0  0  0
   28.5050   48.7450   -5.6200 C   0  0  1  0  0  0  0  0  0  0  0  0
   30.1190   50.6970   -4.7880 N   0  0  0  0  0  0  0  0  0  0  0  0
   28.9970   49.6380   -6.7340 C   0  0  2  0  0  0  0  0  0  0  0  0
   27.9000   47.6740   -6.4000 N   0  0  0  0  0  0  0  0  0  0  0  0
   29.5670   50.9420   -6.1120 C   0  0  1  0  0  0  0  0  0  0  0  0
   27.7770   49.7330   -7.5610 N   0  0  0  0  0  0  0  0  0  0  0  0
   27.1740   48.4000   -7.4420 C   0  0  0  0  0  0  0  0  0  0  0  0
   28.6810   52.0840   -5.9720 N   0  0  0  0  0  0  0  0  0  0  0  0
  1  2  1  0
  2  3  2  0
  2  4  1  0
  4  5  1  0
  5  6  2  0
  5  7  1  0
  6  8  1  0
  7  9  1  0
  8  9  2  0
  8 10  1  0
  9 11  1  0
 11 12  1  0
 10 13  2  0
 11 14  2  0
 13 14  1  0
 14 15  1  0
 12 16  1  0
 16 17  1  0
 16 18  1  0
 17 19  1  0
 18 20  1  0
 18 21  1  6
 19 22  1  0
 20 22  1  0
 20 23  1  6
 21 24  1  0
 23 24  1  0
 22 25  1  1
M  END
