mac-x0588-mac-x0345
     RDKit          3D

 24 27  0  0  0  0  0  0  0  0999 V2000
   29.1770   51.2340   -5.8980 N   0  0  0  0  0  0  0  0  0  0  0  0
   29.4920   49.8140   -5.7290 C   0  0  1  0  0  0  0  0  0  0  0  0
   29.5820   49.0610   -7.0990 C   0  0  1  0  0  0  0  0  0  0  0  0
   29.1340   52.0130   -4.7360 C   0  0  0  0  0  0  0  0  0  0  0  0
   30.6690   49.4500   -4.9470 N   0  0  0  0  0  0  0  0  0  0  0  0
   29.4030   53.3980   -4.7350 C   0  0  0  0  0  0  0  0  0  0  0  0
   28.8250   51.4540   -3.4960 C   0  0  0  0  0  0  0  0  0  0  0  0
   29.7480   54.1290   -6.0010 C   0  0  0  0  0  0  0  0  0  0  0  0
   30.6450   48.0450   -4.5800 C   0  0  0  0  0  0  0  0  0  0  0  0
   29.7510   47.5520   -6.8020 C   0  0  1  0  0  0  0  0  0  0  0  0
   28.3700   49.1270   -7.9710 N   0  0  0  0  0  0  0  0  0  0  0  0
   28.7910   52.2350   -2.3470 C   0  0  0  0  0  0  0  0  0  0  0  0
   29.3700   54.1740   -3.6140 N   0  0  0  0  0  0  0  0  0  0  0  0
   29.7090   47.2560   -5.3770 N   0  0  0  0  0  0  0  0  0  0  0  0
   28.6640   46.9040   -7.5410 N   0  0  0  0  0  0  0  0  0  0  0  0
   28.3560   47.8270   -8.6110 C   0  0  0  0  0  0  0  0  0  0  0  0
   29.0690   53.5810   -2.4500 C   0  0  0  0  0  0  0  0  0  0  0  0
   29.7810   45.8300   -5.0030 C   0  0  0  0  0  0  0  0  0  0  0  0
   29.0460   54.3920   -1.3220 N   0  0  0  0  0  0  0  0  0  0  0  0
   29.8550   45.5100   -3.4900 C   0  0  1  0  0  0  0  0  0  0  0  0
   28.9170   46.2880   -2.7220 O   0  0  0  0  0  0  0  0  0  0  0  0
   29.6370   44.0420   -3.1310 C   0  0  0  0  0  0  0  0  0  0  0  0
   28.4100   44.0530   -2.2480 C   0  0  0  0  0  0  0  0  0  0  0  0
   28.4330   45.4480   -1.6680 C   0  0  0  0  0  0  0  0  0  0  0  0
  2  1  1  6
  2  3  1  0
  1  4  1  0
  2  5  1  0
  4  6  2  0
  4  7  1  0
  6  8  1  0
  5  9  1  0
  3 10  1  0
  3 11  1  6
  7 12  2  0
  6 13  1  0
  9 14  1  0
 10 14  1  0
 10 15  1  6
 11 16  1  0
 15 16  1  0
 12 17  1  0
 13 17  2  0
 14 18  1  0
 17 19  1  0
 20 18  1  6
 20 21  1  0
 20 22  1  0
 22 23  1  0
 21 24  1  0
 23 24  1  0
M  END
