mac-x0357-mac-x0373
     RDKit          3D

 25 27  0  0  0  0  0  0  0  0999 V2000
   32.0750   43.0850   -4.3410 C   0  0  0  0  0  0  0  0  0  0  0  0
   33.0360   44.2410   -4.3650 C   0  0  0  0  0  0  0  0  0  0  0  0
   34.2080   44.2100   -3.5820 C   0  0  0  0  0  0  0  0  0  0  0  0
   32.7890   45.3750   -5.1680 C   0  0  0  0  0  0  0  0  0  0  0  0
   34.5300   43.1530   -2.7770 O   0  0  0  0  0  0  0  0  0  0  0  0
   31.5580   45.5550   -6.0690 C   0  0  1  0  0  0  0  0  0  0  0  0
   33.7350   46.4320   -5.1550 C   0  0  0  0  0  0  0  0  0  0  0  0
   35.1200   45.2590   -3.5800 C   0  0  0  0  0  0  0  0  0  0  0  0
   30.5380   46.5540   -5.5030 C   0  0  0  0  0  0  0  0  0  0  0  0
   31.8310   45.8810   -7.4220 O   0  0  0  0  0  0  0  0  0  0  0  0
   34.8870   46.3740   -4.3680 C   0  0  0  0  0  0  0  0  0  0  0  0
   29.3750   46.1930   -5.2800 O   0  0  0  0  0  0  0  0  0  0  0  0
   31.0750   47.9680   -5.2730 C   0  0  0  0  0  0  0  0  0  0  0  0
   32.2440   48.0480   -4.3090 C   0  0  0  0  0  0  0  0  0  0  0  0
   30.0460   49.0790   -5.1060 C   0  0  0  0  0  0  0  0  0  0  0  0
   32.3770   47.1130   -3.2650 C   0  0  0  0  0  0  0  0  0  0  0  0
   33.2150   49.0480   -4.4480 C   0  0  0  0  0  0  0  0  0  0  0  0
   29.7960   49.6470   -3.8480 C   0  0  0  0  0  0  0  0  0  0  0  0
   29.3370   49.5610   -6.2150 C   0  0  0  0  0  0  0  0  0  0  0  0
   33.4640   47.1840   -2.3920 C   0  0  0  0  0  0  0  0  0  0  0  0
   34.2960   49.1170   -3.5750 C   0  0  0  0  0  0  0  0  0  0  0  0
   28.8590   50.6760   -3.7090 C   0  0  0  0  0  0  0  0  0  0  0  0
   28.4050   50.5870   -6.0740 C   0  0  0  0  0  0  0  0  0  0  0  0
   34.4220   48.1860   -2.5480 C   0  0  0  0  0  0  0  0  0  0  0  0
   28.1670   51.1430   -4.8230 C   0  0  0  0  0  0  0  0  0  0  0  0
  1  2  1  0
  2  3  2  0
  2  4  1  0
  3  5  1  0
  4  6  1  0
  4  7  2  0
  3  8  1  0
  6  9  1  0
  6 10  1  6
  7 11  1  0
  8 11  2  0
  9 12  2  0
  9 13  1  0
 13 14  1  0
 13 15  1  0
 14 16  2  0
 14 17  1  0
 15 18  2  0
 15 19  1  0
 16 20  1  0
 17 21  2  0
 18 22  1  0
 19 23  2  0
 20 24  2  0
 21 24  1  0
 22 25  2  0
 23 25  1  0
M  END
