mac-x0138-mac-x0255
     RDKit          3D

 27 30  0  0  0  0  0  0  0  0999 V2000
   29.3000   48.8220   -3.3930 C   0  0  0  0  0  0  0  0  0  0  0  0
   29.0640   49.8650   -4.3580 N   0  0  0  0  0  0  0  0  0  0  0  0
   28.6930   51.1550   -4.0930 C   0  0  0  0  0  0  0  0  0  0  0  0
   29.1730   49.7340   -5.7130 C   0  0  0  0  0  0  0  0  0  0  0  0
   28.5600   51.8630   -5.1970 N   0  0  0  0  0  0  0  0  0  0  0  0
   28.8590   50.9790   -6.2190 C   0  0  0  0  0  0  0  0  0  0  0  0
   29.5130   48.6380   -6.4060 N   0  0  0  0  0  0  0  0  0  0  0  0
   28.9010   51.1050   -7.6140 C   0  0  0  0  0  0  0  0  0  0  0  0
   29.5280   48.8510   -7.7320 C   0  0  0  0  0  0  0  0  0  0  0  0
   28.6130   52.2880   -8.2820 N   0  0  0  0  0  0  0  0  0  0  0  0
   29.8800   47.7330   -8.4880 N   0  0  0  0  0  0  0  0  0  0  0  0
   29.2410   50.0160   -8.3510 N   0  0  0  0  0  0  0  0  0  0  0  0
   30.9750   46.9320   -7.9560 C   0  0  0  0  0  0  0  0  0  0  0  0
   31.0050   45.5140   -8.5390 C   0  0  0  0  0  0  0  0  0  0  0  0
   31.2070   44.5840   -7.4600 O   0  0  0  0  0  0  0  0  0  0  0  0
   32.5100   44.4140   -7.0910 C   0  0  0  0  0  0  0  0  0  0  0  0
   33.4700   44.9590   -7.6240 O   0  0  0  0  0  0  0  0  0  0  0  0
   32.6270   43.4510   -5.9290 C   0  0  0  0  0  0  0  0  0  0  0  0
   31.7410   43.8540   -4.7860 C   0  0  0  0  0  0  0  0  0  0  0  0
   30.3950   43.6010   -4.6160 C   0  0  0  0  0  0  0  0  0  0  0  0
   32.3780   44.7400   -3.4720 S   0  0  0  0  0  0  0  0  0  0  0  0
   29.8670   44.1380   -3.3930 C   0  0  0  0  0  0  0  0  0  0  0  0
   30.8590   44.7960   -2.6630 C   0  0  0  0  0  0  0  0  0  0  0  0
   28.5570   44.0960   -2.8590 C   0  0  0  0  0  0  0  0  0  0  0  0
   30.5770   45.4060   -1.4230 C   0  0  0  0  0  0  0  0  0  0  0  0
   28.2730   44.7020   -1.6290 C   0  0  0  0  0  0  0  0  0  0  0  0
   29.2770   45.3490   -0.9210 C   0  0  0  0  0  0  0  0  0  0  0  0
  1  2  1  0
  2  3  1  0
  2  4  1  0
  3  5  2  0
  4  6  2  0
  5  6  1  0
  4  7  1  0
  6  8  1  0
  7  9  2  0
  8 10  1  0
  9 11  1  0
  8 12  2  0
  9 12  1  0
 11 13  1  0
 13 14  1  0
 14 15  1  0
 15 16  1  0
 16 17  2  0
 16 18  1  0
 18 19  1  0
 19 20  2  0
 19 21  1  0
 20 22  1  0
 21 23  1  0
 22 23  2  0
 22 24  1  0
 23 25  1  0
 24 26  2  0
 25 27  2  0
 26 27  1  0
M  END
