mac-x0302-mac-x0344
     RDKit          3D

 23 24  0  0  0  0  0  0  0  0999 V2000
   31.1520   44.6710   -4.6540 O   0  0  0  0  0  0  0  0  0  0  0  0
   31.6020   45.9930   -4.9180 C   0  0  0  0  0  0  0  0  0  0  0  0
   31.0800   46.3050   -6.2060 O   0  0  0  0  0  0  0  0  0  0  0  0
   31.0030   47.0330   -3.9140 C   0  0  0  0  0  0  0  0  0  0  0  0
   33.1940   46.0570   -4.9150 C   0  0  0  0  0  0  0  0  0  0  0  0
   30.2550   48.1500   -4.5170 N   0  0  0  0  0  0  0  0  0  0  0  0
   33.7790   46.3630   -5.9540 O   0  0  0  0  0  0  0  0  0  0  0  0
   33.8290   45.7660   -3.7070 N   0  0  0  0  0  0  0  0  0  0  0  0
   29.9150   49.2590   -3.7540 C   0  0  0  0  0  0  0  0  0  0  0  0
   35.0300   46.3450   -3.2170 C   0  0  0  0  0  0  0  0  0  0  0  0
   29.9230   49.2280   -2.5270 O   0  0  0  0  0  0  0  0  0  0  0  0
   29.5390   50.5060   -4.4800 C   0  0  0  0  0  0  0  0  0  0  0  0
   35.9660   45.5050   -2.5920 C   0  0  0  0  0  0  0  0  0  0  0  0
   35.3270   47.7060   -3.3270 C   0  0  0  0  0  0  0  0  0  0  0  0
   29.7120   51.7310   -3.8200 C   0  0  0  0  0  0  0  0  0  0  0  0
   29.0250   50.4800   -5.7830 C   0  0  0  0  0  0  0  0  0  0  0  0
   37.1710   46.0210   -2.0890 C   0  0  0  0  0  0  0  0  0  0  0  0
   36.5290   48.2200   -2.8250 C   0  0  0  0  0  0  0  0  0  0  0  0
   29.3690   52.9130   -4.4710 C   0  0  0  0  0  0  0  0  0  0  0  0
   28.6850   51.6770   -6.4230 C   0  0  0  0  0  0  0  0  0  0  0  0
   37.4500   47.3790   -2.2070 C   0  0  0  0  0  0  0  0  0  0  0  0
   29.5220   54.1260   -3.8670 O   0  0  0  0  0  0  0  0  0  0  0  0
   28.8590   52.8940   -5.7640 C   0  0  0  0  0  0  0  0  0  0  0  0
  2  1  1  0
  2  3  1  0
  2  4  1  0
  2  5  1  0
  4  6  1  0
  5  7  2  0
  5  8  1  0
  6  9  1  0
  8 10  1  0
  9 11  2  0
  9 12  1  0
 10 13  2  0
 10 14  1  0
 12 15  2  0
 12 16  1  0
 13 17  1  0
 14 18  2  0
 15 19  1  0
 16 20  2  0
 17 21  2  0
 18 21  1  0
 19 22  1  0
 19 23  2  0
 20 23  1  0
M  END
