mac-x0354-mac-x0338
     RDKit          3D

 27 29  0  0  0  0  0  0  0  0999 V2000
   35.3440   43.5210   -1.6690 C   0  0  0  0  0  0  0  0  0  0  0  0
   34.6030   43.7660   -2.8870 N   0  0  0  0  0  0  0  0  0  0  0  0
   33.6560   42.8850   -3.2660 N   0  0  0  0  0  0  0  0  0  0  0  0
   34.7450   44.8290   -3.7490 C   0  0  0  0  0  0  0  0  0  0  0  0
   33.1830   43.4020   -4.4020 C   0  0  0  0  0  0  0  0  0  0  0  0
   33.8170   44.6120   -4.7630 C   0  0  0  0  0  0  0  0  0  0  0  0
   35.7060   45.9140   -3.5530 C   0  0  0  0  0  0  0  0  0  0  0  0
   33.5730   45.4440   -5.9160 C   0  0  0  0  0  0  0  0  0  0  0  0
   37.0810   45.6500   -3.5230 C   0  0  0  0  0  0  0  0  0  0  0  0
   35.2580   47.2280   -3.3910 C   0  0  0  0  0  0  0  0  0  0  0  0
   32.5070   46.0200   -6.3300 N   0  0  0  0  0  0  0  0  0  0  0  0
   34.6560   45.6540   -6.6790 O   0  0  0  0  0  0  0  0  0  0  0  0
   37.9930   46.6930   -3.3350 C   0  0  0  0  0  0  0  0  0  0  0  0
   36.1710   48.2690   -3.2030 C   0  0  0  0  0  0  0  0  0  0  0  0
   31.2130   45.9710   -5.6680 C   0  0  0  0  0  0  0  0  0  0  0  0
   37.5360   47.9990   -3.1760 C   0  0  0  0  0  0  0  0  0  0  0  0
   30.4600   47.2890   -5.9240 C   0  0  0  0  0  0  0  0  0  0  0  0
   29.6700   47.8260   -4.7210 C   0  0  0  0  0  0  0  0  0  0  0  0
   29.7140   49.3300   -4.5520 C   0  0  0  0  0  0  0  0  0  0  0  0
   29.2860   50.1170   -5.5840 N   0  0  0  0  0  0  0  0  0  0  0  0
   30.1770   49.8920   -3.3620 C   0  0  0  0  0  0  0  0  0  0  0  0
   29.3480   51.4680   -5.3560 C   0  0  0  0  0  0  0  0  0  0  0  0
   30.2400   51.2270   -3.1390 N   0  0  0  0  0  0  0  0  0  0  0  0
   28.8920   52.3850   -6.4410 C   0  0  0  0  0  0  0  0  0  0  0  0
   29.8120   52.0030   -4.1650 C   0  0  0  0  0  0  0  0  0  0  0  0
   28.5450   51.7890   -7.6260 N   0  0  0  0  0  0  0  0  0  0  0  0
   28.8290   53.6000   -6.2930 O   0  0  0  0  0  0  0  0  0  0  0  0
  1  2  1  0
  2  3  1  0
  2  4  1  0
  3  5  2  0
  4  6  2  0
  5  6  1  0
  4  7  1  0
  6  8  1  0
  7  9  2  0
  7 10  1  0
  8 11  2  3
  8 12  1  0
  9 13  1  0
 10 14  2  0
 11 15  1  0
 13 16  2  0
 14 16  1  0
 15 17  1  0
 17 18  1  0
 18 19  1  0
 19 20  2  0
 19 21  1  0
 20 22  1  0
 21 23  2  0
 22 24  1  0
 22 25  2  0
 23 25  1  0
 24 26  1  0
 24 27  2  0
M  END
