mac-x0404-mac-x0437
     RDKit          3D

 24 27  0  0  0  0  0  0  0  0999 V2000
   32.2970   45.9040   -7.3250 O   0  0  0  0  0  0  0  0  0  0  0  0
   32.2320   45.2750   -6.1180 C   0  0  0  0  0  0  0  0  0  0  0  0
   32.4820   44.0740   -6.0360 O   0  0  0  0  0  0  0  0  0  0  0  0
   31.8270   46.2370   -5.0030 C   0  0  0  0  0  0  0  0  0  0  0  0
   32.4300   45.8790   -3.6510 N   0  0  0  0  0  0  0  0  0  0  0  0
   31.4350   46.3310   -2.6870 C   0  0  0  0  0  0  0  0  0  0  0  0
   33.8010   46.4150   -3.3940 N   0  0  0  0  0  0  0  0  0  0  0  0
   30.3470   45.4880   -2.3150 C   0  0  0  0  0  0  0  0  0  0  0  0
   31.5460   47.6170   -2.1180 C   0  0  0  0  0  0  0  0  0  0  0  0
   34.2690   47.3770   -4.4210 C   0  0  0  0  0  0  0  0  0  0  0  0
   34.8240   45.3410   -3.5220 C   0  0  1  0  0  0  0  0  0  0  0  0
   29.3990   45.9720   -1.3710 C   0  0  0  0  0  0  0  0  0  0  0  0
   30.6070   48.0740   -1.1950 C   0  0  0  0  0  0  0  0  0  0  0  0
   30.1530   44.1840   -2.8340 C   0  0  0  0  0  0  0  0  0  0  0  0
   35.7130   47.4850   -4.2320 N   0  0  0  0  0  0  0  0  0  0  0  0
   36.1130   46.0720   -4.0050 C   0  0  1  0  0  0  0  0  0  0  0  0
   34.9470   44.5950   -2.2130 C   0  0  0  0  0  0  0  0  0  0  0  0
   29.5460   47.2550   -0.8290 C   0  0  0  0  0  0  0  0  0  0  0  0
   28.3170   45.1610   -0.9880 C   0  0  0  0  0  0  0  0  0  0  0  0
   29.0750   43.3900   -2.4440 C   0  0  0  0  0  0  0  0  0  0  0  0
   37.2750   46.0090   -3.0520 C   0  0  0  0  0  0  0  0  0  0  0  0
   36.0680   44.6020   -1.4770 C   0  0  0  0  0  0  0  0  0  0  0  0
   28.1580   43.8760   -1.5240 C   0  0  0  0  0  0  0  0  0  0  0  0
   37.2410   45.3310   -1.8970 C   0  0  0  0  0  0  0  0  0  0  0  0
  1  2  1  0
  2  3  2  0
  2  4  1  0
  4  5  1  0
  5  6  1  0
  5  7  1  0
  6  8  1  0
  6  9  2  0
  7 10  1  0
  7 11  1  0
  8 12  2  0
  9 13  1  0
  8 14  1  0
 10 15  1  0
 11 16  1  0
 15 16  1  0
 11 17  1  1
 12 18  1  0
 13 18  2  0
 12 19  1  0
 14 20  2  0
 16 21  1  1
 17 22  2  0
 19 23  2  0
 20 23  1  0
 21 24  2  0
 22 24  1  0
M  END
