mac-x0319-mac-x0283
     RDKit          3D

 24 26  0  0  0  0  0  0  0  0999 V2000
   34.1150   45.7770   -6.9060 O   0  0  0  0  0  0  0  0  0  0  0  0
   32.9010   45.7040   -6.3260 C   0  0  0  0  0  0  0  0  0  0  0  0
   31.9200   46.2670   -6.9430 N   0  0  0  0  0  0  0  0  0  0  0  0
   32.8920   44.9580   -5.0070 C   0  0  0  0  0  0  0  0  0  0  0  0
   30.5750   46.2370   -6.3660 C   0  0  0  0  0  0  0  0  0  0  0  0
   31.7110   45.3320   -4.1560 C   0  0  0  0  0  0  0  0  0  0  0  0
   29.8350   47.5130   -6.7770 C   0  0  0  0  0  0  0  0  0  0  0  0
   30.6020   44.4830   -4.0730 C   0  0  0  0  0  0  0  0  0  0  0  0
   31.7080   46.5370   -3.4400 C   0  0  0  0  0  0  0  0  0  0  0  0
   29.4960   48.4420   -5.6000 C   0  0  0  0  0  0  0  0  0  0  0  0
   29.5140   44.8400   -3.2880 C   0  0  0  0  0  0  0  0  0  0  0  0
   30.6090   46.8870   -2.6540 C   0  0  0  0  0  0  0  0  0  0  0  0
   28.4600   43.9740   -3.2470 O   0  0  0  0  0  0  0  0  0  0  0  0
   29.5050   46.0370   -2.5770 C   0  0  0  0  0  0  0  0  0  0  0  0
   29.2150   49.8620   -6.0500 C   0  0  0  0  0  0  0  0  0  0  0  0
   29.6820   49.9240   -4.6740 C   0  0  0  0  0  0  0  0  0  0  0  0
   29.0070   51.2800   -6.2930 C   0  0  0  0  0  0  0  0  0  0  0  0
   29.1970   52.4030   -5.4700 C   0  0  0  0  0  0  0  0  0  0  0  0
   29.9000   50.9850   -3.7750 C   0  0  0  0  0  0  0  0  0  0  0  0
   29.0420   53.8120   -5.5780 C   0  0  0  0  0  0  0  0  0  0  0  0
   29.6410   52.2280   -4.2230 C   0  0  0  0  0  0  0  0  0  0  0  0
   28.6070   54.4400   -6.6910 N   0  0  0  0  0  0  0  0  0  0  0  0
   29.3840   54.4290   -4.4450 N   0  0  0  0  0  0  0  0  0  0  0  0
   29.7640   53.4180   -3.5790 O   0  0  0  0  0  0  0  0  0  0  0  0
  1  2  1  0
  2  3  2  3
  2  4  1  0
  3  5  1  0
  4  6  1  0
  5  7  1  0
  6  8  2  0
  6  9  1  0
  7 10  1  0
  8 11  1  0
  9 12  2  0
 11 13  1  0
 11 14  2  0
 12 14  1  0
 10 15  1  0
 15 16  2  0
 15 17  1  0
 17 18  2  0
 16 19  1  0
 18 20  1  0
 18 21  1  0
 19 21  2  0
 20 22  1  0
 20 23  2  0
 21 24  1  0
 23 24  1  0
M  END
