mac-x0341-mac-x0437
     RDKit          3D

 28 31  0  0  0  0  0  0  0  0999 V2000
   28.1970   54.8180   -7.3530 N   0  0  0  0  0  0  0  0  0  0  0  0
   28.5760   53.6240   -6.8250 C   0  0  0  0  0  0  0  0  0  0  0  0
   28.3630   52.5270   -7.4740 N   0  0  0  0  0  0  0  0  0  0  0  0
   29.1820   53.6560   -5.6020 N   0  0  0  0  0  0  0  0  0  0  0  0
   29.4590   52.5210   -4.8720 C   0  0  0  0  0  0  0  0  0  0  0  0
   28.7900   51.3160   -6.8910 C   0  0  0  0  0  0  0  0  0  0  0  0
   29.7810   52.5660   -3.6900 O   0  0  0  0  0  0  0  0  0  0  0  0
   29.3420   51.2530   -5.6120 C   0  0  0  0  0  0  0  0  0  0  0  0
   28.6590   50.1370   -7.6200 C   0  0  0  0  0  0  0  0  0  0  0  0
   29.0810   48.9140   -7.0870 C   0  0  0  0  0  0  0  0  0  0  0  0
   29.7710   50.0310   -5.0590 C   0  0  0  0  0  0  0  0  0  0  0  0
   29.6420   48.8490   -5.8100 C   0  0  0  0  0  0  0  0  0  0  0  0
   30.1070   47.5130   -5.2690 C   0  0  0  0  0  0  0  0  0  0  0  0
   31.4690   47.1320   -5.8770 C   0  0  0  0  0  0  0  0  0  0  0  0
   31.5550   45.7590   -6.3180 O   0  0  0  0  0  0  0  0  0  0  0  0
   32.7210   45.1250   -6.0490 C   0  0  0  0  0  0  0  0  0  0  0  0
   33.7450   45.2260   -6.7160 O   0  0  0  0  0  0  0  0  0  0  0  0
   32.6190   44.2730   -4.8080 C   0  0  0  0  0  0  0  0  0  0  0  0
   32.6870   45.0550   -3.4980 C   0  0  0  0  0  0  0  0  0  0  0  0
   33.8980   45.8370   -3.3340 N   0  0  0  0  0  0  0  0  0  0  0  0
   34.0020   47.1890   -3.5150 C   0  0  0  0  0  0  0  0  0  0  0  0
   35.1360   45.3640   -2.9750 C   0  0  0  0  0  0  0  0  0  0  0  0
   35.2220   47.6210   -3.3000 N   0  0  0  0  0  0  0  0  0  0  0  0
   35.9410   46.5030   -2.9640 C   0  0  0  0  0  0  0  0  0  0  0  0
   35.6270   44.0910   -2.6670 C   0  0  0  0  0  0  0  0  0  0  0  0
   37.2980   46.3830   -2.6340 C   0  0  0  0  0  0  0  0  0  0  0  0
   36.9840   43.9930   -2.3400 C   0  0  0  0  0  0  0  0  0  0  0  0
   37.8090   45.1190   -2.3230 C   0  0  0  0  0  0  0  0  0  0  0  0
  1  2  1  0
  2  3  2  0
  2  4  1  0
  4  5  1  0
  3  6  1  0
  5  7  2  0
  5  8  1  0
  6  8  2  0
  6  9  1  0
  9 10  2  0
  8 11  1  0
 10 12  1  0
 11 12  2  0
 12 13  1  0
 13 14  1  0
 14 15  1  0
 15 16  1  0
 16 17  2  0
 16 18  1  0
 18 19  1  0
 19 20  1  0
 20 21  1  0
 20 22  1  0
 21 23  2  0
 22 24  2  0
 23 24  1  0
 22 25  1  0
 24 26  1  0
 25 27  2  0
 26 28  2  0
 27 28  1  0
M  END
