mac-x0510-mac-x0348
     RDKit          3D

 28 31  0  0  0  0  0  0  0  0999 V2000
   28.9360   53.3070   -5.7400 O   0  0  0  0  0  0  0  0  0  0  0  0
   29.0420   52.1060   -5.9770 C   0  0  0  0  0  0  0  0  0  0  0  0
   29.4190   51.2090   -4.9980 N   0  0  0  0  0  0  0  0  0  0  0  0
   28.7910   51.5780   -7.2180 N   0  0  0  0  0  0  0  0  0  0  0  0
   28.7650   50.2280   -7.4020 C   0  0  0  0  0  0  0  0  0  0  0  0
   29.1520   49.8630   -5.0440 C   0  0  0  0  0  0  0  0  0  0  0  0
   29.1160   49.2210   -3.9620 N   0  0  0  0  0  0  0  0  0  0  0  0
   28.9390   49.3780   -6.3540 C   0  0  0  0  0  0  0  0  0  0  0  0
   28.5760   49.5840   -8.5780 N   0  0  0  0  0  0  0  0  0  0  0  0
   28.8070   47.8130   -4.0160 C   0  0  0  0  0  0  0  0  0  0  0  0
   28.8500   48.1400   -6.9220 N   0  0  0  0  0  0  0  0  0  0  0  0
   28.6320   48.3100   -8.2560 C   0  0  0  0  0  0  0  0  0  0  0  0
   29.7570   47.0960   -4.9940 C   0  0  0  0  0  0  0  0  0  0  0  0
   30.3510   45.8820   -4.3040 C   0  0  1  0  0  0  0  0  0  0  0  0
   31.8790   45.7900   -4.3920 C   0  0  0  0  0  0  0  0  0  0  0  0
   29.7110   45.8330   -2.9490 C   0  0  0  0  0  0  0  0  0  0  0  0
   32.4070   46.0160   -5.7830 C   0  0  0  0  0  0  0  0  0  0  0  0
   28.8430   44.8430   -2.5500 C   0  0  0  0  0  0  0  0  0  0  0  0
   29.8290   46.7540   -1.8570 C   0  0  0  0  0  0  0  0  0  0  0  0
   31.8270   45.7730   -6.8280 O   0  0  0  0  0  0  0  0  0  0  0  0
   33.6450   46.5410   -5.8020 O   0  0  0  0  0  0  0  0  0  0  0  0
   28.4290   45.1160   -1.2830 N   0  0  0  0  0  0  0  0  0  0  0  0
   29.0140   46.2820   -0.8280 C   0  0  0  0  0  0  0  0  0  0  0  0
   30.5490   47.9540   -1.6400 C   0  0  0  0  0  0  0  0  0  0  0  0
   27.5010   44.2930   -0.5450 C   0  0  0  0  0  0  0  0  0  0  0  0
   30.4330   48.6330   -0.4250 C   0  0  0  0  0  0  0  0  0  0  0  0
   28.8900   46.9570    0.3970 C   0  0  0  0  0  0  0  0  0  0  0  0
   29.6130   48.1400    0.5790 C   0  0  0  0  0  0  0  0  0  0  0  0
  1  2  2  0
  2  3  1  0
  2  4  1  0
  4  5  1  0
  3  6  1  0
  6  7  2  3
  5  8  2  0
  6  8  1  0
  5  9  1  0
  7 10  1  0
  8 11  1  0
  9 12  2  0
 11 12  1  0
 10 13  1  0
 14 13  1  1
 14 15  1  0
 14 16  1  0
 15 17  1  0
 16 18  2  0
 16 19  1  0
 17 20  2  0
 17 21  1  0
 18 22  1  0
 19 23  2  0
 22 23  1  0
 19 24  1  0
 22 25  1  0
 24 26  2  0
 23 27  1  0
 26 28  1  0
 27 28  2  0
M  END
