mac-x0398-mac-x0224
     RDKit          3D

 20 21  0  0  0  0  0  0  0  0999 V2000
   28.4020   52.2400   -6.7990 N   0  0  0  0  0  0  0  0  0  0  0  0
   27.6220   50.8620   -7.3220 S   0  0  0  0  0  0  0  0  0  0  0  0
   28.3290   49.7320   -6.1020 C   0  0  0  0  0  0  0  0  0  0  0  0
   29.2500   51.9650   -5.7290 C   0  0  0  0  0  0  0  0  0  0  0  0
   29.0040   52.5270   -4.4680 C   0  0  0  0  0  0  0  0  0  0  0  0
   30.3380   51.1090   -5.8810 C   0  0  0  0  0  0  0  0  0  0  0  0
   29.8300   52.2200   -3.3860 C   0  0  0  0  0  0  0  0  0  0  0  0
   31.1610   50.8000   -4.8080 C   0  0  0  0  0  0  0  0  0  0  0  0
   29.0370   48.5730   -6.4700 C   0  0  0  0  0  0  0  0  0  0  0  0
   28.1760   50.0160   -4.7320 C   0  0  0  0  0  0  0  0  0  0  0  0
   29.5140   52.8080   -2.1960 O   0  0  0  0  0  0  0  0  0  0  0  0
   30.9050   51.3510   -3.5570 C   0  0  0  0  0  0  0  0  0  0  0  0
   29.5740   47.7260   -5.4830 C   0  0  0  0  0  0  0  0  0  0  0  0
   28.7150   49.1710   -3.7560 C   0  0  0  0  0  0  0  0  0  0  0  0
   31.7890   50.9910   -2.4380 C   0  0  0  0  0  0  0  0  0  0  0  0
   30.3210   46.4920   -5.8420 C   0  0  0  0  0  0  0  0  0  0  0  0
   29.4140   48.0260   -4.1280 C   0  0  0  0  0  0  0  0  0  0  0  0
   31.4240   50.2370   -1.5410 O   0  0  0  0  0  0  0  0  0  0  0  0
   30.4800   46.1220   -6.9920 O   0  0  0  0  0  0  0  0  0  0  0  0
   30.8020   45.8230   -4.7720 O   0  0  0  0  0  0  0  0  0  0  0  0
  1  2  1  0
  2  3  1  0
  1  4  1  0
  4  5  2  0
  4  6  1  0
  5  7  1  0
  6  8  2  0
  3  9  2  0
  3 10  1  0
  7 11  1  0
  7 12  2  0
  8 12  1  0
  9 13  1  0
 10 14  2  0
 12 15  1  0
 13 16  1  0
 13 17  2  0
 14 17  1  0
 15 18  2  0
 16 19  2  0
 16 20  1  0
M  END
