mac-x1493-mac-x0223
     RDKit          3D

 26 28  0  0  0  0  0  0  0  0999 V2000
   29.2710   48.6880   -4.9660 O   0  0  0  0  0  0  0  0  0  0  0  0
   29.6940   49.3960   -3.9050 C   0  0  0  0  0  0  0  0  0  0  0  0
   30.1100   48.7410   -2.8710 N   0  0  0  0  0  0  0  0  0  0  0  0
   29.5810   50.8330   -4.1720 C   0  0  0  0  0  0  0  0  0  0  0  0
   29.0060   51.3210   -5.3440 C   0  0  0  0  0  0  0  0  0  0  0  0
   30.0520   51.7500   -3.2460 C   0  0  0  0  0  0  0  0  0  0  0  0
   30.1170   47.3280   -2.8740 C   0  0  0  0  0  0  0  0  0  0  0  0
   28.9250   52.7040   -5.5480 C   0  0  0  0  0  0  0  0  0  0  0  0
   29.9880   53.0930   -3.4120 N   0  0  0  0  0  0  0  0  0  0  0  0
   29.0890   46.6290   -2.2200 C   0  0  0  0  0  0  0  0  0  0  0  0
   31.1300   46.6010   -3.5140 C   0  0  0  0  0  0  0  0  0  0  0  0
   28.1030   47.3590   -1.5970 O   0  0  0  0  0  0  0  0  0  0  0  0
   29.4330   53.5630   -4.5460 C   0  0  0  0  0  0  0  0  0  0  0  0
   28.3540   53.2420   -6.7180 C   0  0  0  0  0  0  0  0  0  0  0  0
   29.0510   45.2330   -2.1930 C   0  0  0  0  0  0  0  0  0  0  0  0
   31.1190   45.1960   -3.5010 C   0  0  0  0  0  0  0  0  0  0  0  0
   28.0010   44.6620   -1.5250 O   0  0  0  0  0  0  0  0  0  0  0  0
   32.2110   44.3990   -4.1850 C   0  0  0  0  0  0  0  0  0  0  0  0
   29.3510   54.9310   -4.7510 C   0  0  0  0  0  0  0  0  0  0  0  0
   28.2860   54.6200   -6.8960 C   0  0  0  0  0  0  0  0  0  0  0  0
   30.0720   44.5250   -2.8370 C   0  0  0  0  0  0  0  0  0  0  0  0
   27.3700   43.5490   -2.1420 C   0  0  0  0  0  0  0  0  0  0  0  0
   32.5630   44.8480   -5.5860 C   0  0  0  0  0  0  0  0  0  0  0  0
   28.7840   55.4680   -5.9140 C   0  0  0  0  0  0  0  0  0  0  0  0
   33.4510   45.6090   -5.9340 O   0  0  0  0  0  0  0  0  0  0  0  0
   31.7530   44.2900   -6.5110 O   0  0  0  0  0  0  0  0  0  0  0  0
  1  2  1  0
  2  3  2  3
  2  4  1  0
  4  5  2  0
  4  6  1  0
  3  7  1  0
  5  8  1  0
  6  9  2  0
  7 10  2  0
  7 11  1  0
 10 12  1  0
  8 13  2  0
  9 13  1  0
  8 14  1  0
 10 15  1  0
 11 16  2  0
 15 17  1  0
 16 18  1  0
 13 19  1  0
 14 20  2  0
 15 21  2  0
 16 21  1  0
 17 22  1  0
 18 23  1  0
 19 24  2  0
 20 24  1  0
 23 25  2  0
 23 26  1  0
M  END
