mac-x0188-mac-x0193
     RDKit          3D

 27 30  0  0  0  0  0  0  0  0999 V2000
   32.8590   44.8610   -4.2720 C   0  0  1  0  0  0  0  0  0  0  0  0
   32.8650   45.1660   -5.8000 C   0  0  0  0  0  0  0  0  0  0  0  0
   33.9440   44.7430   -6.4790 O   0  0  0  0  0  0  0  0  0  0  0  0
   34.2460   44.7890   -3.7880 N   0  0  0  0  0  0  0  0  0  0  0  0
   32.2350   46.1090   -3.8180 C   0  0  0  0  0  0  0  0  0  0  0  0
   31.9520   45.8060   -6.4870 N   0  0  0  0  0  0  0  0  0  0  0  0
   34.7410   43.7430   -3.0410 C   0  0  0  0  0  0  0  0  0  0  0  0
   32.5310   46.7130   -2.6560 O   0  0  0  0  0  0  0  0  0  0  0  0
   31.3040   46.8150   -4.5160 C   0  0  0  0  0  0  0  0  0  0  0  0
   30.8740   46.2820   -5.7790 C   0  0  0  0  0  0  0  0  0  0  0  0
   34.1700   42.6750   -2.8890 O   0  0  0  0  0  0  0  0  0  0  0  0
   35.9720   44.0440   -2.4820 N   0  0  0  0  0  0  0  0  0  0  0  0
   31.7890   47.8810   -2.5850 N   0  0  0  0  0  0  0  0  0  0  0  0
   31.0540   47.9570   -3.7170 C   0  0  0  0  0  0  0  0  0  0  0  0
   29.7100   46.2320   -6.1620 O   0  0  0  0  0  0  0  0  0  0  0  0
   30.1900   49.1070   -3.9590 C   0  0  0  0  0  0  0  0  0  0  0  0
   36.7850   43.0270   -1.8150 C   0  0  0  0  0  0  0  0  0  0  0  0
   29.8550   50.0060   -2.9420 C   0  0  0  0  0  0  0  0  0  0  0  0
   29.6890   49.3300   -5.2510 C   0  0  0  0  0  0  0  0  0  0  0  0
   37.9240   42.5270   -2.7260 C   0  0  0  0  0  0  0  0  0  0  0  0
   37.3490   43.5510   -0.4830 C   0  0  0  0  0  0  0  0  0  0  0  0
   29.0380   51.1060   -3.2150 C   0  0  0  0  0  0  0  0  0  0  0  0
   28.8730   50.4280   -5.5250 C   0  0  0  0  0  0  0  0  0  0  0  0
   38.8350   41.5140   -2.0300 C   0  0  0  0  0  0  0  0  0  0  0  0
   38.2770   42.5520    0.2130 C   0  0  0  0  0  0  0  0  0  0  0  0
   28.5490   51.3170   -4.5030 C   0  0  0  0  0  0  0  0  0  0  0  0
   39.3890   42.0560   -0.7160 C   0  0  0  0  0  0  0  0  0  0  0  0
  1  2  1  0
  2  3  1  0
  1  4  1  1
  1  5  1  0
  2  6  2  0
  4  7  1  0
  5  8  1  0
  5  9  2  0
  6 10  1  0
  9 10  1  0
  7 11  2  0
  7 12  1  0
  8 13  1  0
  9 14  1  0
 13 14  2  0
 10 15  2  0
 14 16  1  0
 12 17  1  0
 16 18  2  0
 16 19  1  0
 17 20  1  0
 17 21  1  0
 18 22  1  0
 19 23  2  0
 20 24  1  0
 21 25  1  0
 22 26  2  0
 23 26  1  0
 24 27  1  0
 25 27  1  0
M  END
