mac-x0555-mac-x0179
     RDKit          3D

 29 32  0  0  0  0  0  0  0  0999 V2000
   28.9440   55.5410   -6.7170 N   0  0  0  0  0  0  0  0  0  0  0  0
   29.2210   54.5210   -5.7990 C   0  0  0  0  0  0  0  0  0  0  0  0
   29.7180   54.7740   -4.5270 C   0  0  0  0  0  0  0  0  0  0  0  0
   29.0070   53.1820   -6.1270 C   0  0  0  0  0  0  0  0  0  0  0  0
   29.2940   52.1680   -5.1970 C   0  0  0  0  0  0  0  0  0  0  0  0
   30.0080   53.8280   -3.6000 N   0  0  0  0  0  0  0  0  0  0  0  0
   29.7980   52.5430   -3.9370 C   0  0  0  0  0  0  0  0  0  0  0  0
   29.0920   50.8080   -5.4980 C   0  0  0  0  0  0  0  0  0  0  0  0
   30.0870   51.5470   -3.0140 C   0  0  0  0  0  0  0  0  0  0  0  0
   29.3910   49.8280   -4.5510 C   0  0  0  0  0  0  0  0  0  0  0  0
   29.8940   50.1850   -3.3000 C   0  0  0  0  0  0  0  0  0  0  0  0
   30.2300   49.1350   -2.2660 C   0  0  0  0  0  0  0  0  0  0  0  0
   31.7140   49.1310   -1.8690 C   0  0  0  0  0  0  0  0  0  0  0  0
   32.6470   48.6710   -2.9960 C   0  0  0  0  0  0  0  0  0  0  0  0
   33.9150   48.2180   -2.4540 N   0  0  0  0  0  0  0  0  0  0  0  0
   34.3770   47.0350   -2.3470 C   0  0  0  0  0  0  0  0  0  0  0  0
   33.9030   45.7940   -2.6760 N   0  0  0  0  0  0  0  0  0  0  0  0
   35.7090   46.8120   -1.7480 C   0  0  0  0  0  0  0  0  0  0  0  0
   32.7220   45.3940   -3.4250 C   0  0  0  0  0  0  0  0  0  0  0  0
   34.6470   44.8210   -2.0470 C   0  0  0  0  0  0  0  0  0  0  0  0
   35.8680   45.4520   -1.5650 C   0  0  0  0  0  0  0  0  0  0  0  0
   36.7010   47.7080   -1.3920 C   0  0  0  0  0  0  0  0  0  0  0  0
   32.8810   45.6960   -4.9060 C   0  0  0  0  0  0  0  0  0  0  0  0
   34.3480   43.6460   -1.9120 O   0  0  0  0  0  0  0  0  0  0  0  0
   37.0140   44.9050   -1.0170 C   0  0  0  0  0  0  0  0  0  0  0  0
   37.8770   47.1820   -0.8360 C   0  0  0  0  0  0  0  0  0  0  0  0
   31.7190   45.6850   -5.6050 O   0  0  0  0  0  0  0  0  0  0  0  0
   33.9570   45.9290   -5.4470 O   0  0  0  0  0  0  0  0  0  0  0  0
   38.0310   45.7930   -0.6490 C   0  0  0  0  0  0  0  0  0  0  0  0
  1  2  1  0
  2  3  2  0
  2  4  1  0
  4  5  2  0
  3  6  1  0
  5  7  1  0
  6  7  2  0
  5  8  1  0
  7  9  1  0
  8 10  2  0
  9 11  2  0
 10 11  1  0
 11 12  1  0
 12 13  1  0
 13 14  1  0
 14 15  1  0
 15 16  2  3
 16 17  1  0
 16 18  1  0
 17 19  1  0
 17 20  1  0
 18 21  2  0
 20 21  1  0
 18 22  1  0
 19 23  1  0
 20 24  2  0
 21 25  1  0
 22 26  2  0
 23 27  1  0
 23 28  2  0
 25 29  2  0
 26 29  1  0
M  END
