mac-x0204-mac-x0576
     RDKit          3D

 24 26  0  0  0  0  0  0  0  0999 V2000
   31.4640   45.9810   -6.0450 O   0  0  0  0  0  0  0  0  0  0  0  0
   30.6880   45.7600   -4.8700 C   0  0  0  0  0  0  0  0  0  0  0  0
   30.7040   44.3550   -4.7110 O   0  0  0  0  0  0  0  0  0  0  0  0
   29.2220   46.2090   -5.0780 C   0  0  0  0  0  0  0  0  0  0  0  0
   31.2930   46.4950   -3.6990 C   0  0  0  0  0  0  0  0  0  0  0  0
   29.0170   47.6490   -4.9330 N   0  0  0  0  0  0  0  0  0  0  0  0
   30.5610   46.6730   -2.5200 C   0  0  0  0  0  0  0  0  0  0  0  0
   32.5810   47.0270   -3.7290 C   0  0  0  0  0  0  0  0  0  0  0  0
   31.1200   47.3510   -1.4500 C   0  0  0  0  0  0  0  0  0  0  0  0
   33.1560   47.6950   -2.6940 N   0  0  0  0  0  0  0  0  0  0  0  0
   29.0770   48.3450   -5.9980 C   0  0  0  0  0  0  0  0  0  0  0  0
   30.3660   47.4940   -0.3240 O   0  0  0  0  0  0  0  0  0  0  0  0
   32.4080   47.8410   -1.5770 C   0  0  0  0  0  0  0  0  0  0  0  0
   29.3140   47.8690   -7.2490 N   0  0  0  0  0  0  0  0  0  0  0  0
   28.8540   49.8560   -5.8920 C   0  0  2  0  0  0  0  0  0  0  0  0
   28.8200   48.5540   -8.3780 C   0  0  2  0  0  0  0  0  0  0  0  0
   29.4540   50.4910   -7.1510 C   0  0  1  0  0  0  0  0  0  0  0  0
   29.5460   50.4210   -4.7100 N   0  0  0  0  0  0  0  0  0  0  0  0
   29.3340   48.1450   -9.6550 N   0  0  0  0  0  0  0  0  0  0  0  0
   28.8910   49.9960   -8.4110 N   0  0  0  0  0  0  0  0  0  0  0  0
   29.1710   51.8970   -7.1420 N   0  0  0  0  0  0  0  0  0  0  0  0
   29.2180   51.8680   -4.6190 C   0  0  0  0  0  0  0  0  0  0  0  0
   29.0990   52.6130   -5.9690 C   0  0  0  0  0  0  0  0  0  0  0  0
   28.9410   53.8320   -6.0170 O   0  0  0  0  0  0  0  0  0  0  0  0
  2  1  1  0
  2  3  1  0
  2  4  1  0
  2  5  1  0
  4  6  1  0
  5  7  2  0
  5  8  1  0
  7  9  1  0
  8 10  2  0
  6 11  2  3
  9 12  1  0
  9 13  2  0
 10 13  1  0
 11 14  1  0
 11 15  1  0
 14 16  1  0
 15 17  1  0
 15 18  1  1
 16 19  1  6
 16 20  1  0
 17 20  1  6
 17 21  1  0
 18 22  1  0
 21 23  1  0
 22 23  1  0
 23 24  2  0
M  END
