mac-x0137-mac-x0124
     RDKit          3D

 18 20  0  0  0  0  0  0  0  0999 V2000
   31.6200   49.8290   -3.6910 F   0  0  0  0  0  0  0  0  0  0  0  0
   31.1300   48.6380   -3.2350 C   0  0  2  0  0  0  0  0  0  0  0  0
   32.1620   47.5540   -3.5400 C   0  0  0  0  0  0  0  0  0  0  0  0
   29.7700   48.3880   -3.8980 C   0  0  0  0  0  0  0  0  0  0  0  0
   29.9160   48.0750   -5.3370 N   0  0  0  0  0  0  0  0  0  0  0  0
   32.2790   47.3070   -5.0420 C   0  0  0  0  0  0  0  0  0  0  0  0
   30.9060   47.0170   -5.6830 C   0  0  1  0  0  0  0  0  0  0  0  0
   29.1490   48.7300   -6.3310 C   0  0  0  0  0  0  0  0  0  0  0  0
   30.3820   45.6550   -5.2060 C   0  0  0  0  0  0  0  0  0  0  0  0
   28.7630   48.0070   -7.4700 N   0  0  0  0  0  0  0  0  0  0  0  0
   28.7990   50.0310   -6.1770 C   0  0  0  0  0  0  0  0  0  0  0  0
   28.0630   48.6200   -8.3820 C   0  0  0  0  0  0  0  0  0  0  0  0
   27.9970   50.6910   -7.2370 C   0  0  0  0  0  0  0  0  0  0  0  0
   28.9860   51.0610   -5.2060 C   0  0  0  0  0  0  0  0  0  0  0  0
   27.6630   49.9310   -8.3260 N   0  0  0  0  0  0  0  0  0  0  0  0
   27.7370   51.9410   -6.9360 N   0  0  0  0  0  0  0  0  0  0  0  0
   28.3500   52.1330   -5.7040 C   0  0  0  0  0  0  0  0  0  0  0  0
   27.2380   50.5830   -9.5000 N   0  0  0  0  0  0  0  0  0  0  0  0
  2  1  1  6
  2  3  1  0
  2  4  1  0
  4  5  1  0
  3  6  1  0
  5  7  1  0
  6  7  1  0
  5  8  1  0
  7  9  1  1
  8 10  1  0
  8 11  2  0
 10 12  2  0
 11 13  1  0
 11 14  1  0
 12 15  1  0
 13 15  1  0
 13 16  2  0
 14 17  2  0
 16 17  1  0
 15 18  1  0
M  END
