mac-x0510-mac-x0496
     RDKit          3D

 22 24  0  0  0  0  0  0  0  0999 V2000
   29.0000   53.7950   -5.1460 C   0  0  0  0  0  0  0  0  0  0  0  0
   28.7820   54.8260   -6.0440 N   0  0  0  0  0  0  0  0  0  0  0  0
   29.0890   56.2190   -5.6680 C   0  0  0  0  0  0  0  0  0  0  0  0
   29.1980   54.0200   -3.9530 O   0  0  0  0  0  0  0  0  0  0  0  0
   29.0100   52.2810   -5.5710 C   0  0  0  0  0  0  0  0  0  0  0  0
   28.7740   51.8120   -6.8640 N   0  0  0  0  0  0  0  0  0  0  0  0
   29.2710   51.4530   -4.5850 N   0  0  0  0  0  0  0  0  0  0  0  0
   28.8040   50.4560   -7.1360 C   0  0  0  0  0  0  0  0  0  0  0  0
   29.3060   50.0790   -4.8500 C   0  0  0  0  0  0  0  0  0  0  0  0
   27.8670   57.0720   -5.4950 C   0  0  0  0  0  0  0  0  0  0  0  0
   29.5980   49.1790   -3.7100 C   0  0  0  0  0  0  0  0  0  0  0  0
   29.0950   49.5130   -6.0450 C   0  0  0  0  0  0  0  0  0  0  0  0
   28.6220   49.7590   -8.2240 N   0  0  0  0  0  0  0  0  0  0  0  0
   27.8060   57.8980   -4.3970 O   0  0  0  0  0  0  0  0  0  0  0  0
   26.7960   57.1660   -6.2550 N   0  0  0  0  0  0  0  0  0  0  0  0
   29.7720   47.9790   -3.7890 O   0  0  0  0  0  0  0  0  0  0  0  0
   29.6620   49.8130   -2.5200 O   0  0  0  0  0  0  0  0  0  0  0  0
   29.0740   48.2440   -6.5560 N   0  0  0  0  0  0  0  0  0  0  0  0
   28.7950   48.4370   -7.8130 C   0  0  0  0  0  0  0  0  0  0  0  0
   26.0350   58.0950   -5.5910 C   0  0  0  0  0  0  0  0  0  0  0  0
   26.5810   58.5770   -4.4690 N   0  0  0  0  0  0  0  0  0  0  0  0
   24.7100   58.5270   -6.0840 C   0  0  0  0  0  0  0  0  0  0  0  0
  1  2  1  0
  2  3  1  0
  1  4  2  0
  1  5  1  0
  5  6  1  0
  5  7  2  0
  6  8  1  0
  7  9  1  0
  3 10  1  0
  9 11  1  0
  8 12  1  0
  9 12  2  0
  8 13  2  0
 10 14  1  0
 10 15  2  0
 11 16  2  0
 11 17  1  0
 12 18  1  0
 13 19  1  0
 18 19  2  0
 15 20  1  0
 14 21  1  0
 20 21  2  0
 20 22  1  0
M  END
