mac-x0361-mac-x0387
     RDKit          3D

 20 22  0  0  0  0  0  0  0  0999 V2000
   30.4500   55.6390   -2.6650 N   0  0  0  0  0  0  0  0  0  0  0  0
   30.9040   54.3880   -2.3390 C   0  0  0  0  0  0  0  0  0  0  0  0
   31.6490   54.2270   -1.3810 O   0  0  0  0  0  0  0  0  0  0  0  0
   30.4580   53.2490   -3.1850 C   0  0  0  0  0  0  0  0  0  0  0  0
   30.1620   53.4940   -4.5290 C   0  0  0  0  0  0  0  0  0  0  0  0
   30.3270   51.9510   -2.6790 C   0  0  0  0  0  0  0  0  0  0  0  0
   29.7390   52.4510   -5.3620 C   0  0  0  0  0  0  0  0  0  0  0  0
   29.9050   50.9120   -3.5140 C   0  0  0  0  0  0  0  0  0  0  0  0
   29.6030   51.1440   -4.8670 C   0  0  0  0  0  0  0  0  0  0  0  0
   29.1600   50.0500   -5.7420 C   0  0  0  0  0  0  0  0  0  0  0  0
   29.9820   48.9360   -5.9770 C   0  0  0  0  0  0  0  0  0  0  0  0
   27.9100   50.0860   -6.3650 C   0  0  0  0  0  0  0  0  0  0  0  0
   29.5750   47.8770   -6.8130 C   0  0  0  0  0  0  0  0  0  0  0  0
   27.4880   49.0430   -7.1980 C   0  0  0  0  0  0  0  0  0  0  0  0
   28.3120   47.9190   -7.4380 C   0  0  0  0  0  0  0  0  0  0  0  0
   30.4100   46.7780   -7.0310 C   0  0  0  0  0  0  0  0  0  0  0  0
   27.9580   46.8230   -8.2650 C   0  0  0  0  0  0  0  0  0  0  0  0
   29.9650   45.7650   -7.8580 C   0  0  0  0  0  0  0  0  0  0  0  0
   26.7200   46.7760   -8.9260 N   0  0  0  0  0  0  0  0  0  0  0  0
   28.7660   45.7660   -8.4720 N   0  0  0  0  0  0  0  0  0  0  0  0
  1  2  1  0
  2  3  2  0
  2  4  1  0
  4  5  2  0
  4  6  1  0
  5  7  1  0
  6  8  2  0
  7  9  2  0
  8  9  1  0
  9 10  1  0
 10 11  2  0
 10 12  1  0
 11 13  1  0
 12 14  2  0
 13 15  2  0
 14 15  1  0
 13 16  1  0
 15 17  1  0
 16 18  2  0
 17 19  1  0
 17 20  2  0
 18 20  1  0
M  END
