mac-x0572-mac-x0124
     RDKit          3D

 23 26  0  0  0  0  0  0  0  0999 V2000
   28.8760   55.6770   -7.5330 C   0  0  0  0  0  0  0  0  0  0  0  0
   29.1480   54.6020   -6.5100 C   0  0  0  0  0  0  0  0  0  0  0  0
   28.7900   53.3140   -6.9190 N   0  0  0  0  0  0  0  0  0  0  0  0
   29.6840   54.9330   -5.3120 C   0  0  0  0  0  0  0  0  0  0  0  0
   30.0190   56.2180   -4.9330 O   0  0  0  0  0  0  0  0  0  0  0  0
   29.9360   53.8690   -4.3250 C   0  0  0  0  0  0  0  0  0  0  0  0
   28.8810   52.3390   -6.0490 C   0  0  0  0  0  0  0  0  0  0  0  0
   30.5770   54.1330   -3.3090 O   0  0  0  0  0  0  0  0  0  0  0  0
   29.3730   52.5260   -4.6250 C   0  0  2  0  0  0  0  0  0  0  0  0
   28.5010   50.8940   -6.1790 C   0  0  0  0  0  0  0  0  0  0  0  0
   27.8080   50.4120   -5.1550 C   0  0  0  0  0  0  0  0  0  0  0  0
   28.2250   52.2060   -3.7320 C   0  0  0  0  0  0  0  0  0  0  0  0
   28.7790   49.7290   -6.9250 C   0  0  0  0  0  0  0  0  0  0  0  0
   27.4530   51.1700   -4.0260 C   0  0  0  0  0  0  0  0  0  0  0  0
   29.3090   48.8980   -5.9740 C   0  0  0  0  0  0  0  0  0  0  0  0
   28.5980   49.3680   -8.2090 N   0  0  0  0  0  0  0  0  0  0  0  0
   29.6010   49.0500   -4.5850 C   0  0  0  0  0  0  0  0  0  0  0  0
   29.6480   47.6440   -6.3430 C   0  0  0  0  0  0  0  0  0  0  0  0
   28.9840   48.0820   -8.4530 C   0  0  0  0  0  0  0  0  0  0  0  0
   30.1360   47.0160   -5.2100 N   0  0  0  0  0  0  0  0  0  0  0  0
   30.1120   47.8720   -4.1390 C   0  0  0  0  0  0  0  0  0  0  0  0
   29.5080   47.1600   -7.5910 N   0  0  0  0  0  0  0  0  0  0  0  0
   30.6020   45.6600   -5.1520 C   0  0  0  0  0  0  0  0  0  0  0  0
  1  2  1  0
  2  3  1  0
  2  4  2  0
  4  5  1  0
  4  6  1  0
  3  7  2  0
  6  8  2  0
  6  9  1  0
  7  9  1  0
  7 10  1  0
 10 11  2  0
  9 12  1  1
 10 13  1  0
 11 14  1  0
 12 14  2  0
 13 15  1  0
 13 16  2  0
 15 17  1  0
 15 18  2  0
 16 19  1  0
 18 20  1  0
 17 21  2  0
 20 21  1  0
 18 22  1  0
 19 22  2  0
 20 23  1  0
M  END
