mac-x0142-mac-x0124
     RDKit          3D

 19 22  0  0  0  0  0  0  0  0999 V2000
   29.8860   49.5170   -2.9100 C   0  0  0  0  0  0  0  0  0  0  0  0
   29.2890   49.8400   -4.2240 C   0  0  0  0  0  0  0  0  0  0  0  0
   29.3220   49.0420   -5.4170 C   0  0  0  0  0  0  0  0  0  0  0  0
   28.6000   50.9450   -4.5610 C   0  0  0  0  0  0  0  0  0  0  0  0
   28.5670   49.8690   -6.3980 C   0  0  0  0  0  0  0  0  0  0  0  0
   29.8110   47.8450   -5.8300 C   0  0  0  0  0  0  0  0  0  0  0  0
   28.1480   50.9940   -5.8710 N   0  0  0  0  0  0  0  0  0  0  0  0
   30.5340   47.0230   -4.9420 N   0  0  0  0  0  0  0  0  0  0  0  0
   29.6230   47.3890   -7.1450 N   0  0  0  0  0  0  0  0  0  0  0  0
   28.4220   49.3650   -7.6640 N   0  0  0  0  0  0  0  0  0  0  0  0
   27.9640   50.2160   -8.6900 N   0  0  0  0  0  0  0  0  0  0  0  0
   31.8680   47.4640   -4.4830 C   0  0  0  0  0  0  0  0  0  0  0  0
   30.3690   45.5610   -5.0600 C   0  0  0  0  0  0  0  0  0  0  0  0
   28.9600   48.1440   -7.9720 C   0  0  0  0  0  0  0  0  0  0  0  0
   31.6290   44.8650   -4.5880 C   0  0  0  0  0  0  0  0  0  0  0  0
   32.2400   46.8300   -3.1460 C   0  0  0  0  0  0  0  0  0  0  0  0
   31.8540   43.4170   -4.9770 C   0  0  0  0  0  0  0  0  0  0  0  0
   32.6740   44.4940   -5.6250 C   0  0  0  0  0  0  0  0  0  0  0  0
   32.1000   45.3100   -3.2200 C   0  0  0  0  0  0  0  0  0  0  0  0
  1  2  1  0
  2  3  1  0
  2  4  2  0
  3  5  1  0
  3  6  2  0
  4  7  1  0
  5  7  2  0
  6  8  1  0
  6  9  1  0
  5 10  1  0
 10 11  1  0
  8 12  1  0
  8 13  1  0
  9 14  2  0
 10 14  1  0
 15 13  1  0
 12 16  1  0
 15 17  1  0
 15 18  1  0
 17 18  1  0
 15 19  1  0
 16 19  1  0
M  END
