mac-x0345-mac-x0178
     RDKit          3D

 25 26  0  0  0  0  0  0  0  0999 V2000
   29.5150   54.6660   -4.9450 C   0  0  0  0  0  0  0  0  0  0  0  0
   29.4020   53.1890   -4.7090 C   0  0  0  0  0  0  0  0  0  0  0  0
   29.8030   52.7640   -3.4790 N   0  0  0  0  0  0  0  0  0  0  0  0
   28.9220   52.3090   -5.6760 C   0  0  0  0  0  0  0  0  0  0  0  0
   28.3570   52.8780   -7.3930 Br  0  0  0  0  0  0  0  0  0  0  0  0
   28.8550   50.9560   -5.3690 C   0  0  0  0  0  0  0  0  0  0  0  0
   29.7370   51.4520   -3.1840 C   0  0  0  0  0  0  0  0  0  0  0  0
   30.1410   50.9930   -1.9330 N   0  0  0  0  0  0  0  0  0  0  0  0
   29.2680   50.5250   -4.1100 C   0  0  0  0  0  0  0  0  0  0  0  0
   29.5460   49.7710   -1.4000 C   0  0  0  0  0  0  0  0  0  0  0  0
   28.0410   49.5940   -1.6310 C   0  0  0  0  0  0  0  0  0  0  0  0
   27.5880   48.2190   -2.1000 C   0  0  0  0  0  0  0  0  0  0  0  0
   27.6490   47.2350   -1.0000 N   0  0  0  0  0  0  0  0  0  0  0  0
   28.9950   46.5840   -0.7060 S   0  0  2  0  0  0  0  0  0  0  0  0
   28.4560   45.0760   -0.2190 N   0  0  0  0  0  0  0  0  0  0  0  0
   29.9220   46.9400    0.3370 O   0  0  0  0  0  0  0  0  0  0  0  0
   29.8580   46.4330   -2.2390 C   0  0  0  0  0  0  0  0  0  0  0  0
   29.2940   45.6880   -3.2760 C   0  0  0  0  0  0  0  0  0  0  0  0
   31.0940   47.0650   -2.3960 C   0  0  0  0  0  0  0  0  0  0  0  0
   29.9760   45.5750   -4.4880 C   0  0  0  0  0  0  0  0  0  0  0  0
   31.7730   46.9500   -3.6110 C   0  0  0  0  0  0  0  0  0  0  0  0
   31.2160   46.2050   -4.6630 C   0  0  0  0  0  0  0  0  0  0  0  0
   31.9580   46.1040   -5.9400 C   0  0  0  0  0  0  0  0  0  0  0  0
   31.4740   45.8030   -7.0140 O   0  0  0  0  0  0  0  0  0  0  0  0
   33.2650   46.3880   -5.8160 O   0  0  0  0  0  0  0  0  0  0  0  0
  1  2  1  0
  2  3  2  0
  2  4  1  0
  4  5  1  0
  4  6  2  0
  3  7  1  0
  7  8  1  0
  6  9  1  0
  7  9  2  0
  8 10  1  0
 10 11  1  0
 11 12  1  0
 12 13  1  0
 13 14  2  0
 14 15  1  1
 14 16  2  0
 14 17  1  0
 17 18  2  0
 17 19  1  0
 18 20  1  0
 19 21  2  0
 20 22  2  0
 21 22  1  0
 22 23  1  0
 23 24  2  0
 23 25  1  0
M  END
