mac-x0380-mac-x0224
     RDKit          3D

 26 28  0  0  0  0  0  0  0  0999 V2000
   27.8880   49.0960   -2.5470 O   0  0  0  0  0  0  0  0  0  0  0  0
   28.9750   49.7900   -3.1420 C   0  0  0  0  0  0  0  0  0  0  0  0
   29.9100   50.0590   -2.1140 O   0  0  0  0  0  0  0  0  0  0  0  0
   28.4840   51.0260   -3.8770 C   0  0  0  0  0  0  0  0  0  0  0  0
   29.5830   48.9850   -4.2490 C   0  0  0  0  0  0  0  0  0  0  0  0
   28.9640   52.3040   -3.5620 C   0  0  0  0  0  0  0  0  0  0  0  0
   27.5410   50.9070   -4.9190 C   0  0  0  0  0  0  0  0  0  0  0  0
   30.0530   47.6680   -4.2350 C   0  0  0  0  0  0  0  0  0  0  0  0
   29.6520   49.7150   -5.4430 C   0  0  0  0  0  0  0  0  0  0  0  0
   30.0210   46.8950   -3.0940 O   0  0  0  0  0  0  0  0  0  0  0  0
   28.5230   53.4300   -4.2680 C   0  0  0  0  0  0  0  0  0  0  0  0
   27.1000   52.0250   -5.6230 C   0  0  0  0  0  0  0  0  0  0  0  0
   30.1560   49.1890   -6.6030 C   0  0  0  0  0  0  0  0  0  0  0  0
   30.5730   47.1030   -5.4160 C   0  0  0  0  0  0  0  0  0  0  0  0
   30.1970   50.1970   -8.0690 S   0  0  0  0  0  0  0  0  0  0  0  0
   31.0910   45.7110   -5.5280 C   0  0  0  0  0  0  0  0  0  0  0  0
   27.5940   53.2860   -5.3010 C   0  0  0  0  0  0  0  0  0  0  0  0
   29.1630   55.0250   -3.8320 S   0  0  0  0  0  0  0  0  0  0  0  0
   30.6170   47.8790   -6.5950 C   0  0  0  0  0  0  0  0  0  0  0  0
   29.6420   51.7800   -7.3720 C   0  0  0  0  0  0  0  0  0  0  0  0
   31.0790   45.1010   -6.5850 O   0  0  0  0  0  0  0  0  0  0  0  0
   31.5680   45.1690   -4.3900 O   0  0  0  0  0  0  0  0  0  0  0  0
   27.1450   54.3960   -6.0280 N   0  0  0  0  0  0  0  0  0  0  0  0
   29.1480   55.7700   -5.4790 C   0  0  0  0  0  0  0  0  0  0  0  0
   27.8750   55.5280   -6.2640 C   0  0  0  0  0  0  0  0  0  0  0  0
   27.4810   56.3310   -7.1130 O   0  0  0  0  0  0  0  0  0  0  0  0
  2  1  1  0
  2  3  1  0
  2  4  1  0
  2  5  1  0
  4  6  2  0
  4  7  1  0
  5  8  2  0
  5  9  1  0
  8 10  1  0
  6 11  1  0
  7 12  2  0
  9 13  2  0
  8 14  1  0
 13 15  1  0
 14 16  1  0
 11 17  2  0
 12 17  1  0
 11 18  1  0
 13 19  1  0
 14 19  2  0
 15 20  1  0
 16 21  2  0
 16 22  1  0
 17 23  1  0
 18 24  1  0
 23 25  1  0
 24 25  1  0
 25 26  2  0
M  END
