mac-x0584-mac-x0412
     RDKit          3D

 24 28  0  0  0  0  0  0  0  0999 V2000
   30.7450   54.4110   -4.7360 O   0  0  0  0  0  0  0  0  0  0  0  0
   29.8280   53.7740   -5.2450 C   0  0  0  0  0  0  0  0  0  0  0  0
   28.5240   54.1220   -5.0190 N   0  0  0  0  0  0  0  0  0  0  0  0
   30.0700   52.5820   -6.1440 C   0  0  0  0  0  0  0  0  0  0  0  0
   28.9600   51.5120   -6.0980 C   0  0  1  0  0  0  0  0  0  0  0  0
   27.4530   53.3140   -5.2570 C   0  0  0  0  0  0  0  0  0  0  0  0
   28.7920   50.8820   -7.4110 N   0  0  0  0  0  0  0  0  0  0  0  0
   29.3450   50.3700   -5.0950 C   0  0  0  0  0  0  0  0  0  0  0  0
   27.6120   52.0890   -5.7610 C   0  0  0  0  0  0  0  0  0  0  0  0
   29.1530   49.5230   -7.2700 C   0  0  0  0  0  0  0  0  0  0  0  0
   29.4810   49.1660   -5.9660 C   0  0  0  0  0  0  0  0  0  0  0  0
   29.1640   48.7000   -8.3090 N   0  0  0  0  0  0  0  0  0  0  0  0
   29.8460   47.8620   -5.7280 C   0  0  0  0  0  0  0  0  0  0  0  0
   30.2000   47.3320   -4.5130 N   0  0  0  0  0  0  0  0  0  0  0  0
   29.8660   47.0040   -6.7730 N   0  0  0  0  0  0  0  0  0  0  0  0
   29.5290   47.4580   -7.9950 C   0  0  0  0  0  0  0  0  0  0  0  0
   30.5510   45.9600   -4.1630 C   0  0  1  0  0  0  0  0  0  0  0  0
   29.9970   48.1590   -3.3170 C   0  0  0  0  0  0  0  0  0  0  0  0
   32.0450   45.6840   -4.4100 C   0  0  0  0  0  0  0  0  0  0  0  0
   30.0970   45.8490   -2.7030 C   0  0  0  0  0  0  0  0  0  0  0  0
   30.2950   47.2440   -2.1370 C   0  0  0  0  0  0  0  0  0  0  0  0
   32.5770   44.6230   -5.4090 C   0  0  0  0  0  0  0  0  0  0  0  0
   32.8670   46.7390   -5.1990 C   0  0  0  0  0  0  0  0  0  0  0  0
   33.7100   45.5890   -5.7850 C   0  0  0  0  0  0  0  0  0  0  0  0
  1  2  2  0
  2  3  1  0
  2  4  1  0
  5  4  1  6
  3  6  1  0
  5  7  1  0
  5  8  1  0
  5  9  1  0
  6  9  2  0
  7 10  1  0
  8 11  1  0
 10 11  2  0
 10 12  1  0
 11 13  1  0
 13 14  1  0
 13 15  2  0
 12 16  2  0
 15 16  1  0
 14 17  1  0
 14 18  1  0
 17 19  1  1
 17 20  1  0
 18 21  1  0
 20 21  1  0
 19 22  1  0
 19 23  1  0
 22 24  1  0
 23 24  1  0
M  END
