mac-x0441-mac-x0411
     RDKit          3D

 20 22  0  0  0  0  0  0  0  0999 V2000
   33.9070   44.6090   -6.5740 O   0  0  0  0  0  0  0  0  0  0  0  0
   32.8560   44.9190   -5.7690 C   0  0  0  0  0  0  0  0  0  0  0  0
   31.7060   44.6740   -6.0970 O   0  0  0  0  0  0  0  0  0  0  0  0
   33.2780   45.6140   -4.4870 C   0  0  2  0  0  0  0  0  0  0  0  0
   34.2040   46.7110   -4.8020 O   0  0  0  0  0  0  0  0  0  0  0  0
   34.1770   44.8420   -3.6550 N   0  0  0  0  0  0  0  0  0  0  0  0
   34.3060   43.5710   -3.2540 N   0  0  0  0  0  0  0  0  0  0  0  0
   35.1050   45.6450   -3.2070 C   0  0  0  0  0  0  0  0  0  0  0  0
   34.9190   46.9980   -3.6080 C   0  0  2  0  0  0  0  0  0  0  0  0
   33.7850   47.8300   -2.5490 Cl  0  0  0  0  0  0  0  0  0  0  0  0
   35.4730   43.6410   -2.5010 C   0  0  0  0  0  0  0  0  0  0  0  0
   35.9940   44.9770   -2.4930 C   0  0  0  0  0  0  0  0  0  0  0  0
   36.3470   47.6050   -3.6420 C   0  0  0  0  0  0  0  0  0  0  0  0
   36.1070   42.4680   -1.7960 C   0  0  0  0  0  0  0  0  0  0  0  0
   37.1660   45.6670   -1.9370 C   0  0  2  0  0  0  0  0  0  0  0  0
   37.2250   47.1860   -2.3900 C   0  0  0  0  0  0  0  0  0  0  0  0
   37.2080   42.0260   -2.4640 F   0  0  0  0  0  0  0  0  0  0  0  0
   36.5180   42.8070   -0.5450 F   0  0  0  0  0  0  0  0  0  0  0  0
   35.2690   41.4080   -1.6620 F   0  0  0  0  0  0  0  0  0  0  0  0
   38.5270   44.7570   -2.6060 Cl  0  0  0  0  0  0  0  0  0  0  0  0
  1  2  1  0
  2  3  2  0
  4  2  1  6
  4  5  1  0
  4  6  1  0
  6  7  1  0
  6  8  1  0
  5  9  1  0
  8  9  1  0
  9 10  1  1
  7 11  2  0
  8 12  2  0
 11 12  1  0
  9 13  1  0
 11 14  1  0
 12 15  1  0
 13 16  1  0
 15 16  1  0
 14 17  1  0
 14 18  1  0
 14 19  1  0
 15 20  1  6
M  END
