mac-x0277-mac-x0212
     RDKit          3D

 25 26  0  0  0  0  0  0  0  0999 V2000
   27.2960   45.7240   -0.4360 Cl  0  0  0  0  0  0  0  0  0  0  0  0
   28.5450   45.6520   -1.6250 C   0  0  0  0  0  0  0  0  0  0  0  0
   29.8000   46.2330   -1.4280 C   0  0  0  0  0  0  0  0  0  0  0  0
   28.2670   44.9860   -2.8230 C   0  0  0  0  0  0  0  0  0  0  0  0
   30.2160   47.0740    0.0220 Cl  0  0  0  0  0  0  0  0  0  0  0  0
   30.7700   46.1440   -2.4300 C   0  0  0  0  0  0  0  0  0  0  0  0
   29.2370   44.9000   -3.8230 C   0  0  0  0  0  0  0  0  0  0  0  0
   30.4980   45.4810   -3.6370 C   0  0  0  0  0  0  0  0  0  0  0  0
   31.5490   45.3960   -4.7270 C   0  0  0  0  0  0  0  0  0  0  0  0
   31.8230   46.7560   -5.4240 C   0  0  0  0  0  0  0  0  0  0  0  0
   33.1200   46.8240   -6.0040 O   0  0  0  0  0  0  0  0  0  0  0  0
   30.9060   46.9320   -6.5070 O   0  0  0  0  0  0  0  0  0  0  0  0
   31.6090   47.9460   -4.4040 C   0  0  1  0  0  0  0  0  0  0  0  0
   32.8920   48.4080   -3.9480 O   0  0  0  0  0  0  0  0  0  0  0  0
   30.7670   49.1320   -4.8470 C   0  0  0  0  0  0  0  0  0  0  0  0
   30.5550   49.4720   -6.1920 C   0  0  0  0  0  0  0  0  0  0  0  0
   30.1700   49.9330   -3.8550 C   0  0  0  0  0  0  0  0  0  0  0  0
   29.7730   50.5820   -6.5350 C   0  0  0  0  0  0  0  0  0  0  0  0
   29.3910   51.0410   -4.1950 C   0  0  0  0  0  0  0  0  0  0  0  0
   29.1950   51.3630   -5.5350 C   0  0  0  0  0  0  0  0  0  0  0  0
   28.4050   52.4990   -5.8830 N   0  0  0  0  0  0  0  0  0  0  0  0
   29.1090   54.0200   -5.6100 S   0  0  0  0  0  0  0  0  0  0  0  0
   30.6800   53.8070   -6.4180 C   0  0  0  0  0  0  0  0  0  0  0  0
   28.3730   55.0590   -6.2950 O   0  0  0  0  0  0  0  0  0  0  0  0
   29.3570   54.0850   -4.1860 O   0  0  0  0  0  0  0  0  0  0  0  0
  1  2  1  0
  2  3  2  0
  2  4  1  0
  3  5  1  0
  3  6  1  0
  4  7  2  0
  6  8  2  0
  7  8  1  0
  8  9  1  0
  9 10  1  0
 10 11  1  0
 10 12  1  0
 10 13  1  0
 13 14  1  6
 13 15  1  0
 15 16  2  0
 15 17  1  0
 16 18  1  0
 17 19  2  0
 18 20  2  0
 19 20  1  0
 20 21  1  0
 22 21  1  0
 22 23  1  0
 22 24  2  0
 22 25  2  0
M  END
