mac-x0357-mac-x0546
     RDKit          3D

 24 26  0  0  0  0  0  0  0  0999 V2000
   32.9770   43.4180   -4.6330 C   0  0  0  0  0  0  0  0  0  0  0  0
   33.7120   44.6460   -4.1650 C   0  0  0  0  0  0  0  0  0  0  0  0
   34.7270   44.4890   -3.2630 C   0  0  0  0  0  0  0  0  0  0  0  0
   33.3270   45.8680   -4.6660 C   0  0  0  0  0  0  0  0  0  0  0  0
   35.1510   43.3080   -2.7330 O   0  0  0  0  0  0  0  0  0  0  0  0
   32.1150   46.0930   -5.7450 S   0  0  0  0  0  0  0  0  0  0  0  0
   34.0470   46.9490   -4.1890 C   0  0  0  0  0  0  0  0  0  0  0  0
   35.4050   45.6190   -2.8280 C   0  0  0  0  0  0  0  0  0  0  0  0
   31.7560   47.4110   -5.0510 O   0  0  0  0  0  0  0  0  0  0  0  0
   32.5810   47.3360   -7.0120 O   0  0  0  0  0  0  0  0  0  0  0  0
   30.6550   45.6000   -5.8230 C   0  0  0  0  0  0  0  0  0  0  0  0
   32.7130   45.2040   -6.8040 O   0  0  0  0  0  0  0  0  0  0  0  0
   35.0580   46.8370   -3.2950 C   0  0  0  0  0  0  0  0  0  0  0  0
   30.1040   45.0540   -4.5340 C   0  0  0  0  0  0  0  0  0  0  0  0
   29.5890   45.7200   -3.3620 C   0  0  2  0  0  0  0  0  0  0  0  0
   29.9950   43.7330   -4.2560 C   0  0  0  0  0  0  0  0  0  0  0  0
   30.0110   46.9870   -2.8170 C   0  0  0  0  0  0  0  0  0  0  0  0
   29.1830   44.6940   -2.4260 C   0  0  0  0  0  0  0  0  0  0  0  0
   29.4340   43.5690   -2.9780 N   0  0  0  0  0  0  0  0  0  0  0  0
   29.6350   47.2580   -1.5400 C   0  0  0  0  0  0  0  0  0  0  0  0
   28.6110   45.0890   -1.1340 C   0  0  0  0  0  0  0  0  0  0  0  0
   30.0510   48.4940   -1.0410 O   0  0  0  0  0  0  0  0  0  0  0  0
   28.8530   46.3340   -0.7480 C   0  0  0  0  0  0  0  0  0  0  0  0
   31.4140   48.7470   -0.7140 C   0  0  0  0  0  0  0  0  0  0  0  0
  1  2  1  0
  2  3  2  0
  2  4  1  0
  3  5  1  0
  4  6  1  0
  4  7  2  0
  3  8  1  0
  6  9  2  0
  6 10  1  0
  6 11  1  0
  6 12  1  0
  7 13  1  0
  8 13  2  0
 11 14  1  0
 14 15  1  0
 14 16  2  0
 15 17  1  1
 15 18  1  0
 16 19  1  0
 18 19  2  0
 17 20  2  0
 18 21  1  0
 20 22  1  0
 20 23  1  0
 21 23  2  0
 22 24  1  0
M  END
