mac-x0360-mac-x0255
     RDKit          3D

 26 28  0  0  0  0  0  0  0  0999 V2000
   31.8420   55.0830   -6.9320 Cl  0  0  0  0  0  0  0  0  0  0  0  0
   32.0620   53.4660   -6.3840 C   0  0  0  0  0  0  0  0  0  0  0  0
   33.3430   53.0310   -6.0490 C   0  0  0  0  0  0  0  0  0  0  0  0
   30.9680   52.5990   -6.2800 C   0  0  0  0  0  0  0  0  0  0  0  0
   31.1650   51.2800   -5.8340 C   0  0  0  0  0  0  0  0  0  0  0  0
   33.5290   51.7240   -5.6080 C   0  0  0  0  0  0  0  0  0  0  0  0
   35.1150   51.1960   -5.1980 Cl  0  0  0  0  0  0  0  0  0  0  0  0
   29.7570   50.1750   -5.7020 S   0  0  0  0  0  0  0  0  0  0  0  0
   32.4500   50.8380   -5.4940 C   0  0  0  0  0  0  0  0  0  0  0  0
   30.4250   48.6940   -5.1980 N   0  0  0  0  0  0  0  0  0  0  0  0
   28.9680   50.6900   -4.6040 O   0  0  0  0  0  0  0  0  0  0  0  0
   29.1800   50.0230   -7.0170 O   0  0  0  0  0  0  0  0  0  0  0  0
   30.0220   47.3440   -5.7270 C   0  0  0  0  0  0  0  0  0  0  0  0
   30.4400   46.3520   -4.6410 C   0  0  0  0  0  0  0  0  0  0  0  0
   31.6290   45.6040   -4.5800 C   0  0  0  0  0  0  0  0  0  0  0  0
   29.5990   46.0950   -3.4790 C   0  0  0  0  0  0  0  0  0  0  0  0
   32.8340   45.4520   -5.4770 C   0  0  0  0  0  0  0  0  0  0  0  0
   30.1900   45.2300   -2.5980 C   0  0  0  0  0  0  0  0  0  0  0  0
   31.7040   44.6990   -3.1570 S   0  0  0  0  0  0  0  0  0  0  0  0
   28.3200   46.5850   -3.1220 C   0  0  0  0  0  0  0  0  0  0  0  0
   32.6070   45.6520   -6.9490 C   0  0  0  0  0  0  0  0  0  0  0  0
   27.6920   46.2210   -1.9310 C   0  0  0  0  0  0  0  0  0  0  0  0
   29.5730   44.8650   -1.3950 C   0  0  0  0  0  0  0  0  0  0  0  0
   31.3740   45.2890   -7.3630 O   0  0  0  0  0  0  0  0  0  0  0  0
   33.4120   46.0820   -7.7520 O   0  0  0  0  0  0  0  0  0  0  0  0
   28.3230   45.3700   -1.0720 C   0  0  0  0  0  0  0  0  0  0  0  0
  1  2  1  0
  2  3  2  0
  2  4  1  0
  4  5  2  0
  3  6  1  0
  6  7  1  0
  5  8  1  0
  5  9  1  0
  6  9  2  0
  8 10  1  0
  8 11  2  0
  8 12  2  0
 10 13  1  0
 13 14  1  0
 14 15  2  0
 14 16  1  0
 15 17  1  0
 16 18  2  0
 15 19  1  0
 18 19  1  0
 16 20  1  0
 17 21  1  0
 20 22  2  0
 18 23  1  0
 21 24  1  0
 21 25  2  0
 22 26  1  0
 23 26  2  0
M  END
