mac-x0394-mac-x0455
     RDKit          3D

 27 28  0  0  0  0  0  0  0  0999 V2000
   23.6640   50.1190   -3.9200 Cl  0  0  0  0  0  0  0  0  0  0  0  0
   24.9410   51.2450   -4.1710 C   0  0  0  0  0  0  0  0  0  0  0  0
   24.9730   52.4300   -3.4420 C   0  0  0  0  0  0  0  0  0  0  0  0
   25.9340   50.9570   -5.1090 C   0  0  0  0  0  0  0  0  0  0  0  0
   26.9870   51.8580   -5.3370 C   0  0  0  0  0  0  0  0  0  0  0  0
   26.0130   53.3300   -3.6580 C   0  0  0  0  0  0  0  0  0  0  0  0
   26.0610   54.7990   -2.7600 Cl  0  0  0  0  0  0  0  0  0  0  0  0
   28.0740   51.5490   -6.3600 C   0  0  1  0  0  0  0  0  0  0  0  0
   27.0130   53.0560   -4.5960 C   0  0  0  0  0  0  0  0  0  0  0  0
   28.1230   52.6080   -7.4560 C   0  0  0  0  0  0  0  0  0  0  0  0
   29.4620   51.2740   -5.7370 C   0  0  0  0  0  0  0  0  0  0  0  0
   29.2170   53.3960   -7.4320 O   0  0  0  0  0  0  0  0  0  0  0  0
   27.2740   52.7770   -8.3160 O   0  0  0  0  0  0  0  0  0  0  0  0
   30.1650   50.0780   -6.4010 C   0  0  0  0  0  0  0  0  0  0  0  0
   31.1390   49.3820   -5.4460 C   0  0  0  0  0  0  0  0  0  0  0  0
   30.4720   48.5220   -4.3530 C   0  0  0  0  0  0  0  0  0  0  0  0
   30.9440   47.0490   -4.2110 C   0  0  1  0  0  0  0  0  0  0  0  0
   30.2080   46.4860   -3.1080 O   0  0  0  0  0  0  0  0  0  0  0  0
   30.5970   46.2650   -5.5020 C   0  0  0  0  0  0  0  0  0  0  0  0
   32.4260   46.8580   -3.8490 C   0  0  0  0  0  0  0  0  0  0  0  0
   29.5390   45.6720   -5.6790 O   0  0  0  0  0  0  0  0  0  0  0  0
   31.5480   46.2650   -6.4570 O   0  0  0  0  0  0  0  0  0  0  0  0
   33.3260   47.9260   -3.6840 C   0  0  0  0  0  0  0  0  0  0  0  0
   32.9290   45.5500   -3.6660 C   0  0  0  0  0  0  0  0  0  0  0  0
   34.6660   47.6970   -3.3520 C   0  0  0  0  0  0  0  0  0  0  0  0
   34.2680   45.3220   -3.3350 C   0  0  0  0  0  0  0  0  0  0  0  0
   35.1370   46.3970   -3.1780 C   0  0  0  0  0  0  0  0  0  0  0  0
  1  2  1  0
  2  3  2  0
  2  4  1  0
  4  5  2  0
  3  6  1  0
  6  7  1  0
  5  8  1  0
  5  9  1  0
  6  9  2  0
  8 10  1  0
  8 11  1  1
 10 12  1  0
 10 13  2  0
 11 14  1  0
 14 15  1  0
 15 16  1  0
 16 17  1  0
 17 18  1  1
 17 19  1  0
 17 20  1  0
 19 21  2  0
 19 22  1  0
 20 23  2  0
 20 24  1  0
 23 25  1  0
 24 26  2  0
 25 27  2  0
 26 27  1  0
M  END
