mac-x0345
     RDKit          3D

  9  9  0  0  0  0  0  0  0  0999 V2000
   29.5410   54.6770   -4.9790 C   0  0  0  0  0  0  0  0  0  0  0  0
   29.4200   53.1870   -4.6740 C   0  0  0  0  0  0  0  0  0  0  0  0
   29.7960   52.7310   -3.5040 N   0  0  0  0  0  0  0  0  0  0  0  0
   29.7150   51.4560   -3.2100 C   0  0  0  0  0  0  0  0  0  0  0  0
   30.1110   50.9790   -1.9100 N   0  0  0  0  0  0  0  0  0  0  0  0
   29.2470   50.5460   -4.1330 C   0  0  0  0  0  0  0  0  0  0  0  0
   28.8210   50.9840   -5.3610 C   0  0  0  0  0  0  0  0  0  0  0  0
   28.9260   52.3330   -5.6550 C   0  0  0  0  0  0  0  0  0  0  0  0
   28.3380   52.9490   -7.3770 Br  0  0  0  0  0  0  0  0  0  0  0  0
  1  2  1  0
  2  3  2  0
  3  4  1  0
  4  5  1  0
  4  6  2  0
  6  7  1  0
  2  8  1  0
  7  8  2  0
  8  9  1  0
M  END
