mac-x0305-mac-x0371
     RDKit          3D

 21 22  0  0  0  0  0  0  0  0999 V2000
   31.6890   47.6450   -5.6700 O   0  0  0  0  0  0  0  0  0  0  0  0
   31.4610   48.4170   -6.7650 C   0  0  0  0  0  0  0  0  0  0  0  0
   32.0110   48.3660   -7.8520 O   0  0  0  0  0  0  0  0  0  0  0  0
   32.3550   46.4640   -5.8220 C   0  0  0  0  0  0  0  0  0  0  0  0
   32.6450   45.8900   -6.8620 O   0  0  0  0  0  0  0  0  0  0  0  0
   32.7090   45.9430   -4.4330 C   0  0  0  0  0  0  0  0  0  0  0  0
   30.3720   49.3930   -6.4030 C   0  0  0  0  0  0  0  0  0  0  0  0
   29.0420   49.1840   -6.7860 C   0  0  0  0  0  0  0  0  0  0  0  0
   30.7570   50.4900   -5.6780 N   0  0  0  0  0  0  0  0  0  0  0  0
   31.6650   45.0180   -3.8240 C   0  0  0  0  0  0  0  0  0  0  0  0
   28.6490   48.0970   -7.5060 O   0  0  0  0  0  0  0  0  0  0  0  0
   28.0830   50.1270   -6.4120 C   0  0  0  0  0  0  0  0  0  0  0  0
   29.8010   51.3800   -5.3340 C   0  0  0  0  0  0  0  0  0  0  0  0
   31.0640   45.3090   -2.5790 C   0  0  0  0  0  0  0  0  0  0  0  0
   31.2590   43.8330   -4.4770 C   0  0  0  0  0  0  0  0  0  0  0  0
   31.9110   43.3490   -6.0050 Cl  0  0  0  0  0  0  0  0  0  0  0  0
   31.4630   46.7190   -1.6550 Cl  0  0  0  0  0  0  0  0  0  0  0  0
   28.4670   51.2430   -5.6740 C   0  0  0  0  0  0  0  0  0  0  0  0
   30.1030   44.4550   -2.0210 C   0  0  0  0  0  0  0  0  0  0  0  0
   30.2980   42.9880   -3.9120 C   0  0  0  0  0  0  0  0  0  0  0  0
   29.7190   43.2960   -2.6860 C   0  0  0  0  0  0  0  0  0  0  0  0
  1  2  1  0
  2  3  2  0
  1  4  1  0
  4  5  2  0
  4  6  1  0
  2  7  1  0
  7  8  2  0
  7  9  1  0
  6 10  1  0
  8 11  1  0
  8 12  1  0
  9 13  2  0
 10 14  2  0
 10 15  1  0
 15 16  1  0
 14 17  1  0
 12 18  2  0
 13 18  1  0
 14 19  1  0
 15 20  2  0
 19 21  2  0
 20 21  1  0
M  END
