mac-x0439-mac-x0587
     RDKit          3D

 27 30  0  0  0  0  0  0  0  0999 V2000
   29.1650   46.3570   -4.2460 N   0  0  0  0  0  0  0  0  0  0  0  0
   30.1530   47.2960   -4.7120 C   0  0  2  0  0  0  0  0  0  0  0  0
   31.3880   47.3970   -3.7620 C   0  0  2  0  0  0  0  0  0  0  0  0
   29.2260   45.4270   -3.2260 C   0  0  0  0  0  0  0  0  0  0  0  0
   29.9270   44.1650   -3.4080 C   0  0  0  0  0  0  0  0  0  0  0  0
   28.6040   45.6930   -1.9950 C   0  0  0  0  0  0  0  0  0  0  0  0
   29.4760   48.5640   -4.9670 N   0  0  0  0  0  0  0  0  0  0  0  0
   32.5370   48.1330   -4.4500 C   0  0  0  0  0  0  0  0  0  0  0  0
   32.0020   45.8630   -2.9270 S   0  0  0  0  0  0  0  0  0  0  0  0
   30.6300   43.6820   -4.5700 C   0  0  0  0  0  0  0  0  0  0  0  0
   29.9400   43.2630   -2.3060 C   0  0  0  0  0  0  0  0  0  0  0  0
   28.6400   44.7840   -0.9450 C   0  0  0  0  0  0  0  0  0  0  0  0
   29.6710   49.7120   -4.0960 C   0  0  0  0  0  0  0  0  0  0  0  0
   28.9550   48.9830   -6.1860 C   0  0  0  0  0  0  0  0  0  0  0  0
   30.7600   44.4090   -5.8350 C   0  0  0  0  0  0  0  0  0  0  0  0
   32.9960   45.0290   -4.2240 C   0  0  0  0  0  0  0  0  0  0  0  0
   28.5200   48.2990   -7.0950 O   0  0  0  0  0  0  0  0  0  0  0  0
   29.3040   43.5810   -1.1020 C   0  0  0  0  0  0  0  0  0  0  0  0
   29.1100   50.8840   -4.8880 C   0  0  0  0  0  0  0  0  0  0  0  0
   29.0040   50.3660   -6.2190 N   0  0  0  0  0  0  0  0  0  0  0  0
   30.6010   42.0340   -2.4200 C   0  0  0  0  0  0  0  0  0  0  0  0
   31.2510   42.4350   -4.5680 C   0  0  0  0  0  0  0  0  0  0  0  0
   29.6830   44.1460   -6.5930 O   0  0  0  0  0  0  0  0  0  0  0  0
   31.6530   45.1970   -6.3390 N   0  0  0  0  0  0  0  0  0  0  0  0
   32.8050   45.5300   -5.6550 C   0  0  0  0  0  0  0  0  0  0  0  0
   31.2540   41.5960   -3.5140 N   0  0  0  0  0  0  0  0  0  0  0  0
   33.6870   46.2120   -6.1790 O   0  0  0  0  0  0  0  0  0  0  0  0
  1  2  1  0
  2  3  1  0
  1  4  1  0
  4  5  1  0
  4  6  2  0
  2  7  1  1
  3  8  1  6
  3  9  1  0
  5 10  2  0
  5 11  1  0
  6 12  1  0
  7 13  1  0
  7 14  1  0
 10 15  1  0
  9 16  1  0
 14 17  2  0
 11 18  1  0
 12 18  2  0
 13 19  1  0
 14 20  1  0
 19 20  1  0
 11 21  2  0
 10 22  1  0
 15 23  1  0
 15 24  2  0
 16 25  1  0
 24 25  1  0
 21 26  1  0
 22 26  2  0
 25 27  2  0
M  END
