mac-x0255-mac-x0132
     RDKit          3D

 26 29  0  0  0  0  0  0  0  0999 V2000
   31.7700   44.7370   -7.9440 O   0  0  0  0  0  0  0  0  0  0  0  0
   32.6380   44.9580   -6.9210 C   0  0  0  0  0  0  0  0  0  0  0  0
   33.4580   45.8620   -6.9710 O   0  0  0  0  0  0  0  0  0  0  0  0
   32.4540   43.9730   -5.7800 C   0  0  0  0  0  0  0  0  0  0  0  0
   31.4240   44.4300   -4.7880 C   0  0  0  0  0  0  0  0  0  0  0  0
   30.4160   43.6950   -4.2040 C   0  0  0  0  0  0  0  0  0  0  0  0
   31.4070   46.0430   -4.2400 S   0  0  0  0  0  0  0  0  0  0  0  0
   29.6110   44.4590   -3.2910 C   0  0  0  0  0  0  0  0  0  0  0  0
   30.0410   45.7870   -3.2070 C   0  0  0  0  0  0  0  0  0  0  0  0
   28.5000   44.0550   -2.5150 C   0  0  0  0  0  0  0  0  0  0  0  0
   29.3930   46.7320   -2.3640 C   0  0  0  0  0  0  0  0  0  0  0  0
   29.8150   48.1820   -2.2320 C   0  0  0  0  0  0  0  0  0  0  0  0
   27.8520   44.9660   -1.6830 C   0  0  0  0  0  0  0  0  0  0  0  0
   28.2910   46.2790   -1.6110 C   0  0  0  0  0  0  0  0  0  0  0  0
   30.2010   48.8280   -3.5750 C   0  0  0  0  0  0  0  0  0  0  0  0
   29.9680   50.3180   -3.6140 C   0  0  0  0  0  0  0  0  0  0  0  0
   30.1930   51.1090   -2.4870 C   0  0  0  0  0  0  0  0  0  0  0  0
   29.5200   50.9400   -4.7850 C   0  0  0  0  0  0  0  0  0  0  0  0
   29.2980   52.3380   -4.8390 C   0  0  0  0  0  0  0  0  0  0  0  0
   29.9720   52.4880   -2.5420 C   0  0  0  0  0  0  0  0  0  0  0  0
   28.8500   53.0440   -5.9680 C   0  0  0  0  0  0  0  0  0  0  0  0
   29.5280   53.1200   -3.6980 C   0  0  0  0  0  0  0  0  0  0  0  0
   28.5800   52.3850   -7.1820 N   0  0  0  0  0  0  0  0  0  0  0  0
   29.3380   54.4440   -3.6810 N   0  0  0  0  0  0  0  0  0  0  0  0
   28.6550   54.3680   -5.9690 N   0  0  0  0  0  0  0  0  0  0  0  0
   28.9090   55.0030   -4.8200 C   0  0  0  0  0  0  0  0  0  0  0  0
  1  2  1  0
  2  3  2  0
  2  4  1  0
  4  5  1  0
  5  6  2  0
  5  7  1  0
  6  8  1  0
  7  9  1  0
  8  9  2  0
  8 10  1  0
  9 11  1  0
 11 12  1  0
 10 13  2  0
 11 14  2  0
 13 14  1  0
 12 15  1  0
 15 16  1  0
 16 17  2  0
 16 18  1  0
 18 19  2  0
 17 20  1  0
 19 21  1  0
 19 22  1  0
 20 22  2  0
 21 23  1  0
 22 24  1  0
 21 25  2  0
 24 26  2  0
 25 26  1  0
M  END
