mac-x0204-mac-x0226
     RDKit          3D

 23 25  0  0  0  0  0  0  0  0999 V2000
   32.2440   46.8060   -5.9270 O   0  0  0  0  0  0  0  0  0  0  0  0
   31.1010   46.5720   -5.2460 C   0  0  0  0  0  0  0  0  0  0  0  0
   30.1040   45.9700   -5.6120 O   0  0  0  0  0  0  0  0  0  0  0  0
   32.9800   45.7250   -6.3080 C   0  0  0  0  0  0  0  0  0  0  0  0
   33.1800   45.3440   -7.4520 O   0  0  0  0  0  0  0  0  0  0  0  0
   31.2050   47.1790   -3.8970 C   0  0  0  0  0  0  0  0  0  0  0  0
   33.5410   45.0240   -5.1650 C   0  0  0  0  0  0  0  0  0  0  0  0
   30.5250   46.6950   -2.7720 C   0  0  0  0  0  0  0  0  0  0  0  0
   32.0240   48.2950   -3.7380 C   0  0  0  0  0  0  0  0  0  0  0  0
   33.1670   43.7620   -4.6690 C   0  0  0  0  0  0  0  0  0  0  0  0
   34.5560   45.4230   -4.3130 C   0  0  0  0  0  0  0  0  0  0  0  0
   30.6970   47.3440   -1.5540 C   0  0  0  0  0  0  0  0  0  0  0  0
   32.2020   48.9420   -2.5570 N   0  0  0  0  0  0  0  0  0  0  0  0
   33.8770   43.3910   -3.6030 N   0  0  0  0  0  0  0  0  0  0  0  0
   34.7370   44.4180   -3.3810 N   0  0  0  0  0  0  0  0  0  0  0  0
   30.0680   46.9260   -0.4210 O   0  0  0  0  0  0  0  0  0  0  0  0
   31.5330   48.4490   -1.4900 C   0  0  0  0  0  0  0  0  0  0  0  0
   35.6650   44.3760   -2.3040 C   0  0  0  0  0  0  0  0  0  0  0  0
   36.4830   45.4730   -2.0000 C   0  0  0  0  0  0  0  0  0  0  0  0
   35.7630   43.2100   -1.5290 C   0  0  0  0  0  0  0  0  0  0  0  0
   37.3850   45.3990   -0.9340 C   0  0  0  0  0  0  0  0  0  0  0  0
   36.6660   43.1430   -0.4670 C   0  0  0  0  0  0  0  0  0  0  0  0
   37.4770   44.2370   -0.1700 C   0  0  0  0  0  0  0  0  0  0  0  0
  1  2  1  0
  2  3  2  0
  1  4  1  0
  4  5  2  0
  2  6  1  0
  4  7  1  0
  6  8  2  0
  6  9  1  0
  7 10  1  0
  7 11  2  0
  8 12  1  0
  9 13  2  0
 10 14  2  0
 11 15  1  0
 14 15  1  0
 12 16  1  0
 12 17  2  0
 13 17  1  0
 15 18  1  0
 18 19  2  0
 18 20  1  0
 19 21  1  0
 20 22  2  0
 21 23  2  0
 22 23  1  0
M  END
