mac-x0358-mac-x0567
     RDKit          3D

 23 25  0  0  0  0  0  0  0  0999 V2000
   32.1580   44.6190   -6.9840 O   0  0  0  0  0  0  0  0  0  0  0  0
   32.4650   45.6370   -6.0470 C   0  0  0  0  0  0  0  0  0  0  0  0
   33.8000   46.0160   -6.3500 O   0  0  0  0  0  0  0  0  0  0  0  0
   32.3990   45.0420   -4.6160 C   0  0  0  0  0  0  0  0  0  0  0  0
   31.5170   46.8060   -6.3240 C   0  0  0  0  0  0  0  0  0  0  0  0
   31.1360   46.9420   -7.8020 C   0  0  0  0  0  0  0  0  0  0  0  0
   32.2250   46.0420   -3.4970 C   0  0  0  0  0  0  0  0  0  0  0  0
   29.7370   47.3400   -7.9440 N   0  0  0  0  0  0  0  0  0  0  0  0
   33.2510   46.9030   -3.0970 C   0  0  0  0  0  0  0  0  0  0  0  0
   30.9940   46.1190   -2.8260 C   0  0  0  0  0  0  0  0  0  0  0  0
   34.4600   46.8440   -3.7340 O   0  0  0  0  0  0  0  0  0  0  0  0
   33.0660   47.8190   -2.0610 C   0  0  0  0  0  0  0  0  0  0  0  0
   30.8020   47.0330   -1.7870 C   0  0  0  0  0  0  0  0  0  0  0  0
   29.3490   48.5790   -7.5370 C   0  0  0  0  0  0  0  0  0  0  0  0
   31.8360   47.8810   -1.4070 C   0  0  0  0  0  0  0  0  0  0  0  0
   28.7660   49.4960   -8.3720 N   0  0  0  0  0  0  0  0  0  0  0  0
   29.4120   49.2200   -6.3210 C   0  0  0  0  0  0  0  0  0  0  0  0
   28.4530   50.6720   -7.7930 N   0  0  0  0  0  0  0  0  0  0  0  0
   28.8440   50.5330   -6.5160 C   0  0  0  0  0  0  0  0  0  0  0  0
   29.9270   48.7040   -5.1320 C   0  0  0  0  0  0  0  0  0  0  0  0
   28.7680   51.4410   -5.4430 C   0  0  0  0  0  0  0  0  0  0  0  0
   29.8370   49.6370   -4.0800 C   0  0  0  0  0  0  0  0  0  0  0  0
   29.2840   50.9450   -4.2260 C   0  0  0  0  0  0  0  0  0  0  0  0
  2  1  1  0
  2  3  1  0
  2  4  1  0
  2  5  1  0
  5  6  1  0
  4  7  1  0
  6  8  1  0
  7  9  2  0
  7 10  1  0
  9 11  1  0
  9 12  1  0
 10 13  2  0
  8 14  1  0
 12 15  2  0
 13 15  1  0
 14 16  1  0
 14 17  2  0
 16 18  1  0
 17 19  1  0
 18 19  2  0
 17 20  1  0
 19 21  1  0
 20 22  2  0
 21 23  2  0
 22 23  1  0
M  END
