mac-x0584-mac-x0182
     RDKit          3D

 30 35  0  0  0  0  0  0  0  0999 V2000
   36.3050   43.9820   -3.6150 O   0  0  0  0  0  0  0  0  0  0  0  0
   36.0050   45.1580   -3.7390 C   0  0  0  0  0  0  0  0  0  0  0  0
   35.1500   45.6720   -4.6820 N   0  0  0  0  0  0  0  0  0  0  0  0
   36.5290   46.2370   -2.8670 C   0  0  0  0  0  0  0  0  0  0  0  0
   34.5880   47.1860   -4.2030 S   0  0  2  0  0  0  0  0  0  0  0  0
   35.8340   47.4280   -3.0220 C   0  0  0  0  0  0  0  0  0  0  0  0
   37.5820   46.1480   -1.9770 C   0  0  0  0  0  0  0  0  0  0  0  0
   33.2690   46.8450   -3.5200 N   0  0  0  0  0  0  0  0  0  0  0  0
   34.8160   48.0610   -5.3270 O   0  0  0  0  0  0  0  0  0  0  0  0
   36.1390   48.5770   -2.3180 C   0  0  0  0  0  0  0  0  0  0  0  0
   37.9160   47.2970   -1.2470 C   0  0  0  0  0  0  0  0  0  0  0  0
   32.0560   47.5760   -3.8810 C   0  0  1  0  0  0  0  0  0  0  0  0
   37.2020   48.4980   -1.4160 C   0  0  0  0  0  0  0  0  0  0  0  0
   31.4570   46.9590   -5.0620 N   0  0  0  0  0  0  0  0  0  0  0  0
   30.9920   47.2930   -2.8220 C   0  0  0  0  0  0  0  0  0  0  0  0
   30.4760   45.8960   -3.1840 C   0  0  0  0  0  0  0  0  0  0  0  0
   31.0090   45.6290   -4.6080 C   0  0  1  0  0  0  0  0  0  0  0  0
   30.7230   47.7160   -5.9740 C   0  0  0  0  0  0  0  0  0  0  0  0
   29.9110   45.0000   -5.4740 C   0  0  0  0  0  0  0  0  0  0  0  0
   30.5600   47.2460   -7.2660 N   0  0  0  0  0  0  0  0  0  0  0  0
   30.1350   48.9040   -5.7210 C   0  0  0  0  0  0  0  0  0  0  0  0
   30.2570   44.4200   -6.8730 C   0  0  0  0  0  0  0  0  0  0  0  0
   29.3640   43.5890   -5.1280 C   0  0  0  0  0  0  0  0  0  0  0  0
   29.8520   47.9300   -8.2100 C   0  0  0  0  0  0  0  0  0  0  0  0
   29.3850   49.5960   -6.7950 C   0  0  0  0  0  0  0  0  0  0  0  0
   30.0070   49.7890   -4.6080 C   0  0  0  0  0  0  0  0  0  0  0  0
   30.3320   43.0370   -6.1950 C   0  0  0  0  0  0  0  0  0  0  0  0
   29.2600   49.0670   -8.0490 N   0  0  0  0  0  0  0  0  0  0  0  0
   28.8730   50.7310   -6.3930 N   0  0  0  0  0  0  0  0  0  0  0  0
   29.2690   50.8190   -5.0650 C   0  0  0  0  0  0  0  0  0  0  0  0
  1  2  2  0
  2  3  1  0
  2  4  1  0
  5  3  1  6
  4  6  2  0
  5  6  1  0
  4  7  1  0
  5  8  2  0
  5  9  2  0
  6 10  1  0
  7 11  2  0
 12  8  1  1
 10 13  2  0
 11 13  1  0
 12 14  1  0
 12 15  1  0
 15 16  1  0
 14 17  1  0
 16 17  1  0
 14 18  1  0
 17 19  1  6
 18 20  1  0
 18 21  2  0
 19 22  1  0
 19 23  1  0
 20 24  1  0
 21 25  1  0
 21 26  1  0
 22 27  1  0
 23 27  1  0
 24 28  2  0
 25 28  1  0
 25 29  2  0
 26 30  2  0
 29 30  1  0
M  END
