mac-x0567-mac-x0358
     RDKit          3D

 23 25  0  0  0  0  0  0  0  0999 V2000
   29.8480   46.7060   -6.5250 N   0  0  0  0  0  0  0  0  0  0  0  0
   29.7010   48.0320   -6.6750 C   0  0  0  0  0  0  0  0  0  0  0  0
   29.8650   48.6100   -7.8630 N   0  0  0  0  0  0  0  0  0  0  0  0
   29.4130   49.0220   -5.8240 C   0  0  0  0  0  0  0  0  0  0  0  0
   30.2650   47.7780   -8.9780 C   0  0  0  0  0  0  0  0  0  0  0  0
   29.6500   49.9670   -7.8810 N   0  0  0  0  0  0  0  0  0  0  0  0
   29.3730   50.2460   -6.5760 C   0  0  0  0  0  0  0  0  0  0  0  0
   29.2090   48.8360   -4.4720 C   0  0  0  0  0  0  0  0  0  0  0  0
   31.5500   46.9680   -8.5610 C   0  0  0  0  0  0  0  0  0  0  0  0
   29.0870   51.4520   -5.9120 C   0  0  0  0  0  0  0  0  0  0  0  0
   28.9380   50.0490   -3.8360 C   0  0  0  0  0  0  0  0  0  0  0  0
   31.4080   46.1240   -7.3450 O   0  0  0  0  0  0  0  0  0  0  0  0
   28.8780   51.3010   -4.5170 C   0  0  0  0  0  0  0  0  0  0  0  0
   32.4670   46.0550   -6.4260 C   0  0  0  0  0  0  0  0  0  0  0  0
   33.5760   46.5340   -6.6120 O   0  0  0  0  0  0  0  0  0  0  0  0
   32.0990   45.2960   -5.1410 C   0  0  0  0  0  0  0  0  0  0  0  0
   32.0610   46.1390   -3.8680 C   0  0  0  0  0  0  0  0  0  0  0  0
   33.1810   46.8500   -3.3940 C   0  0  0  0  0  0  0  0  0  0  0  0
   30.8720   46.2230   -3.1200 C   0  0  0  0  0  0  0  0  0  0  0  0
   34.3510   46.7830   -4.0930 O   0  0  0  0  0  0  0  0  0  0  0  0
   33.1180   47.6170   -2.2280 C   0  0  0  0  0  0  0  0  0  0  0  0
   30.8070   46.9890   -1.9510 C   0  0  0  0  0  0  0  0  0  0  0  0
   31.9280   47.6850   -1.5080 C   0  0  0  0  0  0  0  0  0  0  0  0
  1  2  1  0
  2  3  1  0
  2  4  2  0
  3  5  1  0
  3  6  1  0
  4  7  1  0
  6  7  2  0
  4  8  1  0
  5  9  1  0
  7 10  1  0
  8 11  2  0
  9 12  1  0
 10 13  2  0
 11 13  1  0
 12 14  1  0
 14 15  2  0
 14 16  1  0
 16 17  1  0
 17 18  2  0
 17 19  1  0
 18 20  1  0
 18 21  1  0
 19 22  2  0
 21 23  2  0
 22 23  1  0
M  END
