mac-x0337-mac-x0319
     RDKit          3D

 23 24  0  0  0  0  0  0  0  0999 V2000
   35.5250   52.4050   -5.6720 C   0  0  0  0  0  0  0  0  0  0  0  0
   34.1350   51.8790   -5.4850 C   0  0  0  0  0  0  0  0  0  0  0  0
   33.0350   52.7480   -5.5320 C   0  0  0  0  0  0  0  0  0  0  0  0
   33.9260   50.5130   -5.2610 C   0  0  0  0  0  0  0  0  0  0  0  0
   32.6380   50.0210   -5.0820 C   0  0  0  0  0  0  0  0  0  0  0  0
   31.7400   52.2590   -5.3530 C   0  0  0  0  0  0  0  0  0  0  0  0
   31.5550   50.8940   -5.1270 C   0  0  0  0  0  0  0  0  0  0  0  0
   29.9470   50.2300   -4.8770 S   0  0  2  0  0  0  0  0  0  0  0  0
   30.0760   49.5590   -3.5070 N   0  0  0  0  0  0  0  0  0  0  0  0
   29.4170   49.7100   -6.1160 O   0  0  0  0  0  0  0  0  0  0  0  0
   28.8890   51.4850   -4.5220 N   0  0  0  0  0  0  0  0  0  0  0  0
   29.2640   48.4250   -3.0600 C   0  0  0  0  0  0  0  0  0  0  0  0
   29.8560   47.0580   -3.3680 C   0  0  0  0  0  0  0  0  0  0  0  0
   29.0650   45.9440   -3.0840 C   0  0  0  0  0  0  0  0  0  0  0  0
   31.1380   46.8440   -3.9260 C   0  0  0  0  0  0  0  0  0  0  0  0
   31.5960   45.5350   -4.2000 C   0  0  0  0  0  0  0  0  0  0  0  0
   29.5160   44.6650   -3.3500 C   0  0  0  0  0  0  0  0  0  0  0  0
   32.9570   45.3050   -4.8110 C   0  0  0  0  0  0  0  0  0  0  0  0
   28.6780   43.6350   -3.0510 O   0  0  0  0  0  0  0  0  0  0  0  0
   30.7690   44.4450   -3.9040 C   0  0  0  0  0  0  0  0  0  0  0  0
   32.9940   45.6130   -6.2880 C   0  0  0  0  0  0  0  0  0  0  0  0
   34.2530   45.8330   -6.7250 O   0  0  0  0  0  0  0  0  0  0  0  0
   32.0600   45.6810   -7.0710 O   0  0  0  0  0  0  0  0  0  0  0  0
  1  2  1  0
  2  3  2  0
  2  4  1  0
  4  5  2  0
  3  6  1  0
  5  7  1  0
  6  7  2  0
  7  8  1  0
  8  9  2  0
  8 10  2  0
  8 11  1  1
  9 12  1  0
 12 13  1  0
 13 14  2  0
 13 15  1  0
 15 16  2  0
 14 17  1  0
 16 18  1  0
 17 19  1  0
 16 20  1  0
 17 20  2  0
 18 21  1  0
 21 22  1  0
 21 23  2  0
M  END
