mac-x0412-mac-x0587
     RDKit          3D

 21 22  0  0  0  0  0  0  0  0999 V2000
   29.5200   54.4700   -4.0550 O   0  0  0  0  0  0  0  0  0  0  0  0
   29.2530   53.6630   -4.9420 C   0  0  0  0  0  0  0  0  0  0  0  0
   28.7630   54.0320   -6.1690 N   0  0  0  0  0  0  0  0  0  0  0  0
   29.4560   52.1970   -4.7130 C   0  0  0  0  0  0  0  0  0  0  0  0
   29.1650   51.2300   -5.7560 C   0  0  0  0  0  0  0  0  0  0  0  0
   28.5110   53.1310   -7.0650 C   0  0  0  0  0  0  0  0  0  0  0  0
   29.9130   51.8000   -3.5270 C   0  0  0  0  0  0  0  0  0  0  0  0
   28.6930   51.6660   -6.9360 C   0  0  0  0  0  0  0  0  0  0  0  0
   29.4010   49.7430   -5.4870 C   0  0  0  0  0  0  0  0  0  0  0  0
   30.1300   50.4130   -3.2380 C   0  0  0  0  0  0  0  0  0  0  0  0
   29.2000   48.8510   -6.3210 O   0  0  0  0  0  0  0  0  0  0  0  0
   29.9090   49.4230   -4.1080 C   0  0  0  0  0  0  0  0  0  0  0  0
   30.2230   48.0890   -3.4990 C   0  0  0  0  0  0  0  0  0  0  0  0
   30.4530   46.7590   -4.2330 C   0  0  2  0  0  0  0  0  0  0  0  0
   30.3180   48.0920   -2.2670 O   0  0  0  0  0  0  0  0  0  0  0  0
   29.2890   45.8050   -3.9830 C   0  0  0  0  0  0  0  0  0  0  0  0
   32.0830   46.0130   -3.7840 S   0  0  0  0  0  0  0  0  0  0  0  0
   33.1980   46.7160   -5.0360 C   0  0  0  0  0  0  0  0  0  0  0  0
   33.2480   45.8820   -6.2890 C   0  0  0  0  0  0  0  0  0  0  0  0
   34.2540   45.5850   -6.9070 O   0  0  0  0  0  0  0  0  0  0  0  0
   32.0390   45.4640   -6.7120 O   0  0  0  0  0  0  0  0  0  0  0  0
  1  2  2  0
  2  3  1  0
  2  4  1  0
  4  5  1  0
  3  6  2  0
  4  7  2  0
  5  8  2  0
  6  8  1  0
  5  9  1  0
  7 10  1  0
  9 11  2  0
  9 12  1  0
 10 12  2  0
 12 13  1  0
 13 14  1  0
 13 15  2  0
 14 16  1  1
 14 17  1  0
 17 18  1  0
 18 19  1  0
 19 20  2  0
 19 21  1  0
M  END
