mac-x0142-mac-x0255
     RDKit          3D

 26 30  0  0  0  0  0  0  0  0999 V2000
   33.8620   44.6160   -7.6520 O   0  0  0  0  0  0  0  0  0  0  0  0
   34.2570   45.1430   -6.4720 C   0  0  0  0  0  0  0  0  0  0  0  0
   35.0880   46.0350   -6.3980 O   0  0  0  0  0  0  0  0  0  0  0  0
   33.5740   44.5190   -5.2740 C   0  0  0  0  0  0  0  0  0  0  0  0
   32.6180   45.4960   -4.5550 C   0  0  2  0  0  0  0  0  0  0  0  0
   31.1470   45.0160   -4.4310 C   0  0  2  0  0  0  0  0  0  0  0  0
   32.6720   46.8950   -5.2000 C   0  0  0  0  0  0  0  0  0  0  0  0
   30.8620   43.5240   -4.2310 C   0  0  0  0  0  0  0  0  0  0  0  0
   30.5960   44.1560   -5.5670 C   0  0  0  0  0  0  0  0  0  0  0  0
   31.7750   47.8900   -4.4790 C   0  0  0  0  0  0  0  0  0  0  0  0
   30.1850   46.0980   -3.7810 C   0  0  1  0  0  0  0  0  0  0  0  0
   30.3860   47.4080   -4.4670 N   0  0  0  0  0  0  0  0  0  0  0  0
   28.7180   45.6820   -3.9650 C   0  0  0  0  0  0  0  0  0  0  0  0
   30.4800   46.3290   -2.2930 C   0  0  0  0  0  0  0  0  0  0  0  0
   29.4500   47.9890   -5.3520 C   0  0  0  0  0  0  0  0  0  0  0  0
   27.7930   45.7060   -2.9880 C   0  0  0  0  0  0  0  0  0  0  0  0
   29.5490   46.3510   -1.3230 C   0  0  0  0  0  0  0  0  0  0  0  0
   28.8960   47.2660   -6.3950 N   0  0  0  0  0  0  0  0  0  0  0  0
   29.0170   49.2620   -5.2720 C   0  0  0  0  0  0  0  0  0  0  0  0
   28.0860   46.1480   -1.5830 C   0  0  0  0  0  0  0  0  0  0  0  0
   27.9910   47.7910   -7.2700 C   0  0  0  0  0  0  0  0  0  0  0  0
   28.0310   49.7780   -6.2580 C   0  0  0  0  0  0  0  0  0  0  0  0
   29.2500   50.3970   -4.4340 C   0  0  0  0  0  0  0  0  0  0  0  0
   27.5310   48.9980   -7.2600 N   0  0  0  0  0  0  0  0  0  0  0  0
   27.7200   51.0290   -6.0460 N   0  0  0  0  0  0  0  0  0  0  0  0
   28.4760   51.3750   -4.9340 C   0  0  0  0  0  0  0  0  0  0  0  0
  1  2  1  0
  2  3  2  0
  2  4  1  0
  5  4  1  6
  5  6  1  0
  5  7  1  0
  6  8  1  1
  6  9  1  0
  8  9  1  0
  7 10  1  0
  6 11  1  0
 10 12  1  0
 11 12  1  0
 11 13  1  1
 11 14  1  0
 12 15  1  0
 13 16  2  0
 14 17  2  0
 15 18  1  0
 15 19  2  0
 16 20  1  0
 17 20  1  0
 18 21  1  0
 19 22  1  0
 19 23  1  0
 21 24  2  0
 22 24  1  0
 22 25  2  0
 23 26  2  0
 25 26  1  0
M  END
