mac-x0204-mac-x0224
     RDKit          3D

 19 20  0  0  0  0  0  0  0  0999 V2000
   30.8130   46.4170   -5.8920 O   0  0  0  0  0  0  0  0  0  0  0  0
   30.2800   46.8150   -4.6300 C   0  0  0  0  0  0  0  0  0  0  0  0
   29.2750   45.8360   -4.4290 O   0  0  0  0  0  0  0  0  0  0  0  0
   31.3840   46.7270   -3.5880 C   0  0  0  0  0  0  0  0  0  0  0  0
   29.6950   48.2230   -4.7490 C   0  0  0  0  0  0  0  0  0  0  0  0
   31.1320   46.3170   -2.2720 C   0  0  0  0  0  0  0  0  0  0  0  0
   32.7070   47.0520   -3.8960 C   0  0  0  0  0  0  0  0  0  0  0  0
   29.9940   49.0130   -5.8850 C   0  0  0  0  0  0  0  0  0  0  0  0
   28.8560   48.7920   -3.7740 C   0  0  0  0  0  0  0  0  0  0  0  0
   28.5230   48.0880   -2.6540 O   0  0  0  0  0  0  0  0  0  0  0  0
   32.1720   46.2500   -1.3510 C   0  0  0  0  0  0  0  0  0  0  0  0
   33.7440   46.9970   -3.0170 N   0  0  0  0  0  0  0  0  0  0  0  0
   29.4840   50.3070   -6.0420 C   0  0  0  0  0  0  0  0  0  0  0  0
   28.3430   50.0830   -3.9220 C   0  0  0  0  0  0  0  0  0  0  0  0
   31.8880   45.8460   -0.0790 O   0  0  0  0  0  0  0  0  0  0  0  0
   29.8660   51.2930   -7.4790 S   0  0  0  0  0  0  0  0  0  0  0  0
   33.4480   46.5950   -1.7590 C   0  0  0  0  0  0  0  0  0  0  0  0
   28.6560   50.8360   -5.0520 C   0  0  0  0  0  0  0  0  0  0  0  0
   28.9230   52.7960   -7.0990 C   0  0  0  0  0  0  0  0  0  0  0  0
  2  1  1  0
  2  3  1  0
  2  4  1  0
  2  5  1  0
  4  6  2  0
  4  7  1  0
  5  8  2  0
  5  9  1  0
  9 10  1  0
  6 11  1  0
  7 12  2  0
  8 13  1  0
  9 14  2  0
 11 15  1  0
 13 16  1  0
 11 17  2  0
 12 17  1  0
 13 18  2  0
 14 18  1  0
 16 19  1  0
M  END
