mac-x0123-mac-x0213
     RDKit          3D

 26 30  0  0  0  0  0  0  0  0999 V2000
   28.5570   51.6180   -7.2380 N   0  0  0  0  0  0  0  0  0  0  0  0
   29.0560   52.2260   -6.0920 C   0  0  0  0  0  0  0  0  0  0  0  0
   28.9680   53.5340   -5.8290 C   0  0  0  0  0  0  0  0  0  0  0  0
   29.7230   51.4240   -5.1290 N   0  0  0  0  0  0  0  0  0  0  0  0
   30.2390   51.9660   -3.9390 C   0  0  0  0  0  0  0  0  0  0  0  0
   29.5450   54.0170   -4.5420 C   0  0  0  0  0  0  0  0  0  0  0  0
   28.3980   54.7070   -6.5430 C   0  0  0  0  0  0  0  0  0  0  0  0
   29.9890   50.0920   -5.1720 N   0  0  0  0  0  0  0  0  0  0  0  0
   30.1310   53.2950   -3.6340 N   0  0  0  0  0  0  0  0  0  0  0  0
   29.3450   55.4970   -4.4330 C   0  0  0  0  0  0  0  0  0  0  0  0
   29.1620   55.8720   -5.9080 C   0  0  0  0  0  0  0  0  0  0  0  0
   30.8200   51.0010   -3.2430 N   0  0  0  0  0  0  0  0  0  0  0  0
   30.6590   49.8890   -4.0300 C   0  0  0  0  0  0  0  0  0  0  0  0
   31.2070   48.5460   -3.6480 C   0  0  0  0  0  0  0  0  0  0  0  0
   30.3120   47.3820   -4.0660 C   0  0  1  0  0  0  0  0  0  0  0  0
   30.7340   46.1600   -4.9400 C   0  0  1  0  0  0  0  0  0  0  0  0
   29.6280   46.7150   -2.9180 C   0  0  0  0  0  0  0  0  0  0  0  0
   31.9260   46.2440   -5.8660 C   0  0  0  0  0  0  0  0  0  0  0  0
   29.6990   45.3230   -2.9930 C   0  0  0  0  0  0  0  0  0  0  0  0
   30.4760   44.8490   -4.1900 C   0  0  0  0  0  0  0  0  0  0  0  0
   28.9720   47.3500   -1.8760 C   0  0  0  0  0  0  0  0  0  0  0  0
   33.1280   46.5600   -5.3630 O   0  0  0  0  0  0  0  0  0  0  0  0
   31.7830   46.0270   -7.0610 O   0  0  0  0  0  0  0  0  0  0  0  0
   28.3670   46.5680   -0.9000 C   0  0  0  0  0  0  0  0  0  0  0  0
   29.0950   44.5400   -2.0280 C   0  0  0  0  0  0  0  0  0  0  0  0
   28.4240   45.1730   -0.9770 C   0  0  0  0  0  0  0  0  0  0  0  0
  1  2  1  0
  2  3  2  0
  2  4  1  0
  4  5  1  0
  3  6  1  0
  3  7  1  0
  4  8  1  0
  5  9  1  0
  6  9  2  0
  6 10  1  0
  7 11  1  0
 10 11  1  0
  5 12  2  0
  8 13  2  0
 12 13  1  0
 13 14  1  0
 15 14  1  1
 15 16  1  0
 15 17  1  0
 16 18  1  1
 17 19  2  0
 16 20  1  0
 19 20  1  0
 17 21  1  0
 18 22  1  0
 18 23  2  0
 21 24  2  0
 19 25  1  0
 24 26  1  0
 25 26  2  0
M  END
