mac-x0115-mac-x0584
     RDKit          3D

 29 33  0  0  0  0  0  0  0  0999 V2000
   27.8690   45.5460   -1.6790 C   0  0  0  0  0  0  0  0  0  0  0  0
   28.7830   44.4020   -2.1060 C   0  0  0  0  0  0  0  0  0  0  0  0
   27.9980   43.3800   -2.9190 C   0  0  0  0  0  0  0  0  0  0  0  0
   29.8570   44.9050   -2.9130 O   0  0  0  0  0  0  0  0  0  0  0  0
   30.0360   44.2580   -4.1760 C   0  0  0  0  0  0  0  0  0  0  0  0
   29.1080   44.8730   -5.2460 C   0  0  0  0  0  0  0  0  0  0  0  0
   29.6480   45.7150   -6.3400 N   0  0  0  0  0  0  0  0  0  0  0  0
   29.7550   45.1870   -7.6110 C   0  0  0  0  0  0  0  0  0  0  0  0
   30.2600   47.0620   -6.1750 C   0  0  1  0  0  0  0  0  0  0  0  0
   30.3560   43.6770   -7.9880 S   0  0  0  0  0  0  0  0  0  0  0  0
   29.3100   46.0410   -8.5840 N   0  0  0  0  0  0  0  0  0  0  0  0
   29.7810   48.0800   -7.2260 C   0  0  1  0  0  0  0  0  0  0  0  0
   30.5030   47.6500   -4.7320 C   0  0  2  0  0  0  0  0  0  0  0  0
   29.0400   47.3770   -8.3760 C   0  0  0  0  0  0  0  0  0  0  0  0
   29.0750   49.1490   -6.5190 N   0  0  0  0  0  0  0  0  0  0  0  0
   30.8480   49.1790   -4.7590 C   0  0  0  0  0  0  0  0  0  0  0  0
   31.5340   46.6600   -4.1000 C   0  0  1  0  0  0  0  0  0  0  0  0
   29.4250   47.4270   -3.6360 C   0  0  0  0  0  0  0  0  0  0  0  0
   28.2390   47.9600   -9.1090 O   0  0  0  0  0  0  0  0  0  0  0  0
   32.8290   46.4030   -4.8580 C   0  0  0  0  0  0  0  0  0  0  0  0
   31.6120   47.0390   -2.6290 C   0  0  0  0  0  0  0  0  0  0  0  0
   30.1840   47.4440   -2.3020 C   0  0  0  0  0  0  0  0  0  0  0  0
   28.3910   50.1160   -7.3490 C   0  0  0  0  0  0  0  0  0  0  0  0
   30.0640   49.9670   -5.8190 C   0  0  2  0  0  0  0  0  0  0  0  0
   33.0190   44.9360   -5.3480 C   0  0  0  0  0  0  0  0  0  0  0  0
   34.2300   46.2650   -4.2120 C   0  0  0  0  0  0  0  0  0  0  0  0
   28.3090   51.3340   -6.5260 N   0  0  0  0  0  0  0  0  0  0  0  0
   29.1450   51.0750   -5.3360 C   0  0  0  0  0  0  0  0  0  0  0  0
   34.5280   45.1380   -5.2150 C   0  0  0  0  0  0  0  0  0  0  0  0
  1  2  1  0
  2  3  1  0
  2  4  1  0
  4  5  1  0
  5  6  1  0
  6  7  1  0
  7  8  1  0
  9  7  1  1
  8 10  2  0
  8 11  1  0
  9 12  1  0
  9 13  1  0
 11 14  1  0
 12 14  1  6
 12 15  1  0
 13 16  1  6
 13 17  1  0
 13 18  1  0
 14 19  2  0
 17 20  1  6
 17 21  1  0
 18 22  1  0
 21 22  1  0
 15 23  1  0
 15 24  1  0
 24 16  1  1
 20 25  1  0
 20 26  1  0
 23 27  1  0
 24 28  1  0
 27 28  1  0
 25 29  1  0
 26 29  1  0
M  END
