mac-x0271-mac-x0179
     RDKit          3D

 30 33  0  0  0  0  0  0  0  0999 V2000
   29.9850   49.4990   -3.5270 O   0  0  0  0  0  0  0  0  0  0  0  0
   29.7370   50.7210   -4.0890 C   0  0  0  0  0  0  0  0  0  0  0  0
   28.8940   50.6320   -5.2000 C   0  0  0  0  0  0  0  0  0  0  0  0
   30.3900   51.8320   -3.4250 C   0  0  0  0  0  0  0  0  0  0  0  0
   30.8070   50.6100   -2.6380 C   0  0  0  0  0  0  0  0  0  0  0  0
   29.8860   52.8780   -4.2930 C   0  0  0  0  0  0  0  0  0  0  0  0
   28.5350   51.7340   -5.8870 C   0  0  0  0  0  0  0  0  0  0  0  0
   32.1590   50.0240   -3.0730 C   0  0  0  0  0  0  0  0  0  0  0  0
   29.0430   52.8930   -5.4240 C   0  0  0  0  0  0  0  0  0  0  0  0
   30.3740   54.1460   -3.8780 O   0  0  0  0  0  0  0  0  0  0  0  0
   32.2910   48.5270   -2.7990 C   0  0  0  0  0  0  0  0  0  0  0  0
   28.7180   54.1460   -6.0920 C   0  0  0  0  0  0  0  0  0  0  0  0
   29.7880   55.3370   -4.2640 C   0  0  0  0  0  0  0  0  0  0  0  0
   29.8530   56.3650   -3.5980 O   0  0  0  0  0  0  0  0  0  0  0  0
   33.6030   48.2260   -2.2600 N   0  0  0  0  0  0  0  0  0  0  0  0
   29.0710   55.3030   -5.5390 C   0  0  0  0  0  0  0  0  0  0  0  0
   34.2380   47.1190   -2.2990 C   0  0  0  0  0  0  0  0  0  0  0  0
   33.9810   45.8680   -2.8140 N   0  0  0  0  0  0  0  0  0  0  0  0
   35.5710   47.0290   -1.6830 C   0  0  0  0  0  0  0  0  0  0  0  0
   32.7870   45.3520   -3.4800 C   0  0  0  0  0  0  0  0  0  0  0  0
   34.8270   44.9470   -2.2250 C   0  0  0  0  0  0  0  0  0  0  0  0
   35.9250   45.6990   -1.6380 C   0  0  0  0  0  0  0  0  0  0  0  0
   36.4060   48.0200   -1.2000 C   0  0  0  0  0  0  0  0  0  0  0  0
   32.9760   45.0670   -4.9660 C   0  0  0  0  0  0  0  0  0  0  0  0
   34.7270   43.7330   -2.1690 O   0  0  0  0  0  0  0  0  0  0  0  0
   37.1320   45.2730   -1.1100 C   0  0  0  0  0  0  0  0  0  0  0  0
   37.6360   47.6180   -0.6590 C   0  0  0  0  0  0  0  0  0  0  0  0
   32.0660   44.2360   -5.5140 O   0  0  0  0  0  0  0  0  0  0  0  0
   33.8650   45.5310   -5.6680 O   0  0  0  0  0  0  0  0  0  0  0  0
   37.9930   46.2560   -0.6150 C   0  0  0  0  0  0  0  0  0  0  0  0
  1  2  1  0
  2  3  2  0
  2  4  1  0
  4  5  1  0
  4  6  2  0
  3  7  1  0
  5  8  1  0
  6  9  1  0
  7  9  2  0
  6 10  1  0
  8 11  1  0
  9 12  1  0
 10 13  1  0
 13 14  2  0
 11 15  1  0
 12 16  2  0
 13 16  1  0
 15 17  2  3
 17 18  1  0
 17 19  1  0
 18 20  1  0
 18 21  1  0
 19 22  2  0
 21 22  1  0
 19 23  1  0
 20 24  1  0
 21 25  2  0
 22 26  1  0
 23 27  2  0
 24 28  1  0
 24 29  2  0
 26 30  2  0
 27 30  1  0
M  END
