mac-x0417-mac-x0204
     RDKit          3D

 22 24  0  0  0  0  0  0  0  0999 V2000
   32.2520   46.0840   -5.8970 O   0  0  0  0  0  0  0  0  0  0  0  0
   33.2340   45.2000   -5.5520 C   0  0  0  0  0  0  0  0  0  0  0  0
   34.1040   44.7320   -6.2740 O   0  0  0  0  0  0  0  0  0  0  0  0
   31.0950   46.1110   -5.1950 C   0  0  0  0  0  0  0  0  0  0  0  0
   33.1220   44.8310   -4.0880 C   0  0  0  0  0  0  0  0  0  0  0  0
   30.0430   45.5470   -5.4400 O   0  0  0  0  0  0  0  0  0  0  0  0
   31.2690   46.9740   -3.9990 C   0  0  0  0  0  0  0  0  0  0  0  0
   34.4580   44.7020   -3.4450 C   0  0  0  0  0  0  0  0  0  0  0  0
   30.5880   46.6500   -2.8180 C   0  0  0  0  0  0  0  0  0  0  0  0
   32.0830   48.1030   -3.9840 C   0  0  0  0  0  0  0  0  0  0  0  0
   34.9280   43.4880   -3.1130 N   0  0  0  0  0  0  0  0  0  0  0  0
   35.3770   45.7270   -3.1000 C   0  0  0  0  0  0  0  0  0  0  0  0
   30.7500   47.4520   -1.6960 C   0  0  0  0  0  0  0  0  0  0  0  0
   32.2520   48.9020   -2.8980 N   0  0  0  0  0  0  0  0  0  0  0  0
   30.0780   47.1180   -0.5610 O   0  0  0  0  0  0  0  0  0  0  0  0
   36.1710   43.7100   -2.5400 O   0  0  0  0  0  0  0  0  0  0  0  0
   36.4390   45.0420   -2.5320 C   0  0  0  0  0  0  0  0  0  0  0  0
   35.4490   47.1290   -3.1900 C   0  0  0  0  0  0  0  0  0  0  0  0
   31.5830   48.5570   -1.7770 C   0  0  0  0  0  0  0  0  0  0  0  0
   37.5910   45.6470   -2.0390 C   0  0  0  0  0  0  0  0  0  0  0  0
   36.5970   47.7710   -2.7020 C   0  0  0  0  0  0  0  0  0  0  0  0
   37.6490   47.0410   -2.1360 C   0  0  0  0  0  0  0  0  0  0  0  0
  1  2  1  0
  2  3  2  0
  1  4  1  0
  2  5  1  0
  4  6  2  0
  4  7  1  0
  5  8  1  0
  7  9  2  0
  7 10  1  0
  8 11  2  0
  8 12  1  0
  9 13  1  0
 10 14  2  0
 13 15  1  0
 11 16  1  0
 12 17  2  0
 16 17  1  0
 12 18  1  0
 13 19  2  0
 14 19  1  0
 17 20  1  0
 18 21  2  0
 20 22  2  0
 21 22  1  0
M  END
