mac-x0283-mac-x0417
     RDKit          3D

 26 29  0  0  0  0  0  0  0  0999 V2000
   28.5400   54.4940   -6.6760 N   0  0  0  0  0  0  0  0  0  0  0  0
   29.0170   53.8350   -5.5990 C   0  0  0  0  0  0  0  0  0  0  0  0
   29.4230   54.4230   -4.4710 N   0  0  0  0  0  0  0  0  0  0  0  0
   29.1520   52.4260   -5.5310 C   0  0  0  0  0  0  0  0  0  0  0  0
   29.8340   53.3940   -3.6350 O   0  0  0  0  0  0  0  0  0  0  0  0
   29.6720   52.2010   -4.2690 C   0  0  0  0  0  0  0  0  0  0  0  0
   28.9020   51.3230   -6.3630 C   0  0  0  0  0  0  0  0  0  0  0  0
   29.9780   50.9380   -3.7560 C   0  0  0  0  0  0  0  0  0  0  0  0
   29.1950   50.0380   -5.8820 C   0  0  0  0  0  0  0  0  0  0  0  0
   29.7290   49.8350   -4.5990 C   0  0  0  0  0  0  0  0  0  0  0  0
   30.0360   48.4260   -4.1340 C   0  0  0  0  0  0  0  0  0  0  0  0
   31.1530   47.7490   -4.9440 C   0  0  0  0  0  0  0  0  0  0  0  0
   30.8740   46.2770   -5.2680 C   0  0  0  0  0  0  0  0  0  0  0  0
   31.9140   45.7300   -6.1090 O   0  0  0  0  0  0  0  0  0  0  0  0
   33.1300   45.5120   -5.5240 C   0  0  0  0  0  0  0  0  0  0  0  0
   34.1960   45.5000   -6.1300 O   0  0  0  0  0  0  0  0  0  0  0  0
   32.9950   45.2850   -4.0370 C   0  0  0  0  0  0  0  0  0  0  0  0
   34.3000   45.0320   -3.3690 C   0  0  0  0  0  0  0  0  0  0  0  0
   34.6240   43.7930   -2.9680 N   0  0  0  0  0  0  0  0  0  0  0  0
   35.3310   45.9600   -3.0620 C   0  0  0  0  0  0  0  0  0  0  0  0
   35.8810   43.8970   -2.3910 O   0  0  0  0  0  0  0  0  0  0  0  0
   36.3030   45.1880   -2.4480 C   0  0  0  0  0  0  0  0  0  0  0  0
   35.5660   47.3360   -3.2240 C   0  0  0  0  0  0  0  0  0  0  0  0
   37.5140   45.6830   -1.9710 C   0  0  0  0  0  0  0  0  0  0  0  0
   36.7750   47.8680   -2.7550 C   0  0  0  0  0  0  0  0  0  0  0  0
   37.7320   47.0550   -2.1400 C   0  0  0  0  0  0  0  0  0  0  0  0
  1  2  1  0
  2  3  2  0
  2  4  1  0
  3  5  1  0
  4  6  2  0
  5  6  1  0
  4  7  1  0
  6  8  1  0
  7  9  2  0
  8 10  2  0
  9 10  1  0
 10 11  1  0
 11 12  1  0
 12 13  1  0
 13 14  1  0
 14 15  1  0
 15 16  2  0
 15 17  1  0
 17 18  1  0
 18 19  2  0
 18 20  1  0
 19 21  1  0
 20 22  2  0
 21 22  1  0
 20 23  1  0
 22 24  1  0
 23 25  2  0
 24 26  2  0
 25 26  1  0
M  END
