mac-x0348-mac-x0588
     RDKit          3D

 25 28  0  0  0  0  0  0  0  0999 V2000
   27.5000   44.3720   -1.0160 C   0  0  0  0  0  0  0  0  0  0  0  0
   28.4390   45.3150   -1.5810 N   0  0  0  0  0  0  0  0  0  0  0  0
   28.9300   45.2580   -2.8620 C   0  0  0  0  0  0  0  0  0  0  0  0
   28.9730   46.4040   -0.9180 C   0  0  0  0  0  0  0  0  0  0  0  0
   29.7980   46.3260   -3.0470 C   0  0  0  0  0  0  0  0  0  0  0  0
   29.8230   47.0410   -1.8180 C   0  0  0  0  0  0  0  0  0  0  0  0
   28.7900   46.8930    0.3860 C   0  0  0  0  0  0  0  0  0  0  0  0
   30.6100   46.7610   -4.2590 C   0  0  1  0  0  0  0  0  0  0  0  0
   30.5170   48.1970   -1.4110 C   0  0  0  0  0  0  0  0  0  0  0  0
   29.4910   48.0460    0.7630 C   0  0  0  0  0  0  0  0  0  0  0  0
   31.1490   45.5860   -5.0880 C   0  0  0  0  0  0  0  0  0  0  0  0
   30.3450   48.6910   -0.1230 C   0  0  0  0  0  0  0  0  0  0  0  0
   29.8500   47.9090   -4.8470 N   0  0  0  0  0  0  0  0  0  0  0  0
   32.1590   46.0130   -6.1110 C   0  0  0  0  0  0  0  0  0  0  0  0
   30.0420   49.1630   -4.0830 C   0  0  0  0  0  0  0  0  0  0  0  0
   29.7830   48.1070   -6.2840 C   0  0  2  0  0  0  0  0  0  0  0  0
   32.0090   45.9550   -7.3160 O   0  0  0  0  0  0  0  0  0  0  0  0
   33.3140   46.4860   -5.5950 O   0  0  0  0  0  0  0  0  0  0  0  0
   29.3370   50.3530   -4.5800 N   0  0  0  0  0  0  0  0  0  0  0  0
   28.7500   49.1690   -6.6380 C   0  0  1  0  0  0  0  0  0  0  0  0
   29.2480   46.9870   -7.0280 N   0  0  0  0  0  0  0  0  0  0  0  0
   29.3060   50.4500   -6.0170 C   0  0  1  0  0  0  0  0  0  0  0  0
   28.6360   49.0260   -8.0960 N   0  0  0  0  0  0  0  0  0  0  0  0
   28.6980   47.5660   -8.2510 C   0  0  0  0  0  0  0  0  0  0  0  0
   28.5240   51.6320   -6.3140 N   0  0  0  0  0  0  0  0  0  0  0  0
  1  2  1  0
  2  3  1  0
  2  4  1  0
  3  5  2  0
  4  6  2  0
  5  6  1  0
  4  7  1  0
  5  8  1  0
  6  9  1  0
  7 10  2  0
  8 11  1  6
  9 12  2  0
 10 12  1  0
  8 13  1  0
 11 14  1  0
 13 15  1  0
 13 16  1  0
 14 17  2  0
 14 18  1  0
 15 19  1  0
 16 20  1  0
 16 21  1  6
 19 22  1  0
 20 22  1  0
 20 23  1  6
 21 24  1  0
 23 24  1  0
 22 25  1  1
M  END
