mac-x0188-mac-x0394
     RDKit          3D

 27 29  0  0  0  0  0  0  0  0999 V2000
   32.4200   44.4990   -4.2770 C   0  0  0  0  0  0  0  0  0  0  0  0
   31.9190   45.8690   -4.0460 C   0  0  0  0  0  0  0  0  0  0  0  0
   32.3740   46.4880   -2.9370 O   0  0  0  0  0  0  0  0  0  0  0  0
   31.0490   46.7010   -4.7330 C   0  0  0  0  0  0  0  0  0  0  0  0
   30.4000   46.3140   -5.9570 C   0  0  0  0  0  0  0  0  0  0  0  0
   31.8190   47.7390   -2.8640 N   0  0  0  0  0  0  0  0  0  0  0  0
   31.0180   47.8870   -3.9370 C   0  0  0  0  0  0  0  0  0  0  0  0
   29.2450   45.9150   -6.0000 O   0  0  0  0  0  0  0  0  0  0  0  0
   31.1540   46.4040   -7.0790 O   0  0  0  0  0  0  0  0  0  0  0  0
   30.3160   49.1700   -4.0370 C   0  0  0  0  0  0  0  0  0  0  0  0
   30.2880   49.8610   -2.8260 C   0  0  0  0  0  0  0  0  0  0  0  0
   29.6870   49.7460   -5.2000 C   0  0  0  0  0  0  0  0  0  0  0  0
   29.6780   51.0780   -2.7100 C   0  0  0  0  0  0  0  0  0  0  0  0
   29.0510   51.0240   -5.0480 C   0  0  0  0  0  0  0  0  0  0  0  0
   28.2720   51.9720   -5.9600 C   0  0  1  0  0  0  0  0  0  0  0  0
   29.0780   51.6370   -3.7980 C   0  0  0  0  0  0  0  0  0  0  0  0
   28.2390   52.0240   -7.4870 C   0  0  0  0  0  0  0  0  0  0  0  0
   26.9810   52.1190   -5.1790 C   0  0  0  0  0  0  0  0  0  0  0  0
   29.3210   52.6700   -7.9850 O   0  0  0  0  0  0  0  0  0  0  0  0
   27.3850   51.6150   -8.2530 O   0  0  0  0  0  0  0  0  0  0  0  0
   26.8110   53.2990   -4.4520 C   0  0  0  0  0  0  0  0  0  0  0  0
   25.9760   51.1370   -5.1250 C   0  0  0  0  0  0  0  0  0  0  0  0
   25.6770   53.5030   -3.6820 C   0  0  0  0  0  0  0  0  0  0  0  0
   24.8350   51.3560   -4.3440 C   0  0  0  0  0  0  0  0  0  0  0  0
   23.6050   50.1560   -4.2630 Cl  0  0  0  0  0  0  0  0  0  0  0  0
   25.5260   54.9690   -2.8010 Cl  0  0  0  0  0  0  0  0  0  0  0  0
   24.6820   52.5350   -3.6220 C   0  0  0  0  0  0  0  0  0  0  0  0
  1  2  1  0
  2  3  1  0
  2  4  2  0
  4  5  1  0
  3  6  1  0
  4  7  1  0
  6  7  2  0
  5  8  2  0
  5  9  1  0
  7 10  1  0
 10 11  2  0
 10 12  1  0
 11 13  1  0
 12 14  2  0
 14 15  1  0
 13 16  2  0
 14 16  1  0
 15 17  1  6
 15 18  1  0
 17 19  1  0
 17 20  2  0
 18 21  2  0
 18 22  1  0
 21 23  1  0
 22 24  2  0
 24 25  1  0
 23 26  1  0
 23 27  2  0
 24 27  1  0
M  END
