mac-x0358-mac-x0328
     RDKit          3D

 21 22  0  0  0  0  0  0  0  0999 V2000
   32.4120   45.2760   -7.1010 O   0  0  0  0  0  0  0  0  0  0  0  0
   32.8960   45.7400   -5.9240 C   0  0  0  0  0  0  0  0  0  0  0  0
   34.0410   46.1590   -5.8740 O   0  0  0  0  0  0  0  0  0  0  0  0
   31.8620   45.6480   -4.8270 C   0  0  0  0  0  0  0  0  0  0  0  0
   32.1230   46.5120   -3.6120 C   0  0  0  0  0  0  0  0  0  0  0  0
   33.4030   46.6300   -3.0520 C   0  0  0  0  0  0  0  0  0  0  0  0
   31.0880   47.2360   -2.9870 C   0  0  0  0  0  0  0  0  0  0  0  0
   34.4410   45.9480   -3.6280 O   0  0  0  0  0  0  0  0  0  0  0  0
   29.7830   47.1740   -3.4960 O   0  0  0  0  0  0  0  0  0  0  0  0
   33.6390   47.4220   -1.9280 C   0  0  0  0  0  0  0  0  0  0  0  0
   31.3120   48.0270   -1.8630 C   0  0  0  0  0  0  0  0  0  0  0  0
   29.5510   47.9130   -4.6490 C   0  0  0  0  0  0  0  0  0  0  0  0
   32.5940   48.1210   -1.3310 C   0  0  0  0  0  0  0  0  0  0  0  0
   29.3060   47.4700   -5.7600 O   0  0  0  0  0  0  0  0  0  0  0  0
   29.6260   49.3840   -4.3790 C   0  0  0  0  0  0  0  0  0  0  0  0
   29.6650   50.2340   -5.4970 C   0  0  0  0  0  0  0  0  0  0  0  0
   29.6550   49.9460   -3.0960 C   0  0  0  0  0  0  0  0  0  0  0  0
   29.7310   51.6230   -5.3370 C   0  0  0  0  0  0  0  0  0  0  0  0
   29.7220   51.3370   -2.9360 C   0  0  0  0  0  0  0  0  0  0  0  0
   29.7590   52.1600   -4.0570 C   0  0  0  0  0  0  0  0  0  0  0  0
   29.8220   53.5090   -3.8530 O   0  0  0  0  0  0  0  0  0  0  0  0
  1  2  1  0
  2  3  2  0
  2  4  1  0
  4  5  1  0
  5  6  2  0
  5  7  1  0
  6  8  1  0
  7  9  1  0
  6 10  1  0
  7 11  2  0
  9 12  1  0
 10 13  2  0
 11 13  1  0
 12 14  2  0
 12 15  1  0
 15 16  2  0
 15 17  1  0
 16 18  1  0
 17 19  2  0
 18 20  2  0
 19 20  1  0
 20 21  1  0
M  END
