mac-x0451-mac-x0228
     RDKit          3D

 17 19  0  0  0  0  0  0  0  0999 V2000
   28.2020   53.8540   -8.7520 N   0  0  0  0  0  0  0  0  0  0  0  0
   28.6350   52.8240   -8.0070 C   0  0  0  0  0  0  0  0  0  0  0  0
   29.0690   52.9740   -6.7820 N   0  0  0  0  0  0  0  0  0  0  0  0
   28.6540   51.2120   -8.6080 S   0  0  0  0  0  0  0  0  0  0  0  0
   29.4470   51.7550   -6.2650 C   0  0  0  0  0  0  0  0  0  0  0  0
   29.2890   50.6860   -7.1200 C   0  0  0  0  0  0  0  0  0  0  0  0
   29.9860   51.6380   -4.8760 C   0  0  2  0  0  0  0  0  0  0  0  0
   29.6220   49.2760   -6.8010 C   0  0  0  0  0  0  0  0  0  0  0  0
   30.5260   50.2020   -4.5890 C   0  0  0  0  0  0  0  0  0  0  0  0
   29.6850   49.0910   -5.2690 C   0  0  2  0  0  0  0  0  0  0  0  0
   28.9720   52.1290   -3.8200 C   0  0  0  0  0  0  0  0  0  0  0  0
   31.0470   52.6680   -4.6600 C   0  0  0  0  0  0  0  0  0  0  0  0
   30.2900   47.8060   -5.0230 O   0  0  0  0  0  0  0  0  0  0  0  0
   29.1910   53.5510   -3.6470 O   0  0  0  0  0  0  0  0  0  0  0  0
   30.5190   53.6830   -3.9830 C   0  0  0  0  0  0  0  0  0  0  0  0
   30.2420   47.3830   -3.7400 C   0  0  0  0  0  0  0  0  0  0  0  0
   31.1900   47.2550   -2.9850 O   0  0  0  0  0  0  0  0  0  0  0  0
  1  2  1  0
  2  3  2  0
  2  4  1  0
  3  5  1  0
  4  6  1  0
  5  6  2  0
  5  7  1  0
  6  8  1  0
  7  9  1  1
  8 10  1  0
  9 10  1  0
  7 11  1  0
  7 12  1  0
 10 13  1  6
 11 14  1  0
 12 15  2  0
 14 15  1  0
 13 16  1  0
 16 17  2  0
M  END
