mac-x0357-mac-x0338
     RDKit          3D

 21 22  0  0  0  0  0  0  0  0999 V2000
   32.1600   43.4950   -5.0230 C   0  0  0  0  0  0  0  0  0  0  0  0
   32.9600   44.6570   -4.4990 C   0  0  0  0  0  0  0  0  0  0  0  0
   34.0180   44.4230   -3.5990 C   0  0  0  0  0  0  0  0  0  0  0  0
   32.6860   45.9950   -4.8830 C   0  0  0  0  0  0  0  0  0  0  0  0
   34.2990   43.1390   -3.2170 O   0  0  0  0  0  0  0  0  0  0  0  0
   31.5890   46.3570   -5.8400 C   0  0  0  0  0  0  0  0  0  0  0  0
   33.4710   47.0400   -4.3580 C   0  0  0  0  0  0  0  0  0  0  0  0
   34.7880   45.4680   -3.0870 C   0  0  0  0  0  0  0  0  0  0  0  0
   30.5900   47.1570   -5.6200 N   0  0  0  0  0  0  0  0  0  0  0  0
   31.7930   45.7150   -7.0040 O   0  0  0  0  0  0  0  0  0  0  0  0
   34.5150   46.7760   -3.4670 C   0  0  0  0  0  0  0  0  0  0  0  0
   30.3780   47.8360   -4.3440 C   0  0  0  0  0  0  0  0  0  0  0  0
   30.1090   49.3410   -4.3530 C   0  0  0  0  0  0  0  0  0  0  0  0
   29.6250   49.9970   -5.4720 N   0  0  0  0  0  0  0  0  0  0  0  0
   30.3690   50.0280   -3.1790 C   0  0  0  0  0  0  0  0  0  0  0  0
   29.4330   51.3590   -5.3170 C   0  0  0  0  0  0  0  0  0  0  0  0
   30.1780   51.3580   -3.0320 N   0  0  0  0  0  0  0  0  0  0  0  0
   28.9140   52.1710   -6.4640 C   0  0  0  0  0  0  0  0  0  0  0  0
   29.7080   51.9990   -4.1210 C   0  0  0  0  0  0  0  0  0  0  0  0
   28.5550   51.5430   -7.6320 N   0  0  0  0  0  0  0  0  0  0  0  0
   28.8030   53.3940   -6.3810 O   0  0  0  0  0  0  0  0  0  0  0  0
  1  2  1  0
  2  3  2  0
  2  4  1  0
  3  5  1  0
  4  6  1  0
  4  7  2  0
  3  8  1  0
  6  9  2  3
  6 10  1  0
  7 11  1  0
  8 11  2  0
  9 12  1  0
 12 13  1  0
 13 14  2  0
 13 15  1  0
 14 16  1  0
 15 17  2  0
 16 18  1  0
 16 19  2  0
 17 19  1  0
 18 20  1  0
 18 21  2  0
M  END
