mac-x0360-mac-x0301
     RDKit          3D

 24 26  0  0  0  0  0  0  0  0999 V2000
   32.0060   55.0790   -7.4310 Cl  0  0  0  0  0  0  0  0  0  0  0  0
   32.1550   53.6740   -6.4460 C   0  0  0  0  0  0  0  0  0  0  0  0
   33.3620   52.9750   -6.4180 C   0  0  0  0  0  0  0  0  0  0  0  0
   31.0720   53.2500   -5.6850 C   0  0  0  0  0  0  0  0  0  0  0  0
   31.2030   52.1110   -4.8870 C   0  0  0  0  0  0  0  0  0  0  0  0
   33.4790   51.8390   -5.6190 C   0  0  0  0  0  0  0  0  0  0  0  0
   34.9680   50.9750   -5.5830 Cl  0  0  0  0  0  0  0  0  0  0  0  0
   29.8200   51.5770   -3.9130 S   0  0  0  0  0  0  0  0  0  0  0  0
   32.4060   51.3970   -4.8480 C   0  0  0  0  0  0  0  0  0  0  0  0
   30.0690   49.9010   -3.8460 N   0  0  0  0  0  0  0  0  0  0  0  0
   30.0190   52.0840   -2.5800 O   0  0  0  0  0  0  0  0  0  0  0  0
   28.6020   51.8590   -4.6460 O   0  0  0  0  0  0  0  0  0  0  0  0
   29.7280   49.2800   -5.0750 C   0  0  0  0  0  0  0  0  0  0  0  0
   29.8970   47.9040   -5.3420 C   0  0  0  0  0  0  0  0  0  0  0  0
   29.1960   50.1520   -6.0460 C   0  0  0  0  0  0  0  0  0  0  0  0
   30.4510   46.9100   -4.3770 C   0  0  0  0  0  0  0  0  0  0  0  0
   29.5080   47.4810   -6.6080 C   0  0  0  0  0  0  0  0  0  0  0  0
   28.8200   49.6930   -7.2900 C   0  0  0  0  0  0  0  0  0  0  0  0
   30.2580   45.6340   -4.7790 O   0  0  0  0  0  0  0  0  0  0  0  0
   31.0270   47.1300   -3.3280 O   0  0  0  0  0  0  0  0  0  0  0  0
   28.9870   48.3590   -7.5410 C   0  0  0  0  0  0  0  0  0  0  0  0
   29.5660   46.2210   -7.1150 O   0  0  0  0  0  0  0  0  0  0  0  0
   28.6670   47.7650   -8.7160 O   0  0  0  0  0  0  0  0  0  0  0  0
   29.1660   46.4390   -8.4800 C   0  0  0  0  0  0  0  0  0  0  0  0
  1  2  1  0
  2  3  2  0
  2  4  1  0
  4  5  2  0
  3  6  1  0
  6  7  1  0
  5  8  1  0
  5  9  1  0
  6  9  2  0
  8 10  1  0
  8 11  2  0
  8 12  2  0
 10 13  1  0
 13 14  2  0
 13 15  1  0
 14 16  1  0
 14 17  1  0
 15 18  2  0
 16 19  1  0
 16 20  2  0
 17 21  2  0
 18 21  1  0
 17 22  1  0
 21 23  1  0
 22 24  1  0
 23 24  1  0
M  END
