mac-x0361-mac-x0357
     RDKit          3D

 22 23  0  0  0  0  0  0  0  0999 V2000
   29.0390   53.4560   -5.8430 N   0  0  0  0  0  0  0  0  0  0  0  0
   29.9000   53.1500   -4.8240 C   0  0  0  0  0  0  0  0  0  0  0  0
   30.5190   54.0360   -4.2440 O   0  0  0  0  0  0  0  0  0  0  0  0
   30.0470   51.7170   -4.4520 C   0  0  0  0  0  0  0  0  0  0  0  0
   30.1660   50.7730   -5.4770 C   0  0  0  0  0  0  0  0  0  0  0  0
   30.0690   51.2880   -3.1200 C   0  0  0  0  0  0  0  0  0  0  0  0
   30.3050   49.4150   -5.1680 C   0  0  0  0  0  0  0  0  0  0  0  0
   30.2090   49.9260   -2.8160 C   0  0  0  0  0  0  0  0  0  0  0  0
   30.3270   48.9840   -3.8390 C   0  0  0  0  0  0  0  0  0  0  0  0
   30.4670   47.6350   -3.6760 O   0  0  0  0  0  0  0  0  0  0  0  0
   29.5710   46.7680   -4.3850 C   0  0  0  0  0  0  0  0  0  0  0  0
   30.0070   46.3210   -5.7110 N   0  0  0  0  0  0  0  0  0  0  0  0
   31.2430   46.0250   -5.8620 C   0  0  0  0  0  0  0  0  0  0  0  0
   31.6490   45.6140   -7.0720 O   0  0  0  0  0  0  0  0  0  0  0  0
   32.3750   46.0440   -4.9230 C   0  0  0  0  0  0  0  0  0  0  0  0
   32.8970   44.8520   -4.3820 C   0  0  0  0  0  0  0  0  0  0  0  0
   32.9060   47.3000   -4.5910 C   0  0  0  0  0  0  0  0  0  0  0  0
   32.3240   43.5110   -4.7400 C   0  0  0  0  0  0  0  0  0  0  0  0
   33.9760   47.3840   -3.7080 C   0  0  0  0  0  0  0  0  0  0  0  0
   33.9740   44.9740   -3.4960 C   0  0  0  0  0  0  0  0  0  0  0  0
   34.5760   43.8960   -2.9010 O   0  0  0  0  0  0  0  0  0  0  0  0
   34.5130   46.2200   -3.1580 C   0  0  0  0  0  0  0  0  0  0  0  0
  1  2  1  0
  2  3  2  0
  2  4  1  0
  4  5  2  0
  4  6  1  0
  5  7  1  0
  6  8  2  0
  7  9  2  0
  8  9  1  0
  9 10  1  0
 10 11  1  0
 11 12  1  0
 12 13  2  3
 13 14  1  0
 13 15  1  0
 15 16  2  0
 15 17  1  0
 16 18  1  0
 17 19  2  0
 16 20  1  0
 20 21  1  0
 19 22  1  0
 20 22  2  0
M  END
