mac-x0436-mac-x0439
     RDKit          3D

 28 31  0  0  0  0  0  0  0  0999 V2000
   33.5050   46.2650   -6.8990 O   0  0  0  0  0  0  0  0  0  0  0  0
   32.5450   45.4280   -6.4720 C   0  0  0  0  0  0  0  0  0  0  0  0
   31.3860   45.3180   -7.0170 N   0  0  0  0  0  0  0  0  0  0  0  0
   32.9800   44.6240   -5.2770 C   0  0  0  0  0  0  0  0  0  0  0  0
   32.9030   45.4470   -3.9940 C   0  0  0  0  0  0  0  0  0  0  0  0
   30.3600   44.3970   -6.5430 C   0  0  1  0  0  0  0  0  0  0  0  0
   30.6410   42.9950   -6.6760 O   0  0  0  0  0  0  0  0  0  0  0  0
   34.2490   45.9900   -3.5650 C   0  0  0  0  0  0  0  0  0  0  0  0
   29.9900   44.6410   -5.0910 C   0  0  0  0  0  0  0  0  0  0  0  0
   34.3830   47.5130   -3.4640 C   0  0  0  0  0  0  0  0  0  0  0  0
   35.2290   45.1760   -3.2970 N   0  0  0  0  0  0  0  0  0  0  0  0
   30.1960   45.7450   -4.3530 C   0  0  0  0  0  0  0  0  0  0  0  0
   29.3520   43.6290   -4.3930 N   0  0  0  0  0  0  0  0  0  0  0  0
   33.4040   48.2440   -3.4950 O   0  0  0  0  0  0  0  0  0  0  0  0
   35.6650   47.9740   -3.3360 N   0  0  0  0  0  0  0  0  0  0  0  0
   36.4570   45.7390   -2.9010 C   0  0  0  0  0  0  0  0  0  0  0  0
   29.6920   45.5370   -2.9670 C   0  0  2  0  0  0  0  0  0  0  0  0
   29.1710   44.1320   -3.2100 C   0  0  0  0  0  0  0  0  0  0  0  0
   36.6890   47.1240   -2.9150 C   0  0  0  0  0  0  0  0  0  0  0  0
   37.4790   44.8920   -2.4800 C   0  0  0  0  0  0  0  0  0  0  0  0
   28.5550   46.3190   -2.3980 C   0  0  0  0  0  0  0  0  0  0  0  0
   28.4970   43.4560   -2.0920 C   0  0  0  0  0  0  0  0  0  0  0  0
   28.4470   48.0000   -2.7500 Cl  0  0  0  0  0  0  0  0  0  0  0  0
   38.7120   45.4150   -2.0800 C   0  0  0  0  0  0  0  0  0  0  0  0
   37.9140   47.6520   -2.5170 C   0  0  0  0  0  0  0  0  0  0  0  0
   27.6390   45.7050   -1.6200 C   0  0  0  0  0  0  0  0  0  0  0  0
   27.7480   44.2780   -1.3310 C   0  0  0  0  0  0  0  0  0  0  0  0
   38.9280   46.7920   -2.0980 C   0  0  0  0  0  0  0  0  0  0  0  0
  1  2  1  0
  2  3  2  3
  2  4  1  0
  4  5  1  0
  3  6  1  0
  6  7  1  1
  5  8  1  0
  6  9  1  0
  8 10  1  0
  8 11  2  0
  9 12  2  0
  9 13  1  0
 10 14  2  0
 10 15  1  0
 11 16  1  0
 17 12  1  6
 13 18  2  0
 17 18  1  0
 15 19  1  0
 16 19  2  0
 16 20  1  0
 17 21  1  0
 18 22  1  0
 21 23  1  0
 20 24  2  0
 19 25  1  0
 21 26  2  0
 22 27  2  0
 26 27  1  0
 24 28  1  0
 25 28  2  0
M  END
