mac-x0190-mac-x0204
     RDKit          3D

 24 26  0  0  0  0  0  0  0  0999 V2000
   28.7590   56.9380   -5.2870 O   0  0  0  0  0  0  0  0  0  0  0  0
   29.7640   56.2750   -4.5300 C   0  0  0  0  0  0  0  0  0  0  0  0
   29.5450   54.8180   -4.6900 C   0  0  0  0  0  0  0  0  0  0  0  0
   30.1300   53.8990   -3.8580 N   0  0  0  0  0  0  0  0  0  0  0  0
   28.8020   54.2070   -5.5950 N   0  0  0  0  0  0  0  0  0  0  0  0
   29.7280   52.6620   -4.2700 C   0  0  0  0  0  0  0  0  0  0  0  0
   28.9230   52.8630   -5.3230 C   0  0  0  0  0  0  0  0  0  0  0  0
   29.9590   51.3990   -3.8650 C   0  0  0  0  0  0  0  0  0  0  0  0
   28.3410   51.7670   -5.9780 C   0  0  0  0  0  0  0  0  0  0  0  0
   29.3320   50.3680   -4.5850 C   0  0  0  0  0  0  0  0  0  0  0  0
   28.4420   50.3400   -5.7280 C   0  0  0  0  0  0  0  0  0  0  0  0
   28.6940   48.9180   -5.2830 C   0  0  0  0  0  0  0  0  0  0  0  0
   29.8860   48.3030   -6.0210 C   0  0  0  0  0  0  0  0  0  0  0  0
   29.7340   46.7830   -6.1380 C   0  0  0  0  0  0  0  0  0  0  0  0
   30.7420   45.9850   -5.2930 C   0  0  0  0  0  0  0  0  0  0  0  0
   31.8710   45.7040   -6.1050 O   0  0  0  0  0  0  0  0  0  0  0  0
   30.2040   44.7190   -4.9670 O   0  0  0  0  0  0  0  0  0  0  0  0
   31.1870   46.7220   -4.0450 C   0  0  0  0  0  0  0  0  0  0  0  0
   30.2920   46.9840   -2.9950 C   0  0  0  0  0  0  0  0  0  0  0  0
   32.4980   47.1700   -3.8750 C   0  0  0  0  0  0  0  0  0  0  0  0
   30.7290   47.6580   -1.8610 C   0  0  0  0  0  0  0  0  0  0  0  0
   32.9500   47.8290   -2.7790 N   0  0  0  0  0  0  0  0  0  0  0  0
   29.8310   47.8950   -0.8640 O   0  0  0  0  0  0  0  0  0  0  0  0
   32.0520   48.0590   -1.7960 C   0  0  0  0  0  0  0  0  0  0  0  0
  1  2  1  0
  2  3  1  0
  3  4  1  0
  3  5  2  0
  4  6  1  0
  5  7  1  0
  6  7  2  0
  6  8  1  0
  7  9  1  0
  8 10  2  0
  9 11  2  0
 10 11  1  0
 11 12  1  0
 12 13  1  0
 13 14  1  0
 14 15  1  0
 15 16  1  0
 15 17  1  0
 15 18  1  0
 18 19  2  0
 18 20  1  0
 19 21  1  0
 20 22  2  0
 21 23  1  0
 21 24  2  0
 22 24  1  0
M  END
