mac-x0231-mac-x0193
     RDKit          3D

 25 27  0  0  0  0  0  0  0  0999 V2000
   34.5740   45.1950   -6.9220 O   0  0  0  0  0  0  0  0  0  0  0  0
   33.3820   44.9560   -6.3330 C   0  0  0  0  0  0  0  0  0  0  0  0
   32.3690   44.8570   -7.0190 O   0  0  0  0  0  0  0  0  0  0  0  0
   33.3740   44.8260   -4.7940 C   0  0  2  0  0  0  0  0  0  0  0  0
   34.1280   43.6190   -4.4000 N   0  0  0  0  0  0  0  0  0  0  0  0
   31.9970   44.8040   -4.1130 C   0  0  0  0  0  0  0  0  0  0  0  0
   34.5360   43.3930   -3.1000 C   0  0  0  0  0  0  0  0  0  0  0  0
   31.6360   45.9320   -3.2110 C   0  0  0  0  0  0  0  0  0  0  0  0
   31.1760   43.8090   -4.3500 N   0  0  0  0  0  0  0  0  0  0  0  0
   33.8150   42.9130   -2.2400 O   0  0  0  0  0  0  0  0  0  0  0  0
   35.8490   43.7520   -2.8850 N   0  0  0  0  0  0  0  0  0  0  0  0
   30.3600   45.9290   -2.6510 C   0  0  0  0  0  0  0  0  0  0  0  0
   29.9550   43.8140   -3.7420 N   0  0  0  0  0  0  0  0  0  0  0  0
   32.5110   46.9820   -2.9080 C   0  0  0  0  0  0  0  0  0  0  0  0
   29.4380   44.8270   -2.9690 C   0  0  0  0  0  0  0  0  0  0  0  0
   29.9540   46.9620   -1.7940 C   0  0  0  0  0  0  0  0  0  0  0  0
   32.1080   48.0130   -2.0530 C   0  0  0  0  0  0  0  0  0  0  0  0
   36.7290   42.8940   -2.0950 C   0  0  0  0  0  0  0  0  0  0  0  0
   28.2800   44.8170   -2.5640 O   0  0  0  0  0  0  0  0  0  0  0  0
   30.8310   48.0030   -1.4970 C   0  0  0  0  0  0  0  0  0  0  0  0
   37.9480   42.4430   -2.9010 C   0  0  0  0  0  0  0  0  0  0  0  0
   37.1720   43.5940   -0.7970 C   0  0  0  0  0  0  0  0  0  0  0  0
   38.8940   41.5830   -2.0580 C   0  0  0  0  0  0  0  0  0  0  0  0
   38.1260   42.7490    0.0550 C   0  0  0  0  0  0  0  0  0  0  0  0
   39.3190   42.2420   -0.7450 C   0  0  0  0  0  0  0  0  0  0  0  0
  1  2  1  0
  2  3  2  0
  2  4  1  0
  4  5  1  6
  4  6  1  0
  5  7  1  0
  6  8  1  0
  6  9  2  0
  7 10  2  0
  7 11  1  0
  8 12  2  0
  9 13  1  0
  8 14  1  0
 12 15  1  0
 13 15  1  0
 12 16  1  0
 14 17  2  0
 11 18  1  0
 15 19  2  0
 16 20  2  0
 17 20  1  0
 18 21  1  0
 18 22  1  0
 21 23  1  0
 22 24  1  0
 23 25  1  0
 24 25  1  0
M  END
