mac-x0496-mac-x0354
     RDKit          3D

 37 40  0  0  0  0  0  0  0  0999 V2000
   24.6250   58.5150   -6.1560 C   0  0  0  0  0  0  0  0  0  0  0  0
   25.9490   58.2570   -5.5570 C   0  0  0  0  0  0  0  0  0  0  0  0
   26.3310   58.8060   -4.3970 N   0  0  0  0  0  0  0  0  0  0  0  0
   26.8780   57.4370   -6.1450 N   0  0  0  0  0  0  0  0  0  0  0  0
   27.6220   58.3000   -4.2140 O   0  0  0  0  0  0  0  0  0  0  0  0
   27.8780   57.4960   -5.2880 C   0  0  0  0  0  0  0  0  0  0  0  0
   29.2020   56.8290   -5.3280 C   0  0  0  0  0  0  0  0  0  0  0  0
   29.0400   55.4320   -5.6870 N   0  0  0  0  0  0  0  0  0  0  0  0
   29.1510   54.4490   -4.7280 C   0  0  0  0  0  0  0  0  0  0  0  0
   29.4120   54.6940   -3.5560 O   0  0  0  0  0  0  0  0  0  0  0  0
   28.9350   53.0430   -5.1750 C   0  0  0  0  0  0  0  0  0  0  0  0
   28.3440   52.7380   -6.4100 C   0  0  0  0  0  0  0  0  0  0  0  0
   29.3370   52.0050   -4.3200 C   0  0  0  0  0  0  0  0  0  0  0  0
   28.1600   51.4060   -6.7880 C   0  0  0  0  0  0  0  0  0  0  0  0
   29.1550   50.6660   -4.6990 C   0  0  0  0  0  0  0  0  0  0  0  0
   29.5670   49.5360   -3.8310 C   0  0  0  0  0  0  0  0  0  0  0  0
   28.5630   50.3760   -5.9370 C   0  0  0  0  0  0  0  0  0  0  0  0
   30.3310   48.5860   -4.2310 N   0  0  0  0  0  0  0  0  0  0  0  0
   29.0500   49.6360   -2.5930 O   0  0  0  0  0  0  0  0  0  0  0  0
   30.8840   48.5380   -5.5860 C   0  0  0  0  0  0  0  0  0  0  0  0
   30.4230   47.3110   -6.3720 C   0  0  0  0  0  0  0  0  0  0  0  0
   31.5900   46.5080   -6.9580 C   0  0  0  0  0  0  0  0  0  0  0  0
   32.0750   45.6000   -5.9200 N   0  0  0  0  0  0  0  0  0  0  0  0
   33.3350   45.4600   -5.7140 C   0  0  0  0  0  0  0  0  0  0  0  0
   34.2900   46.1060   -6.4270 O   0  0  0  0  0  0  0  0  0  0  0  0
   33.7730   44.5740   -4.6570 C   0  0  0  0  0  0  0  0  0  0  0  0
   33.2510   43.3030   -4.3220 C   0  0  0  0  0  0  0  0  0  0  0  0
   34.7960   44.7720   -3.7310 C   0  0  0  0  0  0  0  0  0  0  0  0
   34.8020   43.6440   -2.9410 N   0  0  0  0  0  0  0  0  0  0  0  0
   33.8680   42.7360   -3.2880 N   0  0  0  0  0  0  0  0  0  0  0  0
   35.7220   45.8850   -3.5400 C   0  0  0  0  0  0  0  0  0  0  0  0
   35.6800   43.3640   -1.8280 C   0  0  0  0  0  0  0  0  0  0  0  0
   37.1040   45.6570   -3.5390 C   0  0  0  0  0  0  0  0  0  0  0  0
   35.2410   47.1860   -3.3550 C   0  0  0  0  0  0  0  0  0  0  0  0
   37.9920   46.7190   -3.3550 C   0  0  0  0  0  0  0  0  0  0  0  0
   36.1310   48.2460   -3.1720 C   0  0  0  0  0  0  0  0  0  0  0  0
   37.5060   48.0130   -3.1720 C   0  0  0  0  0  0  0  0  0  0  0  0
  1  2  1  0
  2  3  2  0
  2  4  1  0
  3  5  1  0
  4  6  2  0
  5  6  1  0
  6  7  1  0
  7  8  1  0
  8  9  1  0
  9 10  2  0
  9 11  1  0
 11 12  2  0
 11 13  1  0
 12 14  1  0
 13 15  2  0
 15 16  1  0
 14 17  2  0
 15 17  1  0
 16 18  2  3
 16 19  1  0
 18 20  1  0
 20 21  1  0
 21 22  1  0
 22 23  1  0
 23 24  2  3
 24 25  1  0
 24 26  1  0
 26 27  1  0
 26 28  2  0
 28 29  1  0
 27 30  2  0
 29 30  1  0
 28 31  1  0
 29 32  1  0
 31 33  2  0
 31 34  1  0
 33 35  1  0
 34 36  2  0
 35 37  2  0
 36 37  1  0
M  END
