mac-x0206-mac-x0576
     RDKit          3D

 22 24  0  0  0  0  0  0  0  0999 V2000
   31.3060   51.1620   -5.6450 N   0  0  0  0  0  0  0  0  0  0  0  0
   31.0170   51.8700   -4.5120 C   0  0  0  0  0  0  0  0  0  0  0  0
   30.8380   51.2790   -3.4490 O   0  0  0  0  0  0  0  0  0  0  0  0
   30.9420   53.3910   -4.6860 C   0  0  2  0  0  0  0  0  0  0  0  0
   30.1900   53.9960   -3.4760 C   0  0  1  0  0  0  0  0  0  0  0  0
   30.1980   53.7570   -5.9820 C   0  0  0  0  0  0  0  0  0  0  0  0
   30.7870   55.2420   -3.1280 O   0  0  0  0  0  0  0  0  0  0  0  0
   28.7230   54.2490   -3.7180 C   0  0  0  0  0  0  0  0  0  0  0  0
   28.8730   53.0920   -5.8020 C   0  0  0  0  0  0  0  0  0  0  0  0
   28.0980   53.8170   -4.8180 C   0  0  0  0  0  0  0  0  0  0  0  0
   28.5160   51.9700   -6.4430 C   0  0  0  0  0  0  0  0  0  0  0  0
   29.3280   51.3310   -7.3780 N   0  0  0  0  0  0  0  0  0  0  0  0
   27.1900   51.2560   -6.1790 C   0  0  0  0  0  0  0  0  0  0  0  0
   29.4030   49.8750   -7.2720 C   0  0  1  0  0  0  0  0  0  0  0  0
   27.3850   49.8670   -5.7030 N   0  0  0  0  0  0  0  0  0  0  0  0
   28.8230   49.4550   -5.8830 C   0  0  1  0  0  0  0  0  0  0  0  0
   28.8850   49.0800   -8.3840 N   0  0  0  0  0  0  0  0  0  0  0  0
   28.6620   47.7030   -8.0660 C   0  0  1  0  0  0  0  0  0  0  0  0
   29.0770   47.9550   -5.7230 C   0  0  0  0  0  0  0  0  0  0  0  0
   29.2870   46.9620   -9.1110 N   0  0  0  0  0  0  0  0  0  0  0  0
   29.0610   47.3250   -4.6630 O   0  0  0  0  0  0  0  0  0  0  0  0
   29.3470   47.3180   -6.8980 N   0  0  0  0  0  0  0  0  0  0  0  0
  1  2  1  0
  2  3  2  0
  4  2  1  1
  4  5  1  0
  4  6  1  0
  5  7  1  6
  5  8  1  0
  6  9  1  0
  8 10  2  0
  9 10  1  0
  9 11  2  3
 11 12  1  0
 11 13  1  0
 14 12  1  6
 13 15  1  0
 14 16  1  0
 16 15  1  6
 14 17  1  0
 17 18  1  0
 16 19  1  0
 18 20  1  6
 19 21  2  0
 18 22  1  0
 19 22  1  0
M  END
