mac-x0182-mac-x0139
     RDKit          3D

 29 32  0  0  0  0  0  0  0  0999 V2000
   34.3840   43.4490   -2.7730 O   0  0  0  0  0  0  0  0  0  0  0  0
   34.5900   44.5510   -3.2620 C   0  0  0  0  0  0  0  0  0  0  0  0
   33.8240   45.1470   -4.2350 N   0  0  0  0  0  0  0  0  0  0  0  0
   35.7220   45.4190   -2.8600 C   0  0  0  0  0  0  0  0  0  0  0  0
   34.2990   46.7490   -4.4940 S   0  0  2  0  0  0  0  0  0  0  0  0
   35.6820   46.6690   -3.4670 C   0  0  0  0  0  0  0  0  0  0  0  0
   36.7520   45.1080   -1.9870 C   0  0  0  0  0  0  0  0  0  0  0  0
   33.2800   47.5560   -3.8650 O   0  0  0  0  0  0  0  0  0  0  0  0
   34.7880   46.7880   -5.9370 N   0  0  0  0  0  0  0  0  0  0  0  0
   36.6270   47.6470   -3.2490 C   0  0  0  0  0  0  0  0  0  0  0  0
   37.7270   46.0800   -1.7450 C   0  0  0  0  0  0  0  0  0  0  0  0
   33.9510   46.2670   -7.0140 C   0  0  0  0  0  0  0  0  0  0  0  0
   37.6670   47.3410   -2.3720 C   0  0  0  0  0  0  0  0  0  0  0  0
   33.5360   44.9250   -6.8310 O   0  0  0  0  0  0  0  0  0  0  0  0
   32.2300   44.7570   -7.1550 C   0  0  0  0  0  0  0  0  0  0  0  0
   31.3410   44.7870   -5.9400 C   0  0  0  0  0  0  0  0  0  0  0  0
   31.8190   44.6000   -8.2920 O   0  0  0  0  0  0  0  0  0  0  0  0
   31.2420   46.1960   -5.3800 C   0  0  0  0  0  0  0  0  0  0  0  0
   29.8780   46.7790   -5.3990 N   0  0  0  0  0  0  0  0  0  0  0  0
   29.6730   47.5170   -4.1420 C   0  0  0  0  0  0  0  0  0  0  0  0
   29.4220   47.4100   -6.5850 C   0  0  0  0  0  0  0  0  0  0  0  0
   29.3140   48.7590   -6.6370 C   0  0  0  0  0  0  0  0  0  0  0  0
   29.0850   46.6230   -7.6920 N   0  0  0  0  0  0  0  0  0  0  0  0
   28.8300   49.3850   -7.8910 C   0  0  0  0  0  0  0  0  0  0  0  0
   28.6700   47.2180   -8.7690 C   0  0  0  0  0  0  0  0  0  0  0  0
   29.5410   49.8720   -5.7760 C   0  0  0  0  0  0  0  0  0  0  0  0
   28.5270   48.5620   -8.9240 N   0  0  0  0  0  0  0  0  0  0  0  0
   28.7700   50.6830   -7.7930 N   0  0  0  0  0  0  0  0  0  0  0  0
   29.2080   50.9490   -6.4990 C   0  0  0  0  0  0  0  0  0  0  0  0
  1  2  2  0
  2  3  1  0
  2  4  1  0
  5  3  1  6
  4  6  2  0
  5  6  1  0
  4  7  1  0
  5  8  2  0
  5  9  2  0
  6 10  1  0
  7 11  2  0
  9 12  1  0
 10 13  2  0
 11 13  1  0
 12 14  1  0
 14 15  1  0
 15 16  1  0
 15 17  2  0
 16 18  1  0
 18 19  1  0
 19 20  1  0
 19 21  1  0
 21 22  2  0
 21 23  1  0
 22 24  1  0
 23 25  2  0
 22 26  1  0
 24 27  1  0
 25 27  1  0
 24 28  2  0
 26 29  2  0
 28 29  1  0
M  END
