mac-x0303-mac-x0439
     RDKit          3D

 28 31  0  0  0  0  0  0  0  0999 V2000
   30.4390   55.9180   -6.8640 N   0  0  0  0  0  0  0  0  0  0  0  0
   29.0460   55.6070   -5.9510 S   0  0  0  0  0  0  0  0  0  0  0  0
   27.9550   55.6760   -6.8940 O   0  0  0  0  0  0  0  0  0  0  0  0
   29.1640   56.4580   -4.7910 O   0  0  0  0  0  0  0  0  0  0  0  0
   29.1590   53.9310   -5.4100 C   0  0  0  0  0  0  0  0  0  0  0  0
   29.4110   53.6150   -4.0990 N   0  0  0  0  0  0  0  0  0  0  0  0
   29.0250   52.8370   -6.1420 N   0  0  0  0  0  0  0  0  0  0  0  0
   29.4410   52.2520   -3.9810 C   0  0  0  0  0  0  0  0  0  0  0  0
   29.1980   51.7900   -5.2680 C   0  0  0  0  0  0  0  0  0  0  0  0
   29.6540   51.4040   -2.8910 C   0  0  0  0  0  0  0  0  0  0  0  0
   29.1590   50.4100   -5.5050 C   0  0  0  0  0  0  0  0  0  0  0  0
   29.6150   50.0180   -3.1330 C   0  0  0  0  0  0  0  0  0  0  0  0
   29.3690   49.5360   -4.4280 C   0  0  0  0  0  0  0  0  0  0  0  0
   29.8410   49.0720   -1.9740 C   0  0  0  0  0  0  0  0  0  0  0  0
   31.2150   48.3860   -1.9310 C   0  0  0  0  0  0  0  0  0  0  0  0
   31.2000   46.8540   -1.8290 C   0  0  0  0  0  0  0  0  0  0  0  0
   29.9170   46.1610   -2.2150 C   0  0  0  0  0  0  0  0  0  0  0  0
   29.3970   46.2210   -3.6250 C   0  0  1  0  0  0  0  0  0  0  0  0
   29.1920   45.4630   -1.3080 C   0  0  0  0  0  0  0  0  0  0  0  0
   30.3060   46.1440   -4.8000 C   0  0  0  0  0  0  0  0  0  0  0  0
   28.6940   44.9000   -3.8980 C   0  0  0  0  0  0  0  0  0  0  0  0
   27.9540   44.7890   -1.6720 C   0  0  0  0  0  0  0  0  0  0  0  0
   30.0660   45.0180   -5.4920 C   0  0  0  0  0  0  0  0  0  0  0  0
   29.0690   44.2370   -4.9460 N   0  0  0  0  0  0  0  0  0  0  0  0
   27.6570   44.4860   -2.9440 C   0  0  0  0  0  0  0  0  0  0  0  0
   30.7940   44.6190   -6.7310 C   0  0  0  0  0  0  0  0  0  0  0  0
   30.6170   43.3190   -7.0480 O   0  0  0  0  0  0  0  0  0  0  0  0
   31.4880   45.3350   -7.4300 O   0  0  0  0  0  0  0  0  0  0  0  0
  2  1  1  0
  2  3  2  0
  2  4  2  0
  2  5  1  0
  5  6  1  0
  5  7  2  0
  6  8  1  0
  7  9  1  0
  8  9  2  0
  8 10  1  0
  9 11  1  0
 10 12  2  0
 11 13  2  0
 12 13  1  0
 12 14  1  0
 14 15  1  0
 15 16  1  0
 16 17  1  0
 17 18  1  0
 17 19  2  0
 18 20  1  6
 18 21  1  0
 19 22  1  0
 20 23  2  0
 21 24  2  0
 23 24  1  0
 21 25  1  0
 22 25  2  0
 23 26  1  0
 26 27  1  0
 26 28  2  0
M  END
