mac-x0132-mac-x0402
     RDKit          3D

 13 14  0  0  0  0  0  0  0  0999 V2000
   28.3580   52.2610   -7.3330 N   0  0  0  0  0  0  0  0  0  0  0  0
   28.6630   52.7440   -5.9790 C   0  0  2  0  0  0  0  0  0  0  0  0
   29.1620   54.1190   -6.0490 N   0  0  0  0  0  0  0  0  0  0  0  0
   29.6460   51.8270   -5.2330 C   0  0  1  0  0  0  0  0  0  0  0  0
   28.3940   54.9560   -6.9750 N   0  0  0  0  0  0  0  0  0  0  0  0
   30.0860   52.5730   -3.9390 C   0  0  1  0  0  0  0  0  0  0  0  0
   29.3340   54.7590   -4.7430 C   0  0  0  0  0  0  0  0  0  0  0  0
   29.1210   50.3740   -5.0760 C   0  0  0  0  0  0  0  0  0  0  0  0
   29.2900   53.7750   -3.6720 N   0  0  0  0  0  0  0  0  0  0  0  0
   30.1210   51.7500   -2.6860 C   0  0  0  0  0  0  0  0  0  0  0  0
   29.4010   49.6120   -3.7700 C   0  0  1  0  0  0  0  0  0  0  0  0
   30.5980   48.3030   -4.0360 Cl  0  0  0  0  0  0  0  0  0  0  0  0
   29.8270   50.4500   -2.6100 C   0  0  0  0  0  0  0  0  0  0  0  0
  2  1  1  6
  2  3  1  0
  2  4  1  0
  3  5  1  0
  4  6  1  0
  3  7  1  0
  4  8  1  1
  6  9  1  0
  7  9  1  0
  6 10  1  1
  8 11  1  0
 11 12  1  6
 10 13  2  0
 11 13  1  0
M  END
