mac-x0496-mac-x0576
     RDKit          3D

 25 28  0  0  0  0  0  0  0  0999 V2000
   24.5720   58.5090   -6.1110 C   0  0  0  0  0  0  0  0  0  0  0  0
   25.9130   58.2790   -5.5410 C   0  0  0  0  0  0  0  0  0  0  0  0
   26.3120   58.8180   -4.3800 N   0  0  0  0  0  0  0  0  0  0  0  0
   26.8450   57.4930   -6.1620 N   0  0  0  0  0  0  0  0  0  0  0  0
   27.6160   58.3390   -4.2360 O   0  0  0  0  0  0  0  0  0  0  0  0
   27.8620   57.5610   -5.3330 C   0  0  0  0  0  0  0  0  0  0  0  0
   29.2010   56.9250   -5.4140 C   0  0  0  0  0  0  0  0  0  0  0  0
   29.0790   55.5090   -5.7150 N   0  0  0  0  0  0  0  0  0  0  0  0
   29.0750   54.4710   -4.8260 C   0  0  0  0  0  0  0  0  0  0  0  0
   28.9470   54.7390   -3.6310 O   0  0  0  0  0  0  0  0  0  0  0  0
   29.2490   53.0340   -5.3360 C   0  0  2  0  0  0  0  0  0  0  0  0
   28.0390   52.5110   -6.0620 C   0  0  0  0  0  0  0  0  0  0  0  0
   29.5600   52.0910   -4.1710 C   0  0  0  0  0  0  0  0  0  0  0  0
   27.9480   51.2020   -6.3340 C   0  0  0  0  0  0  0  0  0  0  0  0
   29.7580   50.6360   -4.6060 C   0  0  1  0  0  0  0  0  0  0  0  0
   29.1960   49.6120   -3.6280 C   0  0  1  0  0  0  0  0  0  0  0  0
   29.0650   50.2340   -5.9330 C   0  0  1  0  0  0  0  0  0  0  0  0
   29.2460   48.3730   -4.3720 N   0  0  0  0  0  0  0  0  0  0  0  0
   29.9630   49.5180   -2.4490 O   0  0  0  0  0  0  0  0  0  0  0  0
   28.6790   48.7520   -5.6670 C   0  0  2  0  0  0  0  0  0  0  0  0
   29.9960   50.2030   -7.1480 C   0  0  0  0  0  0  0  0  0  0  0  0
   29.2770   47.8470   -6.6340 N   0  0  0  0  0  0  0  0  0  0  0  0
   29.3820   49.5120   -8.2830 N   0  0  0  0  0  0  0  0  0  0  0  0
   28.8380   48.2350   -7.9340 C   0  0  1  0  0  0  0  0  0  0  0  0
   29.4840   47.3630   -8.8450 N   0  0  0  0  0  0  0  0  0  0  0  0
  1  2  1  0
  2  3  2  0
  2  4  1  0
  3  5  1  0
  4  6  2  0
  5  6  1  0
  6  7  1  0
  7  8  1  0
  8  9  1  0
  9 10  2  0
 11  9  1  1
 11 12  1  0
 11 13  1  0
 12 14  2  0
 15 13  1  1
 15 16  1  0
 17 14  1  6
 15 17  1  0
 16 18  1  0
 16 19  1  1
 17 20  1  0
 20 18  1  1
 17 21  1  0
 20 22  1  0
 21 23  1  0
 22 24  1  0
 23 24  1  0
 24 25  1  6
M  END
