mac-x0204-mac-x0567
     RDKit          3D

 22 24  0  0  0  0  0  0  0  0999 V2000
   31.6470   45.8700   -6.2630 O   0  0  0  0  0  0  0  0  0  0  0  0
   30.6250   45.8080   -5.2820 C   0  0  0  0  0  0  0  0  0  0  0  0
   30.4680   44.4300   -5.0280 O   0  0  0  0  0  0  0  0  0  0  0  0
   29.3080   46.3210   -5.8820 C   0  0  0  0  0  0  0  0  0  0  0  0
   31.0980   46.5360   -4.0370 C   0  0  0  0  0  0  0  0  0  0  0  0
   29.2860   46.2650   -7.4100 C   0  0  0  0  0  0  0  0  0  0  0  0
   30.2950   46.6790   -2.8900 C   0  0  0  0  0  0  0  0  0  0  0  0
   32.3770   47.1030   -3.9760 C   0  0  0  0  0  0  0  0  0  0  0  0
   29.8040   47.5040   -7.9780 N   0  0  0  0  0  0  0  0  0  0  0  0
   30.7890   47.3540   -1.7800 C   0  0  0  0  0  0  0  0  0  0  0  0
   32.8790   47.7650   -2.9070 N   0  0  0  0  0  0  0  0  0  0  0  0
   30.0460   47.5120   -0.6500 O   0  0  0  0  0  0  0  0  0  0  0  0
   32.0710   47.8760   -1.8280 C   0  0  0  0  0  0  0  0  0  0  0  0
   29.3500   48.7250   -7.5890 C   0  0  0  0  0  0  0  0  0  0  0  0
   28.6350   49.5770   -8.3970 N   0  0  0  0  0  0  0  0  0  0  0  0
   29.4500   49.4040   -6.4020 C   0  0  0  0  0  0  0  0  0  0  0  0
   28.2750   50.7400   -7.8170 N   0  0  0  0  0  0  0  0  0  0  0  0
   28.7670   50.6620   -6.5690 C   0  0  0  0  0  0  0  0  0  0  0  0
   30.0920   48.9620   -5.2480 C   0  0  0  0  0  0  0  0  0  0  0  0
   28.6940   51.5860   -5.5120 C   0  0  0  0  0  0  0  0  0  0  0  0
   30.0020   49.9040   -4.2060 C   0  0  0  0  0  0  0  0  0  0  0  0
   29.3340   51.1580   -4.3290 C   0  0  0  0  0  0  0  0  0  0  0  0
  2  1  1  0
  2  3  1  0
  2  4  1  0
  2  5  1  0
  4  6  1  0
  5  7  2  0
  5  8  1  0
  6  9  1  0
  7 10  1  0
  8 11  2  0
 10 12  1  0
 10 13  2  0
 11 13  1  0
  9 14  1  0
 14 15  1  0
 14 16  2  0
 15 17  1  0
 16 18  1  0
 17 18  2  0
 16 19  1  0
 18 20  1  0
 19 21  2  0
 20 22  2  0
 21 22  1  0
M  END
