mac-x0565-mac-x0546
     RDKit          3D

 27 30  0  0  0  0  0  0  0  0999 V2000
   29.1740   54.0310   -4.7110 O   0  0  0  0  0  0  0  0  0  0  0  0
   29.8520   53.5620   -3.6480 C   0  0  0  0  0  0  0  0  0  0  0  0
   30.3110   54.3140   -2.8090 O   0  0  0  0  0  0  0  0  0  0  0  0
   29.9600   52.0810   -3.6390 C   0  0  0  0  0  0  0  0  0  0  0  0
   29.3590   51.2890   -4.6220 C   0  0  0  0  0  0  0  0  0  0  0  0
   30.6960   51.4740   -2.5980 C   0  0  0  0  0  0  0  0  0  0  0  0
   29.5190   49.9200   -4.5230 C   0  0  0  0  0  0  0  0  0  0  0  0
   30.8370   50.0790   -2.5290 C   0  0  0  0  0  0  0  0  0  0  0  0
   30.2390   49.3020   -3.5050 C   0  0  0  0  0  0  0  0  0  0  0  0
   28.9930   49.0120   -5.4050 O   0  0  0  0  0  0  0  0  0  0  0  0
   30.2220   47.8990   -3.6730 N   0  0  0  0  0  0  0  0  0  0  0  0
   29.7210   47.8060   -5.0510 C   0  0  0  0  0  0  0  0  0  0  0  0
   30.1390   46.9340   -2.6700 C   0  0  0  0  0  0  0  0  0  0  0  0
   29.2370   46.9380   -1.6450 C   0  0  0  0  0  0  0  0  0  0  0  0
   31.1280   45.7660   -2.6970 C   0  0  1  0  0  0  0  0  0  0  0  0
   28.2850   47.9260   -1.4860 O   0  0  0  0  0  0  0  0  0  0  0  0
   30.4060   44.5510   -2.1250 C   0  0  0  0  0  0  0  0  0  0  0  0
   29.2090   45.8910   -0.6270 C   0  0  0  0  0  0  0  0  0  0  0  0
   31.5360   45.0790   -3.9850 C   0  0  0  0  0  0  0  0  0  0  0  0
   28.7380   48.9730   -0.6260 C   0  0  0  0  0  0  0  0  0  0  0  0
   32.3230   45.7640   -5.0600 C   0  0  0  0  0  0  0  0  0  0  0  0
   29.7720   44.6900   -0.8140 C   0  0  0  0  0  0  0  0  0  0  0  0
   30.3930   43.4710   -2.8420 N   0  0  0  0  0  0  0  0  0  0  0  0
   31.0860   43.8130   -3.9690 C   0  0  0  0  0  0  0  0  0  0  0  0
   33.2790   44.8670   -5.8350 C   0  0  0  0  0  0  0  0  0  0  0  0
   32.9510   43.8400   -6.4110 O   0  0  0  0  0  0  0  0  0  0  0  0
   34.5590   45.3170   -5.8340 O   0  0  0  0  0  0  0  0  0  0  0  0
  1  2  1  0
  2  3  2  0
  2  4  1  0
  4  5  2  0
  4  6  1  0
  5  7  1  0
  6  8  2  0
  7  9  2  0
  8  9  1  0
  7 10  1  0
  9 11  1  0
 10 12  1  0
 11 12  1  0
 11 13  1  0
 13 14  2  0
 15 13  1  6
 14 16  1  0
 15 17  1  0
 14 18  1  0
 15 19  1  0
 16 20  1  0
 19 21  1  0
 17 22  1  0
 18 22  2  0
 17 23  2  0
 19 24  2  0
 23 24  1  0
 21 25  1  0
 25 26  2  0
 25 27  1  0
M  END
