mac-x0555-mac-x0282
     RDKit          3D

 18 21  0  0  0  0  0  0  0  0999 V2000
   29.0500   56.0070   -6.3500 N   0  0  0  0  0  0  0  0  0  0  0  0
   29.2530   54.9270   -5.5280 C   0  0  0  0  0  0  0  0  0  0  0  0
   29.5470   55.0030   -4.2130 C   0  0  0  0  0  0  0  0  0  0  0  0
   29.1450   53.5880   -6.1050 C   0  0  0  0  0  0  0  0  0  0  0  0
   29.3340   52.4910   -5.3440 C   0  0  0  0  0  0  0  0  0  0  0  0
   29.7410   53.8950   -3.4160 N   0  0  0  0  0  0  0  0  0  0  0  0
   29.6570   52.6040   -3.9100 C   0  0  0  0  0  0  0  0  0  0  0  0
   29.2200   51.1460   -5.9460 C   0  0  0  0  0  0  0  0  0  0  0  0
   29.8450   51.4900   -3.1770 C   0  0  0  0  0  0  0  0  0  0  0  0
   29.4540   49.9850   -5.0340 C   0  0  0  0  0  0  0  0  0  0  0  0
   28.9450   50.7800   -7.1690 N   0  0  0  0  0  0  0  0  0  0  0  0
   29.7440   50.1560   -3.7410 C   0  0  0  0  0  0  0  0  0  0  0  0
   29.2870   48.8270   -5.8800 C   0  0  0  0  0  0  0  0  0  0  0  0
   28.9860   49.3670   -7.1360 C   0  0  0  0  0  0  0  0  0  0  0  0
   29.3570   47.4660   -5.7060 C   0  0  0  0  0  0  0  0  0  0  0  0
   28.7500   48.6380   -8.2350 N   0  0  0  0  0  0  0  0  0  0  0  0
   29.1160   46.6770   -6.8310 C   0  0  0  0  0  0  0  0  0  0  0  0
   28.8220   47.2990   -8.0510 C   0  0  0  0  0  0  0  0  0  0  0  0
  1  2  1  0
  2  3  2  0
  2  4  1  0
  4  5  2  0
  3  6  1  0
  5  7  1  0
  6  7  1  0
  5  8  1  0
  7  9  2  0
  8 10  1  0
  8 11  2  0
  9 12  1  0
 10 12  2  0
 10 13  1  0
 11 14  1  0
 13 14  2  0
 13 15  1  0
 14 16  1  0
 15 17  2  0
 16 18  2  0
 17 18  1  0
M  END
