mac-x0587-mac-x0302
     RDKit          3D

 25 27  0  0  0  0  0  0  0  0999 V2000
   30.5270   45.6510   -2.9280 C   0  0  0  0  0  0  0  0  0  0  0  0
   30.9250   46.6040   -4.0840 C   0  0  2  0  0  0  0  0  0  0  0  0
   32.6600   47.1540   -3.6880 S   0  0  0  0  0  0  0  0  0  0  0  0
   29.8970   47.8190   -4.1440 C   0  0  1  0  0  0  0  0  0  0  0  0
   30.8780   45.6910   -5.3220 C   0  0  0  0  0  0  0  0  0  0  0  0
   33.3640   47.0240   -5.3470 C   0  0  0  0  0  0  0  0  0  0  0  0
   31.8150   45.2670   -6.1150 N   0  0  0  0  0  0  0  0  0  0  0  0
   29.7100   48.3680   -2.7590 N   0  0  0  0  0  0  0  0  0  0  0  0
   29.6550   45.2400   -5.6470 O   0  0  0  0  0  0  0  0  0  0  0  0
   30.0300   48.8810   -5.1570 N   0  0  0  0  0  0  0  0  0  0  0  0
   33.1220   45.6390   -5.8990 C   0  0  0  0  0  0  0  0  0  0  0  0
   29.2960   49.5760   -2.5090 C   0  0  0  0  0  0  0  0  0  0  0  0
   31.1570   49.8020   -5.1180 C   0  0  0  0  0  0  0  0  0  0  0  0
   29.5290   48.8390   -6.4580 C   0  0  0  0  0  0  0  0  0  0  0  0
   34.0560   44.8820   -6.1460 O   0  0  0  0  0  0  0  0  0  0  0  0
   28.7190   48.0680   -6.9420 O   0  0  0  0  0  0  0  0  0  0  0  0
   30.9980   50.6400   -6.3730 C   0  0  0  0  0  0  0  0  0  0  0  0
   30.1090   49.8640   -7.1930 N   0  0  0  0  0  0  0  0  0  0  0  0
   28.9500   50.5910   -3.5310 C   0  0  0  0  0  0  0  0  0  0  0  0
   29.5200   51.8660   -3.4140 C   0  0  0  0  0  0  0  0  0  0  0  0
   28.0740   50.3060   -4.5870 C   0  0  0  0  0  0  0  0  0  0  0  0
   29.2070   52.8410   -4.3590 C   0  0  0  0  0  0  0  0  0  0  0  0
   27.7730   51.2980   -5.5260 C   0  0  0  0  0  0  0  0  0  0  0  0
   29.7810   54.0770   -4.2160 O   0  0  0  0  0  0  0  0  0  0  0  0
   28.3410   52.5710   -5.4150 C   0  0  0  0  0  0  0  0  0  0  0  0
  2  1  1  1
  2  3  1  0
  2  4  1  0
  2  5  1  0
  3  6  1  0
  5  7  2  0
  4  8  1  1
  5  9  1  0
  4 10  1  0
  6 11  1  0
  7 11  1  0
  8 12  2  3
 10 13  1  0
 10 14  1  0
 11 15  2  0
 14 16  2  0
 13 17  1  0
 14 18  1  0
 17 18  1  0
 12 19  1  0
 19 20  2  0
 19 21  1  0
 20 22  1  0
 21 23  2  0
 22 24  1  0
 22 25  2  0
 23 25  1  0
M  END
