mac-x0179-mac-x0346
     RDKit          3D

 29 31  0  0  0  0  0  0  0  0999 V2000
   31.7750   45.7650   -5.5660 O   0  0  0  0  0  0  0  0  0  0  0  0
   32.9280   45.7420   -4.8550 C   0  0  0  0  0  0  0  0  0  0  0  0
   34.0120   45.9550   -5.3860 O   0  0  0  0  0  0  0  0  0  0  0  0
   32.7520   45.4360   -3.3730 C   0  0  0  0  0  0  0  0  0  0  0  0
   33.9440   45.7560   -2.6000 N   0  0  0  0  0  0  0  0  0  0  0  0
   34.7070   44.7850   -2.0180 C   0  0  0  0  0  0  0  0  0  0  0  0
   34.5130   47.0040   -2.4410 C   0  0  0  0  0  0  0  0  0  0  0  0
   34.4230   43.6000   -1.9190 O   0  0  0  0  0  0  0  0  0  0  0  0
   33.9230   48.0770   -2.8160 N   0  0  0  0  0  0  0  0  0  0  0  0
   35.9230   45.4260   -1.5390 C   0  0  0  0  0  0  0  0  0  0  0  0
   35.8180   46.7910   -1.7950 C   0  0  0  0  0  0  0  0  0  0  0  0
   32.6160   48.0990   -3.4440 C   0  0  0  0  0  0  0  0  0  0  0  0
   37.0290   44.8570   -0.9300 C   0  0  0  0  0  0  0  0  0  0  0  0
   36.8470   47.6420   -1.4360 C   0  0  0  0  0  0  0  0  0  0  0  0
   31.9910   49.4740   -3.2470 C   0  0  0  0  0  0  0  0  0  0  0  0
   38.0680   45.7100   -0.5680 C   0  0  0  0  0  0  0  0  0  0  0  0
   37.9780   47.0930   -0.8190 C   0  0  0  0  0  0  0  0  0  0  0  0
   30.4960   49.3950   -2.9210 C   0  0  0  0  0  0  0  0  0  0  0  0
   29.7920   50.6190   -3.1430 O   0  0  0  0  0  0  0  0  0  0  0  0
   29.3010   50.8440   -4.4050 C   0  0  0  0  0  0  0  0  0  0  0  0
   29.2240   52.1750   -4.8350 C   0  0  0  0  0  0  0  0  0  0  0  0
   28.8840   49.8140   -5.2550 C   0  0  0  0  0  0  0  0  0  0  0  0
   29.6640   53.2930   -3.9500 C   0  0  0  0  0  0  0  0  0  0  0  0
   28.3920   50.1120   -6.5250 C   0  0  0  0  0  0  0  0  0  0  0  0
   28.7250   52.4690   -6.1160 C   0  0  0  0  0  0  0  0  0  0  0  0
   29.9340   54.5460   -4.4540 N   0  0  0  0  0  0  0  0  0  0  0  0
   29.7950   53.0820   -2.7460 O   0  0  0  0  0  0  0  0  0  0  0  0
   28.3110   51.4330   -6.9560 C   0  0  0  0  0  0  0  0  0  0  0  0
   29.1360   55.0280   -5.5100 O   0  0  0  0  0  0  0  0  0  0  0  0
  1  2  1  0
  2  3  2  0
  2  4  1  0
  4  5  1  0
  5  6  1  0
  5  7  1  0
  6  8  2  0
  7  9  2  3
  6 10  1  0
  7 11  1  0
 10 11  2  0
  9 12  1  0
 10 13  1  0
 11 14  1  0
 12 15  1  0
 13 16  2  0
 14 17  2  0
 16 17  1  0
 15 18  1  0
 18 19  1  0
 19 20  1  0
 20 21  2  0
 20 22  1  0
 21 23  1  0
 22 24  2  0
 21 25  1  0
 23 26  1  0
 23 27  2  0
 24 28  1  0
 25 28  2  0
 26 29  1  0
M  END
