mac-x0472-mac-x0306
     RDKit          3D

 26 29  0  0  0  0  0  0  0  0999 V2000
   31.7020   47.6330   -4.9980 O   0  0  0  0  0  0  0  0  0  0  0  0
   31.2470   48.7970   -4.3010 S   0  0  0  0  0  0  0  0  0  0  0  0
   31.2040   48.7600   -2.8560 O   0  0  0  0  0  0  0  0  0  0  0  0
   29.6990   49.1850   -4.9310 N   0  0  0  0  0  0  0  0  0  0  0  0
   32.3600   50.1030   -4.7970 C   0  0  0  0  0  0  0  0  0  0  0  0
   29.5990   49.7430   -6.2850 C   0  0  0  0  0  0  0  0  0  0  0  0
   33.6210   49.7160   -5.2570 C   0  0  0  0  0  0  0  0  0  0  0  0
   32.0120   51.4580   -4.7340 C   0  0  0  0  0  0  0  0  0  0  0  0
   28.8830   49.9750   -4.0180 N   0  0  0  0  0  0  0  0  0  0  0  0
   29.4130   49.0290   -7.3780 N   0  0  0  0  0  0  0  0  0  0  0  0
   29.6900   51.4350   -6.5650 S   0  0  0  0  0  0  0  0  0  0  0  0
   34.5390   50.6810   -5.6560 C   0  0  0  0  0  0  0  0  0  0  0  0
   32.9420   52.4200   -5.1370 C   0  0  0  0  0  0  0  0  0  0  0  0
   29.5800   50.7990   -3.1360 C   0  0  0  0  0  0  0  0  0  0  0  0
   27.8750   50.5430   -4.7730 C   0  0  0  0  0  0  0  0  0  0  0  0
   29.4510   51.1000   -8.2220 C   0  0  0  0  0  0  0  0  0  0  0  0
   29.3250   49.8220   -8.5080 N   0  0  0  0  0  0  0  0  0  0  0  0
   34.2010   52.0310   -5.5970 C   0  0  0  0  0  0  0  0  0  0  0  0
   29.3930   52.1220   -3.0530 C   0  0  0  0  0  0  0  0  0  0  0  0
   27.5930   51.8460   -4.7890 C   0  0  0  0  0  0  0  0  0  0  0  0
   28.3700   52.8270   -3.9280 C   0  0  0  0  0  0  0  0  0  0  0  0
   28.9250   53.9960   -4.7040 C   0  0  0  0  0  0  0  0  0  0  0  0
   28.6060   54.2270   -6.0270 N   0  0  0  0  0  0  0  0  0  0  0  0
   29.7460   54.9210   -4.2520 N   0  0  0  0  0  0  0  0  0  0  0  0
   29.9610   55.7680   -5.3040 C   0  0  0  0  0  0  0  0  0  0  0  0
   29.2660   55.3580   -6.4140 C   0  0  0  0  0  0  0  0  0  0  0  0
  1  2  2  0
  2  3  2  0
  2  4  1  0
  2  5  1  0
  4  6  1  0
  5  7  2  0
  5  8  1  0
  4  9  1  0
  6 10  2  0
  6 11  1  0
  7 12  1  0
  8 13  2  0
  9 14  1  0
  9 15  1  0
 11 16  1  0
 10 17  1  0
 16 17  2  0
 12 18  2  0
 13 18  1  0
 14 19  2  0
 15 20  2  0
 19 21  1  0
 20 21  1  0
 21 22  1  0
 22 23  1  0
 22 24  2  0
 24 25  1  0
 23 26  1  0
 25 26  2  0
M  END
