mac-x0301-mac-x0231
     RDKit          3D

 27 30  0  0  0  0  0  0  0  0999 V2000
   29.4810   47.5450   -3.6680 O   0  0  0  0  0  0  0  0  0  0  0  0
   30.5200   48.1150   -4.3000 C   0  0  0  0  0  0  0  0  0  0  0  0
   31.6650   47.7180   -3.8770 N   0  0  0  0  0  0  0  0  0  0  0  0
   29.9880   49.0310   -5.2800 C   0  0  0  0  0  0  0  0  0  0  0  0
   29.5950   48.6600   -6.5510 C   0  0  0  0  0  0  0  0  0  0  0  0
   29.8560   50.3690   -4.8940 C   0  0  0  0  0  0  0  0  0  0  0  0
   31.4330   46.8450   -2.8580 C   0  0  0  0  0  0  0  0  0  0  0  0
   29.0820   49.5990   -7.4150 C   0  0  0  0  0  0  0  0  0  0  0  0
   29.3340   51.3150   -5.7810 C   0  0  0  0  0  0  0  0  0  0  0  0
   29.6350   47.4230   -7.1220 O   0  0  0  0  0  0  0  0  0  0  0  0
   31.0860   45.5120   -3.1140 C   0  0  0  0  0  0  0  0  0  0  0  0
   31.5140   47.3320   -1.5490 C   0  0  0  0  0  0  0  0  0  0  0  0
   28.9400   50.9270   -7.0620 C   0  0  0  0  0  0  0  0  0  0  0  0
   28.7440   49.0710   -8.6210 O   0  0  0  0  0  0  0  0  0  0  0  0
   28.9660   47.6730   -8.3740 C   0  0  0  0  0  0  0  0  0  0  0  0
   30.9950   44.8680   -4.4670 C   0  0  0  0  0  0  0  0  0  0  0  0
   30.7880   44.7090   -2.0190 C   0  0  0  0  0  0  0  0  0  0  0  0
   31.2380   46.5130   -0.4710 C   0  0  0  0  0  0  0  0  0  0  0  0
   31.4510   45.5640   -5.7430 C   0  0  0  0  0  0  0  0  0  0  0  0
   30.3700   43.3250   -2.2490 C   0  0  0  0  0  0  0  0  0  0  0  0
   30.5470   43.6570   -4.6450 N   0  0  0  0  0  0  0  0  0  0  0  0
   30.8660   45.1970   -0.7080 C   0  0  0  0  0  0  0  0  0  0  0  0
   32.5340   44.8640   -6.5230 C   0  0  0  0  0  0  0  0  0  0  0  0
   30.2040   42.5510   -1.3180 O   0  0  0  0  0  0  0  0  0  0  0  0
   30.1460   42.9620   -3.5510 N   0  0  0  0  0  0  0  0  0  0  0  0
   33.7980   45.2160   -6.1730 O   0  0  0  0  0  0  0  0  0  0  0  0
   32.3110   44.0480   -7.4080 O   0  0  0  0  0  0  0  0  0  0  0  0
  1  2  1  0
  2  3  2  3
  2  4  1  0
  4  5  1  0
  4  6  2  0
  3  7  1  0
  5  8  2  0
  6  9  1  0
  5 10  1  0
  7 11  1  0
  7 12  2  0
  8 13  1  0
  9 13  2  0
  8 14  1  0
 10 15  1  0
 14 15  1  0
 11 16  1  0
 11 17  2  0
 12 18  1  0
 16 19  1  0
 17 20  1  0
 16 21  2  0
 17 22  1  0
 18 22  2  0
 19 23  1  0
 20 24  2  0
 20 25  1  0
 21 25  1  0
 23 26  1  0
 23 27  2  0
M  END
