mac-x0228-mac-x0402
     RDKit          3D

 13 14  0  0  0  0  0  0  0  0999 V2000
   29.9720   47.7850   -5.7240 O   0  0  0  0  0  0  0  0  0  0  0  0
   30.3090   48.2570   -4.5100 C   0  0  0  0  0  0  0  0  0  0  0  0
   30.7600   47.5580   -3.6160 O   0  0  0  0  0  0  0  0  0  0  0  0
   30.0780   49.7190   -4.3520 C   0  0  0  0  0  0  0  0  0  0  0  0
   29.5680   50.5370   -5.3980 C   0  0  0  0  0  0  0  0  0  0  0  0
   30.3870   50.2690   -3.0970 C   0  0  0  0  0  0  0  0  0  0  0  0
   29.3870   51.9030   -5.1310 C   0  0  0  0  0  0  0  0  0  0  0  0
   30.2030   51.6270   -2.8520 C   0  0  0  0  0  0  0  0  0  0  0  0
   29.7090   52.4110   -3.8750 C   0  0  0  0  0  0  0  0  0  0  0  0
   28.8690   53.0580   -5.9550 C   0  0  2  0  0  0  0  0  0  0  0  0
   29.2050   53.1500   -7.3680 N   0  0  0  0  0  0  0  0  0  0  0  0
   29.4900   53.7610   -3.7480 O   0  0  0  0  0  0  0  0  0  0  0  0
   29.4870   54.1950   -5.1230 C   0  0  0  0  0  0  0  0  0  0  0  0
  1  2  1  0
  2  3  2  0
  2  4  1  0
  4  5  2  0
  4  6  1  0
  5  7  1  0
  6  8  2  0
  7  9  2  0
  8  9  1  0
  7 10  1  0
 10 11  1  6
  9 12  1  0
 10 13  1  0
 12 13  1  0
M  END
