mac-x0182-mac-x0206
     RDKit          3D

 25 27  0  0  0  0  0  0  0  0999 V2000
   34.3800   43.4070   -2.8670 O   0  0  0  0  0  0  0  0  0  0  0  0
   34.4500   44.5770   -3.2140 C   0  0  0  0  0  0  0  0  0  0  0  0
   33.4970   45.2690   -3.9340 N   0  0  0  0  0  0  0  0  0  0  0  0
   35.6140   45.4410   -2.8860 C   0  0  0  0  0  0  0  0  0  0  0  0
   34.1600   46.7030   -4.5430 S   0  0  2  0  0  0  0  0  0  0  0  0
   35.5820   46.6550   -3.5530 C   0  0  0  0  0  0  0  0  0  0  0  0
   36.6600   45.1440   -2.0240 C   0  0  0  0  0  0  0  0  0  0  0  0
   33.2230   47.8090   -4.0700 N   0  0  0  0  0  0  0  0  0  0  0  0
   34.5510   46.4200   -5.9010 O   0  0  0  0  0  0  0  0  0  0  0  0
   36.5570   47.6240   -3.4090 C   0  0  0  0  0  0  0  0  0  0  0  0
   37.6680   46.1060   -1.8550 C   0  0  0  0  0  0  0  0  0  0  0  0
   32.2140   47.6050   -3.0260 C   0  0  0  0  0  0  0  0  0  0  0  0
   37.6160   47.3350   -2.5410 C   0  0  0  0  0  0  0  0  0  0  0  0
   31.5610   48.9430   -2.6460 C   0  0  0  0  0  0  0  0  0  0  0  0
   30.1320   49.1380   -3.1730 C   0  0  0  0  0  0  0  0  0  0  0  0
   29.9490   50.5210   -3.6080 N   0  0  0  0  0  0  0  0  0  0  0  0
   29.4830   50.8070   -4.7750 C   0  0  0  0  0  0  0  0  0  0  0  0
   29.1180   49.8750   -5.7130 N   0  0  0  0  0  0  0  0  0  0  0  0
   29.3330   52.2710   -5.1160 C   0  0  0  0  0  0  0  0  0  0  0  0
   29.7650   53.2800   -4.2420 C   0  0  0  0  0  0  0  0  0  0  0  0
   28.7450   52.6440   -6.3380 C   0  0  0  0  0  0  0  0  0  0  0  0
   30.3490   53.0310   -3.0300 O   0  0  0  0  0  0  0  0  0  0  0  0
   29.6160   54.6280   -4.5770 C   0  0  0  0  0  0  0  0  0  0  0  0
   28.5970   53.9960   -6.6700 C   0  0  0  0  0  0  0  0  0  0  0  0
   29.0320   54.9860   -5.7910 C   0  0  0  0  0  0  0  0  0  0  0  0
  1  2  2  0
  2  3  1  0
  2  4  1  0
  5  3  1  1
  4  6  2  0
  5  6  1  0
  4  7  1  0
  5  8  2  0
  5  9  2  0
  6 10  1  0
  7 11  2  0
  8 12  1  0
 10 13  2  0
 11 13  1  0
 12 14  1  0
 14 15  1  0
 15 16  1  0
 16 17  2  3
 17 18  1  0
 17 19  1  0
 19 20  2  0
 19 21  1  0
 20 22  1  0
 20 23  1  0
 21 24  2  0
 23 25  2  0
 24 25  1  0
M  END
