mac-x0224-mac-x0204
     RDKit          3D

 19 20  0  0  0  0  0  0  0  0999 V2000
   28.4990   52.6450   -7.3490 C   0  0  0  0  0  0  0  0  0  0  0  0
   28.8790   50.9310   -7.8040 S   0  0  0  0  0  0  0  0  0  0  0  0
   29.1670   50.2470   -6.1810 C   0  0  0  0  0  0  0  0  0  0  0  0
   29.6960   48.9570   -6.0640 C   0  0  0  0  0  0  0  0  0  0  0  0
   28.8770   50.9710   -5.0250 C   0  0  0  0  0  0  0  0  0  0  0  0
   29.9470   48.3600   -4.8060 C   0  0  0  0  0  0  0  0  0  0  0  0
   29.1120   50.4110   -3.7690 C   0  0  0  0  0  0  0  0  0  0  0  0
   30.5280   46.9420   -4.7590 C   0  0  0  0  0  0  0  0  0  0  0  0
   29.6400   49.1230   -3.6670 C   0  0  0  0  0  0  0  0  0  0  0  0
   29.8570   48.5980   -2.4260 O   0  0  0  0  0  0  0  0  0  0  0  0
   29.4460   46.0210   -4.7990 O   0  0  0  0  0  0  0  0  0  0  0  0
   31.2720   46.5780   -5.9120 O   0  0  0  0  0  0  0  0  0  0  0  0
   31.3760   46.6770   -3.5280 C   0  0  0  0  0  0  0  0  0  0  0  0
   30.8280   46.2210   -2.3150 C   0  0  0  0  0  0  0  0  0  0  0  0
   32.7550   46.8800   -3.5590 C   0  0  0  0  0  0  0  0  0  0  0  0
   31.6640   45.9940   -1.2240 C   0  0  0  0  0  0  0  0  0  0  0  0
   33.5920   46.6660   -2.5120 N   0  0  0  0  0  0  0  0  0  0  0  0
   31.1840   45.5520   -0.0290 O   0  0  0  0  0  0  0  0  0  0  0  0
   33.0220   46.2270   -1.3660 C   0  0  0  0  0  0  0  0  0  0  0  0
  1  2  1  0
  2  3  1  0
  3  4  2  0
  3  5  1  0
  4  6  1  0
  5  7  2  0
  6  8  1  0
  6  9  2  0
  7  9  1  0
  9 10  1  0
  8 11  1  0
  8 12  1  0
  8 13  1  0
 13 14  2  0
 13 15  1  0
 14 16  1  0
 15 17  2  0
 16 18  1  0
 16 19  2  0
 17 19  1  0
M  END
