mac-x0190-mac-x0345
     RDKit          3D

 13 14  0  0  0  0  0  0  0  0999 V2000
   28.7380   56.9310   -5.2340 O   0  0  0  0  0  0  0  0  0  0  0  0
   29.8620   56.2740   -4.6590 C   0  0  0  0  0  0  0  0  0  0  0  0
   29.6220   54.8130   -4.7660 C   0  0  0  0  0  0  0  0  0  0  0  0
   29.8550   53.9640   -3.7140 N   0  0  0  0  0  0  0  0  0  0  0  0
   29.1790   54.1490   -5.8130 N   0  0  0  0  0  0  0  0  0  0  0  0
   29.5480   52.6840   -4.1020 C   0  0  0  0  0  0  0  0  0  0  0  0
   29.1260   52.8230   -5.4240 C   0  0  0  0  0  0  0  0  0  0  0  0
   29.6020   51.4560   -3.4330 C   0  0  0  0  0  0  0  0  0  0  0  0
   28.7290   51.6770   -6.1350 C   0  0  0  0  0  0  0  0  0  0  0  0
   30.0250   51.3110   -2.1090 N   0  0  0  0  0  0  0  0  0  0  0  0
   28.1440   51.7920   -7.9310 Br  0  0  0  0  0  0  0  0  0  0  0  0
   29.1990   50.3330   -4.1700 C   0  0  0  0  0  0  0  0  0  0  0  0
   28.7690   50.4330   -5.4970 C   0  0  0  0  0  0  0  0  0  0  0  0
  1  2  1  0
  2  3  1  0
  3  4  1  0
  3  5  2  0
  4  6  1  0
  5  7  1  0
  6  7  2  0
  6  8  1  0
  7  9  1  0
  8 10  1  0
  9 11  1  0
  8 12  2  0
  9 13  2  0
 12 13  1  0
M  END
