mac-x0178-mac-x0306
     RDKit          3D

 26 28  0  0  0  0  0  0  0  0999 V2000
   28.3470   45.1440   -0.3780 N   0  0  0  0  0  0  0  0  0  0  0  0
   29.0320   46.6310   -0.7690 S   0  0  2  0  0  0  0  0  0  0  0  0
   29.9250   46.8870    0.3320 O   0  0  0  0  0  0  0  0  0  0  0  0
   27.7460   47.3800   -1.0930 N   0  0  0  0  0  0  0  0  0  0  0  0
   29.9290   46.4360   -2.2650 C   0  0  0  0  0  0  0  0  0  0  0  0
   27.8110   48.6140   -1.9320 C   0  0  0  0  0  0  0  0  0  0  0  0
   29.3950   45.6130   -3.2620 C   0  0  0  0  0  0  0  0  0  0  0  0
   31.1430   47.0970   -2.4590 C   0  0  0  0  0  0  0  0  0  0  0  0
   28.2410   48.4660   -3.4190 C   0  0  0  0  0  0  0  0  0  0  0  0
   30.0760   45.4570   -4.4670 C   0  0  0  0  0  0  0  0  0  0  0  0
   31.8210   46.9370   -3.6670 C   0  0  0  0  0  0  0  0  0  0  0  0
   31.2930   46.1240   -4.6760 C   0  0  0  0  0  0  0  0  0  0  0  0
   29.0500   49.5810   -3.9900 N   0  0  0  0  0  0  0  0  0  0  0  0
   32.0360   45.9880   -5.9490 C   0  0  0  0  0  0  0  0  0  0  0  0
   29.6060   50.5240   -3.1340 C   0  0  0  0  0  0  0  0  0  0  0  0
   28.7820   49.9840   -5.2980 C   0  0  0  0  0  0  0  0  0  0  0  0
   31.5690   45.6570   -7.0220 O   0  0  0  0  0  0  0  0  0  0  0  0
   33.3440   46.2830   -5.8280 O   0  0  0  0  0  0  0  0  0  0  0  0
   30.0170   51.7390   -3.5250 C   0  0  0  0  0  0  0  0  0  0  0  0
   29.1500   51.1710   -5.8060 C   0  0  0  0  0  0  0  0  0  0  0  0
   29.9150   52.1740   -4.9730 C   0  0  0  0  0  0  0  0  0  0  0  0
   29.5340   53.6260   -5.1580 C   0  0  0  0  0  0  0  0  0  0  0  0
   28.9290   54.0900   -6.3030 N   0  0  0  0  0  0  0  0  0  0  0  0
   29.7170   54.6160   -4.3050 N   0  0  0  0  0  0  0  0  0  0  0  0
   29.2250   55.7390   -4.9140 C   0  0  0  0  0  0  0  0  0  0  0  0
   28.7290   55.4350   -6.1570 C   0  0  0  0  0  0  0  0  0  0  0  0
  2  1  1  1
  2  3  2  0
  2  4  2  0
  2  5  1  0
  4  6  1  0
  5  7  2  0
  5  8  1  0
  6  9  1  0
  7 10  1  0
  8 11  2  0
 10 12  2  0
 11 12  1  0
  9 13  1  0
 12 14  1  0
 13 15  1  0
 13 16  1  0
 14 17  2  0
 14 18  1  0
 15 19  2  0
 16 20  2  0
 19 21  1  0
 20 21  1  0
 21 22  1  0
 22 23  1  0
 22 24  2  0
 24 25  1  0
 23 26  1  0
 25 26  2  0
M  END
