mac-x0226-mac-x0277
     RDKit          3D

 24 26  0  0  0  0  0  0  0  0999 V2000
   32.4210   45.8770   -6.6330 N   0  0  0  0  0  0  0  0  0  0  0  0
   33.7460   46.0860   -6.3920 C   0  0  0  0  0  0  0  0  0  0  0  0
   34.5100   46.7910   -7.0380 O   0  0  0  0  0  0  0  0  0  0  0  0
   31.7630   45.7170   -5.5410 C   0  0  0  0  0  0  0  0  0  0  0  0
   30.2980   45.4510   -5.5400 C   0  0  0  0  0  0  0  0  0  0  0  0
   34.1420   45.3340   -5.2180 C   0  0  0  0  0  0  0  0  0  0  0  0
   33.6250   44.0910   -4.7980 C   0  0  0  0  0  0  0  0  0  0  0  0
   35.0800   45.6380   -4.2570 C   0  0  0  0  0  0  0  0  0  0  0  0
   29.7520   45.6340   -4.1560 C   0  0  0  0  0  0  0  0  0  0  0  0
   34.1840   43.6480   -3.6740 N   0  0  0  0  0  0  0  0  0  0  0  0
   35.0850   44.6080   -3.3420 N   0  0  0  0  0  0  0  0  0  0  0  0
   30.2260   46.6660   -3.3310 C   0  0  0  0  0  0  0  0  0  0  0  0
   28.7620   44.7750   -3.6770 C   0  0  0  0  0  0  0  0  0  0  0  0
   35.8880   44.4830   -2.1800 C   0  0  0  0  0  0  0  0  0  0  0  0
   29.7100   46.8350   -2.0440 C   0  0  0  0  0  0  0  0  0  0  0  0
   28.2470   44.9420   -2.3940 C   0  0  0  0  0  0  0  0  0  0  0  0
   30.3390   48.1310   -1.0870 Cl  0  0  0  0  0  0  0  0  0  0  0  0
   36.6880   45.5650   -1.7860 C   0  0  0  0  0  0  0  0  0  0  0  0
   35.8970   43.3060   -1.4250 C   0  0  0  0  0  0  0  0  0  0  0  0
   28.7160   45.9720   -1.5750 C   0  0  0  0  0  0  0  0  0  0  0  0
   28.0250   46.1190   -0.0020 Cl  0  0  0  0  0  0  0  0  0  0  0  0
   37.4890   45.4670   -0.6480 C   0  0  0  0  0  0  0  0  0  0  0  0
   36.7010   43.2150   -0.2860 C   0  0  0  0  0  0  0  0  0  0  0  0
   37.4950   44.2940    0.1000 C   0  0  0  0  0  0  0  0  0  0  0  0
  1  2  1  0
  2  3  2  0
  1  4  2  3
  4  5  1  0
  2  6  1  0
  6  7  1  0
  6  8  2  0
  5  9  1  0
  7 10  2  0
  8 11  1  0
 10 11  1  0
  9 12  2  0
  9 13  1  0
 11 14  1  0
 12 15  1  0
 13 16  2  0
 15 17  1  0
 14 18  2  0
 14 19  1  0
 15 20  2  0
 16 20  1  0
 20 21  1  0
 18 22  1  0
 19 23  2  0
 22 24  2  0
 23 24  1  0
M  END
