mac-x0116-mac-x0226
     RDKit          3D

 31 35  0  0  0  0  0  0  0  0999 V2000
   29.1230   53.4380   -6.3840 C   0  0  0  0  0  0  0  0  0  0  0  0
   28.6310   52.1510   -6.8750 N   0  0  0  0  0  0  0  0  0  0  0  0
   29.0580   51.0260   -6.1650 C   0  0  0  0  0  0  0  0  0  0  0  0
   30.4150   53.9300   -6.9600 C   0  0  0  0  0  0  0  0  0  0  0  0
   31.5070   53.8540   -6.1400 O   0  0  0  0  0  0  0  0  0  0  0  0
   30.7860   54.4710   -8.1760 C   0  0  0  0  0  0  0  0  0  0  0  0
   32.1760   54.7350   -8.0920 C   0  0  0  0  0  0  0  0  0  0  0  0
   32.5660   54.3430   -6.8350 C   0  0  0  0  0  0  0  0  0  0  0  0
   29.0920   51.0240   -4.8050 N   0  0  0  0  0  0  0  0  0  0  0  0
   29.4690   49.8510   -6.8280 C   0  0  0  0  0  0  0  0  0  0  0  0
   29.5140   49.9130   -4.1640 C   0  0  0  0  0  0  0  0  0  0  0  0
   29.8800   48.7890   -6.0380 C   0  0  0  0  0  0  0  0  0  0  0  0
   29.5520   49.5250   -8.1700 N   0  0  0  0  0  0  0  0  0  0  0  0
   29.9290   48.7460   -4.6960 N   0  0  0  0  0  0  0  0  0  0  0  0
   30.2220   47.8030   -6.9250 N   0  0  0  0  0  0  0  0  0  0  0  0
   30.0080   48.2880   -8.1890 C   0  0  0  0  0  0  0  0  0  0  0  0
   30.7210   46.4870   -6.5920 C   0  0  0  0  0  0  0  0  0  0  0  0
   31.9630   46.6260   -5.8880 O   0  0  0  0  0  0  0  0  0  0  0  0
   32.9440   45.7370   -6.2140 C   0  0  0  0  0  0  0  0  0  0  0  0
   33.3670   45.5560   -7.3480 O   0  0  0  0  0  0  0  0  0  0  0  0
   33.4430   45.0270   -5.0550 C   0  0  0  0  0  0  0  0  0  0  0  0
   32.9810   43.8400   -4.4600 C   0  0  0  0  0  0  0  0  0  0  0  0
   34.5220   45.3880   -4.2700 C   0  0  0  0  0  0  0  0  0  0  0  0
   33.6990   43.4790   -3.3960 N   0  0  0  0  0  0  0  0  0  0  0  0
   34.6530   44.4390   -3.2800 N   0  0  0  0  0  0  0  0  0  0  0  0
   35.6210   44.3880   -2.2360 C   0  0  0  0  0  0  0  0  0  0  0  0
   36.4220   45.5140   -1.9830 C   0  0  0  0  0  0  0  0  0  0  0  0
   35.7890   43.2350   -1.4570 C   0  0  0  0  0  0  0  0  0  0  0  0
   37.3760   45.4840   -0.9660 C   0  0  0  0  0  0  0  0  0  0  0  0
   36.7500   43.2140   -0.4390 C   0  0  0  0  0  0  0  0  0  0  0  0
   37.5400   44.3350   -0.1920 C   0  0  0  0  0  0  0  0  0  0  0  0
  1  2  1  0
  2  3  1  0
  1  4  1  0
  4  5  1  0
  4  6  2  0
  6  7  1  0
  5  8  1  0
  7  8  2  0
  3  9  2  0
  3 10  1  0
  9 11  1  0
 10 12  2  0
 10 13  1  0
 11 14  2  0
 12 14  1  0
 12 15  1  0
 13 16  2  0
 15 16  1  0
 15 17  1  0
 17 18  1  0
 18 19  1  0
 19 20  2  0
 19 21  1  0
 21 22  1  0
 21 23  2  0
 22 24  2  0
 23 25  1  0
 24 25  1  0
 25 26  1  0
 26 27  2  0
 26 28  1  0
 27 29  1  0
 28 30  2  0
 29 31  2  0
 30 31  1  0
M  END
