mac-x0568-mac-x0182
     RDKit          3D

 24 26  0  0  0  0  0  0  0  0999 V2000
   29.4620   55.6840   -5.2890 C   0  0  0  0  0  0  0  0  0  0  0  0
   29.5240   54.1860   -5.2570 C   0  0  0  0  0  0  0  0  0  0  0  0
   29.1810   53.4460   -6.3860 C   0  0  0  0  0  0  0  0  0  0  0  0
   29.9220   53.6050   -4.0990 N   0  0  0  0  0  0  0  0  0  0  0  0
   29.9820   52.2480   -4.0710 C   0  0  0  0  0  0  0  0  0  0  0  0
   29.2520   52.0520   -6.3280 C   0  0  0  0  0  0  0  0  0  0  0  0
   29.6630   51.4330   -5.1470 C   0  0  0  0  0  0  0  0  0  0  0  0
   29.7600   49.9370   -5.0440 C   0  0  0  0  0  0  0  0  0  0  0  0
   30.4390   49.4380   -4.0590 N   0  0  0  0  0  0  0  0  0  0  0  0
   29.1270   49.2090   -6.0220 N   0  0  0  0  0  0  0  0  0  0  0  0
   30.5820   47.9650   -3.9320 C   0  0  0  0  0  0  0  0  0  0  0  0
   31.8880   47.5080   -3.2280 C   0  0  0  0  0  0  0  0  0  0  0  0
   33.1320   47.8240   -3.9730 N   0  0  0  0  0  0  0  0  0  0  0  0
   34.0650   46.7250   -4.5050 S   0  0  2  0  0  0  0  0  0  0  0  0
   34.4470   46.4850   -5.8760 O   0  0  0  0  0  0  0  0  0  0  0  0
   33.4890   45.2570   -3.9360 N   0  0  0  0  0  0  0  0  0  0  0  0
   35.5140   46.6770   -3.5410 C   0  0  0  0  0  0  0  0  0  0  0  0
   34.4270   44.5680   -3.2150 C   0  0  0  0  0  0  0  0  0  0  0  0
   35.5820   45.4470   -2.8980 C   0  0  0  0  0  0  0  0  0  0  0  0
   36.4750   47.6590   -3.3960 C   0  0  0  0  0  0  0  0  0  0  0  0
   34.3570   43.4000   -2.8660 O   0  0  0  0  0  0  0  0  0  0  0  0
   37.5570   47.3700   -2.5560 C   0  0  0  0  0  0  0  0  0  0  0  0
   36.6530   45.1520   -2.0630 C   0  0  0  0  0  0  0  0  0  0  0  0
   37.6450   46.1290   -1.8970 C   0  0  0  0  0  0  0  0  0  0  0  0
  1  2  1  0
  2  3  2  0
  2  4  1  0
  4  5  2  0
  3  6  1  0
  5  7  1  0
  6  7  2  0
  7  8  1  0
  8  9  2  3
  8 10  1  0
  9 11  1  0
 11 12  1  0
 12 13  1  0
 13 14  2  0
 14 15  2  0
 14 16  1  1
 14 17  1  0
 16 18  1  0
 17 19  2  0
 18 19  1  0
 17 20  1  0
 18 21  2  0
 20 22  2  0
 19 23  1  0
 22 24  1  0
 23 24  2  0
M  END
