mac-x0360-mac-x0206
     RDKit          3D

 20 21  0  0  0  0  0  0  0  0999 V2000
   32.0020   55.0230   -7.2180 Cl  0  0  0  0  0  0  0  0  0  0  0  0
   32.2010   53.4010   -6.5380 C   0  0  0  0  0  0  0  0  0  0  0  0
   33.4420   53.0150   -6.1950 C   0  0  0  0  0  0  0  0  0  0  0  0
   31.1590   52.5430   -6.3480 C   0  0  0  0  0  0  0  0  0  0  0  0
   31.2710   51.2670   -5.8100 C   0  0  0  0  0  0  0  0  0  0  0  0
   33.6810   51.7830   -5.6600 C   0  0  0  0  0  0  0  0  0  0  0  0
   35.3090   51.2780   -5.2150 Cl  0  0  0  0  0  0  0  0  0  0  0  0
   29.9780   50.1230   -5.5170 S   0  0  0  0  0  0  0  0  0  0  0  0
   32.6050   50.9570   -5.4850 C   0  0  0  0  0  0  0  0  0  0  0  0
   30.7600   48.9080   -5.2620 N   0  0  0  0  0  0  0  0  0  0  0  0
   29.2280   51.2190   -4.5090 C   0  0  0  0  0  0  0  0  0  0  0  0
   29.4760   50.5830   -7.2570 O   0  0  0  0  0  0  0  0  0  0  0  0
   28.8240   50.8540   -3.3790 O   0  0  0  0  0  0  0  0  0  0  0  0
   29.1020   52.5720   -4.9200 C   0  0  0  0  0  0  0  0  0  0  0  0
   29.6060   53.5750   -4.1370 C   0  0  0  0  0  0  0  0  0  0  0  0
   28.4840   52.8860   -6.1140 C   0  0  0  0  0  0  0  0  0  0  0  0
   30.2140   53.2260   -2.9540 O   0  0  0  0  0  0  0  0  0  0  0  0
   29.5070   54.9040   -4.5290 C   0  0  0  0  0  0  0  0  0  0  0  0
   28.3660   54.1990   -6.5370 C   0  0  0  0  0  0  0  0  0  0  0  0
   28.8840   55.1900   -5.7320 C   0  0  0  0  0  0  0  0  0  0  0  0
  1  2  1  0
  2  3  2  0
  2  4  1  0
  4  5  2  0
  3  6  1  0
  6  7  1  0
  5  8  1  0
  5  9  1  0
  6  9  2  0
  8 10  1  0
  8 11  1  0
  8 12  2  0
 11 13  2  0
 11 14  1  0
 14 15  2  0
 14 16  1  0
 15 17  1  0
 15 18  1  0
 16 19  2  0
 18 20  2  0
 19 20  1  0
M  END
