mac-x0451-mac-x0319
     RDKit          3D

 23 25  0  0  0  0  0  0  0  0999 V2000
   28.7020   53.9660   -7.9690 N   0  0  0  0  0  0  0  0  0  0  0  0
   29.0160   52.8050   -7.3670 C   0  0  0  0  0  0  0  0  0  0  0  0
   29.3390   52.7240   -6.1010 N   0  0  0  0  0  0  0  0  0  0  0  0
   29.0140   51.3210   -8.2280 S   0  0  0  0  0  0  0  0  0  0  0  0
   29.6110   51.4050   -5.7610 C   0  0  0  0  0  0  0  0  0  0  0  0
   29.4880   50.4790   -6.8000 C   0  0  0  0  0  0  0  0  0  0  0  0
   29.9920   50.9470   -4.4830 C   0  0  0  0  0  0  0  0  0  0  0  0
   29.7340   49.1060   -6.6120 C   0  0  0  0  0  0  0  0  0  0  0  0
   30.2380   49.5860   -4.2810 C   0  0  0  0  0  0  0  0  0  0  0  0
   30.1120   48.6780   -5.3330 C   0  0  0  0  0  0  0  0  0  0  0  0
   30.3550   47.3330   -5.1340 O   0  0  0  0  0  0  0  0  0  0  0  0
   30.6150   46.5460   -6.3330 C   0  0  0  0  0  0  0  0  0  0  0  0
   31.9850   46.5330   -6.8760 N   0  0  0  0  0  0  0  0  0  0  0  0
   32.9440   45.8400   -6.3490 C   0  0  0  0  0  0  0  0  0  0  0  0
   34.1850   45.8550   -6.8690 O   0  0  0  0  0  0  0  0  0  0  0  0
   32.7910   44.9580   -5.1260 C   0  0  0  0  0  0  0  0  0  0  0  0
   31.6520   45.3320   -4.2160 C   0  0  0  0  0  0  0  0  0  0  0  0
   30.5290   44.4970   -4.1300 C   0  0  0  0  0  0  0  0  0  0  0  0
   31.6980   46.5080   -3.4550 C   0  0  0  0  0  0  0  0  0  0  0  0
   29.4740   44.8380   -3.2970 C   0  0  0  0  0  0  0  0  0  0  0  0
   30.6320   46.8430   -2.6190 C   0  0  0  0  0  0  0  0  0  0  0  0
   28.3660   44.0510   -3.1890 O   0  0  0  0  0  0  0  0  0  0  0  0
   29.5190   46.0040   -2.5420 C   0  0  0  0  0  0  0  0  0  0  0  0
  1  2  1  0
  2  3  2  0
  2  4  1  0
  3  5  1  0
  4  6  1  0
  5  6  2  0
  5  7  1  0
  6  8  1  0
  7  9  2  0
  8 10  2  0
  9 10  1  0
 10 11  1  0
 11 12  1  0
 12 13  1  0
 13 14  2  3
 14 15  1  0
 14 16  1  0
 16 17  1  0
 17 18  2  0
 17 19  1  0
 18 20  1  0
 19 21  2  0
 20 22  1  0
 20 23  2  0
 21 23  1  0
M  END
