mac-x0223-mac-x0455
     RDKit          3D

 23 24  0  0  0  0  0  0  0  0999 V2000
   26.6400   43.4570   -1.7780 C   0  0  0  0  0  0  0  0  0  0  0  0
   26.9920   44.7880   -1.4260 O   0  0  0  0  0  0  0  0  0  0  0  0
   28.1980   45.3000   -1.8200 C   0  0  0  0  0  0  0  0  0  0  0  0
   28.8370   46.2480   -1.0630 C   0  0  0  0  0  0  0  0  0  0  0  0
   28.7780   44.8610   -2.9930 C   0  0  0  0  0  0  0  0  0  0  0  0
   28.2520   46.6960    0.1180 O   0  0  0  0  0  0  0  0  0  0  0  0
   30.0520   46.7410   -1.4900 C   0  0  0  0  0  0  0  0  0  0  0  0
   29.9650   45.3350   -3.4280 C   0  0  0  0  0  0  0  0  0  0  0  0
   30.6240   44.8820   -4.7100 C   0  0  0  0  0  0  0  0  0  0  0  0
   30.6150   46.3020   -2.6460 C   0  0  0  0  0  0  0  0  0  0  0  0
   31.3490   46.0490   -5.6080 S   0  0  0  0  0  0  0  0  0  0  0  0
   32.5290   45.2930   -5.8590 O   0  0  0  0  0  0  0  0  0  0  0  0
   31.1860   45.8980   -7.3800 O   0  0  0  0  0  0  0  0  0  0  0  0
   32.0550   47.3750   -5.0440 C   0  0  1  0  0  0  0  0  0  0  0  0
   29.9310   46.7490   -5.8790 O   0  0  0  0  0  0  0  0  0  0  0  0
   32.4530   48.2570   -6.2250 C   0  0  0  0  0  0  0  0  0  0  0  0
   31.2480   48.2720   -4.2780 O   0  0  0  0  0  0  0  0  0  0  0  0
   33.2430   47.2610   -4.1480 C   0  0  0  0  0  0  0  0  0  0  0  0
   33.9280   48.4030   -3.8160 C   0  0  0  0  0  0  0  0  0  0  0  0
   33.6930   46.0850   -3.6340 C   0  0  0  0  0  0  0  0  0  0  0  0
   35.0540   48.3850   -2.9830 C   0  0  0  0  0  0  0  0  0  0  0  0
   34.8010   46.0530   -2.8100 C   0  0  0  0  0  0  0  0  0  0  0  0
   35.5110   47.1940   -2.4630 C   0  0  0  0  0  0  0  0  0  0  0  0
  1  2  1  0
  2  3  1  0
  3  4  2  0
  3  5  1  0
  4  6  1  0
  4  7  1  0
  5  8  2  0
  8  9  1  0
  7 10  2  0
  8 10  1  0
  9 11  1  0
 11 12  2  0
 11 13  1  0
 11 14  1  0
 11 15  1  0
 14 16  1  6
 14 17  1  0
 14 18  1  0
 18 19  2  0
 18 20  1  0
 19 21  1  0
 20 22  2  0
 21 23  2  0
 22 23  1  0
M  END
