mac-x0132-mac-x0361
     RDKit          3D

 14 16  0  0  0  0  0  0  0  0999 V2000
   28.9290   52.7520   -6.6100 N   0  0  0  0  0  0  0  0  0  0  0  0
   29.1270   51.4100   -6.3420 C   0  0  0  0  0  0  0  0  0  0  0  0
   29.0570   50.4600   -7.0830 O   0  0  0  0  0  0  0  0  0  0  0  0
   29.1340   53.4760   -5.4450 C   0  0  0  0  0  0  0  0  0  0  0  0
   29.4490   52.6100   -4.4570 C   0  0  0  0  0  0  0  0  0  0  0  0
   29.0510   54.7870   -5.2710 N   0  0  0  0  0  0  0  0  0  0  0  0
   29.4660   51.3250   -4.9130 C   0  0  0  0  0  0  0  0  0  0  0  0
   29.7070   53.0360   -3.1800 C   0  0  0  0  0  0  0  0  0  0  0  0
   29.3130   55.1650   -4.0000 C   0  0  0  0  0  0  0  0  0  0  0  0
   29.7640   50.2940   -4.0560 C   0  0  0  0  0  0  0  0  0  0  0  0
   29.8010   48.9880   -4.4310 O   0  0  0  0  0  0  0  0  0  0  0  0
   29.6370   54.3640   -2.9400 N   0  0  0  0  0  0  0  0  0  0  0  0
   30.0140   51.9890   -2.2920 C   0  0  0  0  0  0  0  0  0  0  0  0
   30.0430   50.6320   -2.7260 C   0  0  0  0  0  0  0  0  0  0  0  0
  1  2  1  0
  2  3  2  0
  1  4  1  0
  4  5  1  0
  4  6  2  0
  2  7  1  0
  5  7  2  0
  5  8  1  0
  6  9  1  0
  7 10  1  0
 10 11  1  0
  8 12  1  0
  9 12  2  0
  8 13  2  0
 10 14  2  0
 13 14  1  0
M  END
