mac-x0361-mac-x0344
     RDKit          3D

 24 25  0  0  0  0  0  0  0  0999 V2000
   28.8010   53.6440   -6.1990 N   0  0  0  0  0  0  0  0  0  0  0  0
   29.4360   53.4040   -5.0120 C   0  0  0  0  0  0  0  0  0  0  0  0
   29.8280   54.3350   -4.3180 O   0  0  0  0  0  0  0  0  0  0  0  0
   29.6280   51.9850   -4.5960 C   0  0  0  0  0  0  0  0  0  0  0  0
   29.5810   50.9230   -5.5080 C   0  0  0  0  0  0  0  0  0  0  0  0
   29.8640   51.7140   -3.2450 C   0  0  0  0  0  0  0  0  0  0  0  0
   29.7680   49.6060   -5.0610 C   0  0  0  0  0  0  0  0  0  0  0  0
   30.0500   50.3980   -2.8020 C   0  0  0  0  0  0  0  0  0  0  0  0
   30.0030   49.3380   -3.7040 C   0  0  0  0  0  0  0  0  0  0  0  0
   30.1700   48.0150   -3.3700 O   0  0  0  0  0  0  0  0  0  0  0  0
   30.0230   46.9940   -4.3530 C   0  0  0  0  0  0  0  0  0  0  0  0
   31.2950   46.9040   -5.1920 C   0  0  0  0  0  0  0  0  0  0  0  0
   32.0660   45.5680   -5.2270 C   0  0  0  0  0  0  0  0  0  0  0  0
   31.5860   44.7040   -4.2020 O   0  0  0  0  0  0  0  0  0  0  0  0
   31.7990   44.9050   -6.4470 O   0  0  0  0  0  0  0  0  0  0  0  0
   33.6060   45.8250   -5.0690 C   0  0  0  0  0  0  0  0  0  0  0  0
   34.2510   46.1840   -6.0500 O   0  0  0  0  0  0  0  0  0  0  0  0
   34.1010   45.6300   -3.7910 N   0  0  0  0  0  0  0  0  0  0  0  0
   35.2210   46.2800   -3.2330 C   0  0  0  0  0  0  0  0  0  0  0  0
   36.1700   45.4960   -2.5630 C   0  0  0  0  0  0  0  0  0  0  0  0
   35.4260   47.6580   -3.3220 C   0  0  0  0  0  0  0  0  0  0  0  0
   37.3040   46.0830   -1.9940 C   0  0  0  0  0  0  0  0  0  0  0  0
   36.5600   48.2450   -2.7520 C   0  0  0  0  0  0  0  0  0  0  0  0
   37.4980   47.4590   -2.0880 C   0  0  0  0  0  0  0  0  0  0  0  0
  1  2  1  0
  2  3  2  0
  2  4  1  0
  4  5  2  0
  4  6  1  0
  5  7  1  0
  6  8  2  0
  7  9  2  0
  8  9  1  0
  9 10  1  0
 10 11  1  0
 11 12  1  0
 12 13  1  0
 13 14  1  0
 13 15  1  0
 13 16  1  0
 16 17  2  0
 16 18  1  0
 18 19  1  0
 19 20  2  0
 19 21  1  0
 20 22  1  0
 21 23  2  0
 22 24  2  0
 23 24  1  0
M  END
