mac-x0453-mac-x0277
     RDKit          3D

 22 23  0  0  0  0  0  0  0  0999 V2000
   29.3990   55.1180   -7.0800 N   0  0  0  0  0  0  0  0  0  0  0  0
   29.8830   53.9370   -6.3570 C   0  0  0  0  0  0  0  0  0  0  0  0
   28.7290   53.0380   -5.9070 C   0  0  0  0  0  0  0  0  0  0  0  0
   29.2160   51.7410   -5.3600 C   0  0  0  0  0  0  0  0  0  0  0  0
   29.2140   50.4990   -5.9480 C   0  0  0  0  0  0  0  0  0  0  0  0
   29.7610   51.6720   -4.1000 N   0  0  0  0  0  0  0  0  0  0  0  0
   29.7710   49.6630   -5.0220 N   0  0  0  0  0  0  0  0  0  0  0  0
   30.0900   50.4130   -3.9160 C   0  0  0  0  0  0  0  0  0  0  0  0
   30.7250   49.8220   -2.6990 C   0  0  0  0  0  0  0  0  0  0  0  0
   29.7080   49.1730   -1.7550 C   0  0  0  0  0  0  0  0  0  0  0  0
   30.1860   47.8820   -1.0750 C   0  0  0  0  0  0  0  0  0  0  0  0
   30.0390   46.6460   -1.9360 C   0  0  0  0  0  0  0  0  0  0  0  0
   31.1190   46.2750   -2.7580 C   0  0  0  0  0  0  0  0  0  0  0  0
   28.8810   45.8570   -1.9560 C   0  0  0  0  0  0  0  0  0  0  0  0
   27.4990   46.2260   -0.9860 Cl  0  0  0  0  0  0  0  0  0  0  0  0
   31.0570   45.1420   -3.5860 C   0  0  0  0  0  0  0  0  0  0  0  0
   28.8110   44.7270   -2.7770 C   0  0  0  0  0  0  0  0  0  0  0  0
   32.2380   44.7700   -4.4540 C   0  0  0  0  0  0  0  0  0  0  0  0
   29.8900   44.3710   -3.5870 C   0  0  0  0  0  0  0  0  0  0  0  0
   32.3300   45.5420   -5.7500 C   0  0  0  0  0  0  0  0  0  0  0  0
   33.4630   46.2740   -5.8220 O   0  0  0  0  0  0  0  0  0  0  0  0
   31.5350   45.5650   -6.6750 O   0  0  0  0  0  0  0  0  0  0  0  0
  1  2  1  0
  2  3  1  0
  3  4  1  0
  4  5  2  0
  4  6  1  0
  5  7  1  0
  6  8  2  0
  7  8  1  0
  8  9  1  0
  9 10  1  0
 10 11  1  0
 11 12  1  0
 12 13  2  0
 12 14  1  0
 14 15  1  0
 13 16  1  0
 14 17  2  0
 16 18  1  0
 16 19  2  0
 17 19  1  0
 18 20  1  0
 20 21  1  0
 20 22  2  0
M  END
