mac-x0306-mac-x0417
     RDKit          3D

 27 30  0  0  0  0  0  0  0  0999 V2000
   31.9780   45.4070   -6.2060 O   0  0  0  0  0  0  0  0  0  0  0  0
   33.1910   45.4240   -5.5680 C   0  0  0  0  0  0  0  0  0  0  0  0
   34.2650   45.5350   -6.1460 O   0  0  0  0  0  0  0  0  0  0  0  0
   30.8520   45.9110   -5.4560 C   0  0  0  0  0  0  0  0  0  0  0  0
   33.0180   45.2840   -4.0730 C   0  0  0  0  0  0  0  0  0  0  0  0
   30.7950   47.4410   -5.4660 C   0  0  0  0  0  0  0  0  0  0  0  0
   30.1830   48.0670   -4.2020 C   0  0  0  0  0  0  0  0  0  0  0  0
   34.3130   45.0370   -3.3860 C   0  0  0  0  0  0  0  0  0  0  0  0
   29.7760   49.4730   -4.3750 N   0  0  0  0  0  0  0  0  0  0  0  0
   34.6280   43.7980   -2.9750 N   0  0  0  0  0  0  0  0  0  0  0  0
   35.3410   45.9630   -3.0710 C   0  0  0  0  0  0  0  0  0  0  0  0
   30.0960   50.4160   -3.3990 C   0  0  0  0  0  0  0  0  0  0  0  0
   29.4600   49.9730   -5.6370 C   0  0  0  0  0  0  0  0  0  0  0  0
   35.8770   43.9030   -2.3820 O   0  0  0  0  0  0  0  0  0  0  0  0
   36.3020   45.1920   -2.4400 C   0  0  0  0  0  0  0  0  0  0  0  0
   35.5790   47.3370   -3.2380 C   0  0  0  0  0  0  0  0  0  0  0  0
   29.7070   51.6980   -3.4750 C   0  0  0  0  0  0  0  0  0  0  0  0
   29.0380   51.2300   -5.8330 C   0  0  0  0  0  0  0  0  0  0  0  0
   37.5080   45.6870   -1.9510 C   0  0  0  0  0  0  0  0  0  0  0  0
   36.7830   47.8700   -2.7550 C   0  0  0  0  0  0  0  0  0  0  0  0
   28.8790   52.1740   -4.6560 C   0  0  0  0  0  0  0  0  0  0  0  0
   37.7310   47.0580   -2.1250 C   0  0  0  0  0  0  0  0  0  0  0  0
   29.1250   53.6220   -5.0060 C   0  0  0  0  0  0  0  0  0  0  0  0
   28.7710   54.1300   -6.2360 N   0  0  0  0  0  0  0  0  0  0  0  0
   29.6680   54.5600   -4.2550 N   0  0  0  0  0  0  0  0  0  0  0  0
   29.6600   55.6960   -5.0210 C   0  0  0  0  0  0  0  0  0  0  0  0
   29.1060   55.4520   -6.2550 C   0  0  0  0  0  0  0  0  0  0  0  0
  1  2  1  0
  2  3  2  0
  1  4  1  0
  2  5  1  0
  4  6  1  0
  6  7  1  0
  5  8  1  0
  7  9  1  0
  8 10  2  0
  8 11  1  0
  9 12  1  0
  9 13  1  0
 10 14  1  0
 11 15  2  0
 14 15  1  0
 11 16  1  0
 12 17  2  0
 13 18  2  0
 15 19  1  0
 16 20  2  0
 17 21  1  0
 18 21  1  0
 19 22  2  0
 20 22  1  0
 21 23  1  0
 23 24  1  0
 23 25  2  0
 25 26  1  0
 24 27  1  0
 26 27  2  0
M  END
