mac-x0224-mac-x0231
     RDKit          3D

 26 28  0  0  0  0  0  0  0  0999 V2000
   28.0830   52.3870   -6.5250 C   0  0  0  0  0  0  0  0  0  0  0  0
   27.5300   50.6650   -6.3810 S   0  0  0  0  0  0  0  0  0  0  0  0
   28.9180   49.9660   -5.5110 C   0  0  0  0  0  0  0  0  0  0  0  0
   29.5350   48.8140   -6.0260 C   0  0  0  0  0  0  0  0  0  0  0  0
   29.4030   50.5420   -4.3320 C   0  0  0  0  0  0  0  0  0  0  0  0
   30.6320   48.2380   -5.3710 C   0  0  0  0  0  0  0  0  0  0  0  0
   30.4930   49.9790   -3.6720 C   0  0  0  0  0  0  0  0  0  0  0  0
   31.2950   47.0170   -5.9050 C   0  0  0  0  0  0  0  0  0  0  0  0
   31.1030   48.8370   -4.1880 C   0  0  0  0  0  0  0  0  0  0  0  0
   32.1670   48.3620   -3.4760 O   0  0  0  0  0  0  0  0  0  0  0  0
   32.3480   46.5270   -5.3540 N   0  0  0  0  0  0  0  0  0  0  0  0
   30.7220   46.4600   -6.9890 O   0  0  0  0  0  0  0  0  0  0  0  0
   32.9880   45.3190   -5.8860 C   0  0  2  0  0  0  0  0  0  0  0  0
   32.8910   45.0660   -7.2780 O   0  0  0  0  0  0  0  0  0  0  0  0
   32.6490   44.0680   -5.0620 C   0  0  0  0  0  0  0  0  0  0  0  0
   31.4290   44.2280   -4.1540 C   0  0  0  0  0  0  0  0  0  0  0  0
   31.4160   45.2310   -3.0490 C   0  0  0  0  0  0  0  0  0  0  0  0
   30.4150   43.4440   -4.3960 N   0  0  0  0  0  0  0  0  0  0  0  0
   30.2180   45.3870   -2.3480 C   0  0  0  0  0  0  0  0  0  0  0  0
   29.3090   43.5510   -3.6140 N   0  0  0  0  0  0  0  0  0  0  0  0
   32.5210   46.0100   -2.6860 C   0  0  0  0  0  0  0  0  0  0  0  0
   29.0550   44.5660   -2.7270 C   0  0  0  0  0  0  0  0  0  0  0  0
   30.1160   46.3080   -1.2960 C   0  0  0  0  0  0  0  0  0  0  0  0
   32.4200   46.9300   -1.6340 C   0  0  0  0  0  0  0  0  0  0  0  0
   27.9380   44.7840   -2.2670 O   0  0  0  0  0  0  0  0  0  0  0  0
   31.2210   47.0810   -0.9410 C   0  0  0  0  0  0  0  0  0  0  0  0
  1  2  1  0
  2  3  1  0
  3  4  2  0
  3  5  1  0
  4  6  1  0
  5  7  2  0
  6  8  1  0
  6  9  2  0
  7  9  1  0
  9 10  1  0
  8 11  2  3
  8 12  1  0
 11 13  1  0
 13 14  1  6
 13 15  1  0
 15 16  1  0
 16 17  1  0
 16 18  2  0
 17 19  2  0
 18 20  1  0
 17 21  1  0
 19 22  1  0
 20 22  1  0
 19 23  1  0
 21 24  2  0
 22 25  2  0
 23 26  2  0
 24 26  1  0
M  END
