mac-x0392-mac-x0417
     RDKit          3D

 24 26  0  0  0  0  0  0  0  0999 V2000
   29.2140   47.4410   -7.9840 N   0  0  0  0  0  0  0  0  0  0  0  0
   29.2080   48.6080   -7.1910 C   0  0  0  0  0  0  0  0  0  0  0  0
   28.9340   49.8430   -7.7820 C   0  0  0  0  0  0  0  0  0  0  0  0
   29.4640   48.6200   -5.8100 C   0  0  0  0  0  0  0  0  0  0  0  0
   29.7650   47.3480   -5.0840 C   0  0  0  0  0  0  0  0  0  0  0  0
   29.4350   49.8380   -5.1060 C   0  0  0  0  0  0  0  0  0  0  0  0
   28.9000   51.0300   -7.1280 N   0  0  0  0  0  0  0  0  0  0  0  0
   29.7770   47.2470   -3.8650 O   0  0  0  0  0  0  0  0  0  0  0  0
   30.0220   46.3420   -5.9570 O   0  0  0  0  0  0  0  0  0  0  0  0
   29.1500   50.9970   -5.8070 C   0  0  0  0  0  0  0  0  0  0  0  0
   31.0010   45.3900   -5.5260 C   0  0  0  0  0  0  0  0  0  0  0  0
   32.2980   45.7530   -6.0130 O   0  0  0  0  0  0  0  0  0  0  0  0
   33.3340   45.0670   -5.4560 C   0  0  0  0  0  0  0  0  0  0  0  0
   34.2380   44.5300   -6.0860 O   0  0  0  0  0  0  0  0  0  0  0  0
   33.2140   45.0600   -3.9490 C   0  0  0  0  0  0  0  0  0  0  0  0
   34.5430   44.8970   -3.3090 C   0  0  0  0  0  0  0  0  0  0  0  0
   34.9700   43.6790   -2.9430 N   0  0  0  0  0  0  0  0  0  0  0  0
   35.5050   45.8960   -2.9990 C   0  0  0  0  0  0  0  0  0  0  0  0
   36.2240   43.8670   -2.3840 O   0  0  0  0  0  0  0  0  0  0  0  0
   36.5440   45.1900   -2.4180 C   0  0  0  0  0  0  0  0  0  0  0  0
   35.6330   47.2920   -3.1320 C   0  0  0  0  0  0  0  0  0  0  0  0
   37.7220   45.7630   -1.9470 C   0  0  0  0  0  0  0  0  0  0  0  0
   36.8050   47.9040   -2.6680 C   0  0  0  0  0  0  0  0  0  0  0  0
   37.8320   47.1520   -2.0850 C   0  0  0  0  0  0  0  0  0  0  0  0
  1  2  1  0
  2  3  2  0
  2  4  1  0
  4  5  1  0
  4  6  2  0
  3  7  1  0
  5  8  2  0
  5  9  1  0
  6 10  1  0
  7 10  2  0
  9 11  1  0
 11 12  1  0
 12 13  1  0
 13 14  2  0
 13 15  1  0
 15 16  1  0
 16 17  2  0
 16 18  1  0
 17 19  1  0
 18 20  2  0
 19 20  1  0
 18 21  1  0
 20 22  1  0
 21 23  2  0
 22 24  2  0
 23 24  1  0
M  END
