mac-x0496-mac-x0284
     RDKit          3D

 30 32  0  0  0  0  0  0  0  0999 V2000
   24.2630   58.6860   -6.2730 C   0  0  0  0  0  0  0  0  0  0  0  0
   25.5850   58.5760   -5.6300 C   0  0  0  0  0  0  0  0  0  0  0  0
   25.8300   59.0660   -4.4090 N   0  0  0  0  0  0  0  0  0  0  0  0
   26.6540   57.9660   -6.2380 N   0  0  0  0  0  0  0  0  0  0  0  0
   27.1740   58.7480   -4.2000 O   0  0  0  0  0  0  0  0  0  0  0  0
   27.5940   58.0990   -5.3230 C   0  0  0  0  0  0  0  0  0  0  0  0
   29.0090   57.6530   -5.3450 C   0  0  0  0  0  0  0  0  0  0  0  0
   29.0680   56.2430   -5.6810 N   0  0  0  0  0  0  0  0  0  0  0  0
   29.4910   55.3220   -4.7550 C   0  0  0  0  0  0  0  0  0  0  0  0
   30.1050   55.6350   -3.7390 O   0  0  0  0  0  0  0  0  0  0  0  0
   29.1780   53.8920   -5.0280 C   0  0  0  0  0  0  0  0  0  0  0  0
   29.3430   53.3180   -6.2920 C   0  0  0  0  0  0  0  0  0  0  0  0
   28.7040   53.1090   -3.9670 C   0  0  0  0  0  0  0  0  0  0  0  0
   29.0400   51.9710   -6.4960 C   0  0  0  0  0  0  0  0  0  0  0  0
   28.3980   51.7590   -4.1730 C   0  0  0  0  0  0  0  0  0  0  0  0
   27.8990   50.9760   -3.0150 C   0  0  0  0  0  0  0  0  0  0  0  0
   28.5650   51.1720   -5.4420 C   0  0  0  0  0  0  0  0  0  0  0  0
   26.9910   50.1690   -3.0890 O   0  0  0  0  0  0  0  0  0  0  0  0
   28.5620   51.2670   -1.8750 O   0  0  0  0  0  0  0  0  0  0  0  0
   28.2580   49.7230   -5.7100 C   0  0  0  0  0  0  0  0  0  0  0  0
   29.3400   48.8340   -5.1460 C   0  0  0  0  0  0  0  0  0  0  0  0
   29.4060   47.4760   -5.4860 C   0  0  0  0  0  0  0  0  0  0  0  0
   30.2970   49.3680   -4.2690 C   0  0  0  0  0  0  0  0  0  0  0  0
   30.4140   46.6590   -4.9570 C   0  0  0  0  0  0  0  0  0  0  0  0
   31.3010   48.5610   -3.7400 C   0  0  0  0  0  0  0  0  0  0  0  0
   30.4940   45.2260   -5.3080 C   0  0  0  0  0  0  0  0  0  0  0  0
   31.3590   47.2120   -4.0810 C   0  0  0  0  0  0  0  0  0  0  0  0
   32.3780   46.4970   -3.5110 O   0  0  0  0  0  0  0  0  0  0  0  0
   30.2480   44.7820   -6.4180 O   0  0  0  0  0  0  0  0  0  0  0  0
   30.8660   44.4370   -4.2900 O   0  0  0  0  0  0  0  0  0  0  0  0
  1  2  1  0
  2  3  2  0
  2  4  1  0
  3  5  1  0
  4  6  2  0
  5  6  1  0
  6  7  1  0
  7  8  1  0
  8  9  1  0
  9 10  2  0
  9 11  1  0
 11 12  2  0
 11 13  1  0
 12 14  1  0
 13 15  2  0
 15 16  1  0
 14 17  2  0
 15 17  1  0
 16 18  2  0
 16 19  1  0
 17 20  1  0
 20 21  1  0
 21 22  2  0
 21 23  1  0
 22 24  1  0
 23 25  2  0
 24 26  1  0
 24 27  2  0
 25 27  1  0
 27 28  1  0
 26 29  2  0
 26 30  1  0
M  END
