mac-x0451-mac-x0139
     RDKit          3D

 22 25  0  0  0  0  0  0  0  0999 V2000
   29.2700   53.8900   -8.2100 N   0  0  0  0  0  0  0  0  0  0  0  0
   29.3720   52.7420   -7.5120 C   0  0  0  0  0  0  0  0  0  0  0  0
   29.8050   52.6920   -6.2760 N   0  0  0  0  0  0  0  0  0  0  0  0
   28.9240   51.2250   -8.2020 S   0  0  0  0  0  0  0  0  0  0  0  0
   29.7740   51.3900   -5.8480 C   0  0  0  0  0  0  0  0  0  0  0  0
   29.3180   50.4340   -6.7350 C   0  0  0  0  0  0  0  0  0  0  0  0
   30.1810   51.0400   -4.5410 C   0  0  0  0  0  0  0  0  0  0  0  0
   29.1590   48.9340   -6.4260 C   0  0  2  0  0  0  0  0  0  0  0  0
   29.9280   49.8130   -4.0620 C   0  0  0  0  0  0  0  0  0  0  0  0
   29.2030   48.7600   -4.8740 C   0  0  2  0  0  0  0  0  0  0  0  0
   30.0570   47.7610   -6.8660 C   0  0  1  0  0  0  0  0  0  0  0  0
   27.8030   48.6240   -7.0600 C   0  0  0  0  0  0  0  0  0  0  0  0
   29.8920   47.5240   -4.6060 O   0  0  0  0  0  0  0  0  0  0  0  0
   29.7500   46.7660   -5.8260 N   0  0  0  0  0  0  0  0  0  0  0  0
   27.8080   48.4530   -8.5170 N   0  0  0  0  0  0  0  0  0  0  0  0
   29.6760   47.0610   -8.0920 N   0  0  0  0  0  0  0  0  0  0  0  0
   30.5330   45.5180   -5.6970 C   0  0  0  0  0  0  0  0  0  0  0  0
   28.9950   47.8530   -9.0740 C   0  0  0  0  0  0  0  0  0  0  0  0
   32.0470   45.6760   -5.7510 C   0  0  0  0  0  0  0  0  0  0  0  0
   32.6710   45.0790   -6.9720 C   0  0  0  0  0  0  0  0  0  0  0  0
   32.0760   44.5980   -7.9180 O   0  0  0  0  0  0  0  0  0  0  0  0
   34.0160   45.1130   -6.9630 O   0  0  0  0  0  0  0  0  0  0  0  0
  1  2  1  0
  2  3  2  0
  2  4  1  0
  3  5  1  0
  4  6  1  0
  5  6  2  0
  5  7  1  0
  6  8  1  0
  7  9  2  0
  8 10  1  0
 10  9  1  1
  8 11  1  0
  8 12  1  6
 10 13  1  0
 11 14  1  0
 13 14  1  0
 12 15  1  0
 11 16  1  6
 14 17  1  0
 15 18  1  0
 16 18  1  0
 17 19  1  0
 19 20  1  0
 20 21  2  0
 20 22  1  0
M  END
