mac-x0546-mac-x0392
     RDKit          3D

 26 28  0  0  0  0  0  0  0  0999 V2000
   31.2510   48.9210   -0.4890 C   0  0  0  0  0  0  0  0  0  0  0  0
   30.0520   48.1970   -0.7310 O   0  0  0  0  0  0  0  0  0  0  0  0
   30.1590   46.8740   -1.0880 C   0  0  0  0  0  0  0  0  0  0  0  0
   31.0560   46.3190   -1.9390 C   0  0  0  0  0  0  0  0  0  0  0  0
   29.1590   46.0350   -0.4320 C   0  0  0  0  0  0  0  0  0  0  0  0
   31.0120   44.8450   -2.1950 C   0  0  1  0  0  0  0  0  0  0  0  0
   28.8190   44.8220   -0.8960 C   0  0  0  0  0  0  0  0  0  0  0  0
   29.5480   44.4380   -2.1090 C   0  0  0  0  0  0  0  0  0  0  0  0
   31.2430   44.2690   -3.5640 C   0  0  0  0  0  0  0  0  0  0  0  0
   32.5400   44.3160   -4.3020 C   0  0  0  0  0  0  0  0  0  0  0  0
   29.0570   43.7940   -3.1200 N   0  0  0  0  0  0  0  0  0  0  0  0
   30.1060   43.7040   -3.9950 C   0  0  0  0  0  0  0  0  0  0  0  0
   33.0600   45.7070   -4.5930 C   0  0  0  0  0  0  0  0  0  0  0  0
   32.5990   46.6750   -5.2930 N   0  0  0  0  0  0  0  0  0  0  0  0
   34.2400   45.9470   -3.9920 O   0  0  0  0  0  0  0  0  0  0  0  0
   31.3210   46.5130   -5.9860 C   0  0  0  0  0  0  0  0  0  0  0  0
   31.0740   47.3800   -7.1020 O   0  0  0  0  0  0  0  0  0  0  0  0
   31.1560   48.7130   -6.8700 C   0  0  0  0  0  0  0  0  0  0  0  0
   32.1710   49.3460   -6.6130 O   0  0  0  0  0  0  0  0  0  0  0  0
   29.8090   49.3450   -6.9680 C   0  0  0  0  0  0  0  0  0  0  0  0
   28.9330   48.9790   -8.0070 C   0  0  0  0  0  0  0  0  0  0  0  0
   29.4140   50.3050   -6.0260 C   0  0  0  0  0  0  0  0  0  0  0  0
   29.2500   48.0270   -8.9930 N   0  0  0  0  0  0  0  0  0  0  0  0
   28.1570   50.8710   -6.1480 C   0  0  0  0  0  0  0  0  0  0  0  0
   27.6940   49.6210   -8.0200 C   0  0  0  0  0  0  0  0  0  0  0  0
   27.2860   50.5520   -7.1240 N   0  0  0  0  0  0  0  0  0  0  0  0
  1  2  1  0
  2  3  1  0
  3  4  2  0
  3  5  1  0
  6  4  1  6
  5  7  2  0
  6  8  1  0
  7  8  1  0
  6  9  1  0
  9 10  1  0
  8 11  2  0
  9 12  2  0
 11 12  1  0
 10 13  1  0
 13 14  2  3
 13 15  1  0
 14 16  1  0
 16 17  1  0
 17 18  1  0
 18 19  2  0
 18 20  1  0
 20 21  2  0
 20 22  1  0
 21 23  1  0
 22 24  2  0
 21 25  1  0
 24 26  1  0
 25 26  2  0
M  END
