mac-x0555-mac-x0284
     RDKit          3D

 15 16  0  0  0  0  0  0  0  0999 V2000
   28.9370   55.2090   -6.6410 N   0  0  0  0  0  0  0  0  0  0  0  0
   29.2160   54.1550   -5.7620 C   0  0  0  0  0  0  0  0  0  0  0  0
   29.5200   54.3710   -4.4220 C   0  0  0  0  0  0  0  0  0  0  0  0
   29.2040   52.8180   -6.1840 C   0  0  0  0  0  0  0  0  0  0  0  0
   29.4960   51.7610   -5.2830 C   0  0  0  0  0  0  0  0  0  0  0  0
   29.8000   53.3940   -3.5230 N   0  0  0  0  0  0  0  0  0  0  0  0
   29.7900   52.1130   -3.9500 C   0  0  0  0  0  0  0  0  0  0  0  0
   29.5060   50.3860   -5.6790 C   0  0  0  0  0  0  0  0  0  0  0  0
   30.0840   51.0840   -3.0510 C   0  0  0  0  0  0  0  0  0  0  0  0
   29.8170   49.3400   -4.7590 C   0  0  0  0  0  0  0  0  0  0  0  0
   29.8430   47.8730   -5.2180 C   0  0  0  0  0  0  0  0  0  0  0  0
   30.1020   49.7250   -3.4420 C   0  0  0  0  0  0  0  0  0  0  0  0
   30.4130   48.7330   -2.5250 O   0  0  0  0  0  0  0  0  0  0  0  0
   29.4690   47.4970   -6.3240 O   0  0  0  0  0  0  0  0  0  0  0  0
   30.3260   46.9680   -4.3270 O   0  0  0  0  0  0  0  0  0  0  0  0
  1  2  1  0
  2  3  2  0
  2  4  1  0
  4  5  2  0
  3  6  1  0
  5  7  1  0
  6  7  2  0
  5  8  1  0
  7  9  1  0
  8 10  2  0
 10 11  1  0
  9 12  2  0
 10 12  1  0
 12 13  1  0
 11 14  2  0
 11 15  1  0
M  END
