mac-x0472-mac-x0188
     RDKit          3D

 30 33  0  0  0  0  0  0  0  0999 V2000
   32.8160   48.7880   -6.4730 O   0  0  0  0  0  0  0  0  0  0  0  0
   32.3970   49.5030   -5.2840 S   0  0  2  0  0  0  0  0  0  0  0  0
   32.3510   48.9410   -3.8410 N   0  0  0  0  0  0  0  0  0  0  0  0
   30.7720   49.8770   -5.5270 N   0  0  0  0  0  0  0  0  0  0  0  0
   33.3250   51.0120   -5.1840 C   0  0  0  0  0  0  0  0  0  0  0  0
   30.3440   50.6580   -6.5520 C   0  0  0  0  0  0  0  0  0  0  0  0
   34.6750   51.0160   -5.5550 C   0  0  0  0  0  0  0  0  0  0  0  0
   32.7000   52.1840   -4.7350 C   0  0  0  0  0  0  0  0  0  0  0  0
   31.5900   47.7020   -3.5150 N   0  0  0  0  0  0  0  0  0  0  0  0
   30.6830   50.4090   -7.8150 N   0  0  0  0  0  0  0  0  0  0  0  0
   29.3220   52.0530   -6.3950 S   0  0  0  0  0  0  0  0  0  0  0  0
   35.4090   52.2010   -5.4770 C   0  0  0  0  0  0  0  0  0  0  0  0
   33.4400   53.3670   -4.6600 C   0  0  0  0  0  0  0  0  0  0  0  0
   32.4250   46.5320   -3.8030 O   0  0  0  0  0  0  0  0  0  0  0  0
   30.3200   47.3970   -4.2190 C   0  0  1  0  0  0  0  0  0  0  0  0
   29.4160   52.2230   -8.1040 C   0  0  0  0  0  0  0  0  0  0  0  0
   30.1470   51.3120   -8.7160 N   0  0  0  0  0  0  0  0  0  0  0  0
   34.7940   53.3730   -5.0320 C   0  0  0  0  0  0  0  0  0  0  0  0
   31.5510   45.4060   -3.9760 C   0  0  2  0  0  0  0  0  0  0  0  0
   30.1230   45.9300   -3.8490 C   0  0  2  0  0  0  0  0  0  0  0  0
   29.1890   48.3760   -3.9180 C   0  0  0  0  0  0  0  0  0  0  0  0
   31.8950   44.3480   -2.9430 C   0  0  0  0  0  0  0  0  0  0  0  0
   29.2020   45.2150   -4.7990 C   0  0  0  0  0  0  0  0  0  0  0  0
   29.1230   49.1440   -2.7410 C   0  0  0  0  0  0  0  0  0  0  0  0
   28.1520   48.5250   -4.8610 C   0  0  0  0  0  0  0  0  0  0  0  0
   28.0270   44.9470   -4.5620 O   0  0  0  0  0  0  0  0  0  0  0  0
   29.7810   44.8680   -5.9740 O   0  0  0  0  0  0  0  0  0  0  0  0
   28.0600   50.0280   -2.5180 C   0  0  0  0  0  0  0  0  0  0  0  0
   27.0910   49.4070   -4.6370 C   0  0  0  0  0  0  0  0  0  0  0  0
   27.0460   50.1580   -3.4660 C   0  0  0  0  0  0  0  0  0  0  0  0
  1  2  2  0
  2  3  2  0
  2  4  1  6
  2  5  1  0
  4  6  1  0
  5  7  2  0
  5  8  1  0
  3  9  1  0
  6 10  2  0
  6 11  1  0
  7 12  1  0
  8 13  2  0
  9 14  1  0
  9 15  1  0
 11 16  1  0
 10 17  1  0
 16 17  2  0
 12 18  2  0
 13 18  1  0
 14 19  1  0
 15 20  1  0
 19 20  1  0
 15 21  1  1
 19 22  1  1
 20 23  1  6
 21 24  2  0
 21 25  1  0
 23 26  2  0
 23 27  1  0
 24 28  1  0
 25 29  2  0
 28 30  2  0
 29 30  1  0
M  END
