mac-x0365-mac-x0131
     RDKit          3D

 27 30  0  0  0  0  0  0  0  0999 V2000
   32.2200   49.0470   -7.8110 O   0  0  0  0  0  0  0  0  0  0  0  0
   32.9070   49.9760   -6.9580 C   0  0  1  0  0  0  0  0  0  0  0  0
   31.9330   50.8320   -6.1700 C   0  0  0  0  0  0  0  0  0  0  0  0
   33.9590   49.2500   -6.0920 C   0  0  0  0  0  0  0  0  0  0  0  0
   31.0940   50.2610   -5.2150 C   0  0  0  0  0  0  0  0  0  0  0  0
   31.8500   52.2190   -6.3820 C   0  0  0  0  0  0  0  0  0  0  0  0
   33.5450   47.9300   -5.5340 C   0  0  0  0  0  0  0  0  0  0  0  0
   30.1920   51.0240   -4.4810 C   0  0  0  0  0  0  0  0  0  0  0  0
   30.9480   53.0030   -5.6490 C   0  0  0  0  0  0  0  0  0  0  0  0
   32.8500   46.8370   -6.0120 C   0  0  0  0  0  0  0  0  0  0  0  0
   33.9240   47.7000   -4.2380 O   0  0  0  0  0  0  0  0  0  0  0  0
   29.3770   50.4500   -3.5590 O   0  0  0  0  0  0  0  0  0  0  0  0
   30.1220   52.4050   -4.7010 C   0  0  0  0  0  0  0  0  0  0  0  0
   33.4710   46.4690   -3.9010 C   0  0  0  0  0  0  0  0  0  0  0  0
   32.8030   45.8940   -4.9580 C   0  0  0  0  0  0  0  0  0  0  0  0
   29.2360   53.1680   -3.9810 O   0  0  0  0  0  0  0  0  0  0  0  0
   29.4780   49.0250   -3.5570 C   0  0  1  0  0  0  0  0  0  0  0  0
   28.6140   48.3570   -2.4490 C   0  0  1  0  0  0  0  0  0  0  0  0
   28.9310   48.3760   -4.8540 C   0  0  1  0  0  0  0  0  0  0  0  0
   27.5660   49.2560   -1.8130 C   0  0  0  0  0  0  0  0  0  0  0  0
   27.6940   47.6270   -4.4300 C   0  0  2  0  0  0  0  0  0  0  0  0
   27.9720   47.1910   -3.0840 N   0  0  0  0  0  0  0  0  0  0  0  0
   28.4920   49.1150   -6.0990 C   0  0  2  0  0  0  0  0  0  0  0  0
   27.6390   50.2580   -5.8730 N   0  0  0  0  0  0  0  0  0  0  0  0
   27.7340   48.2720   -6.9960 N   0  0  0  0  0  0  0  0  0  0  0  0
   27.3700   46.5310   -5.3120 N   0  0  0  0  0  0  0  0  0  0  0  0
   27.7960   46.8360   -6.6770 C   0  0  0  0  0  0  0  0  0  0  0  0
  2  1  1  1
  2  3  1  0
  2  4  1  0
  3  5  2  0
  3  6  1  0
  4  7  1  0
  5  8  1  0
  6  9  2  0
  7 10  2  0
  7 11  1  0
  8 12  1  0
  8 13  2  0
  9 13  1  0
 11 14  1  0
 10 15  1  0
 14 15  2  0
 13 16  1  0
 17 12  1  6
 17 18  1  0
 17 19  1  0
 18 20  1  6
 19 21  1  0
 18 22  1  0
 21 22  1  1
 19 23  1  6
 23 24  1  1
 23 25  1  0
 21 26  1  0
 25 27  1  0
 26 27  1  0
M  END
