mac-x0415-mac-x0178
     RDKit          3D

 18 19  0  0  0  0  0  0  0  0999 V2000
   33.2710   46.3080   -6.0070 O   0  0  0  0  0  0  0  0  0  0  0  0
   32.0520   45.7610   -5.7850 C   0  0  0  0  0  0  0  0  0  0  0  0
   31.1310   46.0170   -6.5440 O   0  0  0  0  0  0  0  0  0  0  0  0
   32.0550   44.8690   -4.5620 C   0  0  0  0  0  0  0  0  0  0  0  0
   31.0100   45.2110   -3.5340 C   0  0  0  0  0  0  0  0  0  0  0  0
   29.9410   44.4130   -3.1470 C   0  0  0  0  0  0  0  0  0  0  0  0
   30.9170   46.4200   -2.7550 C   0  0  0  0  0  0  0  0  0  0  0  0
   29.2370   45.0990   -2.1840 N   0  0  0  0  0  0  0  0  0  0  0  0
   29.7950   46.3120   -1.9230 C   0  0  0  0  0  0  0  0  0  0  0  0
   31.6870   47.6010   -2.6780 C   0  0  0  0  0  0  0  0  0  0  0  0
   27.8400   44.5590   -1.3750 S   0  0  0  0  0  0  0  0  0  0  0  0
   29.4150   47.3260   -1.0300 C   0  0  0  0  0  0  0  0  0  0  0  0
   31.3050   48.6100   -1.7850 C   0  0  0  0  0  0  0  0  0  0  0  0
   32.3250   50.1950   -1.6660 Br  0  0  0  0  0  0  0  0  0  0  0  0
   27.7720   42.8760   -1.4140 N   0  0  0  0  0  0  0  0  0  0  0  0
   28.0210   44.9250    0.0140 O   0  0  0  0  0  0  0  0  0  0  0  0
   26.7110   45.0280   -2.1500 O   0  0  0  0  0  0  0  0  0  0  0  0
   30.1910   48.4770   -0.9770 C   0  0  0  0  0  0  0  0  0  0  0  0
  1  2  1  0
  2  3  2  0
  2  4  1  0
  4  5  1  0
  5  6  2  0
  5  7  1  0
  6  8  1  0
  7  9  2  0
  8  9  1  0
  7 10  1  0
  8 11  1  0
  9 12  1  0
 10 13  2  0
 13 14  1  0
 11 15  1  0
 11 16  2  0
 11 17  2  0
 12 18  2  0
 13 18  1  0
M  END
