mac-x0396-mac-x0231
     RDKit          3D

 25 27  0  0  0  0  0  0  0  0999 V2000
   27.3750   51.2850   -6.0820 N   0  0  0  0  0  0  0  0  0  0  0  0
   28.3480   51.0840   -5.1270 C   0  0  0  0  0  0  0  0  0  0  0  0
   28.6140   49.9440   -4.5870 N   0  0  0  0  0  0  0  0  0  0  0  0
   29.1400   52.2800   -4.6950 C   0  0  0  0  0  0  0  0  0  0  0  0
   29.6530   49.7460   -3.5750 C   0  0  0  0  0  0  0  0  0  0  0  0
   29.3570   52.5450   -3.3480 C   0  0  0  0  0  0  0  0  0  0  0  0
   29.6830   53.1700   -5.6280 C   0  0  0  0  0  0  0  0  0  0  0  0
   30.0620   53.6130   -2.8880 N   0  0  0  0  0  0  0  0  0  0  0  0
   30.4110   54.2720   -5.1810 C   0  0  0  0  0  0  0  0  0  0  0  0
   30.2820   48.3740   -3.6660 C   0  0  0  0  0  0  0  0  0  0  0  0
   30.5720   54.4510   -3.8180 C   0  0  0  0  0  0  0  0  0  0  0  0
   29.5720   47.2290   -3.2770 C   0  0  0  0  0  0  0  0  0  0  0  0
   31.5890   48.2270   -4.1480 C   0  0  0  0  0  0  0  0  0  0  0  0
   30.1620   45.9620   -3.3770 C   0  0  0  0  0  0  0  0  0  0  0  0
   32.1750   46.9610   -4.2470 C   0  0  0  0  0  0  0  0  0  0  0  0
   31.4600   45.8210   -3.8630 C   0  0  0  0  0  0  0  0  0  0  0  0
   29.4120   44.7610   -2.9680 C   0  0  0  0  0  0  0  0  0  0  0  0
   28.2560   44.8280   -2.5610 O   0  0  0  0  0  0  0  0  0  0  0  0
   32.0060   44.4410   -3.9430 C   0  0  0  0  0  0  0  0  0  0  0  0
   30.0820   43.5670   -3.0710 N   0  0  0  0  0  0  0  0  0  0  0  0
   33.3980   44.1960   -4.4970 C   0  0  0  0  0  0  0  0  0  0  0  0
   31.3370   43.3910   -3.5640 N   0  0  0  0  0  0  0  0  0  0  0  0
   33.5170   44.3610   -5.9890 C   0  0  0  0  0  0  0  0  0  0  0  0
   34.6980   44.9030   -6.3720 O   0  0  0  0  0  0  0  0  0  0  0  0
   32.6600   44.0510   -6.8060 O   0  0  0  0  0  0  0  0  0  0  0  0
  1  2  1  0
  2  3  2  3
  2  4  1  0
  3  5  1  0
  4  6  2  0
  4  7  1  0
  6  8  1  0
  7  9  2  0
  5 10  1  0
  8 11  2  0
  9 11  1  0
 10 12  2  0
 10 13  1  0
 12 14  1  0
 13 15  2  0
 14 16  2  0
 15 16  1  0
 14 17  1  0
 17 18  2  0
 16 19  1  0
 17 20  1  0
 19 21  1  0
 19 22  2  0
 20 22  1  0
 21 23  1  0
 23 24  1  0
 23 25  2  0
M  END
