mac-x0284-mac-x0282
     RDKit          3D

 20 22  0  0  0  0  0  0  0  0999 V2000
   30.5430   51.6390   -5.1230 C   0  0  0  0  0  0  0  0  0  0  0  0
   30.5410   50.3550   -4.3500 C   0  0  0  0  0  0  0  0  0  0  0  0
   30.5220   50.3670   -2.9540 C   0  0  0  0  0  0  0  0  0  0  0  0
   30.5580   49.1270   -5.0150 C   0  0  0  0  0  0  0  0  0  0  0  0
   30.5470   47.9210   -4.2930 C   0  0  0  0  0  0  0  0  0  0  0  0
   30.5190   49.1720   -2.2310 C   0  0  0  0  0  0  0  0  0  0  0  0
   30.5430   46.6640   -5.0660 C   0  0  0  0  0  0  0  0  0  0  0  0
   30.5310   47.9470   -2.9010 C   0  0  0  0  0  0  0  0  0  0  0  0
   30.5240   46.7830   -2.1850 O   0  0  0  0  0  0  0  0  0  0  0  0
   30.0060   46.4220   -6.2170 N   0  0  0  0  0  0  0  0  0  0  0  0
   31.1920   45.6780   -4.4270 O   0  0  0  0  0  0  0  0  0  0  0  0
   29.3680   47.5460   -6.7560 C   0  0  0  0  0  0  0  0  0  0  0  0
   28.6630   48.3910   -5.9000 C   0  0  0  0  0  0  0  0  0  0  0  0
   29.4100   47.8710   -8.1120 C   0  0  0  0  0  0  0  0  0  0  0  0
   28.0510   49.5240   -6.4410 C   0  0  0  0  0  0  0  0  0  0  0  0
   28.8280   48.9540   -8.7020 N   0  0  0  0  0  0  0  0  0  0  0  0
   27.2830   50.5970   -5.9240 C   0  0  0  0  0  0  0  0  0  0  0  0
   28.1760   49.7280   -7.8100 C   0  0  0  0  0  0  0  0  0  0  0  0
   26.9630   51.4220   -6.9810 C   0  0  0  0  0  0  0  0  0  0  0  0
   27.5120   50.8800   -8.1210 N   0  0  0  0  0  0  0  0  0  0  0  0
  1  2  1  0
  2  3  2  0
  2  4  1  0
  4  5  2  0
  3  6  1  0
  5  7  1  0
  5  8  1  0
  6  8  2  0
  8  9  1  0
  7 10  2  3
  7 11  1  0
 10 12  1  0
 12 13  2  0
 12 14  1  0
 13 15  1  0
 14 16  2  0
 15 17  1  0
 15 18  2  0
 16 18  1  0
 17 19  2  0
 18 20  1  0
 19 20  1  0
M  END
