mac-x0277-mac-x0302
     RDKit          3D

 21 23  0  0  0  0  0  0  0  0999 V2000
   27.9700   46.5760   -0.4180 Cl  0  0  0  0  0  0  0  0  0  0  0  0
   28.4410   46.2270   -2.0920 C   0  0  1  0  0  0  0  0  0  0  0  0
   29.7870   46.9100   -2.4750 C   0  0  2  0  0  0  0  0  0  0  0  0
   28.7550   44.7790   -2.2890 C   0  0  0  0  0  0  0  0  0  0  0  0
   29.6160   48.3460   -2.8260 N   0  0  0  0  0  0  0  0  0  0  0  0
   30.2860   45.9670   -3.6160 C   0  0  2  0  0  0  0  0  0  0  0  0
   29.7780   44.6280   -3.1360 C   0  0  0  0  0  0  0  0  0  0  0  0
   31.7680   45.9730   -4.0200 C   0  0  0  0  0  0  0  0  0  0  0  0
   30.3020   48.8620   -4.0160 C   0  0  1  0  0  0  0  0  0  0  0  0
   32.1250   46.4280   -5.4380 C   0  0  0  0  0  0  0  0  0  0  0  0
   30.1210   47.9700   -5.1460 N   0  0  0  0  0  0  0  0  0  0  0  0
   29.7410   50.2290   -4.4460 C   0  0  0  0  0  0  0  0  0  0  0  0
   33.5280   46.5950   -5.5590 O   0  0  0  0  0  0  0  0  0  0  0  0
   31.7870   45.3960   -6.3640 O   0  0  0  0  0  0  0  0  0  0  0  0
   31.3670   47.7110   -5.8770 C   0  0  0  0  0  0  0  0  0  0  0  0
   29.9810   51.3970   -3.6970 C   0  0  0  0  0  0  0  0  0  0  0  0
   28.9690   50.3440   -5.6200 C   0  0  0  0  0  0  0  0  0  0  0  0
   29.4620   52.6230   -4.1230 C   0  0  0  0  0  0  0  0  0  0  0  0
   28.4550   51.5760   -6.0360 C   0  0  0  0  0  0  0  0  0  0  0  0
   29.7250   53.7250   -3.3620 O   0  0  0  0  0  0  0  0  0  0  0  0
   28.7030   52.7210   -5.2850 C   0  0  0  0  0  0  0  0  0  0  0  0
  2  1  1  1
  2  3  1  0
  2  4  1  0
  3  5  1  6
  3  6  1  0
  4  7  2  0
  6  7  1  1
  6  8  1  0
  5  9  1  0
  8 10  1  0
  9 11  1  0
  9 12  1  6
 10 13  1  0
 10 14  1  0
 10 15  1  0
 11 15  1  0
 12 16  2  0
 12 17  1  0
 16 18  1  0
 17 19  2  0
 18 20  1  0
 18 21  2  0
 19 21  1  0
M  END
