mac-x0115-mac-x0159
     RDKit          3D

 23 25  0  0  0  0  0  0  0  0999 V2000
   29.0090   43.0280   -3.5080 C   0  0  0  0  0  0  0  0  0  0  0  0
   28.8690   42.6100   -2.0560 C   0  0  0  0  0  0  0  0  0  0  0  0
   30.2060   43.7860   -3.6460 O   0  0  0  0  0  0  0  0  0  0  0  0
   30.5500   43.9720   -5.0250 C   0  0  0  0  0  0  0  0  0  0  0  0
   31.0320   45.4100   -5.2500 C   0  0  0  0  0  0  0  0  0  0  0  0
   30.3170   46.0820   -6.3600 N   0  0  0  0  0  0  0  0  0  0  0  0
   30.2580   45.5150   -7.6170 C   0  0  0  0  0  0  0  0  0  0  0  0
   29.3120   47.0900   -5.9820 C   0  0  2  0  0  0  0  0  0  0  0  0
   30.7570   43.9810   -8.0660 S   0  0  0  0  0  0  0  0  0  0  0  0
   29.7270   46.3090   -8.5910 N   0  0  0  0  0  0  0  0  0  0  0  0
   28.9710   48.1150   -7.0700 C   0  0  2  0  0  0  0  0  0  0  0  0
   29.5490   48.0140   -4.7690 C   0  0  1  0  0  0  0  0  0  0  0  0
   30.2060   47.5040   -3.4840 C   0  0  0  0  0  0  0  0  0  0  0  0
   29.3070   47.6090   -8.4750 C   0  0  0  0  0  0  0  0  0  0  0  0
   29.7960   49.3400   -6.7750 N   0  0  0  0  0  0  0  0  0  0  0  0
   30.3470   49.1530   -5.4090 C   0  0  0  0  0  0  0  0  0  0  0  0
   29.2170   48.3020   -9.4880 O   0  0  0  0  0  0  0  0  0  0  0  0
   28.9440   50.5290   -6.7900 N   0  0  0  0  0  0  0  0  0  0  0  0
   29.2950   46.6730   -2.6350 C   0  0  0  0  0  0  0  0  0  0  0  0
   28.3360   45.7780   -3.0740 C   0  0  0  0  0  0  0  0  0  0  0  0
   29.3880   46.7840   -1.2570 N   0  0  0  0  0  0  0  0  0  0  0  0
   28.5140   45.9870   -0.6850 C   0  0  0  0  0  0  0  0  0  0  0  0
   27.5330   45.0620   -1.7400 S   0  0  0  0  0  0  0  0  0  0  0  0
  1  2  1  0
  1  3  1  0
  3  4  1  0
  4  5  1  0
  5  6  1  0
  6  7  1  0
  8  6  1  6
  7  9  2  0
  7 10  1  0
  8 11  1  0
  8 12  1  0
 12 13  1  1
 10 14  1  0
 11 14  1  6
 11 15  1  0
 12 16  1  0
 15 16  1  0
 14 17  2  0
 15 18  1  0
 13 19  1  0
 19 20  2  0
 19 21  1  0
 21 22  2  0
 20 23  1  0
 22 23  1  0
M  END
