mac-x0404-mac-x0305
     RDKit          3D

 24 26  0  0  0  0  0  0  0  0999 V2000
   31.9930   47.2170   -6.5050 O   0  0  0  0  0  0  0  0  0  0  0  0
   32.6670   46.4940   -5.5650 C   0  0  0  0  0  0  0  0  0  0  0  0
   33.7970   46.7020   -5.1370 O   0  0  0  0  0  0  0  0  0  0  0  0
   30.6400   47.1460   -6.5790 C   0  0  0  0  0  0  0  0  0  0  0  0
   31.8350   45.3160   -5.0610 C   0  0  0  0  0  0  0  0  0  0  0  0
   29.9490   46.1500   -6.7150 O   0  0  0  0  0  0  0  0  0  0  0  0
   30.1060   48.5520   -6.4700 C   0  0  0  0  0  0  0  0  0  0  0  0
   30.6950   45.7350   -4.3160 O   0  0  0  0  0  0  0  0  0  0  0  0
   28.9590   48.9550   -7.1640 C   0  0  0  0  0  0  0  0  0  0  0  0
   30.8030   49.4080   -5.6570 N   0  0  0  0  0  0  0  0  0  0  0  0
   28.2600   48.1100   -7.9750 O   0  0  0  0  0  0  0  0  0  0  0  0
   30.8340   45.9550   -2.9640 C   0  0  0  0  0  0  0  0  0  0  0  0
   28.5180   50.2710   -7.0170 C   0  0  0  0  0  0  0  0  0  0  0  0
   30.3460   50.6730   -5.5390 C   0  0  0  0  0  0  0  0  0  0  0  0
   29.7420   45.5520   -2.1500 C   0  0  0  0  0  0  0  0  0  0  0  0
   31.9670   46.5360   -2.3800 C   0  0  0  0  0  0  0  0  0  0  0  0
   29.2220   51.1450   -6.1910 C   0  0  0  0  0  0  0  0  0  0  0  0
   29.8170   45.7520   -0.7490 C   0  0  0  0  0  0  0  0  0  0  0  0
   32.0280   46.7260   -1.0010 C   0  0  0  0  0  0  0  0  0  0  0  0
   28.5710   44.9590   -2.6740 C   0  0  0  0  0  0  0  0  0  0  0  0
   30.9620   46.3370   -0.1930 C   0  0  0  0  0  0  0  0  0  0  0  0
   28.7450   45.3610    0.0710 C   0  0  0  0  0  0  0  0  0  0  0  0
   27.5140   44.5760   -1.8450 C   0  0  0  0  0  0  0  0  0  0  0  0
   27.6010   44.7780   -0.4730 C   0  0  0  0  0  0  0  0  0  0  0  0
  1  2  1  0
  2  3  2  0
  1  4  1  0
  2  5  1  0
  4  6  2  0
  4  7  1  0
  5  8  1  0
  7  9  2  0
  7 10  1  0
  9 11  1  0
  8 12  1  0
  9 13  1  0
 10 14  2  0
 12 15  1  0
 12 16  2  0
 13 17  2  0
 14 17  1  0
 15 18  2  0
 16 19  1  0
 15 20  1  0
 18 21  1  0
 19 21  2  0
 18 22  1  0
 20 23  2  0
 22 24  2  0
 23 24  1  0
M  END
