mac-x0306-mac-x0321
     RDKit          3D

 15 16  0  0  0  0  0  0  0  0999 V2000
   28.0350   51.6380   -7.3510 Cl  0  0  0  0  0  0  0  0  0  0  0  0
   29.2000   51.3510   -6.0050 C   0  0  2  0  0  0  0  0  0  0  0  0
   29.2010   49.8520   -5.6840 C   0  0  0  0  0  0  0  0  0  0  0  0
   28.8290   52.1940   -4.7690 C   0  0  2  0  0  0  0  0  0  0  0  0
   29.1560   53.6470   -5.0130 C   0  0  0  0  0  0  0  0  0  0  0  0
   29.5140   51.6480   -3.5380 C   0  0  0  0  0  0  0  0  0  0  0  0
   29.9670   49.4880   -4.4840 N   0  0  0  0  0  0  0  0  0  0  0  0
   30.5070   48.2130   -4.2560 C   0  0  0  0  0  0  0  0  0  0  0  0
   28.7690   54.3160   -6.1520 N   0  0  0  0  0  0  0  0  0  0  0  0
   29.8260   54.4530   -4.2100 N   0  0  0  0  0  0  0  0  0  0  0  0
   30.0190   50.4120   -3.4480 C   0  0  0  0  0  0  0  0  0  0  0  0
   30.2830   47.2990   -5.2290 O   0  0  0  0  0  0  0  0  0  0  0  0
   31.1420   47.8940   -3.2570 O   0  0  0  0  0  0  0  0  0  0  0  0
   29.8680   55.6650   -4.8460 C   0  0  0  0  0  0  0  0  0  0  0  0
   29.2200   55.6020   -6.0540 C   0  0  0  0  0  0  0  0  0  0  0  0
  2  1  1  6
  2  3  1  0
  2  4  1  0
  4  5  1  6
  4  6  1  0
  3  7  1  0
  7  8  1  0
  5  9  1  0
  5 10  2  0
  6 11  2  0
  7 11  1  0
  8 12  1  0
  8 13  2  0
 10 14  1  0
  9 15  1  0
 14 15  2  0
M  END
