mac-x0212-mac-x0387
     RDKit          3D

 20 21  0  0  0  0  0  0  0  0999 V2000
   31.0390   54.5090   -6.4620 C   0  0  0  0  0  0  0  0  0  0  0  0
   29.5910   54.5700   -5.4340 S   0  0  0  0  0  0  0  0  0  0  0  0
   28.6530   55.5070   -6.0110 O   0  0  0  0  0  0  0  0  0  0  0  0
   30.0230   54.6720   -4.0580 O   0  0  0  0  0  0  0  0  0  0  0  0
   28.9980   53.0200   -5.6190 N   0  0  0  0  0  0  0  0  0  0  0  0
   29.8710   51.8730   -5.3510 C   0  0  2  0  0  0  0  0  0  0  0  0
   29.8610   50.8940   -6.5550 C   0  0  0  0  0  0  0  0  0  0  0  0
   29.3680   51.2800   -4.0630 C   0  0  0  0  0  0  0  0  0  0  0  0
   29.7460   49.3630   -6.2210 C   0  0  1  0  0  0  0  0  0  0  0  0
   29.5150   49.9900   -3.7730 C   0  0  0  0  0  0  0  0  0  0  0  0
   30.2000   49.0730   -4.7440 C   0  0  1  0  0  0  0  0  0  0  0  0
   28.2750   48.8380   -6.5390 C   0  0  1  0  0  0  0  0  0  0  0  0
   30.7330   48.5920   -7.1250 C   0  0  0  0  0  0  0  0  0  0  0  0
   30.0230   47.6450   -4.2370 C   0  0  0  0  0  0  0  0  0  0  0  0
   27.1730   49.7030   -6.1770 N   0  0  0  0  0  0  0  0  0  0  0  0
   30.3310   47.8320   -8.1570 C   0  0  0  0  0  0  0  0  0  0  0  0
   28.0490   48.6890   -7.9610 N   0  0  0  0  0  0  0  0  0  0  0  0
   29.8760   46.6310   -4.9000 O   0  0  0  0  0  0  0  0  0  0  0  0
   30.0470   47.5670   -2.8880 O   0  0  0  0  0  0  0  0  0  0  0  0
   28.8930   47.6580   -8.5350 C   0  0  0  0  0  0  0  0  0  0  0  0
  1  2  1  0
  2  3  2  0
  2  4  2  0
  2  5  1  0
  6  5  1  6
  6  7  1  0
  6  8  1  0
  9  7  1  6
  8 10  2  0
  9 11  1  0
 10 11  1  0
  9 12  1  0
  9 13  1  0
 11 14  1  1
 12 15  1  6
 13 16  2  0
 12 17  1  0
 14 18  2  0
 14 19  1  0
 16 20  1  0
 17 20  1  0
M  END
