mac-x0417-mac-x0131
     RDKit          3D

 31 35  0  0  0  0  0  0  0  0999 V2000
   31.6980   44.4340   -5.6640 O   0  0  0  0  0  0  0  0  0  0  0  0
   33.0090   44.1190   -5.6660 C   0  0  0  0  0  0  0  0  0  0  0  0
   33.3780   43.1360   -6.2530 O   0  0  0  0  0  0  0  0  0  0  0  0
   33.9260   45.0750   -4.9930 C   0  0  2  0  0  0  0  0  0  0  0  0
   34.7780   44.7310   -3.8090 C   0  0  0  0  0  0  0  0  0  0  0  0
   33.4380   46.4200   -4.8410 C   0  0  0  0  0  0  0  0  0  0  0  0
   34.8230   43.5460   -3.1900 N   0  0  0  0  0  0  0  0  0  0  0  0
   35.6720   45.6710   -3.2170 C   0  0  0  0  0  0  0  0  0  0  0  0
   32.2150   46.9790   -4.4990 C   0  0  0  0  0  0  0  0  0  0  0  0
   34.3180   47.4880   -5.0650 C   0  0  0  0  0  0  0  0  0  0  0  0
   30.8090   46.6600   -4.1360 C   0  0  0  0  0  0  0  0  0  0  0  0
   35.7710   43.7070   -2.1800 O   0  0  0  0  0  0  0  0  0  0  0  0
   36.2750   44.9750   -2.2060 C   0  0  0  0  0  0  0  0  0  0  0  0
   36.0340   47.0180   -3.4270 C   0  0  0  0  0  0  0  0  0  0  0  0
   32.3690   48.3260   -4.5060 O   0  0  0  0  0  0  0  0  0  0  0  0
   33.6310   48.6170   -4.8450 C   0  0  0  0  0  0  0  0  0  0  0  0
   37.2460   45.5200   -1.3650 C   0  0  0  0  0  0  0  0  0  0  0  0
   36.9990   47.5990   -2.6060 C   0  0  0  0  0  0  0  0  0  0  0  0
   30.1910   47.9390   -4.4510 N   0  0  0  0  0  0  0  0  0  0  0  0
   37.5970   46.8580   -1.5930 C   0  0  0  0  0  0  0  0  0  0  0  0
   30.1250   49.0410   -3.6200 C   0  0  0  0  0  0  0  0  0  0  0  0
   29.6130   48.2220   -5.6620 C   0  0  0  0  0  0  0  0  0  0  0  0
   30.6680   49.0560   -2.2290 C   0  0  0  0  0  0  0  0  0  0  0  0
   29.4970   50.0570   -4.3330 C   0  0  0  0  0  0  0  0  0  0  0  0
   29.1740   49.5340   -5.6340 C   0  0  0  0  0  0  0  0  0  0  0  0
   29.5060   47.3650   -6.6910 N   0  0  0  0  0  0  0  0  0  0  0  0
   29.2150   51.4350   -3.8450 C   0  0  0  0  0  0  0  0  0  0  0  0
   28.5650   50.0040   -6.8090 C   0  0  0  0  0  0  0  0  0  0  0  0
   28.9070   47.9210   -7.7490 C   0  0  0  0  0  0  0  0  0  0  0  0
   28.0740   51.2920   -6.9700 N   0  0  0  0  0  0  0  0  0  0  0  0
   28.4380   49.1750   -7.8660 N   0  0  0  0  0  0  0  0  0  0  0  0
  1  2  1  0
  2  3  2  0
  4  2  1  1
  4  5  1  0
  4  6  1  0
  5  7  2  0
  5  8  1  0
  6  9  2  0
  6 10  1  0
  9 11  1  0
  7 12  1  0
  8 13  2  0
 12 13  1  0
  8 14  1  0
  9 15  1  0
 10 16  2  0
 15 16  1  0
 13 17  1  0
 14 18  2  0
 11 19  1  0
 17 20  2  0
 18 20  1  0
 19 21  1  0
 19 22  1  0
 21 23  1  0
 21 24  2  0
 22 25  2  0
 24 25  1  0
 22 26  1  0
 24 27  1  0
 25 28  1  0
 26 29  2  0
 28 30  1  0
 28 31  2  0
 29 31  1  0
M  END
