mac-x0337-mac-x0138
     RDKit          3D

 22 24  0  0  0  0  0  0  0  0999 V2000
   36.0270   52.2830   -5.3540 C   0  0  0  0  0  0  0  0  0  0  0  0
   34.5630   52.0890   -5.2270 C   0  0  0  0  0  0  0  0  0  0  0  0
   33.6840   53.1150   -5.3530 C   0  0  0  0  0  0  0  0  0  0  0  0
   34.0710   50.8430   -4.9710 C   0  0  0  0  0  0  0  0  0  0  0  0
   32.7030   50.6590   -4.8490 C   0  0  0  0  0  0  0  0  0  0  0  0
   32.3360   52.9290   -5.2310 C   0  0  0  0  0  0  0  0  0  0  0  0
   31.7850   51.6810   -4.9730 C   0  0  0  0  0  0  0  0  0  0  0  0
   30.1200   51.5040   -4.8410 S   0  0  0  0  0  0  0  0  0  0  0  0
   29.9200   51.7960   -6.2850 O   0  0  0  0  0  0  0  0  0  0  0  0
   29.9440   51.4760   -3.3130 N   0  0  0  0  0  0  0  0  0  0  0  0
   29.4000   50.1440   -4.9950 N   0  0  0  0  0  0  0  0  0  0  0  0
   29.4320   49.1350   -4.0090 C   0  0  0  0  0  0  0  0  0  0  0  0
   29.5270   49.5650   -6.2340 C   0  0  1  0  0  0  0  0  0  0  0  0
   29.7350   47.8840   -4.7020 N   0  0  0  0  0  0  0  0  0  0  0  0
   29.0440   48.1190   -5.9490 C   0  0  2  0  0  0  0  0  0  0  0  0
   28.6690   50.0930   -7.3780 C   0  0  2  0  0  0  0  0  0  0  0  0
   29.2070   46.7330   -4.0390 C   0  0  0  0  0  0  0  0  0  0  0  0
   27.4160   50.5820   -6.8190 N   0  0  0  0  0  0  0  0  0  0  0  0
   28.2980   48.9890   -8.2540 N   0  0  0  0  0  0  0  0  0  0  0  0
   29.3650   47.2330   -7.0070 N   0  0  0  0  0  0  0  0  0  0  0  0
   29.2370   47.9260   -8.2620 C   0  0  1  0  0  0  0  0  0  0  0  0
   28.7070   46.9200   -9.2070 N   0  0  0  0  0  0  0  0  0  0  0  0
  1  2  1  0
  2  3  2  0
  2  4  1  0
  4  5  2  0
  3  6  1  0
  5  7  1  0
  6  7  2  0
  7  8  1  0
  8  9  2  0
  8 10  1  0
  8 11  1  0
 11 12  1  0
 13 11  1  1
 12 14  1  0
 13 15  1  0
 14 15  1  0
 13 16  1  0
 14 17  1  0
 16 18  1  1
 16 19  1  0
 15 20  1  6
 19 21  1  0
 20 21  1  0
 21 22  1  6
M  END
