mac-x0348-mac-x0283
     RDKit          3D

 27 30  0  0  0  0  0  0  0  0999 V2000
   27.4800   44.3520   -0.9990 C   0  0  0  0  0  0  0  0  0  0  0  0
   28.4750   45.2390   -1.5550 N   0  0  0  0  0  0  0  0  0  0  0  0
   29.0710   45.0750   -2.7850 C   0  0  0  0  0  0  0  0  0  0  0  0
   28.9660   46.3750   -0.9360 C   0  0  0  0  0  0  0  0  0  0  0  0
   29.9640   46.1190   -2.9690 C   0  0  0  0  0  0  0  0  0  0  0  0
   29.8950   46.9310   -1.8060 C   0  0  0  0  0  0  0  0  0  0  0  0
   28.6850   46.9710    0.3060 C   0  0  0  0  0  0  0  0  0  0  0  0
   30.8840   46.4690   -4.1130 C   0  0  1  0  0  0  0  0  0  0  0  0
   30.5690   48.1120   -1.4420 C   0  0  0  0  0  0  0  0  0  0  0  0
   29.3670   48.1460    0.6450 C   0  0  0  0  0  0  0  0  0  0  0  0
   31.5240   45.3210   -4.8830 C   0  0  0  0  0  0  0  0  0  0  0  0
   30.2170   47.5840   -4.9390 C   0  0  0  0  0  0  0  0  0  0  0  0
   30.2990   48.7130   -0.2150 C   0  0  0  0  0  0  0  0  0  0  0  0
   32.1790   45.8360   -6.1340 C   0  0  0  0  0  0  0  0  0  0  0  0
   29.3210   48.5270   -4.1300 C   0  0  0  0  0  0  0  0  0  0  0  0
   31.7100   45.8440   -7.2560 O   0  0  0  0  0  0  0  0  0  0  0  0
   33.4130   46.3310   -5.9040 O   0  0  0  0  0  0  0  0  0  0  0  0
   29.2640   49.9450   -4.6020 C   0  0  0  0  0  0  0  0  0  0  0  0
   29.6090   51.0060   -3.7450 C   0  0  0  0  0  0  0  0  0  0  0  0
   28.8540   50.1920   -5.9150 C   0  0  0  0  0  0  0  0  0  0  0  0
   29.5100   52.2870   -4.2820 C   0  0  0  0  0  0  0  0  0  0  0  0
   28.7680   51.4920   -6.4200 C   0  0  0  0  0  0  0  0  0  0  0  0
   29.7870   53.4560   -3.6440 O   0  0  0  0  0  0  0  0  0  0  0  0
   29.1040   52.5580   -5.5740 C   0  0  0  0  0  0  0  0  0  0  0  0
   29.1550   53.9660   -5.6580 C   0  0  0  0  0  0  0  0  0  0  0  0
   29.5620   54.5150   -4.5110 N   0  0  0  0  0  0  0  0  0  0  0  0
   28.8270   54.6600   -6.7680 N   0  0  0  0  0  0  0  0  0  0  0  0
  1  2  1  0
  2  3  1  0
  2  4  1  0
  3  5  2  0
  4  6  2  0
  5  6  1  0
  4  7  1  0
  5  8  1  0
  6  9  1  0
  7 10  2  0
  8 11  1  6
  8 12  1  0
  9 13  2  0
 10 13  1  0
 11 14  1  0
 12 15  1  0
 14 16  2  0
 14 17  1  0
 15 18  1  0
 18 19  2  0
 18 20  1  0
 19 21  1  0
 20 22  2  0
 21 23  1  0
 21 24  2  0
 22 24  1  0
 24 25  1  0
 23 26  1  0
 25 26  2  0
 25 27  1  0
M  END
