mac-x0301-mac-x0436
     RDKit          3D

 27 30  0  0  0  0  0  0  0  0999 V2000
   29.8120   45.5120   -4.8890 O   0  0  0  0  0  0  0  0  0  0  0  0
   30.8730   46.3830   -4.7330 C   0  0  0  0  0  0  0  0  0  0  0  0
   32.1050   45.9030   -4.4100 C   0  0  0  0  0  0  0  0  0  0  0  0
   30.5190   47.7990   -4.9470 C   0  0  0  0  0  0  0  0  0  0  0  0
   32.2930   44.4050   -4.2290 C   0  0  0  0  0  0  0  0  0  0  0  0
   30.0780   48.2690   -6.1790 C   0  0  0  0  0  0  0  0  0  0  0  0
   30.6110   48.7330   -3.9050 C   0  0  0  0  0  0  0  0  0  0  0  0
   33.3590   46.7570   -4.2040 C   0  0  1  0  0  0  0  0  0  0  0  0
   32.2270   43.6220   -5.5490 C   0  0  0  0  0  0  0  0  0  0  0  0
   29.7460   49.5920   -6.3720 C   0  0  0  0  0  0  0  0  0  0  0  0
   30.2700   50.0840   -4.1090 C   0  0  0  0  0  0  0  0  0  0  0  0
   29.9140   47.5370   -7.3170 O   0  0  0  0  0  0  0  0  0  0  0  0
   33.3690   47.4350   -2.7950 C   0  0  0  0  0  0  0  0  0  0  0  0
   34.5820   45.9310   -4.3260 N   0  0  0  0  0  0  0  0  0  0  0  0
   33.4230   43.5810   -6.1980 O   0  0  0  0  0  0  0  0  0  0  0  0
   31.2400   43.0670   -6.0150 O   0  0  0  0  0  0  0  0  0  0  0  0
   32.4590   47.3810   -1.9700 O   0  0  0  0  0  0  0  0  0  0  0  0
   29.8310   50.5220   -5.3600 C   0  0  0  0  0  0  0  0  0  0  0  0
   29.3400   49.8480   -7.6470 O   0  0  0  0  0  0  0  0  0  0  0  0
   29.3270   48.5150   -8.1960 C   0  0  0  0  0  0  0  0  0  0  0  0
   34.5170   48.1330   -2.4940 N   0  0  0  0  0  0  0  0  0  0  0  0
   35.8320   46.6860   -4.1120 C   0  0  1  0  0  0  0  0  0  0  0  0
   35.6680   48.0790   -3.3730 C   0  0  2  0  0  0  0  0  0  0  0  0
   36.8100   45.7710   -3.4180 C   0  0  0  0  0  0  0  0  0  0  0  0
   37.7060   46.2090   -2.5200 C   0  0  0  0  0  0  0  0  0  0  0  0
   36.8580   48.4810   -2.5460 C   0  0  0  0  0  0  0  0  0  0  0  0
   37.7920   47.6010   -2.1590 C   0  0  0  0  0  0  0  0  0  0  0  0
  1  2  1  0
  2  3  2  3
  2  4  1  0
  3  5  1  0
  4  6  1  0
  4  7  2  0
  8  3  1  1
  5  9  1  0
  6 10  2  0
  7 11  1  0
  6 12  1  0
  8 13  1  0
  8 14  1  0
  9 15  1  0
  9 16  2  0
 13 17  2  0
 10 18  1  0
 11 18  2  0
 10 19  1  0
 12 20  1  0
 19 20  1  0
 13 21  1  0
 14 22  1  0
 21 23  1  0
 22 23  1  0
 22 24  1  1
 24 25  2  0
 23 26  1  1
 25 27  1  0
 26 27  2  0
M  END
