mac-x0213-mac-x0433
     RDKit          3D

 24 26  0  0  0  0  0  0  0  0999 V2000
   33.2190   46.1320   -5.6250 O   0  0  0  0  0  0  0  0  0  0  0  0
   31.9220   46.2830   -5.9340 C   0  0  0  0  0  0  0  0  0  0  0  0
   31.5160   46.4030   -7.1450 N   0  0  0  0  0  0  0  0  0  0  0  0
   30.9060   46.3240   -4.8140 C   0  0  0  0  0  0  0  0  0  0  0  0
   30.0790   46.5840   -7.3890 C   0  0  0  0  0  0  0  0  0  0  0  0
   31.3550   47.0480   -3.5460 C   0  0  0  0  0  0  0  0  0  0  0  0
   30.4030   44.9530   -4.3470 C   0  0  0  0  0  0  0  0  0  0  0  0
   29.7300   48.0780   -7.4850 C   0  0  0  0  0  0  0  0  0  0  0  0
   30.2230   46.6190   -2.6590 C   0  0  0  0  0  0  0  0  0  0  0  0
   29.6750   45.4120   -3.1190 C   0  0  0  0  0  0  0  0  0  0  0  0
   29.4700   48.8260   -6.1620 C   0  0  0  0  0  0  0  0  0  0  0  0
   29.7190   47.2510   -1.5370 C   0  0  0  0  0  0  0  0  0  0  0  0
   28.6140   44.8120   -2.4660 C   0  0  0  0  0  0  0  0  0  0  0  0
   28.7360   50.1720   -6.2990 C   0  0  0  0  0  0  0  0  0  0  0  0
   28.6460   46.6530   -0.8710 C   0  0  0  0  0  0  0  0  0  0  0  0
   28.0980   45.4440   -1.3300 C   0  0  0  0  0  0  0  0  0  0  0  0
   29.0930   51.2680   -5.3260 C   0  0  0  0  0  0  0  0  0  0  0  0
   29.3350   50.8940   -4.0500 N   0  0  0  0  0  0  0  0  0  0  0  0
   29.1680   52.5920   -5.7190 C   0  0  0  0  0  0  0  0  0  0  0  0
   29.6530   51.8570   -3.1790 C   0  0  0  0  0  0  0  0  0  0  0  0
   29.5030   53.5120   -4.7450 C   0  0  0  0  0  0  0  0  0  0  0  0
   29.6070   54.9690   -5.0810 C   0  0  0  0  0  0  0  0  0  0  0  0
   29.9020   51.4750   -1.8730 N   0  0  0  0  0  0  0  0  0  0  0  0
   29.7490   53.1550   -3.4680 N   0  0  0  0  0  0  0  0  0  0  0  0
  1  2  1  0
  2  3  2  3
  2  4  1  0
  3  5  1  0
  4  6  1  0
  4  7  1  0
  5  8  1  0
  6  9  1  0
  7 10  1  0
  9 10  2  0
  8 11  1  0
  9 12  1  0
 10 13  1  0
 11 14  1  0
 12 15  2  0
 13 16  2  0
 15 16  1  0
 14 17  1  0
 17 18  2  0
 17 19  1  0
 18 20  1  0
 19 21  2  0
 21 22  1  0
 20 23  1  0
 20 24  2  0
 21 24  1  0
M  END
