mac-x0365-mac-x0567
     RDKit          3D

 16 17  0  0  0  0  0  0  0  0999 V2000
   29.3090   47.2710   -5.4220 O   0  0  0  0  0  0  0  0  0  0  0  0
   29.7930   48.1150   -4.4960 C   0  0  0  0  0  0  0  0  0  0  0  0
   30.5950   47.7070   -3.6690 O   0  0  0  0  0  0  0  0  0  0  0  0
   29.2600   49.5370   -4.5770 C   0  0  1  0  0  0  0  0  0  0  0  0
   29.9640   50.2630   -3.3950 C   0  0  0  0  0  0  0  0  0  0  0  0
   29.3490   50.1740   -6.0200 C   0  0  2  0  0  0  0  0  0  0  0  0
   30.0510   51.7720   -3.4690 C   0  0  2  0  0  0  0  0  0  0  0  0
   29.6840   51.6830   -5.9640 C   0  0  0  0  0  0  0  0  0  0  0  0
   28.0810   50.0210   -6.7970 N   0  0  0  0  0  0  0  0  0  0  0  0
   30.3460   49.3720   -6.8970 C   0  0  0  0  0  0  0  0  0  0  0  0
   29.5650   52.2870   -2.3060 F   0  0  0  0  0  0  0  0  0  0  0  0
   29.2650   52.3330   -4.6450 C   0  0  2  0  0  0  0  0  0  0  0  0
   29.4630   48.4670   -7.7360 C   0  0  1  0  0  0  0  0  0  0  0  0
   28.4150   49.3990   -8.0680 N   0  0  0  0  0  0  0  0  0  0  0  0
   29.4010   53.7580   -4.7230 O   0  0  0  0  0  0  0  0  0  0  0  0
   30.0280   48.0270   -8.9920 N   0  0  0  0  0  0  0  0  0  0  0  0
  1  2  1  0
  2  3  2  0
  4  2  1  6
  4  5  1  0
  4  6  1  0
  5  7  1  0
  6  8  1  1
  6  9  1  0
  6 10  1  0
  7 11  1  1
  7 12  1  0
  8 12  1  0
 10 13  1  0
  9 14  1  0
 13 14  1  0
 12 15  1  6
 13 16  1  6
M  END
