mac-x0357-mac-x0346
     RDKit          3D

 25 26  0  0  0  0  0  0  0  0999 V2000
   32.2720   43.3270   -4.8500 C   0  0  0  0  0  0  0  0  0  0  0  0
   33.0780   44.5160   -4.4020 C   0  0  0  0  0  0  0  0  0  0  0  0
   34.1820   44.3400   -3.5500 C   0  0  0  0  0  0  0  0  0  0  0  0
   32.7590   45.8270   -4.8150 C   0  0  0  0  0  0  0  0  0  0  0  0
   34.5080   43.0790   -3.1370 O   0  0  0  0  0  0  0  0  0  0  0  0
   31.6130   46.1090   -5.7130 C   0  0  0  0  0  0  0  0  0  0  0  0
   33.5370   46.9140   -4.3750 C   0  0  0  0  0  0  0  0  0  0  0  0
   34.9510   45.4200   -3.1160 C   0  0  0  0  0  0  0  0  0  0  0  0
   30.4910   46.5870   -5.3240 N   0  0  0  0  0  0  0  0  0  0  0  0
   31.9010   45.8000   -6.9900 O   0  0  0  0  0  0  0  0  0  0  0  0
   34.6270   46.7110   -3.5300 C   0  0  0  0  0  0  0  0  0  0  0  0
   30.2450   46.8990   -3.9250 C   0  0  0  0  0  0  0  0  0  0  0  0
   30.8100   48.2890   -3.6390 C   0  0  0  0  0  0  0  0  0  0  0  0
   29.8460   49.1260   -2.8050 C   0  0  0  0  0  0  0  0  0  0  0  0
   29.9140   50.4800   -3.2680 O   0  0  0  0  0  0  0  0  0  0  0  0
   29.3320   50.7860   -4.4700 C   0  0  0  0  0  0  0  0  0  0  0  0
   29.1770   52.1530   -4.7990 C   0  0  0  0  0  0  0  0  0  0  0  0
   28.8910   49.8150   -5.3820 C   0  0  0  0  0  0  0  0  0  0  0  0
   29.6040   53.2880   -3.9200 C   0  0  0  0  0  0  0  0  0  0  0  0
   28.3040   50.1800   -6.5970 C   0  0  0  0  0  0  0  0  0  0  0  0
   28.5840   52.5030   -6.0300 C   0  0  0  0  0  0  0  0  0  0  0  0
   29.2400   54.5660   -4.2730 N   0  0  0  0  0  0  0  0  0  0  0  0
   30.2620   53.0870   -2.8970 O   0  0  0  0  0  0  0  0  0  0  0  0
   28.1500   51.5200   -6.9220 C   0  0  0  0  0  0  0  0  0  0  0  0
   29.7870   55.0620   -5.4790 O   0  0  0  0  0  0  0  0  0  0  0  0
  1  2  1  0
  2  3  2  0
  2  4  1  0
  3  5  1  0
  4  6  1  0
  4  7  2  0
  3  8  1  0
  6  9  2  3
  6 10  1  0
  7 11  1  0
  8 11  2  0
  9 12  1  0
 12 13  1  0
 13 14  1  0
 14 15  1  0
 15 16  1  0
 16 17  2  0
 16 18  1  0
 17 19  1  0
 18 20  2  0
 17 21  1  0
 19 22  1  0
 19 23  2  0
 20 24  1  0
 21 24  2  0
 22 25  1  0
M  END
