mac-x0231-mac-x0361
     RDKit          3D

 25 27  0  0  0  0  0  0  0  0999 V2000
   34.3780   45.1570   -6.4300 O   0  0  0  0  0  0  0  0  0  0  0  0
   33.1030   44.7590   -6.2440 C   0  0  0  0  0  0  0  0  0  0  0  0
   32.2360   45.1220   -7.0260 O   0  0  0  0  0  0  0  0  0  0  0  0
   32.9230   43.8810   -5.0260 C   0  0  0  0  0  0  0  0  0  0  0  0
   31.6850   44.3090   -4.2730 C   0  0  0  0  0  0  0  0  0  0  0  0
   31.7020   45.6440   -3.6510 C   0  0  0  0  0  0  0  0  0  0  0  0
   30.6510   43.5240   -4.2750 N   0  0  0  0  0  0  0  0  0  0  0  0
   30.4870   46.1860   -3.2540 C   0  0  0  0  0  0  0  0  0  0  0  0
   29.5380   43.9940   -3.6640 N   0  0  0  0  0  0  0  0  0  0  0  0
   32.9000   46.3550   -3.4900 C   0  0  0  0  0  0  0  0  0  0  0  0
   29.2770   45.3270   -3.4060 C   0  0  0  0  0  0  0  0  0  0  0  0
   30.5140   47.4980   -2.7510 C   0  0  0  0  0  0  0  0  0  0  0  0
   32.9010   47.6300   -2.9480 C   0  0  0  0  0  0  0  0  0  0  0  0
   28.1240   45.7120   -3.2720 O   0  0  0  0  0  0  0  0  0  0  0  0
   29.4220   48.2010   -2.4110 O   0  0  0  0  0  0  0  0  0  0  0  0
   31.7040   48.2010   -2.5890 C   0  0  0  0  0  0  0  0  0  0  0  0
   29.4440   49.4040   -3.1280 C   0  0  0  0  0  0  0  0  0  0  0  0
   29.3220   49.4940   -4.5320 C   0  0  0  0  0  0  0  0  0  0  0  0
   29.5990   50.5670   -2.3830 C   0  0  0  0  0  0  0  0  0  0  0  0
   29.3500   50.7520   -5.1660 C   0  0  0  0  0  0  0  0  0  0  0  0
   29.6250   51.8150   -3.0130 C   0  0  0  0  0  0  0  0  0  0  0  0
   29.4970   51.9240   -4.4040 C   0  0  0  0  0  0  0  0  0  0  0  0
   29.5220   53.2970   -4.9960 C   0  0  0  0  0  0  0  0  0  0  0  0
   28.9550   53.4820   -6.2300 N   0  0  0  0  0  0  0  0  0  0  0  0
   30.0200   54.2460   -4.4020 O   0  0  0  0  0  0  0  0  0  0  0  0
  1  2  1  0
  2  3  2  0
  2  4  1  0
  4  5  1  0
  5  6  1  0
  5  7  2  0
  6  8  2  0
  7  9  1  0
  6 10  1  0
  8 11  1  0
  9 11  1  0
  8 12  1  0
 10 13  2  0
 11 14  2  0
 12 15  1  0
 12 16  2  0
 13 16  1  0
 15 17  1  0
 17 18  2  0
 17 19  1  0
 18 20  1  0
 19 21  2  0
 20 22  2  0
 21 22  1  0
 22 23  1  0
 23 24  1  0
 23 25  2  0
M  END
