mac-x0213-mac-x0348
     RDKit          3D

 20 23  0  0  0  0  0  0  0  0999 V2000
   32.9440   45.7300   -6.1550 O   0  0  0  0  0  0  0  0  0  0  0  0
   31.5990   45.8350   -5.7180 C   0  0  0  0  0  0  0  0  0  0  0  0
   30.8300   46.0100   -6.8930 O   0  0  0  0  0  0  0  0  0  0  0  0
   31.1670   44.5620   -4.9930 C   0  0  0  0  0  0  0  0  0  0  0  0
   31.4070   47.0180   -4.7690 C   0  0  2  0  0  0  0  0  0  0  0  0
   29.7780   44.6790   -4.3360 C   0  0  0  0  0  0  0  0  0  0  0  0
   30.5650   46.8110   -3.5250 C   0  0  0  0  0  0  0  0  0  0  0  0
   31.0520   48.3460   -5.4450 C   0  0  0  0  0  0  0  0  0  0  0  0
   31.4870   49.4760   -4.5160 C   0  0  0  0  0  0  0  0  0  0  0  0
   30.6880   47.8530   -2.6620 C   0  0  0  0  0  0  0  0  0  0  0  0
   29.7500   45.7080   -3.2470 C   0  0  0  0  0  0  0  0  0  0  0  0
   30.0090   47.8430   -1.4600 C   0  0  0  0  0  0  0  0  0  0  0  0
   29.0030   45.6560   -2.0050 C   0  0  0  0  0  0  0  0  0  0  0  0
   31.5890   49.0170   -3.0570 C   0  0  0  0  0  0  0  0  0  0  0  0
   28.0860   44.4980   -1.6220 C   0  0  0  0  0  0  0  0  0  0  0  0
   29.1590   46.7660   -1.0970 C   0  0  0  0  0  0  0  0  0  0  0  0
   30.1840   48.9240   -0.6070 C   0  0  0  0  0  0  0  0  0  0  0  0
   29.5580   49.0010    0.6060 C   0  0  0  0  0  0  0  0  0  0  0  0
   28.5230   46.8740    0.1600 C   0  0  0  0  0  0  0  0  0  0  0  0
   28.7240   47.9770    0.9970 C   0  0  0  0  0  0  0  0  0  0  0  0
  2  1  1  0
  2  3  1  0
  2  4  1  0
  2  5  1  0
  4  6  1  0
  5  7  1  0
  5  8  1  6
  8  9  1  0
  7 10  2  0
  6 11  1  0
  7 11  1  0
 10 12  1  0
 11 13  2  0
  9 14  1  0
 10 14  1  0
 13 15  1  0
 12 16  2  0
 13 16  1  0
 12 17  1  0
 17 18  2  0
 16 19  1  0
 18 20  1  0
 19 20  2  0
M  END
