mac-x0282-mac-x0587
     RDKit          3D

 19 20  0  0  0  0  0  0  0  0999 V2000
   29.6010   45.9600   -2.7570 C   0  0  0  0  0  0  0  0  0  0  0  0
   30.4910   46.6730   -3.7630 C   0  0  2  0  0  0  0  0  0  0  0  0
   32.2850   46.2910   -3.6140 S   0  0  0  0  0  0  0  0  0  0  0  0
   30.2560   48.1840   -3.7110 C   0  0  0  0  0  0  0  0  0  0  0  0
   32.9480   46.8550   -5.2240 C   0  0  0  0  0  0  0  0  0  0  0  0
   30.5040   48.8600   -2.7100 O   0  0  0  0  0  0  0  0  0  0  0  0
   29.7090   48.8530   -4.9150 C   0  0  0  0  0  0  0  0  0  0  0  0
   33.5430   45.7350   -6.0520 C   0  0  0  0  0  0  0  0  0  0  0  0
   29.3460   50.1490   -4.9160 C   0  0  0  0  0  0  0  0  0  0  0  0
   29.4560   48.3370   -6.2480 C   0  0  0  0  0  0  0  0  0  0  0  0
   34.6780   45.6210   -6.4760 O   0  0  0  0  0  0  0  0  0  0  0  0
   32.6320   44.7710   -6.3200 O   0  0  0  0  0  0  0  0  0  0  0  0
   28.9340   49.3700   -7.0220 C   0  0  0  0  0  0  0  0  0  0  0  0
   28.8200   50.6080   -6.2260 N   0  0  1  0  0  0  0  0  0  0  0  0
   29.6320   47.0980   -6.8290 C   0  0  0  0  0  0  0  0  0  0  0  0
   27.5270   50.9440   -6.0400 O   0  0  0  0  0  0  0  0  0  0  0  0
   29.2750   46.9450   -8.1680 C   0  0  0  0  0  0  0  0  0  0  0  0
   28.5790   49.2630   -8.3200 N   0  0  0  0  0  0  0  0  0  0  0  0
   28.7610   48.0390   -8.8630 C   0  0  0  0  0  0  0  0  0  0  0  0
  2  1  1  1
  2  3  1  0
  2  4  1  0
  3  5  1  0
  4  6  2  0
  4  7  1  0
  5  8  1  0
  7  9  2  0
  7 10  1  0
  8 11  2  0
  8 12  1  0
 10 13  2  0
  9 14  1  0
 13 14  1  0
 10 15  1  0
 14 16  1  1
 15 17  2  0
 13 18  1  0
 17 19  1  0
 18 19  2  0
M  CHG  2  14   1  16  -1
M  END
