mac-x0436-mac-x0387
     RDKit          3D

 28 31  0  0  0  0  0  0  0  0999 V2000
   33.7890   44.9670   -7.1340 O   0  0  0  0  0  0  0  0  0  0  0  0
   32.7050   44.5210   -6.4730 C   0  0  0  0  0  0  0  0  0  0  0  0
   31.6450   44.3560   -7.0520 O   0  0  0  0  0  0  0  0  0  0  0  0
   32.9720   44.2630   -5.0140 C   0  0  0  0  0  0  0  0  0  0  0  0
   32.6570   45.4920   -4.1720 C   0  0  0  0  0  0  0  0  0  0  0  0
   33.9180   46.1010   -3.5920 C   0  0  0  0  0  0  0  0  0  0  0  0
   33.9940   47.6230   -3.2920 C   0  0  0  0  0  0  0  0  0  0  0  0
   34.9430   45.3240   -3.3680 N   0  0  0  0  0  0  0  0  0  0  0  0
   32.8940   48.2710   -3.0750 N   0  0  0  0  0  0  0  0  0  0  0  0
   35.2740   48.1210   -3.2780 N   0  0  0  0  0  0  0  0  0  0  0  0
   36.1250   45.9010   -2.8610 C   0  0  0  0  0  0  0  0  0  0  0  0
   31.5470   47.7100   -3.0860 C   0  0  0  0  0  0  0  0  0  0  0  0
   36.3070   47.2960   -2.8120 C   0  0  0  0  0  0  0  0  0  0  0  0
   37.1400   45.0570   -2.4030 C   0  0  0  0  0  0  0  0  0  0  0  0
   38.3280   45.5900   -1.9010 C   0  0  0  0  0  0  0  0  0  0  0  0
   37.5000   47.8270   -2.3080 C   0  0  0  0  0  0  0  0  0  0  0  0
   30.7130   48.3380   -4.1770 C   0  0  0  0  0  0  0  0  0  0  0  0
   38.5080   46.9720   -1.8540 C   0  0  0  0  0  0  0  0  0  0  0  0
   30.2740   47.5790   -5.2740 C   0  0  0  0  0  0  0  0  0  0  0  0
   30.3660   49.6890   -4.1140 C   0  0  0  0  0  0  0  0  0  0  0  0
   29.5020   48.1540   -6.3000 C   0  0  0  0  0  0  0  0  0  0  0  0
   29.5990   50.2720   -5.1260 C   0  0  0  0  0  0  0  0  0  0  0  0
   29.1550   49.5180   -6.2340 C   0  0  0  0  0  0  0  0  0  0  0  0
   29.0720   47.3950   -7.3890 C   0  0  0  0  0  0  0  0  0  0  0  0
   28.3810   50.0420   -7.2920 C   0  0  0  0  0  0  0  0  0  0  0  0
   28.3170   48.0120   -8.3700 C   0  0  0  0  0  0  0  0  0  0  0  0
   27.9830   51.3840   -7.3210 N   0  0  0  0  0  0  0  0  0  0  0  0
   27.9650   49.3120   -8.3450 N   0  0  0  0  0  0  0  0  0  0  0  0
  1  2  1  0
  2  3  2  0
  2  4  1  0
  4  5  1  0
  5  6  1  0
  6  7  1  0
  6  8  2  0
  7  9  2  3
  7 10  1  0
  8 11  1  0
  9 12  1  0
 10 13  1  0
 11 13  2  0
 11 14  1  0
 14 15  2  0
 13 16  1  0
 12 17  1  0
 15 18  1  0
 16 18  2  0
 17 19  2  0
 17 20  1  0
 19 21  1  0
 20 22  2  0
 21 23  2  0
 22 23  1  0
 21 24  1  0
 23 25  1  0
 24 26  2  0
 25 27  1  0
 25 28  2  0
 26 28  1  0
M  END
