mac-x0223-mac-x0564
     RDKit          3D

 20 22  0  0  0  0  0  0  0  0999 V2000
   27.9420   44.1940   -2.1250 C   0  0  0  0  0  0  0  0  0  0  0  0
   28.1170   45.4870   -2.6940 O   0  0  0  0  0  0  0  0  0  0  0  0
   29.0220   46.3260   -1.9600 C   0  0  2  0  0  0  0  0  0  0  0  0
   28.7570   47.8530   -2.1220 C   0  0  2  0  0  0  0  0  0  0  0  0
   30.4380   45.9570   -2.4410 C   0  0  0  0  0  0  0  0  0  0  0  0
   27.3400   48.0680   -2.1080 O   0  0  0  0  0  0  0  0  0  0  0  0
   29.5170   48.4860   -3.3550 C   0  0  2  0  0  0  0  0  0  0  0  0
   30.6410   46.2380   -3.9430 C   0  0  2  0  0  0  0  0  0  0  0  0
   32.1230   46.5250   -4.2580 C   0  0  0  0  0  0  0  0  0  0  0  0
   29.7150   47.3770   -4.3920 C   0  0  2  0  0  0  0  0  0  0  0  0
   30.6990   49.3300   -2.9050 C   0  0  0  0  0  0  0  0  0  0  0  0
   28.6810   49.4000   -4.2840 C   0  0  1  0  0  0  0  0  0  0  0  0
   32.6990   45.5800   -5.2820 C   0  0  0  0  0  0  0  0  0  0  0  0
   30.5100   50.6470   -2.6690 C   0  0  0  0  0  0  0  0  0  0  0  0
   28.2690   50.6760   -3.6260 C   0  0  0  0  0  0  0  0  0  0  0  0
   29.4270   49.4960   -5.5010 O   0  0  0  0  0  0  0  0  0  0  0  0
   30.1270   48.2250   -5.6230 C   0  0  0  0  0  0  0  0  0  0  0  0
   33.5330   45.8620   -6.1280 O   0  0  0  0  0  0  0  0  0  0  0  0
   32.2020   44.3340   -5.1920 O   0  0  0  0  0  0  0  0  0  0  0  0
   29.1950   51.2620   -2.8390 C   0  0  0  0  0  0  0  0  0  0  0  0
  1  2  1  0
  3  2  1  6
  3  4  1  0
  3  5  1  0
  4  6  1  6
  4  7  1  0
  5  8  1  0
  8  9  1  1
  7 10  1  0
  8 10  1  0
  7 11  1  1
  7 12  1  0
  9 13  1  0
 11 14  2  0
 12 15  1  1
 12 16  1  0
 10 17  1  6
 16 17  1  0
 13 18  2  0
 13 19  1  0
 14 20  1  0
 15 20  2  0
M  END
