mac-x0415-mac-x0373
     RDKit          3D

 29 32  0  0  0  0  0  0  0  0999 V2000
   33.2610   44.4250   -6.7080 O   0  0  0  0  0  0  0  0  0  0  0  0
   32.3630   45.1410   -6.0060 C   0  0  0  0  0  0  0  0  0  0  0  0
   31.5670   46.0010   -6.5410 N   0  0  0  0  0  0  0  0  0  0  0  0
   32.4320   44.7990   -4.5280 C   0  0  0  0  0  0  0  0  0  0  0  0
   30.6750   46.7290   -5.7940 C   0  0  0  0  0  0  0  0  0  0  0  0
   31.1170   44.7750   -3.8320 C   0  0  0  0  0  0  0  0  0  0  0  0
   29.5690   46.3120   -5.4510 O   0  0  0  0  0  0  0  0  0  0  0  0
   31.1780   48.1380   -5.4300 C   0  0  0  0  0  0  0  0  0  0  0  0
   29.9830   43.9130   -4.1990 C   0  0  0  0  0  0  0  0  0  0  0  0
   30.5900   45.4350   -2.7910 C   0  0  0  0  0  0  0  0  0  0  0  0
   28.8770   43.9880   -3.5070 N   0  0  0  0  0  0  0  0  0  0  0  0
   29.1960   44.9980   -2.4840 C   0  0  2  0  0  0  0  0  0  0  0  0
   31.1230   46.4680   -1.9400 C   0  0  0  0  0  0  0  0  0  0  0  0
   32.4070   48.2080   -4.5280 C   0  0  0  0  0  0  0  0  0  0  0  0
   30.0750   49.1330   -5.0950 C   0  0  0  0  0  0  0  0  0  0  0  0
   28.3180   46.2030   -2.4050 C   0  0  0  0  0  0  0  0  0  0  0  0
   30.2560   47.4170   -1.5240 C   0  0  0  0  0  0  0  0  0  0  0  0
   32.8190   47.1790   -3.6780 C   0  0  0  0  0  0  0  0  0  0  0  0
   33.1780   49.3820   -4.5580 C   0  0  0  0  0  0  0  0  0  0  0  0
   29.8580   49.6070   -3.7940 C   0  0  0  0  0  0  0  0  0  0  0  0
   29.2480   49.6000   -6.1280 C   0  0  0  0  0  0  0  0  0  0  0  0
   30.7780   48.8280   -0.4170 Br  0  0  0  0  0  0  0  0  0  0  0  0
   28.8460   47.3580   -1.9400 C   0  0  0  0  0  0  0  0  0  0  0  0
   33.9580   47.3070   -2.8840 C   0  0  0  0  0  0  0  0  0  0  0  0
   34.3180   49.5130   -3.7660 C   0  0  0  0  0  0  0  0  0  0  0  0
   28.8420   50.5250   -3.5370 C   0  0  0  0  0  0  0  0  0  0  0  0
   28.2340   50.5180   -5.8700 C   0  0  0  0  0  0  0  0  0  0  0  0
   34.7080   48.4740   -2.9280 C   0  0  0  0  0  0  0  0  0  0  0  0
   28.0310   50.9810   -4.5730 C   0  0  0  0  0  0  0  0  0  0  0  0
  1  2  1  0
  2  3  2  3
  2  4  1  0
  3  5  1  0
  4  6  1  0
  5  7  2  0
  5  8  1  0
  6  9  1  0
  6 10  2  0
  9 11  2  0
 10 12  1  0
 11 12  1  0
 10 13  1  0
  8 14  1  0
  8 15  1  0
 12 16  1  6
 13 17  2  0
 14 18  2  0
 14 19  1  0
 15 20  2  0
 15 21  1  0
 17 22  1  0
 16 23  2  0
 17 23  1  0
 18 24  1  0
 19 25  2  0
 20 26  1  0
 21 27  2  0
 24 28  2  0
 25 28  1  0
 26 29  2  0
 27 29  1  0
M  END
