mac-x0567-mac-x0348
     RDKit          3D

 26 29  0  0  0  0  0  0  0  0999 V2000
   29.2950   47.4760   -8.3870 N   0  0  0  0  0  0  0  0  0  0  0  0
   29.1240   48.6940   -7.8250 C   0  0  0  0  0  0  0  0  0  0  0  0
   28.7700   49.7770   -8.5810 N   0  0  0  0  0  0  0  0  0  0  0  0
   29.2270   49.1890   -6.5510 C   0  0  0  0  0  0  0  0  0  0  0  0
   28.6380   50.9300   -7.8980 N   0  0  0  0  0  0  0  0  0  0  0  0
   28.9190   50.6000   -6.6270 C   0  0  0  0  0  0  0  0  0  0  0  0
   29.5630   48.4730   -5.4120 C   0  0  0  0  0  0  0  0  0  0  0  0
   29.8660   47.0080   -5.3490 C   0  0  0  0  0  0  0  0  0  0  0  0
   28.9400   51.4140   -5.4760 C   0  0  0  0  0  0  0  0  0  0  0  0
   29.5780   49.3310   -4.2640 C   0  0  0  0  0  0  0  0  0  0  0  0
   30.7360   46.5080   -4.1930 C   0  0  2  0  0  0  0  0  0  0  0  0
   29.2820   50.7290   -4.2950 C   0  0  0  0  0  0  0  0  0  0  0  0
   31.7780   45.4620   -4.5900 C   0  0  0  0  0  0  0  0  0  0  0  0
   29.8900   46.1750   -2.9910 C   0  0  0  0  0  0  0  0  0  0  0  0
   32.3810   45.8120   -5.9300 C   0  0  0  0  0  0  0  0  0  0  0  0
   29.0180   45.1180   -2.7750 C   0  0  0  0  0  0  0  0  0  0  0  0
   29.8630   46.9770   -1.8240 C   0  0  0  0  0  0  0  0  0  0  0  0
   31.8460   45.6360   -7.0100 O   0  0  0  0  0  0  0  0  0  0  0  0
   33.6120   46.3680   -5.8230 O   0  0  0  0  0  0  0  0  0  0  0  0
   28.4740   45.2650   -1.5250 N   0  0  0  0  0  0  0  0  0  0  0  0
   28.9780   46.4020   -0.9190 C   0  0  0  0  0  0  0  0  0  0  0  0
   30.5370   48.1640   -1.4780 C   0  0  0  0  0  0  0  0  0  0  0  0
   27.5120   44.3580   -0.9390 C   0  0  0  0  0  0  0  0  0  0  0  0
   30.3080   48.7460   -0.2340 C   0  0  0  0  0  0  0  0  0  0  0  0
   28.7390   46.9800    0.3380 C   0  0  0  0  0  0  0  0  0  0  0  0
   29.4210   48.1610    0.6590 C   0  0  0  0  0  0  0  0  0  0  0  0
  1  2  1  0
  2  3  1  0
  2  4  2  0
  3  5  1  0
  4  6  1  0
  5  6  2  0
  4  7  1  0
  7  8  1  0
  6  9  1  0
  7 10  2  0
 11  8  1  6
  9 12  2  0
 10 12  1  0
 11 13  1  0
 11 14  1  0
 13 15  1  0
 14 16  2  0
 14 17  1  0
 15 18  2  0
 15 19  1  0
 16 20  1  0
 17 21  2  0
 20 21  1  0
 17 22  1  0
 20 23  1  0
 22 24  2  0
 21 25  1  0
 24 26  1  0
 25 26  2  0
M  END
