mac-x0341-mac-x0433
     RDKit          3D

 15 16  0  0  0  0  0  0  0  0999 V2000
   28.4370   54.6830   -7.0730 N   0  0  0  0  0  0  0  0  0  0  0  0
   28.9630   53.4180   -6.5730 C   0  0  2  0  0  0  0  0  0  0  0  0
   28.5260   52.2080   -7.2680 N   0  0  0  0  0  0  0  0  0  0  0  0
   28.7860   53.4870   -5.1230 N   0  0  0  0  0  0  0  0  0  0  0  0
   27.1320   52.1940   -7.7230 C   0  0  0  0  0  0  0  0  0  0  0  0
   29.1510   54.8090   -4.5970 C   0  0  0  0  0  0  0  0  0  0  0  0
   29.5790   52.4080   -4.5650 C   0  0  1  0  0  0  0  0  0  0  0  0
   28.9320   51.0210   -6.6010 C   0  0  0  0  0  0  0  0  0  0  0  0
   30.9330   52.7890   -4.5940 O   0  0  0  0  0  0  0  0  0  0  0  0
   29.3130   52.3400   -3.1460 N   0  0  0  0  0  0  0  0  0  0  0  0
   29.4500   51.0680   -5.2810 C   0  0  0  0  0  0  0  0  0  0  0  0
   28.8300   49.7610   -7.2260 C   0  0  0  0  0  0  0  0  0  0  0  0
   29.2220   48.5820   -6.5850 C   0  0  0  0  0  0  0  0  0  0  0  0
   29.8430   49.8640   -4.6500 C   0  0  0  0  0  0  0  0  0  0  0  0
   29.7300   48.6340   -5.2960 C   0  0  0  0  0  0  0  0  0  0  0  0
  2  1  1  6
  2  3  1  0
  2  4  1  0
  3  5  1  0
  4  6  1  0
  4  7  1  0
  3  8  1  0
  7  9  1  0
  7 10  1  1
  7 11  1  0
  8 11  2  0
  8 12  1  0
 12 13  2  0
 11 14  1  0
 13 15  1  0
 14 15  2  0
M  END
