mac-x0226-mac-x0358
     RDKit          3D

 23 25  0  0  0  0  0  0  0  0999 V2000
   32.3250   45.8610   -6.7420 O   0  0  0  0  0  0  0  0  0  0  0  0
   33.5210   45.2330   -6.8920 C   0  0  0  0  0  0  0  0  0  0  0  0
   34.1640   45.1930   -7.9320 O   0  0  0  0  0  0  0  0  0  0  0  0
   32.2460   46.7840   -5.6390 C   0  0  0  0  0  0  0  0  0  0  0  0
   31.5000   46.1480   -4.4620 C   0  0  0  0  0  0  0  0  0  0  0  0
   33.9600   44.6050   -5.6620 C   0  0  0  0  0  0  0  0  0  0  0  0
   33.9570   43.2460   -5.2990 C   0  0  0  0  0  0  0  0  0  0  0  0
   34.4880   45.2360   -4.5540 C   0  0  0  0  0  0  0  0  0  0  0  0
   32.0490   46.5590   -3.1150 C   0  0  0  0  0  0  0  0  0  0  0  0
   34.4400   43.0290   -4.0760 N   0  0  0  0  0  0  0  0  0  0  0  0
   34.7670   44.2660   -3.6140 N   0  0  0  0  0  0  0  0  0  0  0  0
   32.6020   47.8270   -2.8940 C   0  0  0  0  0  0  0  0  0  0  0  0
   32.0060   45.6520   -2.0400 C   0  0  0  0  0  0  0  0  0  0  0  0
   32.6480   48.7210   -3.9240 O   0  0  0  0  0  0  0  0  0  0  0  0
   35.3190   44.4510   -2.3210 C   0  0  0  0  0  0  0  0  0  0  0  0
   33.1030   48.1850   -1.6400 C   0  0  0  0  0  0  0  0  0  0  0  0
   32.5040   46.0080   -0.7870 C   0  0  0  0  0  0  0  0  0  0  0  0
   35.8180   45.7020   -1.9260 C   0  0  0  0  0  0  0  0  0  0  0  0
   35.3670   43.3740   -1.4250 C   0  0  0  0  0  0  0  0  0  0  0  0
   33.0520   47.2720   -0.5880 C   0  0  0  0  0  0  0  0  0  0  0  0
   36.3560   45.8630   -0.6500 C   0  0  0  0  0  0  0  0  0  0  0  0
   35.9060   43.5470   -0.1500 C   0  0  0  0  0  0  0  0  0  0  0  0
   36.4020   44.7880    0.2390 C   0  0  0  0  0  0  0  0  0  0  0  0
  1  2  1  0
  2  3  2  0
  1  4  1  0
  4  5  1  0
  2  6  1  0
  6  7  1  0
  6  8  2  0
  5  9  1  0
  7 10  2  0
  8 11  1  0
 10 11  1  0
  9 12  2  0
  9 13  1  0
 12 14  1  0
 11 15  1  0
 12 16  1  0
 13 17  2  0
 15 18  2  0
 15 19  1  0
 16 20  2  0
 17 20  1  0
 18 21  1  0
 19 22  2  0
 21 23  2  0
 22 23  1  0
M  END
