mac-x0411-mac-x0341
     RDKit          3D

 27 29  0  0  0  0  0  0  0  0999 V2000
   37.3000   44.5650   -3.9840 Cl  0  0  0  0  0  0  0  0  0  0  0  0
   36.4010   45.9170   -3.3930 C   0  0  0  0  0  0  0  0  0  0  0  0
   35.0000   45.9920   -3.5120 C   0  0  0  0  0  0  0  0  0  0  0  0
   37.1110   46.9510   -2.7840 C   0  0  0  0  0  0  0  0  0  0  0  0
   34.2950   44.9730   -4.1140 O   0  0  0  0  0  0  0  0  0  0  0  0
   34.3070   47.1130   -3.0130 C   0  0  0  0  0  0  0  0  0  0  0  0
   36.4340   48.0630   -2.2900 C   0  0  0  0  0  0  0  0  0  0  0  0
   32.8050   47.2560   -3.1050 C   0  0  0  0  0  0  0  0  0  0  0  0
   33.7110   45.4060   -5.3480 C   0  0  0  0  0  0  0  0  0  0  0  0
   35.0460   48.1430   -2.4030 C   0  0  0  0  0  0  0  0  0  0  0  0
   33.2180   44.2190   -6.1650 C   0  0  0  0  0  0  0  0  0  0  0  0
   32.2880   48.2440   -4.1640 C   0  0  0  0  0  0  0  0  0  0  0  0
   32.1470   43.6130   -5.5970 O   0  0  0  0  0  0  0  0  0  0  0  0
   33.6630   43.7890   -7.2180 O   0  0  0  0  0  0  0  0  0  0  0  0
   30.8170   48.0490   -4.5710 C   0  0  0  0  0  0  0  0  0  0  0  0
   30.1850   49.2020   -5.3120 C   0  0  0  0  0  0  0  0  0  0  0  0
   29.6400   49.0100   -6.5910 C   0  0  0  0  0  0  0  0  0  0  0  0
   30.1300   50.4810   -4.7430 C   0  0  0  0  0  0  0  0  0  0  0  0
   29.5390   51.5350   -5.4500 C   0  0  0  0  0  0  0  0  0  0  0  0
   29.0510   50.0730   -7.2860 C   0  0  0  0  0  0  0  0  0  0  0  0
   29.4640   52.8920   -4.8810 C   0  0  0  0  0  0  0  0  0  0  0  0
   28.9950   51.3470   -6.7210 C   0  0  0  0  0  0  0  0  0  0  0  0
   29.8520   53.1580   -3.7490 O   0  0  0  0  0  0  0  0  0  0  0  0
   28.9270   53.8480   -5.7050 N   0  0  0  0  0  0  0  0  0  0  0  0
   28.3970   52.3910   -7.4510 N   0  0  0  0  0  0  0  0  0  0  0  0
   28.3870   53.5740   -6.9260 C   0  0  0  0  0  0  0  0  0  0  0  0
   27.8230   54.6130   -7.5890 N   0  0  0  0  0  0  0  0  0  0  0  0
  1  2  1  0
  2  3  2  0
  2  4  1  0
  3  5  1  0
  3  6  1  0
  4  7  2  0
  6  8  1  0
  5  9  1  0
  6 10  2  0
  7 10  1  0
  9 11  1  0
  8 12  1  0
 11 13  1  0
 11 14  2  0
 12 15  1  0
 15 16  1  0
 16 17  2  0
 16 18  1  0
 18 19  2  0
 17 20  1  0
 19 21  1  0
 19 22  1  0
 20 22  2  0
 21 23  2  0
 21 24  1  0
 22 25  1  0
 24 26  1  0
 25 26  2  0
 26 27  1  0
M  END
