mac-x0365-mac-x0455
     RDKit          3D

 20 21  0  0  0  0  0  0  0  0999 V2000
   30.2290   47.1130   -5.6820 C   0  0  0  0  0  0  0  0  0  0  0  0
   30.6240   48.2040   -4.7530 C   0  0  0  0  0  0  0  0  0  0  0  0
   31.6650   48.0780   -3.9030 C   0  0  0  0  0  0  0  0  0  0  0  0
   29.2110   46.4400   -5.6210 O   0  0  0  0  0  0  0  0  0  0  0  0
   31.1480   46.9060   -6.6460 O   0  0  0  0  0  0  0  0  0  0  0  0
   29.9650   49.5380   -4.7140 C   0  0  0  0  0  0  0  0  0  0  0  0
   31.9520   49.1250   -3.0680 O   0  0  0  0  0  0  0  0  0  0  0  0
   29.9690   50.2680   -3.5110 C   0  0  0  0  0  0  0  0  0  0  0  0
   29.3570   50.1190   -5.8480 C   0  0  0  0  0  0  0  0  0  0  0  0
   32.6510   47.0210   -3.6640 C   0  0  0  0  0  0  0  0  0  0  0  0
   29.4000   51.5320   -3.4550 C   0  0  0  0  0  0  0  0  0  0  0  0
   28.7840   51.4000   -5.7770 C   0  0  0  0  0  0  0  0  0  0  0  0
   33.9530   47.4990   -3.4640 C   0  0  0  0  0  0  0  0  0  0  0  0
   32.4060   45.6470   -3.6210 C   0  0  0  0  0  0  0  0  0  0  0  0
   29.4210   52.2170   -2.3030 F   0  0  0  0  0  0  0  0  0  0  0  0
   28.8130   52.1000   -4.5770 C   0  0  0  0  0  0  0  0  0  0  0  0
   35.0060   46.6360   -3.2250 C   0  0  0  0  0  0  0  0  0  0  0  0
   33.4790   44.7730   -3.3780 C   0  0  0  0  0  0  0  0  0  0  0  0
   28.2630   53.3480   -4.5200 O   0  0  0  0  0  0  0  0  0  0  0  0
   34.7720   45.2700   -3.1820 C   0  0  0  0  0  0  0  0  0  0  0  0
  1  2  1  0
  2  3  2  3
  1  4  2  0
  1  5  1  0
  2  6  1  0
  3  7  1  0
  6  8  2  0
  6  9  1  0
  3 10  1  0
  8 11  1  0
  9 12  2  0
 10 13  2  0
 10 14  1  0
 11 15  1  0
 11 16  2  0
 12 16  1  0
 13 17  1  0
 14 18  2  0
 16 19  1  0
 17 20  2  0
 18 20  1  0
M  END
