mac-x0223-mac-x0333
     RDKit          3D

 23 25  0  0  0  0  0  0  0  0999 V2000
   27.6700   43.5670   -2.3240 C   0  0  0  0  0  0  0  0  0  0  0  0
   27.6610   44.9790   -2.1470 O   0  0  0  0  0  0  0  0  0  0  0  0
   28.7750   45.6610   -2.5740 C   0  0  0  0  0  0  0  0  0  0  0  0
   28.7900   47.0240   -2.2460 C   0  0  0  0  0  0  0  0  0  0  0  0
   29.8490   45.1190   -3.2840 C   0  0  0  0  0  0  0  0  0  0  0  0
   27.7350   47.5550   -1.5470 O   0  0  0  0  0  0  0  0  0  0  0  0
   29.8590   47.8360   -2.6200 C   0  0  0  0  0  0  0  0  0  0  0  0
   30.9380   45.9260   -3.6700 C   0  0  0  0  0  0  0  0  0  0  0  0
   32.0990   45.3240   -4.4370 C   0  0  0  0  0  0  0  0  0  0  0  0
   29.8340   49.1680   -2.2760 O   0  0  0  0  0  0  0  0  0  0  0  0
   30.9330   47.2890   -3.3310 C   0  0  0  0  0  0  0  0  0  0  0  0
   32.2340   45.7920   -5.8680 C   0  0  0  0  0  0  0  0  0  0  0  0
   29.6410   50.0620   -3.3060 C   0  0  0  0  0  0  0  0  0  0  0  0
   32.9940   46.6330   -6.3190 O   0  0  0  0  0  0  0  0  0  0  0  0
   31.3770   45.1520   -6.6940 O   0  0  0  0  0  0  0  0  0  0  0  0
   30.0490   51.3820   -3.0820 C   0  0  0  0  0  0  0  0  0  0  0  0
   29.0610   49.6870   -4.5350 C   0  0  0  0  0  0  0  0  0  0  0  0
   29.8620   52.2850   -4.1040 C   0  0  0  0  0  0  0  0  0  0  0  0
   28.8850   50.6280   -5.5530 C   0  0  0  0  0  0  0  0  0  0  0  0
   29.2970   51.9190   -5.3030 C   0  0  0  0  0  0  0  0  0  0  0  0
   30.1950   53.6050   -4.0690 O   0  0  0  0  0  0  0  0  0  0  0  0
   29.2050   52.9640   -6.1730 O   0  0  0  0  0  0  0  0  0  0  0  0
   29.6670   54.0460   -5.3380 C   0  0  0  0  0  0  0  0  0  0  0  0
  1  2  1  0
  2  3  1  0
  3  4  2  0
  3  5  1  0
  4  6  1  0
  4  7  1  0
  5  8  2  0
  8  9  1  0
  7 10  1  0
  7 11  2  0
  8 11  1  0
  9 12  1  0
 10 13  1  0
 12 14  2  0
 12 15  1  0
 13 16  2  0
 13 17  1  0
 16 18  1  0
 17 19  2  0
 18 20  2  0
 19 20  1  0
 18 21  1  0
 20 22  1  0
 21 23  1  0
 22 23  1  0
M  END
