mac-x0224-mac-x0433
     RDKit          3D

 20 21  0  0  0  0  0  0  0  0999 V2000
   27.2970   50.8430   -6.4190 C   0  0  0  0  0  0  0  0  0  0  0  0
   29.0110   50.8560   -6.0400 S   0  0  2  0  0  0  0  0  0  0  0  0
   29.3410   49.3990   -5.1430 C   0  0  0  0  0  0  0  0  0  0  0  0
   29.3700   52.2690   -5.1010 C   0  0  0  0  0  0  0  0  0  0  0  0
   29.9460   48.3110   -5.7700 C   0  0  0  0  0  0  0  0  0  0  0  0
   28.9840   49.3610   -3.8000 C   0  0  0  0  0  0  0  0  0  0  0  0
   29.7110   51.9890   -3.8400 N   0  0  0  0  0  0  0  0  0  0  0  0
   29.2900   53.5130   -5.6600 C   0  0  0  0  0  0  0  0  0  0  0  0
   30.2080   47.1430   -5.0340 C   0  0  0  0  0  0  0  0  0  0  0  0
   29.2400   48.2080   -3.0610 C   0  0  0  0  0  0  0  0  0  0  0  0
   29.9930   53.0500   -3.0870 C   0  0  0  0  0  0  0  0  0  0  0  0
   29.6020   54.5390   -4.7970 C   0  0  0  0  0  0  0  0  0  0  0  0
   30.8580   46.0060   -5.7550 C   0  0  0  0  0  0  0  0  0  0  0  0
   29.5600   55.9610   -5.2660 C   0  0  0  0  0  0  0  0  0  0  0  0
   30.3510   52.8250   -1.7760 N   0  0  0  0  0  0  0  0  0  0  0  0
   29.8470   47.1070   -3.6760 C   0  0  0  0  0  0  0  0  0  0  0  0
   29.9540   54.3210   -3.5100 N   0  0  0  0  0  0  0  0  0  0  0  0
   30.0890   45.9820   -2.9280 O   0  0  0  0  0  0  0  0  0  0  0  0
   30.6600   45.7720   -6.9380 O   0  0  0  0  0  0  0  0  0  0  0  0
   31.6860   45.2470   -5.0060 O   0  0  0  0  0  0  0  0  0  0  0  0
  2  1  1  1
  2  3  1  0
  2  4  1  0
  3  5  2  0
  3  6  1  0
  4  7  2  0
  4  8  1  0
  5  9  1  0
  6 10  2  0
  7 11  1  0
  8 12  2  0
  9 13  1  0
 12 14  1  0
 11 15  1  0
  9 16  2  0
 10 16  1  0
 11 17  2  0
 12 17  1  0
 16 18  1  0
 13 19  2  0
 13 20  1  0
M  END
