mac-x0441-mac-x0161
     RDKit          3D

 34 38  0  0  0  0  0  0  0  0999 V2000
   33.0660   43.0170   -6.0130 O   0  0  0  0  0  0  0  0  0  0  0  0
   32.6490   43.1090   -4.7270 C   0  0  0  0  0  0  0  0  0  0  0  0
   32.0830   42.1650   -4.1810 O   0  0  0  0  0  0  0  0  0  0  0  0
   32.9180   44.4170   -4.0130 C   0  0  0  0  0  0  0  0  0  0  0  0
   34.2250   44.5200   -3.3730 N   0  0  0  0  0  0  0  0  0  0  0  0
   35.0730   43.4560   -3.4490 N   0  0  0  0  0  0  0  0  0  0  0  0
   34.7760   45.5630   -2.6690 C   0  0  0  0  0  0  0  0  0  0  0  0
   36.1870   43.8360   -2.7750 C   0  0  0  0  0  0  0  0  0  0  0  0
   36.0310   45.1570   -2.2730 C   0  0  0  0  0  0  0  0  0  0  0  0
   34.2020   46.9150   -2.3410 C   0  0  1  0  0  0  0  0  0  0  0  0
   37.4040   42.9540   -2.6020 C   0  0  0  0  0  0  0  0  0  0  0  0
   36.9670   46.0030   -1.4780 C   0  0  0  0  0  0  0  0  0  0  0  0
   35.4130   47.9020   -2.3720 C   0  0  1  0  0  0  0  0  0  0  0  0
   33.0380   47.3230   -3.2150 C   0  0  0  0  0  0  0  0  0  0  0  0
   38.1790   42.8720   -3.7150 F   0  0  0  0  0  0  0  0  0  0  0  0
   38.2070   43.4030   -1.5980 F   0  0  0  0  0  0  0  0  0  0  0  0
   37.0620   41.6780   -2.2710 F   0  0  0  0  0  0  0  0  0  0  0  0
   36.5380   47.4920   -1.3810 C   0  0  0  0  0  0  0  0  0  0  0  0
   31.6820   46.9100   -3.1560 C   0  0  0  0  0  0  0  0  0  0  0  0
   33.2240   48.1990   -4.2130 N   0  0  0  0  0  0  0  0  0  0  0  0
   35.9840   48.1180   -3.7770 C   0  0  0  0  0  0  0  0  0  0  0  0
   31.0650   47.5890   -4.1810 C   0  0  0  0  0  0  0  0  0  0  0  0
   31.9860   48.3640   -4.8160 O   0  0  0  0  0  0  0  0  0  0  0  0
   29.6590   47.6210   -4.6910 C   0  0  0  0  0  0  0  0  0  0  0  0
   29.1510   48.9590   -5.0400 N   0  0  0  0  0  0  0  0  0  0  0  0
   29.6170   50.0190   -4.1340 C   0  0  0  0  0  0  0  0  0  0  0  0
   29.2880   49.3430   -6.4380 C   0  0  2  0  0  0  0  0  0  0  0  0
   28.8930   51.2590   -4.3770 N   0  0  0  0  0  0  0  0  0  0  0  0
   28.6280   50.6710   -6.7800 C   0  0  2  0  0  0  0  0  0  0  0  0
   28.6310   48.4870   -7.4170 N   0  0  0  0  0  0  0  0  0  0  0  0
   29.0850   51.7200   -5.7350 C   0  0  1  0  0  0  0  0  0  0  0  0
   27.2030   50.2950   -6.8580 N   0  0  0  0  0  0  0  0  0  0  0  0
   27.2330   48.9200   -7.3670 C   0  0  0  0  0  0  0  0  0  0  0  0
   28.3450   52.9590   -5.7900 N   0  0  0  0  0  0  0  0  0  0  0  0
  1  2  1  0
  2  3  2  0
  2  4  1  0
  4  5  1  0
  5  6  1  0
  5  7  1  0
  6  8  2  0
  7  9  2  0
  8  9  1  0
  7 10  1  0
  8 11  1  0
  9 12  1  0
 10 13  1  0
 10 14  1  6
 11 15  1  0
 11 16  1  0
 11 17  1  0
 12 18  1  0
 13 18  1  0
 14 19  1  0
 14 20  2  0
 13 21  1  6
 19 22  2  0
 20 23  1  0
 22 23  1  0
 22 24  1  0
 24 25  1  0
 25 26  1  0
 25 27  1  0
 26 28  1  0
 27 29  1  0
 27 30  1  6
 28 31  1  0
 29 31  1  0
 29 32  1  1
 30 33  1  0
 32 33  1  0
 31 34  1  1
M  END
