mac-x0333-mac-x0302
     RDKit          3D

 17 18  0  0  0  0  0  0  0  0999 V2000
   29.9410   48.4500   -4.0770 N   0  0  0  0  0  0  0  0  0  0  0  0
   31.0970   47.6590   -4.5370 C   0  0  0  0  0  0  0  0  0  0  0  0
   30.8100   46.3410   -5.2660 C   0  0  0  0  0  0  0  0  0  0  0  0
   29.6060   48.1510   -2.7850 C   0  0  0  0  0  0  0  0  0  0  0  0
   29.7420   49.8250   -4.4500 C   0  0  0  0  0  0  0  0  0  0  0  0
   29.7590   48.9190   -1.8450 O   0  0  0  0  0  0  0  0  0  0  0  0
   30.1510   50.8570   -3.5700 C   0  0  0  0  0  0  0  0  0  0  0  0
   29.1320   50.2180   -5.6720 C   0  0  0  0  0  0  0  0  0  0  0  0
   30.7990   45.2190   -4.5140 O   0  0  0  0  0  0  0  0  0  0  0  0
   30.6060   46.2490   -6.4660 O   0  0  0  0  0  0  0  0  0  0  0  0
   29.9440   52.1790   -3.9240 C   0  0  0  0  0  0  0  0  0  0  0  0
   28.9580   51.5860   -5.9570 C   0  0  0  0  0  0  0  0  0  0  0  0
   28.4040   52.1050   -7.0510 O   0  0  0  0  0  0  0  0  0  0  0  0
   29.3610   52.5180   -5.0910 C   0  0  0  0  0  0  0  0  0  0  0  0
   30.2730   53.2820   -3.1990 O   0  0  0  0  0  0  0  0  0  0  0  0
   29.2370   53.8540   -5.2780 O   0  0  0  0  0  0  0  0  0  0  0  0
   29.9890   54.3280   -4.1570 C   0  0  0  0  0  0  0  0  0  0  0  0
  1  2  1  0
  2  3  1  0
  1  4  1  0
  1  5  1  0
  4  6  2  0
  5  7  2  0
  5  8  1  0
  3  9  1  0
  3 10  2  0
  7 11  1  0
  8 12  2  0
 12 13  1  0
 11 14  2  0
 12 14  1  0
 11 15  1  0
 14 16  1  0
 15 17  1  0
 16 17  1  0
M  END
