mac-x0587-mac-x0161
     RDKit          3D

 26 28  0  0  0  0  0  0  0  0999 V2000
   29.0800   45.5660   -3.1040 C   0  0  0  0  0  0  0  0  0  0  0  0
   30.0600   46.2520   -4.0670 C   0  0  2  0  0  0  0  0  0  0  0  0
   31.5600   45.1280   -4.1520 S   0  0  0  0  0  0  0  0  0  0  0  0
   30.3000   47.7980   -3.7640 C   0  0  2  0  0  0  0  0  0  0  0  0
   32.7140   45.9930   -5.2820 C   0  0  0  0  0  0  0  0  0  0  0  0
   29.9410   48.0560   -2.3910 O   0  0  0  0  0  0  0  0  0  0  0  0
   29.5730   48.7380   -4.6180 N   0  0  0  0  0  0  0  0  0  0  0  0
   31.7930   47.9470   -3.7920 C   0  0  0  0  0  0  0  0  0  0  0  0
   33.0940   45.1310   -6.4680 C   0  0  0  0  0  0  0  0  0  0  0  0
   29.5000   50.1670   -4.3070 C   0  0  0  0  0  0  0  0  0  0  0  0
   29.2640   48.5890   -6.0020 C   0  0  2  0  0  0  0  0  0  0  0  0
   32.7870   47.6810   -2.8840 C   0  0  0  0  0  0  0  0  0  0  0  0
   32.3570   48.4320   -4.9320 O   0  0  0  0  0  0  0  0  0  0  0  0
   34.2440   44.9990   -6.8670 O   0  0  0  0  0  0  0  0  0  0  0  0
   32.0500   44.5170   -7.0720 O   0  0  0  0  0  0  0  0  0  0  0  0
   30.3140   47.9630   -6.6710 O   0  0  0  0  0  0  0  0  0  0  0  0
   28.5890   50.7120   -5.4210 C   0  0  2  0  0  0  0  0  0  0  0  0
   29.0440   49.9180   -6.5660 N   0  0  0  0  0  0  0  0  0  0  0  0
   28.0740   47.8760   -6.3210 N   0  0  0  0  0  0  0  0  0  0  0  0
   33.7280   48.4810   -4.7880 N   0  0  0  0  0  0  0  0  0  0  0  0
   33.9620   48.0270   -3.5580 C   0  0  0  0  0  0  0  0  0  0  0  0
   28.7310   52.1480   -5.6620 N   0  0  0  0  0  0  0  0  0  0  0  0
   35.2080   47.9290   -3.0620 O   0  0  0  0  0  0  0  0  0  0  0  0
   28.0240   49.7680   -7.6260 N   0  0  0  0  0  0  0  0  0  0  0  0
   27.8100   48.3290   -7.6780 C   0  0  0  0  0  0  0  0  0  0  0  0
   35.2700   47.9540   -1.6440 C   0  0  0  0  0  0  0  0  0  0  0  0
  2  1  1  1
  2  3  1  0
  2  4  1  0
  3  5  1  0
  4  6  1  1
  4  7  1  0
  4  8  1  0
  5  9  1  0
  7 10  1  0
  7 11  1  0
  8 12  2  0
  8 13  1  0
  9 14  2  0
  9 15  1  0
 11 16  1  6
 10 17  1  0
 11 18  1  0
 17 18  1  0
 11 19  1  0
 13 20  1  0
 12 21  1  0
 20 21  2  0
 17 22  1  6
 21 23  1  0
 18 24  1  0
 19 25  1  0
 24 25  1  0
 23 26  1  0
M  END
