mac-x0303-mac-x0436
     RDKit          3D

 31 34  0  0  0  0  0  0  0  0999 V2000
   29.9860   56.6140   -6.8850 N   0  0  0  0  0  0  0  0  0  0  0  0
   28.7650   56.1260   -5.8280 S   0  0  0  0  0  0  0  0  0  0  0  0
   27.5240   56.0440   -6.5550 O   0  0  0  0  0  0  0  0  0  0  0  0
   28.9290   56.8880   -4.6110 O   0  0  0  0  0  0  0  0  0  0  0  0
   29.1650   54.4670   -5.3860 C   0  0  0  0  0  0  0  0  0  0  0  0
   29.3090   54.0600   -4.0860 N   0  0  0  0  0  0  0  0  0  0  0  0
   29.3690   53.4670   -6.2290 N   0  0  0  0  0  0  0  0  0  0  0  0
   29.6330   52.7290   -4.1060 C   0  0  0  0  0  0  0  0  0  0  0  0
   29.6610   52.4060   -5.4080 C   0  0  0  0  0  0  0  0  0  0  0  0
   29.8930   51.8430   -3.0720 C   0  0  0  0  0  0  0  0  0  0  0  0
   29.9700   51.1110   -5.6450 C   0  0  0  0  0  0  0  0  0  0  0  0
   30.2500   50.4440   -3.1220 C   0  0  0  0  0  0  0  0  0  0  0  0
   30.2340   50.2540   -4.5620 C   0  0  0  0  0  0  0  0  0  0  0  0
   30.6070   49.0120   -3.4310 C   0  0  0  0  0  0  0  0  0  0  0  0
   32.1300   48.8670   -3.6470 C   0  0  0  0  0  0  0  0  0  0  0  0
   32.4990   47.4600   -3.6300 N   0  0  0  0  0  0  0  0  0  0  0  0
   33.7200   47.0780   -3.4580 C   0  0  0  0  0  0  0  0  0  0  0  0
   33.8790   45.5520   -3.4710 C   0  0  0  0  0  0  0  0  0  0  0  0
   34.8640   47.8290   -3.2670 N   0  0  0  0  0  0  0  0  0  0  0  0
   32.6680   44.7270   -3.8450 C   0  0  0  0  0  0  0  0  0  0  0  0
   36.0590   47.1810   -2.8830 C   0  0  0  0  0  0  0  0  0  0  0  0
   35.0020   44.9650   -3.1760 N   0  0  0  0  0  0  0  0  0  0  0  0
   32.8480   44.1010   -5.2170 C   0  0  0  0  0  0  0  0  0  0  0  0
   36.1070   45.7690   -2.8420 C   0  0  0  0  0  0  0  0  0  0  0  0
   37.1980   47.9210   -2.5420 C   0  0  0  0  0  0  0  0  0  0  0  0
   32.4380   45.0130   -6.3450 C   0  0  0  0  0  0  0  0  0  0  0  0
   37.2900   45.1320   -2.4590 C   0  0  0  0  0  0  0  0  0  0  0  0
   38.3750   47.2680   -2.1600 C   0  0  0  0  0  0  0  0  0  0  0  0
   33.5120   45.5170   -6.9900 O   0  0  0  0  0  0  0  0  0  0  0  0
   31.3100   45.3160   -6.7040 O   0  0  0  0  0  0  0  0  0  0  0  0
   38.4200   45.8740   -2.1190 C   0  0  0  0  0  0  0  0  0  0  0  0
  2  1  1  0
  2  3  2  0
  2  4  2  0
  2  5  1  0
  5  6  1  0
  5  7  2  0
  6  8  1  0
  7  9  1  0
  8  9  2  0
  8 10  1  0
  9 11  1  0
 10 12  2  0
 11 13  2  0
 12 13  1  0
 12 14  1  0
 14 15  1  0
 15 16  1  0
 16 17  2  3
 17 18  1  0
 17 19  1  0
 18 20  1  0
 19 21  1  0
 18 22  2  0
 20 23  1  0
 21 24  2  0
 22 24  1  0
 21 25  1  0
 23 26  1  0
 24 27  1  0
 25 28  2  0
 26 29  1  0
 26 30  2  0
 27 31  2  0
 28 31  1  0
M  END
