mac-x0404-mac-x0451
     RDKit          3D

 28 31  0  0  0  0  0  0  0  0999 V2000
   31.8770   45.0530   -6.8300 O   0  0  0  0  0  0  0  0  0  0  0  0
   32.5860   45.6690   -5.7690 C   0  0  0  0  0  0  0  0  0  0  0  0
   33.8410   46.0140   -6.3480 O   0  0  0  0  0  0  0  0  0  0  0  0
   32.8270   44.6590   -4.6170 C   0  0  0  0  0  0  0  0  0  0  0  0
   31.8690   46.9660   -5.3590 C   0  0  0  0  0  0  0  0  0  0  0  0
   31.6620   44.5060   -3.8010 O   0  0  0  0  0  0  0  0  0  0  0  0
   30.4490   46.8050   -4.8190 C   0  0  0  0  0  0  0  0  0  0  0  0
   29.5140   47.4210   -5.6860 O   0  0  0  0  0  0  0  0  0  0  0  0
   31.3460   45.5190   -2.9240 C   0  0  0  0  0  0  0  0  0  0  0  0
   30.0470   45.4650   -2.3500 C   0  0  0  0  0  0  0  0  0  0  0  0
   32.2150   46.5640   -2.5850 C   0  0  0  0  0  0  0  0  0  0  0  0
   29.5390   48.7840   -5.6590 C   0  0  0  0  0  0  0  0  0  0  0  0
   29.6540   46.4770   -1.4430 C   0  0  0  0  0  0  0  0  0  0  0  0
   31.8120   47.5530   -1.6910 C   0  0  0  0  0  0  0  0  0  0  0  0
   29.1180   44.4420   -2.6440 C   0  0  0  0  0  0  0  0  0  0  0  0
   29.8520   49.5470   -4.5320 C   0  0  0  0  0  0  0  0  0  0  0  0
   29.2220   49.3860   -6.8720 C   0  0  0  0  0  0  0  0  0  0  0  0
   30.5450   47.5110   -1.1250 C   0  0  0  0  0  0  0  0  0  0  0  0
   28.3750   46.4420   -0.8640 C   0  0  0  0  0  0  0  0  0  0  0  0
   27.8500   44.4200   -2.0610 C   0  0  0  0  0  0  0  0  0  0  0  0
   29.2190   50.7810   -6.9390 C   0  0  0  0  0  0  0  0  0  0  0  0
   29.8450   50.9450   -4.6140 C   0  0  0  0  0  0  0  0  0  0  0  0
   27.4780   45.4190   -1.1710 C   0  0  0  0  0  0  0  0  0  0  0  0
   29.5240   51.5790   -5.8320 C   0  0  0  0  0  0  0  0  0  0  0  0
   28.8690   51.7970   -8.2810 S   0  0  0  0  0  0  0  0  0  0  0  0
   29.1410   53.1780   -7.3050 C   0  0  0  0  0  0  0  0  0  0  0  0
   29.4740   52.9420   -6.0620 N   0  0  0  0  0  0  0  0  0  0  0  0
   29.0150   54.4160   -7.8060 N   0  0  0  0  0  0  0  0  0  0  0  0
  2  1  1  0
  2  3  1  0
  2  4  1  0
  2  5  1  0
  4  6  1  0
  5  7  1  0
  7  8  1  0
  6  9  1  0
  9 10  1  0
  9 11  2  0
  8 12  1  0
 10 13  2  0
 11 14  1  0
 10 15  1  0
 12 16  2  0
 12 17  1  0
 13 18  1  0
 14 18  2  0
 13 19  1  0
 15 20  2  0
 17 21  2  0
 16 22  1  0
 19 23  2  0
 20 23  1  0
 21 24  1  0
 22 24  2  0
 21 25  1  0
 25 26  1  0
 24 27  1  0
 26 27  2  0
 26 28  1  0
M  END
