mac-x0263-mac-x0453
     RDKit          3D

 22 24  0  0  0  0  0  0  0  0999 V2000
   28.0330   60.3570   -6.4580 O   0  0  0  0  0  0  0  0  0  0  0  0
   26.8820   59.6580   -6.4060 C   0  0  0  0  0  0  0  0  0  0  0  0
   25.8820   60.0700   -6.9700 O   0  0  0  0  0  0  0  0  0  0  0  0
   27.0170   58.3940   -5.6070 C   0  0  0  0  0  0  0  0  0  0  0  0
   28.1410   57.5220   -6.1610 C   0  0  0  0  0  0  0  0  0  0  0  0
   27.9700   56.0860   -5.7970 C   0  0  0  0  0  0  0  0  0  0  0  0
   26.8870   55.6370   -5.0850 N   0  0  0  0  0  0  0  0  0  0  0  0
   28.7790   55.0910   -6.0850 N   0  0  0  0  0  0  0  0  0  0  0  0
   27.0130   54.2840   -4.9100 C   0  0  0  0  0  0  0  0  0  0  0  0
   28.2070   53.9570   -5.5450 C   0  0  0  0  0  0  0  0  0  0  0  0
   26.1960   53.3550   -4.2680 C   0  0  0  0  0  0  0  0  0  0  0  0
   28.6540   52.6170   -5.5580 C   0  0  0  0  0  0  0  0  0  0  0  0
   29.9390   52.1370   -6.2130 C   0  0  2  0  0  0  0  0  0  0  0  0
   26.6290   52.0310   -4.2770 C   0  0  0  0  0  0  0  0  0  0  0  0
   27.8230   51.6700   -4.9050 C   0  0  0  0  0  0  0  0  0  0  0  0
   29.9680   52.1560   -7.7600 C   0  0  0  0  0  0  0  0  0  0  0  0
   30.1960   50.7730   -5.6290 C   0  0  0  0  0  0  0  0  0  0  0  0
   30.9530   53.0940   -8.3320 N   0  0  0  0  0  0  0  0  0  0  0  0
   29.9850   49.5170   -6.1650 C   0  0  0  0  0  0  0  0  0  0  0  0
   30.7270   50.6490   -4.3560 N   0  0  0  0  0  0  0  0  0  0  0  0
   30.3910   48.6330   -5.2070 N   0  0  0  0  0  0  0  0  0  0  0  0
   30.8290   49.3590   -4.1370 C   0  0  0  0  0  0  0  0  0  0  0  0
  1  2  1  0
  2  3  2  0
  2  4  1  0
  4  5  1  0
  5  6  1  0
  6  7  1  0
  6  8  2  0
  7  9  1  0
  8 10  1  0
  9 10  2  0
  9 11  1  0
 10 12  1  0
 12 13  1  0
 11 14  2  0
 12 15  2  0
 14 15  1  0
 13 16  1  6
 13 17  1  0
 16 18  1  0
 17 19  2  0
 17 20  1  0
 19 21  1  0
 20 22  2  0
 21 22  1  0
M  END
