mac-x0385-mac-x0375
     RDKit          3D

 22 23  0  0  0  0  0  0  0  0999 V2000
   29.2390   51.6720   -2.6370 C   0  0  0  0  0  0  0  0  0  0  0  0
   29.1490   50.5550   -3.6210 C   0  0  0  0  0  0  0  0  0  0  0  0
   29.2940   49.2380   -3.2360 C   0  0  0  0  0  0  0  0  0  0  0  0
   28.9190   50.7490   -4.9710 C   0  0  0  0  0  0  0  0  0  0  0  0
   28.7520   52.0260   -5.5060 N   0  0  0  0  0  0  0  0  0  0  0  0
   28.8390   49.7430   -5.8520 N   0  0  0  0  0  0  0  0  0  0  0  0
   29.2210   48.1950   -4.0820 N   0  0  0  0  0  0  0  0  0  0  0  0
   28.9960   48.4960   -5.3710 C   0  0  0  0  0  0  0  0  0  0  0  0
   28.9090   47.3590   -6.3520 C   0  0  0  0  0  0  0  0  0  0  0  0
   29.8030   46.1910   -5.9250 C   0  0  0  0  0  0  0  0  0  0  0  0
   31.1380   46.1960   -6.6650 C   0  0  0  0  0  0  0  0  0  0  0  0
   31.7270   44.8840   -6.6720 O   0  0  0  0  0  0  0  0  0  0  0  0
   33.0270   44.8090   -6.2460 C   0  0  0  0  0  0  0  0  0  0  0  0
   33.9530   44.3720   -6.9150 O   0  0  0  0  0  0  0  0  0  0  0  0
   33.1170   45.3500   -4.8260 C   0  0  0  0  0  0  0  0  0  0  0  0
   34.2700   44.8480   -4.1600 O   0  0  0  0  0  0  0  0  0  0  0  0
   35.1810   45.7630   -3.7050 C   0  0  0  0  0  0  0  0  0  0  0  0
   36.5700   45.6550   -3.7970 C   0  0  0  0  0  0  0  0  0  0  0  0
   34.6250   46.8940   -3.0980 C   0  0  0  0  0  0  0  0  0  0  0  0
   37.3900   46.6680   -3.2880 C   0  0  0  0  0  0  0  0  0  0  0  0
   35.4420   47.9050   -2.5900 C   0  0  0  0  0  0  0  0  0  0  0  0
   36.8270   47.7920   -2.6860 C   0  0  0  0  0  0  0  0  0  0  0  0
  1  2  1  0
  2  3  2  0
  2  4  1  0
  4  5  1  0
  4  6  2  0
  3  7  1  0
  6  8  1  0
  7  8  2  0
  8  9  1  0
  9 10  1  0
 10 11  1  0
 11 12  1  0
 12 13  1  0
 13 14  2  0
 13 15  1  0
 15 16  1  0
 16 17  1  0
 17 18  2  0
 17 19  1  0
 18 20  1  0
 19 21  2  0
 20 22  2  0
 21 22  1  0
M  END
