mac-x0441-mac-x0379
     RDKit          3D

 27 29  0  0  0  0  0  0  0  0999 V2000
   34.2710   45.6730   -6.0950 O   0  0  0  0  0  0  0  0  0  0  0  0
   32.9930   45.3500   -5.7810 C   0  0  0  0  0  0  0  0  0  0  0  0
   32.1110   45.5710   -6.5950 O   0  0  0  0  0  0  0  0  0  0  0  0
   32.8440   44.7090   -4.4200 C   0  0  2  0  0  0  0  0  0  0  0  0
   31.5860   45.1470   -3.6380 C   0  0  0  0  0  0  0  0  0  0  0  0
   34.0920   44.7080   -3.6490 N   0  0  0  0  0  0  0  0  0  0  0  0
   31.3360   46.5910   -3.6460 N   0  0  0  0  0  0  0  0  0  0  0  0
   34.4190   43.5360   -3.0680 N   0  0  0  0  0  0  0  0  0  0  0  0
   35.0370   45.6860   -3.3940 C   0  0  0  0  0  0  0  0  0  0  0  0
   30.3610   47.1690   -4.2480 C   0  0  0  0  0  0  0  0  0  0  0  0
   35.5820   43.7440   -2.4330 C   0  0  0  0  0  0  0  0  0  0  0  0
   36.0120   45.0840   -2.6110 C   0  0  0  0  0  0  0  0  0  0  0  0
   35.0570   47.1060   -3.8430 C   0  0  0  0  0  0  0  0  0  0  0  0
   36.2640   42.6450   -1.6670 C   0  0  0  0  0  0  0  0  0  0  0  0
   29.4830   46.3960   -4.9390 O   0  0  0  0  0  0  0  0  0  0  0  0
   37.2260   45.7910   -2.1130 C   0  0  0  0  0  0  0  0  0  0  0  0
   36.1030   47.8950   -3.0220 C   0  0  0  0  0  0  0  0  0  0  0  0
   30.0450   48.5670   -4.2960 C   0  0  0  0  0  0  0  0  0  0  0  0
   37.3640   42.1510   -2.2960 F   0  0  0  0  0  0  0  0  0  0  0  0
   36.6670   43.0470   -0.4310 F   0  0  0  0  0  0  0  0  0  0  0  0
   35.4250   41.5910   -1.4640 F   0  0  0  0  0  0  0  0  0  0  0  0
   37.4270   47.1260   -2.8540 C   0  0  0  0  0  0  0  0  0  0  0  0
   30.2130   49.4710   -3.2700 C   0  0  0  0  0  0  0  0  0  0  0  0
   29.3960   49.3760   -5.6600 S   0  0  0  0  0  0  0  0  0  0  0  0
   29.4030   50.8530   -4.7730 C   0  0  0  0  0  0  0  0  0  0  0  0
   29.8490   50.7700   -3.5370 N   0  0  0  0  0  0  0  0  0  0  0  0
   28.9270   52.1180   -5.3980 C   0  0  0  0  0  0  0  0  0  0  0  0
  1  2  1  0
  2  3  2  0
  2  4  1  0
  4  5  1  1
  4  6  1  0
  5  7  1  0
  6  8  1  0
  6  9  1  0
  7 10  2  3
  8 11  2  0
  9 12  2  0
 11 12  1  0
  9 13  1  0
 11 14  1  0
 10 15  1  0
 12 16  1  0
 13 17  1  0
 10 18  1  0
 14 19  1  0
 14 20  1  0
 14 21  1  0
 16 22  1  0
 17 22  1  0
 18 23  2  0
 18 24  1  0
 24 25  1  0
 23 26  1  0
 25 26  2  0
 25 27  1  0
M  END
