mac-x0360-mac-x0341
     RDKit          3D

 23 25  0  0  0  0  0  0  0  0999 V2000
   33.9940   55.7030   -5.0940 Cl  0  0  0  0  0  0  0  0  0  0  0  0
   33.9660   53.9850   -4.9660 C   0  0  0  0  0  0  0  0  0  0  0  0
   35.0340   53.2570   -4.5350 C   0  0  0  0  0  0  0  0  0  0  0  0
   32.8020   53.3100   -5.3180 C   0  0  0  0  0  0  0  0  0  0  0  0
   32.7360   51.9430   -5.2300 C   0  0  0  0  0  0  0  0  0  0  0  0
   34.9750   51.8800   -4.4450 C   0  0  0  0  0  0  0  0  0  0  0  0
   36.3430   50.9880   -3.8960 Cl  0  0  0  0  0  0  0  0  0  0  0  0
   31.2370   51.0460   -5.6830 S   0  0  0  0  0  0  0  0  0  0  0  0
   33.8110   51.1770   -4.7930 C   0  0  0  0  0  0  0  0  0  0  0  0
   30.6840   50.0610   -4.4310 N   0  0  0  0  0  0  0  0  0  0  0  0
   29.9790   52.3390   -6.0820 N   0  0  0  0  0  0  0  0  0  0  0  0
   31.5440   50.2030   -7.1160 O   0  0  0  0  0  0  0  0  0  0  0  0
   29.0690   52.2370   -6.9610 C   0  0  0  0  0  0  0  0  0  0  0  0
   28.0010   52.6960   -6.3070 N   0  0  0  0  0  0  0  0  0  0  0  0
   28.2740   51.0450   -6.9790 C   0  0  0  0  0  0  0  0  0  0  0  0
   26.9440   53.1200   -7.0330 C   0  0  0  0  0  0  0  0  0  0  0  0
   26.8970   50.9920   -7.3190 C   0  0  0  0  0  0  0  0  0  0  0  0
   28.8630   49.8230   -6.6550 C   0  0  0  0  0  0  0  0  0  0  0  0
   26.5660   54.4800   -7.1460 N   0  0  0  0  0  0  0  0  0  0  0  0
   26.3140   52.1460   -7.6250 N   0  0  0  0  0  0  0  0  0  0  0  0
   26.1630   49.8450   -7.3410 C   0  0  0  0  0  0  0  0  0  0  0  0
   28.1040   48.6720   -6.6820 C   0  0  0  0  0  0  0  0  0  0  0  0
   26.7510   48.6520   -7.0230 C   0  0  0  0  0  0  0  0  0  0  0  0
  1  2  1  0
  2  3  2  0
  2  4  1  0
  4  5  2  0
  3  6  1  0
  6  7  1  0
  5  8  1  0
  5  9  1  0
  6  9  2  0
  8 10  1  0
  8 11  1  0
  8 12  2  0
 11 13  2  3
 13 14  1  0
 13 15  1  0
 14 16  1  0
 15 17  2  0
 15 18  1  0
 16 19  1  0
 16 20  2  0
 17 20  1  0
 17 21  1  0
 18 22  2  0
 21 23  2  0
 22 23  1  0
M  END
