mac-x0124-mac-x0255
     RDKit          3D

 25 28  0  0  0  0  0  0  0  0999 V2000
   28.0440   47.1500   -4.4420 C   0  0  0  0  0  0  0  0  0  0  0  0
   28.4450   48.4280   -5.0080 N   0  0  0  0  0  0  0  0  0  0  0  0
   27.8590   49.6420   -4.6730 C   0  0  0  0  0  0  0  0  0  0  0  0
   28.6380   48.5030   -6.4750 C   0  0  1  0  0  0  0  0  0  0  0  0
   28.2190   50.6000   -5.5510 C   0  0  0  0  0  0  0  0  0  0  0  0
   29.1490   49.9580   -6.5640 C   0  0  2  0  0  0  0  0  0  0  0  0
   29.3810   47.5850   -7.3230 N   0  0  0  0  0  0  0  0  0  0  0  0
   30.7660   47.3800   -6.8800 C   0  0  0  0  0  0  0  0  0  0  0  0
   28.9550   50.3750   -8.0200 C   0  0  1  0  0  0  0  0  0  0  0  0
   29.3080   48.0640   -8.7030 C   0  0  0  0  0  0  0  0  0  0  0  0
   29.4890   51.6980   -8.2920 N   0  0  0  0  0  0  0  0  0  0  0  0
   31.1370   46.0040   -7.0530 O   0  0  0  0  0  0  0  0  0  0  0  0
   29.7090   49.4730   -8.8730 N   0  0  0  0  0  0  0  0  0  0  0  0
   32.3440   45.6660   -6.5160 C   0  0  0  0  0  0  0  0  0  0  0  0
   33.3520   46.3620   -6.5490 O   0  0  0  0  0  0  0  0  0  0  0  0
   32.2720   44.2980   -5.8700 C   0  0  0  0  0  0  0  0  0  0  0  0
   31.5920   44.3880   -4.5400 C   0  0  0  0  0  0  0  0  0  0  0  0
   30.3840   43.8370   -4.1570 C   0  0  0  0  0  0  0  0  0  0  0  0
   32.3120   45.2530   -3.2550 S   0  0  0  0  0  0  0  0  0  0  0  0
   30.0360   44.1240   -2.7970 C   0  0  0  0  0  0  0  0  0  0  0  0
   31.0160   44.9030   -2.1770 C   0  0  0  0  0  0  0  0  0  0  0  0
   28.8990   43.7480   -2.0380 C   0  0  0  0  0  0  0  0  0  0  0  0
   30.8940   45.3120   -0.8380 C   0  0  0  0  0  0  0  0  0  0  0  0
   28.7760   44.1520   -0.7080 C   0  0  0  0  0  0  0  0  0  0  0  0
   29.7630   44.9270   -0.1130 C   0  0  0  0  0  0  0  0  0  0  0  0
  1  2  1  0
  2  3  1  0
  4  2  1  1
  3  5  2  0
  4  6  1  0
  6  5  1  1
  4  7  1  0
  7  8  1  0
  6  9  1  0
  7 10  1  0
  9 11  1  1
  8 12  1  0
  9 13  1  0
 10 13  1  0
 12 14  1  0
 14 15  2  0
 14 16  1  0
 16 17  1  0
 17 18  2  0
 17 19  1  0
 18 20  1  0
 19 21  1  0
 20 21  2  0
 20 22  1  0
 21 23  1  0
 22 24  2  0
 23 25  2  0
 24 25  1  0
M  END
