mac-x0398-mac-x0231
     RDKit          3D

 26 28  0  0  0  0  0  0  0  0999 V2000
   28.7910   53.5090   -6.8400 N   0  0  0  0  0  0  0  0  0  0  0  0
   29.0050   52.5360   -5.8520 C   0  0  0  0  0  0  0  0  0  0  0  0
   28.9210   51.1590   -6.1350 C   0  0  0  0  0  0  0  0  0  0  0  0
   29.3110   52.9280   -4.5530 C   0  0  0  0  0  0  0  0  0  0  0  0
   29.5250   51.9750   -3.5550 C   0  0  0  0  0  0  0  0  0  0  0  0
   29.1360   50.1870   -5.1230 C   0  0  0  0  0  0  0  0  0  0  0  0
   29.8250   52.3910   -2.2920 O   0  0  0  0  0  0  0  0  0  0  0  0
   29.4400   50.6060   -3.8150 C   0  0  0  0  0  0  0  0  0  0  0  0
   29.6880   49.6770   -2.6550 C   0  0  0  0  0  0  0  0  0  0  0  0
   30.2520   50.1080   -1.6680 O   0  0  0  0  0  0  0  0  0  0  0  0
   29.2550   48.3580   -2.7810 O   0  0  0  0  0  0  0  0  0  0  0  0
   30.3740   47.5880   -3.0350 C   0  0  0  0  0  0  0  0  0  0  0  0
   30.3810   46.2320   -3.4270 C   0  0  0  0  0  0  0  0  0  0  0  0
   31.5620   48.3130   -2.8800 C   0  0  0  0  0  0  0  0  0  0  0  0
   31.6210   45.6800   -3.7320 C   0  0  0  0  0  0  0  0  0  0  0  0
   29.1980   45.3340   -3.5550 C   0  0  0  0  0  0  0  0  0  0  0  0
   32.7750   47.7220   -3.1390 C   0  0  0  0  0  0  0  0  0  0  0  0
   28.0320   45.7030   -3.4990 O   0  0  0  0  0  0  0  0  0  0  0  0
   31.6470   44.3050   -4.2530 C   0  0  0  0  0  0  0  0  0  0  0  0
   29.4960   43.9900   -3.6810 N   0  0  0  0  0  0  0  0  0  0  0  0
   32.8080   46.4120   -3.5780 C   0  0  0  0  0  0  0  0  0  0  0  0
   32.9140   43.8670   -4.9470 C   0  0  0  0  0  0  0  0  0  0  0  0
   30.6340   43.4950   -4.2290 N   0  0  0  0  0  0  0  0  0  0  0  0
   33.1190   44.7150   -6.1850 C   0  0  0  0  0  0  0  0  0  0  0  0
   34.4000   45.1000   -6.3630 O   0  0  0  0  0  0  0  0  0  0  0  0
   32.2680   45.0690   -6.9900 O   0  0  0  0  0  0  0  0  0  0  0  0
  1  2  1  0
  2  3  2  0
  2  4  1  0
  4  5  2  0
  3  6  1  0
  5  7  1  0
  5  8  1  0
  6  8  2  0
  8  9  1  0
  9 10  2  0
  9 11  1  0
 11 12  1  0
 12 13  1  0
 12 14  2  0
 13 15  2  0
 13 16  1  0
 14 17  1  0
 16 18  2  0
 15 19  1  0
 16 20  1  0
 15 21  1  0
 17 21  2  0
 19 22  1  0
 19 23  2  0
 20 23  1  0
 22 24  1  0
 24 25  1  0
 24 26  2  0
M  END
