mac-x0360-mac-x0263
     RDKit          3D

 25 27  0  0  0  0  0  0  0  0999 V2000
   31.7500   54.8560   -7.0150 Cl  0  0  0  0  0  0  0  0  0  0  0  0
   32.0440   53.2860   -6.3560 C   0  0  0  0  0  0  0  0  0  0  0  0
   33.3570   52.9170   -6.1130 C   0  0  0  0  0  0  0  0  0  0  0  0
   30.9900   52.3960   -6.0690 C   0  0  0  0  0  0  0  0  0  0  0  0
   31.2510   51.1110   -5.5280 C   0  0  0  0  0  0  0  0  0  0  0  0
   33.6190   51.6630   -5.5850 C   0  0  0  0  0  0  0  0  0  0  0  0
   35.2540   51.2070   -5.2830 Cl  0  0  0  0  0  0  0  0  0  0  0  0
   30.0230   49.8070   -5.0690 S   0  0  0  0  0  0  0  0  0  0  0  0
   32.5860   50.7690   -5.2950 C   0  0  0  0  0  0  0  0  0  0  0  0
   30.7040   48.5580   -5.9170 N   0  0  0  0  0  0  0  0  0  0  0  0
   28.7540   50.1910   -6.1460 N   0  0  0  0  0  0  0  0  0  0  0  0
   28.5380   51.4640   -5.9100 C   0  0  0  0  0  0  0  0  0  0  0  0
   28.3420   51.7820   -4.5570 C   0  0  0  0  0  0  0  0  0  0  0  0
   28.5230   52.4880   -6.8560 C   0  0  0  0  0  0  0  0  0  0  0  0
   28.3490   53.7970   -6.4310 C   0  0  0  0  0  0  0  0  0  0  0  0
   28.1530   53.0790   -4.0990 C   0  0  0  0  0  0  0  0  0  0  0  0
   28.1760   54.0620   -5.0780 C   0  0  0  0  0  0  0  0  0  0  0  0
   28.3280   54.9520   -7.1670 N   0  0  0  0  0  0  0  0  0  0  0  0
   28.1650   55.9050   -6.2860 C   0  0  0  0  0  0  0  0  0  0  0  0
   28.0570   55.4130   -5.0100 N   0  0  0  0  0  0  0  0  0  0  0  0
   28.1060   57.3440   -6.6000 C   0  0  0  0  0  0  0  0  0  0  0  0
   26.9880   58.0190   -5.8420 C   0  0  0  0  0  0  0  0  0  0  0  0
   26.7790   59.4220   -6.3300 C   0  0  0  0  0  0  0  0  0  0  0  0
   27.9000   60.1630   -6.4330 O   0  0  0  0  0  0  0  0  0  0  0  0
   25.6740   59.8560   -6.6170 O   0  0  0  0  0  0  0  0  0  0  0  0
  1  2  1  0
  2  3  2  0
  2  4  1  0
  4  5  2  0
  3  6  1  0
  6  7  1  0
  5  8  1  0
  5  9  1  0
  6  9  2  0
  8 10  1  0
  8 11  2  3
 11 12  1  0
 12 13  2  0
 12 14  1  0
 14 15  2  0
 13 16  1  0
 15 17  1  0
 16 17  2  0
 15 18  1  0
 18 19  2  0
 17 20  1  0
 19 20  1  0
 19 21  1  0
 21 22  1  0
 22 23  1  0
 23 24  1  0
 23 25  2  0
M  END
