mac-x0282-mac-x0380
     RDKit          3D

 18 20  0  0  0  0  0  0  0  0999 V2000
   28.5650   48.5440   -3.9030 O   0  0  0  0  0  0  0  0  0  0  0  0
   28.9310   49.8350   -3.7500 C   0  0  0  0  0  0  0  0  0  0  0  0
   28.8320   50.3690   -2.6640 O   0  0  0  0  0  0  0  0  0  0  0  0
   29.4750   50.3670   -5.0360 C   0  0  2  0  0  0  0  0  0  0  0  0
   29.0630   51.7880   -5.6830 C   0  0  1  0  0  0  0  0  0  0  0  0
   29.3010   49.4030   -6.1440 C   0  0  0  0  0  0  0  0  0  0  0  0
   29.1860   50.1130   -7.3170 C   0  0  0  0  0  0  0  0  0  0  0  0
   29.2820   51.5410   -7.1150 N   0  0  0  0  0  0  0  0  0  0  0  0
   29.2530   48.0150   -6.1320 C   0  0  0  0  0  0  0  0  0  0  0  0
   27.8160   52.5670   -5.6200 N   0  0  0  0  0  0  0  0  0  0  0  0
   30.0960   52.6520   -4.9930 C   0  0  0  0  0  0  0  0  0  0  0  0
   29.0780   47.3680   -7.3460 C   0  0  0  0  0  0  0  0  0  0  0  0
   29.0110   49.5130   -8.5030 N   0  0  0  0  0  0  0  0  0  0  0  0
   27.7730   53.9280   -5.9710 C   0  0  0  0  0  0  0  0  0  0  0  0
   29.9770   54.3520   -4.5610 S   0  0  0  0  0  0  0  0  0  0  0  0
   27.1720   54.4030   -6.9330 O   0  0  0  0  0  0  0  0  0  0  0  0
   28.9610   48.1510   -8.4920 C   0  0  0  0  0  0  0  0  0  0  0  0
   28.5010   54.9410   -5.1830 C   0  0  0  0  0  0  0  0  0  0  0  0
  1  2  1  0
  2  3  2  0
  4  2  1  1
  4  5  1  0
  4  6  1  0
  6  7  2  0
  5  8  1  0
  7  8  1  0
  6  9  1  0
  5 10  1  0
  5 11  1  1
  9 12  2  0
  7 13  1  0
 10 14  1  0
 11 15  2  0
 14 16  2  0
 12 17  1  0
 13 17  2  0
 14 18  1  0
 15 18  2  0
M  END
