mac-x0565-mac-x0415
     RDKit          3D

 25 28  0  0  0  0  0  0  0  0999 V2000
   29.6070   52.9910   -5.7750 O   0  0  0  0  0  0  0  0  0  0  0  0
   30.1060   52.8820   -4.5310 C   0  0  0  0  0  0  0  0  0  0  0  0
   30.5040   53.8570   -3.9210 O   0  0  0  0  0  0  0  0  0  0  0  0
   30.0790   51.4890   -4.0170 C   0  0  0  0  0  0  0  0  0  0  0  0
   29.4210   50.4760   -4.7140 C   0  0  0  0  0  0  0  0  0  0  0  0
   30.7290   51.2020   -2.7950 C   0  0  0  0  0  0  0  0  0  0  0  0
   29.4170   49.2190   -4.1550 C   0  0  0  0  0  0  0  0  0  0  0  0
   30.7100   49.9070   -2.2520 C   0  0  0  0  0  0  0  0  0  0  0  0
   30.0320   48.9170   -2.9450 C   0  0  0  0  0  0  0  0  0  0  0  0
   28.8040   48.1420   -4.7050 O   0  0  0  0  0  0  0  0  0  0  0  0
   29.7760   47.4590   -2.5890 C   0  0  1  0  0  0  0  0  0  0  0  0
   28.5040   47.4260   -3.4840 C   0  0  0  0  0  0  0  0  0  0  0  0
   30.4060   46.1900   -3.1670 C   0  0  0  0  0  0  0  0  0  0  0  0
   29.2630   47.3030   -1.1650 C   0  0  0  0  0  0  0  0  0  0  0  0
   29.0480   48.8520   -0.1160 Br  0  0  0  0  0  0  0  0  0  0  0  0
   31.3410   45.8730   -4.0690 C   0  0  0  0  0  0  0  0  0  0  0  0
   29.8800   44.9640   -2.6070 C   0  0  0  0  0  0  0  0  0  0  0  0
   28.9650   46.1030   -0.6750 C   0  0  0  0  0  0  0  0  0  0  0  0
   32.2800   46.6270   -4.9170 C   0  0  0  0  0  0  0  0  0  0  0  0
   31.1580   44.3990   -4.1400 C   0  0  0  0  0  0  0  0  0  0  0  0
   30.2470   43.8950   -3.3550 N   0  0  0  0  0  0  0  0  0  0  0  0
   29.1820   44.9090   -1.4580 C   0  0  0  0  0  0  0  0  0  0  0  0
   32.4870   45.9810   -6.2590 C   0  0  0  0  0  0  0  0  0  0  0  0
   33.7670   46.0210   -6.6790 O   0  0  0  0  0  0  0  0  0  0  0  0
   31.5900   45.4750   -6.9150 O   0  0  0  0  0  0  0  0  0  0  0  0
  1  2  1  0
  2  3  2  0
  2  4  1  0
  4  5  2  0
  4  6  1  0
  5  7  1  0
  6  8  2  0
  7  9  2  0
  8  9  1  0
  7 10  1  0
  9 11  1  0
 10 12  1  0
 11 12  1  6
 11 13  1  0
 11 14  1  0
 14 15  1  0
 13 16  2  0
 13 17  1  0
 14 18  2  0
 16 19  1  0
 16 20  1  0
 17 21  1  0
 20 21  2  0
 17 22  2  0
 18 22  1  0
 19 23  1  0
 23 24  1  0
 23 25  2  0
M  END
