mac-x0411-mac-x0373
     RDKit          3D

 28 30  0  0  0  0  0  0  0  0999 V2000
   36.4970   43.6440   -2.7220 Cl  0  0  0  0  0  0  0  0  0  0  0  0
   36.3630   45.3250   -3.0960 C   0  0  0  0  0  0  0  0  0  0  0  0
   35.5660   45.7750   -4.1580 C   0  0  0  0  0  0  0  0  0  0  0  0
   37.0730   46.2340   -2.3100 C   0  0  0  0  0  0  0  0  0  0  0  0
   34.8650   44.8760   -4.9320 O   0  0  0  0  0  0  0  0  0  0  0  0
   35.4970   47.1530   -4.4170 C   0  0  0  0  0  0  0  0  0  0  0  0
   36.9970   47.6020   -2.5750 C   0  0  0  0  0  0  0  0  0  0  0  0
   34.5470   47.7870   -5.7080 Cl  0  0  0  0  0  0  0  0  0  0  0  0
   33.4500   44.9900   -4.7170 C   0  0  0  0  0  0  0  0  0  0  0  0
   36.2100   48.0580   -3.6290 C   0  0  0  0  0  0  0  0  0  0  0  0
   32.7120   45.4450   -5.9740 C   0  0  0  0  0  0  0  0  0  0  0  0
   31.3660   45.2790   -5.8390 O   0  0  0  0  0  0  0  0  0  0  0  0
   33.3090   45.8820   -6.9500 O   0  0  0  0  0  0  0  0  0  0  0  0
   30.5980   46.1650   -5.1320 C   0  0  0  0  0  0  0  0  0  0  0  0
   29.5370   45.9030   -4.5730 O   0  0  0  0  0  0  0  0  0  0  0  0
   31.1960   47.5830   -5.1070 C   0  0  0  0  0  0  0  0  0  0  0  0
   32.2000   47.8550   -3.9840 C   0  0  0  0  0  0  0  0  0  0  0  0
   30.1530   48.7020   -5.2020 C   0  0  0  0  0  0  0  0  0  0  0  0
   32.3570   46.9210   -2.9470 C   0  0  0  0  0  0  0  0  0  0  0  0
   32.9780   49.0240   -3.9550 C   0  0  0  0  0  0  0  0  0  0  0  0
   29.8100   49.4140   -4.0330 C   0  0  0  0  0  0  0  0  0  0  0  0
   29.5230   49.0600   -6.4050 C   0  0  0  0  0  0  0  0  0  0  0  0
   33.2690   47.1500   -1.9120 C   0  0  0  0  0  0  0  0  0  0  0  0
   33.8880   49.2490   -2.9210 C   0  0  0  0  0  0  0  0  0  0  0  0
   28.8720   50.4430   -4.0740 C   0  0  0  0  0  0  0  0  0  0  0  0
   28.5850   50.0920   -6.4410 C   0  0  0  0  0  0  0  0  0  0  0  0
   34.0320   48.3130   -1.9020 C   0  0  0  0  0  0  0  0  0  0  0  0
   28.2590   50.7850   -5.2740 C   0  0  0  0  0  0  0  0  0  0  0  0
  1  2  1  0
  2  3  2  0
  2  4  1  0
  3  5  1  0
  3  6  1  0
  4  7  2  0
  6  8  1  0
  5  9  1  0
  6 10  2  0
  7 10  1  0
  9 11  1  0
 11 12  1  0
 11 13  2  0
 12 14  1  0
 14 15  2  0
 14 16  1  0
 16 17  1  0
 16 18  1  0
 17 19  2  0
 17 20  1  0
 18 21  2  0
 18 22  1  0
 19 23  1  0
 20 24  2  0
 21 25  1  0
 22 26  2  0
 23 27  2  0
 24 27  1  0
 25 28  2  0
 26 28  1  0
M  END
