mac-x0124-mac-x0387
     RDKit          3D

 11 12  0  0  0  0  0  0  0  0999 V2000
   30.1460   46.1830   -4.4340 C   0  0  0  0  0  0  0  0  0  0  0  0
   29.8480   47.5570   -4.7590 N   0  0  0  0  0  0  0  0  0  0  0  0
   29.9880   48.6290   -3.9170 C   0  0  0  0  0  0  0  0  0  0  0  0
   29.3750   47.9770   -5.9770 C   0  0  0  0  0  0  0  0  0  0  0  0
   29.5980   49.7580   -4.6060 C   0  0  0  0  0  0  0  0  0  0  0  0
   29.2060   49.3540   -5.9150 C   0  0  0  0  0  0  0  0  0  0  0  0
   29.1230   47.1900   -7.0360 N   0  0  0  0  0  0  0  0  0  0  0  0
   28.7240   49.9830   -7.0710 C   0  0  0  0  0  0  0  0  0  0  0  0
   28.6690   47.9010   -8.0800 C   0  0  0  0  0  0  0  0  0  0  0  0
   28.5000   51.3490   -7.1690 N   0  0  0  0  0  0  0  0  0  0  0  0
   28.4580   49.2310   -8.1590 N   0  0  0  0  0  0  0  0  0  0  0  0
  1  2  1  0
  2  3  1  0
  2  4  1  0
  3  5  2  0
  4  6  2  0
  5  6  1  0
  4  7  1  0
  6  8  1  0
  7  9  2  0
  8 10  1  0
  8 11  2  0
  9 11  1  0
M  END
