mac-x0360-mac-x0567
     RDKit          3D

 22 24  0  0  0  0  0  0  0  0999 V2000
   32.3990   55.9910   -7.8430 Cl  0  0  0  0  0  0  0  0  0  0  0  0
   32.7680   54.5250   -7.0190 C   0  0  0  0  0  0  0  0  0  0  0  0
   34.0950   54.1150   -6.9020 C   0  0  0  0  0  0  0  0  0  0  0  0
   31.7330   53.7630   -6.4740 C   0  0  0  0  0  0  0  0  0  0  0  0
   32.0470   52.5740   -5.8060 C   0  0  0  0  0  0  0  0  0  0  0  0
   34.3900   52.9260   -6.2320 C   0  0  0  0  0  0  0  0  0  0  0  0
   36.0290   52.4170   -6.0900 Cl  0  0  0  0  0  0  0  0  0  0  0  0
   30.7600   51.5890   -5.1110 S   0  0  1  0  0  0  0  0  0  0  0  0
   33.3740   52.1490   -5.6810 C   0  0  0  0  0  0  0  0  0  0  0  0
   31.3510   50.0280   -4.9110 N   0  0  0  0  0  0  0  0  0  0  0  0
   30.5660   51.9920   -3.7380 O   0  0  0  0  0  0  0  0  0  0  0  0
   29.6800   51.3470   -6.1580 N   0  0  0  0  0  0  0  0  0  0  0  0
   29.3070   49.9720   -6.4040 N   0  0  0  0  0  0  0  0  0  0  0  0
   29.9010   49.2820   -7.3780 N   0  0  0  0  0  0  0  0  0  0  0  0
   28.3540   49.2890   -5.6950 C   0  0  0  0  0  0  0  0  0  0  0  0
   29.3130   48.0890   -7.3090 C   0  0  0  0  0  0  0  0  0  0  0  0
   28.3380   48.0250   -6.2800 C   0  0  0  0  0  0  0  0  0  0  0  0
   27.5190   49.6380   -4.6220 C   0  0  0  0  0  0  0  0  0  0  0  0
   29.6150   47.0690   -8.1270 N   0  0  0  0  0  0  0  0  0  0  0  0
   26.6470   48.6560   -4.1430 C   0  0  0  0  0  0  0  0  0  0  0  0
   27.4510   47.0500   -5.7810 C   0  0  0  0  0  0  0  0  0  0  0  0
   26.6110   47.3810   -4.7110 C   0  0  0  0  0  0  0  0  0  0  0  0
  1  2  1  0
  2  3  2  0
  2  4  1  0
  4  5  2  0
  3  6  1  0
  6  7  1  0
  5  8  1  0
  5  9  1  0
  6  9  2  0
  8 10  1  1
  8 11  2  0
  8 12  2  0
 12 13  1  0
 13 14  1  0
 13 15  1  0
 14 16  2  0
 15 17  2  0
 16 17  1  0
 15 18  1  0
 16 19  1  0
 18 20  2  0
 17 21  1  0
 20 22  1  0
 21 22  2  0
M  END
