mac-x0131-mac-x0472
     RDKit          3D

 25 28  0  0  0  0  0  0  0  0999 V2000
   31.3230   49.0040   -4.3500 C   0  0  0  0  0  0  0  0  0  0  0  0
   30.5010   49.2150   -6.0130 S   0  0  0  0  0  0  0  0  0  0  0  0
   30.7140   49.9790   -7.5540 C   0  0  0  0  0  0  0  0  0  0  0  0
   30.5510   48.1540   -3.3880 C   0  0  0  0  0  0  0  0  0  0  0  0
   30.2800   46.9390   -4.0270 N   0  0  0  0  0  0  0  0  0  0  0  0
   29.1630   48.2630   -5.6070 N   0  0  0  0  0  0  0  0  0  0  0  0
   32.0630   49.8770   -5.3940 C   0  0  0  0  0  0  0  0  0  0  0  0
   31.2260   45.8960   -3.8960 C   0  0  0  0  0  0  0  0  0  0  0  0
   29.8190   50.9200   -7.2600 C   0  0  0  0  0  0  0  0  0  0  0  0
   29.4330   46.9370   -5.1490 C   0  0  0  0  0  0  0  0  0  0  0  0
   27.9990   48.4520   -6.3190 C   0  0  0  0  0  0  0  0  0  0  0  0
   33.1800   49.3370   -5.9300 C   0  0  0  0  0  0  0  0  0  0  0  0
   32.1050   50.8570   -4.4570 C   0  0  0  0  0  0  0  0  0  0  0  0
   28.7950   51.7610   -6.5760 C   0  0  0  0  0  0  0  0  0  0  0  0
   27.7700   49.6490   -7.0470 N   0  0  0  0  0  0  0  0  0  0  0  0
   32.6140   46.4340   -3.7280 C   0  0  0  0  0  0  0  0  0  0  0  0
   34.4220   49.8200   -5.4870 C   0  0  0  0  0  0  0  0  0  0  0  0
   33.3340   51.3490   -4.0030 C   0  0  0  0  0  0  0  0  0  0  0  0
   27.6300   50.8440   -6.2820 C   0  0  2  0  0  0  0  0  0  0  0  0
   33.5040   46.7920   -4.7080 C   0  0  0  0  0  0  0  0  0  0  0  0
   33.2010   46.6510   -2.5940 O   0  0  0  0  0  0  0  0  0  0  0  0
   34.4760   50.8220   -4.5260 C   0  0  0  0  0  0  0  0  0  0  0  0
   26.3560   51.4840   -6.5270 N   0  0  0  0  0  0  0  0  0  0  0  0
   34.4150   47.1260   -2.7340 C   0  0  0  0  0  0  0  0  0  0  0  0
   34.6580   47.2350   -4.0960 C   0  0  0  0  0  0  0  0  0  0  0  0
  1  2  2  0
  2  3  1  0
  1  4  1  0
  4  5  1  0
  2  6  1  0
  2  7  1  0
  5  8  1  0
  3  9  2  0
  5 10  1  0
  6 10  1  0
  6 11  1  0
  7 12  2  0
  7 13  1  0
  9 14  1  0
 11 15  1  0
  8 16  1  0
 12 17  1  0
 13 18  2  0
 14 19  1  0
 15 19  1  0
 16 20  2  0
 16 21  1  0
 17 22  2  0
 18 22  1  0
 19 23  1  6
 21 24  1  0
 20 25  1  0
 24 25  2  0
M  END
