mac-x0123-mac-x0277
     RDKit          3D

 26 29  0  0  0  0  0  0  0  0999 V2000
   28.5040   51.5510   -7.0970 N   0  0  0  0  0  0  0  0  0  0  0  0
   28.9750   52.2320   -5.9810 C   0  0  0  0  0  0  0  0  0  0  0  0
   29.2650   53.5390   -5.9620 C   0  0  0  0  0  0  0  0  0  0  0  0
   29.1470   51.5280   -4.7580 N   0  0  0  0  0  0  0  0  0  0  0  0
   29.6410   52.1630   -3.6080 C   0  0  0  0  0  0  0  0  0  0  0  0
   29.7780   54.1130   -4.6870 C   0  0  0  0  0  0  0  0  0  0  0  0
   29.2010   54.6320   -6.9680 C   0  0  0  0  0  0  0  0  0  0  0  0
   28.8660   50.2250   -4.4660 N   0  0  0  0  0  0  0  0  0  0  0  0
   29.9860   53.4820   -3.5830 N   0  0  0  0  0  0  0  0  0  0  0  0
   30.0460   55.5750   -4.8520 C   0  0  0  0  0  0  0  0  0  0  0  0
   29.2360   55.9020   -6.1100 C   0  0  0  0  0  0  0  0  0  0  0  0
   29.6740   51.3070   -2.6200 N   0  0  0  0  0  0  0  0  0  0  0  0
   29.1800   50.1640   -3.1580 C   0  0  0  0  0  0  0  0  0  0  0  0
   28.9610   48.9510   -2.3170 C   0  0  0  0  0  0  0  0  0  0  0  0
   30.1620   48.2060   -1.7580 C   0  0  0  0  0  0  0  0  0  0  0  0
   30.0680   46.8240   -2.3210 C   0  0  0  0  0  0  0  0  0  0  0  0
   31.0590   46.4260   -3.2130 C   0  0  0  0  0  0  0  0  0  0  0  0
   29.0300   45.9300   -2.0100 C   0  0  0  0  0  0  0  0  0  0  0  0
   27.7540   46.3370   -0.9150 Cl  0  0  0  0  0  0  0  0  0  0  0  0
   31.0410   45.1700   -3.8060 C   0  0  0  0  0  0  0  0  0  0  0  0
   29.0030   44.6660   -2.5950 C   0  0  0  0  0  0  0  0  0  0  0  0
   32.1470   44.8330   -4.7700 C   0  0  0  0  0  0  0  0  0  0  0  0
   30.0030   44.2840   -3.4920 C   0  0  0  0  0  0  0  0  0  0  0  0
   32.3110   45.8360   -5.8980 C   0  0  0  0  0  0  0  0  0  0  0  0
   33.4830   46.5200   -5.8180 O   0  0  0  0  0  0  0  0  0  0  0  0
   31.5140   46.0530   -6.7990 O   0  0  0  0  0  0  0  0  0  0  0  0
  1  2  1  0
  2  3  2  0
  2  4  1  0
  4  5  1  0
  3  6  1  0
  3  7  1  0
  4  8  1  0
  5  9  1  0
  6  9  2  0
  6 10  1  0
  7 11  1  0
 10 11  1  0
  5 12  2  0
  8 13  2  0
 12 13  1  0
 13 14  1  0
 14 15  1  0
 15 16  1  0
 16 17  2  0
 16 18  1  0
 18 19  1  0
 17 20  1  0
 18 21  2  0
 20 22  1  0
 20 23  2  0
 21 23  1  0
 22 24  1  0
 24 25  1  0
 24 26  2  0
M  END
