mac-x0360-mac-x0338
     RDKit          3D

 20 21  0  0  0  0  0  0  0  0999 V2000
   32.5130   55.3330   -7.1310 Cl  0  0  0  0  0  0  0  0  0  0  0  0
   32.6280   53.6820   -6.6620 C   0  0  0  0  0  0  0  0  0  0  0  0
   33.7980   53.2170   -6.0630 C   0  0  0  0  0  0  0  0  0  0  0  0
   31.5540   52.8210   -6.8860 C   0  0  0  0  0  0  0  0  0  0  0  0
   31.6650   51.4840   -6.4990 C   0  0  0  0  0  0  0  0  0  0  0  0
   33.8910   51.8780   -5.6820 C   0  0  0  0  0  0  0  0  0  0  0  0
   35.3340   51.3030   -4.9410 Cl  0  0  0  0  0  0  0  0  0  0  0  0
   30.3090   50.3820   -6.7750 S   0  0  1  0  0  0  0  0  0  0  0  0
   32.8300   51.0030   -5.8950 C   0  0  0  0  0  0  0  0  0  0  0  0
   30.4740   49.7330   -8.3160 N   0  0  0  0  0  0  0  0  0  0  0  0
   30.4800   49.2110   -5.9550 O   0  0  0  0  0  0  0  0  0  0  0  0
   29.0430   51.1960   -6.9570 N   0  0  0  0  0  0  0  0  0  0  0  0
   28.5190   51.8620   -5.8300 C   0  0  0  0  0  0  0  0  0  0  0  0
   27.7880   52.8430   -5.9690 O   0  0  0  0  0  0  0  0  0  0  0  0
   28.8150   51.4130   -4.4250 C   0  0  0  0  0  0  0  0  0  0  0  0
   28.5940   50.1000   -4.1060 N   0  0  0  0  0  0  0  0  0  0  0  0
   29.2980   52.3210   -3.4940 C   0  0  0  0  0  0  0  0  0  0  0  0
   28.8810   49.7580   -2.8270 C   0  0  0  0  0  0  0  0  0  0  0  0
   29.5820   51.9680   -2.2100 N   0  0  0  0  0  0  0  0  0  0  0  0
   29.3630   50.6660   -1.9020 C   0  0  0  0  0  0  0  0  0  0  0  0
  1  2  1  0
  2  3  2  0
  2  4  1  0
  4  5  2  0
  3  6  1  0
  6  7  1  0
  5  8  1  0
  5  9  1  0
  6  9  2  0
  8 10  1  6
  8 11  2  0
  8 12  2  0
 12 13  1  0
 13 14  2  0
 13 15  1  0
 15 16  2  0
 15 17  1  0
 16 18  1  0
 17 19  2  0
 18 20  2  0
 19 20  1  0
M  END
