mac-x0373-mac-x0361
     RDKit          3D

 19 20  0  0  0  0  0  0  0  0999 V2000
   31.2340   46.5940   -6.7390 O   0  0  0  0  0  0  0  0  0  0  0  0
   30.2740   46.5610   -5.7750 C   0  0  0  0  0  0  0  0  0  0  0  0
   29.3270   45.7950   -5.8760 O   0  0  0  0  0  0  0  0  0  0  0  0
   30.5070   47.5410   -4.6080 C   0  0  1  0  0  0  0  0  0  0  0  0
   31.9760   47.6260   -4.1860 C   0  0  0  0  0  0  0  0  0  0  0  0
   30.0340   48.9780   -4.8220 C   0  0  0  0  0  0  0  0  0  0  0  0
   32.6100   46.5700   -3.5130 C   0  0  0  0  0  0  0  0  0  0  0  0
   32.7270   48.7860   -4.4730 C   0  0  0  0  0  0  0  0  0  0  0  0
   29.9550   49.8260   -3.7060 C   0  0  0  0  0  0  0  0  0  0  0  0
   29.6930   49.5010   -6.0810 C   0  0  0  0  0  0  0  0  0  0  0  0
   33.9530   46.6710   -3.1400 C   0  0  0  0  0  0  0  0  0  0  0  0
   34.0660   48.8810   -4.0980 C   0  0  0  0  0  0  0  0  0  0  0  0
   29.5700   51.1620   -3.8420 C   0  0  0  0  0  0  0  0  0  0  0  0
   29.3070   50.8420   -6.2210 C   0  0  0  0  0  0  0  0  0  0  0  0
   34.6810   47.8240   -3.4320 C   0  0  0  0  0  0  0  0  0  0  0  0
   29.2560   51.6840   -5.0980 C   0  0  0  0  0  0  0  0  0  0  0  0
   28.8960   53.1330   -5.1770 C   0  0  0  0  0  0  0  0  0  0  0  0
   28.2050   53.5600   -6.2740 N   0  0  0  0  0  0  0  0  0  0  0  0
   29.2320   53.9310   -4.3040 O   0  0  0  0  0  0  0  0  0  0  0  0
  1  2  1  0
  2  3  2  0
  4  2  1  6
  4  5  1  0
  4  6  1  0
  5  7  2  0
  5  8  1  0
  6  9  2  0
  6 10  1  0
  7 11  1  0
  8 12  2  0
  9 13  1  0
 10 14  2  0
 11 15  2  0
 12 15  1  0
 13 16  2  0
 14 16  1  0
 16 17  1  0
 17 18  1  0
 17 19  2  0
M  END
