mac-x0282-mac-x0161
     RDKit          3D

 18 20  0  0  0  0  0  0  0  0999 V2000
   29.1390   51.7050   -4.4880 N   0  0  0  0  0  0  0  0  0  0  0  0
   29.1310   50.6300   -5.2980 C   0  0  0  0  0  0  0  0  0  0  0  0
   29.3610   49.2880   -5.0350 C   0  0  0  0  0  0  0  0  0  0  0  0
   28.8580   50.7710   -6.6320 N   0  0  0  0  0  0  0  0  0  0  0  0
   29.6940   48.6710   -3.7150 C   0  0  0  0  0  0  0  0  0  0  0  0
   29.2150   48.5990   -6.2860 C   0  0  0  0  0  0  0  0  0  0  0  0
   28.9040   49.5540   -7.2480 C   0  0  0  0  0  0  0  0  0  0  0  0
   29.3120   47.2650   -6.7180 C   0  0  0  0  0  0  0  0  0  0  0  0
   28.6800   49.3560   -8.5610 N   0  0  0  0  0  0  0  0  0  0  0  0
   31.0940   48.1730   -3.6470 C   0  0  0  0  0  0  0  0  0  0  0  0
   29.0890   47.0030   -8.0710 C   0  0  0  0  0  0  0  0  0  0  0  0
   28.7860   48.0580   -8.9210 C   0  0  0  0  0  0  0  0  0  0  0  0
   32.3260   48.7580   -3.8030 C   0  0  0  0  0  0  0  0  0  0  0  0
   31.2560   46.8460   -3.3760 O   0  0  0  0  0  0  0  0  0  0  0  0
   32.6120   46.5430   -3.3480 N   0  0  0  0  0  0  0  0  0  0  0  0
   33.2260   47.7010   -3.6050 C   0  0  0  0  0  0  0  0  0  0  0  0
   34.5730   47.7990   -3.6630 O   0  0  0  0  0  0  0  0  0  0  0  0
   35.1870   48.1200   -2.4180 C   0  0  0  0  0  0  0  0  0  0  0  0
  1  2  1  0
  2  3  2  0
  2  4  1  0
  3  5  1  0
  3  6  1  0
  4  7  1  0
  6  7  2  0
  6  8  1  0
  7  9  1  0
  5 10  1  0
  8 11  2  0
  9 12  2  0
 11 12  1  0
 10 13  2  0
 10 14  1  0
 14 15  1  0
 13 16  1  0
 15 16  2  0
 16 17  1  0
 17 18  1  0
M  END
