mac-x0546-mac-x0564
     RDKit          3D

 28 32  0  0  0  0  0  0  0  0999 V2000
   30.5250   48.8270   -0.3060 C   0  0  0  0  0  0  0  0  0  0  0  0
   30.1020   47.4760   -0.1740 O   0  0  0  0  0  0  0  0  0  0  0  0
   29.8040   46.7890   -1.3250 C   0  0  0  0  0  0  0  0  0  0  0  0
   30.6600   46.3860   -2.2960 C   0  0  0  0  0  0  0  0  0  0  0  0
   28.3780   46.4920   -1.4440 C   0  0  0  0  0  0  0  0  0  0  0  0
   30.1210   45.6420   -3.4850 C   0  0  2  0  0  0  0  0  0  0  0  0
   27.9080   45.5210   -2.2440 C   0  0  0  0  0  0  0  0  0  0  0  0
   28.9610   44.8070   -2.9720 C   0  0  0  0  0  0  0  0  0  0  0  0
   30.8790   44.4970   -4.0920 C   0  0  0  0  0  0  0  0  0  0  0  0
   32.1870   44.6820   -4.7910 C   0  0  0  0  0  0  0  0  0  0  0  0
   29.0070   43.5310   -3.2110 N   0  0  0  0  0  0  0  0  0  0  0  0
   30.1810   43.3650   -3.8940 C   0  0  0  0  0  0  0  0  0  0  0  0
   32.0990   45.4540   -6.0950 C   0  0  0  0  0  0  0  0  0  0  0  0
   32.0740   46.7260   -6.2970 N   0  0  0  0  0  0  0  0  0  0  0  0
   32.0470   44.6690   -7.1840 O   0  0  0  0  0  0  0  0  0  0  0  0
   32.1390   47.5240   -5.1640 C   0  0  0  0  0  0  0  0  0  0  0  0
   31.2040   48.5050   -4.8920 C   0  0  0  0  0  0  0  0  0  0  0  0
   33.1500   47.3290   -4.3010 N   0  0  0  0  0  0  0  0  0  0  0  0
   31.3360   49.2580   -3.7360 C   0  0  0  0  0  0  0  0  0  0  0  0
   33.1980   48.1050   -3.2060 C   0  0  0  0  0  0  0  0  0  0  0  0
   30.1060   48.8910   -5.5990 O   0  0  0  0  0  0  0  0  0  0  0  0
   32.3450   49.0810   -2.8480 N   0  0  0  0  0  0  0  0  0  0  0  0
   29.5280   49.9040   -4.8880 C   0  0  0  0  0  0  0  0  0  0  0  0
   30.2510   50.1680   -3.7280 C   0  0  0  0  0  0  0  0  0  0  0  0
   29.8000   51.1870   -2.8680 C   0  0  0  0  0  0  0  0  0  0  0  0
   28.3750   50.5920   -5.2560 C   0  0  0  0  0  0  0  0  0  0  0  0
   28.6420   51.8950   -3.2150 C   0  0  0  0  0  0  0  0  0  0  0  0
   27.9440   51.6030   -4.3880 C   0  0  0  0  0  0  0  0  0  0  0  0
  1  2  1  0
  2  3  1  0
  3  4  2  0
  3  5  1  0
  6  4  1  1
  5  7  2  0
  6  8  1  0
  7  8  1  0
  6  9  1  0
  9 10  1  0
  8 11  2  0
  9 12  2  0
 11 12  1  0
 10 13  1  0
 13 14  2  3
 13 15  1  0
 14 16  1  0
 16 17  1  0
 16 18  2  0
 17 19  2  0
 18 20  1  0
 17 21  1  0
 19 22  1  0
 20 22  2  0
 21 23  1  0
 19 24  1  0
 23 24  2  0
 24 25  1  0
 23 26  1  0
 25 27  2  0
 26 28  2  0
 27 28  1  0
M  END
