mac-x0472-mac-x0354
     RDKit          3D

 33 36  0  0  0  0  0  0  0  0999 V2000
   29.7870   50.4750   -3.4790 O   0  0  0  0  0  0  0  0  0  0  0  0
   30.7290   49.4780   -3.9390 S   0  0  0  0  0  0  0  0  0  0  0  0
   31.2120   48.4610   -3.0280 O   0  0  0  0  0  0  0  0  0  0  0  0
   30.1500   48.6790   -5.3320 N   0  0  0  0  0  0  0  0  0  0  0  0
   32.1440   50.3710   -4.5630 C   0  0  0  0  0  0  0  0  0  0  0  0
   29.4990   47.3560   -5.0920 C   0  0  0  0  0  0  0  0  0  0  0  0
   29.4870   49.6410   -6.2310 C   0  0  0  0  0  0  0  0  0  0  0  0
   33.2730   49.6470   -4.9640 C   0  0  0  0  0  0  0  0  0  0  0  0
   32.1180   51.7650   -4.6470 C   0  0  0  0  0  0  0  0  0  0  0  0
   30.0100   46.2550   -6.0370 C   0  0  0  0  0  0  0  0  0  0  0  0
   29.2100   49.3090   -7.4760 N   0  0  0  0  0  0  0  0  0  0  0  0
   29.0140   51.2380   -5.8150 S   0  0  0  0  0  0  0  0  0  0  0  0
   34.3870   50.3340   -5.4530 C   0  0  0  0  0  0  0  0  0  0  0  0
   33.2370   52.4420   -5.1370 C   0  0  0  0  0  0  0  0  0  0  0  0
   31.2010   45.4270   -5.5400 C   0  0  0  0  0  0  0  0  0  0  0  0
   28.4330   51.4020   -7.4190 C   0  0  0  0  0  0  0  0  0  0  0  0
   28.5950   50.3360   -8.1730 N   0  0  0  0  0  0  0  0  0  0  0  0
   34.3670   51.7250   -5.5390 C   0  0  0  0  0  0  0  0  0  0  0  0
   32.3770   45.7590   -6.3430 N   0  0  0  0  0  0  0  0  0  0  0  0
   33.5680   45.4050   -6.0010 C   0  0  0  0  0  0  0  0  0  0  0  0
   34.6200   45.7580   -6.7640 O   0  0  0  0  0  0  0  0  0  0  0  0
   33.8350   44.6260   -4.8000 C   0  0  0  0  0  0  0  0  0  0  0  0
   33.1970   43.4140   -4.4230 C   0  0  0  0  0  0  0  0  0  0  0  0
   34.7460   44.8520   -3.7690 C   0  0  0  0  0  0  0  0  0  0  0  0
   34.5910   43.7990   -2.8920 N   0  0  0  0  0  0  0  0  0  0  0  0
   33.6510   42.9140   -3.2710 N   0  0  0  0  0  0  0  0  0  0  0  0
   35.7080   45.9300   -3.5570 C   0  0  0  0  0  0  0  0  0  0  0  0
   35.3110   43.5680   -1.6570 C   0  0  0  0  0  0  0  0  0  0  0  0
   37.0790   45.6590   -3.5140 C   0  0  0  0  0  0  0  0  0  0  0  0
   35.2540   47.2430   -3.3970 C   0  0  0  0  0  0  0  0  0  0  0  0
   37.9890   46.6990   -3.3130 C   0  0  0  0  0  0  0  0  0  0  0  0
   36.1670   48.2800   -3.1960 C   0  0  0  0  0  0  0  0  0  0  0  0
   37.5320   48.0070   -3.1550 C   0  0  0  0  0  0  0  0  0  0  0  0
  1  2  2  0
  2  3  2  0
  2  4  1  0
  2  5  1  0
  4  6  1  0
  4  7  1  0
  5  8  2  0
  5  9  1  0
  6 10  1  0
  7 11  2  0
  7 12  1  0
  8 13  1  0
  9 14  2  0
 10 15  1  0
 12 16  1  0
 11 17  1  0
 16 17  2  0
 13 18  2  0
 14 18  1  0
 15 19  1  0
 19 20  2  3
 20 21  1  0
 20 22  1  0
 22 23  1  0
 22 24  2  0
 24 25  1  0
 23 26  2  0
 25 26  1  0
 24 27  1  0
 25 28  1  0
 27 29  2  0
 27 30  1  0
 29 31  1  0
 30 32  2  0
 31 33  2  0
 32 33  1  0
M  END
