mac-x0223-mac-x0587
     RDKit          3D

 24 25  0  0  0  0  0  0  0  0999 V2000
   27.4800   44.0030   -1.3700 C   0  0  0  0  0  0  0  0  0  0  0  0
   28.2140   44.9950   -0.6660 O   0  0  0  0  0  0  0  0  0  0  0  0
   29.2000   45.6510   -1.3520 C   0  0  0  0  0  0  0  0  0  0  0  0
   29.8270   46.7140   -0.6910 C   0  0  0  0  0  0  0  0  0  0  0  0
   29.6150   45.3340   -2.6500 C   0  0  0  0  0  0  0  0  0  0  0  0
   29.4300   47.0370    0.5810 O   0  0  0  0  0  0  0  0  0  0  0  0
   30.8410   47.4420   -1.3050 C   0  0  0  0  0  0  0  0  0  0  0  0
   30.6400   46.0550   -3.2960 C   0  0  0  0  0  0  0  0  0  0  0  0
   31.0380   45.6500   -4.7210 C   0  0  2  0  0  0  0  0  0  0  0  0
   31.2460   47.1130   -2.6020 C   0  0  0  0  0  0  0  0  0  0  0  0
   32.5560   45.8050   -5.0880 C   0  0  0  0  0  0  0  0  0  0  0  0
   30.0980   46.2510   -5.8320 C   0  0  2  0  0  0  0  0  0  0  0  0
   32.9500   47.1500   -4.9500 O   0  0  0  0  0  0  0  0  0  0  0  0
   32.8570   45.5030   -6.4290 O   0  0  0  0  0  0  0  0  0  0  0  0
   30.8290   46.8110   -7.0520 C   0  0  0  0  0  0  0  0  0  0  0  0
   29.1440   47.3180   -5.2650 C   0  0  0  0  0  0  0  0  0  0  0  0
   33.3980   45.0550   -4.2610 O   0  0  0  0  0  0  0  0  0  0  0  0
   28.1710   47.0230   -4.5630 O   0  0  0  0  0  0  0  0  0  0  0  0
   29.3960   48.6520   -5.5760 N   0  0  0  0  0  0  0  0  0  0  0  0
   29.9050   49.5390   -4.5460 C   0  0  0  0  0  0  0  0  0  0  0  0
   28.8690   49.4340   -6.6300 C   0  0  0  0  0  0  0  0  0  0  0  0
   28.3720   49.0700   -7.6810 O   0  0  0  0  0  0  0  0  0  0  0  0
   29.3220   50.8920   -4.8880 C   0  0  0  0  0  0  0  0  0  0  0  0
   29.0030   50.7740   -6.2780 N   0  0  0  0  0  0  0  0  0  0  0  0
  1  2  1  0
  2  3  1  0
  3  4  2  0
  3  5  1  0
  4  6  1  0
  4  7  1  0
  5  8  2  0
  8  9  1  0
  7 10  2  0
  8 10  1  0
  9 11  1  6
  9 12  1  0
 11 13  1  0
 11 14  1  0
 12 15  1  6
 12 16  1  0
 11 17  1  0
 16 18  2  0
 16 19  1  0
 19 20  1  0
 19 21  1  0
 21 22  2  0
 20 23  1  0
 21 24  1  0
 23 24  1  0
M  END
