mac-x0263-mac-x0546
     RDKit          3D

 32 35  0  0  0  0  0  0  0  0999 V2000
   28.0890   59.9540   -6.5030 O   0  0  0  0  0  0  0  0  0  0  0  0
   26.9790   59.1970   -6.3720 C   0  0  0  0  0  0  0  0  0  0  0  0
   25.8880   59.6190   -6.7270 O   0  0  0  0  0  0  0  0  0  0  0  0
   27.2720   57.8520   -5.7540 C   0  0  0  0  0  0  0  0  0  0  0  0
   28.4690   57.1350   -6.3790 C   0  0  0  0  0  0  0  0  0  0  0  0
   28.3530   55.6660   -6.1620 C   0  0  0  0  0  0  0  0  0  0  0  0
   28.4250   55.1030   -4.9090 N   0  0  0  0  0  0  0  0  0  0  0  0
   28.1670   54.7440   -7.0850 N   0  0  0  0  0  0  0  0  0  0  0  0
   28.2710   53.7480   -5.0400 C   0  0  0  0  0  0  0  0  0  0  0  0
   28.1120   53.5520   -6.4060 C   0  0  0  0  0  0  0  0  0  0  0  0
   28.2560   52.7080   -4.1080 C   0  0  0  0  0  0  0  0  0  0  0  0
   27.9250   52.2510   -6.8970 C   0  0  0  0  0  0  0  0  0  0  0  0
   28.0650   51.4030   -4.6110 C   0  0  0  0  0  0  0  0  0  0  0  0
   27.9040   51.1880   -5.9860 C   0  0  0  0  0  0  0  0  0  0  0  0
   28.0290   50.2230   -3.6680 C   0  0  0  0  0  0  0  0  0  0  0  0
   28.9240   50.4380   -2.4510 C   0  0  0  0  0  0  0  0  0  0  0  0
   28.5480   49.4610   -1.3330 C   0  0  0  0  0  0  0  0  0  0  0  0
   29.7120   48.6310   -0.9540 N   0  0  0  0  0  0  0  0  0  0  0  0
   30.8820   49.4120   -0.5420 C   0  0  0  0  0  0  0  0  0  0  0  0
   29.8530   47.3130   -1.3990 C   0  0  0  0  0  0  0  0  0  0  0  0
   30.8860   46.8850   -2.1560 C   0  0  0  0  0  0  0  0  0  0  0  0
   28.8270   46.3220   -1.0130 C   0  0  0  0  0  0  0  0  0  0  0  0
   31.0010   45.4540   -2.5590 C   0  0  1  0  0  0  0  0  0  0  0  0
   28.6640   45.1210   -1.6100 C   0  0  0  0  0  0  0  0  0  0  0  0
   29.6110   44.8660   -2.7030 C   0  0  0  0  0  0  0  0  0  0  0  0
   31.4960   45.0180   -3.9040 C   0  0  0  0  0  0  0  0  0  0  0  0
   32.8510   45.3490   -4.4390 C   0  0  0  0  0  0  0  0  0  0  0  0
   29.3760   44.1800   -3.7800 N   0  0  0  0  0  0  0  0  0  0  0  0
   30.5420   44.2920   -4.5010 C   0  0  0  0  0  0  0  0  0  0  0  0
   32.7920   45.9920   -5.8140 C   0  0  0  0  0  0  0  0  0  0  0  0
   31.8620   46.0070   -6.6070 O   0  0  0  0  0  0  0  0  0  0  0  0
   33.9510   46.6110   -6.1290 O   0  0  0  0  0  0  0  0  0  0  0  0
  1  2  1  0
  2  3  2  0
  2  4  1  0
  4  5  1  0
  5  6  1  0
  6  7  1  0
  6  8  2  0
  7  9  1  0
  8 10  1  0
  9 10  2  0
  9 11  1  0
 10 12  1  0
 11 13  2  0
 12 14  2  0
 13 14  1  0
 13 15  1  0
 15 16  1  0
 16 17  1  0
 17 18  1  0
 18 19  1  0
 18 20  1  0
 20 21  2  0
 20 22  1  0
 23 21  1  6
 22 24  2  0
 23 25  1  0
 24 25  1  0
 23 26  1  0
 26 27  1  0
 25 28  2  0
 26 29  2  0
 28 29  1  0
 27 30  1  0
 30 31  2  0
 30 32  1  0
M  END
