mac-x0212-mac-x0357
     RDKit          3D

 24 25  0  0  0  0  0  0  0  0999 V2000
   30.7230   53.8080   -6.4110 C   0  0  0  0  0  0  0  0  0  0  0  0
   29.3770   54.2530   -5.3350 S   0  0  0  0  0  0  0  0  0  0  0  0
   28.6600   55.3440   -5.9560 O   0  0  0  0  0  0  0  0  0  0  0  0
   29.8780   54.3430   -3.9830 O   0  0  0  0  0  0  0  0  0  0  0  0
   28.3680   52.9010   -5.5000 N   0  0  0  0  0  0  0  0  0  0  0  0
   28.9440   51.6260   -5.2290 C   0  0  0  0  0  0  0  0  0  0  0  0
   29.2080   50.7720   -6.2970 C   0  0  0  0  0  0  0  0  0  0  0  0
   29.2390   51.2380   -3.9180 C   0  0  0  0  0  0  0  0  0  0  0  0
   29.7690   49.5250   -6.0540 C   0  0  0  0  0  0  0  0  0  0  0  0
   29.8030   49.9830   -3.6700 C   0  0  0  0  0  0  0  0  0  0  0  0
   30.0650   49.1290   -4.7480 C   0  0  0  0  0  0  0  0  0  0  0  0
   30.6500   47.7950   -4.5940 C   0  0  0  0  0  0  0  0  0  0  0  0
   30.9310   47.1300   -5.6480 N   0  0  0  0  0  0  0  0  0  0  0  0
   30.8300   47.3880   -3.3170 O   0  0  0  0  0  0  0  0  0  0  0  0
   31.4880   45.7960   -5.6010 C   0  0  1  0  0  0  0  0  0  0  0  0
   31.7990   45.3010   -6.9070 O   0  0  0  0  0  0  0  0  0  0  0  0
   32.7240   45.6620   -4.7140 C   0  0  0  0  0  0  0  0  0  0  0  0
   33.1780   44.4000   -4.2750 C   0  0  0  0  0  0  0  0  0  0  0  0
   33.4300   46.8210   -4.3240 C   0  0  0  0  0  0  0  0  0  0  0  0
   32.4650   43.1290   -4.6620 C   0  0  0  0  0  0  0  0  0  0  0  0
   34.5620   46.7320   -3.5140 C   0  0  0  0  0  0  0  0  0  0  0  0
   34.3170   44.3370   -3.4610 C   0  0  0  0  0  0  0  0  0  0  0  0
   34.7530   43.1100   -3.0350 O   0  0  0  0  0  0  0  0  0  0  0  0
   35.0090   45.4860   -3.0790 C   0  0  0  0  0  0  0  0  0  0  0  0
  1  2  1  0
  2  3  2  0
  2  4  2  0
  2  5  1  0
  5  6  1  0
  6  7  2  0
  6  8  1  0
  7  9  1  0
  8 10  2  0
  9 11  2  0
 10 11  1  0
 11 12  1  0
 12 13  2  3
 12 14  1  0
 13 15  1  0
 15 16  1  6
 15 17  1  0
 17 18  2  0
 17 19  1  0
 18 20  1  0
 19 21  2  0
 18 22  1  0
 22 23  1  0
 21 24  1  0
 22 24  2  0
M  END
