mac-x0226-mac-x0223
     RDKit          3D

 25 27  0  0  0  0  0  0  0  0999 V2000
   32.2200   45.7480   -6.7470 O   0  0  0  0  0  0  0  0  0  0  0  0
   33.5370   45.9500   -6.4570 C   0  0  0  0  0  0  0  0  0  0  0  0
   34.2750   46.7090   -7.0720 O   0  0  0  0  0  0  0  0  0  0  0  0
   31.2980   46.3010   -5.7940 C   0  0  0  0  0  0  0  0  0  0  0  0
   31.5290   45.6490   -4.4300 C   0  0  0  0  0  0  0  0  0  0  0  0
   33.9720   45.1570   -5.3230 C   0  0  0  0  0  0  0  0  0  0  0  0
   33.6100   43.8530   -4.9520 C   0  0  0  0  0  0  0  0  0  0  0  0
   34.8630   45.5420   -4.3400 C   0  0  0  0  0  0  0  0  0  0  0  0
   30.5350   46.1230   -3.4030 C   0  0  0  0  0  0  0  0  0  0  0  0
   34.2110   43.4400   -3.8360 N   0  0  0  0  0  0  0  0  0  0  0  0
   34.9900   44.4880   -3.4570 N   0  0  0  0  0  0  0  0  0  0  0  0
   30.7110   47.3670   -2.7850 C   0  0  0  0  0  0  0  0  0  0  0  0
   29.4320   45.3240   -3.0580 C   0  0  0  0  0  0  0  0  0  0  0  0
   35.7970   44.4190   -2.2870 C   0  0  0  0  0  0  0  0  0  0  0  0
   28.5140   45.7640   -2.1070 C   0  0  0  0  0  0  0  0  0  0  0  0
   29.7970   47.8140   -1.8330 C   0  0  0  0  0  0  0  0  0  0  0  0
   27.3990   45.0870   -1.6870 O   0  0  0  0  0  0  0  0  0  0  0  0
   36.5760   45.5270   -1.9200 C   0  0  0  0  0  0  0  0  0  0  0  0
   35.8310   43.2640   -1.4900 C   0  0  0  0  0  0  0  0  0  0  0  0
   28.7140   47.0120   -1.5060 C   0  0  0  0  0  0  0  0  0  0  0  0
   27.3330   43.7060   -2.0240 C   0  0  0  0  0  0  0  0  0  0  0  0
   27.8310   47.4750   -0.5680 O   0  0  0  0  0  0  0  0  0  0  0  0
   37.3770   45.4810   -0.7780 C   0  0  0  0  0  0  0  0  0  0  0  0
   36.6350   43.2260   -0.3470 C   0  0  0  0  0  0  0  0  0  0  0  0
   37.4060   44.3320    0.0090 C   0  0  0  0  0  0  0  0  0  0  0  0
  1  2  1  0
  2  3  2  0
  1  4  1  0
  4  5  1  0
  2  6  1  0
  6  7  1  0
  6  8  2  0
  5  9  1  0
  7 10  2  0
  8 11  1  0
 10 11  1  0
  9 12  2  0
  9 13  1  0
 11 14  1  0
 13 15  2  0
 12 16  1  0
 15 17  1  0
 14 18  2  0
 14 19  1  0
 15 20  1  0
 16 20  2  0
 17 21  1  0
 20 22  1  0
 18 23  1  0
 19 24  2  0
 23 25  2  0
 24 25  1  0
M  END
