mac-x0436-mac-x0451
     RDKit          3D

 28 31  0  0  0  0  0  0  0  0999 V2000
   33.7910   45.4630   -6.6830 O   0  0  0  0  0  0  0  0  0  0  0  0
   32.5510   45.5690   -6.1770 C   0  0  0  0  0  0  0  0  0  0  0  0
   31.6700   46.3420   -6.7240 N   0  0  0  0  0  0  0  0  0  0  0  0
   32.2930   44.7250   -4.9550 C   0  0  0  0  0  0  0  0  0  0  0  0
   32.4270   45.4750   -3.6300 C   0  0  0  0  0  0  0  0  0  0  0  0
   30.3230   46.4500   -6.1410 C   0  0  0  0  0  0  0  0  0  0  0  0
   30.2220   47.3280   -4.9970 O   0  0  0  0  0  0  0  0  0  0  0  0
   33.8210   46.0250   -3.3830 C   0  0  0  0  0  0  0  0  0  0  0  0
   34.0040   47.5270   -3.6020 C   0  0  0  0  0  0  0  0  0  0  0  0
   34.7880   45.2360   -3.0000 N   0  0  0  0  0  0  0  0  0  0  0  0
   30.0100   48.6680   -5.2740 C   0  0  0  0  0  0  0  0  0  0  0  0
   33.0500   48.2220   -3.9080 O   0  0  0  0  0  0  0  0  0  0  0  0
   35.2710   48.0070   -3.4290 N   0  0  0  0  0  0  0  0  0  0  0  0
   36.0560   45.8170   -2.7850 C   0  0  0  0  0  0  0  0  0  0  0  0
   30.1600   49.5930   -4.2410 C   0  0  0  0  0  0  0  0  0  0  0  0
   29.6490   49.0790   -6.5640 C   0  0  0  0  0  0  0  0  0  0  0  0
   36.3080   47.1860   -2.9930 C   0  0  0  0  0  0  0  0  0  0  0  0
   37.1060   45.0060   -2.3480 C   0  0  0  0  0  0  0  0  0  0  0  0
   29.4430   50.4610   -6.7790 C   0  0  0  0  0  0  0  0  0  0  0  0
   29.9530   50.9570   -4.4730 C   0  0  0  0  0  0  0  0  0  0  0  0
   38.3780   45.5500   -2.1240 C   0  0  0  0  0  0  0  0  0  0  0  0
   37.5700   47.7320   -2.7720 C   0  0  0  0  0  0  0  0  0  0  0  0
   29.5880   51.4050   -5.7580 C   0  0  0  0  0  0  0  0  0  0  0  0
   28.9990   51.2890   -8.2230 S   0  0  0  0  0  0  0  0  0  0  0  0
   38.6080   46.9090   -2.3350 C   0  0  0  0  0  0  0  0  0  0  0  0
   29.0350   52.7890   -7.3900 C   0  0  0  0  0  0  0  0  0  0  0  0
   29.3530   52.7220   -6.1230 N   0  0  0  0  0  0  0  0  0  0  0  0
   28.7520   53.9470   -8.0130 N   0  0  0  0  0  0  0  0  0  0  0  0
  1  2  1  0
  2  3  2  3
  2  4  1  0
  4  5  1  0
  3  6  1  0
  6  7  1  0
  5  8  1  0
  8  9  1  0
  8 10  2  0
  7 11  1  0
  9 12  2  0
  9 13  1  0
 10 14  1  0
 11 15  2  0
 11 16  1  0
 13 17  1  0
 14 17  2  0
 14 18  1  0
 16 19  2  0
 15 20  1  0
 18 21  2  0
 17 22  1  0
 19 23  1  0
 20 23  2  0
 19 24  1  0
 21 25  1  0
 22 25  2  0
 24 26  1  0
 23 27  1  0
 26 27  2  0
 26 28  1  0
M  END
