mac-x0116-mac-x0496
     RDKit          3D

 35 39  0  0  0  0  0  0  0  0999 V2000
   30.1850   52.2720   -8.4090 C   0  0  0  0  0  0  0  0  0  0  0  0
   31.0010   53.2930   -7.7380 C   0  0  0  0  0  0  0  0  0  0  0  0
   32.3430   53.0750   -7.6640 O   0  0  0  0  0  0  0  0  0  0  0  0
   30.6750   54.4740   -7.1430 C   0  0  0  0  0  0  0  0  0  0  0  0
   31.9020   55.0240   -6.6800 C   0  0  0  0  0  0  0  0  0  0  0  0
   32.8850   54.1340   -7.0210 C   0  0  0  0  0  0  0  0  0  0  0  0
   29.3170   55.0380   -7.0150 C   0  0  0  0  0  0  0  0  0  0  0  0
   29.0500   55.2750   -5.6120 N   0  0  0  0  0  0  0  0  0  0  0  0
   29.1660   56.6850   -5.1920 C   0  0  0  0  0  0  0  0  0  0  0  0
   28.3920   54.2900   -4.8500 C   0  0  0  0  0  0  0  0  0  0  0  0
   27.4680   54.5880   -4.1040 O   0  0  0  0  0  0  0  0  0  0  0  0
   27.8740   57.4200   -5.2210 C   0  0  0  0  0  0  0  0  0  0  0  0
   28.7400   52.8320   -4.7980 C   0  0  0  0  0  0  0  0  0  0  0  0
   27.6420   58.2810   -4.1810 O   0  0  0  0  0  0  0  0  0  0  0  0
   26.8860   57.3890   -6.0890 N   0  0  0  0  0  0  0  0  0  0  0  0
   29.2290   52.0530   -5.9420 C   0  0  0  0  0  0  0  0  0  0  0  0
   28.5280   52.3380   -3.4720 C   0  0  0  0  0  0  0  0  0  0  0  0
   29.7110   50.7670   -6.4820 C   0  0  0  0  0  0  0  0  0  0  0  0
   25.9950   58.2780   -5.5530 C   0  0  0  0  0  0  0  0  0  0  0  0
   26.3900   58.8510   -4.4060 N   0  0  0  0  0  0  0  0  0  0  0  0
   29.3800   50.7930   -5.3380 C   0  0  0  0  0  0  0  0  0  0  0  0
   28.7710   51.0200   -3.1570 C   0  0  0  0  0  0  0  0  0  0  0  0
   24.7020   58.5800   -6.1920 C   0  0  0  0  0  0  0  0  0  0  0  0
   28.6060   50.3700   -1.8590 C   0  0  0  0  0  0  0  0  0  0  0  0
   30.9110   50.4490   -5.8640 N   0  0  0  0  0  0  0  0  0  0  0  0
   29.2100   49.8720   -7.3500 C   0  0  0  0  0  0  0  0  0  0  0  0
   29.1940   50.2700   -4.1230 C   0  0  0  0  0  0  0  0  0  0  0  0
   28.3170   49.1920   -1.7410 O   0  0  0  0  0  0  0  0  0  0  0  0
   28.8340   51.1670   -0.8170 O   0  0  0  0  0  0  0  0  0  0  0  0
   31.5050   49.2450   -5.9940 C   0  0  0  0  0  0  0  0  0  0  0  0
   29.9810   48.6120   -7.4870 C   0  0  0  0  0  0  0  0  0  0  0  0
   28.1220   49.7540   -8.1600 N   0  0  0  0  0  0  0  0  0  0  0  0
   31.1030   48.3110   -6.7750 N   0  0  0  0  0  0  0  0  0  0  0  0
   29.4040   47.8360   -8.3340 N   0  0  0  0  0  0  0  0  0  0  0  0
   28.2970   48.5780   -8.7080 C   0  0  0  0  0  0  0  0  0  0  0  0
  1  2  1  0
  2  3  1  0
  2  4  2  0
  4  5  1  0
  3  6  1  0
  5  6  2  0
  4  7  1  0
  7  8  1  0
  8  9  1  0
  8 10  1  0
 10 11  2  0
  9 12  1  0
 10 13  1  0
 12 14  1  0
 12 15  2  0
 13 16  1  0
 13 17  2  0
 16 18  1  0
 15 19  1  0
 14 20  1  0
 19 20  2  0
 16 21  2  0
 17 22  1  0
 19 23  1  0
 22 24  1  0
 18 25  1  0
 18 26  2  0
 21 27  1  0
 22 27  2  0
 24 28  2  0
 24 29  1  0
 25 30  1  0
 26 31  1  0
 26 32  1  0
 30 33  2  0
 31 33  1  0
 31 34  2  0
 32 35  2  0
 34 35  1  0
M  END
