mac-x0365-mac-x0411
     RDKit          3D

 25 26  0  0  0  0  0  0  0  0999 V2000
   29.0250   47.5010   -5.3550 O   0  0  0  0  0  0  0  0  0  0  0  0
   29.9810   48.0340   -4.5820 C   0  0  0  0  0  0  0  0  0  0  0  0
   30.8770   47.3080   -4.0000 N   0  0  0  0  0  0  0  0  0  0  0  0
   29.8260   49.5170   -4.5300 C   0  0  0  0  0  0  0  0  0  0  0  0
   32.0130   47.6870   -3.1600 C   0  0  0  0  0  0  0  0  0  0  0  0
   30.0440   50.2440   -3.3550 C   0  0  0  0  0  0  0  0  0  0  0  0
   29.4330   50.2050   -5.7000 C   0  0  0  0  0  0  0  0  0  0  0  0
   33.2420   47.6220   -4.0800 C   0  0  0  0  0  0  0  0  0  0  0  0
   29.8720   51.6240   -3.3610 C   0  0  0  0  0  0  0  0  0  0  0  0
   29.2640   51.5960   -5.6930 C   0  0  0  0  0  0  0  0  0  0  0  0
   30.0780   52.3250   -2.2370 F   0  0  0  0  0  0  0  0  0  0  0  0
   29.4830   52.2980   -4.5150 C   0  0  0  0  0  0  0  0  0  0  0  0
   34.6190   47.1900   -3.5670 C   0  0  0  0  0  0  0  0  0  0  0  0
   29.3140   53.6540   -4.5080 O   0  0  0  0  0  0  0  0  0  0  0  0
   35.1410   45.8550   -3.4760 C   0  0  0  0  0  0  0  0  0  0  0  0
   35.4610   48.2450   -3.1650 C   0  0  0  0  0  0  0  0  0  0  0  0
   34.4420   44.7140   -3.8250 O   0  0  0  0  0  0  0  0  0  0  0  0
   36.7540   48.0200   -2.7000 C   0  0  0  0  0  0  0  0  0  0  0  0
   36.4540   45.6540   -3.0090 C   0  0  0  0  0  0  0  0  0  0  0  0
   37.1390   44.0720   -2.8950 Cl  0  0  0  0  0  0  0  0  0  0  0  0
   33.1400   44.8820   -4.3720 C   0  0  0  0  0  0  0  0  0  0  0  0
   37.2520   46.7280   -2.6260 C   0  0  0  0  0  0  0  0  0  0  0  0
   33.2490   45.0970   -5.8680 C   0  0  0  0  0  0  0  0  0  0  0  0
   32.0780   44.9960   -6.5260 O   0  0  0  0  0  0  0  0  0  0  0  0
   34.2780   45.3420   -6.4810 O   0  0  0  0  0  0  0  0  0  0  0  0
  1  2  1  0
  2  3  2  3
  2  4  1  0
  3  5  1  0
  4  6  2  0
  4  7  1  0
  5  8  1  0
  6  9  1  0
  7 10  2  0
  9 11  1  0
  9 12  2  0
 10 12  1  0
  8 13  1  0
 12 14  1  0
 13 15  2  0
 13 16  1  0
 15 17  1  0
 16 18  2  0
 15 19  1  0
 19 20  1  0
 17 21  1  0
 18 22  1  0
 19 22  2  0
 21 23  1  0
 23 24  1  0
 23 25  2  0
M  END
