mac-x0282-mac-x0584
     RDKit          3D

 17 20  0  0  0  0  0  0  0  0999 V2000
   29.6970   51.1650   -6.1310 C   0  0  0  0  0  0  0  0  0  0  0  0
   29.9720   50.2530   -5.0310 C   0  0  0  0  0  0  0  0  0  0  0  0
   29.6770   49.0510   -5.5340 C   0  0  0  0  0  0  0  0  0  0  0  0
   29.2730   50.6050   -7.2120 N   0  0  0  0  0  0  0  0  0  0  0  0
   29.2300   49.2690   -6.9250 C   0  0  0  0  0  0  0  0  0  0  0  0
   29.7070   47.6520   -5.0040 C   0  0  1  0  0  0  0  0  0  0  0  0
   28.8530   48.3880   -7.7810 N   0  0  0  0  0  0  0  0  0  0  0  0
   29.2400   46.6940   -6.1080 C   0  0  0  0  0  0  0  0  0  0  0  0
   28.8690   47.0940   -7.3350 C   0  0  0  0  0  0  0  0  0  0  0  0
   31.1030   47.1430   -4.5000 C   0  0  2  0  0  0  0  0  0  0  0  0
   28.7720   47.5100   -3.7760 C   0  0  0  0  0  0  0  0  0  0  0  0
   31.9730   46.4530   -5.5650 C   0  0  0  0  0  0  0  0  0  0  0  0
   30.7480   46.1390   -3.3890 C   0  0  0  0  0  0  0  0  0  0  0  0
   29.5130   46.7060   -2.7090 C   0  0  0  0  0  0  0  0  0  0  0  0
   32.4570   45.0100   -5.2150 C   0  0  0  0  0  0  0  0  0  0  0  0
   33.4920   46.8200   -5.5980 C   0  0  0  0  0  0  0  0  0  0  0  0
   33.7720   45.3450   -5.9350 C   0  0  0  0  0  0  0  0  0  0  0  0
  1  2  1  0
  2  3  2  0
  1  4  2  0
  3  5  1  0
  4  5  1  0
  3  6  1  0
  5  7  2  0
  6  8  1  6
  7  9  1  0
  8  9  2  0
  6 10  1  0
  6 11  1  0
 10 12  1  6
 10 13  1  0
 11 14  1  0
 13 14  1  0
 12 15  1  0
 12 16  1  0
 15 17  1  0
 16 17  1  0
M  END
