mac-x0282-mac-x0179
     RDKit          3D

 25 28  0  0  0  0  0  0  0  0999 V2000
   31.5260   46.0360   -5.3880 O   0  0  0  0  0  0  0  0  0  0  0  0
   32.7710   45.9380   -4.8260 C   0  0  0  0  0  0  0  0  0  0  0  0
   33.8210   46.0920   -5.4360 O   0  0  0  0  0  0  0  0  0  0  0  0
   30.6990   47.0770   -4.8370 C   0  0  0  0  0  0  0  0  0  0  0  0
   32.6460   45.6090   -3.3420 C   0  0  0  0  0  0  0  0  0  0  0  0
   29.9550   47.7480   -5.9670 C   0  0  0  0  0  0  0  0  0  0  0  0
   29.5140   49.0940   -5.9400 C   0  0  0  0  0  0  0  0  0  0  0  0
   29.6610   47.0280   -7.1400 C   0  0  0  0  0  0  0  0  0  0  0  0
   33.9260   45.7990   -2.6780 N   0  0  0  0  0  0  0  0  0  0  0  0
   29.5730   50.1730   -5.0100 C   0  0  0  0  0  0  0  0  0  0  0  0
   28.8410   49.5800   -7.0580 C   0  0  0  0  0  0  0  0  0  0  0  0
   28.9780   47.6440   -8.1820 C   0  0  0  0  0  0  0  0  0  0  0  0
   34.6380   44.7970   -2.0760 C   0  0  0  0  0  0  0  0  0  0  0  0
   34.4890   47.0230   -2.4510 C   0  0  0  0  0  0  0  0  0  0  0  0
   34.3520   43.6190   -1.9560 O   0  0  0  0  0  0  0  0  0  0  0  0
   34.0490   48.1250   -2.7090 O   0  0  0  0  0  0  0  0  0  0  0  0
   28.9470   51.2630   -5.5830 C   0  0  0  0  0  0  0  0  0  0  0  0
   28.5100   50.8870   -6.8260 N   0  0  0  0  0  0  0  0  0  0  0  0
   28.5460   48.9230   -8.1920 N   0  0  0  0  0  0  0  0  0  0  0  0
   35.8700   45.4130   -1.5750 C   0  0  0  0  0  0  0  0  0  0  0  0
   35.7780   46.7740   -1.8050 C   0  0  0  0  0  0  0  0  0  0  0  0
   36.9800   44.8480   -0.9700 C   0  0  0  0  0  0  0  0  0  0  0  0
   36.7850   47.6490   -1.4470 C   0  0  0  0  0  0  0  0  0  0  0  0
   38.0150   45.7150   -0.5970 C   0  0  0  0  0  0  0  0  0  0  0  0
   37.9190   47.1030   -0.8340 C   0  0  0  0  0  0  0  0  0  0  0  0
  1  2  1  0
  2  3  2  0
  1  4  1  0
  2  5  1  0
  4  6  1  0
  6  7  1  0
  6  8  2  0
  5  9  1  0
  7 10  1  0
  7 11  2  0
  8 12  1  0
  9 13  1  0
  9 14  1  0
 13 15  2  0
 14 16  2  0
 10 17  2  0
 11 18  1  0
 17 18  1  0
 11 19  1  0
 12 19  2  0
 13 20  1  0
 14 21  1  0
 20 21  2  0
 20 22  1  0
 21 23  1  0
 22 24  2  0
 23 25  2  0
 24 25  1  0
M  END
