mac-x0116-mac-x0255
     RDKit          3D

 30 34  0  0  0  0  0  0  0  0999 V2000
   29.2730   53.7960   -6.9660 C   0  0  0  0  0  0  0  0  0  0  0  0
   28.9030   52.4850   -7.4920 N   0  0  0  0  0  0  0  0  0  0  0  0
   29.0850   51.4110   -6.6130 C   0  0  0  0  0  0  0  0  0  0  0  0
   30.5970   54.3110   -7.4290 C   0  0  0  0  0  0  0  0  0  0  0  0
   31.5590   54.4830   -6.4730 O   0  0  0  0  0  0  0  0  0  0  0  0
   31.0940   54.6730   -8.6640 C   0  0  0  0  0  0  0  0  0  0  0  0
   32.4320   55.0870   -8.4530 C   0  0  0  0  0  0  0  0  0  0  0  0
   32.6650   54.9540   -7.1040 C   0  0  0  0  0  0  0  0  0  0  0  0
   28.8300   51.5480   -5.2820 N   0  0  0  0  0  0  0  0  0  0  0  0
   29.5340   50.1500   -7.0660 C   0  0  0  0  0  0  0  0  0  0  0  0
   29.0180   50.4890   -4.4690 C   0  0  0  0  0  0  0  0  0  0  0  0
   29.6800   49.1560   -6.1120 C   0  0  0  0  0  0  0  0  0  0  0  0
   29.8720   49.6770   -8.3220 N   0  0  0  0  0  0  0  0  0  0  0  0
   29.4410   49.2520   -4.7940 N   0  0  0  0  0  0  0  0  0  0  0  0
   30.1190   48.0620   -6.8100 N   0  0  0  0  0  0  0  0  0  0  0  0
   30.2190   48.4220   -8.1280 C   0  0  0  0  0  0  0  0  0  0  0  0
   30.4240   46.7600   -6.2560 C   0  0  0  0  0  0  0  0  0  0  0  0
   31.3490   46.0860   -7.1220 O   0  0  0  0  0  0  0  0  0  0  0  0
   32.3290   45.3640   -6.5090 C   0  0  0  0  0  0  0  0  0  0  0  0
   33.4880   45.7410   -6.3730 O   0  0  0  0  0  0  0  0  0  0  0  0
   31.8120   44.0310   -6.0150 C   0  0  0  0  0  0  0  0  0  0  0  0
   31.0710   44.2050   -4.7260 C   0  0  0  0  0  0  0  0  0  0  0  0
   29.7640   43.8670   -4.4420 C   0  0  0  0  0  0  0  0  0  0  0  0
   31.8430   44.8980   -3.3690 S   0  0  0  0  0  0  0  0  0  0  0  0
   29.3780   44.1790   -3.0950 C   0  0  0  0  0  0  0  0  0  0  0  0
   30.4350   44.7580   -2.3880 C   0  0  0  0  0  0  0  0  0  0  0  0
   28.1460   43.9930   -2.4250 C   0  0  0  0  0  0  0  0  0  0  0  0
   30.2930   45.1520   -1.0420 C   0  0  0  0  0  0  0  0  0  0  0  0
   28.0000   44.3830   -1.0890 C   0  0  0  0  0  0  0  0  0  0  0  0
   29.0650   44.9560   -0.4070 C   0  0  0  0  0  0  0  0  0  0  0  0
  1  2  1  0
  2  3  1  0
  1  4  1  0
  4  5  1  0
  4  6  2  0
  6  7  1  0
  5  8  1  0
  7  8  2  0
  3  9  2  0
  3 10  1  0
  9 11  1  0
 10 12  2  0
 10 13  1  0
 11 14  2  0
 12 14  1  0
 12 15  1  0
 13 16  2  0
 15 16  1  0
 15 17  1  0
 17 18  1  0
 18 19  1  0
 19 20  2  0
 19 21  1  0
 21 22  1  0
 22 23  2  0
 22 24  1  0
 23 25  1  0
 24 26  1  0
 25 26  2  0
 25 27  1  0
 26 28  1  0
 27 29  2  0
 28 30  2  0
 29 30  1  0
M  END
