mac-x0131-mac-x0417
     RDKit          3D

 31 35  0  0  0  0  0  0  0  0999 V2000
   30.5590   49.1930   -2.1760 C   0  0  0  0  0  0  0  0  0  0  0  0
   30.0430   49.1650   -3.5740 C   0  0  0  0  0  0  0  0  0  0  0  0
   29.4970   50.1750   -4.3510 C   0  0  0  0  0  0  0  0  0  0  0  0
   30.0580   48.0260   -4.3440 N   0  0  0  0  0  0  0  0  0  0  0  0
   29.2910   51.5880   -3.9330 C   0  0  0  0  0  0  0  0  0  0  0  0
   30.5730   46.7480   -3.9380 C   0  0  0  0  0  0  0  0  0  0  0  0
   29.1720   49.6090   -5.6300 C   0  0  0  0  0  0  0  0  0  0  0  0
   29.5310   48.2740   -5.5840 C   0  0  0  0  0  0  0  0  0  0  0  0
   28.6180   50.0520   -6.8440 C   0  0  0  0  0  0  0  0  0  0  0  0
   29.4000   47.3690   -6.5720 N   0  0  0  0  0  0  0  0  0  0  0  0
   31.9750   46.8990   -4.3660 C   0  0  0  0  0  0  0  0  0  0  0  0
   28.2040   51.3580   -7.0790 N   0  0  0  0  0  0  0  0  0  0  0  0
   28.4670   49.1820   -7.8620 N   0  0  0  0  0  0  0  0  0  0  0  0
   28.8590   47.9100   -7.6730 C   0  0  0  0  0  0  0  0  0  0  0  0
   33.0800   46.1310   -4.5430 C   0  0  0  0  0  0  0  0  0  0  0  0
   32.2930   48.1810   -4.6920 O   0  0  0  0  0  0  0  0  0  0  0  0
   33.3200   44.7340   -4.3450 C   0  0  1  0  0  0  0  0  0  0  0  0
   33.5800   48.2150   -5.0830 C   0  0  0  0  0  0  0  0  0  0  0  0
   34.1080   46.9770   -5.0140 C   0  0  0  0  0  0  0  0  0  0  0  0
   33.4660   44.3290   -5.7910 C   0  0  0  0  0  0  0  0  0  0  0  0
   34.5520   44.6170   -3.4940 C   0  0  0  0  0  0  0  0  0  0  0  0
   32.3010   44.2100   -6.4660 O   0  0  0  0  0  0  0  0  0  0  0  0
   34.5200   44.1640   -6.3790 O   0  0  0  0  0  0  0  0  0  0  0  0
   34.9130   43.4210   -3.0100 N   0  0  0  0  0  0  0  0  0  0  0  0
   35.4750   45.6410   -3.0820 C   0  0  0  0  0  0  0  0  0  0  0  0
   36.0700   43.6430   -2.2880 O   0  0  0  0  0  0  0  0  0  0  0  0
   36.4080   44.9570   -2.3310 C   0  0  0  0  0  0  0  0  0  0  0  0
   35.6630   47.0360   -3.2310 C   0  0  0  0  0  0  0  0  0  0  0  0
   37.5160   45.5420   -1.7220 C   0  0  0  0  0  0  0  0  0  0  0  0
   36.7640   47.6570   -2.6340 C   0  0  0  0  0  0  0  0  0  0  0  0
   37.6810   46.9200   -1.8890 C   0  0  0  0  0  0  0  0  0  0  0  0
  1  2  1  0
  2  3  2  0
  2  4  1  0
  3  5  1  0
  4  6  1  0
  3  7  1  0
  4  8  1  0
  7  8  2  0
  7  9  1  0
  8 10  1  0
  6 11  1  0
  9 12  1  0
  9 13  2  0
 10 14  2  0
 13 14  1  0
 11 15  2  0
 11 16  1  0
 15 17  1  0
 16 18  1  0
 15 19  1  0
 18 19  2  0
 17 20  1  6
 17 21  1  0
 20 22  1  0
 20 23  2  0
 21 24  2  0
 21 25  1  0
 24 26  1  0
 25 27  2  0
 26 27  1  0
 25 28  1  0
 27 29  1  0
 28 30  2  0
 29 31  2  0
 30 31  1  0
M  END
