mac-x0354-mac-x0588
     RDKit          3D

 33 37  0  0  0  0  0  0  0  0999 V2000
   36.4170   43.0980   -1.6760 C   0  0  0  0  0  0  0  0  0  0  0  0
   35.4460   43.2810   -2.7330 N   0  0  0  0  0  0  0  0  0  0  0  0
   34.6480   42.2490   -3.0620 N   0  0  0  0  0  0  0  0  0  0  0  0
   35.2250   44.4210   -3.4750 C   0  0  0  0  0  0  0  0  0  0  0  0
   33.8910   42.7440   -4.0440 C   0  0  0  0  0  0  0  0  0  0  0  0
   34.1950   44.0930   -4.3570 C   0  0  0  0  0  0  0  0  0  0  0  0
   35.9860   45.6520   -3.2750 C   0  0  0  0  0  0  0  0  0  0  0  0
   33.5480   44.8950   -5.3700 C   0  0  0  0  0  0  0  0  0  0  0  0
   37.3730   45.6550   -3.4840 C   0  0  0  0  0  0  0  0  0  0  0  0
   35.3470   46.8280   -2.8750 C   0  0  0  0  0  0  0  0  0  0  0  0
   32.3070   45.1890   -5.2380 N   0  0  0  0  0  0  0  0  0  0  0  0
   34.3130   45.2840   -6.4060 O   0  0  0  0  0  0  0  0  0  0  0  0
   38.1100   46.8280   -3.2930 C   0  0  0  0  0  0  0  0  0  0  0  0
   36.0860   48.0000   -2.6840 C   0  0  0  0  0  0  0  0  0  0  0  0
   31.6140   45.9970   -6.2350 C   0  0  0  0  0  0  0  0  0  0  0  0
   37.4650   47.9970   -2.8930 C   0  0  0  0  0  0  0  0  0  0  0  0
   31.0360   47.2290   -5.5350 C   0  0  0  0  0  0  0  0  0  0  0  0
   29.6490   47.0390   -4.8640 C   0  0  2  0  0  0  0  0  0  0  0  0
   28.8820   48.3260   -4.9090 N   0  0  0  0  0  0  0  0  0  0  0  0
   29.7480   46.3200   -3.4840 C   0  0  1  0  0  0  0  0  0  0  0  0
   29.6170   49.5120   -4.4950 C   0  0  0  0  0  0  0  0  0  0  0  0
   28.0930   48.4860   -6.1540 C   0  0  1  0  0  0  0  0  0  0  0  0
   28.6440   46.6860   -2.6240 O   0  0  0  0  0  0  0  0  0  0  0  0
   29.7000   44.7980   -3.5570 C   0  0  0  0  0  0  0  0  0  0  0  0
   29.9700   50.2770   -5.6800 N   0  0  0  0  0  0  0  0  0  0  0  0
   27.7140   49.9160   -6.5920 C   0  0  1  0  0  0  0  0  0  0  0  0
   28.9140   48.1090   -7.3070 N   0  0  0  0  0  0  0  0  0  0  0  0
   29.2570   44.4410   -2.1610 C   0  0  0  0  0  0  0  0  0  0  0  0
   28.2600   45.5380   -1.8540 C   0  0  0  0  0  0  0  0  0  0  0  0
   28.7710   50.9380   -6.1200 C   0  0  2  0  0  0  0  0  0  0  0  0
   27.4940   49.7970   -8.0520 N   0  0  0  0  0  0  0  0  0  0  0  0
   28.1310   48.5530   -8.4510 C   0  0  0  0  0  0  0  0  0  0  0  0
   29.2380   51.8530   -7.1450 N   0  0  0  0  0  0  0  0  0  0  0  0
  1  2  1  0
  2  3  1  0
  2  4  1  0
  3  5  2  0
  4  6  2  0
  5  6  1  0
  4  7  1  0
  6  8  1  0
  7  9  2  0
  7 10  1  0
  8 11  2  3
  8 12  1  0
  9 13  1  0
 10 14  2  0
 11 15  1  0
 13 16  2  0
 14 16  1  0
 15 17  1  0
 18 17  1  1
 18 19  1  0
 18 20  1  0
 19 21  1  0
 19 22  1  0
 20 23  1  0
 20 24  1  6
 21 25  1  0
 22 26  1  0
 22 27  1  6
 24 28  1  0
 23 29  1  0
 28 29  1  0
 25 30  1  0
 26 30  1  0
 26 31  1  6
 27 32  1  0
 31 32  1  0
 30 33  1  6
M  END
