mac-x0365-mac-x0223
     RDKit          3D

 24 25  0  0  0  0  0  0  0  0999 V2000
   28.4930   48.6300   -4.0590 O   0  0  0  0  0  0  0  0  0  0  0  0
   29.7380   49.0980   -3.8850 C   0  0  0  0  0  0  0  0  0  0  0  0
   30.6100   48.2950   -3.3700 N   0  0  0  0  0  0  0  0  0  0  0  0
   29.8050   50.4910   -4.3410 C   0  0  0  0  0  0  0  0  0  0  0  0
   30.0570   51.5010   -3.4110 C   0  0  0  0  0  0  0  0  0  0  0  0
   29.6120   50.8000   -5.6930 C   0  0  0  0  0  0  0  0  0  0  0  0
   30.2020   46.9950   -3.0080 C   0  0  0  0  0  0  0  0  0  0  0  0
   30.1160   52.8160   -3.8410 C   0  0  0  0  0  0  0  0  0  0  0  0
   29.6730   52.1300   -6.1200 C   0  0  0  0  0  0  0  0  0  0  0  0
   29.0350   46.8330   -2.2530 C   0  0  0  0  0  0  0  0  0  0  0  0
   30.9420   45.8520   -3.3860 C   0  0  0  0  0  0  0  0  0  0  0  0
   30.3570   53.7810   -2.9430 F   0  0  0  0  0  0  0  0  0  0  0  0
   32.2190   45.9560   -4.1960 C   0  0  0  0  0  0  0  0  0  0  0  0
   29.9240   53.1350   -5.1870 C   0  0  0  0  0  0  0  0  0  0  0  0
   28.6050   45.5730   -1.8810 C   0  0  0  0  0  0  0  0  0  0  0  0
   30.4820   44.5700   -2.9930 C   0  0  0  0  0  0  0  0  0  0  0  0
   29.9860   54.4450   -5.5680 O   0  0  0  0  0  0  0  0  0  0  0  0
   32.0840   45.6560   -5.6710 C   0  0  0  0  0  0  0  0  0  0  0  0
   27.4570   45.4750   -1.1420 O   0  0  0  0  0  0  0  0  0  0  0  0
   29.3120   44.4280   -2.2410 C   0  0  0  0  0  0  0  0  0  0  0  0
   28.7610   43.2540   -1.7990 O   0  0  0  0  0  0  0  0  0  0  0  0
   32.8090   46.1350   -6.5310 O   0  0  0  0  0  0  0  0  0  0  0  0
   31.0810   44.7990   -5.9710 O   0  0  0  0  0  0  0  0  0  0  0  0
   27.4130   43.0020   -2.1770 C   0  0  0  0  0  0  0  0  0  0  0  0
  1  2  1  0
  2  3  2  3
  2  4  1  0
  4  5  2  0
  4  6  1  0
  3  7  1  0
  5  8  1  0
  6  9  2  0
  7 10  2  0
  7 11  1  0
  8 12  1  0
 11 13  1  0
  8 14  2  0
  9 14  1  0
 10 15  1  0
 11 16  2  0
 14 17  1  0
 13 18  1  0
 15 19  1  0
 15 20  2  0
 16 20  1  0
 20 21  1  0
 18 22  2  0
 18 23  1  0
 21 24  1  0
M  END
