mac-x0433-mac-x0178
     RDKit          3D

 25 26  0  0  0  0  0  0  0  0999 V2000
   28.4450   50.6330   -6.5440 C   0  0  0  0  0  0  0  0  0  0  0  0
   28.9080   51.5890   -5.4860 C   0  0  0  0  0  0  0  0  0  0  0  0
   29.0850   52.9240   -5.7750 C   0  0  0  0  0  0  0  0  0  0  0  0
   29.1380   51.0840   -4.2610 N   0  0  0  0  0  0  0  0  0  0  0  0
   29.5540   51.9270   -3.3060 C   0  0  0  0  0  0  0  0  0  0  0  0
   29.5140   53.7220   -4.7360 C   0  0  0  0  0  0  0  0  0  0  0  0
   29.7370   55.1890   -4.9510 C   0  0  0  0  0  0  0  0  0  0  0  0
   29.8090   51.4640   -2.0180 N   0  0  0  0  0  0  0  0  0  0  0  0
   29.7510   53.2360   -3.4990 N   0  0  0  0  0  0  0  0  0  0  0  0
   29.6940   50.0180   -1.8770 C   0  0  0  0  0  0  0  0  0  0  0  0
   28.2720   49.6680   -1.4400 C   0  0  0  0  0  0  0  0  0  0  0  0
   27.8550   48.2800   -1.9170 C   0  0  0  0  0  0  0  0  0  0  0  0
   27.8550   47.3370   -0.7840 N   0  0  0  0  0  0  0  0  0  0  0  0
   29.0830   46.4550   -0.5770 S   0  0  2  0  0  0  0  0  0  0  0  0
   28.3040   45.0120   -0.2410 N   0  0  0  0  0  0  0  0  0  0  0  0
   30.0410   46.5480    0.4970 O   0  0  0  0  0  0  0  0  0  0  0  0
   29.9310   46.2990   -2.1170 C   0  0  0  0  0  0  0  0  0  0  0  0
   29.3690   45.5370   -3.1450 C   0  0  0  0  0  0  0  0  0  0  0  0
   31.1590   46.9430   -2.2950 C   0  0  0  0  0  0  0  0  0  0  0  0
   30.0430   45.4190   -4.3650 C   0  0  0  0  0  0  0  0  0  0  0  0
   31.8310   46.8230   -3.5170 C   0  0  0  0  0  0  0  0  0  0  0  0
   31.2750   46.0610   -4.5540 C   0  0  0  0  0  0  0  0  0  0  0  0
   32.0240   45.9640   -5.8350 C   0  0  0  0  0  0  0  0  0  0  0  0
   31.5610   45.6210   -6.9070 O   0  0  0  0  0  0  0  0  0  0  0  0
   33.3200   46.3000   -5.7090 O   0  0  0  0  0  0  0  0  0  0  0  0
  1  2  1  0
  2  3  2  0
  2  4  1  0
  4  5  2  0
  3  6  1  0
  6  7  1  0
  5  8  1  0
  5  9  1  0
  6  9  2  0
  8 10  1  0
 10 11  1  0
 11 12  1  0
 12 13  1  0
 13 14  2  0
 14 15  1  1
 14 16  2  0
 14 17  1  0
 17 18  2  0
 17 19  1  0
 18 20  1  0
 19 21  2  0
 20 22  2  0
 21 22  1  0
 22 23  1  0
 23 24  2  0
 23 25  1  0
M  END
