mac-x0159-mac-x0139
     RDKit          3D

 23 26  0  0  0  0  0  0  0  0999 V2000
   28.8090   51.9330   -6.2120 N   0  0  0  0  0  0  0  0  0  0  0  0
   28.6130   50.5930   -5.6810 C   0  0  1  0  0  0  0  0  0  0  0  0
   28.4150   49.4850   -6.7560 C   0  0  2  0  0  0  0  0  0  0  0  0
   29.6860   50.3610   -4.7310 N   0  0  0  0  0  0  0  0  0  0  0  0
   30.0020   48.9540   -4.4550 C   0  0  0  0  0  0  0  0  0  0  0  0
   28.4260   48.1330   -6.1010 C   0  0  2  0  0  0  0  0  0  0  0  0
   29.3730   49.3870   -7.8910 N   0  0  0  0  0  0  0  0  0  0  0  0
   28.8730   48.1170   -4.7230 N   0  0  0  0  0  0  0  0  0  0  0  0
   29.3810   47.2580   -6.8200 N   0  0  0  0  0  0  0  0  0  0  0  0
   30.1990   48.1950   -7.5980 C   0  0  0  0  0  0  0  0  0  0  0  0
   28.9920   46.7060   -4.7610 C   0  0  1  0  0  0  0  0  0  0  0  0
   30.1340   46.6210   -5.6670 N   0  0  0  0  0  0  0  0  0  0  0  0
   30.4510   45.2380   -6.0230 C   0  0  0  0  0  0  0  0  0  0  0  0
   28.9710   45.9310   -3.4780 C   0  0  0  0  0  0  0  0  0  0  0  0
   31.9030   44.8760   -5.7550 C   0  0  0  0  0  0  0  0  0  0  0  0
   29.1670   44.5690   -3.4180 C   0  0  0  0  0  0  0  0  0  0  0  0
   28.7090   46.5280   -2.2470 N   0  0  0  0  0  0  0  0  0  0  0  0
   32.6600   44.8770   -7.0470 C   0  0  0  0  0  0  0  0  0  0  0  0
   28.6960   45.6190   -1.3030 C   0  0  0  0  0  0  0  0  0  0  0  0
   29.0070   44.0150   -1.8150 S   0  0  0  0  0  0  0  0  0  0  0  0
   28.4270   45.8990    0.1280 C   0  0  0  0  0  0  0  0  0  0  0  0
   32.1870   44.6950   -8.1520 O   0  0  0  0  0  0  0  0  0  0  0  0
   33.9770   45.1090   -6.8960 O   0  0  0  0  0  0  0  0  0  0  0  0
  2  1  1  6
  2  3  1  0
  2  4  1  0
  4  5  1  0
  3  6  1  0
  3  7  1  6
  5  8  1  0
  6  8  1  1
  6  9  1  0
  7 10  1  0
  9 10  1  0
  8 11  1  0
  9 12  1  0
 11 12  1  0
 12 13  1  0
 11 14  1  1
 13 15  1  0
 14 16  2  0
 14 17  1  0
 15 18  1  0
 17 19  2  0
 16 20  1  0
 19 20  1  0
 19 21  1  0
 18 22  2  0
 18 23  1  0
M  END
