mac-x0397-mac-x0226
     RDKit          3D

 27 30  0  0  0  0  0  0  0  0999 V2000
   29.6510   52.3530   -2.3800 Cl  0  0  0  0  0  0  0  0  0  0  0  0
   29.5990   51.2920   -3.7240 C   0  0  0  0  0  0  0  0  0  0  0  0
   29.2840   51.8700   -4.9720 C   0  0  0  0  0  0  0  0  0  0  0  0
   29.8550   49.9250   -3.5870 C   0  0  0  0  0  0  0  0  0  0  0  0
   29.0040   53.2030   -5.2700 N   0  0  0  0  0  0  0  0  0  0  0  0
   29.2400   51.0120   -6.0750 C   0  0  0  0  0  0  0  0  0  0  0  0
   29.8000   49.0880   -4.7110 C   0  0  0  0  0  0  0  0  0  0  0  0
   30.0660   47.6040   -4.6000 C   0  0  0  0  0  0  0  0  0  0  0  0
   28.7580   53.3450   -6.5470 C   0  0  0  0  0  0  0  0  0  0  0  0
   28.8430   51.9150   -7.4830 S   0  0  0  0  0  0  0  0  0  0  0  0
   29.4930   49.6330   -5.9660 C   0  0  0  0  0  0  0  0  0  0  0  0
   28.4550   54.5290   -7.1090 N   0  0  0  0  0  0  0  0  0  0  0  0
   31.5430   47.2550   -4.7730 C   0  0  0  0  0  0  0  0  0  0  0  0
   31.7840   46.5370   -6.0010 O   0  0  0  0  0  0  0  0  0  0  0  0
   33.0840   46.1790   -6.1500 C   0  0  0  0  0  0  0  0  0  0  0  0
   33.8030   46.4860   -7.0930 O   0  0  0  0  0  0  0  0  0  0  0  0
   33.5380   45.3990   -5.0240 C   0  0  0  0  0  0  0  0  0  0  0  0
   32.9750   44.2220   -4.4960 C   0  0  0  0  0  0  0  0  0  0  0  0
   34.6210   45.6400   -4.2140 C   0  0  0  0  0  0  0  0  0  0  0  0
   33.6470   43.7600   -3.4400 N   0  0  0  0  0  0  0  0  0  0  0  0
   34.6640   44.6450   -3.2700 N   0  0  0  0  0  0  0  0  0  0  0  0
   35.6140   44.5030   -2.2320 C   0  0  0  0  0  0  0  0  0  0  0  0
   36.4740   45.5610   -1.9140 C   0  0  0  0  0  0  0  0  0  0  0  0
   35.7000   43.3010   -1.5160 C   0  0  0  0  0  0  0  0  0  0  0  0
   37.4090   45.4160   -0.8920 C   0  0  0  0  0  0  0  0  0  0  0  0
   36.6380   43.1640   -0.4930 C   0  0  0  0  0  0  0  0  0  0  0  0
   37.4930   44.2210   -0.1820 C   0  0  0  0  0  0  0  0  0  0  0  0
  1  2  1  0
  2  3  2  0
  2  4  1  0
  3  5  1  0
  3  6  1  0
  4  7  2  0
  7  8  1  0
  5  9  2  0
  6 10  1  0
  9 10  1  0
  6 11  2  0
  7 11  1  0
  9 12  1  0
  8 13  1  0
 13 14  1  0
 14 15  1  0
 15 16  2  0
 15 17  1  0
 17 18  1  0
 17 19  2  0
 18 20  2  0
 19 21  1  0
 20 21  1  0
 21 22  1  0
 22 23  2  0
 22 24  1  0
 23 25  1  0
 24 26  2  0
 25 27  2  0
 26 27  1  0
M  END
