mac-x0564-mac-x0587
     RDKit          3D

 23 25  0  0  0  0  0  0  0  0999 V2000
   29.4420   45.3080   -3.9790 O   0  0  0  0  0  0  0  0  0  0  0  0
   29.6720   46.1320   -3.1050 C   0  0  0  0  0  0  0  0  0  0  0  0
   29.8570   45.8120   -1.7860 N   0  0  0  0  0  0  0  0  0  0  0  0
   29.7640   47.5580   -3.4180 C   0  0  0  0  0  0  0  0  0  0  0  0
   30.0200   48.4530   -2.2920 C   0  0  0  0  0  0  0  0  0  0  0  0
   30.0840   46.7090   -0.8820 C   0  0  0  0  0  0  0  0  0  0  0  0
   29.6680   48.2920   -4.5390 C   0  0  0  0  0  0  0  0  0  0  0  0
   29.4170   47.8170   -5.9250 C   0  0  0  0  0  0  0  0  0  0  0  0
   30.1740   48.0650   -1.0780 N   0  0  0  0  0  0  0  0  0  0  0  0
   29.8510   49.7020   -4.1810 C   0  0  0  0  0  0  0  0  0  0  0  0
   30.0660   49.8020   -2.8090 C   0  0  0  0  0  0  0  0  0  0  0  0
   30.3730   46.8040   -6.5830 C   0  0  2  0  0  0  0  0  0  0  0  0
   28.4260   48.2700   -6.5080 O   0  0  0  0  0  0  0  0  0  0  0  0
   30.2730   51.0000   -2.1530 C   0  0  0  0  0  0  0  0  0  0  0  0
   29.8420   50.8510   -4.9550 C   0  0  0  0  0  0  0  0  0  0  0  0
   29.8010   45.3950   -6.6960 C   0  0  0  0  0  0  0  0  0  0  0  0
   31.9980   46.7480   -5.6860 S   0  0  0  0  0  0  0  0  0  0  0  0
   30.2630   52.1580   -2.9310 C   0  0  0  0  0  0  0  0  0  0  0  0
   30.0500   52.0840   -4.3210 C   0  0  0  0  0  0  0  0  0  0  0  0
   33.1580   47.2230   -7.0210 C   0  0  0  0  0  0  0  0  0  0  0  0
   34.2110   46.1590   -7.2700 C   0  0  0  0  0  0  0  0  0  0  0  0
   35.2720   46.1240   -6.6600 O   0  0  0  0  0  0  0  0  0  0  0  0
   33.8980   45.2440   -8.2150 O   0  0  0  0  0  0  0  0  0  0  0  0
  1  2  2  0
  2  3  1  0
  2  4  1  0
  4  5  1  0
  3  6  2  0
  4  7  2  0
  7  8  1  0
  5  9  2  0
  6  9  1  0
  7 10  1  0
  5 11  1  0
 10 11  2  0
  8 12  1  0
  8 13  2  0
 11 14  1  0
 10 15  1  0
 12 16  1  1
 12 17  1  0
 14 18  2  0
 15 19  2  0
 18 19  1  0
 17 20  1  0
 20 21  1  0
 21 22  2  0
 21 23  1  0
M  END
