mac-x0159-mac-x0348
     RDKit          3D

 26 29  0  0  0  0  0  0  0  0999 V2000
   28.6330   51.8030   -5.9010 N   0  0  0  0  0  0  0  0  0  0  0  0
   29.2690   50.4950   -5.8090 C   0  0  2  0  0  0  0  0  0  0  0  0
   28.4790   49.4240   -6.6160 C   0  0  2  0  0  0  0  0  0  0  0  0
   29.2540   50.2120   -4.4040 N   0  0  0  0  0  0  0  0  0  0  0  0
   30.2390   49.1880   -4.1410 C   0  0  0  0  0  0  0  0  0  0  0  0
   29.6420   48.3900   -6.4430 C   0  0  1  0  0  0  0  0  0  0  0  0
   28.5570   49.0060   -8.0560 N   0  0  0  0  0  0  0  0  0  0  0  0
   30.1050   48.1100   -5.1010 N   0  0  0  0  0  0  0  0  0  0  0  0
   29.0980   47.1230   -6.9600 N   0  0  0  0  0  0  0  0  0  0  0  0
   28.3380   47.5860   -8.0910 C   0  0  0  0  0  0  0  0  0  0  0  0
   30.3520   46.7270   -4.6220 C   0  0  1  0  0  0  0  0  0  0  0  0
   31.8000   46.2990   -4.2770 C   0  0  0  0  0  0  0  0  0  0  0  0
   29.2240   46.2530   -3.6340 C   0  0  1  0  0  0  0  0  0  0  0  0
   32.5790   46.0730   -5.5560 C   0  0  0  0  0  0  0  0  0  0  0  0
   28.9590   44.7690   -3.7800 C   0  0  0  0  0  0  0  0  0  0  0  0
   29.1180   46.6180   -2.0650 C   0  0  0  0  0  0  0  0  0  0  0  0
   32.1130   45.4950   -6.5290 O   0  0  0  0  0  0  0  0  0  0  0  0
   33.8350   46.5620   -5.5460 O   0  0  0  0  0  0  0  0  0  0  0  0
   27.8080   45.8980   -1.5450 C   0  0  1  0  0  0  0  0  0  0  0  0
   27.9530   44.3000   -2.4130 S   0  0  0  0  0  0  0  0  0  0  0  0
   28.9620   48.1290   -1.8480 C   0  0  0  0  0  0  0  0  0  0  0  0
   30.2420   46.1210   -1.1710 C   0  0  0  0  0  0  0  0  0  0  0  0
   27.6580   45.6870   -0.0430 C   0  0  0  0  0  0  0  0  0  0  0  0
   29.3570   48.7620   -0.7290 C   0  0  0  0  0  0  0  0  0  0  0  0
   30.6250   46.7620   -0.0500 C   0  0  0  0  0  0  0  0  0  0  0  0
   29.9880   48.0350    0.4150 C   0  0  0  0  0  0  0  0  0  0  0  0
  2  1  1  1
  2  3  1  0
  2  4  1  0
  4  5  1  0
  3  6  1  0
  3  7  1  6
  5  8  1  0
  6  8  1  0
  6  9  1  1
  7 10  1  0
  9 10  1  0
  8 11  1  0
 11 12  1  1
 11 13  1  0
 12 14  1  0
 13 15  1  1
 13 16  1  0
 14 17  2  0
 14 18  1  0
 16 19  1  0
 15 20  2  0
 19 20  1  0
 16 21  1  0
 16 22  1  0
 19 23  1  1
 21 24  2  0
 22 25  2  0
 24 26  1  0
 25 26  1  0
M  END
