mac-x0346-mac-x0282
     RDKit          3D

 15 16  0  0  0  0  0  0  0  0999 V2000
   29.7270   54.9630   -5.3690 O   0  0  0  0  0  0  0  0  0  0  0  0
   29.0550   54.3720   -4.2730 N   0  0  0  0  0  0  0  0  0  0  0  0
   29.4450   53.0980   -3.9320 C   0  0  0  0  0  0  0  0  0  0  0  0
   29.9690   52.8670   -2.8430 O   0  0  0  0  0  0  0  0  0  0  0  0
   29.2100   52.0040   -4.9280 C   0  0  0  0  0  0  0  0  0  0  0  0
   29.5330   50.6500   -4.7150 C   0  0  0  0  0  0  0  0  0  0  0  0
   28.6340   52.3660   -6.1490 C   0  0  0  0  0  0  0  0  0  0  0  0
   30.0990   50.2970   -3.5080 O   0  0  0  0  0  0  0  0  0  0  0  0
   29.2860   49.6630   -5.7170 C   0  0  0  0  0  0  0  0  0  0  0  0
   28.3910   51.4010   -7.1290 C   0  0  0  0  0  0  0  0  0  0  0  0
   28.7030   50.0650   -6.9430 C   0  0  0  0  0  0  0  0  0  0  0  0
   29.5810   48.2840   -5.5900 C   0  0  0  0  0  0  0  0  0  0  0  0
   29.3040   47.3980   -6.6280 C   0  0  0  0  0  0  0  0  0  0  0  0
   28.4360   49.2090   -7.9460 N   0  0  0  0  0  0  0  0  0  0  0  0
   28.7370   47.9050   -7.7760 C   0  0  0  0  0  0  0  0  0  0  0  0
  1  2  1  0
  2  3  1  0
  3  4  2  0
  3  5  1  0
  5  6  2  0
  5  7  1  0
  6  8  1  0
  6  9  1  0
  7 10  2  0
  9 11  2  0
 10 11  1  0
  9 12  1  0
 12 13  2  0
 11 14  1  0
 13 15  1  0
 14 15  2  0
M  END
