mac-x0433-mac-x0277
     RDKit          3D

 23 24  0  0  0  0  0  0  0  0999 V2000
   28.4990   50.5970   -6.3370 C   0  0  0  0  0  0  0  0  0  0  0  0
   28.9440   51.6160   -5.3310 C   0  0  0  0  0  0  0  0  0  0  0  0
   29.1090   52.9330   -5.7010 C   0  0  0  0  0  0  0  0  0  0  0  0
   29.1680   51.1860   -4.0730 N   0  0  0  0  0  0  0  0  0  0  0  0
   29.5670   52.0900   -3.1720 C   0  0  0  0  0  0  0  0  0  0  0  0
   29.5220   53.7980   -4.7080 C   0  0  0  0  0  0  0  0  0  0  0  0
   29.7310   55.2500   -5.0090 C   0  0  0  0  0  0  0  0  0  0  0  0
   29.7850   51.6010   -1.8920 N   0  0  0  0  0  0  0  0  0  0  0  0
   29.7530   53.3900   -3.4460 N   0  0  0  0  0  0  0  0  0  0  0  0
   29.3230   50.2500   -1.6200 C   0  0  0  0  0  0  0  0  0  0  0  0
   30.3750   49.2000   -1.9930 C   0  0  0  0  0  0  0  0  0  0  0  0
   30.2310   47.9520   -1.1190 C   0  0  0  0  0  0  0  0  0  0  0  0
   30.0890   46.6950   -1.9520 C   0  0  0  0  0  0  0  0  0  0  0  0
   31.1500   46.3300   -2.8060 C   0  0  0  0  0  0  0  0  0  0  0  0
   28.9500   45.8780   -1.9140 C   0  0  0  0  0  0  0  0  0  0  0  0
   27.5960   46.2370   -0.9000 Cl  0  0  0  0  0  0  0  0  0  0  0  0
   31.0830   45.1780   -3.6060 C   0  0  0  0  0  0  0  0  0  0  0  0
   28.8720   44.7300   -2.7060 C   0  0  0  0  0  0  0  0  0  0  0  0
   32.2310   44.8040   -4.5150 C   0  0  0  0  0  0  0  0  0  0  0  0
   29.9320   44.3820   -3.5480 C   0  0  0  0  0  0  0  0  0  0  0  0
   32.2880   45.5800   -5.8100 C   0  0  0  0  0  0  0  0  0  0  0  0
   33.3590   46.4040   -5.8520 O   0  0  0  0  0  0  0  0  0  0  0  0
   31.5210   45.5400   -6.7560 O   0  0  0  0  0  0  0  0  0  0  0  0
  1  2  1  0
  2  3  2  0
  2  4  1  0
  4  5  2  0
  3  6  1  0
  6  7  1  0
  5  8  1  0
  5  9  1  0
  6  9  2  0
  8 10  1  0
 10 11  1  0
 11 12  1  0
 12 13  1  0
 13 14  2  0
 13 15  1  0
 15 16  1  0
 14 17  1  0
 15 18  2  0
 17 19  1  0
 17 20  2  0
 18 20  1  0
 19 21  1  0
 21 22  1  0
 21 23  2  0
M  END
