mac-x0433-mac-x0163
     RDKit          3D

 24 27  0  0  0  0  0  0  0  0999 V2000
   29.5810   54.8920   -5.9150 C   0  0  0  0  0  0  0  0  0  0  0  0
   29.4400   53.5710   -5.2200 C   0  0  0  0  0  0  0  0  0  0  0  0
   29.3170   53.5870   -3.8770 N   0  0  0  0  0  0  0  0  0  0  0  0
   29.4370   52.3970   -5.9450 C   0  0  0  0  0  0  0  0  0  0  0  0
   29.3010   51.2190   -5.2300 C   0  0  0  0  0  0  0  0  0  0  0  0
   29.1910   52.4060   -3.2680 C   0  0  0  0  0  0  0  0  0  0  0  0
   29.0640   52.4120   -1.8950 N   0  0  0  0  0  0  0  0  0  0  0  0
   29.1770   51.2210   -3.8830 N   0  0  0  0  0  0  0  0  0  0  0  0
   29.2850   49.9030   -5.9140 C   0  0  0  0  0  0  0  0  0  0  0  0
   29.9450   48.7570   -5.4630 C   0  0  0  0  0  0  0  0  0  0  0  0
   28.5480   49.9030   -7.0620 N   0  0  0  0  0  0  0  0  0  0  0  0
   30.8890   48.7310   -4.0070 Cl  0  0  0  0  0  0  0  0  0  0  0  0
   29.8070   47.6050   -6.2530 C   0  0  0  0  0  0  0  0  0  0  0  0
   28.4850   48.7510   -7.7350 C   0  0  0  0  0  0  0  0  0  0  0  0
   29.0750   47.6060   -7.3900 N   0  0  0  0  0  0  0  0  0  0  0  0
   30.4330   46.3840   -5.8890 N   0  0  0  0  0  0  0  0  0  0  0  0
   31.8290   46.0220   -6.0940 C   0  0  0  0  0  0  0  0  0  0  0  0
   29.6680   45.6020   -4.9000 C   0  0  0  0  0  0  0  0  0  0  0  0
   32.1610   44.7590   -5.2870 C   0  0  0  0  0  0  0  0  0  0  0  0
   32.3520   46.0220   -7.5670 C   0  0  0  0  0  0  0  0  0  0  0  0
   32.7910   47.2450   -5.8840 C   0  0  0  0  0  0  0  0  0  0  0  0
   30.4340   45.4740   -3.5770 C   0  0  0  0  0  0  0  0  0  0  0  0
   31.8370   44.9200   -3.7970 C   0  0  0  0  0  0  0  0  0  0  0  0
   33.6330   46.7040   -7.0520 C   0  0  0  0  0  0  0  0  0  0  0  0
  1  2  1  0
  2  3  2  0
  2  4  1  0
  4  5  2  0
  3  6  1  0
  6  7  1  0
  5  8  1  0
  6  8  2  0
  5  9  1  0
  9 10  2  0
  9 11  1  0
 10 12  1  0
 10 13  1  0
 11 14  2  0
 13 15  2  0
 14 15  1  0
 13 16  1  0
 17 16  1  0
 16 18  1  0
 17 19  1  0
 17 20  1  0
 17 21  1  0
 18 22  1  0
 19 23  1  0
 22 23  1  0
 20 24  1  0
 21 24  1  0
M  END
