mac-x0412-mac-x0576
     RDKit          3D

 19 21  0  0  0  0  0  0  0  0999 V2000
   30.2250   54.7620   -5.7790 O   0  0  0  0  0  0  0  0  0  0  0  0
   29.4930   53.7750   -5.7610 C   0  0  0  0  0  0  0  0  0  0  0  0
   28.1440   53.8960   -6.0040 N   0  0  0  0  0  0  0  0  0  0  0  0
   30.0020   52.3680   -5.4770 C   0  0  2  0  0  0  0  0  0  0  0  0
   29.1480   51.2880   -6.1850 C   0  0  2  0  0  0  0  0  0  0  0  0
   27.2500   52.8720   -5.8860 C   0  0  0  0  0  0  0  0  0  0  0  0
   30.0780   52.1270   -3.9770 C   0  0  0  0  0  0  0  0  0  0  0  0
   30.0780   53.0290   -3.1400 O   0  0  0  0  0  0  0  0  0  0  0  0
   27.6720   51.6040   -5.9650 C   0  0  0  0  0  0  0  0  0  0  0  0
   29.6040   49.8270   -5.7970 C   0  0  1  0  0  0  0  0  0  0  0  0
   30.1610   50.7330   -3.4960 C   0  0  0  0  0  0  0  0  0  0  0  0
   29.9460   49.7000   -4.3230 C   0  0  0  0  0  0  0  0  0  0  0  0
   28.5200   48.8080   -6.1670 C   0  0  0  0  0  0  0  0  0  0  0  0
   30.8330   49.3640   -6.6140 C   0  0  0  0  0  0  0  0  0  0  0  0
   27.5400   48.5530   -5.4620 O   0  0  0  0  0  0  0  0  0  0  0  0
   28.6780   48.1480   -7.3500 N   0  0  0  0  0  0  0  0  0  0  0  0
   30.5690   49.3830   -8.0590 N   0  0  0  0  0  0  0  0  0  0  0  0
   29.4060   48.6480   -8.4540 C   0  0  1  0  0  0  0  0  0  0  0  0
   29.8260   47.5230   -9.2190 N   0  0  0  0  0  0  0  0  0  0  0  0
  1  2  2  0
  2  3  1  0
  4  2  1  1
  4  5  1  0
  3  6  1  0
  4  7  1  0
  7  8  2  0
  5  9  1  1
  6  9  2  0
  5 10  1  0
  7 11  1  0
 10 12  1  1
 11 12  2  0
 10 13  1  0
 10 14  1  0
 13 15  2  0
 13 16  1  0
 14 17  1  0
 16 18  1  0
 17 18  1  0
 18 19  1  6
M  END
