mac-x0321-mac-x0433
     RDKit          3D

 13 13  0  0  0  0  0  0  0  0999 V2000
   28.6250   52.4240   -6.9370 Cl  0  0  0  0  0  0  0  0  0  0  0  0
   29.2020   51.5940   -5.5180 C   0  0  0  0  0  0  0  0  0  0  0  0
   29.5020   50.2160   -5.6060 C   0  0  0  0  0  0  0  0  0  0  0  0
   29.3580   52.3180   -4.3060 C   0  0  0  0  0  0  0  0  0  0  0  0
   29.3350   49.4490   -6.8940 C   0  0  0  0  0  0  0  0  0  0  0  0
   29.0250   53.7920   -4.2550 C   0  0  0  0  0  0  0  0  0  0  0  0
   29.9640   49.5790   -4.4440 C   0  0  0  0  0  0  0  0  0  0  0  0
   29.8250   51.6440   -3.1590 C   0  0  0  0  0  0  0  0  0  0  0  0
   30.3080   48.1390   -4.4310 C   0  0  0  0  0  0  0  0  0  0  0  0
   30.0070   52.2910   -1.9280 N   0  0  0  0  0  0  0  0  0  0  0  0
   30.1230   50.2820   -3.2410 C   0  0  0  0  0  0  0  0  0  0  0  0
   29.2690   47.3730   -4.8300 O   0  0  0  0  0  0  0  0  0  0  0  0
   31.3980   47.7030   -4.1050 O   0  0  0  0  0  0  0  0  0  0  0  0
  1  2  1  0
  2  3  2  0
  2  4  1  0
  3  5  1  0
  4  6  1  0
  3  7  1  0
  4  8  2  0
  7  9  1  0
  8 10  1  0
  7 11  2  0
  8 11  1  0
  9 12  1  0
  9 13  2  0
M  END
