mac-x0361-mac-x0455
     RDKit          3D

 21 22  0  0  0  0  0  0  0  0999 V2000
   28.8360   53.6800   -6.1980 N   0  0  0  0  0  0  0  0  0  0  0  0
   29.4820   53.4010   -5.0260 C   0  0  0  0  0  0  0  0  0  0  0  0
   29.8720   54.3140   -4.3060 O   0  0  0  0  0  0  0  0  0  0  0  0
   29.6850   51.9660   -4.6590 C   0  0  0  0  0  0  0  0  0  0  0  0
   29.6540   50.9280   -5.6010 C   0  0  0  0  0  0  0  0  0  0  0  0
   29.9160   51.6540   -3.3120 C   0  0  0  0  0  0  0  0  0  0  0  0
   29.8480   49.5950   -5.2070 C   0  0  0  0  0  0  0  0  0  0  0  0
   30.1080   50.3240   -2.9230 C   0  0  0  0  0  0  0  0  0  0  0  0
   30.0740   49.2910   -3.8650 C   0  0  0  0  0  0  0  0  0  0  0  0
   30.2640   48.0340   -3.3460 O   0  0  0  0  0  0  0  0  0  0  0  0
   30.9120   46.9250   -4.0110 C   0  0  1  0  0  0  0  0  0  0  0  0
   30.4010   45.8400   -3.2090 O   0  0  0  0  0  0  0  0  0  0  0  0
   30.4540   46.4920   -5.4550 C   0  0  0  0  0  0  0  0  0  0  0  0
   32.4150   46.7880   -3.7280 C   0  0  0  0  0  0  0  0  0  0  0  0
   29.3280   46.0860   -5.7330 O   0  0  0  0  0  0  0  0  0  0  0  0
   31.3810   46.5520   -6.4350 O   0  0  0  0  0  0  0  0  0  0  0  0
   33.2500   47.9190   -3.6100 C   0  0  0  0  0  0  0  0  0  0  0  0
   33.0140   45.5230   -3.5750 C   0  0  0  0  0  0  0  0  0  0  0  0
   34.6170   47.7850   -3.3500 C   0  0  0  0  0  0  0  0  0  0  0  0
   34.3790   45.3900   -3.3170 C   0  0  0  0  0  0  0  0  0  0  0  0
   35.1820   46.5180   -3.2030 C   0  0  0  0  0  0  0  0  0  0  0  0
  1  2  1  0
  2  3  2  0
  2  4  1  0
  4  5  2  0
  4  6  1  0
  5  7  1  0
  6  8  2  0
  7  9  2  0
  8  9  1  0
  9 10  1  0
 11 10  1  0
 11 12  1  1
 11 13  1  0
 11 14  1  0
 13 15  2  0
 13 16  1  0
 14 17  2  0
 14 18  1  0
 17 19  1  0
 18 20  2  0
 19 21  2  0
 20 21  1  0
M  END
