mac-x0139-mac-x0441
     RDKit          3D

 30 33  0  0  0  0  0  0  0  0999 V2000
   30.1180   47.0220   -4.1620 C   0  0  0  0  0  0  0  0  0  0  0  0
   30.4530   46.6920   -5.5650 N   0  0  0  0  0  0  0  0  0  0  0  0
   30.7740   45.2390   -5.7170 C   0  0  0  0  0  0  0  0  0  0  0  0
   29.6790   47.3260   -6.5810 C   0  0  0  0  0  0  0  0  0  0  0  0
   32.2430   44.8860   -5.3910 C   0  0  1  0  0  0  0  0  0  0  0  0
   29.5580   48.6770   -6.5990 C   0  0  0  0  0  0  0  0  0  0  0  0
   29.0440   46.5470   -7.5570 N   0  0  0  0  0  0  0  0  0  0  0  0
   32.9300   44.6900   -6.7380 C   0  0  0  0  0  0  0  0  0  0  0  0
   32.8450   45.9480   -4.4650 C   0  0  0  0  0  0  0  0  0  0  0  0
   28.7490   49.3020   -7.6660 C   0  0  0  0  0  0  0  0  0  0  0  0
   28.3480   47.1380   -8.4740 C   0  0  0  0  0  0  0  0  0  0  0  0
   30.0200   49.7760   -5.8240 C   0  0  0  0  0  0  0  0  0  0  0  0
   32.6940   43.7090   -7.4410 O   0  0  0  0  0  0  0  0  0  0  0  0
   33.8110   45.6100   -7.1660 O   0  0  0  0  0  0  0  0  0  0  0  0
   28.1700   48.4860   -8.5770 N   0  0  0  0  0  0  0  0  0  0  0  0
   28.7200   50.5980   -7.5490 N   0  0  0  0  0  0  0  0  0  0  0  0
   29.5000   50.8550   -6.4270 C   0  0  0  0  0  0  0  0  0  0  0  0
   34.0080   45.4710   -3.7210 N   0  0  0  0  0  0  0  0  0  0  0  0
   34.0280   44.1790   -3.3040 N   0  0  0  0  0  0  0  0  0  0  0  0
   35.1250   46.1580   -3.3650 C   0  0  0  0  0  0  0  0  0  0  0  0
   35.2110   44.0500   -2.6580 C   0  0  0  0  0  0  0  0  0  0  0  0
   35.9260   45.2820   -2.6800 C   0  0  0  0  0  0  0  0  0  0  0  0
   35.4380   47.5860   -3.6540 C   0  0  0  0  0  0  0  0  0  0  0  0
   35.6710   42.7580   -2.0160 C   0  0  0  0  0  0  0  0  0  0  0  0
   37.2550   45.6610   -2.1200 C   0  0  0  0  0  0  0  0  0  0  0  0
   36.6640   48.0360   -2.8340 C   0  0  0  0  0  0  0  0  0  0  0  0
   36.6840   42.1430   -2.6960 F   0  0  0  0  0  0  0  0  0  0  0  0
   36.1270   42.9610   -0.7450 F   0  0  0  0  0  0  0  0  0  0  0  0
   34.6600   41.8510   -1.9240 F   0  0  0  0  0  0  0  0  0  0  0  0
   37.7640   46.9580   -2.7810 C   0  0  0  0  0  0  0  0  0  0  0  0
  1  2  1  0
  2  3  1  0
  2  4  1  0
  5  3  1  6
  4  6  2  0
  4  7  1  0
  5  8  1  0
  5  9  1  0
  6 10  1  0
  7 11  2  0
  6 12  1  0
  8 13  2  0
  8 14  1  0
 10 15  1  0
 11 15  1  0
 10 16  2  0
 12 17  2  0
 16 17  1  0
  9 18  1  0
 18 19  1  0
 18 20  1  0
 19 21  2  0
 20 22  2  0
 21 22  1  0
 20 23  1  0
 21 24  1  0
 22 25  1  0
 23 26  1  0
 24 27  1  0
 24 28  1  0
 24 29  1  0
 25 30  1  0
 26 30  1  0
M  END
