mac-x0188-mac-x0417
     RDKit          3D

 26 30  0  0  0  0  0  0  0  0999 V2000
   32.8580   44.9430   -3.9940 C   0  0  2  0  0  0  0  0  0  0  0  0
   32.9570   44.8730   -5.5180 C   0  0  0  0  0  0  0  0  0  0  0  0
   33.6980   44.0490   -6.0610 O   0  0  0  0  0  0  0  0  0  0  0  0
   32.1270   46.1630   -3.6460 C   0  0  0  0  0  0  0  0  0  0  0  0
   34.2140   44.8510   -3.3590 C   0  0  0  0  0  0  0  0  0  0  0  0
   32.2340   45.7050   -6.3180 O   0  0  0  0  0  0  0  0  0  0  0  0
   32.1000   46.6420   -2.3850 O   0  0  0  0  0  0  0  0  0  0  0  0
   31.4030   46.9600   -4.4770 C   0  0  0  0  0  0  0  0  0  0  0  0
   34.6070   43.6810   -2.8270 N   0  0  0  0  0  0  0  0  0  0  0  0
   35.2230   45.8490   -3.2070 C   0  0  0  0  0  0  0  0  0  0  0  0
   31.3130   46.6080   -5.8610 C   0  0  0  0  0  0  0  0  0  0  0  0
   31.3350   47.7950   -2.3760 N   0  0  0  0  0  0  0  0  0  0  0  0
   30.9070   47.9990   -3.6400 C   0  0  0  0  0  0  0  0  0  0  0  0
   35.8780   43.8960   -2.3230 O   0  0  0  0  0  0  0  0  0  0  0  0
   36.2460   45.1830   -2.5460 C   0  0  0  0  0  0  0  0  0  0  0  0
   35.4110   47.2050   -3.5310 C   0  0  0  0  0  0  0  0  0  0  0  0
   30.4710   47.0650   -6.6200 O   0  0  0  0  0  0  0  0  0  0  0  0
   30.0660   49.1580   -3.9470 C   0  0  0  0  0  0  0  0  0  0  0  0
   37.4570   45.7630   -2.1750 C   0  0  0  0  0  0  0  0  0  0  0  0
   36.6220   47.8200   -3.1710 C   0  0  0  0  0  0  0  0  0  0  0  0
   29.5500   49.9330   -2.8930 C   0  0  0  0  0  0  0  0  0  0  0  0
   29.7590   49.5230   -5.2620 C   0  0  0  0  0  0  0  0  0  0  0  0
   37.6240   47.1100   -2.5050 C   0  0  0  0  0  0  0  0  0  0  0  0
   28.7460   51.0450   -3.1560 C   0  0  0  0  0  0  0  0  0  0  0  0
   28.9540   50.6350   -5.5220 C   0  0  0  0  0  0  0  0  0  0  0  0
   28.4460   51.3950   -4.4700 C   0  0  0  0  0  0  0  0  0  0  0  0
  1  2  1  0
  2  3  2  0
  1  4  1  0
  1  5  1  1
  2  6  1  0
  4  7  1  0
  4  8  2  0
  5  9  2  0
  5 10  1  0
  6 11  1  0
  8 11  1  0
  7 12  1  0
  8 13  1  0
 12 13  2  0
  9 14  1  0
 10 15  2  0
 14 15  1  0
 10 16  1  0
 11 17  2  0
 13 18  1  0
 15 19  1  0
 16 20  2  0
 18 21  2  0
 18 22  1  0
 19 23  2  0
 20 23  1  0
 21 24  1  0
 22 25  2  0
 24 26  2  0
 25 26  1  0
M  END
