mac-x0159-mac-x0277
     RDKit          3D

 22 24  0  0  0  0  0  0  0  0999 V2000
   27.4890   51.3760   -6.5910 N   0  0  0  0  0  0  0  0  0  0  0  0
   28.8690   51.0760   -6.2300 C   0  0  2  0  0  0  0  0  0  0  0  0
   29.4880   49.8760   -7.0080 C   0  0  1  0  0  0  0  0  0  0  0  0
   28.8080   50.9370   -4.8040 N   0  0  0  0  0  0  0  0  0  0  0  0
   29.8330   50.0480   -4.2990 C   0  0  0  0  0  0  0  0  0  0  0  0
   29.5240   48.5760   -6.1750 C   0  0  1  0  0  0  0  0  0  0  0  0
   28.6970   49.5290   -8.2170 N   0  0  0  0  0  0  0  0  0  0  0  0
   29.5010   48.6950   -4.7180 N   0  0  0  0  0  0  0  0  0  0  0  0
   28.2970   47.9120   -6.5950 N   0  0  0  0  0  0  0  0  0  0  0  0
   28.2610   48.1520   -8.0230 C   0  0  0  0  0  0  0  0  0  0  0  0
   30.3960   47.7010   -4.0890 C   0  0  0  0  0  0  0  0  0  0  0  0
   29.7000   46.3730   -3.6460 C   0  0  1  0  0  0  0  0  0  0  0  0
   30.7310   45.2090   -3.5200 C   0  0  2  0  0  0  0  0  0  0  0  0
   29.0630   46.5450   -2.3080 N   0  0  0  0  0  0  0  0  0  0  0  0
   30.1020   47.3470   -1.1120 Cl  0  0  0  0  0  0  0  0  0  0  0  0
   30.9760   44.4350   -4.8180 C   0  0  0  0  0  0  0  0  0  0  0  0
   28.6560   45.2160   -1.8510 C   0  0  1  0  0  0  0  0  0  0  0  0
   30.0020   44.0810   -2.2730 S   0  0  0  0  0  0  0  0  0  0  0  0
   28.4110   45.1910   -0.3450 C   0  0  0  0  0  0  0  0  0  0  0  0
   32.4270   44.4150   -5.2260 C   0  0  0  0  0  0  0  0  0  0  0  0
   33.2680   44.3220   -4.1720 O   0  0  0  0  0  0  0  0  0  0  0  0
   32.8740   44.4690   -6.3590 O   0  0  0  0  0  0  0  0  0  0  0  0
  2  1  1  6
  2  3  1  0
  2  4  1  0
  4  5  1  0
  3  6  1  0
  3  7  1  6
  5  8  1  0
  6  8  1  0
  6  9  1  6
  7 10  1  0
  9 10  1  0
  8 11  1  0
 12 11  1  1
 12 13  1  0
 12 14  1  0
 14 15  1  0
 13 16  1  6
 14 17  1  0
 13 18  1  0
 17 18  1  0
 17 19  1  1
 16 20  1  0
 20 21  1  0
 20 22  2  0
M  END
