mac-x0412-mac-x0319
     RDKit          3D

 25 27  0  0  0  0  0  0  0  0999 V2000
   29.8970   54.3290   -3.9060 O   0  0  0  0  0  0  0  0  0  0  0  0
   29.2460   53.7180   -4.7470 C   0  0  0  0  0  0  0  0  0  0  0  0
   28.7420   54.3630   -5.8710 N   0  0  0  0  0  0  0  0  0  0  0  0
   28.9270   52.2030   -4.6000 C   0  0  1  0  0  0  0  0  0  0  0  0
   28.9510   51.5260   -5.9570 C   0  0  0  0  0  0  0  0  0  0  0  0
   28.5220   53.6620   -6.9320 C   0  0  0  0  0  0  0  0  0  0  0  0
   29.7850   51.4760   -3.5850 C   0  0  0  0  0  0  0  0  0  0  0  0
   28.7540   52.2150   -7.0890 C   0  0  0  0  0  0  0  0  0  0  0  0
   29.1940   50.0970   -5.9860 C   0  0  0  0  0  0  0  0  0  0  0  0
   30.1650   50.1970   -3.7620 C   0  0  0  0  0  0  0  0  0  0  0  0
   29.7700   49.4560   -4.9510 C   0  0  0  0  0  0  0  0  0  0  0  0
   30.0240   47.9660   -4.9980 C   0  0  0  0  0  0  0  0  0  0  0  0
   29.8150   47.3100   -6.3760 C   0  0  0  0  0  0  0  0  0  0  0  0
   30.5420   45.9750   -6.5950 C   0  0  0  0  0  0  0  0  0  0  0  0
   31.9360   46.1570   -6.9760 N   0  0  0  0  0  0  0  0  0  0  0  0
   32.9550   45.6980   -6.3360 C   0  0  0  0  0  0  0  0  0  0  0  0
   34.2260   45.8970   -6.7250 O   0  0  0  0  0  0  0  0  0  0  0  0
   32.8690   44.8810   -5.0710 C   0  0  0  0  0  0  0  0  0  0  0  0
   31.7230   45.2810   -4.1780 C   0  0  0  0  0  0  0  0  0  0  0  0
   30.5820   44.4650   -4.1100 C   0  0  0  0  0  0  0  0  0  0  0  0
   31.7730   46.4540   -3.4150 C   0  0  0  0  0  0  0  0  0  0  0  0
   29.5220   44.8290   -3.2920 C   0  0  0  0  0  0  0  0  0  0  0  0
   30.6990   46.8110   -2.5960 C   0  0  0  0  0  0  0  0  0  0  0  0
   28.4020   44.0510   -3.2130 O   0  0  0  0  0  0  0  0  0  0  0  0
   29.5670   45.9930   -2.5350 C   0  0  0  0  0  0  0  0  0  0  0  0
  1  2  2  0
  2  3  1  0
  2  4  1  0
  4  5  1  0
  3  6  2  0
  4  7  1  1
  5  8  2  0
  6  8  1  0
  5  9  1  0
  7 10  2  0
  9 11  2  0
 10 11  1  0
 11 12  1  0
 12 13  1  0
 13 14  1  0
 14 15  1  0
 15 16  2  3
 16 17  1  0
 16 18  1  0
 18 19  1  0
 19 20  2  0
 19 21  1  0
 20 22  1  0
 21 23  2  0
 22 24  1  0
 22 25  2  0
 23 25  1  0
M  END
