mac-x0357-mac-x0590
     RDKit          3D

 23 26  0  0  0  0  0  0  0  0999 V2000
   31.7060   43.2110   -4.4720 C   0  0  0  0  0  0  0  0  0  0  0  0
   32.7960   44.2230   -4.2180 C   0  0  0  0  0  0  0  0  0  0  0  0
   34.0750   43.7710   -3.8440 C   0  0  0  0  0  0  0  0  0  0  0  0
   32.5710   45.6210   -4.3430 C   0  0  0  0  0  0  0  0  0  0  0  0
   34.2990   42.4240   -3.7190 O   0  0  0  0  0  0  0  0  0  0  0  0
   31.2740   46.2380   -4.7250 C   0  0  0  0  0  0  0  0  0  0  0  0
   33.6500   46.5090   -4.0870 C   0  0  0  0  0  0  0  0  0  0  0  0
   35.1230   44.6540   -3.5940 C   0  0  0  0  0  0  0  0  0  0  0  0
   30.9940   47.5460   -4.5240 C   0  0  0  0  0  0  0  0  0  0  0  0
   30.3230   45.4220   -5.3100 O   0  0  0  0  0  0  0  0  0  0  0  0
   33.4580   48.0010   -4.2100 C   0  0  0  0  0  0  0  0  0  0  0  0
   34.9100   46.0210   -3.7160 C   0  0  0  0  0  0  0  0  0  0  0  0
   32.0300   48.4390   -3.8790 C   0  0  0  0  0  0  0  0  0  0  0  0
   29.7480   48.1110   -4.8960 N   0  0  0  0  0  0  0  0  0  0  0  0
   29.2540   49.2450   -4.0710 C   0  0  0  0  0  0  0  0  0  0  0  0
   29.4260   48.4030   -6.3030 C   0  0  1  0  0  0  0  0  0  0  0  0
   28.1270   50.0290   -4.5750 N   0  0  0  0  0  0  0  0  0  0  0  0
   29.5640   49.9100   -6.5720 C   0  0  2  0  0  0  0  0  0  0  0  0
   30.2590   47.8640   -7.3860 N   0  0  0  0  0  0  0  0  0  0  0  0
   28.5270   50.7340   -5.7710 C   0  0  1  0  0  0  0  0  0  0  0  0
   29.4410   49.9870   -8.0450 N   0  0  0  0  0  0  0  0  0  0  0  0
   30.2080   48.8210   -8.4830 C   0  0  0  0  0  0  0  0  0  0  0  0
   27.2910   50.9460   -6.4910 N   0  0  0  0  0  0  0  0  0  0  0  0
  1  2  1  0
  2  3  2  0
  2  4  1  0
  3  5  1  0
  4  6  1  0
  4  7  2  0
  3  8  1  0
  6  9  2  0
  6 10  1  0
  7 11  1  0
  7 12  1  0
  8 12  2  0
  9 13  1  0
 11 13  1  0
  9 14  1  0
 14 15  1  0
 14 16  1  0
 15 17  1  0
 16 18  1  0
 16 19  1  6
 17 20  1  0
 18 20  1  0
 18 21  1  6
 19 22  1  0
 21 22  1  0
 20 23  1  6
M  END
