mac-x0565-mac-x0584
     RDKit          3D

 23 27  0  0  0  0  0  0  0  0999 V2000
   29.5400   53.6940   -4.9070 O   0  0  0  0  0  0  0  0  0  0  0  0
   30.1910   53.3530   -3.7810 C   0  0  0  0  0  0  0  0  0  0  0  0
   30.6080   54.1980   -3.0130 O   0  0  0  0  0  0  0  0  0  0  0  0
   30.3170   51.8820   -3.6110 C   0  0  0  0  0  0  0  0  0  0  0  0
   30.2730   51.0150   -4.7090 C   0  0  0  0  0  0  0  0  0  0  0  0
   30.4820   51.3660   -2.3060 C   0  0  0  0  0  0  0  0  0  0  0  0
   30.3880   49.6540   -4.4810 C   0  0  0  0  0  0  0  0  0  0  0  0
   30.5990   49.9870   -2.0860 C   0  0  0  0  0  0  0  0  0  0  0  0
   30.5470   49.1610   -3.1880 C   0  0  0  0  0  0  0  0  0  0  0  0
   30.3550   48.5280   -5.4730 C   0  0  2  0  0  0  0  0  0  0  0  0
   30.6350   47.7940   -3.1660 O   0  0  0  0  0  0  0  0  0  0  0  0
   30.9390   47.3860   -4.5490 C   0  0  0  0  0  0  0  0  0  0  0  0
   31.1950   48.7590   -6.6500 N   0  0  0  0  0  0  0  0  0  0  0  0
   28.9270   48.3980   -5.8060 C   0  0  0  0  0  0  0  0  0  0  0  0
   30.5500   45.8840   -4.8420 C   0  0  0  0  0  0  0  0  0  0  0  0
   32.4260   46.9090   -4.7420 C   0  0  0  0  0  0  0  0  0  0  0  0
   30.7000   48.8690   -7.8290 C   0  0  0  0  0  0  0  0  0  0  0  0
   28.5830   48.5760   -7.2090 C   0  0  0  0  0  0  0  0  0  0  0  0
   27.8030   48.1640   -5.1350 C   0  0  0  0  0  0  0  0  0  0  0  0
   31.9150   45.6930   -5.5250 C   0  0  0  0  0  0  0  0  0  0  0  0
   29.3840   48.7960   -8.1730 N   0  0  0  0  0  0  0  0  0  0  0  0
   27.2350   48.4720   -7.3610 N   0  0  0  0  0  0  0  0  0  0  0  0
   26.7880   48.2270   -6.1750 C   0  0  0  0  0  0  0  0  0  0  0  0
  1  2  1  0
  2  3  2  0
  2  4  1  0
  4  5  2  0
  4  6  1  0
  5  7  1  0
  6  8  2  0
  7  9  2  0
  8  9  1  0
  7 10  1  0
  9 11  1  0
 10 12  1  0
 12 11  1  0
 10 13  1  6
 10 14  1  0
 12 15  1  0
 12 16  1  0
 13 17  2  0
 14 18  1  0
 14 19  2  0
 15 20  1  0
 16 20  1  0
 17 21  1  0
 18 21  2  0
 18 22  1  0
 19 23  1  0
 22 23  2  0
M  END
