mac-x0284-mac-x0139
     RDKit          3D

 24 26  0  0  0  0  0  0  0  0999 V2000
   28.0230   51.6650   -4.1950 C   0  0  0  0  0  0  0  0  0  0  0  0
   28.9290   50.5180   -3.8600 C   0  0  0  0  0  0  0  0  0  0  0  0
   29.6990   50.5310   -2.7010 C   0  0  0  0  0  0  0  0  0  0  0  0
   29.0090   49.4130   -4.7150 C   0  0  0  0  0  0  0  0  0  0  0  0
   29.8470   48.3080   -4.4490 C   0  0  0  0  0  0  0  0  0  0  0  0
   30.5360   49.4570   -2.4030 C   0  0  0  0  0  0  0  0  0  0  0  0
   29.8890   47.1250   -5.4420 C   0  0  1  0  0  0  0  0  0  0  0  0
   30.6060   48.3620   -3.2670 C   0  0  0  0  0  0  0  0  0  0  0  0
   31.4370   47.3280   -2.9430 O   0  0  0  0  0  0  0  0  0  0  0  0
   31.2220   46.7680   -5.8760 O   0  0  0  0  0  0  0  0  0  0  0  0
   29.2790   45.9480   -4.8940 O   0  0  0  0  0  0  0  0  0  0  0  0
   29.0960   47.5850   -6.7590 C   0  0  1  0  0  0  0  0  0  0  0  0
   31.5920   45.3990   -5.7630 C   0  0  0  0  0  0  0  0  0  0  0  0
   29.8440   48.7010   -7.5160 C   0  0  1  0  0  0  0  0  0  0  0  0
   28.6680   46.4680   -7.6610 N   0  0  0  0  0  0  0  0  0  0  0  0
   32.6150   45.0030   -6.8220 C   0  0  0  0  0  0  0  0  0  0  0  0
   29.0730   49.1380   -8.7930 C   0  0  1  0  0  0  0  0  0  0  0  0
   28.6380   46.8170   -9.0690 C   0  0  0  0  0  0  0  0  0  0  0  0
   30.0750   50.0220   -6.8180 C   0  0  0  0  0  0  0  0  0  0  0  0
   32.4200   44.4720   -7.9010 O   0  0  0  0  0  0  0  0  0  0  0  0
   33.8810   45.3090   -6.4520 O   0  0  0  0  0  0  0  0  0  0  0  0
   28.1180   48.1480   -9.2380 N   0  0  0  0  0  0  0  0  0  0  0  0
   28.4680   50.4090   -8.3550 N   0  0  0  0  0  0  0  0  0  0  0  0
   29.2580   50.9380   -7.3470 C   0  0  0  0  0  0  0  0  0  0  0  0
  1  2  1  0
  2  3  2  0
  2  4  1  0
  4  5  2  0
  3  6  1  0
  5  7  1  0
  5  8  1  0
  6  8  2  0
  8  9  1  0
  7 10  1  0
  7 11  1  1
  7 12  1  0
 10 13  1  0
 12 14  1  0
 12 15  1  6
 13 16  1  0
 14 17  1  0
 15 18  1  0
 14 19  1  1
 16 20  2  0
 16 21  1  0
 17 22  1  1
 18 22  1  0
 17 23  1  0
 19 24  2  0
 23 24  1  0
M  END
