mac-x0115-mac-x1493
     RDKit          3D

 29 32  0  0  0  0  0  0  0  0999 V2000
   27.8990   45.6520   -1.7550 C   0  0  0  0  0  0  0  0  0  0  0  0
   28.7970   44.4440   -1.9980 C   0  0  0  0  0  0  0  0  0  0  0  0
   28.0690   43.4060   -2.8470 C   0  0  0  0  0  0  0  0  0  0  0  0
   29.9940   44.8270   -2.6880 O   0  0  0  0  0  0  0  0  0  0  0  0
   30.1410   44.3180   -4.0170 C   0  0  0  0  0  0  0  0  0  0  0  0
   30.9350   45.3050   -4.8970 C   0  0  0  0  0  0  0  0  0  0  0  0
   30.1410   45.8770   -6.0030 N   0  0  0  0  0  0  0  0  0  0  0  0
   29.7980   45.0160   -7.0780 C   0  0  0  0  0  0  0  0  0  0  0  0
   30.2740   47.2420   -6.3120 C   0  0  0  0  0  0  0  0  0  0  0  0
   30.0510   43.3600   -7.1870 S   0  0  0  0  0  0  0  0  0  0  0  0
   29.1910   45.6130   -8.1630 N   0  0  0  0  0  0  0  0  0  0  0  0
   30.5210   47.5260   -7.7630 C   0  0  1  0  0  0  0  0  0  0  0  0
   30.2300   48.4020   -5.6240 C   0  0  0  0  0  0  0  0  0  0  0  0
   29.3950   46.9180   -8.5530 C   0  0  0  0  0  0  0  0  0  0  0  0
   30.6400   48.9790   -7.9130 N   0  0  0  0  0  0  0  0  0  0  0  0
   30.4710   49.3800   -6.7040 C   0  0  0  0  0  0  0  0  0  0  0  0
   30.0290   48.9220   -4.2560 C   0  0  0  0  0  0  0  0  0  0  0  0
   28.7210   47.4610   -9.4220 O   0  0  0  0  0  0  0  0  0  0  0  0
   30.0380   48.2810   -3.2160 O   0  0  0  0  0  0  0  0  0  0  0  0
   29.8060   50.3830   -4.2490 C   0  0  0  0  0  0  0  0  0  0  0  0
   29.1080   51.0120   -5.2740 C   0  0  0  0  0  0  0  0  0  0  0  0
   30.3010   51.1700   -3.2190 C   0  0  0  0  0  0  0  0  0  0  0  0
   28.9300   52.3960   -5.2560 C   0  0  0  0  0  0  0  0  0  0  0  0
   30.1400   52.5180   -3.1700 N   0  0  0  0  0  0  0  0  0  0  0  0
   29.4700   53.1190   -4.1730 C   0  0  0  0  0  0  0  0  0  0  0  0
   28.2370   53.0550   -6.2840 C   0  0  0  0  0  0  0  0  0  0  0  0
   29.2960   54.4960   -4.1610 C   0  0  0  0  0  0  0  0  0  0  0  0
   28.0780   54.4390   -6.2470 C   0  0  0  0  0  0  0  0  0  0  0  0
   28.6090   55.1580   -5.1830 C   0  0  0  0  0  0  0  0  0  0  0  0
  1  2  1  0
  2  3  1  0
  2  4  1  0
  4  5  1  0
  5  6  1  0
  6  7  1  0
  7  8  1  0
  7  9  1  0
  8 10  2  0
  8 11  1  0
  9 12  1  0
  9 13  2  0
 11 14  1  0
 12 14  1  0
 12 15  1  1
 13 16  1  0
 15 16  2  0
 13 17  1  0
 14 18  2  0
 17 19  2  0
 17 20  1  0
 20 21  2  0
 20 22  1  0
 21 23  1  0
 22 24  2  0
 23 25  2  0
 24 25  1  0
 23 26  1  0
 25 27  1  0
 26 28  2  0
 27 29  2  0
 28 29  1  0
M  END
