mac-x0437-mac-x0584
     RDKit          3D

 32 37  0  0  0  0  0  0  0  0999 V2000
   31.8740   44.1520   -6.5760 O   0  0  0  0  0  0  0  0  0  0  0  0
   33.0380   44.3200   -5.7980 C   0  0  0  0  0  0  0  0  0  0  0  0
   34.1480   44.0040   -6.6150 O   0  0  0  0  0  0  0  0  0  0  0  0
   33.0390   43.5010   -4.5040 C   0  0  0  0  0  0  0  0  0  0  0  0
   33.2040   45.7610   -5.3960 C   0  0  1  0  0  0  0  0  0  0  0  0
   32.9710   44.3470   -3.2090 C   0  0  0  0  0  0  0  0  0  0  0  0
   33.5420   46.7480   -6.5380 C   0  0  0  0  0  0  0  0  0  0  0  0
   32.0780   46.7450   -4.9250 C   0  0  1  0  0  0  0  0  0  0  0  0
   34.0330   45.3300   -3.0170 N   0  0  0  0  0  0  0  0  0  0  0  0
   32.2040   47.4470   -6.2990 C   0  0  0  0  0  0  0  0  0  0  0  0
   30.7050   46.3230   -4.3670 C   0  0  1  0  0  0  0  0  0  0  0  0
   33.8990   46.7000   -2.9910 C   0  0  0  0  0  0  0  0  0  0  0  0
   35.3520   45.0460   -2.8260 C   0  0  0  0  0  0  0  0  0  0  0  0
   30.7600   46.0630   -2.8440 C   0  0  0  0  0  0  0  0  0  0  0  0
   29.7360   47.4110   -4.4360 N   0  0  0  0  0  0  0  0  0  0  0  0
   35.0520   47.3080   -2.8020 N   0  0  0  0  0  0  0  0  0  0  0  0
   35.9650   46.2970   -2.6970 C   0  0  0  0  0  0  0  0  0  0  0  0
   36.0600   43.8490   -2.7540 C   0  0  0  0  0  0  0  0  0  0  0  0
   29.9900   48.3030   -3.2800 C   0  0  0  0  0  0  0  0  0  0  0  0
   30.6300   47.4350   -2.2040 C   0  0  0  0  0  0  0  0  0  0  0  0
   29.3730   48.0290   -5.6230 C   0  0  0  0  0  0  0  0  0  0  0  0
   37.3470   46.3680   -2.4870 C   0  0  0  0  0  0  0  0  0  0  0  0
   37.4370   43.9370   -2.5430 C   0  0  0  0  0  0  0  0  0  0  0  0
   29.2000   47.2360   -6.7360 N   0  0  0  0  0  0  0  0  0  0  0  0
   29.1700   49.3420   -5.7960 C   0  0  0  0  0  0  0  0  0  0  0  0
   38.0750   45.1750   -2.4110 C   0  0  0  0  0  0  0  0  0  0  0  0
   28.8440   47.7480   -7.9480 C   0  0  0  0  0  0  0  0  0  0  0  0
   28.7790   49.8360   -7.1410 C   0  0  0  0  0  0  0  0  0  0  0  0
   29.2150   50.5340   -5.0100 C   0  0  0  0  0  0  0  0  0  0  0  0
   28.6250   48.9970   -8.2070 N   0  0  0  0  0  0  0  0  0  0  0  0
   28.6040   51.1300   -7.1580 N   0  0  0  0  0  0  0  0  0  0  0  0
   28.8780   51.5230   -5.8530 C   0  0  0  0  0  0  0  0  0  0  0  0
  2  1  1  0
  2  3  1  0
  2  4  1  0
  5  2  1  6
  4  6  1  0
  5  7  1  0
  5  8  1  0
  6  9  1  0
  7 10  1  0
  8 10  1  6
  8 11  1  0
  9 12  1  0
  9 13  1  0
 11 14  1  1
 11 15  1  0
 12 16  2  0
 13 17  2  0
 16 17  1  0
 13 18  1  0
 15 19  1  0
 14 20  1  0
 19 20  1  0
 15 21  1  0
 17 22  1  0
 18 23  2  0
 21 24  1  0
 21 25  2  0
 22 26  2  0
 23 26  1  0
 24 27  1  0
 25 28  1  0
 25 29  1  0
 27 30  2  0
 28 30  1  0
 28 31  2  0
 29 32  2  0
 31 32  1  0
M  END
