mac-x0179-mac-x0139
     RDKit          3D

 30 33  0  0  0  0  0  0  0  0999 V2000
   32.0620   45.5780   -5.7810 N   0  0  0  0  0  0  0  0  0  0  0  0
   33.0300   45.8590   -4.8380 C   0  0  0  0  0  0  0  0  0  0  0  0
   34.1330   46.3190   -5.1640 O   0  0  0  0  0  0  0  0  0  0  0  0
   30.6270   45.4810   -5.4870 C   0  0  0  0  0  0  0  0  0  0  0  0
   32.4730   45.0600   -6.9860 C   0  0  0  0  0  0  0  0  0  0  0  0
   32.6880   45.5560   -3.3700 C   0  0  0  0  0  0  0  0  0  0  0  0
   29.9610   46.7970   -5.4190 N   0  0  0  0  0  0  0  0  0  0  0  0
   31.7550   44.6010   -7.8760 O   0  0  0  0  0  0  0  0  0  0  0  0
   33.8130   45.0770   -7.1680 O   0  0  0  0  0  0  0  0  0  0  0  0
   30.2560   47.5470   -4.1860 C   0  0  0  0  0  0  0  0  0  0  0  0
   33.8490   45.7730   -2.5130 N   0  0  0  0  0  0  0  0  0  0  0  0
   29.4660   47.4500   -6.5790 C   0  0  0  0  0  0  0  0  0  0  0  0
   34.6360   44.7730   -2.0080 C   0  0  0  0  0  0  0  0  0  0  0  0
   34.4600   46.9940   -2.4010 C   0  0  0  0  0  0  0  0  0  0  0  0
   29.3390   48.8020   -6.6380 C   0  0  0  0  0  0  0  0  0  0  0  0
   29.0990   46.6640   -7.6880 N   0  0  0  0  0  0  0  0  0  0  0  0
   34.4080   43.5810   -1.9380 O   0  0  0  0  0  0  0  0  0  0  0  0
   34.0470   48.0900   -2.7340 O   0  0  0  0  0  0  0  0  0  0  0  0
   35.8730   45.4020   -1.5380 C   0  0  0  0  0  0  0  0  0  0  0  0
   35.7620   46.7610   -1.7820 C   0  0  0  0  0  0  0  0  0  0  0  0
   28.8110   49.4090   -7.8880 C   0  0  0  0  0  0  0  0  0  0  0  0
   28.6490   47.2440   -8.7580 C   0  0  0  0  0  0  0  0  0  0  0  0
   29.5700   49.9370   -5.8020 C   0  0  0  0  0  0  0  0  0  0  0  0
   36.9960   44.8530   -0.9510 C   0  0  0  0  0  0  0  0  0  0  0  0
   36.7730   47.6450   -1.4530 C   0  0  0  0  0  0  0  0  0  0  0  0
   28.4900   48.5840   -8.9140 N   0  0  0  0  0  0  0  0  0  0  0  0
   28.7330   50.7110   -7.8080 N   0  0  0  0  0  0  0  0  0  0  0  0
   29.1990   51.0020   -6.5330 C   0  0  0  0  0  0  0  0  0  0  0  0
   38.0360   45.7270   -0.6070 C   0  0  0  0  0  0  0  0  0  0  0  0
   37.9240   47.1160   -0.8570 C   0  0  0  0  0  0  0  0  0  0  0  0
  1  2  1  0
  2  3  2  0
  1  4  1  0
  1  5  1  0
  2  6  1  0
  4  7  1  0
  5  8  2  0
  5  9  1  0
  7 10  1  0
  6 11  1  0
  7 12  1  0
 11 13  1  0
 11 14  1  0
 12 15  2  0
 12 16  1  0
 13 17  2  0
 14 18  2  0
 13 19  1  0
 14 20  1  0
 19 20  2  0
 15 21  1  0
 16 22  2  0
 15 23  1  0
 19 24  1  0
 20 25  1  0
 21 26  1  0
 22 26  1  0
 21 27  2  0
 23 28  2  0
 27 28  1  0
 24 29  2  0
 25 30  2  0
 29 30  1  0
M  END
