mac-x0360-mac-x0472
     RDKit          3D

 19 21  0  0  0  0  0  0  0  0999 V2000
   32.4730   55.3360   -6.7700 Cl  0  0  0  0  0  0  0  0  0  0  0  0
   32.2140   53.7560   -6.1440 C   0  0  0  0  0  0  0  0  0  0  0  0
   33.2850   52.8490   -6.0740 C   0  0  0  0  0  0  0  0  0  0  0  0
   30.9460   53.3920   -5.7140 C   0  0  0  0  0  0  0  0  0  0  0  0
   30.7960   52.1080   -5.2230 C   0  0  0  0  0  0  0  0  0  0  0  0
   33.0940   51.5530   -5.5690 C   0  0  0  0  0  0  0  0  0  0  0  0
   34.4610   50.5070   -5.5190 Cl  0  0  0  0  0  0  0  0  0  0  0  0
   29.3180   51.4070   -4.6200 S   0  0  0  0  0  0  0  0  0  0  0  0
   31.8190   51.1770   -5.1370 C   0  0  0  0  0  0  0  0  0  0  0  0
   29.7400   49.8250   -4.9990 N   0  0  0  0  0  0  0  0  0  0  0  0
   29.3290   51.5720   -3.1870 O   0  0  0  0  0  0  0  0  0  0  0  0
   28.2080   51.8600   -5.4270 O   0  0  0  0  0  0  0  0  0  0  0  0
   31.2480   49.6060   -4.4550 S   0  0  0  0  0  0  0  0  0  0  0  0
   31.9590   48.4880   -5.1420 O   0  0  0  0  0  0  0  0  0  0  0  0
   29.5130   49.7330   -6.4410 C   0  0  0  0  0  0  0  0  0  0  0  0
   29.3580   48.6140   -7.1150 N   0  0  0  0  0  0  0  0  0  0  0  0
   29.4180   51.1590   -7.3850 S   0  0  0  0  0  0  0  0  0  0  0  0
   29.1540   50.1470   -8.7350 C   0  0  0  0  0  0  0  0  0  0  0  0
   29.1470   48.8610   -8.4630 N   0  0  0  0  0  0  0  0  0  0  0  0
  1  2  1  0
  2  3  2  0
  2  4  1  0
  4  5  2  0
  3  6  1  0
  6  7  1  0
  5  8  1  0
  5  9  1  0
  6  9  2  0
  8 10  1  0
  8 11  2  0
  8 12  2  0
  9 13  1  0
 13 10  1  6
 13 14  2  0
 10 15  1  0
 15 16  2  0
 15 17  1  0
 17 18  1  0
 16 19  1  0
 18 19  2  0
M  END
