mac-x0231-mac-x0379
     RDKit          3D

 24 26  0  0  0  0  0  0  0  0999 V2000
   34.8810   43.0240   -6.1270 O   0  0  0  0  0  0  0  0  0  0  0  0
   33.5510   42.8380   -6.0690 C   0  0  0  0  0  0  0  0  0  0  0  0
   32.8880   42.8590   -7.0970 O   0  0  0  0  0  0  0  0  0  0  0  0
   33.0000   42.6090   -4.6900 C   0  0  0  0  0  0  0  0  0  0  0  0
   31.8320   43.4920   -4.3010 C   0  0  0  0  0  0  0  0  0  0  0  0
   32.0730   44.8400   -3.7140 C   0  0  0  0  0  0  0  0  0  0  0  0
   30.6380   43.0200   -4.5170 N   0  0  0  0  0  0  0  0  0  0  0  0
   30.9660   45.6850   -3.5500 C   0  0  0  0  0  0  0  0  0  0  0  0
   29.5860   43.8070   -4.1850 N   0  0  0  0  0  0  0  0  0  0  0  0
   33.3530   45.2740   -3.3340 C   0  0  0  0  0  0  0  0  0  0  0  0
   29.6410   45.1630   -3.9620 C   0  0  0  0  0  0  0  0  0  0  0  0
   31.1450   46.9750   -3.0090 C   0  0  0  0  0  0  0  0  0  0  0  0
   33.5290   46.5440   -2.7950 C   0  0  0  0  0  0  0  0  0  0  0  0
   28.6400   45.8540   -4.1010 O   0  0  0  0  0  0  0  0  0  0  0  0
   30.1110   47.8970   -2.8180 N   0  0  0  0  0  0  0  0  0  0  0  0
   32.4330   47.3870   -2.6360 C   0  0  0  0  0  0  0  0  0  0  0  0
   30.0480   48.9220   -3.6010 C   0  0  0  0  0  0  0  0  0  0  0  0
   31.0080   48.9980   -4.5460 O   0  0  0  0  0  0  0  0  0  0  0  0
   29.1380   50.0250   -3.6650 C   0  0  0  0  0  0  0  0  0  0  0  0
   28.3530   50.5920   -2.6850 C   0  0  0  0  0  0  0  0  0  0  0  0
   28.8930   50.8690   -5.1400 S   0  0  0  0  0  0  0  0  0  0  0  0
   27.7730   51.9060   -4.3560 C   0  0  0  0  0  0  0  0  0  0  0  0
   27.5750   51.6640   -3.0770 N   0  0  0  0  0  0  0  0  0  0  0  0
   27.1050   52.9920   -5.1230 C   0  0  0  0  0  0  0  0  0  0  0  0
  1  2  1  0
  2  3  2  0
  2  4  1  0
  4  5  1  0
  5  6  1  0
  5  7  2  0
  6  8  2  0
  7  9  1  0
  6 10  1  0
  8 11  1  0
  9 11  1  0
  8 12  1  0
 10 13  2  0
 11 14  2  0
 12 15  1  0
 12 16  2  0
 13 16  1  0
 15 17  2  3
 17 18  1  0
 17 19  1  0
 19 20  2  0
 19 21  1  0
 21 22  1  0
 20 23  1  0
 22 23  2  0
 22 24  1  0
M  END
