mac-x0124-mac-x0231
     RDKit          3D

 25 28  0  0  0  0  0  0  0  0999 V2000
   31.2630   46.9330   -6.5140 C   0  0  0  0  0  0  0  0  0  0  0  0
   30.6610   47.9730   -5.7110 N   0  0  0  0  0  0  0  0  0  0  0  0
   30.2810   47.8020   -4.2960 C   0  0  1  0  0  0  0  0  0  0  0  0
   29.6350   48.6800   -6.3490 C   0  0  0  0  0  0  0  0  0  0  0  0
   28.9470   48.6070   -4.0830 C   0  0  0  0  0  0  0  0  0  0  0  0
   28.6440   49.0680   -5.4770 C   0  0  0  0  0  0  0  0  0  0  0  0
   29.6220   48.9460   -7.6530 N   0  0  0  0  0  0  0  0  0  0  0  0
   30.3380   46.3040   -3.9820 C   0  0  0  0  0  0  0  0  0  0  0  0
   31.4480   48.4990   -3.6000 C   0  0  0  0  0  0  0  0  0  0  0  0
   27.5930   49.7770   -6.0010 C   0  0  0  0  0  0  0  0  0  0  0  0
   28.5570   49.6350   -8.0680 C   0  0  0  0  0  0  0  0  0  0  0  0
   31.5480   45.7130   -3.8780 C   0  0  0  0  0  0  0  0  0  0  0  0
   29.1290   45.4470   -3.8040 C   0  0  0  0  0  0  0  0  0  0  0  0
   32.6340   47.8910   -3.4650 C   0  0  0  0  0  0  0  0  0  0  0  0
   26.5410   50.2230   -5.1990 N   0  0  0  0  0  0  0  0  0  0  0  0
   27.9870   45.7980   -4.0720 O   0  0  0  0  0  0  0  0  0  0  0  0
   27.5370   50.0680   -7.3070 N   0  0  0  0  0  0  0  0  0  0  0  0
   31.5940   44.2420   -3.6530 C   0  0  0  0  0  0  0  0  0  0  0  0
   29.3700   44.1980   -3.2900 N   0  0  0  0  0  0  0  0  0  0  0  0
   32.8240   46.5030   -3.9940 C   0  0  0  0  0  0  0  0  0  0  0  0
   32.9200   43.5170   -3.7930 C   0  0  0  0  0  0  0  0  0  0  0  0
   30.5470   43.5270   -3.3720 N   0  0  0  0  0  0  0  0  0  0  0  0
   33.5140   43.7030   -5.1640 C   0  0  0  0  0  0  0  0  0  0  0  0
   34.7630   44.2110   -5.1260 O   0  0  0  0  0  0  0  0  0  0  0  0
   32.9900   43.4480   -6.2390 O   0  0  0  0  0  0  0  0  0  0  0  0
  1  2  1  0
  2  3  1  0
  2  4  1  0
  3  5  1  6
  4  6  2  0
  5  6  1  0
  4  7  1  0
  3  8  1  0
  3  9  1  0
  6 10  1  0
  7 11  2  0
  8 12  2  0
  8 13  1  0
  9 14  2  0
 10 15  1  0
 13 16  2  0
 10 17  2  0
 11 17  1  0
 12 18  1  0
 13 19  1  0
 12 20  1  0
 14 20  1  0
 18 21  1  0
 18 22  2  0
 19 22  1  0
 21 23  1  0
 23 24  1  0
 23 25  2  0
M  END
