mac-x0387-mac-x0437
     RDKit          3D

 26 29  0  0  0  0  0  0  0  0999 V2000
   28.2700   51.2940   -7.3100 N   0  0  0  0  0  0  0  0  0  0  0  0
   28.6400   49.9390   -7.3640 C   0  0  0  0  0  0  0  0  0  0  0  0
   28.3960   49.3270   -8.5350 N   0  0  0  0  0  0  0  0  0  0  0  0
   29.2260   49.2880   -6.2480 C   0  0  0  0  0  0  0  0  0  0  0  0
   29.5720   47.9180   -6.3840 C   0  0  0  0  0  0  0  0  0  0  0  0
   28.7310   48.0290   -8.6400 C   0  0  0  0  0  0  0  0  0  0  0  0
   29.4810   49.9320   -5.0130 C   0  0  0  0  0  0  0  0  0  0  0  0
   29.3060   47.3020   -7.6180 C   0  0  0  0  0  0  0  0  0  0  0  0
   30.1610   47.2300   -5.2920 C   0  0  0  0  0  0  0  0  0  0  0  0
   30.0580   49.2550   -3.9450 C   0  0  0  0  0  0  0  0  0  0  0  0
   30.5500   45.7640   -5.3870 C   0  0  0  0  0  0  0  0  0  0  0  0
   30.3970   47.9120   -4.0800 C   0  0  0  0  0  0  0  0  0  0  0  0
   31.5310   45.5980   -6.4340 O   0  0  0  0  0  0  0  0  0  0  0  0
   32.7390   45.1220   -6.0250 C   0  0  0  0  0  0  0  0  0  0  0  0
   33.8030   45.3510   -6.5910 O   0  0  0  0  0  0  0  0  0  0  0  0
   32.6360   44.2670   -4.7860 C   0  0  0  0  0  0  0  0  0  0  0  0
   32.7320   45.0310   -3.4680 C   0  0  0  0  0  0  0  0  0  0  0  0
   33.9360   45.8140   -3.3270 N   0  0  0  0  0  0  0  0  0  0  0  0
   34.0260   47.1600   -3.5410 C   0  0  0  0  0  0  0  0  0  0  0  0
   35.1740   45.3540   -2.9620 C   0  0  0  0  0  0  0  0  0  0  0  0
   35.2470   47.6050   -3.3400 N   0  0  0  0  0  0  0  0  0  0  0  0
   35.9720   46.4970   -2.9810 C   0  0  0  0  0  0  0  0  0  0  0  0
   35.6680   44.0910   -2.6270 C   0  0  0  0  0  0  0  0  0  0  0  0
   37.3330   46.3900   -2.6520 C   0  0  0  0  0  0  0  0  0  0  0  0
   37.0270   44.0060   -2.3010 C   0  0  0  0  0  0  0  0  0  0  0  0
   37.8460   45.1360   -2.3140 C   0  0  0  0  0  0  0  0  0  0  0  0
  1  2  1  0
  2  3  2  0
  2  4  1  0
  4  5  2  0
  3  6  1  0
  4  7  1  0
  5  8  1  0
  6  8  2  0
  5  9  1  0
  7 10  2  0
  9 11  1  0
  9 12  2  0
 10 12  1  0
 11 13  1  0
 13 14  1  0
 14 15  2  0
 14 16  1  0
 16 17  1  0
 17 18  1  0
 18 19  1  0
 18 20  1  0
 19 21  2  0
 20 22  2  0
 21 22  1  0
 20 23  1  0
 22 24  1  0
 23 25  2  0
 24 26  2  0
 25 26  1  0
M  END
