mac-x0301-mac-x0321
     RDKit          3D

 13 14  0  0  0  0  0  0  0  0999 V2000
   30.2610   45.6250   -4.7270 O   0  0  0  0  0  0  0  0  0  0  0  0
   30.5060   46.8040   -4.1200 C   0  0  0  0  0  0  0  0  0  0  0  0
   31.1710   46.8810   -3.0960 O   0  0  0  0  0  0  0  0  0  0  0  0
   29.9280   48.0080   -4.7820 C   0  0  0  0  0  0  0  0  0  0  0  0
   29.5800   48.0720   -6.1250 C   0  0  0  0  0  0  0  0  0  0  0  0
   29.7170   49.1650   -4.0090 C   0  0  0  0  0  0  0  0  0  0  0  0
   29.0520   49.2170   -6.6880 C   0  0  0  0  0  0  0  0  0  0  0  0
   29.1790   50.3370   -4.5850 C   0  0  0  0  0  0  0  0  0  0  0  0
   29.6980   47.0700   -7.0460 O   0  0  0  0  0  0  0  0  0  0  0  0
   28.8450   50.3640   -5.9420 C   0  0  0  0  0  0  0  0  0  0  0  0
   28.7840   49.0590   -8.0150 O   0  0  0  0  0  0  0  0  0  0  0  0
   29.0060   47.6480   -8.1750 C   0  0  0  0  0  0  0  0  0  0  0  0
   28.1960   51.7900   -6.6550 Cl  0  0  0  0  0  0  0  0  0  0  0  0
  1  2  1  0
  2  3  2  0
  2  4  1  0
  4  5  2  0
  4  6  1  0
  5  7  1  0
  6  8  2  0
  5  9  1  0
  7 10  2  0
  8 10  1  0
  7 11  1  0
  9 12  1  0
 11 12  1  0
 10 13  1  0
M  END
