mac-x0546-mac-x0277
     RDKit          3D

 16 17  0  0  0  0  0  0  0  0999 V2000
   30.6740   49.3320   -0.6330 C   0  0  0  0  0  0  0  0  0  0  0  0
   29.5560   48.6170   -1.1540 O   0  0  0  0  0  0  0  0  0  0  0  0
   29.7770   47.3240   -1.5780 C   0  0  0  0  0  0  0  0  0  0  0  0
   30.8650   46.9070   -2.2580 C   0  0  0  0  0  0  0  0  0  0  0  0
   28.7170   46.3550   -1.2280 C   0  0  0  0  0  0  0  0  0  0  0  0
   27.5250   46.7770   -0.0550 Cl  0  0  0  0  0  0  0  0  0  0  0  0
   31.0060   45.4690   -2.6250 C   0  0  1  0  0  0  0  0  0  0  0  0
   28.6150   45.1370   -1.7880 C   0  0  0  0  0  0  0  0  0  0  0  0
   29.6340   44.8470   -2.7940 C   0  0  0  0  0  0  0  0  0  0  0  0
   31.5570   44.9850   -3.9250 C   0  0  0  0  0  0  0  0  0  0  0  0
   32.9080   45.3280   -4.4500 C   0  0  0  0  0  0  0  0  0  0  0  0
   29.4640   44.0960   -3.8370 N   0  0  0  0  0  0  0  0  0  0  0  0
   30.6470   44.2030   -4.5170 C   0  0  0  0  0  0  0  0  0  0  0  0
   32.8540   45.9890   -5.8150 C   0  0  0  0  0  0  0  0  0  0  0  0
   31.9300   46.0110   -6.6110 O   0  0  0  0  0  0  0  0  0  0  0  0
   34.0120   46.6120   -6.1180 O   0  0  0  0  0  0  0  0  0  0  0  0
  1  2  1  0
  2  3  1  0
  3  4  2  0
  3  5  1  0
  5  6  1  0
  7  4  1  6
  5  8  2  0
  7  9  1  0
  8  9  1  0
  7 10  1  0
 10 11  1  0
  9 12  2  0
 10 13  2  0
 12 13  1  0
 11 14  1  0
 14 15  2  0
 14 16  1  0
M  END
