mac-x0588-mac-x0305
     RDKit          3D

 19 21  0  0  0  0  0  0  0  0999 V2000
   28.7690   51.8910   -6.4770 N   0  0  0  0  0  0  0  0  0  0  0  0
   28.5890   50.5570   -5.8970 C   0  0  1  0  0  0  0  0  0  0  0  0
   28.8010   49.4380   -6.9710 C   0  0  1  0  0  0  0  0  0  0  0  0
   29.5980   50.5450   -4.8630 N   0  0  0  0  0  0  0  0  0  0  0  0
   29.9990   49.6890   -7.6940 O   0  0  0  0  0  0  0  0  0  0  0  0
   29.8170   49.1860   -4.3520 C   0  0  0  0  0  0  0  0  0  0  0  0
   28.7940   48.0660   -6.2800 C   0  0  2  0  0  0  0  0  0  0  0  0
   27.7660   49.2660   -7.9920 N   0  0  0  0  0  0  0  0  0  0  0  0
   29.7850   47.9760   -5.1920 N   0  0  0  0  0  0  0  0  0  0  0  0
   28.7740   47.1860   -7.4650 N   0  0  0  0  0  0  0  0  0  0  0  0
   27.9160   47.8780   -8.4280 C   0  0  0  0  0  0  0  0  0  0  0  0
   30.1550   46.7100   -4.6330 C   0  0  0  0  0  0  0  0  0  0  0  0
   31.3480   46.1210   -4.8910 C   0  0  0  0  0  0  0  0  0  0  0  0
   29.1230   46.0240   -3.7110 C   0  0  2  0  0  0  0  0  0  0  0  0
   32.3600   46.6030   -5.6800 O   0  0  0  0  0  0  0  0  0  0  0  0
   28.9050   46.7350   -2.4640 O   0  0  0  0  0  0  0  0  0  0  0  0
   29.5440   44.6190   -3.2870 C   0  0  0  0  0  0  0  0  0  0  0  0
   28.7120   44.4080   -2.0480 C   0  0  0  0  0  0  0  0  0  0  0  0
   28.7680   45.7740   -1.4040 C   0  0  0  0  0  0  0  0  0  0  0  0
  2  1  1  6
  2  3  1  0
  2  4  1  0
  3  5  1  6
  4  6  1  0
  3  7  1  0
  3  8  1  0
  6  9  1  0
  7  9  1  0
  7 10  1  6
  8 11  1  0
 10 11  1  0
  9 12  1  0
 12 13  2  3
 14 12  1  1
 13 15  1  0
 14 16  1  0
 14 17  1  0
 17 18  1  0
 16 19  1  0
 18 19  1  0
M  END
