mac-x0546-mac-x0328
     RDKit          3D

 26 28  0  0  0  0  0  0  0  0999 V2000
   29.7920   48.9360   -0.4070 C   0  0  0  0  0  0  0  0  0  0  0  0
   29.1600   47.6730   -0.2350 O   0  0  0  0  0  0  0  0  0  0  0  0
   29.7810   46.5790   -0.7860 C   0  0  0  0  0  0  0  0  0  0  0  0
   30.7500   46.5750   -1.7300 C   0  0  0  0  0  0  0  0  0  0  0  0
   29.2850   45.3150   -0.2450 C   0  0  0  0  0  0  0  0  0  0  0  0
   31.3090   45.2720   -2.2080 C   0  0  1  0  0  0  0  0  0  0  0  0
   29.4520   44.1380   -0.8790 C   0  0  0  0  0  0  0  0  0  0  0  0
   30.1750   44.2610   -2.1520 C   0  0  0  0  0  0  0  0  0  0  0  0
   31.6520   45.0430   -3.6480 C   0  0  0  0  0  0  0  0  0  0  0  0
   32.7330   45.7730   -4.3770 C   0  0  0  0  0  0  0  0  0  0  0  0
   29.9310   43.5960   -3.2410 N   0  0  0  0  0  0  0  0  0  0  0  0
   30.8420   44.0900   -4.1390 C   0  0  0  0  0  0  0  0  0  0  0  0
   32.6310   45.6900   -5.8810 C   0  0  0  0  0  0  0  0  0  0  0  0
   31.7430   46.0980   -6.7060 N   0  0  0  0  0  0  0  0  0  0  0  0
   33.6880   45.0680   -6.4420 O   0  0  0  0  0  0  0  0  0  0  0  0
   30.5630   46.7800   -6.1970 C   0  0  0  0  0  0  0  0  0  0  0  0
   30.8830   48.1930   -6.0180 N   0  0  0  0  0  0  0  0  0  0  0  0
   30.0230   48.9010   -5.3840 C   0  0  0  0  0  0  0  0  0  0  0  0
   28.9070   48.3060   -4.9430 O   0  0  0  0  0  0  0  0  0  0  0  0
   30.0070   50.3170   -5.0240 C   0  0  0  0  0  0  0  0  0  0  0  0
   29.5890   51.2620   -5.9690 C   0  0  0  0  0  0  0  0  0  0  0  0
   30.4080   50.7110   -3.7440 C   0  0  0  0  0  0  0  0  0  0  0  0
   29.5730   52.6140   -5.6280 C   0  0  0  0  0  0  0  0  0  0  0  0
   30.3890   52.0630   -3.4080 C   0  0  0  0  0  0  0  0  0  0  0  0
   29.9730   53.0030   -4.3480 C   0  0  0  0  0  0  0  0  0  0  0  0
   29.9700   54.3160   -3.9760 O   0  0  0  0  0  0  0  0  0  0  0  0
  1  2  1  0
  2  3  1  0
  3  4  2  0
  3  5  1  0
  6  4  1  6
  5  7  2  0
  6  8  1  0
  7  8  1  0
  6  9  1  0
  9 10  1  0
  8 11  2  0
  9 12  2  0
 11 12  1  0
 10 13  1  0
 13 14  2  3
 13 15  1  0
 14 16  1  0
 16 17  1  0
 17 18  2  3
 18 19  1  0
 18 20  1  0
 20 21  2  0
 20 22  1  0
 21 23  1  0
 22 24  2  0
 23 25  2  0
 24 25  1  0
 25 26  1  0
M  END
