mac-x0510-mac-x0321
     RDKit          3D

 13 14  0  0  0  0  0  0  0  0999 V2000
   28.9890   52.8660   -5.4200 O   0  0  0  0  0  0  0  0  0  0  0  0
   29.0370   51.6860   -5.7470 C   0  0  0  0  0  0  0  0  0  0  0  0
   29.5340   50.7880   -4.8080 N   0  0  0  0  0  0  0  0  0  0  0  0
   28.6010   51.3360   -7.0090 N   0  0  0  0  0  0  0  0  0  0  0  0
   28.6660   50.0980   -7.3170 C   0  0  0  0  0  0  0  0  0  0  0  0
   29.6180   49.5160   -5.0820 C   0  0  0  0  0  0  0  0  0  0  0  0
   30.1720   48.6150   -3.9980 C   0  0  0  0  0  0  0  0  0  0  0  0
   29.1710   49.0880   -6.4030 C   0  0  0  0  0  0  0  0  0  0  0  0
   28.3050   49.4960   -8.4830 N   0  0  0  0  0  0  0  0  0  0  0  0
   30.2230   47.3320   -4.4010 O   0  0  0  0  0  0  0  0  0  0  0  0
   30.5200   49.0250   -2.9090 O   0  0  0  0  0  0  0  0  0  0  0  0
   29.1130   47.9410   -6.9930 N   0  0  0  0  0  0  0  0  0  0  0  0
   28.5840   48.2440   -8.2480 C   0  0  0  0  0  0  0  0  0  0  0  0
  1  2  2  0
  2  3  1  0
  2  4  1  0
  4  5  2  0
  3  6  2  0
  6  7  1  0
  5  8  1  0
  6  8  1  0
  5  9  1  0
  7 10  1  0
  7 11  2  0
  8 12  2  0
  9 13  2  0
 12 13  1  0
M  END
