mac-x0333-mac-x0358
     RDKit          3D

 22 24  0  0  0  0  0  0  0  0999 V2000
   28.7180   47.9930   -4.5820 O   0  0  0  0  0  0  0  0  0  0  0  0
   28.9530   49.3290   -4.7390 C   0  0  0  0  0  0  0  0  0  0  0  0
   28.5120   49.8830   -5.9530 C   0  0  0  0  0  0  0  0  0  0  0  0
   29.5900   50.1000   -3.7570 C   0  0  0  0  0  0  0  0  0  0  0  0
   30.0700   49.5140   -2.4490 C   0  0  0  0  0  0  0  0  0  0  0  0
   29.7530   51.4490   -4.0630 C   0  0  0  0  0  0  0  0  0  0  0  0
   28.6960   51.2370   -6.2200 C   0  0  0  0  0  0  0  0  0  0  0  0
   29.3180   51.9950   -5.2560 C   0  0  0  0  0  0  0  0  0  0  0  0
   30.3400   52.3970   -3.2730 O   0  0  0  0  0  0  0  0  0  0  0  0
   31.2500   48.5580   -2.5510 C   0  0  0  0  0  0  0  0  0  0  0  0
   29.5760   53.3270   -5.3540 O   0  0  0  0  0  0  0  0  0  0  0  0
   30.0890   53.5950   -4.0380 C   0  0  0  0  0  0  0  0  0  0  0  0
   32.4010   48.7730   -1.7860 C   0  0  0  0  0  0  0  0  0  0  0  0
   31.2060   47.4450   -3.4160 C   0  0  0  0  0  0  0  0  0  0  0  0
   32.2920   46.5520   -3.5260 C   0  0  0  0  0  0  0  0  0  0  0  0
   33.4830   47.9010   -1.8820 C   0  0  0  0  0  0  0  0  0  0  0  0
   32.2020   45.3660   -4.4690 C   0  0  0  0  0  0  0  0  0  0  0  0
   33.4240   46.8090   -2.7420 C   0  0  0  0  0  0  0  0  0  0  0  0
   32.6340   45.6070   -5.9070 C   0  0  0  0  0  0  0  0  0  0  0  0
   34.5230   46.0030   -2.7800 O   0  0  0  0  0  0  0  0  0  0  0  0
   31.7440   45.1360   -6.8130 O   0  0  0  0  0  0  0  0  0  0  0  0
   33.6660   46.1640   -6.2560 O   0  0  0  0  0  0  0  0  0  0  0  0
  1  2  1  0
  2  3  2  0
  2  4  1  0
  4  5  1  0
  4  6  2  0
  3  7  1  0
  6  8  1  0
  7  8  2  0
  6  9  1  0
  5 10  1  0
  8 11  1  0
  9 12  1  0
 11 12  1  0
 10 13  2  0
 10 14  1  0
 14 15  2  0
 13 16  1  0
 15 17  1  0
 15 18  1  0
 16 18  2  0
 17 19  1  0
 18 20  1  0
 19 21  1  0
 19 22  2  0
M  END
