mac-x0161-mac-x0584
     RDKit          3D

 21 24  0  0  0  0  0  0  0  0999 V2000
   27.4760   52.4180   -5.7510 N   0  0  0  0  0  0  0  0  0  0  0  0
   28.4360   51.3430   -5.5700 C   0  0  2  0  0  0  0  0  0  0  0  0
   28.0390   50.0240   -6.2590 C   0  0  2  0  0  0  0  0  0  0  0  0
   28.5340   51.1960   -4.1320 N   0  0  0  0  0  0  0  0  0  0  0  0
   29.5140   50.1730   -3.7590 C   0  0  0  0  0  0  0  0  0  0  0  0
   29.0540   48.9830   -5.8190 C   0  0  1  0  0  0  0  0  0  0  0  0
   28.1000   49.8850   -7.7250 N   0  0  0  0  0  0  0  0  0  0  0  0
   29.1840   48.8830   -4.3750 N   0  0  0  0  0  0  0  0  0  0  0  0
   28.5750   47.8440   -6.5880 N   0  0  0  0  0  0  0  0  0  0  0  0
   28.3100   48.4390   -7.9040 C   0  0  0  0  0  0  0  0  0  0  0  0
   29.9970   47.7990   -3.8110 C   0  0  0  0  0  0  0  0  0  0  0  0
   31.5240   48.0140   -3.8540 C   0  0  1  0  0  0  0  0  0  0  0  0
   32.2640   47.3580   -2.6760 C   0  0  0  0  0  0  0  0  0  0  0  0
   32.0540   47.3900   -5.0450 O   0  0  0  0  0  0  0  0  0  0  0  0
   32.8290   46.2240   -4.6710 C   0  0  0  0  0  0  0  0  0  0  0  0
   33.4230   46.5890   -3.3120 C   0  0  1  0  0  0  0  0  0  0  0  0
   34.5590   47.4390   -3.5040 O   0  0  0  0  0  0  0  0  0  0  0  0
   33.7570   45.6240   -5.7600 C   0  0  0  0  0  0  0  0  0  0  0  0
   32.0300   44.8910   -4.7250 C   0  0  0  0  0  0  0  0  0  0  0  0
   35.1320   47.8830   -2.2820 C   0  0  0  0  0  0  0  0  0  0  0  0
   33.2860   44.2260   -5.3170 C   0  0  0  0  0  0  0  0  0  0  0  0
  2  1  1  1
  2  3  1  0
  2  4  1  0
  4  5  1  0
  3  6  1  0
  3  7  1  6
  5  8  1  0
  6  8  1  0
  6  9  1  1
  7 10  1  0
  9 10  1  0
  8 11  1  0
 12 11  1  1
 12 13  1  0
 12 14  1  0
 15 14  1  0
 13 16  1  0
 15 16  1  0
 16 17  1  6
 15 18  1  0
 15 19  1  0
 17 20  1  0
 18 21  1  0
 19 21  1  0
M  END
