mac-x0284-mac-x0404
     RDKit          3D

 24 27  0  0  0  0  0  0  0  0999 V2000
   27.0770   49.9560   -5.6360 C   0  0  0  0  0  0  0  0  0  0  0  0
   28.4330   49.7390   -5.0320 C   0  0  0  0  0  0  0  0  0  0  0  0
   28.9650   50.6680   -4.1320 C   0  0  0  0  0  0  0  0  0  0  0  0
   29.1840   48.6010   -5.3610 C   0  0  0  0  0  0  0  0  0  0  0  0
   30.4500   48.3980   -4.7990 C   0  0  0  0  0  0  0  0  0  0  0  0
   30.2290   50.4700   -3.5710 C   0  0  0  0  0  0  0  0  0  0  0  0
   31.2020   47.1740   -5.1780 C   0  0  0  0  0  0  0  0  0  0  0  0
   30.9690   49.3400   -3.9030 C   0  0  0  0  0  0  0  0  0  0  0  0
   32.2040   49.1710   -3.3390 O   0  0  0  0  0  0  0  0  0  0  0  0
   31.9710   47.1140   -6.2400 N   0  0  0  0  0  0  0  0  0  0  0  0
   31.1460   46.0090   -4.4360 N   0  0  0  0  0  0  0  0  0  0  0  0
   32.5010   45.8360   -6.2610 C   0  0  0  0  0  0  0  0  0  0  0  0
   32.2080   45.1360   -4.9370 C   0  0  0  0  0  0  0  0  0  0  0  0
   30.9290   45.9660   -3.0420 C   0  0  0  0  0  0  0  0  0  0  0  0
   33.1140   45.3240   -7.1900 O   0  0  0  0  0  0  0  0  0  0  0  0
   29.6370   45.8600   -2.4420 C   0  0  0  0  0  0  0  0  0  0  0  0
   32.0690   46.0370   -2.2250 C   0  0  0  0  0  0  0  0  0  0  0  0
   29.5480   45.8300   -1.0270 C   0  0  0  0  0  0  0  0  0  0  0  0
   31.9660   46.0060   -0.8390 C   0  0  0  0  0  0  0  0  0  0  0  0
   28.4220   45.7820   -3.1650 C   0  0  0  0  0  0  0  0  0  0  0  0
   30.7130   45.9040   -0.2460 C   0  0  0  0  0  0  0  0  0  0  0  0
   28.2970   45.7280   -0.3970 C   0  0  0  0  0  0  0  0  0  0  0  0
   27.1850   45.6800   -2.5280 C   0  0  0  0  0  0  0  0  0  0  0  0
   27.1210   45.6540   -1.1400 C   0  0  0  0  0  0  0  0  0  0  0  0
  1  2  1  0
  2  3  2  0
  2  4  1  0
  4  5  2  0
  3  6  1  0
  5  7  1  0
  5  8  1  0
  6  8  2  0
  8  9  1  0
  7 10  2  0
  7 11  1  0
 10 12  1  0
 11 13  1  0
 12 13  1  0
 11 14  1  0
 12 15  2  0
 14 16  1  0
 14 17  2  0
 16 18  2  0
 17 19  1  0
 16 20  1  0
 18 21  1  0
 19 21  2  0
 18 22  1  0
 20 23  2  0
 22 24  2  0
 23 24  1  0
M  END
