mac-x0453-mac-x1494
     RDKit          3D

 13 14  0  0  0  0  0  0  0  0999 V2000
   29.5880   54.6760   -6.8800 N   0  0  0  0  0  0  0  0  0  0  0  0
   29.8650   53.3300   -6.3760 C   0  0  0  0  0  0  0  0  0  0  0  0
   28.9390   52.9480   -5.2190 C   0  0  0  0  0  0  0  0  0  0  0  0
   28.6030   51.4550   -5.0880 C   0  0  2  0  0  0  0  0  0  0  0  0
   29.6850   50.6910   -4.3800 N   0  0  0  0  0  0  0  0  0  0  0  0
   28.5700   50.7400   -6.4310 C   0  0  0  0  0  0  0  0  0  0  0  0
   29.4190   49.7100   -6.4210 C   0  0  0  0  0  0  0  0  0  0  0  0
   30.0450   49.6220   -5.2020 N   0  0  0  0  0  0  0  0  0  0  0  0
   29.9440   50.6930   -3.0190 C   0  0  0  0  0  0  0  0  0  0  0  0
   30.3700   48.3500   -4.5470 C   0  0  0  0  0  0  0  0  0  0  0  0
   30.6700   49.7220   -2.4320 C   0  0  0  0  0  0  0  0  0  0  0  0
   31.2190   48.6080   -3.2880 C   0  0  1  0  0  0  0  0  0  0  0  0
   31.3790   47.0950   -2.3410 Cl  0  0  0  0  0  0  0  0  0  0  0  0
  1  2  1  0
  2  3  1  0
  4  3  1  6
  4  5  1  0
  4  6  1  0
  6  7  2  0
  5  8  1  0
  7  8  1  0
  5  9  1  0
  8 10  1  0
  9 11  2  0
 10 12  1  0
 11 12  1  0
 12 13  1  1
M  END
