mac-x0188-mac-x0344
     RDKit          3D

 25 28  0  0  0  0  0  0  0  0999 V2000
   32.2890   44.9860   -3.8170 C   0  0  0  0  0  0  0  0  0  0  0  0
   32.7800   45.4250   -5.1840 C   0  0  0  0  0  0  0  0  0  0  0  0
   34.2150   45.0820   -5.4860 C   0  0  0  0  0  0  0  0  0  0  0  0
   31.6700   46.2270   -3.4410 C   0  0  0  0  0  0  0  0  0  0  0  0
   32.0800   46.1020   -6.0670 N   0  0  0  0  0  0  0  0  0  0  0  0
   31.7470   46.7710   -2.2240 O   0  0  0  0  0  0  0  0  0  0  0  0
   30.9620   46.9840   -4.3030 C   0  0  0  0  0  0  0  0  0  0  0  0
   30.8310   46.4730   -5.6410 C   0  0  0  0  0  0  0  0  0  0  0  0
   34.5700   45.0390   -6.6430 O   0  0  0  0  0  0  0  0  0  0  0  0
   34.9250   44.8930   -4.3170 N   0  0  0  0  0  0  0  0  0  0  0  0
   31.0600   47.9720   -2.2720 N   0  0  0  0  0  0  0  0  0  0  0  0
   30.5910   48.1070   -3.5380 C   0  0  0  0  0  0  0  0  0  0  0  0
   29.7930   46.3640   -6.2840 O   0  0  0  0  0  0  0  0  0  0  0  0
   29.8470   49.2890   -3.9220 C   0  0  0  0  0  0  0  0  0  0  0  0
   35.6610   45.8440   -3.5810 C   0  0  0  0  0  0  0  0  0  0  0  0
   29.5530   50.2650   -2.9610 C   0  0  0  0  0  0  0  0  0  0  0  0
   29.4220   49.4770   -5.2400 C   0  0  0  0  0  0  0  0  0  0  0  0
   36.5850   45.3420   -2.6580 C   0  0  0  0  0  0  0  0  0  0  0  0
   35.5270   47.2300   -3.7140 C   0  0  0  0  0  0  0  0  0  0  0  0
   28.8440   51.4110   -3.3160 C   0  0  0  0  0  0  0  0  0  0  0  0
   28.7130   50.6240   -5.5930 C   0  0  0  0  0  0  0  0  0  0  0  0
   37.3640   46.2040   -1.8820 C   0  0  0  0  0  0  0  0  0  0  0  0
   36.3100   48.0940   -2.9370 C   0  0  0  0  0  0  0  0  0  0  0  0
   28.4250   51.5890   -4.6320 C   0  0  0  0  0  0  0  0  0  0  0  0
   37.2270   47.5830   -2.0230 C   0  0  0  0  0  0  0  0  0  0  0  0
  1  2  1  0
  2  3  1  0
  1  4  1  0
  2  5  2  0
  4  6  1  0
  4  7  2  0
  5  8  1  0
  7  8  1  0
  3  9  2  0
  3 10  1  0
  6 11  1  0
  7 12  1  0
 11 12  2  0
  8 13  2  0
 12 14  1  0
 10 15  1  0
 14 16  2  0
 14 17  1  0
 15 18  2  0
 15 19  1  0
 16 20  1  0
 17 21  2  0
 18 22  1  0
 19 23  2  0
 20 24  2  0
 21 24  1  0
 22 25  2  0
 23 25  1  0
M  END
