mac-x0357-mac-x0206
     RDKit          3D

 23 24  0  0  0  0  0  0  0  0999 V2000
   32.2830   43.3090   -4.9220 C   0  0  0  0  0  0  0  0  0  0  0  0
   33.0700   44.5010   -4.4540 C   0  0  0  0  0  0  0  0  0  0  0  0
   34.1340   44.3570   -3.5490 C   0  0  0  0  0  0  0  0  0  0  0  0
   32.7620   45.8000   -4.9140 C   0  0  0  0  0  0  0  0  0  0  0  0
   34.5170   43.1460   -3.0440 O   0  0  0  0  0  0  0  0  0  0  0  0
   31.6470   46.0150   -5.8760 C   0  0  0  0  0  0  0  0  0  0  0  0
   33.5100   46.9080   -4.4670 C   0  0  0  0  0  0  0  0  0  0  0  0
   34.8730   45.4560   -3.1070 C   0  0  0  0  0  0  0  0  0  0  0  0
   30.7550   46.9250   -5.8140 N   0  0  0  0  0  0  0  0  0  0  0  0
   31.6880   45.1030   -6.8580 O   0  0  0  0  0  0  0  0  0  0  0  0
   34.5620   46.7330   -3.5670 C   0  0  0  0  0  0  0  0  0  0  0  0
   30.7200   47.9300   -4.7670 C   0  0  0  0  0  0  0  0  0  0  0  0
   30.8980   49.2730   -5.4780 C   0  0  0  0  0  0  0  0  0  0  0  0
   29.6580   50.0160   -5.5220 N   0  0  0  0  0  0  0  0  0  0  0  0
   29.4440   50.9670   -4.5690 C   0  0  0  0  0  0  0  0  0  0  0  0
   29.3850   50.6860   -3.3780 O   0  0  0  0  0  0  0  0  0  0  0  0
   29.3050   52.3910   -5.0080 C   0  0  0  0  0  0  0  0  0  0  0  0
   29.7460   53.4650   -4.2280 C   0  0  0  0  0  0  0  0  0  0  0  0
   28.7110   52.6580   -6.2490 C   0  0  0  0  0  0  0  0  0  0  0  0
   30.3300   53.2400   -3.0120 O   0  0  0  0  0  0  0  0  0  0  0  0
   29.5980   54.7810   -4.6750 C   0  0  0  0  0  0  0  0  0  0  0  0
   28.5600   53.9750   -6.7020 C   0  0  0  0  0  0  0  0  0  0  0  0
   29.0060   55.0330   -5.9090 C   0  0  0  0  0  0  0  0  0  0  0  0
  1  2  1  0
  2  3  2  0
  2  4  1  0
  3  5  1  0
  4  6  1  0
  4  7  2  0
  3  8  1  0
  6  9  2  3
  6 10  1  0
  7 11  1  0
  8 11  2  0
  9 12  1  0
 12 13  1  0
 13 14  1  0
 14 15  1  0
 15 16  2  0
 15 17  1  0
 17 18  2  0
 17 19  1  0
 18 20  1  0
 18 21  1  0
 19 22  2  0
 21 23  2  0
 22 23  1  0
M  END
