mac-x0433-mac-x1494
     RDKit          3D

 16 17  0  0  0  0  0  0  0  0999 V2000
   29.4490   50.1690   -6.3870 C   0  0  0  0  0  0  0  0  0  0  0  0
   29.9060   51.3360   -5.4980 C   0  0  1  0  0  0  0  0  0  0  0  0
   29.0420   52.5420   -5.8500 C   0  0  0  0  0  0  0  0  0  0  0  0
   29.9180   50.9490   -3.9820 C   0  0  1  0  0  0  0  0  0  0  0  0
   28.4910   52.6090   -6.9560 O   0  0  0  0  0  0  0  0  0  0  0  0
   29.6100   52.1750   -3.0320 C   0  0  2  0  0  0  0  0  0  0  0  0
   28.8530   53.6560   -4.8210 C   0  0  2  0  0  0  0  0  0  0  0  0
   29.0310   49.7150   -3.8270 C   0  0  0  0  0  0  0  0  0  0  0  0
   31.3240   50.5960   -3.4980 C   0  0  0  0  0  0  0  0  0  0  0  0
   29.9700   54.6930   -4.8890 C   0  0  0  0  0  0  0  0  0  0  0  0
   29.1660   51.7940   -1.7110 N   0  0  0  0  0  0  0  0  0  0  0  0
   28.6210   53.0960   -3.4940 N   0  0  0  0  0  0  0  0  0  0  0  0
   29.5120   48.4630   -3.6850 C   0  0  0  0  0  0  0  0  0  0  0  0
   31.7810   49.3510   -3.3450 C   0  0  0  0  0  0  0  0  0  0  0  0
   30.9690   48.1400   -3.6530 C   0  0  1  0  0  0  0  0  0  0  0  0
   31.3070   46.8950   -2.4240 Cl  0  0  0  0  0  0  0  0  0  0  0  0
  2  1  1  6
  2  3  1  0
  2  4  1  0
  3  5  2  0
  4  6  1  0
  3  7  1  0
  4  8  1  6
  4  9  1  0
  7 10  1  1
  6 11  1  1
  6 12  1  0
  7 12  1  0
  8 13  2  0
  9 14  2  0
 13 15  1  0
 14 15  1  0
 15 16  1  1
M  END
