mac-x0228-mac-x0190
     RDKit          3D

 14 15  0  0  0  0  0  0  0  0999 V2000
   29.9460   47.7750   -5.6550 O   0  0  0  0  0  0  0  0  0  0  0  0
   30.2830   48.2510   -4.4370 C   0  0  0  0  0  0  0  0  0  0  0  0
   30.7160   47.5490   -3.5350 O   0  0  0  0  0  0  0  0  0  0  0  0
   30.0800   49.7170   -4.2910 C   0  0  0  0  0  0  0  0  0  0  0  0
   29.8780   50.5710   -5.3990 C   0  0  0  0  0  0  0  0  0  0  0  0
   30.0990   50.2390   -2.9800 C   0  0  0  0  0  0  0  0  0  0  0  0
   29.7050   51.9320   -5.1480 C   0  0  0  0  0  0  0  0  0  0  0  0
   29.9200   51.6050   -2.7540 C   0  0  0  0  0  0  0  0  0  0  0  0
   29.7280   52.4240   -3.8470 C   0  0  0  0  0  0  0  0  0  0  0  0
   29.4820   53.0950   -6.0600 C   0  0  0  0  0  0  0  0  0  0  0  0
   29.5460   53.7830   -3.7920 O   0  0  0  0  0  0  0  0  0  0  0  0
   30.0530   54.1570   -5.0990 C   0  0  2  0  0  0  0  0  0  0  0  0
   29.7750   55.6460   -5.4030 C   0  0  0  0  0  0  0  0  0  0  0  0
   28.4120   56.0270   -5.2280 O   0  0  0  0  0  0  0  0  0  0  0  0
  1  2  1  0
  2  3  2  0
  2  4  1  0
  4  5  2  0
  4  6  1  0
  5  7  1  0
  6  8  2  0
  7  9  2  0
  8  9  1  0
  7 10  1  0
  9 11  1  0
 10 12  1  0
 11 12  1  0
 12 13  1  6
 13 14  1  0
M  END
