mac-x0568-mac-x0412
     RDKit          3D

 14 15  0  0  0  0  0  0  0  0999 V2000
   30.5160   55.1540   -5.6250 C   0  0  0  0  0  0  0  0  0  0  0  0
   29.7570   53.8790   -5.3460 C   0  0  0  0  0  0  0  0  0  0  0  0
   28.8410   53.3780   -6.4140 C   0  0  0  0  0  0  0  0  0  0  0  0
   29.9510   53.3000   -4.2050 N   0  0  0  0  0  0  0  0  0  0  0  0
   29.1770   52.0680   -4.0050 C   0  0  1  0  0  0  0  0  0  0  0  0
   28.5110   52.0770   -6.3740 C   0  0  0  0  0  0  0  0  0  0  0  0
   29.0670   51.2000   -5.2820 C   0  0  1  0  0  0  0  0  0  0  0  0
   29.7190   51.2360   -2.8700 C   0  0  0  0  0  0  0  0  0  0  0  0
   30.4990   50.7370   -5.7240 C   0  0  0  0  0  0  0  0  0  0  0  0
   28.3000   49.9290   -4.9680 C   0  0  0  0  0  0  0  0  0  0  0  0
   29.3580   49.9400   -2.7730 C   0  0  0  0  0  0  0  0  0  0  0  0
   31.5320   50.9610   -5.0920 O   0  0  0  0  0  0  0  0  0  0  0  0
   30.5980   50.0320   -6.8950 N   0  0  0  0  0  0  0  0  0  0  0  0
   28.4600   49.3500   -3.7580 C   0  0  0  0  0  0  0  0  0  0  0  0
  1  2  1  0
  2  3  1  0
  2  4  2  0
  4  5  1  0
  3  6  2  0
  5  7  1  0
  6  7  1  0
  5  8  1  1
  7  9  1  6
  7 10  1  0
  8 11  2  0
  9 12  2  0
  9 13  1  0
 10 14  2  0
 11 14  1  0
M  END
