mac-x0223-mac-x0226
     RDKit          3D

 25 27  0  0  0  0  0  0  0  0999 V2000
   27.0350   44.0370   -1.7710 C   0  0  0  0  0  0  0  0  0  0  0  0
   27.3410   45.4190   -1.6570 O   0  0  0  0  0  0  0  0  0  0  0  0
   28.5080   45.8620   -2.2220 C   0  0  0  0  0  0  0  0  0  0  0  0
   28.9540   47.1250   -1.8150 C   0  0  0  0  0  0  0  0  0  0  0  0
   29.2670   45.1510   -3.1590 C   0  0  0  0  0  0  0  0  0  0  0  0
   28.2210   47.8310   -0.8990 O   0  0  0  0  0  0  0  0  0  0  0  0
   30.1300   47.6700   -2.3290 C   0  0  0  0  0  0  0  0  0  0  0  0
   30.4550   45.6830   -3.6890 C   0  0  0  0  0  0  0  0  0  0  0  0
   31.2560   44.8880   -4.7020 C   0  0  0  0  0  0  0  0  0  0  0  0
   30.8780   46.9510   -3.2620 C   0  0  0  0  0  0  0  0  0  0  0  0
   31.7810   45.6550   -5.9290 C   0  0  2  0  0  0  0  0  0  0  0  0
   33.1700   46.2960   -5.7570 C   0  0  0  0  0  0  0  0  0  0  0  0
   30.8280   46.6420   -6.3380 O   0  0  0  0  0  0  0  0  0  0  0  0
   33.3610   47.4350   -6.2030 O   0  0  0  0  0  0  0  0  0  0  0  0
   34.2650   45.5160   -5.0600 C   0  0  2  0  0  0  0  0  0  0  0  0
   34.2300   44.0210   -5.3510 C   0  0  0  0  0  0  0  0  0  0  0  0
   34.1560   45.5540   -3.5470 C   0  0  0  0  0  0  0  0  0  0  0  0
   34.9520   43.3910   -4.2290 N   0  0  0  0  0  0  0  0  0  0  0  0
   34.8450   44.3250   -3.1620 N   0  0  0  0  0  0  0  0  0  0  0  0
   35.7890   44.3200   -2.1230 C   0  0  0  0  0  0  0  0  0  0  0  0
   36.6440   45.4160   -1.9050 C   0  0  0  0  0  0  0  0  0  0  0  0
   35.9310   43.2260   -1.2500 C   0  0  0  0  0  0  0  0  0  0  0  0
   37.5880   45.4230   -0.8720 C   0  0  0  0  0  0  0  0  0  0  0  0
   36.8730   43.2270   -0.2140 C   0  0  0  0  0  0  0  0  0  0  0  0
   37.7040   44.3290   -0.0250 C   0  0  0  0  0  0  0  0  0  0  0  0
  1  2  1  0
  2  3  1  0
  3  4  2  0
  3  5  1  0
  4  6  1  0
  4  7  1  0
  5  8  2  0
  8  9  1  0
  7 10  2  0
  8 10  1  0
  9 11  1  0
 11 12  1  0
 11 13  1  1
 12 14  2  0
 15 12  1  6
 15 16  1  0
 15 17  1  0
 16 18  1  0
 17 19  1  0
 18 19  1  0
 19 20  1  0
 20 21  2  0
 20 22  1  0
 21 23  1  0
 22 24  2  0
 23 25  2  0
 24 25  1  0
M  END
