mac-x0193-mac-x0163
     RDKit          3D

 31 34  0  0  0  0  0  0  0  0999 V2000
   34.6620   45.5260   -6.6160 O   0  0  0  0  0  0  0  0  0  0  0  0
   33.3930   45.2690   -6.0460 C   0  0  0  0  0  0  0  0  0  0  0  0
   32.6540   44.5740   -7.0380 O   0  0  0  0  0  0  0  0  0  0  0  0
   33.5200   44.4060   -4.7570 C   0  0  0  0  0  0  0  0  0  0  0  0
   32.6220   46.5460   -5.7760 C   0  0  1  0  0  0  0  0  0  0  0  0
   34.8270   44.4480   -4.1250 N   0  0  0  0  0  0  0  0  0  0  0  0
   31.4860   46.6090   -4.6860 C   0  0  1  0  0  0  0  0  0  0  0  0
   33.3230   47.6930   -4.9900 C   0  0  0  0  0  0  0  0  0  0  0  0
   35.0840   43.6440   -3.0420 C   0  0  0  0  0  0  0  0  0  0  0  0
   30.8810   45.2830   -4.2180 C   0  0  0  0  0  0  0  0  0  0  0  0
   32.6240   47.1390   -3.7340 C   0  0  0  0  0  0  0  0  0  0  0  0
   30.4120   47.5740   -4.7900 N   0  0  0  0  0  0  0  0  0  0  0  0
   34.5430   42.5680   -2.8370 O   0  0  0  0  0  0  0  0  0  0  0  0
   36.0210   44.2270   -2.2230 N   0  0  0  0  0  0  0  0  0  0  0  0
   29.7940   48.0880   -5.9630 C   0  0  0  0  0  0  0  0  0  0  0  0
   29.4310   47.4350   -3.6870 C   0  0  0  0  0  0  0  0  0  0  0  0
   30.6440   45.3930   -2.7340 C   0  0  0  0  0  0  0  0  0  0  0  0
   37.2610   43.5920   -1.7850 C   0  0  0  0  0  0  0  0  0  0  0  0
   29.3660   49.4110   -5.9570 C   0  0  0  0  0  0  0  0  0  0  0  0
   29.6320   47.3040   -7.0530 N   0  0  0  0  0  0  0  0  0  0  0  0
   30.0870   46.7790   -2.4490 C   0  0  0  0  0  0  0  0  0  0  0  0
   29.5670   50.4260   -4.5720 Cl  0  0  0  0  0  0  0  0  0  0  0  0
   37.5970   42.3380   -2.5890 C   0  0  0  0  0  0  0  0  0  0  0  0
   37.2530   43.2790   -0.2890 C   0  0  0  0  0  0  0  0  0  0  0  0
   28.7660   49.8930   -7.1120 C   0  0  0  0  0  0  0  0  0  0  0  0
   29.0410   47.8690   -8.1180 C   0  0  0  0  0  0  0  0  0  0  0  0
   28.3030   51.2210   -7.1920 N   0  0  0  0  0  0  0  0  0  0  0  0
   38.9600   41.7770   -2.1790 C   0  0  0  0  0  0  0  0  0  0  0  0
   38.6060   42.7360    0.1680 C   0  0  0  0  0  0  0  0  0  0  0  0
   28.5980   49.1300   -8.2030 N   0  0  0  0  0  0  0  0  0  0  0  0
   39.0790   41.5490   -0.6700 C   0  0  0  0  0  0  0  0  0  0  0  0
  2  1  1  0
  2  3  1  0
  2  4  1  0
  5  2  1  1
  4  6  1  0
  5  7  1  0
  5  8  1  0
  6  9  1  0
  7 10  1  1
  7 11  1  0
  8 11  1  0
  7 12  1  0
  9 13  2  0
  9 14  1  0
 12 15  1  0
 12 16  1  0
 10 17  1  0
 14 18  1  0
 15 19  2  0
 15 20  1  0
 16 21  1  0
 17 21  1  0
 19 22  1  0
 18 23  1  0
 18 24  1  0
 19 25  1  0
 20 26  2  0
 25 27  1  0
 23 28  1  0
 24 29  1  0
 25 30  2  0
 26 30  1  0
 28 31  1  0
 29 31  1  0
M  END
