mac-x0387-mac-x0338
     RDKit          3D

 19 21  0  0  0  0  0  0  0  0999 V2000
   28.2920   50.8950   -6.5790 N   0  0  0  0  0  0  0  0  0  0  0  0
   29.2300   51.9260   -6.5040 C   0  0  0  0  0  0  0  0  0  0  0  0
   29.5250   52.6820   -7.4300 O   0  0  0  0  0  0  0  0  0  0  0  0
   28.5390   49.5880   -7.0700 C   0  0  0  0  0  0  0  0  0  0  0  0
   28.7630   48.5230   -6.1470 C   0  0  0  0  0  0  0  0  0  0  0  0
   28.5510   49.3990   -8.4060 N   0  0  0  0  0  0  0  0  0  0  0  0
   29.9380   52.1340   -5.1830 C   0  0  0  0  0  0  0  0  0  0  0  0
   29.0060   47.2390   -6.6970 C   0  0  0  0  0  0  0  0  0  0  0  0
   28.7840   48.1660   -8.8820 C   0  0  0  0  0  0  0  0  0  0  0  0
   28.7680   48.6220   -4.7260 C   0  0  0  0  0  0  0  0  0  0  0  0
   31.2990   52.2310   -5.2400 N   0  0  0  0  0  0  0  0  0  0  0  0
   29.2860   52.2290   -3.9550 C   0  0  0  0  0  0  0  0  0  0  0  0
   29.0140   47.0690   -8.0810 C   0  0  0  0  0  0  0  0  0  0  0  0
   29.2380   46.1350   -5.8600 C   0  0  0  0  0  0  0  0  0  0  0  0
   29.0010   47.5140   -3.9060 C   0  0  0  0  0  0  0  0  0  0  0  0
   31.9450   52.4140   -4.0690 C   0  0  0  0  0  0  0  0  0  0  0  0
   29.9340   52.4170   -2.7730 N   0  0  0  0  0  0  0  0  0  0  0  0
   29.2360   46.2700   -4.4740 C   0  0  0  0  0  0  0  0  0  0  0  0
   31.2800   52.5060   -2.8580 C   0  0  0  0  0  0  0  0  0  0  0  0
  1  2  1  0
  2  3  2  0
  1  4  1  0
  4  5  1  0
  4  6  2  0
  2  7  1  0
  5  8  2  0
  6  9  1  0
  5 10  1  0
  7 11  2  0
  7 12  1  0
  8 13  1  0
  9 13  2  0
  8 14  1  0
 10 15  2  0
 11 16  1  0
 12 17  2  0
 14 18  2  0
 15 18  1  0
 16 19  2  0
 17 19  1  0
M  END
