mac-x0206-mac-x0263
     RDKit          3D

 20 21  0  0  0  0  0  0  0  0999 V2000
   30.3770   50.0570   -5.2920 N   0  0  0  0  0  0  0  0  0  0  0  0
   30.5330   51.2030   -4.5610 C   0  0  0  0  0  0  0  0  0  0  0  0
   30.6140   51.1420   -3.3400 O   0  0  0  0  0  0  0  0  0  0  0  0
   30.5920   52.4850   -5.3820 C   0  0  2  0  0  0  0  0  0  0  0  0
   30.8590   53.7330   -4.5270 C   0  0  2  0  0  0  0  0  0  0  0  0
   29.3450   52.6740   -6.2490 C   0  0  0  0  0  0  0  0  0  0  0  0
   30.2590   53.5700   -3.2330 O   0  0  0  0  0  0  0  0  0  0  0  0
   30.3370   55.0380   -5.1410 C   0  0  0  0  0  0  0  0  0  0  0  0
   28.2470   53.6220   -5.6540 C   0  0  1  0  0  0  0  0  0  0  0  0
   28.8090   55.0600   -5.2990 C   0  0  2  0  0  0  0  0  0  0  0  0
   27.0670   53.7690   -6.6810 C   0  0  0  0  0  0  0  0  0  0  0  0
   27.7430   52.8950   -4.4020 C   0  0  0  0  0  0  0  0  0  0  0  0
   28.3540   56.1700   -6.2940 C   0  0  0  0  0  0  0  0  0  0  0  0
   26.6850   52.0690   -4.4190 C   0  0  0  0  0  0  0  0  0  0  0  0
   26.1180   52.6010   -6.7050 C   0  0  0  0  0  0  0  0  0  0  0  0
   27.1870   57.0360   -5.8020 C   0  0  0  0  0  0  0  0  0  0  0  0
   25.9540   51.8170   -5.6330 C   0  0  0  0  0  0  0  0  0  0  0  0
   27.1300   58.4300   -6.3710 C   0  0  0  0  0  0  0  0  0  0  0  0
   28.2910   59.1060   -6.2770 O   0  0  0  0  0  0  0  0  0  0  0  0
   26.1530   58.9510   -6.8850 O   0  0  0  0  0  0  0  0  0  0  0  0
  1  2  1  0
  2  3  2  0
  4  2  1  1
  4  5  1  0
  4  6  1  0
  5  7  1  1
  5  8  1  0
  9  6  1  6
  8 10  1  0
  9 10  1  0
  9 11  1  0
  9 12  1  0
 10 13  1  6
 12 14  2  0
 11 15  1  0
 13 16  1  0
 14 17  1  0
 15 17  2  0
 16 18  1  0
 18 19  1  0
 18 20  2  0
M  END
