mac-x0328-mac-x0263
     RDKit          3D

 24 26  0  0  0  0  0  0  0  0999 V2000
   31.0270   47.9370   -3.2020 O   0  0  0  0  0  0  0  0  0  0  0  0
   30.5750   48.5120   -4.3370 C   0  0  0  0  0  0  0  0  0  0  0  0
   30.3550   47.8860   -5.3610 O   0  0  0  0  0  0  0  0  0  0  0  0
   30.3610   49.9830   -4.2210 C   0  0  0  0  0  0  0  0  0  0  0  0
   30.3420   50.7950   -5.3600 C   0  0  0  0  0  0  0  0  0  0  0  0
   30.1720   50.5670   -2.9590 C   0  0  0  0  0  0  0  0  0  0  0  0
   30.1280   52.1770   -5.2290 C   0  0  0  0  0  0  0  0  0  0  0  0
   29.9540   51.9580   -2.8280 C   0  0  0  0  0  0  0  0  0  0  0  0
   29.9240   52.7780   -3.9690 C   0  0  0  0  0  0  0  0  0  0  0  0
   29.6960   54.1640   -4.0330 O   0  0  0  0  0  0  0  0  0  0  0  0
   28.7800   54.2970   -5.0850 N   0  0  0  0  0  0  0  0  0  0  0  0
   28.3990   55.3570   -5.9140 C   0  0  0  0  0  0  0  0  0  0  0  0
   28.0810   53.1920   -5.4290 C   0  0  0  0  0  0  0  0  0  0  0  0
   28.8820   56.7740   -5.8860 C   0  0  0  0  0  0  0  0  0  0  0  0
   27.3020   53.5870   -6.4890 C   0  0  0  0  0  0  0  0  0  0  0  0
   27.4980   54.9170   -6.7820 N   0  0  0  0  0  0  0  0  0  0  0  0
   28.0790   51.9000   -4.9000 C   0  0  0  0  0  0  0  0  0  0  0  0
   27.7840   57.7010   -5.3390 C   0  0  0  0  0  0  0  0  0  0  0  0
   27.2470   50.9720   -5.4950 C   0  0  0  0  0  0  0  0  0  0  0  0
   26.4680   52.6370   -7.0850 C   0  0  0  0  0  0  0  0  0  0  0  0
   27.3990   58.8540   -6.2350 C   0  0  0  0  0  0  0  0  0  0  0  0
   26.4520   51.3290   -6.5760 C   0  0  0  0  0  0  0  0  0  0  0  0
   28.4250   59.6690   -6.5400 O   0  0  0  0  0  0  0  0  0  0  0  0
   26.2810   59.0960   -6.6700 O   0  0  0  0  0  0  0  0  0  0  0  0
  1  2  1  0
  2  3  2  0
  2  4  1  0
  4  5  2  0
  4  6  1  0
  5  7  1  0
  6  8  2  0
  7  9  2  0
  8  9  1  0
  9 10  1  0
 10 11  1  0
 11 12  1  0
 11 13  1  0
 12 14  1  0
 13 15  2  0
 12 16  2  0
 15 16  1  0
 13 17  1  0
 14 18  1  0
 17 19  2  0
 15 20  1  0
 18 21  1  0
 19 22  1  0
 20 22  2  0
 21 23  1  0
 21 24  2  0
M  END
