mac-x0568-mac-x1493
     RDKit          3D

 15 16  0  0  0  0  0  0  0  0999 V2000
   29.9740   55.6350   -5.4780 C   0  0  0  0  0  0  0  0  0  0  0  0
   29.4810   54.2050   -5.6990 C   0  0  1  0  0  0  0  0  0  0  0  0
   30.3120   53.4780   -6.7090 C   0  0  0  0  0  0  0  0  0  0  0  0
   29.3080   53.4810   -4.4310 N   0  0  0  0  0  0  0  0  0  0  0  0
   29.2880   51.9930   -4.4620 C   0  0  0  0  0  0  0  0  0  0  0  0
   30.2810   52.1540   -6.8230 C   0  0  0  0  0  0  0  0  0  0  0  0
   29.3800   51.3530   -5.9080 C   0  0  1  0  0  0  0  0  0  0  0  0
   27.9720   51.5720   -3.8240 C   0  0  0  0  0  0  0  0  0  0  0  0
   30.2530   51.4230   -3.4460 C   0  0  0  0  0  0  0  0  0  0  0  0
   29.6610   49.8110   -5.9360 C   0  0  1  0  0  0  0  0  0  0  0  0
   29.5980   50.8080   -2.4510 C   0  0  0  0  0  0  0  0  0  0  0  0
   28.1850   50.8980   -2.6860 C   0  0  0  0  0  0  0  0  0  0  0  0
   29.3900   49.2190   -7.2850 N   0  0  0  0  0  0  0  0  0  0  0  0
   31.0900   49.3700   -5.5410 C   0  0  0  0  0  0  0  0  0  0  0  0
   31.0080   48.2250   -4.6800 O   0  0  0  0  0  0  0  0  0  0  0  0
  2  1  1  1
  2  3  1  0
  2  4  1  0
  4  5  1  0
  3  6  2  0
  5  7  1  0
  7  6  1  6
  5  8  1  0
  5  9  1  0
  7 10  1  0
  9 11  2  0
  8 12  2  0
 11 12  1  0
 10 13  1  6
 10 14  1  0
 14 15  1  0
M  END
