mac-x0188-mac-x0472
     RDKit          3D

 29 32  0  0  0  0  0  0  0  0999 V2000
   32.4430   44.5490   -3.8110 C   0  0  0  0  0  0  0  0  0  0  0  0
   31.8620   45.8710   -3.4990 C   0  0  0  0  0  0  0  0  0  0  0  0
   32.4050   46.5290   -2.4470 O   0  0  0  0  0  0  0  0  0  0  0  0
   30.8490   46.6230   -4.0540 C   0  0  0  0  0  0  0  0  0  0  0  0
   30.0770   46.1820   -5.1910 C   0  0  0  0  0  0  0  0  0  0  0  0
   31.7640   47.7340   -2.2820 N   0  0  0  0  0  0  0  0  0  0  0  0
   30.8220   47.8130   -3.2420 C   0  0  0  0  0  0  0  0  0  0  0  0
   28.8710   45.9770   -5.2020 O   0  0  0  0  0  0  0  0  0  0  0  0
   30.7980   45.9720   -6.3140 O   0  0  0  0  0  0  0  0  0  0  0  0
   29.9760   49.0170   -3.3000 C   0  0  0  0  0  0  0  0  0  0  0  0
   29.5360   49.5440   -2.0750 C   0  0  0  0  0  0  0  0  0  0  0  0
   29.5920   49.6610   -4.5060 C   0  0  0  0  0  0  0  0  0  0  0  0
   28.7310   50.6820   -2.0320 C   0  0  0  0  0  0  0  0  0  0  0  0
   28.7750   50.8070   -4.4310 C   0  0  0  0  0  0  0  0  0  0  0  0
   30.0300   49.1560   -5.7600 N   0  0  0  0  0  0  0  0  0  0  0  0
   28.3510   51.3110   -3.2080 C   0  0  0  0  0  0  0  0  0  0  0  0
   31.6750   48.5610   -5.8100 S   0  0  0  0  0  0  0  0  0  0  0  0
   29.6320   49.9060   -6.8470 C   0  0  0  0  0  0  0  0  0  0  0  0
   32.1060   48.2140   -7.1930 O   0  0  0  0  0  0  0  0  0  0  0  0
   29.0640   49.4410   -7.9510 N   0  0  0  0  0  0  0  0  0  0  0  0
   29.8300   51.6360   -6.8860 S   0  0  0  0  0  0  0  0  0  0  0  0
   32.5580   50.1000   -5.4320 C   0  0  0  0  0  0  0  0  0  0  0  0
   29.1100   51.6140   -8.4330 C   0  0  0  0  0  0  0  0  0  0  0  0
   28.7610   50.4260   -8.8680 N   0  0  0  0  0  0  0  0  0  0  0  0
   33.9470   50.0870   -5.5830 C   0  0  0  0  0  0  0  0  0  0  0  0
   31.9220   51.2730   -5.0080 C   0  0  0  0  0  0  0  0  0  0  0  0
   34.6980   51.2300   -5.3170 C   0  0  0  0  0  0  0  0  0  0  0  0
   32.6780   52.4180   -4.7420 C   0  0  0  0  0  0  0  0  0  0  0  0
   34.0640   52.3950   -4.8980 C   0  0  0  0  0  0  0  0  0  0  0  0
  1  2  1  0
  2  3  1  0
  2  4  2  0
  4  5  1  0
  3  6  1  0
  4  7  1  0
  6  7  2  0
  5  8  2  0
  5  9  1  0
  7 10  1  0
 10 11  2  0
 10 12  1  0
 11 13  1  0
 12 14  2  0
 12 15  1  0
 13 16  2  0
 14 16  1  0
 17 15  1  6
 15 18  1  0
 17 19  2  0
 18 20  2  0
 18 21  1  0
 17 22  1  0
 21 23  1  0
 20 24  1  0
 23 24  2  0
 22 25  2  0
 22 26  1  0
 25 27  1  0
 26 28  2  0
 27 29  2  0
 28 29  1  0
M  END
