mac-x0380-mac-x0338
     RDKit          3D

 17 18  0  0  0  0  0  0  0  0999 V2000
   29.4790   48.3160   -4.5760 O   0  0  0  0  0  0  0  0  0  0  0  0
   29.3820   49.3410   -3.7150 C   0  0  0  0  0  0  0  0  0  0  0  0
   29.5610   49.1890   -2.5200 O   0  0  0  0  0  0  0  0  0  0  0  0
   29.0470   50.6310   -4.3720 C   0  0  0  0  0  0  0  0  0  0  0  0
   28.8750   51.8130   -3.6440 C   0  0  0  0  0  0  0  0  0  0  0  0
   28.9020   50.6500   -5.7650 C   0  0  0  0  0  0  0  0  0  0  0  0
   28.5580   53.0130   -4.3010 C   0  0  0  0  0  0  0  0  0  0  0  0
   28.5850   51.8460   -6.4300 C   0  0  0  0  0  0  0  0  0  0  0  0
   28.4340   51.8700   -7.9140 C   0  0  0  0  0  0  0  0  0  0  0  0
   28.4100   53.0390   -5.6950 C   0  0  0  0  0  0  0  0  0  0  0  0
   28.3550   54.4820   -3.3090 S   0  0  0  0  0  0  0  0  0  0  0  0
   27.8910   50.7820   -8.5330 N   0  0  0  0  0  0  0  0  0  0  0  0
   28.7870   52.8410   -8.5720 O   0  0  0  0  0  0  0  0  0  0  0  0
   28.0890   54.2370   -6.3610 N   0  0  0  0  0  0  0  0  0  0  0  0
   28.8600   55.7100   -4.5280 C   0  0  0  0  0  0  0  0  0  0  0  0
   28.2360   55.5110   -5.8870 C   0  0  0  0  0  0  0  0  0  0  0  0
   27.8580   56.4710   -6.5660 O   0  0  0  0  0  0  0  0  0  0  0  0
  1  2  1  0
  2  3  2  0
  2  4  1  0
  4  5  2  0
  4  6  1  0
  5  7  1  0
  6  8  2  0
  8  9  1  0
  7 10  2  0
  8 10  1  0
  7 11  1  0
  9 12  1  0
  9 13  2  0
 10 14  1  0
 11 15  1  0
 14 16  1  0
 15 16  1  0
 16 17  2  0
M  END
