mac-x0302-mac-x0357
     RDKit          3D

 22 24  0  0  0  0  0  0  0  0999 V2000
   31.7570   47.0120   -4.1650 O   0  0  0  0  0  0  0  0  0  0  0  0
   30.9860   46.2510   -4.9220 C   0  0  0  0  0  0  0  0  0  0  0  0
   31.6300   45.0760   -5.2030 C   0  0  0  0  0  0  0  0  0  0  0  0
   32.8930   46.3680   -3.9190 C   0  0  0  0  0  0  0  0  0  0  0  0
   29.7340   46.9410   -5.1870 C   0  0  0  0  0  0  0  0  0  0  0  0
   32.8970   45.1230   -4.5120 C   0  0  0  0  0  0  0  0  0  0  0  0
   33.9000   46.9190   -3.1610 C   0  0  0  0  0  0  0  0  0  0  0  0
   30.0780   48.3450   -5.1480 N   0  0  0  0  0  0  0  0  0  0  0  0
   31.1490   44.0910   -5.9650 O   0  0  0  0  0  0  0  0  0  0  0  0
   35.0260   46.1390   -2.9620 C   0  0  0  0  0  0  0  0  0  0  0  0
   34.0590   44.3430   -4.2750 C   0  0  0  0  0  0  0  0  0  0  0  0
   29.7570   49.2280   -4.1320 C   0  0  0  0  0  0  0  0  0  0  0  0
   34.2220   43.0760   -4.7620 O   0  0  0  0  0  0  0  0  0  0  0  0
   35.1050   44.8650   -3.5050 C   0  0  0  0  0  0  0  0  0  0  0  0
   29.7490   48.9630   -2.9260 O   0  0  0  0  0  0  0  0  0  0  0  0
   29.4230   50.5740   -4.6470 C   0  0  0  0  0  0  0  0  0  0  0  0
   29.6600   51.7160   -3.8700 C   0  0  0  0  0  0  0  0  0  0  0  0
   28.8710   50.6930   -5.9260 C   0  0  0  0  0  0  0  0  0  0  0  0
   29.3370   52.9670   -4.3980 C   0  0  0  0  0  0  0  0  0  0  0  0
   28.5540   51.9480   -6.4370 C   0  0  0  0  0  0  0  0  0  0  0  0
   29.5470   54.1130   -3.6950 O   0  0  0  0  0  0  0  0  0  0  0  0
   28.7880   53.0850   -5.6720 C   0  0  0  0  0  0  0  0  0  0  0  0
  1  2  1  0
  2  3  2  0
  1  4  1  0
  2  5  1  0
  3  6  1  0
  4  6  2  0
  4  7  1  0
  5  8  1  0
  3  9  1  0
  7 10  2  0
  6 11  1  0
  8 12  1  0
 11 13  1  0
 10 14  1  0
 11 14  2  0
 12 15  2  0
 12 16  1  0
 16 17  2  0
 16 18  1  0
 17 19  1  0
 18 20  2  0
 19 21  1  0
 19 22  2  0
 20 22  1  0
M  END
