mac-x0212-mac-x0394
     RDKit          3D

 25 26  0  0  0  0  0  0  0  0999 V2000
   30.9420   53.7560   -6.1450 C   0  0  0  0  0  0  0  0  0  0  0  0
   29.3370   54.0300   -5.4150 S   0  0  0  0  0  0  0  0  0  0  0  0
   28.7930   55.1820   -6.1200 O   0  0  0  0  0  0  0  0  0  0  0  0
   29.5790   54.1430   -3.9860 O   0  0  0  0  0  0  0  0  0  0  0  0
   28.3260   52.5310   -5.8230 C   0  0  1  0  0  0  0  0  0  0  0  0
   28.0920   52.6630   -7.3500 C   0  0  0  0  0  0  0  0  0  0  0  0
   29.0630   51.1860   -5.5520 C   0  0  0  0  0  0  0  0  0  0  0  0
   27.0120   52.6180   -4.9760 C   0  0  0  0  0  0  0  0  0  0  0  0
   28.9350   53.5080   -7.9840 O   0  0  0  0  0  0  0  0  0  0  0  0
   27.2400   52.0920   -8.0210 O   0  0  0  0  0  0  0  0  0  0  0  0
   29.5990   50.3130   -6.5110 C   0  0  0  0  0  0  0  0  0  0  0  0
   29.2030   50.8020   -4.1910 C   0  0  0  0  0  0  0  0  0  0  0  0
   26.6160   53.7950   -4.2970 C   0  0  0  0  0  0  0  0  0  0  0  0
   26.1530   51.5000   -4.8560 C   0  0  0  0  0  0  0  0  0  0  0  0
   30.2420   49.1200   -6.1380 C   0  0  0  0  0  0  0  0  0  0  0  0
   29.8430   49.6160   -3.8190 C   0  0  0  0  0  0  0  0  0  0  0  0
   25.4320   53.8370   -3.5440 C   0  0  0  0  0  0  0  0  0  0  0  0
   24.9740   51.5570   -4.1020 C   0  0  0  0  0  0  0  0  0  0  0  0
   23.9640   50.1670   -3.9840 Cl  0  0  0  0  0  0  0  0  0  0  0  0
   24.9890   55.2910   -2.7350 Cl  0  0  0  0  0  0  0  0  0  0  0  0
   30.3660   48.7670   -4.7900 C   0  0  0  0  0  0  0  0  0  0  0  0
   24.6100   52.7230   -3.4450 C   0  0  0  0  0  0  0  0  0  0  0  0
   31.0370   47.5170   -4.3550 C   0  0  0  0  0  0  0  0  0  0  0  0
   31.3920   46.6080   -5.0810 O   0  0  0  0  0  0  0  0  0  0  0  0
   31.2310   47.4670   -3.0240 O   0  0  0  0  0  0  0  0  0  0  0  0
  2  1  1  0
  2  3  2  0
  2  4  2  0
  2  5  1  0
  5  6  1  6
  5  7  1  0
  5  8  1  0
  6  9  1  0
  6 10  2  0
  7 11  2  0
  7 12  1  0
  8 13  2  0
  8 14  1  0
 11 15  1  0
 12 16  2  0
 13 17  1  0
 14 18  2  0
 18 19  1  0
 17 20  1  0
 15 21  2  0
 16 21  1  0
 17 22  2  0
 18 22  1  0
 21 23  1  0
 23 24  2  0
 23 25  1  0
M  END
