mac-x0345-mac-x0139
     RDKit          3D

 26 28  0  0  0  0  0  0  0  0999 V2000
   29.8230   54.6510   -4.8040 C   0  0  0  0  0  0  0  0  0  0  0  0
   29.4970   53.2310   -4.4440 C   0  0  0  0  0  0  0  0  0  0  0  0
   29.8730   52.8070   -3.2090 N   0  0  0  0  0  0  0  0  0  0  0  0
   28.8440   52.4080   -5.3570 C   0  0  0  0  0  0  0  0  0  0  0  0
   28.5510   52.9540   -6.5540 O   0  0  0  0  0  0  0  0  0  0  0  0
   28.5580   51.1030   -4.9810 C   0  0  0  0  0  0  0  0  0  0  0  0
   29.5910   51.5370   -2.8780 C   0  0  0  0  0  0  0  0  0  0  0  0
   29.9900   51.1200   -1.6130 N   0  0  0  0  0  0  0  0  0  0  0  0
   29.4920   52.4890   -7.4970 C   0  0  0  0  0  0  0  0  0  0  0  0
   28.9390   50.6610   -3.7230 C   0  0  0  0  0  0  0  0  0  0  0  0
   29.3910   50.9930   -7.4700 C   0  0  0  0  0  0  0  0  0  0  0  0
   28.6760   50.4280   -8.5070 N   0  0  0  0  0  0  0  0  0  0  0  0
   29.8990   50.0950   -6.5760 C   0  0  0  0  0  0  0  0  0  0  0  0
   29.4900   48.8140   -7.0730 C   0  0  0  0  0  0  0  0  0  0  0  0
   28.7290   49.1610   -8.2960 C   0  0  0  0  0  0  0  0  0  0  0  0
   29.6020   47.4890   -6.7670 C   0  0  0  0  0  0  0  0  0  0  0  0
   28.2030   48.1720   -9.0300 N   0  0  0  0  0  0  0  0  0  0  0  0
   30.3130   47.0300   -5.6320 N   0  0  0  0  0  0  0  0  0  0  0  0
   28.3720   46.8900   -8.6390 C   0  0  0  0  0  0  0  0  0  0  0  0
   29.0180   46.5140   -7.5840 N   0  0  0  0  0  0  0  0  0  0  0  0
   30.1240   47.7190   -4.3480 C   0  0  0  0  0  0  0  0  0  0  0  0
   30.4820   45.5590   -5.4800 C   0  0  0  0  0  0  0  0  0  0  0  0
   31.9550   45.1540   -5.4700 C   0  0  0  0  0  0  0  0  0  0  0  0
   32.5290   44.9680   -6.8470 C   0  0  0  0  0  0  0  0  0  0  0  0
   31.9230   44.6660   -7.8600 O   0  0  0  0  0  0  0  0  0  0  0  0
   33.8630   45.1700   -6.9010 O   0  0  0  0  0  0  0  0  0  0  0  0
  1  2  1  0
  2  3  2  0
  2  4  1  0
  4  5  1  0
  4  6  2  0
  3  7  1  0
  7  8  1  0
  5  9  1  0
  6 10  1  0
  7 10  2  0
  9 11  1  0
 11 12  1  0
 11 13  2  0
 13 14  1  0
 12 15  2  0
 14 15  1  0
 14 16  2  0
 15 17  1  0
 16 18  1  0
 17 19  1  0
 16 20  1  0
 19 20  2  0
 18 21  1  0
 18 22  1  0
 22 23  1  0
 23 24  1  0
 24 25  2  0
 24 26  1  0
M  END
