mac-x0255-mac-x0303
     RDKit          3D

 28 31  0  0  0  0  0  0  0  0999 V2000
   31.9140   45.0080   -7.8510 O   0  0  0  0  0  0  0  0  0  0  0  0
   32.7390   45.3330   -6.8290 C   0  0  0  0  0  0  0  0  0  0  0  0
   33.5700   46.2130   -6.9850 O   0  0  0  0  0  0  0  0  0  0  0  0
   32.4690   44.4910   -5.6040 C   0  0  0  0  0  0  0  0  0  0  0  0
   31.3810   45.0760   -4.7490 C   0  0  0  0  0  0  0  0  0  0  0  0
   30.0410   44.7560   -4.7360 C   0  0  0  0  0  0  0  0  0  0  0  0
   31.7350   46.2950   -3.6140 S   0  0  0  0  0  0  0  0  0  0  0  0
   29.2840   45.5170   -3.7840 C   0  0  0  0  0  0  0  0  0  0  0  0
   30.0920   46.4200   -3.0810 C   0  0  0  0  0  0  0  0  0  0  0  0
   27.9020   45.4750   -3.4820 C   0  0  0  0  0  0  0  0  0  0  0  0
   29.5640   47.2820   -2.0860 C   0  0  0  0  0  0  0  0  0  0  0  0
   30.3990   48.2720   -1.3050 C   0  0  0  0  0  0  0  0  0  0  0  0
   27.3630   46.3110   -2.5080 C   0  0  0  0  0  0  0  0  0  0  0  0
   28.1830   47.1990   -1.8250 C   0  0  0  0  0  0  0  0  0  0  0  0
   31.3030   49.1360   -2.1930 C   0  0  0  0  0  0  0  0  0  0  0  0
   30.5390   50.0230   -3.1520 C   0  0  0  0  0  0  0  0  0  0  0  0
   30.7130   51.4180   -3.0910 C   0  0  0  0  0  0  0  0  0  0  0  0
   29.6600   49.4610   -4.0970 C   0  0  0  0  0  0  0  0  0  0  0  0
   29.9850   52.1890   -3.9980 C   0  0  0  0  0  0  0  0  0  0  0  0
   28.9440   50.2630   -4.9940 C   0  0  0  0  0  0  0  0  0  0  0  0
   29.9170   53.5430   -4.2110 N   0  0  0  0  0  0  0  0  0  0  0  0
   29.1150   51.6520   -4.9390 C   0  0  0  0  0  0  0  0  0  0  0  0
   29.0370   53.7790   -5.2400 C   0  0  0  0  0  0  0  0  0  0  0  0
   28.5370   52.6430   -5.6970 N   0  0  0  0  0  0  0  0  0  0  0  0
   28.6940   55.4160   -5.7950 S   0  0  0  0  0  0  0  0  0  0  0  0
   29.9950   55.8780   -6.7790 N   0  0  0  0  0  0  0  0  0  0  0  0
   27.5590   55.3520   -6.6850 O   0  0  0  0  0  0  0  0  0  0  0  0
   28.7670   56.2840   -4.6480 O   0  0  0  0  0  0  0  0  0  0  0  0
  1  2  1  0
  2  3  2  0
  2  4  1  0
  4  5  1  0
  5  6  2  0
  5  7  1  0
  6  8  1  0
  7  9  1  0
  8  9  2  0
  8 10  1  0
  9 11  1  0
 11 12  1  0
 10 13  2  0
 11 14  2  0
 13 14  1  0
 12 15  1  0
 15 16  1  0
 16 17  2  0
 16 18  1  0
 17 19  1  0
 18 20  2  0
 19 21  1  0
 19 22  2  0
 20 22  1  0
 21 23  1  0
 22 24  1  0
 23 24  2  0
 23 25  1  0
 25 26  1  0
 25 27  2  0
 25 28  2  0
M  END
