mac-x0387-mac-x0587
     RDKit          3D

 20 21  0  0  0  0  0  0  0  0999 V2000
   28.8580   51.7220   -6.8260 N   0  0  0  0  0  0  0  0  0  0  0  0
   29.0880   50.4470   -7.4820 C   0  0  2  0  0  0  0  0  0  0  0  0
   27.9140   49.8260   -8.0380 N   0  0  0  0  0  0  0  0  0  0  0  0
   29.8750   49.4670   -6.5500 C   0  0  2  0  0  0  0  0  0  0  0  0
   29.6160   47.9610   -6.8470 C   0  0  2  0  0  0  0  0  0  0  0  0
   28.0080   48.5900   -8.5990 C   0  0  0  0  0  0  0  0  0  0  0  0
   29.6740   49.7930   -5.0520 C   0  0  0  0  0  0  0  0  0  0  0  0
   28.8050   47.6610   -8.0870 C   0  0  0  0  0  0  0  0  0  0  0  0
   28.9960   47.2390   -5.6480 C   0  0  0  0  0  0  0  0  0  0  0  0
   30.2440   48.7390   -4.1010 C   0  0  2  0  0  0  0  0  0  0  0  0
   27.9640   46.5700   -5.7880 O   0  0  0  0  0  0  0  0  0  0  0  0
   29.6480   47.3330   -4.2700 C   0  0  2  0  0  0  0  0  0  0  0  0
   30.0260   49.1790   -2.7550 O   0  0  0  0  0  0  0  0  0  0  0  0
   30.6130   46.1430   -4.0450 C   0  0  2  0  0  0  0  0  0  0  0  0
   30.2120   45.2910   -2.8360 C   0  0  0  0  0  0  0  0  0  0  0  0
   32.3440   46.7120   -3.7390 S   0  0  0  0  0  0  0  0  0  0  0  0
   32.9810   46.7790   -5.4430 C   0  0  0  0  0  0  0  0  0  0  0  0
   33.9870   45.6920   -5.7190 C   0  0  0  0  0  0  0  0  0  0  0  0
   35.2000   45.8330   -5.7570 O   0  0  0  0  0  0  0  0  0  0  0  0
   33.4300   44.4840   -5.9330 O   0  0  0  0  0  0  0  0  0  0  0  0
  2  1  1  1
  2  3  1  0
  2  4  1  0
  4  5  1  0
  3  6  1  0
  4  7  1  1
  5  8  1  6
  6  8  2  0
  5  9  1  0
  7 10  1  0
  9 11  2  0
 12  9  1  6
 10 12  1  0
 10 13  1  1
 12 14  1  0
 14 15  1  1
 14 16  1  0
 16 17  1  0
 17 18  1  0
 18 19  2  0
 18 20  1  0
M  END
