mac-x0123-mac-x0190
     RDKit          3D

 15 17  0  0  0  0  0  0  0  0999 V2000
   28.2480   51.2580   -7.1730 N   0  0  0  0  0  0  0  0  0  0  0  0
   28.3370   52.1400   -6.0050 C   0  0  2  0  0  0  0  0  0  0  0  0
   28.4830   53.6300   -6.3510 C   0  0  1  0  0  0  0  0  0  0  0  0
   29.4350   51.7160   -5.1680 N   0  0  0  0  0  0  0  0  0  0  0  0
   29.5360   52.4820   -3.9620 C   0  0  2  0  0  0  0  0  0  0  0  0
   28.8170   54.4750   -5.0800 C   0  0  1  0  0  0  0  0  0  0  0  0
   29.5760   54.1140   -7.2640 C   0  0  0  0  0  0  0  0  0  0  0  0
   29.4540   50.3640   -4.6720 N   0  0  0  0  0  0  0  0  0  0  0  0
   29.8520   53.8870   -4.1950 N   0  0  0  0  0  0  0  0  0  0  0  0
   29.0960   55.8340   -5.7450 C   0  0  0  0  0  0  0  0  0  0  0  0
   29.9160   55.3680   -6.9200 C   0  0  0  0  0  0  0  0  0  0  0  0
   30.6760   51.8410   -3.3250 N   0  0  0  0  0  0  0  0  0  0  0  0
   30.5730   50.4320   -3.7360 C   0  0  0  0  0  0  0  0  0  0  0  0
   29.8980   54.5890   -2.9140 C   0  0  0  0  0  0  0  0  0  0  0  0
   29.3250   55.8740   -3.0520 O   0  0  0  0  0  0  0  0  0  0  0  0
  2  1  1  6
  2  3  1  0
  2  4  1  0
  4  5  1  0
  3  6  1  0
  3  7  1  6
  4  8  1  0
  5  9  1  0
  6  9  1  0
  6 10  1  6
  7 11  2  0
 10 11  1  0
  5 12  1  1
  8 13  1  0
 12 13  1  0
  9 14  1  0
 14 15  1  0
M  END
