mac-x0223-mac-x0159
     RDKit          3D

 24 26  0  0  0  0  0  0  0  0999 V2000
   27.3550   43.4850   -1.4450 C   0  0  0  0  0  0  0  0  0  0  0  0
   28.2760   44.3980   -0.8580 O   0  0  0  0  0  0  0  0  0  0  0  0
   29.0400   45.1110   -1.7390 C   0  0  0  0  0  0  0  0  0  0  0  0
   28.7270   46.4630   -1.8210 C   0  0  0  0  0  0  0  0  0  0  0  0
   30.0690   44.6090   -2.5350 C   0  0  0  0  0  0  0  0  0  0  0  0
   27.7250   46.9950   -1.0510 O   0  0  0  0  0  0  0  0  0  0  0  0
   29.4100   47.3040   -2.6780 C   0  0  0  0  0  0  0  0  0  0  0  0
   30.7950   45.4380   -3.4240 C   0  0  0  0  0  0  0  0  0  0  0  0
   31.8930   44.7540   -4.2290 C   0  0  0  0  0  0  0  0  0  0  0  0
   30.4480   46.8150   -3.4940 C   0  0  0  0  0  0  0  0  0  0  0  0
   32.4360   45.5190   -5.4090 C   0  0  0  0  0  0  0  0  0  0  0  0
   31.0950   47.8460   -4.3900 C   0  0  0  0  0  0  0  0  0  0  0  0
   33.3590   46.3220   -5.4020 O   0  0  0  0  0  0  0  0  0  0  0  0
   31.7990   45.2310   -6.5650 O   0  0  0  0  0  0  0  0  0  0  0  0
   30.1040   48.7780   -4.9760 N   0  0  0  0  0  0  0  0  0  0  0  0
   30.4980   50.1340   -4.6160 C   0  0  0  0  0  0  0  0  0  0  0  0
   30.0010   48.6670   -6.4420 C   0  0  2  0  0  0  0  0  0  0  0  0
   29.3760   51.0390   -4.8070 N   0  0  0  0  0  0  0  0  0  0  0  0
   29.3140   49.9050   -7.0390 C   0  0  2  0  0  0  0  0  0  0  0  0
   29.0520   47.6140   -6.7780 N   0  0  0  0  0  0  0  0  0  0  0  0
   28.5520   50.6790   -5.9450 C   0  0  2  0  0  0  0  0  0  0  0  0
   28.4330   49.3810   -8.1380 N   0  0  0  0  0  0  0  0  0  0  0  0
   28.5740   47.9320   -8.0950 C   0  0  0  0  0  0  0  0  0  0  0  0
   27.9690   51.9240   -6.4090 N   0  0  0  0  0  0  0  0  0  0  0  0
  1  2  1  0
  2  3  1  0
  3  4  2  0
  3  5  1  0
  4  6  1  0
  4  7  1  0
  5  8  2  0
  8  9  1  0
  7 10  2  0
  8 10  1  0
  9 11  1  0
 10 12  1  0
 11 13  2  0
 11 14  1  0
 12 15  1  0
 15 16  1  0
 15 17  1  0
 16 18  1  0
 17 19  1  0
 17 20  1  1
 18 21  1  0
 19 21  1  0
 19 22  1  6
 20 23  1  0
 22 23  1  0
 21 24  1  6
M  END
