mac-x0412-mac-x0455
     RDKit          3D

 23 25  0  0  0  0  0  0  0  0999 V2000
   29.0380   53.4140   -2.9950 O   0  0  0  0  0  0  0  0  0  0  0  0
   29.2840   53.3470   -4.2000 C   0  0  0  0  0  0  0  0  0  0  0  0
   28.7530   54.2550   -5.0980 N   0  0  0  0  0  0  0  0  0  0  0  0
   30.2040   52.2530   -4.7990 C   0  0  2  0  0  0  0  0  0  0  0  0
   29.5300   51.6820   -6.0400 C   0  0  0  0  0  0  0  0  0  0  0  0
   28.4870   53.8160   -6.2820 C   0  0  0  0  0  0  0  0  0  0  0  0
   30.5910   51.1760   -3.8140 C   0  0  0  0  0  0  0  0  0  0  0  0
   28.6950   52.4360   -6.7660 C   0  0  0  0  0  0  0  0  0  0  0  0
   29.8290   50.3050   -6.3960 C   0  0  0  0  0  0  0  0  0  0  0  0
   30.6610   49.8840   -4.1550 C   0  0  0  0  0  0  0  0  0  0  0  0
   30.3660   49.4410   -5.5100 C   0  0  0  0  0  0  0  0  0  0  0  0
   30.6780   48.0000   -5.8810 C   0  0  0  0  0  0  0  0  0  0  0  0
   30.8220   46.9970   -4.7040 C   0  0  1  0  0  0  0  0  0  0  0  0
   29.7860   47.2250   -3.7080 O   0  0  0  0  0  0  0  0  0  0  0  0
   30.4890   45.5730   -5.2340 C   0  0  0  0  0  0  0  0  0  0  0  0
   32.1950   47.0310   -4.0330 C   0  0  0  0  0  0  0  0  0  0  0  0
   29.9420   44.6840   -4.5950 O   0  0  0  0  0  0  0  0  0  0  0  0
   30.8770   45.4070   -6.5300 O   0  0  0  0  0  0  0  0  0  0  0  0
   33.0310   48.1580   -4.1670 C   0  0  0  0  0  0  0  0  0  0  0  0
   32.6660   45.9510   -3.2670 C   0  0  0  0  0  0  0  0  0  0  0  0
   34.2880   48.1960   -3.5570 C   0  0  0  0  0  0  0  0  0  0  0  0
   33.9250   45.9930   -2.6580 C   0  0  0  0  0  0  0  0  0  0  0  0
   34.7340   47.1170   -2.8030 C   0  0  0  0  0  0  0  0  0  0  0  0
  1  2  2  0
  2  3  1  0
  2  4  1  0
  4  5  1  0
  3  6  2  0
  4  7  1  1
  5  8  2  0
  6  8  1  0
  5  9  1  0
  7 10  2  0
  9 11  2  0
 10 11  1  0
 11 12  1  0
 12 13  1  0
 13 14  1  1
 13 15  1  0
 13 16  1  0
 15 17  2  0
 15 18  1  0
 16 19  2  0
 16 20  1  0
 19 21  1  0
 20 22  2  0
 21 23  2  0
 22 23  1  0
M  END
