mac-x0455-mac-x0412
     RDKit          3D

 25 27  0  0  0  0  0  0  0  0999 V2000
   31.0060   48.3180   -5.2470 C   0  0  0  0  0  0  0  0  0  0  0  0
   31.2420   46.9230   -4.6360 C   0  0  1  0  0  0  0  0  0  0  0  0
   30.2010   46.6340   -3.6730 O   0  0  0  0  0  0  0  0  0  0  0  0
   31.0380   45.9390   -5.8300 C   0  0  0  0  0  0  0  0  0  0  0  0
   32.6250   46.7060   -3.9970 C   0  0  0  0  0  0  0  0  0  0  0  0
   30.3390   44.9350   -5.8610 O   0  0  0  0  0  0  0  0  0  0  0  0
   31.7290   46.2750   -6.9500 O   0  0  0  0  0  0  0  0  0  0  0  0
   29.7010   47.7420   -2.9200 C   0  0  0  0  0  0  0  0  0  0  0  0
   33.5000   47.7670   -3.6960 C   0  0  0  0  0  0  0  0  0  0  0  0
   33.0540   45.3990   -3.6920 C   0  0  0  0  0  0  0  0  0  0  0  0
   28.4870   48.3210   -3.6510 C   0  0  0  0  0  0  0  0  0  0  0  0
   34.7510   47.5230   -3.1150 C   0  0  0  0  0  0  0  0  0  0  0  0
   34.3020   45.1590   -3.1120 C   0  0  0  0  0  0  0  0  0  0  0  0
   35.1520   46.2240   -2.8230 C   0  0  0  0  0  0  0  0  0  0  0  0
   28.6890   49.7710   -4.0320 C   0  0  0  0  0  0  0  0  0  0  0  0
   28.3860   50.2340   -5.2620 C   0  0  0  0  0  0  0  0  0  0  0  0
   29.2270   50.6690   -3.0230 C   0  0  0  0  0  0  0  0  0  0  0  0
   28.5820   51.6280   -5.6160 C   0  0  0  0  0  0  0  0  0  0  0  0
   29.2430   51.9970   -3.2150 C   0  0  0  0  0  0  0  0  0  0  0  0
   28.7100   52.6320   -4.4810 C   0  0  1  0  0  0  0  0  0  0  0  0
   28.6450   52.0280   -6.8930 C   0  0  0  0  0  0  0  0  0  0  0  0
   29.5600   53.8330   -4.9690 C   0  0  0  0  0  0  0  0  0  0  0  0
   28.8420   53.4740   -7.1060 C   0  0  0  0  0  0  0  0  0  0  0  0
   30.4450   54.3320   -4.2780 O   0  0  0  0  0  0  0  0  0  0  0  0
   29.2650   54.3220   -6.2300 N   0  0  0  0  0  0  0  0  0  0  0  0
  2  1  1  6
  2  3  1  0
  2  4  1  0
  2  5  1  0
  4  6  2  0
  4  7  1  0
  3  8  1  0
  5  9  2  0
  5 10  1  0
  8 11  1  0
  9 12  1  0
 10 13  2  0
 12 14  2  0
 13 14  1  0
 11 15  1  0
 15 16  2  0
 15 17  1  0
 16 18  1  0
 17 19  2  0
 18 20  1  0
 20 19  1  1
 18 21  2  0
 20 22  1  0
 21 23  1  0
 22 24  2  0
 22 25  1  0
 23 25  2  0
M  END
