mac-x0301-mac-x0137
     RDKit          3D

 22 25  0  0  0  0  0  0  0  0999 V2000
   30.1360   45.5210   -3.9200 O   0  0  0  0  0  0  0  0  0  0  0  0
   30.0920   46.7510   -3.3640 C   0  0  0  0  0  0  0  0  0  0  0  0
   30.8370   47.0180   -2.4420 O   0  0  0  0  0  0  0  0  0  0  0  0
   29.0670   47.6360   -4.0000 C   0  0  0  0  0  0  0  0  0  0  0  0
   29.2740   48.3810   -5.1750 C   0  0  0  0  0  0  0  0  0  0  0  0
   27.8040   47.7280   -3.3750 C   0  0  0  0  0  0  0  0  0  0  0  0
   28.2180   49.1780   -5.6850 C   0  0  0  0  0  0  0  0  0  0  0  0
   26.7790   48.5290   -3.8960 C   0  0  0  0  0  0  0  0  0  0  0  0
   30.4870   48.5380   -6.1020 C   0  0  1  0  0  0  0  0  0  0  0  0
   26.9810   49.2570   -5.0560 C   0  0  0  0  0  0  0  0  0  0  0  0
   28.6200   49.8870   -6.9460 C   0  0  2  0  0  0  0  0  0  0  0  0
   29.7590   48.9710   -7.4090 C   0  0  0  0  0  0  0  0  0  0  0  0
   31.3600   49.6530   -5.6990 N   0  0  0  0  0  0  0  0  0  0  0  0
   31.2880   47.2190   -6.2070 C   0  0  0  0  0  0  0  0  0  0  0  0
   32.0070   49.3840   -4.4070 C   0  0  0  0  0  0  0  0  0  0  0  0
   32.7430   47.3550   -5.7370 C   0  0  0  0  0  0  0  0  0  0  0  0
   29.0970   51.2690   -6.6960 N   0  0  0  0  0  0  0  0  0  0  0  0
   27.5280   50.0510   -7.9540 C   0  0  0  0  0  0  0  0  0  0  0  0
   32.8470   48.1080   -4.4140 C   0  0  1  0  0  0  0  0  0  0  0  0
   27.3420   51.3310   -8.2750 C   0  0  0  0  0  0  0  0  0  0  0  0
   28.3450   51.9990   -7.4560 C   0  0  0  0  0  0  0  0  0  0  0  0
   34.1520   48.4540   -4.2180 F   0  0  0  0  0  0  0  0  0  0  0  0
  1  2  1  0
  2  3  2  0
  2  4  1  0
  4  5  2  0
  4  6  1  0
  5  7  1  0
  6  8  2  0
  5  9  1  0
  7 10  2  0
  8 10  1  0
  7 11  1  0
  9 12  1  6
 11 12  1  6
  9 13  1  0
  9 14  1  0
 13 15  1  0
 14 16  1  0
 11 17  1  0
 11 18  1  0
 15 19  1  0
 16 19  1  0
 18 20  2  0
 17 21  2  0
 20 21  1  0
 19 22  1  6
M  END
