mac-x0397-mac-x0282
     RDKit          3D

 16 18  0  0  0  0  0  0  0  0999 V2000
   29.3050   52.4410   -2.4040 Cl  0  0  0  0  0  0  0  0  0  0  0  0
   30.0090   51.3890   -3.6660 C   0  0  2  0  0  0  0  0  0  0  0  0
   29.5490   51.8410   -5.0180 C   0  0  0  0  0  0  0  0  0  0  0  0
   29.5800   49.9630   -3.3980 C   0  0  0  0  0  0  0  0  0  0  0  0
   29.4310   53.1830   -5.3540 N   0  0  0  0  0  0  0  0  0  0  0  0
   29.2040   50.9510   -6.0220 C   0  0  0  0  0  0  0  0  0  0  0  0
   29.2340   49.0860   -4.3680 C   0  0  0  0  0  0  0  0  0  0  0  0
   29.0080   53.2950   -6.5890 C   0  0  0  0  0  0  0  0  0  0  0  0
   28.7320   51.8150   -7.4180 S   0  0  0  0  0  0  0  0  0  0  0  0
   29.2350   49.4320   -5.8700 C   0  0  2  0  0  0  0  0  0  0  0  0
   28.8000   54.4800   -7.1880 N   0  0  0  0  0  0  0  0  0  0  0  0
   30.4370   48.7180   -6.4770 C   0  0  0  0  0  0  0  0  0  0  0  0
   27.9190   48.8570   -6.5170 C   0  0  0  0  0  0  0  0  0  0  0  0
   30.3290   47.8640   -7.5140 C   0  0  0  0  0  0  0  0  0  0  0  0
   28.0200   48.5670   -7.9620 N   0  0  0  0  0  0  0  0  0  0  0  0
   29.0300   47.5390   -8.1860 C   0  0  0  0  0  0  0  0  0  0  0  0
  2  1  1  1
  2  3  1  0
  2  4  1  0
  3  5  1  0
  3  6  2  0
  4  7  2  0
  5  8  2  0
  6  9  1  0
  8  9  1  0
  6 10  1  0
 10  7  1  1
  8 11  1  0
 10 12  1  0
 10 13  1  0
 12 14  2  0
 13 15  1  0
 14 16  1  0
 15 16  1  0
M  END
