mac-x0555-mac-x0159
     RDKit          3D

 28 32  0  0  0  0  0  0  0  0999 V2000
   30.2790   55.6370   -7.3000 N   0  0  0  0  0  0  0  0  0  0  0  0
   29.8300   55.0520   -6.1100 C   0  0  0  0  0  0  0  0  0  0  0  0
   29.6480   55.7760   -4.9450 C   0  0  0  0  0  0  0  0  0  0  0  0
   29.5410   53.6900   -6.0460 C   0  0  0  0  0  0  0  0  0  0  0  0
   29.0830   53.0840   -4.8510 C   0  0  0  0  0  0  0  0  0  0  0  0
   29.2150   55.2560   -3.7730 N   0  0  0  0  0  0  0  0  0  0  0  0
   28.9400   53.9430   -3.7350 C   0  0  0  0  0  0  0  0  0  0  0  0
   28.7700   51.6890   -4.7370 C   0  0  0  0  0  0  0  0  0  0  0  0
   28.9190   50.8480   -5.8610 N   0  0  0  0  0  0  0  0  0  0  0  0
   28.4960   53.4150   -2.5370 C   0  0  0  0  0  0  0  0  0  0  0  0
   28.3240   51.2130   -3.4950 C   0  0  0  0  0  0  0  0  0  0  0  0
   28.1880   52.0690   -2.4030 C   0  0  0  0  0  0  0  0  0  0  0  0
   30.0040   49.8620   -5.9910 C   0  0  1  0  0  0  0  0  0  0  0  0
   30.4450   49.2030   -4.7760 N   0  0  0  0  0  0  0  0  0  0  0  0
   29.6480   48.8270   -7.1170 C   0  0  1  0  0  0  0  0  0  0  0  0
   29.4750   48.2050   -4.3720 C   0  0  0  0  0  0  0  0  0  0  0  0
   29.6700   47.3560   -6.6470 C   0  0  1  0  0  0  0  0  0  0  0  0
   28.2950   48.9850   -7.7470 N   0  0  0  0  0  0  0  0  0  0  0  0
   29.5330   47.0390   -5.2400 N   0  0  0  0  0  0  0  0  0  0  0  0
   28.4920   46.7770   -7.3120 N   0  0  0  0  0  0  0  0  0  0  0  0
   28.1210   47.6830   -8.3680 C   0  0  0  0  0  0  0  0  0  0  0  0
   30.4540   46.0080   -4.7350 C   0  0  0  0  0  0  0  0  0  0  0  0
   29.8080   45.2090   -3.6230 C   0  0  0  0  0  0  0  0  0  0  0  0
   29.1600   43.9940   -3.7590 C   0  0  0  0  0  0  0  0  0  0  0  0
   29.8410   45.6960   -2.3230 N   0  0  0  0  0  0  0  0  0  0  0  0
   29.2320   44.8660   -1.5050 C   0  0  0  0  0  0  0  0  0  0  0  0
   28.5840   43.4540   -2.2370 S   0  0  0  0  0  0  0  0  0  0  0  0
   29.0840   45.0860   -0.0410 C   0  0  0  0  0  0  0  0  0  0  0  0
  1  2  1  0
  2  3  2  0
  2  4  1  0
  4  5  2  0
  3  6  1  0
  5  7  1  0
  6  7  2  0
  5  8  1  0
  8  9  1  0
  7 10  1  0
  8 11  2  0
 10 12  2  0
 11 12  1  0
 13  9  1  1
 13 14  1  0
 13 15  1  0
 14 16  1  0
 15 17  1  0
 15 18  1  1
 16 19  1  0
 17 19  1  0
 17 20  1  6
 18 21  1  0
 20 21  1  0
 19 22  1  0
 22 23  1  0
 23 24  2  0
 23 25  1  0
 25 26  2  0
 24 27  1  0
 26 27  1  0
 26 28  1  0
M  END
