mac-x0572-mac-x0361
     RDKit          3D

 16 18  0  0  0  0  0  0  0  0999 V2000
   28.4990   56.0920   -7.6290 C   0  0  0  0  0  0  0  0  0  0  0  0
   28.7680   54.8650   -6.8060 C   0  0  0  0  0  0  0  0  0  0  0  0
   28.4250   53.6720   -7.4080 N   0  0  0  0  0  0  0  0  0  0  0  0
   29.3300   54.9580   -5.5190 C   0  0  0  0  0  0  0  0  0  0  0  0
   29.6710   56.1350   -4.9190 O   0  0  0  0  0  0  0  0  0  0  0  0
   29.5420   53.7750   -4.8390 C   0  0  0  0  0  0  0  0  0  0  0  0
   28.6410   52.5230   -6.7240 C   0  0  0  0  0  0  0  0  0  0  0  0
   30.0790   53.5210   -3.5530 N   0  0  0  0  0  0  0  0  0  0  0  0
   29.1930   52.6150   -5.4610 C   0  0  0  0  0  0  0  0  0  0  0  0
   28.3740   51.2120   -7.1360 C   0  0  0  0  0  0  0  0  0  0  0  0
   30.0400   52.2190   -3.4370 C   0  0  0  0  0  0  0  0  0  0  0  0
   28.6580   50.1010   -6.2980 C   0  0  0  0  0  0  0  0  0  0  0  0
   29.4790   51.5780   -4.6320 C   0  0  0  0  0  0  0  0  0  0  0  0
   30.4660   51.5270   -2.3430 N   0  0  0  0  0  0  0  0  0  0  0  0
   29.2190   50.2880   -5.0300 C   0  0  0  0  0  0  0  0  0  0  0  0
   29.4790   49.2030   -4.2520 O   0  0  0  0  0  0  0  0  0  0  0  0
  1  2  1  0
  2  3  2  0
  2  4  1  0
  4  5  1  0
  4  6  2  0
  3  7  1  0
  6  8  1  0
  6  9  1  0
  7  9  2  0
  7 10  1  0
  8 11  2  0
 10 12  2  0
  9 13  1  0
 11 13  1  0
 11 14  1  0
 12 15  1  0
 13 15  2  0
 15 16  1  0
M  END
