mac-x0412-mac-x0328
     RDKit          3D

 14 15  0  0  0  0  0  0  0  0999 V2000
   28.9470   54.2300   -3.6700 O   0  0  0  0  0  0  0  0  0  0  0  0
   29.1800   53.7430   -4.7730 C   0  0  0  0  0  0  0  0  0  0  0  0
   28.7440   54.3470   -5.9380 N   0  0  0  0  0  0  0  0  0  0  0  0
   29.9780   52.4230   -4.9420 C   0  0  2  0  0  0  0  0  0  0  0  0
   29.2720   51.5450   -5.9680 C   0  0  0  0  0  0  0  0  0  0  0  0
   28.4450   53.5750   -6.9260 C   0  0  0  0  0  0  0  0  0  0  0  0
   30.2250   51.6950   -3.6380 C   0  0  0  0  0  0  0  0  0  0  0  0
   28.5260   52.0990   -6.9360 C   0  0  0  0  0  0  0  0  0  0  0  0
   29.4330   50.1020   -5.8540 C   0  0  0  0  0  0  0  0  0  0  0  0
   30.1650   50.3530   -3.5450 C   0  0  0  0  0  0  0  0  0  0  0  0
   29.8560   49.5380   -4.7050 C   0  0  0  0  0  0  0  0  0  0  0  0
   30.0050   48.0610   -4.6350 C   0  0  0  0  0  0  0  0  0  0  0  0
   30.5700   47.6510   -3.4800 O   0  0  0  0  0  0  0  0  0  0  0  0
   29.6590   47.2970   -5.5170 O   0  0  0  0  0  0  0  0  0  0  0  0
  1  2  2  0
  2  3  1  0
  2  4  1  0
  4  5  1  0
  3  6  2  0
  4  7  1  1
  5  8  2  0
  6  8  1  0
  5  9  1  0
  7 10  2  0
  9 11  2  0
 10 11  1  0
 11 12  1  0
 12 13  1  0
 12 14  2  0
M  END
