mac-x0224-mac-x0328
     RDKit          3D

 20 22  0  0  0  0  0  0  0  0999 V2000
   27.9170   52.1620   -6.5210 C   0  0  0  0  0  0  0  0  0  0  0  0
   27.0500   50.5690   -6.6350 S   0  0  0  0  0  0  0  0  0  0  0  0
   28.0580   49.6440   -5.5020 C   0  0  0  0  0  0  0  0  0  0  0  0
   28.9960   48.7310   -5.9880 C   0  0  0  0  0  0  0  0  0  0  0  0
   27.9070   49.8550   -4.1090 C   0  0  0  0  0  0  0  0  0  0  0  0
   29.7650   48.0730   -5.0640 C   0  0  0  0  0  0  0  0  0  0  0  0
   28.6940   49.1670   -3.1820 C   0  0  0  0  0  0  0  0  0  0  0  0
   30.8610   47.0920   -5.1820 C   0  0  0  0  0  0  0  0  0  0  0  0
   29.6170   48.2930   -3.6920 C   0  0  0  0  0  0  0  0  0  0  0  0
   30.5230   47.5480   -2.9870 O   0  0  0  0  0  0  0  0  0  0  0  0
   31.5670   47.0930   -6.4020 O   0  0  0  0  0  0  0  0  0  0  0  0
   30.3730   45.8000   -4.8770 O   0  0  0  0  0  0  0  0  0  0  0  0
   31.4420   47.9450   -4.0160 C   0  0  2  0  0  0  0  0  0  0  0  0
   31.1030   49.4510   -4.1470 C   0  0  0  0  0  0  0  0  0  0  0  0
   30.9210   50.1230   -5.3770 C   0  0  0  0  0  0  0  0  0  0  0  0
   30.9390   50.2070   -2.9650 C   0  0  0  0  0  0  0  0  0  0  0  0
   30.5810   51.4890   -5.4170 C   0  0  0  0  0  0  0  0  0  0  0  0
   30.6020   51.5640   -3.0080 C   0  0  0  0  0  0  0  0  0  0  0  0
   30.4220   52.1950   -4.2300 C   0  0  0  0  0  0  0  0  0  0  0  0
   30.0880   53.5230   -4.2180 O   0  0  0  0  0  0  0  0  0  0  0  0
  1  2  1  0
  2  3  1  0
  3  4  2  0
  3  5  1  0
  4  6  1  0
  5  7  2  0
  6  8  1  0
  6  9  2  0
  7  9  1  0
  9 10  1  0
  8 11  1  0
  8 12  1  0
  8 13  1  0
 10 13  1  0
 13 14  1  6
 14 15  2  0
 14 16  1  0
 15 17  1  0
 16 18  2  0
 17 19  2  0
 18 19  1  0
 19 20  1  0
M  END
