mac-x0305-mac-x0358
     RDKit          3D

 20 21  0  0  0  0  0  0  0  0999 V2000
   31.5930   47.0600   -6.4780 O   0  0  0  0  0  0  0  0  0  0  0  0
   30.3330   46.9550   -6.0110 C   0  0  0  0  0  0  0  0  0  0  0  0
   29.6500   45.9630   -5.8120 O   0  0  0  0  0  0  0  0  0  0  0  0
   32.5620   46.1710   -6.1050 C   0  0  0  0  0  0  0  0  0  0  0  0
   33.6280   45.9760   -6.6740 O   0  0  0  0  0  0  0  0  0  0  0  0
   32.1690   45.4070   -4.8510 C   0  0  0  0  0  0  0  0  0  0  0  0
   29.8110   48.3350   -5.7370 C   0  0  0  0  0  0  0  0  0  0  0  0
   29.1780   49.0570   -6.7570 C   0  0  0  0  0  0  0  0  0  0  0  0
   29.9840   48.8280   -4.4690 N   0  0  0  0  0  0  0  0  0  0  0  0
   32.1570   46.2320   -3.5800 C   0  0  0  0  0  0  0  0  0  0  0  0
   28.9800   48.6140   -8.0360 O   0  0  0  0  0  0  0  0  0  0  0  0
   28.7060   50.3330   -6.4620 C   0  0  0  0  0  0  0  0  0  0  0  0
   29.5100   50.0720   -4.2290 C   0  0  0  0  0  0  0  0  0  0  0  0
   33.3140   46.8280   -3.0530 C   0  0  0  0  0  0  0  0  0  0  0  0
   30.9470   46.4190   -2.8940 C   0  0  0  0  0  0  0  0  0  0  0  0
   34.5200   46.6770   -3.6780 O   0  0  0  0  0  0  0  0  0  0  0  0
   28.8730   50.8510   -5.1800 C   0  0  0  0  0  0  0  0  0  0  0  0
   33.2750   47.5810   -1.8820 C   0  0  0  0  0  0  0  0  0  0  0  0
   30.9030   47.1740   -1.7200 C   0  0  0  0  0  0  0  0  0  0  0  0
   32.0640   47.7560   -1.2150 C   0  0  0  0  0  0  0  0  0  0  0  0
  1  2  1  0
  2  3  2  0
  1  4  1  0
  4  5  2  0
  4  6  1  0
  2  7  1  0
  7  8  2  0
  7  9  1  0
  6 10  1  0
  8 11  1  0
  8 12  1  0
  9 13  2  0
 10 14  2  0
 10 15  1  0
 14 16  1  0
 12 17  2  0
 13 17  1  0
 14 18  1  0
 15 19  2  0
 18 20  2  0
 19 20  1  0
M  END
