mac-x0439-mac-x0373
     RDKit          3D

 28 31  0  0  0  0  0  0  0  0999 V2000
   30.5280   47.1930   -1.4300 Cl  0  0  0  0  0  0  0  0  0  0  0  0
   29.4410   45.8940   -1.7590 C   0  0  0  0  0  0  0  0  0  0  0  0
   28.9910   45.6690   -3.1570 C   0  0  1  0  0  0  0  0  0  0  0  0
   28.9890   45.0850   -0.7900 C   0  0  0  0  0  0  0  0  0  0  0  0
   29.8930   45.8450   -4.2980 C   0  0  0  0  0  0  0  0  0  0  0  0
   28.7970   44.1790   -3.3480 C   0  0  0  0  0  0  0  0  0  0  0  0
   28.0730   43.9930   -1.1120 C   0  0  0  0  0  0  0  0  0  0  0  0
   30.0670   44.6830   -4.9370 C   0  0  0  0  0  0  0  0  0  0  0  0
   29.3970   43.6220   -4.3670 N   0  0  0  0  0  0  0  0  0  0  0  0
   27.9440   43.5050   -2.3610 C   0  0  0  0  0  0  0  0  0  0  0  0
   30.9140   44.6110   -6.1480 C   0  0  0  0  0  0  0  0  0  0  0  0
   31.4600   43.4070   -6.4000 O   0  0  0  0  0  0  0  0  0  0  0  0
   31.1560   45.5770   -6.9400 N   0  0  0  0  0  0  0  0  0  0  0  0
   30.4410   46.6790   -6.4860 C   0  0  0  0  0  0  0  0  0  0  0  0
   29.2140   46.6290   -6.5180 O   0  0  0  0  0  0  0  0  0  0  0  0
   31.1950   47.9300   -5.9510 C   0  0  0  0  0  0  0  0  0  0  0  0
   32.3400   47.7890   -4.9360 C   0  0  0  0  0  0  0  0  0  0  0  0
   30.2210   49.0300   -5.5110 C   0  0  0  0  0  0  0  0  0  0  0  0
   32.6190   46.5900   -4.2500 C   0  0  0  0  0  0  0  0  0  0  0  0
   33.1490   48.9020   -4.6770 C   0  0  0  0  0  0  0  0  0  0  0  0
   30.0760   49.4530   -4.1780 C   0  0  0  0  0  0  0  0  0  0  0  0
   29.4390   49.6460   -6.4960 C   0  0  0  0  0  0  0  0  0  0  0  0
   33.6810   46.5260   -3.3380 C   0  0  0  0  0  0  0  0  0  0  0  0
   34.2050   48.8360   -3.7700 C   0  0  0  0  0  0  0  0  0  0  0  0
   29.1700   50.4700   -3.8490 C   0  0  0  0  0  0  0  0  0  0  0  0
   28.5360   50.6580   -6.1670 C   0  0  0  0  0  0  0  0  0  0  0  0
   34.4710   47.6460   -3.1010 C   0  0  0  0  0  0  0  0  0  0  0  0
   28.4040   51.0680   -4.8450 C   0  0  0  0  0  0  0  0  0  0  0  0
  1  2  1  0
  2  3  1  0
  2  4  2  0
  3  5  1  6
  3  6  1  0
  4  7  1  0
  5  8  2  0
  6  9  2  0
  8  9  1  0
  6 10  1  0
  7 10  2  0
  8 11  1  0
 11 12  1  0
 11 13  2  3
 13 14  1  0
 14 15  2  0
 14 16  1  0
 16 17  1  0
 16 18  1  0
 17 19  2  0
 17 20  1  0
 18 21  2  0
 18 22  1  0
 19 23  1  0
 20 24  2  0
 21 25  1  0
 22 26  2  0
 23 27  2  0
 24 27  1  0
 25 28  2  0
 26 28  1  0
M  END
