mac-x0587-mac-x1493
     RDKit          3D

 25 27  0  0  0  0  0  0  0  0999 V2000
   29.3790   45.8950   -2.9430 C   0  0  0  0  0  0  0  0  0  0  0  0
   30.3360   46.5930   -3.8990 C   0  0  2  0  0  0  0  0  0  0  0  0
   32.0710   46.0830   -3.5740 S   0  0  0  0  0  0  0  0  0  0  0  0
   30.1190   48.1220   -3.9950 C   0  0  0  0  0  0  0  0  0  0  0  0
   32.9660   46.8050   -4.9950 C   0  0  0  0  0  0  0  0  0  0  0  0
   29.8060   49.0140   -3.1060 N   0  0  0  0  0  0  0  0  0  0  0  0
   30.2910   48.6130   -5.2840 N   0  0  0  0  0  0  0  0  0  0  0  0
   33.2350   45.8140   -6.1050 C   0  0  0  0  0  0  0  0  0  0  0  0
   31.0080   49.8510   -5.5660 C   0  0  0  0  0  0  0  0  0  0  0  0
   29.3720   48.4010   -6.3230 C   0  0  0  0  0  0  0  0  0  0  0  0
   29.6910   50.3630   -3.4860 C   0  0  0  0  0  0  0  0  0  0  0  0
   34.3160   45.5590   -6.6080 O   0  0  0  0  0  0  0  0  0  0  0  0
   32.1120   45.1960   -6.5250 O   0  0  0  0  0  0  0  0  0  0  0  0
   28.8250   47.3560   -6.6440 O   0  0  0  0  0  0  0  0  0  0  0  0
   30.2730   50.4760   -6.7410 C   0  0  0  0  0  0  0  0  0  0  0  0
   29.1600   49.6060   -6.9760 N   0  0  0  0  0  0  0  0  0  0  0  0
   28.9290   50.7550   -4.5950 C   0  0  0  0  0  0  0  0  0  0  0  0
   30.3330   51.3820   -2.7970 C   0  0  0  0  0  0  0  0  0  0  0  0
   28.8480   52.1110   -4.9730 C   0  0  0  0  0  0  0  0  0  0  0  0
   30.2750   52.6970   -3.1230 N   0  0  0  0  0  0  0  0  0  0  0  0
   29.5490   53.0510   -4.1940 C   0  0  0  0  0  0  0  0  0  0  0  0
   28.1000   52.5400   -6.0920 C   0  0  0  0  0  0  0  0  0  0  0  0
   29.4810   54.3910   -4.5550 C   0  0  0  0  0  0  0  0  0  0  0  0
   28.0520   53.8930   -6.4310 C   0  0  0  0  0  0  0  0  0  0  0  0
   28.7420   54.8190   -5.6620 C   0  0  0  0  0  0  0  0  0  0  0  0
  2  1  1  1
  2  3  1  0
  2  4  1  0
  3  5  1  0
  4  6  2  3
  4  7  1  0
  5  8  1  0
  7  9  1  0
  7 10  1  0
  6 11  1  0
  8 12  2  0
  8 13  1  0
 10 14  2  0
  9 15  1  0
 10 16  1  0
 15 16  1  0
 11 17  2  0
 11 18  1  0
 17 19  1  0
 18 20  2  0
 19 21  2  0
 20 21  1  0
 19 22  1  0
 21 23  1  0
 22 24  2  0
 23 25  2  0
 24 25  1  0
M  END
