mac-x0190-mac-x0271
     RDKit          3D

 12 13  0  0  0  0  0  0  0  0999 V2000
   28.4980   56.7950   -5.5150 O   0  0  0  0  0  0  0  0  0  0  0  0
   29.6880   56.2530   -4.9610 C   0  0  0  0  0  0  0  0  0  0  0  0
   29.5390   54.7770   -4.9620 C   0  0  0  0  0  0  0  0  0  0  0  0
   29.8830   54.0350   -3.8640 N   0  0  0  0  0  0  0  0  0  0  0  0
   29.0930   54.0050   -5.9370 N   0  0  0  0  0  0  0  0  0  0  0  0
   29.6500   52.7190   -4.1460 C   0  0  0  0  0  0  0  0  0  0  0  0
   29.1560   52.7220   -5.4460 C   0  0  0  0  0  0  0  0  0  0  0  0
   29.8300   51.5630   -3.3910 C   0  0  0  0  0  0  0  0  0  0  0  0
   28.8120   51.5010   -6.0490 C   0  0  0  0  0  0  0  0  0  0  0  0
   29.4850   50.3650   -4.0110 C   0  0  0  0  0  0  0  0  0  0  0  0
   28.9830   50.3180   -5.3130 C   0  0  0  0  0  0  0  0  0  0  0  0
   29.6420   49.1870   -3.3390 O   0  0  0  0  0  0  0  0  0  0  0  0
  1  2  1  0
  2  3  1  0
  3  4  1  0
  3  5  2  0
  4  6  1  0
  5  7  1  0
  6  7  2  0
  6  8  1  0
  7  9  1  0
  8 10  2  0
  9 11  2  0
 10 11  1  0
 10 12  1  0
M  END
