mac-x0223-mac-x0357
     RDKit          3D

 21 22  0  0  0  0  0  0  0  0999 V2000
   27.5150   43.6450   -2.1450 C   0  0  0  0  0  0  0  0  0  0  0  0
   27.5690   45.0320   -1.8400 O   0  0  0  0  0  0  0  0  0  0  0  0
   28.6690   45.7240   -2.2710 C   0  0  0  0  0  0  0  0  0  0  0  0
   28.9130   46.9570   -1.6520 C   0  0  0  0  0  0  0  0  0  0  0  0
   29.5470   45.2890   -3.2680 C   0  0  0  0  0  0  0  0  0  0  0  0
   28.0590   47.3960   -0.6750 O   0  0  0  0  0  0  0  0  0  0  0  0
   30.0030   47.7430   -2.0110 C   0  0  0  0  0  0  0  0  0  0  0  0
   30.6530   46.0720   -3.6440 C   0  0  0  0  0  0  0  0  0  0  0  0
   31.6200   45.6140   -4.7290 C   0  0  1  0  0  0  0  0  0  0  0  0
   30.8710   47.2990   -3.0050 C   0  0  0  0  0  0  0  0  0  0  0  0
   31.4970   46.4640   -6.0260 C   0  0  0  0  0  0  0  0  0  0  0  0
   33.0070   45.5010   -4.1430 C   0  0  0  0  0  0  0  0  0  0  0  0
   32.6840   47.1050   -6.4120 O   0  0  0  0  0  0  0  0  0  0  0  0
   31.0920   45.6870   -7.1240 O   0  0  0  0  0  0  0  0  0  0  0  0
   30.5100   47.4550   -5.9220 O   0  0  0  0  0  0  0  0  0  0  0  0
   33.4710   44.2230   -3.8220 C   0  0  0  0  0  0  0  0  0  0  0  0
   33.8330   46.6070   -3.9080 C   0  0  0  0  0  0  0  0  0  0  0  0
   35.1010   46.4330   -3.3560 C   0  0  0  0  0  0  0  0  0  0  0  0
   34.7310   44.0620   -3.2750 C   0  0  0  0  0  0  0  0  0  0  0  0
   35.1960   42.8230   -2.9540 O   0  0  0  0  0  0  0  0  0  0  0  0
   35.5520   45.1540   -3.0370 C   0  0  0  0  0  0  0  0  0  0  0  0
  1  2  1  0
  2  3  1  0
  3  4  2  0
  3  5  1  0
  4  6  1  0
  4  7  1  0
  5  8  2  0
  8  9  1  0
  7 10  2  0
  8 10  1  0
  9 11  1  6
  9 12  1  0
 11 13  1  0
 11 14  1  0
 11 15  1  0
 12 16  2  0
 12 17  1  0
 17 18  2  0
 16 19  1  0
 19 20  1  0
 18 21  1  0
 19 21  2  0
M  END
