mac-x0123-mac-x0510
     RDKit          3D

 23 27  0  0  0  0  0  0  0  0999 V2000
   32.0670   52.9610   -7.0880 N   0  0  0  0  0  0  0  0  0  0  0  0
   31.8760   53.3410   -5.6950 C   0  0  1  0  0  0  0  0  0  0  0  0
   31.3380   54.7930   -5.5590 C   0  0  2  0  0  0  0  0  0  0  0  0
   30.9960   52.3940   -4.9930 N   0  0  0  0  0  0  0  0  0  0  0  0
   29.8350   53.0210   -4.3600 C   0  0  2  0  0  0  0  0  0  0  0  0
   30.9860   55.0830   -4.0730 C   0  0  2  0  0  0  0  0  0  0  0  0
   30.0710   55.2520   -6.2190 C   0  0  0  0  0  0  0  0  0  0  0  0
   30.4120   51.2960   -5.7120 N   0  0  0  0  0  0  0  0  0  0  0  0
   30.3180   53.9690   -3.3700 N   0  0  0  0  0  0  0  0  0  0  0  0
   30.2410   56.4170   -4.1740 C   0  0  0  0  0  0  0  0  0  0  0  0
   29.4620   56.1650   -5.4380 C   0  0  0  0  0  0  0  0  0  0  0  0
   28.9510   51.9150   -4.0210 N   0  0  0  0  0  0  0  0  0  0  0  0
   29.1800   51.0000   -5.0760 C   0  0  0  0  0  0  0  0  0  0  0  0
   28.3420   49.9890   -5.4250 C   0  0  0  0  0  0  0  0  0  0  0  0
   28.5470   49.0660   -6.4690 C   0  0  0  0  0  0  0  0  0  0  0  0
   27.1400   49.7310   -4.7810 N   0  0  0  0  0  0  0  0  0  0  0  0
   26.0760   49.0230   -5.3280 C   0  0  0  0  0  0  0  0  0  0  0  0
   27.5690   48.2820   -7.0060 C   0  0  0  0  0  0  0  0  0  0  0  0
   29.6790   48.7450   -7.1540 N   0  0  0  0  0  0  0  0  0  0  0  0
   24.9860   48.9880   -4.7560 O   0  0  0  0  0  0  0  0  0  0  0  0
   26.2980   48.3720   -6.5230 N   0  0  0  0  0  0  0  0  0  0  0  0
   28.0310   47.4830   -7.9980 N   0  0  0  0  0  0  0  0  0  0  0  0
   29.3160   47.7820   -8.0690 C   0  0  0  0  0  0  0  0  0  0  0  0
  2  1  1  6
  2  3  1  0
  2  4  1  0
  4  5  1  0
  3  6  1  0
  3  7  1  6
  4  8  1  0
  5  9  1  1
  6  9  1  0
  6 10  1  6
  7 11  2  0
 10 11  1  0
  5 12  1  0
  8 13  1  0
 12 13  1  0
 13 14  2  3
 14 15  1  0
 14 16  1  0
 16 17  1  0
 15 18  2  0
 15 19  1  0
 17 20  2  0
 17 21  1  0
 18 21  1  0
 18 22  1  0
 19 23  1  0
 22 23  2  0
M  END
