mac-x0137-mac-x0231
     RDKit          3D

 30 34  0  0  0  0  0  0  0  0999 V2000
   30.8690   49.5050   -3.5200 F   0  0  0  0  0  0  0  0  0  0  0  0
   30.4950   48.1870   -3.5310 C   0  0  2  0  0  0  0  0  0  0  0  0
   31.7300   47.2800   -3.7910 C   0  0  2  0  0  0  0  0  0  0  0  0
   29.4440   48.0010   -4.6090 C   0  0  0  0  0  0  0  0  0  0  0  0
   29.9840   48.3650   -5.9200 N   0  0  0  0  0  0  0  0  0  0  0  0
   32.3170   47.7100   -5.1510 C   0  0  0  0  0  0  0  0  0  0  0  0
   31.2830   45.7850   -3.6500 C   0  0  0  0  0  0  0  0  0  0  0  0
   32.6160   47.6080   -2.5740 C   0  0  0  0  0  0  0  0  0  0  0  0
   31.2540   47.6840   -6.2790 C   0  0  0  0  0  0  0  0  0  0  0  0
   29.1570   48.9690   -6.8590 C   0  0  0  0  0  0  0  0  0  0  0  0
   31.2810   44.6480   -4.4080 C   0  0  0  0  0  0  0  0  0  0  0  0
   30.7140   45.5580   -2.3410 C   0  0  0  0  0  0  0  0  0  0  0  0
   32.3330   47.0710   -1.3720 C   0  0  0  0  0  0  0  0  0  0  0  0
   31.7670   44.3560   -5.8200 C   0  0  0  0  0  0  0  0  0  0  0  0
   28.8910   48.3330   -8.0580 N   0  0  0  0  0  0  0  0  0  0  0  0
   28.5590   50.1650   -6.7090 C   0  0  0  0  0  0  0  0  0  0  0  0
   29.5770   44.6050   -2.2660 C   0  0  0  0  0  0  0  0  0  0  0  0
   30.7400   43.4900   -3.8660 N   0  0  0  0  0  0  0  0  0  0  0  0
   31.2020   46.1730   -1.2410 C   0  0  0  0  0  0  0  0  0  0  0  0
   32.9460   45.1640   -6.3020 C   0  0  0  0  0  0  0  0  0  0  0  0
   28.5770   44.8110   -1.5840 O   0  0  0  0  0  0  0  0  0  0  0  0
   28.0800   48.8720   -9.0140 C   0  0  0  0  0  0  0  0  0  0  0  0
   27.6930   50.6960   -7.7900 C   0  0  0  0  0  0  0  0  0  0  0  0
   28.4920   51.1980   -5.7210 C   0  0  0  0  0  0  0  0  0  0  0  0
   29.7850   43.4910   -3.0480 N   0  0  0  0  0  0  0  0  0  0  0  0
   34.0940   44.9540   -5.6300 O   0  0  0  0  0  0  0  0  0  0  0  0
   32.9160   45.9500   -7.2360 O   0  0  0  0  0  0  0  0  0  0  0  0
   27.4720   50.0060   -8.9430 N   0  0  0  0  0  0  0  0  0  0  0  0
   27.1890   51.8660   -7.5030 N   0  0  0  0  0  0  0  0  0  0  0  0
   27.6920   52.1420   -6.2420 C   0  0  0  0  0  0  0  0  0  0  0  0
  2  1  1  6
  2  3  1  0
  2  4  1  0
  4  5  1  0
  3  6  1  6
  3  7  1  0
  3  8  1  0
  5  9  1  0
  6  9  1  0
  5 10  1  0
  7 11  2  0
  7 12  1  0
  8 13  2  0
 11 14  1  0
 10 15  1  0
 10 16  2  0
 12 17  1  0
 11 18  1  0
 12 19  2  0
 13 19  1  0
 14 20  1  0
 17 21  2  0
 15 22  1  0
 16 23  1  0
 16 24  1  0
 17 25  1  0
 18 25  2  0
 20 26  1  0
 20 27  2  0
 22 28  2  0
 23 28  1  0
 23 29  2  0
 24 30  2  0
 29 30  1  0
M  END
