mac-x0441-mac-x0576
     RDKit          3D

 32 35  0  0  0  0  0  0  0  0999 V2000
   34.0980   45.2840   -6.1190 O   0  0  0  0  0  0  0  0  0  0  0  0
   32.9090   45.2590   -5.4690 C   0  0  0  0  0  0  0  0  0  0  0  0
   31.7550   45.1810   -6.0150 N   0  0  0  0  0  0  0  0  0  0  0  0
   32.9190   45.3340   -3.9770 C   0  0  0  0  0  0  0  0  0  0  0  0
   30.6970   45.1780   -4.9800 C   0  0  0  0  0  0  0  0  0  0  0  0
   34.1940   45.0250   -3.3920 N   0  0  0  0  0  0  0  0  0  0  0  0
   29.4110   45.8460   -5.4810 C   0  0  0  0  0  0  0  0  0  0  0  0
   34.3950   43.7830   -2.9020 N   0  0  0  0  0  0  0  0  0  0  0  0
   35.2570   45.8420   -3.2470 C   0  0  0  0  0  0  0  0  0  0  0  0
   29.2700   47.2240   -4.9690 N   0  0  0  0  0  0  0  0  0  0  0  0
   35.6520   43.8200   -2.4130 C   0  0  0  0  0  0  0  0  0  0  0  0
   36.2290   45.1060   -2.6160 C   0  0  0  0  0  0  0  0  0  0  0  0
   35.3620   47.2590   -3.6740 C   0  0  0  0  0  0  0  0  0  0  0  0
   36.2980   42.6330   -1.7520 C   0  0  0  0  0  0  0  0  0  0  0  0
   37.5670   45.6640   -2.2670 C   0  0  0  0  0  0  0  0  0  0  0  0
   36.4650   47.9270   -2.8380 C   0  0  0  0  0  0  0  0  0  0  0  0
   29.2780   48.1680   -5.8400 C   0  0  0  0  0  0  0  0  0  0  0  0
   37.3750   42.1490   -2.4220 F   0  0  0  0  0  0  0  0  0  0  0  0
   36.7280   42.9530   -0.4980 F   0  0  0  0  0  0  0  0  0  0  0  0
   35.4230   41.6020   -1.6000 F   0  0  0  0  0  0  0  0  0  0  0  0
   37.7600   47.0910   -2.8320 C   0  0  0  0  0  0  0  0  0  0  0  0
   29.4640   47.7280   -7.0990 N   0  0  0  0  0  0  0  0  0  0  0  0
   29.0880   49.6840   -5.6870 C   0  0  2  0  0  0  0  0  0  0  0  0
   28.8210   48.3600   -8.1720 C   0  0  2  0  0  0  0  0  0  0  0  0
   29.4920   50.3440   -7.0370 C   0  0  1  0  0  0  0  0  0  0  0  0
   29.8670   50.3280   -4.6130 N   0  0  0  0  0  0  0  0  0  0  0  0
   29.2190   47.9330   -9.4790 N   0  0  0  0  0  0  0  0  0  0  0  0
   28.8710   49.8050   -8.2490 N   0  0  0  0  0  0  0  0  0  0  0  0
   29.1140   51.7270   -7.0300 N   0  0  0  0  0  0  0  0  0  0  0  0
   29.4480   51.7500   -4.5230 C   0  0  0  0  0  0  0  0  0  0  0  0
   29.1590   52.4650   -5.8640 C   0  0  0  0  0  0  0  0  0  0  0  0
   28.9660   53.6780   -5.9170 O   0  0  0  0  0  0  0  0  0  0  0  0
  1  2  1  0
  2  3  2  3
  2  4  1  0
  3  5  1  0
  4  6  1  0
  5  7  1  0
  6  8  1  0
  6  9  1  0
  7 10  1  0
  8 11  2  0
  9 12  2  0
 11 12  1  0
  9 13  1  0
 11 14  1  0
 12 15  1  0
 13 16  1  0
 10 17  2  3
 14 18  1  0
 14 19  1  0
 14 20  1  0
 15 21  1  0
 16 21  1  0
 17 22  1  0
 17 23  1  0
 22 24  1  0
 23 25  1  0
 23 26  1  1
 24 27  1  6
 24 28  1  0
 25 28  1  6
 25 29  1  0
 26 30  1  0
 29 31  1  0
 30 31  1  0
 31 32  2  0
M  END
