mac-x0116-mac-x0212
     RDKit          3D

 23 25  0  0  0  0  0  0  0  0999 V2000
   29.1790   53.4410   -6.6250 C   0  0  1  0  0  0  0  0  0  0  0  0
   28.6120   52.1760   -6.1030 N   0  0  0  0  0  0  0  0  0  0  0  0
   29.2880   51.0020   -5.8130 C   0  0  0  0  0  0  0  0  0  0  0  0
   28.9560   54.9240   -5.5430 S   0  0  0  0  0  0  0  0  0  0  0  0
   30.6430   53.3610   -6.9770 C   0  0  0  0  0  0  0  0  0  0  0  0
   30.5480   55.7090   -5.5590 C   0  0  0  0  0  0  0  0  0  0  0  0
   28.0330   55.8550   -6.1750 O   0  0  0  0  0  0  0  0  0  0  0  0
   28.7230   54.5080   -4.1690 O   0  0  0  0  0  0  0  0  0  0  0  0
   31.5340   53.4810   -5.9460 O   0  0  0  0  0  0  0  0  0  0  0  0
   31.3320   53.1880   -8.1630 C   0  0  0  0  0  0  0  0  0  0  0  0
   32.7090   53.2030   -7.8400 C   0  0  0  0  0  0  0  0  0  0  0  0
   32.7800   53.3830   -6.4770 C   0  0  0  0  0  0  0  0  0  0  0  0
   29.9870   50.8630   -4.6260 N   0  0  0  0  0  0  0  0  0  0  0  0
   29.2570   49.9820   -6.6890 C   0  0  0  0  0  0  0  0  0  0  0  0
   30.6010   49.7420   -4.3820 C   0  0  0  0  0  0  0  0  0  0  0  0
   29.9610   48.7560   -6.3690 C   0  0  0  0  0  0  0  0  0  0  0  0
   28.6680   49.8100   -7.9150 N   0  0  0  0  0  0  0  0  0  0  0  0
   30.6370   48.6350   -5.2010 N   0  0  0  0  0  0  0  0  0  0  0  0
   29.8150   47.8950   -7.3400 N   0  0  0  0  0  0  0  0  0  0  0  0
   29.0190   48.6010   -8.2460 C   0  0  0  0  0  0  0  0  0  0  0  0
   31.2080   47.4590   -4.7330 C   0  0  0  0  0  0  0  0  0  0  0  0
   32.0870   46.8340   -5.3160 O   0  0  0  0  0  0  0  0  0  0  0  0
   30.7340   47.0060   -3.5400 O   0  0  0  0  0  0  0  0  0  0  0  0
  1  2  1  1
  2  3  1  0
  1  4  1  0
  1  5  1  0
  4  6  1  0
  4  7  2  0
  4  8  2  0
  5  9  1  0
  5 10  2  0
 10 11  1  0
  9 12  1  0
 11 12  2  0
  3 13  1  0
  3 14  2  0
 13 15  2  0
 14 16  1  0
 14 17  1  0
 15 18  1  0
 16 18  1  0
 16 19  2  0
 17 20  2  0
 19 20  1  0
 18 21  1  0
 21 22  2  0
 21 23  1  0
M  END
