mac-x0161-mac-x0319
     RDKit          3D

 29 32  0  0  0  0  0  0  0  0999 V2000
   27.5810   52.4900   -5.3490 N   0  0  0  0  0  0  0  0  0  0  0  0
   28.6430   51.5060   -5.2880 C   0  0  2  0  0  0  0  0  0  0  0  0
   28.5460   50.4740   -6.4150 C   0  0  1  0  0  0  0  0  0  0  0  0
   28.4750   50.8910   -3.9970 N   0  0  0  0  0  0  0  0  0  0  0  0
   29.5500   49.9270   -3.8050 C   0  0  0  0  0  0  0  0  0  0  0  0
   29.0410   49.0630   -6.0040 C   0  0  1  0  0  0  0  0  0  0  0  0
   27.1870   50.2450   -6.9760 N   0  0  0  0  0  0  0  0  0  0  0  0
   29.2600   48.7210   -4.5800 N   0  0  0  0  0  0  0  0  0  0  0  0
   27.9710   48.1890   -6.4880 N   0  0  0  0  0  0  0  0  0  0  0  0
   27.3180   48.9220   -7.5410 C   0  0  0  0  0  0  0  0  0  0  0  0
   30.4540   47.8010   -4.6330 C   0  0  1  0  0  0  0  0  0  0  0  0
   31.7870   48.1990   -4.0830 C   0  0  0  0  0  0  0  0  0  0  0  0
   30.3340   46.3520   -4.2240 C   0  0  0  0  0  0  0  0  0  0  0  0
   32.3800   48.2480   -2.8460 C   0  0  0  0  0  0  0  0  0  0  0  0
   32.6810   48.6050   -5.0280 O   0  0  0  0  0  0  0  0  0  0  0  0
   29.3350   45.7620   -3.4360 C   0  0  0  0  0  0  0  0  0  0  0  0
   31.3660   45.5700   -4.7230 C   0  0  0  0  0  0  0  0  0  0  0  0
   33.8790   48.9230   -4.4240 N   0  0  0  0  0  0  0  0  0  0  0  0
   33.6760   48.7000   -3.1260 C   0  0  0  0  0  0  0  0  0  0  0  0
   31.4540   44.2180   -4.4780 C   0  0  0  0  0  0  0  0  0  0  0  0
   29.4140   44.3900   -3.1810 C   0  0  0  0  0  0  0  0  0  0  0  0
   34.6490   48.8990   -2.2140 O   0  0  0  0  0  0  0  0  0  0  0  0
   32.6170   43.4730   -5.0810 C   0  0  0  0  0  0  0  0  0  0  0  0
   28.4720   43.7550   -2.4270 O   0  0  0  0  0  0  0  0  0  0  0  0
   30.4610   43.6160   -3.6930 C   0  0  0  0  0  0  0  0  0  0  0  0
   35.3190   47.7100   -1.8210 C   0  0  0  0  0  0  0  0  0  0  0  0
   33.1400   44.1520   -6.3340 C   0  0  0  0  0  0  0  0  0  0  0  0
   34.4760   44.3630   -6.2910 O   0  0  0  0  0  0  0  0  0  0  0  0
   32.5120   44.5100   -7.3180 O   0  0  0  0  0  0  0  0  0  0  0  0
  2  1  1  6
  2  3  1  0
  2  4  1  0
  4  5  1  0
  3  6  1  0
  3  7  1  1
  5  8  1  0
  6  8  1  0
  6  9  1  1
  7 10  1  0
  9 10  1  0
  8 11  1  0
 11 12  1  1
 11 13  1  0
 12 14  2  0
 12 15  1  0
 13 16  2  0
 13 17  1  0
 15 18  1  0
 14 19  1  0
 18 19  2  0
 17 20  2  0
 16 21  1  0
 19 22  1  0
 20 23  1  0
 21 24  1  0
 20 25  1  0
 21 25  2  0
 22 26  1  0
 23 27  1  0
 27 28  1  0
 27 29  2  0
M  END
