mac-x0124-mac-x0188
     RDKit          3D

 18 20  0  0  0  0  0  0  0  0999 V2000
   29.4880   45.5770   -5.6780 C   0  0  0  0  0  0  0  0  0  0  0  0
   30.3120   44.8750   -6.4790 O   0  0  0  0  0  0  0  0  0  0  0  0
   28.6280   44.9650   -5.0540 O   0  0  0  0  0  0  0  0  0  0  0  0
   29.6890   46.9340   -5.6350 N   0  0  0  0  0  0  0  0  0  0  0  0
   30.5440   47.6140   -4.6520 C   0  0  1  0  0  0  0  0  0  0  0  0
   29.1560   47.9030   -6.5050 C   0  0  0  0  0  0  0  0  0  0  0  0
   30.1410   49.1160   -4.7150 C   0  0  0  0  0  0  0  0  0  0  0  0
   29.4000   49.1610   -6.0030 C   0  0  0  0  0  0  0  0  0  0  0  0
   28.5060   47.6880   -7.6500 N   0  0  0  0  0  0  0  0  0  0  0  0
   30.3140   47.1020   -3.2960 N   0  0  0  0  0  0  0  0  0  0  0  0
   32.0420   47.4240   -4.9060 C   0  0  0  0  0  0  0  0  0  0  0  0
   28.9500   50.2340   -6.7250 C   0  0  0  0  0  0  0  0  0  0  0  0
   28.1040   48.7990   -8.2850 C   0  0  0  0  0  0  0  0  0  0  0  0
   32.6230   47.0940   -3.5430 C   0  0  1  0  0  0  0  0  0  0  0  0
   31.5780   47.3150   -2.5940 O   0  0  0  0  0  0  0  0  0  0  0  0
   29.1490   51.5430   -6.2970 N   0  0  0  0  0  0  0  0  0  0  0  0
   33.1070   45.6600   -3.4360 C   0  0  0  0  0  0  0  0  0  0  0  0
   28.2920   50.0700   -7.8790 N   0  0  0  0  0  0  0  0  0  0  0  0
  1  2  1  0
  1  3  2  0
  1  4  1  0
  5  4  1  0
  4  6  1  0
  5  7  1  1
  6  8  2  0
  7  8  1  0
  6  9  1  0
  5 10  1  0
  5 11  1  0
  8 12  1  0
  9 13  2  0
 11 14  1  0
 10 15  1  0
 14 15  1  0
 12 16  1  0
 14 17  1  6
 12 18  2  0
 13 18  1  0
M  END
