mac-x0338-mac-x0182
     RDKit          3D

 23 25  0  0  0  0  0  0  0  0999 V2000
   28.3190   51.8990   -7.5430 N   0  0  0  0  0  0  0  0  0  0  0  0
   28.7250   52.4660   -6.3610 C   0  0  0  0  0  0  0  0  0  0  0  0
   28.5610   53.6590   -6.1250 O   0  0  0  0  0  0  0  0  0  0  0  0
   29.3930   51.5440   -5.3970 C   0  0  0  0  0  0  0  0  0  0  0  0
   29.5210   50.2370   -5.7680 N   0  0  0  0  0  0  0  0  0  0  0  0
   29.8580   52.0240   -4.1810 C   0  0  0  0  0  0  0  0  0  0  0  0
   30.1520   49.4470   -4.8680 C   0  0  0  0  0  0  0  0  0  0  0  0
   30.4880   51.2170   -3.2830 N   0  0  0  0  0  0  0  0  0  0  0  0
   30.6360   49.9140   -3.6510 C   0  0  0  0  0  0  0  0  0  0  0  0
   31.3530   48.9840   -2.7070 C   0  0  0  0  0  0  0  0  0  0  0  0
   32.7610   48.6610   -3.2450 C   0  0  0  0  0  0  0  0  0  0  0  0
   32.8450   47.2190   -3.5870 N   0  0  0  0  0  0  0  0  0  0  0  0
   34.0220   46.6600   -4.4080 S   0  0  2  0  0  0  0  0  0  0  0  0
   34.3410   46.8750   -5.7940 O   0  0  0  0  0  0  0  0  0  0  0  0
   33.7630   45.0070   -4.2690 N   0  0  0  0  0  0  0  0  0  0  0  0
   35.4860   46.6590   -3.4750 C   0  0  0  0  0  0  0  0  0  0  0  0
   34.5370   44.4720   -3.2690 C   0  0  0  0  0  0  0  0  0  0  0  0
   35.6450   45.3980   -2.9070 C   0  0  0  0  0  0  0  0  0  0  0  0
   36.3920   47.6900   -3.2840 C   0  0  0  0  0  0  0  0  0  0  0  0
   34.3620   43.3890   -2.7360 O   0  0  0  0  0  0  0  0  0  0  0  0
   37.5030   47.4170   -2.4800 C   0  0  0  0  0  0  0  0  0  0  0  0
   36.7420   45.1220   -2.1090 C   0  0  0  0  0  0  0  0  0  0  0  0
   37.6790   46.1460   -1.8960 C   0  0  0  0  0  0  0  0  0  0  0  0
  1  2  1  0
  2  3  2  0
  2  4  1  0
  4  5  2  0
  4  6  1  0
  5  7  1  0
  6  8  2  0
  7  9  2  0
  8  9  1  0
  9 10  1  0
 10 11  1  0
 11 12  1  0
 12 13  2  0
 13 14  2  0
 13 15  1  6
 13 16  1  0
 15 17  1  0
 16 18  2  0
 17 18  1  0
 16 19  1  0
 17 20  2  0
 19 21  2  0
 18 22  1  0
 21 23  1  0
 22 23  2  0
M  END
