mac-x0439-mac-x0301
     RDKit          3D

 24 27  0  0  0  0  0  0  0  0999 V2000
   30.7190   47.0550   -3.0120 N   0  0  0  0  0  0  0  0  0  0  0  0
   30.9760   47.7110   -4.2810 C   0  0  2  0  0  0  0  0  0  0  0  0
   32.2450   48.3000   -4.1770 O   0  0  0  0  0  0  0  0  0  0  0  0
   29.8950   45.9520   -2.7470 C   0  0  0  0  0  0  0  0  0  0  0  0
   30.2900   44.5140   -3.0590 C   0  0  2  0  0  0  0  0  0  0  0  0
   28.6770   46.1290   -2.1770 C   0  0  0  0  0  0  0  0  0  0  0  0
   29.8910   48.6590   -4.7140 C   0  0  0  0  0  0  0  0  0  0  0  0
   31.0090   44.1310   -4.3090 C   0  0  0  0  0  0  0  0  0  0  0  0
   29.0150   43.7510   -3.4040 C   0  0  0  0  0  0  0  0  0  0  0  0
   27.7760   45.0260   -1.8730 C   0  0  0  0  0  0  0  0  0  0  0  0
   29.5650   48.8160   -6.0550 C   0  0  0  0  0  0  0  0  0  0  0  0
   29.1560   49.4360   -3.7990 C   0  0  0  0  0  0  0  0  0  0  0  0
   30.2340   43.3400   -5.0650 C   0  0  0  0  0  0  0  0  0  0  0  0
   28.9960   43.0870   -4.5200 N   0  0  0  0  0  0  0  0  0  0  0  0
   27.9000   43.8240   -2.4540 C   0  0  0  0  0  0  0  0  0  0  0  0
   28.5770   49.6810   -6.4750 C   0  0  0  0  0  0  0  0  0  0  0  0
   28.1470   50.3190   -4.2310 C   0  0  0  0  0  0  0  0  0  0  0  0
   30.1460   48.1690   -7.1070 O   0  0  0  0  0  0  0  0  0  0  0  0
   30.7010   42.7990   -6.3700 C   0  0  0  0  0  0  0  0  0  0  0  0
   27.8500   50.4460   -5.5890 C   0  0  0  0  0  0  0  0  0  0  0  0
   28.4190   49.6790   -7.8260 O   0  0  0  0  0  0  0  0  0  0  0  0
   29.2960   48.5990   -8.1910 C   0  0  0  0  0  0  0  0  0  0  0  0
   29.6920   42.3830   -7.1560 O   0  0  0  0  0  0  0  0  0  0  0  0
   31.8610   42.7170   -6.7420 O   0  0  0  0  0  0  0  0  0  0  0  0
  1  2  1  0
  2  3  1  1
  1  4  1  0
  4  5  1  0
  4  6  2  0
  2  7  1  0
  5  8  1  6
  5  9  1  0
  6 10  1  0
  7 11  1  0
  7 12  2  0
  8 13  2  0
  9 14  2  0
 13 14  1  0
  9 15  1  0
 10 15  2  0
 11 16  2  0
 12 17  1  0
 11 18  1  0
 13 19  1  0
 16 20  1  0
 17 20  2  0
 16 21  1  0
 18 22  1  0
 21 22  1  0
 19 23  1  0
 19 24  2  0
M  END
