mac-x0345-mac-x0188
     RDKit          3D

 17 18  0  0  0  0  0  0  0  0999 V2000
   29.5630   53.8270   -4.1730 C   0  0  0  0  0  0  0  0  0  0  0  0
   29.3700   52.3050   -4.3400 C   0  0  2  0  0  0  0  0  0  0  0  0
   29.9510   51.6020   -3.1850 N   0  0  0  0  0  0  0  0  0  0  0  0
   29.9060   51.7730   -5.6630 C   0  0  2  0  0  0  0  0  0  0  0  0
   28.7600   52.3270   -7.1620 Br  0  0  0  0  0  0  0  0  0  0  0  0
   30.2490   50.2630   -5.7350 C   0  0  0  0  0  0  0  0  0  0  0  0
   29.9780   50.1310   -3.1240 C   0  0  1  0  0  0  0  0  0  0  0  0
   28.6580   49.7680   -2.6700 N   0  0  0  0  0  0  0  0  0  0  0  0
   30.6050   49.4120   -4.4190 C   0  0  2  0  0  0  0  0  0  0  0  0
   32.0300   49.4190   -3.9410 N   0  0  0  0  0  0  0  0  0  0  0  0
   30.8570   47.8680   -4.9020 C   0  0  2  0  0  0  0  0  0  0  0  0
   29.8470   46.9160   -5.5420 C   0  0  0  0  0  0  0  0  0  0  0  0
   31.8720   47.1770   -3.9840 C   0  0  1  0  0  0  0  0  0  0  0  0
   32.1790   48.2130   -3.0770 O   0  0  0  0  0  0  0  0  0  0  0  0
   31.6410   45.7940   -3.3780 C   0  0  0  0  0  0  0  0  0  0  0  0
   28.7610   46.5580   -5.1420 O   0  0  0  0  0  0  0  0  0  0  0  0
   30.3330   46.4330   -6.7220 O   0  0  0  0  0  0  0  0  0  0  0  0
  2  1  1  1
  2  3  1  0
  2  4  1  0
  4  5  1  6
  4  6  1  0
  3  7  1  0
  7  8  1  6
  9  6  1  6
  7  9  1  0
  9 10  1  0
  9 11  1  0
 11 12  1  1
 11 13  1  0
 10 14  1  0
 13 14  1  0
 13 15  1  1
 12 16  2  0
 12 17  1  0
M  END
