mac-x0163-mac-x0178
     RDKit          3D

 24 26  0  0  0  0  0  0  0  0999 V2000
   28.2620   50.6820   -4.6770 Cl  0  0  0  0  0  0  0  0  0  0  0  0
   28.6170   49.6800   -6.0430 C   0  0  0  0  0  0  0  0  0  0  0  0
   28.8540   50.2500   -7.2920 C   0  0  0  0  0  0  0  0  0  0  0  0
   28.6830   48.2850   -5.9640 C   0  0  0  0  0  0  0  0  0  0  0  0
   28.8150   51.6440   -7.4890 N   0  0  0  0  0  0  0  0  0  0  0  0
   28.9600   47.5330   -7.0520 N   0  0  0  0  0  0  0  0  0  0  0  0
   29.1310   49.5120   -8.3770 N   0  0  0  0  0  0  0  0  0  0  0  0
   28.4530   47.6110   -4.7210 N   0  0  0  0  0  0  0  0  0  0  0  0
   29.1710   48.1870   -8.2020 C   0  0  0  0  0  0  0  0  0  0  0  0
   28.0130   46.2060   -4.5960 C   0  0  0  0  0  0  0  0  0  0  0  0
   29.3540   48.1270   -3.6540 C   0  0  0  0  0  0  0  0  0  0  0  0
   29.2070   45.2230   -4.4960 C   0  0  0  0  0  0  0  0  0  0  0  0
   26.9200   45.9970   -3.5000 C   0  0  0  0  0  0  0  0  0  0  0  0
   26.9260   45.7570   -5.6220 C   0  0  0  0  0  0  0  0  0  0  0  0
   30.3940   47.0690   -3.2520 C   0  0  1  0  0  0  0  0  0  0  0  0
   29.9860   46.4770   -1.5880 S   0  0  0  0  0  0  0  0  0  0  0  0
   30.5180   45.9990   -4.3550 C   0  0  1  0  0  0  0  0  0  0  0  0
   26.2280   45.0120   -4.4660 C   0  0  0  0  0  0  0  0  0  0  0  0
   30.1770   44.8120   -1.6840 N   0  0  0  0  0  0  0  0  0  0  0  0
   30.9880   46.9070   -0.6420 O   0  0  0  0  0  0  0  0  0  0  0  0
   28.5770   46.6470   -1.3190 O   0  0  0  0  0  0  0  0  0  0  0  0
   31.7670   45.1480   -4.2760 C   0  0  0  0  0  0  0  0  0  0  0  0
   31.8060   43.9370   -4.4440 O   0  0  0  0  0  0  0  0  0  0  0  0
   32.8900   45.8370   -4.0090 O   0  0  0  0  0  0  0  0  0  0  0  0
  1  2  1  0
  2  3  2  0
  2  4  1  0
  3  5  1  0
  4  6  2  0
  3  7  1  0
  4  8  1  0
  6  9  1  0
  7  9  2  0
 10  8  1  0
  8 11  1  0
 10 12  1  0
 10 13  1  0
 10 14  1  0
 11 15  1  0
 15 16  1  1
 12 17  1  0
 15 17  1  0
 13 18  1  0
 14 18  1  0
 16 19  1  0
 16 20  2  0
 16 21  2  0
 17 22  1  1
 22 23  2  0
 22 24  1  0
M  END
