mac-x0123-mac-x0588
     RDKit          3D

 28 33  0  0  0  0  0  0  0  0999 V2000
   29.0520   51.4050   -6.5800 N   0  0  0  0  0  0  0  0  0  0  0  0
   29.3220   52.3740   -5.6100 C   0  0  0  0  0  0  0  0  0  0  0  0
   29.1840   53.6980   -5.7350 C   0  0  0  0  0  0  0  0  0  0  0  0
   29.1730   49.9960   -6.1660 C   0  0  1  0  0  0  0  0  0  0  0  0
   29.7930   51.9010   -4.3570 N   0  0  0  0  0  0  0  0  0  0  0  0
   28.2080   49.4230   -5.2520 N   0  0  0  0  0  0  0  0  0  0  0  0
   29.5110   49.0230   -7.3260 C   0  0  1  0  0  0  0  0  0  0  0  0
   30.1050   52.7670   -3.2970 C   0  0  0  0  0  0  0  0  0  0  0  0
   29.5400   54.5320   -4.5530 C   0  0  0  0  0  0  0  0  0  0  0  0
   28.7360   54.6090   -6.8230 C   0  0  0  0  0  0  0  0  0  0  0  0
   30.0180   50.6140   -3.9640 N   0  0  0  0  0  0  0  0  0  0  0  0
   28.5750   48.1510   -4.6640 C   0  0  0  0  0  0  0  0  0  0  0  0
   29.7600   47.6370   -6.7070 C   0  0  1  0  0  0  0  0  0  0  0  0
   28.4220   48.8210   -8.3130 N   0  0  0  0  0  0  0  0  0  0  0  0
   29.9740   54.1210   -3.4030 N   0  0  0  0  0  0  0  0  0  0  0  0
   29.3240   55.9780   -4.8680 C   0  0  0  0  0  0  0  0  0  0  0  0
   29.3290   55.9570   -6.4000 C   0  0  0  0  0  0  0  0  0  0  0  0
   30.5160   52.0490   -2.2670 N   0  0  0  0  0  0  0  0  0  0  0  0
   30.4460   50.7710   -2.7170 C   0  0  0  0  0  0  0  0  0  0  0  0
   29.8060   47.6110   -5.2400 N   0  0  0  0  0  0  0  0  0  0  0  0
   28.6540   46.8240   -7.1940 N   0  0  0  0  0  0  0  0  0  0  0  0
   28.3510   47.3880   -8.4930 C   0  0  0  0  0  0  0  0  0  0  0  0
   30.0700   46.2320   -4.7610 C   0  0  0  0  0  0  0  0  0  0  0  0
   29.9340   45.9580   -3.2380 C   0  0  1  0  0  0  0  0  0  0  0  0
   28.7740   46.5830   -2.6580 O   0  0  0  0  0  0  0  0  0  0  0  0
   29.8930   44.4810   -2.8550 C   0  0  0  0  0  0  0  0  0  0  0  0
   28.5890   44.3210   -2.1030 C   0  0  0  0  0  0  0  0  0  0  0  0
   28.3160   45.7220   -1.6130 C   0  0  0  0  0  0  0  0  0  0  0  0
  1  2  1  0
  2  3  2  0
  4  1  1  6
  2  5  1  0
  4  6  1  0
  4  7  1  0
  5  8  1  0
  3  9  1  0
  3 10  1  0
  5 11  1  0
  6 12  1  0
  7 13  1  0
  7 14  1  6
  8 15  1  0
  9 15  2  0
  9 16  1  0
 10 17  1  0
 16 17  1  0
  8 18  2  0
 11 19  2  0
 18 19  1  0
 12 20  1  0
 13 20  1  0
 13 21  1  1
 14 22  1  0
 21 22  1  0
 20 23  1  0
 24 23  1  6
 24 25  1  0
 24 26  1  0
 26 27  1  0
 25 28  1  0
 27 28  1  0
M  END
