mac-x0345-mac-x0436
     RDKit          3D

 28 30  0  0  0  0  0  0  0  0999 V2000
   29.5060   54.7490   -4.9940 C   0  0  0  0  0  0  0  0  0  0  0  0
   29.3050   53.2810   -4.7580 C   0  0  0  0  0  0  0  0  0  0  0  0
   29.7330   52.8160   -3.5510 N   0  0  0  0  0  0  0  0  0  0  0  0
   28.7210   52.4470   -5.7130 C   0  0  0  0  0  0  0  0  0  0  0  0
   28.1210   53.0660   -7.3970 Br  0  0  0  0  0  0  0  0  0  0  0  0
   28.5730   51.0990   -5.4110 C   0  0  0  0  0  0  0  0  0  0  0  0
   29.5860   51.5050   -3.2660 C   0  0  0  0  0  0  0  0  0  0  0  0
   30.0160   50.9790   -2.0360 N   0  0  0  0  0  0  0  0  0  0  0  0
   29.0090   50.6240   -4.1790 C   0  0  0  0  0  0  0  0  0  0  0  0
   31.3140   50.3150   -2.0860 C   0  0  0  0  0  0  0  0  0  0  0  0
   31.9000   50.4210   -3.4970 C   0  0  0  0  0  0  0  0  0  0  0  0
   33.2740   49.7740   -3.5670 C   0  0  0  0  0  0  0  0  0  0  0  0
   33.1530   48.3190   -3.5700 N   0  0  0  0  0  0  0  0  0  0  0  0
   34.2180   47.6070   -3.4580 C   0  0  0  0  0  0  0  0  0  0  0  0
   34.0110   46.0750   -3.4660 C   0  0  0  0  0  0  0  0  0  0  0  0
   35.5120   48.0460   -3.3290 N   0  0  0  0  0  0  0  0  0  0  0  0
   32.6600   45.5320   -3.8650 C   0  0  0  0  0  0  0  0  0  0  0  0
   36.5030   47.1680   -2.8700 C   0  0  0  0  0  0  0  0  0  0  0  0
   34.9670   45.2520   -3.1420 N   0  0  0  0  0  0  0  0  0  0  0  0
   32.7980   44.5540   -5.0270 C   0  0  0  0  0  0  0  0  0  0  0  0
   36.2200   45.7900   -2.7820 C   0  0  0  0  0  0  0  0  0  0  0  0
   37.7640   47.6460   -2.5000 C   0  0  0  0  0  0  0  0  0  0  0  0
   32.3100   45.1380   -6.3240 C   0  0  0  0  0  0  0  0  0  0  0  0
   37.2100   44.9170   -2.3240 C   0  0  0  0  0  0  0  0  0  0  0  0
   38.7450   46.7620   -2.0440 C   0  0  0  0  0  0  0  0  0  0  0  0
   33.2930   45.3520   -7.2210 O   0  0  0  0  0  0  0  0  0  0  0  0
   31.1530   45.4090   -6.6020 O   0  0  0  0  0  0  0  0  0  0  0  0
   38.4690   45.4000   -1.9550 C   0  0  0  0  0  0  0  0  0  0  0  0
  1  2  1  0
  2  3  2  0
  2  4  1  0
  4  5  1  0
  4  6  2  0
  3  7  1  0
  7  8  1  0
  6  9  1  0
  7  9  2  0
  8 10  1  0
 10 11  1  0
 11 12  1  0
 12 13  1  0
 13 14  2  3
 14 15  1  0
 14 16  1  0
 15 17  1  0
 16 18  1  0
 15 19  2  0
 17 20  1  0
 18 21  2  0
 19 21  1  0
 18 22  1  0
 20 23  1  0
 21 24  1  0
 22 25  2  0
 23 26  1  0
 23 27  2  0
 24 28  2  0
 25 28  1  0
M  END
