mac-x0546-mac-x0138
     RDKit          3D

 27 30  0  0  0  0  0  0  0  0999 V2000
   29.3070   49.2600   -0.7120 C   0  0  0  0  0  0  0  0  0  0  0  0
   28.8440   48.5120   -1.8380 O   0  0  0  0  0  0  0  0  0  0  0  0
   29.4670   47.2940   -1.9560 C   0  0  0  0  0  0  0  0  0  0  0  0
   30.5320   47.0660   -2.7740 C   0  0  0  0  0  0  0  0  0  0  0  0
   28.8950   46.2400   -1.1230 C   0  0  0  0  0  0  0  0  0  0  0  0
   31.2140   48.0610   -3.6900 C   0  0  0  0  0  0  0  0  0  0  0  0
   31.1130   45.6560   -2.7700 C   0  0  1  0  0  0  0  0  0  0  0  0
   29.1000   44.9370   -1.3620 C   0  0  0  0  0  0  0  0  0  0  0  0
   29.9550   44.6920   -2.5290 C   0  0  0  0  0  0  0  0  0  0  0  0
   31.6030   44.9610   -4.0210 C   0  0  0  0  0  0  0  0  0  0  0  0
   30.4440   49.1680   -4.2450 N   0  0  0  0  0  0  0  0  0  0  0  0
   32.7850   45.3750   -4.8520 C   0  0  0  0  0  0  0  0  0  0  0  0
   29.8050   43.7160   -3.3720 N   0  0  0  0  0  0  0  0  0  0  0  0
   30.8180   43.9000   -4.2730 C   0  0  0  0  0  0  0  0  0  0  0  0
   30.1510   50.3440   -3.6110 C   0  0  0  0  0  0  0  0  0  0  0  0
   29.8860   49.2240   -5.4980 C   0  0  0  0  0  0  0  0  0  0  0  0
   33.0340   44.5110   -6.0850 C   0  0  0  0  0  0  0  0  0  0  0  0
   29.4430   51.1550   -4.3710 N   0  0  0  0  0  0  0  0  0  0  0  0
   29.2730   50.4630   -5.5520 C   0  0  0  0  0  0  0  0  0  0  0  0
   29.9180   48.2980   -6.4650 N   0  0  0  0  0  0  0  0  0  0  0  0
   32.3060   43.6200   -6.4920 O   0  0  0  0  0  0  0  0  0  0  0  0
   34.1880   44.8340   -6.7190 O   0  0  0  0  0  0  0  0  0  0  0  0
   28.6160   50.7750   -6.7520 C   0  0  0  0  0  0  0  0  0  0  0  0
   29.2620   48.6940   -7.5670 C   0  0  0  0  0  0  0  0  0  0  0  0
   27.9510   51.9790   -6.9630 N   0  0  0  0  0  0  0  0  0  0  0  0
   29.2370   47.8090   -8.6270 N   0  0  0  0  0  0  0  0  0  0  0  0
   28.6250   49.8660   -7.7530 N   0  0  0  0  0  0  0  0  0  0  0  0
  1  2  1  0
  2  3  1  0
  3  4  2  0
  3  5  1  0
  4  6  1  0
  7  4  1  6
  5  8  2  0
  7  9  1  0
  8  9  1  0
  7 10  1  0
  6 11  1  0
 10 12  1  0
  9 13  2  0
 10 14  2  0
 13 14  1  0
 11 15  1  0
 11 16  1  0
 12 17  1  0
 15 18  2  0
 16 19  2  0
 18 19  1  0
 16 20  1  0
 17 21  2  0
 17 22  1  0
 19 23  1  0
 20 24  2  0
 23 25  1  0
 24 26  1  0
 23 27  2  0
 24 27  1  0
M  END
