mac-x0321-mac-x0590
     RDKit          3D

 20 22  0  0  0  0  0  0  0  0999 V2000
   28.3490   51.9340   -6.9770 Cl  0  0  0  0  0  0  0  0  0  0  0  0
   28.5720   51.0650   -5.4120 C   0  0  1  0  0  0  0  0  0  0  0  0
   29.1250   49.6000   -5.6160 C   0  0  2  0  0  0  0  0  0  0  0  0
   29.4150   51.9590   -4.5360 C   0  0  0  0  0  0  0  0  0  0  0  0
   29.7400   49.1410   -4.2480 C   0  0  1  0  0  0  0  0  0  0  0  0
   30.4460   51.5220   -3.8030 C   0  0  0  0  0  0  0  0  0  0  0  0
   30.1390   49.4740   -6.7030 N   0  0  0  0  0  0  0  0  0  0  0  0
   27.9690   48.6920   -6.1060 C   0  0  0  0  0  0  0  0  0  0  0  0
   30.1690   47.6840   -4.1540 C   0  0  0  0  0  0  0  0  0  0  0  0
   30.8650   50.0840   -3.7800 C   0  0  0  0  0  0  0  0  0  0  0  0
   28.4550   48.0440   -7.3390 N   0  0  0  0  0  0  0  0  0  0  0  0
   29.4300   48.9730   -7.8630 C   0  0  0  0  0  0  0  0  0  0  0  0
   29.2420   46.7910   -4.5220 O   0  0  0  0  0  0  0  0  0  0  0  0
   31.3420   47.3640   -3.7410 N   0  0  0  0  0  0  0  0  0  0  0  0
   31.7950   45.9820   -3.6270 C   0  0  0  0  0  0  0  0  0  0  0  0
   33.1230   45.7910   -4.3430 C   0  0  2  0  0  0  0  0  0  0  0  0
   33.0040   45.7530   -5.8600 C   0  0  0  0  0  0  0  0  0  0  0  0
   33.7810   44.4550   -4.0560 C   0  0  0  0  0  0  0  0  0  0  0  0
   33.1150   43.5610   -5.0770 C   0  0  0  0  0  0  0  0  0  0  0  0
   32.8740   44.3710   -6.2340 O   0  0  0  0  0  0  0  0  0  0  0  0
  2  1  1  6
  2  3  1  0
  2  4  1  0
  3  5  1  0
  4  6  2  0
  3  7  1  0
  3  8  1  6
  5  9  1  6
  5 10  1  0
  6 10  1  0
  8 11  1  0
  7 12  1  0
 11 12  1  0
  9 13  1  0
  9 14  2  3
 14 15  1  0
 16 15  1  1
 16 17  1  0
 16 18  1  0
 18 19  1  0
 17 20  1  0
 19 20  1  0
M  END
