mac-x0397-mac-x0433
     RDKit          3D

 13 14  0  0  0  0  0  0  0  0999 V2000
   28.2000   51.2940   -2.1440 Cl  0  0  0  0  0  0  0  0  0  0  0  0
   29.3760   51.5890   -3.4800 C   0  0  2  0  0  0  0  0  0  0  0  0
   28.6150   52.0070   -4.7900 C   0  0  1  0  0  0  0  0  0  0  0  0
   30.2590   50.3730   -3.5620 C   0  0  0  0  0  0  0  0  0  0  0  0
   28.9860   53.3660   -5.3060 N   0  0  0  0  0  0  0  0  0  0  0  0
   28.8080   50.9930   -5.9740 C   0  0  1  0  0  0  0  0  0  0  0  0
   30.6490   49.8180   -4.7120 C   0  0  0  0  0  0  0  0  0  0  0  0
   27.7420   49.8880   -5.9790 C   0  0  0  0  0  0  0  0  0  0  0  0
   30.4320   53.5660   -5.4430 C   0  0  0  0  0  0  0  0  0  0  0  0
   28.3290   53.5190   -6.5890 C   0  0  2  0  0  0  0  0  0  0  0  0
   28.5640   51.9910   -7.4950 S   0  0  0  0  0  0  0  0  0  0  0  0
   30.2240   50.3740   -6.0320 C   0  0  0  0  0  0  0  0  0  0  0  0
   29.0030   54.5760   -7.2830 N   0  0  0  0  0  0  0  0  0  0  0  0
  2  1  1  1
  2  3  1  0
  2  4  1  0
  3  5  1  6
  3  6  1  0
  4  7  2  0
  6  8  1  1
  5  9  1  0
  5 10  1  0
  6 11  1  0
 10 11  1  0
  6 12  1  0
  7 12  1  0
 10 13  1  6
M  END
