mac-x0190-mac-x0387
     RDKit          3D

 22 25  0  0  0  0  0  0  0  0999 V2000
   28.9860   57.0840   -5.5510 O   0  0  0  0  0  0  0  0  0  0  0  0
   30.1390   56.2530   -5.4800 C   0  0  0  0  0  0  0  0  0  0  0  0
   29.6640   54.8830   -5.1750 C   0  0  0  0  0  0  0  0  0  0  0  0
   29.4180   54.4860   -3.8870 N   0  0  0  0  0  0  0  0  0  0  0  0
   29.4190   53.9080   -6.0280 N   0  0  0  0  0  0  0  0  0  0  0  0
   28.9900   53.1890   -3.9030 C   0  0  0  0  0  0  0  0  0  0  0  0
   28.9970   52.8420   -5.2520 C   0  0  0  0  0  0  0  0  0  0  0  0
   28.6110   52.3190   -2.8860 C   0  0  0  0  0  0  0  0  0  0  0  0
   28.6020   51.5410   -5.6410 C   0  0  0  0  0  0  0  0  0  0  0  0
   28.5980   51.1160   -6.9760 N   0  0  0  0  0  0  0  0  0  0  0  0
   28.2160   51.0410   -3.2710 C   0  0  0  0  0  0  0  0  0  0  0  0
   28.2120   50.6640   -4.6130 C   0  0  0  0  0  0  0  0  0  0  0  0
   28.8240   49.7640   -7.3060 C   0  0  0  0  0  0  0  0  0  0  0  0
   29.5280   48.9880   -6.3400 C   0  0  0  0  0  0  0  0  0  0  0  0
   28.3840   49.2430   -8.4760 N   0  0  0  0  0  0  0  0  0  0  0  0
   29.7580   47.6290   -6.6260 C   0  0  0  0  0  0  0  0  0  0  0  0
   28.6300   47.9400   -8.7110 C   0  0  0  0  0  0  0  0  0  0  0  0
   30.0150   49.4870   -5.1030 C   0  0  0  0  0  0  0  0  0  0  0  0
   29.2990   47.1040   -7.8340 C   0  0  0  0  0  0  0  0  0  0  0  0
   30.4420   46.8230   -5.6990 C   0  0  0  0  0  0  0  0  0  0  0  0
   30.6900   48.6810   -4.1910 C   0  0  0  0  0  0  0  0  0  0  0  0
   30.9040   47.3440   -4.4900 C   0  0  0  0  0  0  0  0  0  0  0  0
  1  2  1  0
  2  3  1  0
  3  4  1  0
  3  5  2  0
  4  6  1  0
  5  7  1  0
  6  7  2  0
  6  8  1  0
  7  9  1  0
  9 10  1  0
  8 11  2  0
  9 12  2  0
 11 12  1  0
 10 13  1  0
 13 14  1  0
 13 15  2  0
 14 16  2  0
 15 17  1  0
 14 18  1  0
 16 19  1  0
 17 19  2  0
 16 20  1  0
 18 21  2  0
 20 22  2  0
 21 22  1  0
M  END
