mac-x0455-mac-x0328
     RDKit          3D

 19 20  0  0  0  0  0  0  0  0999 V2000
   30.9040   48.4200   -5.3870 C   0  0  0  0  0  0  0  0  0  0  0  0
   31.0100   47.1530   -4.5040 C   0  0  1  0  0  0  0  0  0  0  0  0
   30.0940   47.3220   -3.3820 O   0  0  0  0  0  0  0  0  0  0  0  0
   30.4370   49.7410   -4.8070 C   0  0  0  0  0  0  0  0  0  0  0  0
   30.4480   45.9540   -5.3150 C   0  0  0  0  0  0  0  0  0  0  0  0
   32.4200   46.9350   -3.9440 C   0  0  0  0  0  0  0  0  0  0  0  0
   29.8360   50.6720   -5.6630 C   0  0  0  0  0  0  0  0  0  0  0  0
   30.5900   50.0670   -3.4480 C   0  0  0  0  0  0  0  0  0  0  0  0
   29.4590   45.2680   -5.1250 O   0  0  0  0  0  0  0  0  0  0  0  0
   31.2290   45.6850   -6.4020 O   0  0  0  0  0  0  0  0  0  0  0  0
   33.2890   48.0120   -3.6780 C   0  0  0  0  0  0  0  0  0  0  0  0
   32.9030   45.6400   -3.6760 C   0  0  0  0  0  0  0  0  0  0  0  0
   29.3950   51.9050   -5.1850 C   0  0  0  0  0  0  0  0  0  0  0  0
   30.1470   51.3080   -2.9670 C   0  0  0  0  0  0  0  0  0  0  0  0
   34.5740   47.7990   -3.1710 C   0  0  0  0  0  0  0  0  0  0  0  0
   34.1890   45.4260   -3.1690 C   0  0  0  0  0  0  0  0  0  0  0  0
   29.5540   52.2150   -3.8430 C   0  0  0  0  0  0  0  0  0  0  0  0
   29.1110   53.4330   -3.4200 O   0  0  0  0  0  0  0  0  0  0  0  0
   35.0250   46.5110   -2.9160 C   0  0  0  0  0  0  0  0  0  0  0  0
  1  2  1  0
  2  3  1  1
  1  4  1  0
  2  5  1  0
  2  6  1  0
  4  7  2  0
  4  8  1  0
  5  9  2  0
  5 10  1  0
  6 11  2  0
  6 12  1  0
  7 13  1  0
  8 14  2  0
 11 15  1  0
 12 16  2  0
 13 17  2  0
 14 17  1  0
 17 18  1  0
 15 19  2  0
 16 19  1  0
M  END
