mac-x0179-mac-x0182
     RDKit          3D

 15 16  0  0  0  0  0  0  0  0999 V2000
   31.7170   45.8970   -5.5360 O   0  0  0  0  0  0  0  0  0  0  0  0
   32.8690   45.8320   -4.8270 C   0  0  0  0  0  0  0  0  0  0  0  0
   33.9560   45.9950   -5.3660 O   0  0  0  0  0  0  0  0  0  0  0  0
   32.7000   45.5430   -3.3400 C   0  0  0  0  0  0  0  0  0  0  0  0
   33.9160   45.7690   -2.5780 N   0  0  0  0  0  0  0  0  0  0  0  0
   34.6790   44.7750   -2.0260 C   0  0  0  0  0  0  0  0  0  0  0  0
   34.5090   46.9880   -2.4320 C   0  0  0  0  0  0  0  0  0  0  0  0
   34.4370   43.5870   -1.9360 O   0  0  0  0  0  0  0  0  0  0  0  0
   34.0470   48.0610   -2.7720 O   0  0  0  0  0  0  0  0  0  0  0  0
   35.9070   45.4100   -1.5410 C   0  0  0  0  0  0  0  0  0  0  0  0
   35.8020   46.7680   -1.7900 C   0  0  0  0  0  0  0  0  0  0  0  0
   37.0230   44.8660   -0.9320 C   0  0  0  0  0  0  0  0  0  0  0  0
   36.8040   47.6590   -1.4510 C   0  0  0  0  0  0  0  0  0  0  0  0
   38.0530   45.7480   -0.5780 C   0  0  0  0  0  0  0  0  0  0  0  0
   37.9430   47.1300   -0.8350 C   0  0  0  0  0  0  0  0  0  0  0  0
  1  2  1  0
  2  3  2  0
  2  4  1  0
  4  5  1  0
  5  6  1  0
  5  7  1  0
  6  8  2  0
  7  9  2  0
  6 10  1  0
  7 11  1  0
 10 11  2  0
 10 12  1  0
 11 13  1  0
 12 14  2  0
 13 15  2  0
 14 15  1  0
M  END
