mac-x0179-mac-x0567
     RDKit          3D

 28 31  0  0  0  0  0  0  0  0999 V2000
   31.9420   45.1590   -5.6530 O   0  0  0  0  0  0  0  0  0  0  0  0
   32.8200   45.9570   -4.8760 C   0  0  0  0  0  0  0  0  0  0  0  0
   34.1440   45.7370   -5.3390 O   0  0  0  0  0  0  0  0  0  0  0  0
   32.6750   45.6350   -3.3570 C   0  0  0  0  0  0  0  0  0  0  0  0
   32.4580   47.4100   -5.2210 C   0  0  0  0  0  0  0  0  0  0  0  0
   31.9810   47.6170   -6.6720 C   0  0  0  0  0  0  0  0  0  0  0  0
   33.9200   45.8210   -2.6160 N   0  0  0  0  0  0  0  0  0  0  0  0
   30.8580   46.6580   -7.1050 C   0  0  0  0  0  0  0  0  0  0  0  0
   34.6600   44.8150   -2.0550 C   0  0  0  0  0  0  0  0  0  0  0  0
   34.5230   47.0320   -2.4510 C   0  0  0  0  0  0  0  0  0  0  0  0
   34.3750   43.6350   -1.9710 O   0  0  0  0  0  0  0  0  0  0  0  0
   34.0920   48.1220   -2.7730 O   0  0  0  0  0  0  0  0  0  0  0  0
   29.8260   47.3350   -7.8880 N   0  0  0  0  0  0  0  0  0  0  0  0
   35.8950   45.4270   -1.5570 C   0  0  0  0  0  0  0  0  0  0  0  0
   35.8090   46.7880   -1.8030 C   0  0  0  0  0  0  0  0  0  0  0  0
   36.9980   44.8650   -0.9460 C   0  0  0  0  0  0  0  0  0  0  0  0
   36.8200   47.6620   -1.4540 C   0  0  0  0  0  0  0  0  0  0  0  0
   29.3980   48.5760   -7.5420 C   0  0  0  0  0  0  0  0  0  0  0  0
   38.0370   45.7300   -0.5820 C   0  0  0  0  0  0  0  0  0  0  0  0
   37.9480   47.1160   -0.8350 C   0  0  0  0  0  0  0  0  0  0  0  0
   28.8300   49.4790   -8.4060 N   0  0  0  0  0  0  0  0  0  0  0  0
   29.4100   49.2290   -6.3390 C   0  0  0  0  0  0  0  0  0  0  0  0
   28.4850   50.6570   -7.8450 N   0  0  0  0  0  0  0  0  0  0  0  0
   28.8370   50.5310   -6.5520 C   0  0  0  0  0  0  0  0  0  0  0  0
   29.8930   48.7190   -5.1360 C   0  0  0  0  0  0  0  0  0  0  0  0
   28.7190   51.4440   -5.4900 C   0  0  0  0  0  0  0  0  0  0  0  0
   29.7650   49.6510   -4.0900 C   0  0  0  0  0  0  0  0  0  0  0  0
   29.2050   50.9530   -4.2530 C   0  0  0  0  0  0  0  0  0  0  0  0
  2  1  1  0
  2  3  1  0
  2  4  1  0
  2  5  1  0
  5  6  1  0
  4  7  1  0
  6  8  1  0
  7  9  1  0
  7 10  1  0
  9 11  2  0
 10 12  2  0
  8 13  1  0
  9 14  1  0
 10 15  1  0
 14 15  2  0
 14 16  1  0
 15 17  1  0
 13 18  1  0
 16 19  2  0
 17 20  2  0
 19 20  1  0
 18 21  1  0
 18 22  2  0
 21 23  1  0
 22 24  1  0
 23 24  2  0
 22 25  1  0
 24 26  1  0
 25 27  2  0
 26 28  2  0
 27 28  1  0
M  END
