mac-x0204-mac-x0328
     RDKit          3D

 19 20  0  0  0  0  0  0  0  0999 V2000
   31.5080   47.0500   -6.1750 O   0  0  0  0  0  0  0  0  0  0  0  0
   30.6240   46.9850   -5.0630 C   0  0  0  0  0  0  0  0  0  0  0  0
   30.1460   45.6340   -5.1020 O   0  0  0  0  0  0  0  0  0  0  0  0
   29.3710   47.9140   -5.2790 C   0  0  1  0  0  0  0  0  0  0  0  0
   31.3420   47.2120   -3.7540 C   0  0  0  0  0  0  0  0  0  0  0  0
   28.2860   47.3570   -4.5030 O   0  0  0  0  0  0  0  0  0  0  0  0
   30.6680   47.1310   -2.5240 C   0  0  0  0  0  0  0  0  0  0  0  0
   32.7030   47.5120   -3.7120 C   0  0  0  0  0  0  0  0  0  0  0  0
   29.5530   49.3740   -4.9040 C   0  0  0  0  0  0  0  0  0  0  0  0
   31.3650   47.3490   -1.3410 C   0  0  0  0  0  0  0  0  0  0  0  0
   33.4040   47.7280   -2.5710 N   0  0  0  0  0  0  0  0  0  0  0  0
   29.7350   50.3690   -5.8790 C   0  0  0  0  0  0  0  0  0  0  0  0
   29.5400   49.7610   -3.5500 C   0  0  0  0  0  0  0  0  0  0  0  0
   30.7570   47.2800   -0.1260 O   0  0  0  0  0  0  0  0  0  0  0  0
   32.7160   47.6420   -1.4100 C   0  0  0  0  0  0  0  0  0  0  0  0
   29.8980   51.7090   -5.5150 C   0  0  0  0  0  0  0  0  0  0  0  0
   29.7040   51.1020   -3.1900 C   0  0  0  0  0  0  0  0  0  0  0  0
   29.8810   52.0640   -4.1730 C   0  0  0  0  0  0  0  0  0  0  0  0
   30.0370   53.3600   -3.7780 O   0  0  0  0  0  0  0  0  0  0  0  0
  2  1  1  0
  2  3  1  0
  2  4  1  0
  2  5  1  0
  4  6  1  1
  5  7  2  0
  5  8  1  0
  4  9  1  0
  7 10  1  0
  8 11  2  0
  9 12  2  0
  9 13  1  0
 10 14  1  0
 10 15  2  0
 11 15  1  0
 12 16  1  0
 13 17  2  0
 16 18  2  0
 17 18  1  0
 18 19  1  0
M  END
