mac-x0206
     RDKit          3D

 10 10  0  0  0  0  0  0  0  0999 V2000
   29.2250   49.8330   -5.5900 N   0  0  0  0  0  0  0  0  0  0  0  0
   29.4920   50.8920   -4.6800 C   0  0  0  0  0  0  0  0  0  0  0  0
   29.9040   50.6610   -3.6090 O   0  0  0  0  0  0  0  0  0  0  0  0
   29.2750   52.3330   -5.1490 C   0  0  0  0  0  0  0  0  0  0  0  0
   28.7170   52.7060   -6.3500 C   0  0  0  0  0  0  0  0  0  0  0  0
   28.6000   54.0640   -6.6350 C   0  0  0  0  0  0  0  0  0  0  0  0
   29.0470   55.0400   -5.8040 C   0  0  0  0  0  0  0  0  0  0  0  0
   29.6100   54.6560   -4.6280 C   0  0  0  0  0  0  0  0  0  0  0  0
   29.7050   53.3260   -4.3380 C   0  0  0  0  0  0  0  0  0  0  0  0
   30.2590   52.9330   -3.1710 O   0  0  0  0  0  0  0  0  0  0  0  0
  1  2  1  0
  2  3  2  0
  2  4  1  0
  4  5  2  0
  5  6  1  0
  6  7  2  0
  7  8  1  0
  4  9  1  0
  8  9  2  0
  9 10  1  0
M  END
