mac-x0436-mac-x0496
     RDKit          3D

 37 40  0  0  0  0  0  0  0  0999 V2000
   33.5750   45.2420   -7.3840 O   0  0  0  0  0  0  0  0  0  0  0  0
   32.5980   44.7120   -6.6130 C   0  0  0  0  0  0  0  0  0  0  0  0
   31.4240   44.7340   -6.9560 O   0  0  0  0  0  0  0  0  0  0  0  0
   33.1010   44.1090   -5.3170 C   0  0  0  0  0  0  0  0  0  0  0  0
   32.7810   45.0050   -4.1300 C   0  0  0  0  0  0  0  0  0  0  0  0
   33.9980   45.7320   -3.5840 C   0  0  0  0  0  0  0  0  0  0  0  0
   33.8920   47.2490   -3.2790 C   0  0  0  0  0  0  0  0  0  0  0  0
   35.1160   45.0830   -3.3870 N   0  0  0  0  0  0  0  0  0  0  0  0
   32.7110   47.7380   -3.0810 N   0  0  0  0  0  0  0  0  0  0  0  0
   35.0970   47.9050   -3.2490 N   0  0  0  0  0  0  0  0  0  0  0  0
   36.2270   45.8010   -2.9010 C   0  0  0  0  0  0  0  0  0  0  0  0
   31.4950   46.9260   -3.1310 C   0  0  0  0  0  0  0  0  0  0  0  0
   36.2340   47.2080   -2.8280 C   0  0  0  0  0  0  0  0  0  0  0  0
   37.3490   45.0850   -2.4840 C   0  0  0  0  0  0  0  0  0  0  0  0
   30.2850   47.7700   -2.7160 C   0  0  0  0  0  0  0  0  0  0  0  0
   38.4760   45.7530   -1.9990 C   0  0  0  0  0  0  0  0  0  0  0  0
   37.3640   47.8740   -2.3420 C   0  0  0  0  0  0  0  0  0  0  0  0
   29.9250   48.7050   -3.7890 N   0  0  0  0  0  0  0  0  0  0  0  0
   38.4840   47.1460   -1.9280 C   0  0  0  0  0  0  0  0  0  0  0  0
   29.4770   49.8520   -3.4470 C   0  0  0  0  0  0  0  0  0  0  0  0
   29.3200   50.2220   -2.1590 O   0  0  0  0  0  0  0  0  0  0  0  0
   29.0960   50.8790   -4.4380 C   0  0  0  0  0  0  0  0  0  0  0  0
   28.4970   50.4810   -5.6390 C   0  0  0  0  0  0  0  0  0  0  0  0
   29.3300   52.2330   -4.1900 C   0  0  0  0  0  0  0  0  0  0  0  0
   28.1310   51.4370   -6.5900 C   0  0  0  0  0  0  0  0  0  0  0  0
   28.9650   53.1910   -5.1400 C   0  0  0  0  0  0  0  0  0  0  0  0
   29.2440   54.6160   -4.8160 C   0  0  0  0  0  0  0  0  0  0  0  0
   28.3650   52.7940   -6.3450 C   0  0  0  0  0  0  0  0  0  0  0  0
   28.9280   55.5500   -5.7750 N   0  0  0  0  0  0  0  0  0  0  0  0
   29.7330   54.8970   -3.7270 O   0  0  0  0  0  0  0  0  0  0  0  0
   29.0810   56.9720   -5.5080 C   0  0  0  0  0  0  0  0  0  0  0  0
   27.7520   57.6310   -5.4190 C   0  0  0  0  0  0  0  0  0  0  0  0
   27.5280   58.3960   -4.3080 O   0  0  0  0  0  0  0  0  0  0  0  0
   26.7280   57.6060   -6.2440 N   0  0  0  0  0  0  0  0  0  0  0  0
   25.8190   58.4030   -5.5990 C   0  0  0  0  0  0  0  0  0  0  0  0
   26.2340   58.9100   -4.4310 N   0  0  0  0  0  0  0  0  0  0  0  0
   24.4800   58.6840   -6.1480 C   0  0  0  0  0  0  0  0  0  0  0  0
  1  2  1  0
  2  3  2  0
  2  4  1  0
  4  5  1  0
  5  6  1  0
  6  7  1  0
  6  8  2  0
  7  9  2  3
  7 10  1  0
  8 11  1  0
  9 12  1  0
 10 13  1  0
 11 13  2  0
 11 14  1  0
 12 15  1  0
 14 16  2  0
 13 17  1  0
 15 18  1  0
 16 19  1  0
 17 19  2  0
 18 20  2  3
 20 21  1  0
 20 22  1  0
 22 23  2  0
 22 24  1  0
 23 25  1  0
 24 26  2  0
 26 27  1  0
 25 28  2  0
 26 28  1  0
 27 29  1  0
 27 30  2  0
 29 31  1  0
 31 32  1  0
 32 33  1  0
 32 34  2  0
 34 35  1  0
 33 36  1  0
 35 36  2  0
 35 37  1  0
M  END
