mac-x0283-mac-x0360
     RDKit          3D

 22 24  0  0  0  0  0  0  0  0999 V2000
   27.7460   55.6570   -5.7570 N   0  0  0  0  0  0  0  0  0  0  0  0
   28.3660   54.6020   -5.2030 C   0  0  0  0  0  0  0  0  0  0  0  0
   29.2950   54.6840   -4.2510 N   0  0  0  0  0  0  0  0  0  0  0  0
   28.1030   53.2610   -5.5720 C   0  0  0  0  0  0  0  0  0  0  0  0
   29.6670   53.3770   -3.9780 O   0  0  0  0  0  0  0  0  0  0  0  0
   28.9520   52.5320   -4.7710 C   0  0  0  0  0  0  0  0  0  0  0  0
   27.2620   52.5860   -6.4750 C   0  0  0  0  0  0  0  0  0  0  0  0
   29.0190   51.1420   -4.8230 C   0  0  0  0  0  0  0  0  0  0  0  0
   27.3120   51.1880   -6.5330 C   0  0  0  0  0  0  0  0  0  0  0  0
   29.9020   50.3360   -4.0380 N   0  0  0  0  0  0  0  0  0  0  0  0
   28.1820   50.4850   -5.7160 C   0  0  0  0  0  0  0  0  0  0  0  0
   30.9020   49.6990   -4.9750 S   0  0  1  0  0  0  0  0  0  0  0  0
   31.6550   48.6170   -3.9380 N   0  0  0  0  0  0  0  0  0  0  0  0
   30.5890   48.8740   -6.1210 O   0  0  0  0  0  0  0  0  0  0  0  0
   32.0080   50.9720   -5.4910 C   0  0  0  0  0  0  0  0  0  0  0  0
   33.3630   50.8290   -5.2080 C   0  0  0  0  0  0  0  0  0  0  0  0
   31.5270   52.1040   -6.1690 C   0  0  0  0  0  0  0  0  0  0  0  0
   34.2440   51.8260   -5.6070 C   0  0  0  0  0  0  0  0  0  0  0  0
   32.4310   53.0940   -6.5590 C   0  0  0  0  0  0  0  0  0  0  0  0
   31.8840   54.5010   -7.3900 Cl  0  0  0  0  0  0  0  0  0  0  0  0
   35.9190   51.6540   -5.2620 Cl  0  0  0  0  0  0  0  0  0  0  0  0
   33.7900   52.9590   -6.2800 C   0  0  0  0  0  0  0  0  0  0  0  0
  1  2  1  0
  2  3  2  0
  2  4  1  0
  3  5  1  0
  4  6  2  0
  5  6  1  0
  4  7  1  0
  6  8  1  0
  7  9  2  0
  8 10  1  0
  8 11  2  0
  9 11  1  0
 10 12  2  0
 12 13  1  1
 12 14  2  0
 12 15  1  0
 15 16  2  0
 15 17  1  0
 16 18  1  0
 17 19  2  0
 19 20  1  0
 18 21  1  0
 18 22  2  0
 19 22  1  0
M  END
