mac-x0178-mac-x0277
     RDKit          3D

 14 14  0  0  0  0  0  0  0  0999 V2000
   28.4400   45.1280   -0.2320 N   0  0  0  0  0  0  0  0  0  0  0  0
   28.8460   46.7080   -0.6580 S   0  0  0  0  0  0  0  0  0  0  0  0
   29.7310   47.1740    0.3840 O   0  0  0  0  0  0  0  0  0  0  0  0
   27.6270   47.4020   -1.0100 O   0  0  0  0  0  0  0  0  0  0  0  0
   29.7920   46.4510   -2.1350 C   0  0  0  0  0  0  0  0  0  0  0  0
   29.2570   45.6770   -3.1650 C   0  0  0  0  0  0  0  0  0  0  0  0
   31.0590   47.0230   -2.2590 C   0  0  0  0  0  0  0  0  0  0  0  0
   29.9990   45.4710   -4.3320 C   0  0  0  0  0  0  0  0  0  0  0  0
   31.7950   46.8120   -3.4300 C   0  0  0  0  0  0  0  0  0  0  0  0
   31.2790   46.0340   -4.4850 C   0  0  0  0  0  0  0  0  0  0  0  0
   32.0960   45.8160   -5.7530 C   0  0  0  0  0  0  0  0  0  0  0  0
   31.2680   45.8950   -6.8950 O   0  0  0  0  0  0  0  0  0  0  0  0
   33.0570   46.8430   -5.9130 O   0  0  0  0  0  0  0  0  0  0  0  0
   32.7960   44.4590   -5.7370 C   0  0  0  0  0  0  0  0  0  0  0  0
  2  1  1  0
  2  3  2  0
  2  4  2  0
  2  5  1  0
  5  6  2  0
  5  7  1  0
  6  8  1  0
  7  9  2  0
  8 10  2  0
  9 10  1  0
 10 11  1  0
 11 12  1  0
 11 13  1  0
 11 14  1  0
M  END
