mac-x0132-mac-x0263
     RDKit          3D

 20 22  0  0  0  0  0  0  0  0999 V2000
   28.9770   51.4390   -7.2900 N   0  0  0  0  0  0  0  0  0  0  0  0
   29.9580   52.1440   -6.4930 C   0  0  1  0  0  0  0  0  0  0  0  0
   29.7160   53.5140   -6.8980 N   0  0  0  0  0  0  0  0  0  0  0  0
   29.8440   51.8480   -5.0070 C   0  0  0  0  0  0  0  0  0  0  0  0
   29.4680   52.8660   -4.1100 C   0  0  0  0  0  0  0  0  0  0  0  0
   28.8110   54.1850   -5.9710 C   0  0  1  0  0  0  0  0  0  0  0  0
   30.1090   50.5620   -4.4950 C   0  0  0  0  0  0  0  0  0  0  0  0
   29.1940   54.1470   -4.5750 N   0  0  0  0  0  0  0  0  0  0  0  0
   29.3650   52.5900   -2.7400 C   0  0  0  0  0  0  0  0  0  0  0  0
   30.0030   50.2990   -3.1300 C   0  0  0  0  0  0  0  0  0  0  0  0
   28.3480   55.6530   -6.4830 C   0  0  2  0  0  0  0  0  0  0  0  0
   27.4710   53.4790   -5.9990 C   0  0  0  0  0  0  0  0  0  0  0  0
   28.3280   56.7770   -5.4300 C   0  0  0  0  0  0  0  0  0  0  0  0
   29.6320   51.3140   -2.2530 C   0  0  0  0  0  0  0  0  0  0  0  0
   26.5230   54.2140   -6.5860 C   0  0  0  0  0  0  0  0  0  0  0  0
   26.9810   55.4330   -7.0280 N   0  0  0  0  0  0  0  0  0  0  0  0
   27.1200   57.7090   -5.5400 C   0  0  0  0  0  0  0  0  0  0  0  0
   27.5300   59.1590   -5.5660 C   0  0  0  0  0  0  0  0  0  0  0  0
   28.7200   59.4010   -4.9680 O   0  0  0  0  0  0  0  0  0  0  0  0
   26.8560   60.0470   -6.0700 O   0  0  0  0  0  0  0  0  0  0  0  0
  2  1  1  6
  2  3  1  0
  2  4  1  0
  4  5  2  0
  3  6  1  0
  4  7  1  0
  5  8  1  0
  6  8  1  0
  5  9  1  0
  7 10  2  0
  6 11  1  0
  6 12  1  1
 11 13  1  1
  9 14  2  0
 10 14  1  0
 12 15  2  0
 11 16  1  0
 15 16  1  0
 13 17  1  0
 17 18  1  0
 18 19  1  0
 18 20  2  0
M  END
