mac-x0282-mac-x0271
     RDKit          3D

 16 18  0  0  0  0  0  0  0  0999 V2000
   29.8780   50.2750   -3.7460 O   0  0  0  0  0  0  0  0  0  0  0  0
   28.8990   50.5600   -4.7560 C   0  0  1  0  0  0  0  0  0  0  0  0
   29.1450   51.9070   -5.6020 C   0  0  1  0  0  0  0  0  0  0  0  0
   29.0090   49.4770   -5.8020 C   0  0  0  0  0  0  0  0  0  0  0  0
   29.2190   50.0370   -7.0440 C   0  0  0  0  0  0  0  0  0  0  0  0
   29.3050   51.4560   -7.0080 N   0  0  0  0  0  0  0  0  0  0  0  0
   28.9280   48.0930   -5.6760 C   0  0  0  0  0  0  0  0  0  0  0  0
   28.0140   52.9440   -5.7320 C   0  0  0  0  0  0  0  0  0  0  0  0
   30.3790   52.7010   -5.0830 C   0  0  0  0  0  0  0  0  0  0  0  0
   29.0570   47.3250   -6.8350 C   0  0  0  0  0  0  0  0  0  0  0  0
   29.3390   49.3260   -8.1750 N   0  0  0  0  0  0  0  0  0  0  0  0
   28.0720   54.2220   -5.2660 C   0  0  0  0  0  0  0  0  0  0  0  0
   30.0990   53.7930   -4.1600 O   0  0  0  0  0  0  0  0  0  0  0  0
   29.2540   47.9780   -8.0450 C   0  0  0  0  0  0  0  0  0  0  0  0
   29.2340   54.7540   -4.5480 C   0  0  0  0  0  0  0  0  0  0  0  0
   29.3740   55.9570   -4.3250 O   0  0  0  0  0  0  0  0  0  0  0  0
  2  1  1  1
  2  3  1  0
  2  4  1  0
  4  5  2  0
  3  6  1  0
  5  6  1  0
  4  7  1  0
  3  8  1  6
  3  9  1  0
  7 10  2  0
  5 11  1  0
  8 12  2  0
  9 13  1  0
 10 14  1  0
 11 14  2  0
 12 15  1  0
 13 15  1  0
 15 16  2  0
M  END
