mac-x0193-mac-x0319
     RDKit          3D

 21 22  0  0  0  0  0  0  0  0999 V2000
   34.4540   45.8010   -6.5500 O   0  0  0  0  0  0  0  0  0  0  0  0
   33.3280   45.3230   -5.9850 C   0  0  0  0  0  0  0  0  0  0  0  0
   32.3540   45.0600   -6.6820 O   0  0  0  0  0  0  0  0  0  0  0  0
   33.4290   45.1760   -4.4610 C   0  0  2  0  0  0  0  0  0  0  0  0
   34.1170   43.9110   -4.1560 N   0  0  0  0  0  0  0  0  0  0  0  0
   32.0370   45.3740   -3.8530 C   0  0  0  0  0  0  0  0  0  0  0  0
   34.5860   43.5410   -2.9090 C   0  0  0  0  0  0  0  0  0  0  0  0
   30.9720   44.4500   -3.9560 C   0  0  0  0  0  0  0  0  0  0  0  0
   31.8120   46.5700   -3.1540 C   0  0  0  0  0  0  0  0  0  0  0  0
   33.9090   42.8920   -2.1330 O   0  0  0  0  0  0  0  0  0  0  0  0
   35.8820   43.9250   -2.6240 N   0  0  0  0  0  0  0  0  0  0  0  0
   29.7340   44.7440   -3.3650 C   0  0  0  0  0  0  0  0  0  0  0  0
   30.5750   46.8480   -2.5710 C   0  0  0  0  0  0  0  0  0  0  0  0
   28.7280   43.8280   -3.4860 O   0  0  0  0  0  0  0  0  0  0  0  0
   36.7750   43.0150   -1.8930 C   0  0  0  0  0  0  0  0  0  0  0  0
   29.5310   45.9340   -2.6750 C   0  0  0  0  0  0  0  0  0  0  0  0
   37.9350   42.5470   -2.7730 C   0  0  0  0  0  0  0  0  0  0  0  0
   37.3160   43.6140   -0.5820 C   0  0  0  0  0  0  0  0  0  0  0  0
   38.8580   41.5640   -2.0520 C   0  0  0  0  0  0  0  0  0  0  0  0
   38.2350   42.6380    0.1610 C   0  0  0  0  0  0  0  0  0  0  0  0
   39.3670   42.1270   -0.7260 C   0  0  0  0  0  0  0  0  0  0  0  0
  1  2  1  0
  2  3  2  0
  2  4  1  0
  4  5  1  6
  4  6  1  0
  5  7  1  0
  6  8  2  0
  6  9  1  0
  7 10  2  0
  7 11  1  0
  8 12  1  0
  9 13  2  0
 12 14  1  0
 11 15  1  0
 12 16  2  0
 13 16  1  0
 15 17  1  0
 15 18  1  0
 17 19  1  0
 18 20  1  0
 19 21  1  0
 20 21  1  0
M  END
