mac-x0365-mac-x0231
     RDKit          3D

 26 28  0  0  0  0  0  0  0  0999 V2000
   27.0670   48.8390   -2.8620 O   0  0  0  0  0  0  0  0  0  0  0  0
   28.3600   48.6290   -3.1030 C   0  0  0  0  0  0  0  0  0  0  0  0
   28.8310   47.4890   -2.7500 N   0  0  0  0  0  0  0  0  0  0  0  0
   28.9160   49.8250   -3.7360 C   0  0  0  0  0  0  0  0  0  0  0  0
   29.4440   50.8030   -2.8980 C   0  0  0  0  0  0  0  0  0  0  0  0
   28.9100   49.9960   -5.1290 C   0  0  0  0  0  0  0  0  0  0  0  0
   30.1560   47.1680   -3.0020 C   0  0  0  0  0  0  0  0  0  0  0  0
   29.9620   51.9590   -3.4530 C   0  0  0  0  0  0  0  0  0  0  0  0
   29.4370   51.1690   -5.6790 C   0  0  0  0  0  0  0  0  0  0  0  0
   30.4930   45.9190   -3.5220 C   0  0  0  0  0  0  0  0  0  0  0  0
   31.1580   48.1130   -2.7380 C   0  0  0  0  0  0  0  0  0  0  0  0
   30.4620   52.8940   -2.6330 F   0  0  0  0  0  0  0  0  0  0  0  0
   29.9600   52.1510   -4.8320 C   0  0  0  0  0  0  0  0  0  0  0  0
   31.8220   45.6210   -3.8030 C   0  0  0  0  0  0  0  0  0  0  0  0
   29.4780   44.8750   -3.7930 C   0  0  0  0  0  0  0  0  0  0  0  0
   32.4890   47.8160   -3.0030 C   0  0  0  0  0  0  0  0  0  0  0  0
   30.4750   53.3120   -5.3320 O   0  0  0  0  0  0  0  0  0  0  0  0
   28.2660   45.0780   -3.8450 O   0  0  0  0  0  0  0  0  0  0  0  0
   32.0990   44.2840   -4.3890 C   0  0  0  0  0  0  0  0  0  0  0  0
   29.9760   43.6100   -3.9700 N   0  0  0  0  0  0  0  0  0  0  0  0
   32.8270   46.5720   -3.5400 C   0  0  0  0  0  0  0  0  0  0  0  0
   33.4540   43.9880   -4.9840 C   0  0  0  0  0  0  0  0  0  0  0  0
   31.2070   43.3380   -4.4590 N   0  0  0  0  0  0  0  0  0  0  0  0
   33.6410   44.6440   -6.3200 C   0  0  0  0  0  0  0  0  0  0  0  0
   34.9010   45.0850   -6.5060 O   0  0  0  0  0  0  0  0  0  0  0  0
   32.7990   44.8040   -7.1920 O   0  0  0  0  0  0  0  0  0  0  0  0
  1  2  1  0
  2  3  2  3
  2  4  1  0
  4  5  2  0
  4  6  1  0
  3  7  1  0
  5  8  1  0
  6  9  2  0
  7 10  1  0
  7 11  2  0
  8 12  1  0
  8 13  2  0
  9 13  1  0
 10 14  2  0
 10 15  1  0
 11 16  1  0
 13 17  1  0
 15 18  2  0
 14 19  1  0
 15 20  1  0
 14 21  1  0
 16 21  2  0
 19 22  1  0
 19 23  2  0
 20 23  1  0
 22 24  1  0
 24 25  1  0
 24 26  2  0
M  END
