mac-x0576-mac-x0360
     RDKit          3D

 24 26  0  0  0  0  0  0  0  0999 V2000
   28.7770   47.3590   -9.1120 N   0  0  0  0  0  0  0  0  0  0  0  0
   29.4840   48.3410   -8.3390 C   0  0  1  0  0  0  0  0  0  0  0  0
   28.8550   49.5530   -8.7640 N   0  0  0  0  0  0  0  0  0  0  0  0
   29.5620   48.0540   -6.9360 N   0  0  0  0  0  0  0  0  0  0  0  0
   29.7930   49.0830   -6.0510 C   0  0  0  0  0  0  0  0  0  0  0  0
   28.1960   50.1750   -7.6410 C   0  0  1  0  0  0  0  0  0  0  0  0
   30.5320   49.0300   -4.9720 N   0  0  0  0  0  0  0  0  0  0  0  0
   29.1010   50.4180   -6.4100 C   0  0  1  0  0  0  0  0  0  0  0  0
   27.6780   51.4320   -8.1000 N   0  0  0  0  0  0  0  0  0  0  0  0
   30.8360   50.2280   -3.9190 S   0  0  0  0  0  0  0  0  0  0  0  0
   27.3910   52.4330   -7.2010 C   0  0  0  0  0  0  0  0  0  0  0  0
   28.2470   50.8940   -5.3070 N   0  0  0  0  0  0  0  0  0  0  0  0
   26.9360   53.5000   -7.6190 O   0  0  0  0  0  0  0  0  0  0  0  0
   29.6580   51.0440   -3.7250 O   0  0  0  0  0  0  0  0  0  0  0  0
   31.5310   49.6900   -2.7590 O   0  0  0  0  0  0  0  0  0  0  0  0
   27.6430   52.1990   -5.6880 C   0  0  0  0  0  0  0  0  0  0  0  0
   32.0190   51.2560   -4.7800 C   0  0  0  0  0  0  0  0  0  0  0  0
   33.1940   50.7020   -5.2950 C   0  0  0  0  0  0  0  0  0  0  0  0
   31.7430   52.6230   -4.9270 C   0  0  0  0  0  0  0  0  0  0  0  0
   34.0960   51.5290   -5.9630 C   0  0  0  0  0  0  0  0  0  0  0  0
   32.6610   53.4290   -5.5980 C   0  0  0  0  0  0  0  0  0  0  0  0
   32.3390   55.1090   -5.7900 Cl  0  0  0  0  0  0  0  0  0  0  0  0
   35.5500   50.8650   -6.6030 Cl  0  0  0  0  0  0  0  0  0  0  0  0
   33.8380   52.8920   -6.1180 C   0  0  0  0  0  0  0  0  0  0  0  0
  2  1  1  6
  2  3  1  0
  2  4  1  0
  4  5  1  0
  6  3  1  6
  5  7  2  3
  5  8  1  0
  6  8  1  0
  6  9  1  0
 10  7  1  0
  9 11  1  0
  8 12  1  1
 11 13  2  0
 10 14  2  0
 10 15  2  0
 11 16  1  0
 12 16  1  0
 10 17  1  0
 17 18  2  0
 17 19  1  0
 18 20  1  0
 19 21  2  0
 21 22  1  0
 20 23  1  0
 20 24  2  0
 21 24  1  0
M  END
