mac-x0472-mac-x0371
     RDKit          3D

 26 28  0  0  0  0  0  0  0  0999 V2000
   29.9220   50.1660   -3.3180 O   0  0  0  0  0  0  0  0  0  0  0  0
   30.8180   49.2400   -3.9860 S   0  0  1  0  0  0  0  0  0  0  0  0
   31.4140   47.9530   -3.3300 N   0  0  0  0  0  0  0  0  0  0  0  0
   29.9170   48.7680   -5.3160 N   0  0  0  0  0  0  0  0  0  0  0  0
   32.1710   50.2510   -4.5630 C   0  0  0  0  0  0  0  0  0  0  0  0
   29.3850   49.6470   -6.2000 C   0  0  0  0  0  0  0  0  0  0  0  0
   33.3580   49.6530   -4.9820 C   0  0  0  0  0  0  0  0  0  0  0  0
   32.0320   51.6480   -4.5940 C   0  0  0  0  0  0  0  0  0  0  0  0
   30.9950   46.5420   -3.6190 C   0  0  0  0  0  0  0  0  0  0  0  0
   29.1410   49.3160   -7.4610 N   0  0  0  0  0  0  0  0  0  0  0  0
   28.9440   51.2860   -5.8710 S   0  0  0  0  0  0  0  0  0  0  0  0
   34.4140   50.4450   -5.4340 C   0  0  0  0  0  0  0  0  0  0  0  0
   33.0950   52.4340   -5.0490 C   0  0  0  0  0  0  0  0  0  0  0  0
   31.8750   45.6300   -4.2660 C   0  0  0  0  0  0  0  0  0  0  0  0
   29.7150   46.1070   -3.2370 C   0  0  0  0  0  0  0  0  0  0  0  0
   33.2610   46.0820   -4.6790 C   0  0  0  0  0  0  0  0  0  0  0  0
   28.4450   51.4280   -7.4970 C   0  0  0  0  0  0  0  0  0  0  0  0
   28.5990   50.3370   -8.2120 N   0  0  0  0  0  0  0  0  0  0  0  0
   34.2830   51.8340   -5.4680 C   0  0  0  0  0  0  0  0  0  0  0  0
   29.2900   44.8000   -3.4800 C   0  0  0  0  0  0  0  0  0  0  0  0
   31.4240   44.3110   -4.5010 C   0  0  0  0  0  0  0  0  0  0  0  0
   32.4050   43.1070   -5.2770 Cl  0  0  0  0  0  0  0  0  0  0  0  0
   33.4440   46.3730   -6.1500 C   0  0  0  0  0  0  0  0  0  0  0  0
   30.1450   43.9030   -4.1120 C   0  0  0  0  0  0  0  0  0  0  0  0
   32.2820   46.2810   -6.8340 O   0  0  0  0  0  0  0  0  0  0  0  0
   34.4870   46.6650   -6.7190 O   0  0  0  0  0  0  0  0  0  0  0  0
  1  2  2  0
  2  3  2  0
  2  4  1  6
  2  5  1  0
  4  6  1  0
  5  7  2  0
  5  8  1  0
  3  9  1  0
  6 10  2  0
  6 11  1  0
  7 12  1  0
  8 13  2  0
  9 14  2  0
  9 15  1  0
 14 16  1  0
 11 17  1  0
 10 18  1  0
 17 18  2  0
 12 19  2  0
 13 19  1  0
 15 20  2  0
 14 21  1  0
 21 22  1  0
 16 23  1  0
 20 24  1  0
 21 24  2  0
 23 25  1  0
 23 26  2  0
M  END
