mac-x0392-mac-x0455
     RDKit          3D

 19 20  0  0  0  0  0  0  0  0999 V2000
   29.9710   47.8960   -8.1940 N   0  0  0  0  0  0  0  0  0  0  0  0
   29.3420   48.6450   -7.1920 C   0  0  0  0  0  0  0  0  0  0  0  0
   28.3430   49.5680   -7.5160 C   0  0  0  0  0  0  0  0  0  0  0  0
   29.6620   48.5230   -5.8250 C   0  0  0  0  0  0  0  0  0  0  0  0
   30.7040   47.5790   -5.3410 C   0  0  0  0  0  0  0  0  0  0  0  0
   28.9800   49.3130   -4.8850 C   0  0  0  0  0  0  0  0  0  0  0  0
   27.6740   50.3390   -6.6260 N   0  0  0  0  0  0  0  0  0  0  0  0
   31.5430   47.9160   -4.3180 C   0  0  0  0  0  0  0  0  0  0  0  0
   30.8460   46.2300   -5.9780 C   0  0  0  0  0  0  0  0  0  0  0  0
   28.0090   50.1930   -5.3300 C   0  0  0  0  0  0  0  0  0  0  0  0
   31.5000   49.1350   -3.6580 O   0  0  0  0  0  0  0  0  0  0  0  0
   30.2200   45.2440   -5.6010 O   0  0  0  0  0  0  0  0  0  0  0  0
   31.7110   46.1610   -7.0130 O   0  0  0  0  0  0  0  0  0  0  0  0
   32.6120   47.0610   -3.7540 C   0  0  0  0  0  0  0  0  0  0  0  0
   33.9680   47.3800   -3.9260 C   0  0  0  0  0  0  0  0  0  0  0  0
   32.2770   45.9070   -3.0290 C   0  0  0  0  0  0  0  0  0  0  0  0
   34.9640   46.5640   -3.3850 C   0  0  0  0  0  0  0  0  0  0  0  0
   33.2750   45.0910   -2.4880 C   0  0  0  0  0  0  0  0  0  0  0  0
   34.6180   45.4200   -2.6670 C   0  0  0  0  0  0  0  0  0  0  0  0
  1  2  1  0
  2  3  2  0
  2  4  1  0
  4  5  1  0
  4  6  2  0
  3  7  1  0
  5  8  2  3
  5  9  1  0
  6 10  1  0
  7 10  2  0
  8 11  1  0
  9 12  2  0
  9 13  1  0
  8 14  1  0
 14 15  2  0
 14 16  1  0
 15 17  1  0
 16 18  2  0
 17 19  2  0
 18 19  1  0
M  END
