mac-x0255-mac-x0190
     RDKit          3D

 26 29  0  0  0  0  0  0  0  0999 V2000
   31.4960   45.4560   -7.5770 O   0  0  0  0  0  0  0  0  0  0  0  0
   32.6010   45.3840   -6.8050 C   0  0  0  0  0  0  0  0  0  0  0  0
   33.5920   46.0620   -7.0520 O   0  0  0  0  0  0  0  0  0  0  0  0
   32.5290   44.4210   -5.6420 C   0  0  0  0  0  0  0  0  0  0  0  0
   31.4500   44.8020   -4.6740 C   0  0  0  0  0  0  0  0  0  0  0  0
   30.4820   44.0180   -4.0820 C   0  0  0  0  0  0  0  0  0  0  0  0
   31.3090   46.4200   -4.1630 S   0  0  0  0  0  0  0  0  0  0  0  0
   29.6120   44.7480   -3.2000 C   0  0  0  0  0  0  0  0  0  0  0  0
   29.9450   46.1060   -3.1440 C   0  0  0  0  0  0  0  0  0  0  0  0
   28.5200   44.2940   -2.4260 C   0  0  0  0  0  0  0  0  0  0  0  0
   29.2150   47.0300   -2.3440 C   0  0  0  0  0  0  0  0  0  0  0  0
   29.5420   48.5120   -2.2870 C   0  0  0  0  0  0  0  0  0  0  0  0
   27.7980   45.1800   -1.6300 C   0  0  0  0  0  0  0  0  0  0  0  0
   28.1410   46.5260   -1.5900 C   0  0  0  0  0  0  0  0  0  0  0  0
   30.1570   48.9330   -3.6380 C   0  0  0  0  0  0  0  0  0  0  0  0
   29.7680   50.2780   -4.2200 C   0  0  0  0  0  0  0  0  0  0  0  0
   30.1330   51.4670   -3.5700 C   0  0  0  0  0  0  0  0  0  0  0  0
   29.0520   50.3180   -5.4330 C   0  0  0  0  0  0  0  0  0  0  0  0
   29.7730   52.6630   -4.1920 C   0  0  0  0  0  0  0  0  0  0  0  0
   28.6980   51.5340   -6.0290 C   0  0  0  0  0  0  0  0  0  0  0  0
   29.9770   53.9680   -3.8520 N   0  0  0  0  0  0  0  0  0  0  0  0
   29.0750   52.7250   -5.3920 C   0  0  0  0  0  0  0  0  0  0  0  0
   29.4270   54.7670   -4.8220 C   0  0  0  0  0  0  0  0  0  0  0  0
   28.8660   54.0360   -5.7710 N   0  0  0  0  0  0  0  0  0  0  0  0
   29.5090   56.2470   -4.7250 C   0  0  0  0  0  0  0  0  0  0  0  0
   28.5090   56.7970   -5.5750 O   0  0  0  0  0  0  0  0  0  0  0  0
  1  2  1  0
  2  3  2  0
  2  4  1  0
  4  5  1  0
  5  6  2  0
  5  7  1  0
  6  8  1  0
  7  9  1  0
  8  9  2  0
  8 10  1  0
  9 11  1  0
 11 12  1  0
 10 13  2  0
 11 14  2  0
 13 14  1  0
 12 15  1  0
 15 16  1  0
 16 17  2  0
 16 18  1  0
 17 19  1  0
 18 20  2  0
 19 21  1  0
 19 22  2  0
 20 22  1  0
 21 23  1  0
 22 24  1  0
 23 24  2  0
 23 25  1  0
 25 26  1  0
M  END
