mac-x0412-mac-x0439
     RDKit          3D

 26 29  0  0  0  0  0  0  0  0999 V2000
   29.7870   54.4180   -3.8730 O   0  0  0  0  0  0  0  0  0  0  0  0
   29.2440   53.7530   -4.7550 C   0  0  0  0  0  0  0  0  0  0  0  0
   28.8120   54.3590   -5.9260 N   0  0  0  0  0  0  0  0  0  0  0  0
   29.0140   52.2220   -4.5780 C   0  0  1  0  0  0  0  0  0  0  0  0
   28.8790   51.5060   -5.9110 C   0  0  0  0  0  0  0  0  0  0  0  0
   28.5480   53.6270   -6.9550 C   0  0  0  0  0  0  0  0  0  0  0  0
   30.0600   51.5510   -3.7110 C   0  0  0  0  0  0  0  0  0  0  0  0
   28.6550   52.1640   -7.0530 C   0  0  0  0  0  0  0  0  0  0  0  0
   29.0030   50.0630   -5.8600 C   0  0  0  0  0  0  0  0  0  0  0  0
   30.3930   50.2490   -3.8590 C   0  0  0  0  0  0  0  0  0  0  0  0
   31.4350   49.5250   -3.0350 C   0  0  0  0  0  0  0  0  0  0  0  0
   29.7130   49.4760   -4.8900 C   0  0  0  0  0  0  0  0  0  0  0  0
   31.3400   47.9910   -2.9520 C   0  0  0  0  0  0  0  0  0  0  0  0
   30.3230   47.4990   -1.9210 C   0  0  0  0  0  0  0  0  0  0  0  0
   29.6610   46.1560   -2.1010 C   0  0  0  0  0  0  0  0  0  0  0  0
   30.2500   45.0670   -2.9710 C   0  0  2  0  0  0  0  0  0  0  0  0
   28.5090   45.8770   -1.4490 C   0  0  0  0  0  0  0  0  0  0  0  0
   30.9110   45.2710   -4.2910 C   0  0  0  0  0  0  0  0  0  0  0  0
   29.1320   44.1800   -3.5000 C   0  0  0  0  0  0  0  0  0  0  0  0
   27.8390   44.5940   -1.5680 C   0  0  0  0  0  0  0  0  0  0  0  0
   30.2760   44.5520   -5.2360 C   0  0  0  0  0  0  0  0  0  0  0  0
   29.1700   43.8780   -4.7620 N   0  0  0  0  0  0  0  0  0  0  0  0
   28.1060   43.7240   -2.5530 C   0  0  0  0  0  0  0  0  0  0  0  0
   30.6900   44.4660   -6.6670 C   0  0  0  0  0  0  0  0  0  0  0  0
   30.4450   43.2490   -7.1970 O   0  0  0  0  0  0  0  0  0  0  0  0
   31.2010   45.3480   -7.3330 O   0  0  0  0  0  0  0  0  0  0  0  0
  1  2  2  0
  2  3  1  0
  2  4  1  0
  4  5  1  0
  3  6  2  0
  4  7  1  6
  5  8  2  0
  6  8  1  0
  5  9  1  0
  7 10  2  0
 10 11  1  0
  9 12  2  0
 10 12  1  0
 11 13  1  0
 13 14  1  0
 14 15  1  0
 15 16  1  0
 15 17  2  0
 16 18  1  6
 16 19  1  0
 17 20  1  0
 18 21  2  0
 19 22  2  0
 21 22  1  0
 19 23  1  0
 20 23  2  0
 21 24  1  0
 24 25  1  0
 24 26  2  0
M  END
