mac-x0139-mac-x0282
     RDKit          3D

 16 17  0  0  0  0  0  0  0  0999 V2000
   30.4050   47.4500   -4.4450 C   0  0  0  0  0  0  0  0  0  0  0  0
   29.7620   46.6960   -5.5490 N   0  0  0  0  0  0  0  0  0  0  0  0
   30.4780   45.4020   -5.8070 C   0  0  0  0  0  0  0  0  0  0  0  0
   29.2930   47.4350   -6.6730 C   0  0  0  0  0  0  0  0  0  0  0  0
   31.9910   45.5590   -5.6700 C   0  0  0  0  0  0  0  0  0  0  0  0
   29.2670   48.7920   -6.6520 C   0  0  0  0  0  0  0  0  0  0  0  0
   28.8570   46.7280   -7.8030 N   0  0  0  0  0  0  0  0  0  0  0  0
   32.7340   44.8180   -6.7560 C   0  0  0  0  0  0  0  0  0  0  0  0
   28.7680   49.5050   -7.8540 C   0  0  0  0  0  0  0  0  0  0  0  0
   28.4300   47.4000   -8.8270 C   0  0  0  0  0  0  0  0  0  0  0  0
   29.6030   49.8470   -5.7500 C   0  0  0  0  0  0  0  0  0  0  0  0
   32.2010   44.0380   -7.5320 O   0  0  0  0  0  0  0  0  0  0  0  0
   34.0590   45.0900   -6.8000 O   0  0  0  0  0  0  0  0  0  0  0  0
   28.3680   48.7560   -8.9070 N   0  0  0  0  0  0  0  0  0  0  0  0
   28.7950   50.7990   -7.6960 N   0  0  0  0  0  0  0  0  0  0  0  0
   29.3050   50.9770   -6.4170 C   0  0  0  0  0  0  0  0  0  0  0  0
  1  2  1  0
  2  3  1  0
  2  4  1  0
  3  5  1  0
  4  6  2  0
  4  7  1  0
  5  8  1  0
  6  9  1  0
  7 10  2  0
  6 11  1  0
  8 12  2  0
  8 13  1  0
  9 14  1  0
 10 14  1  0
  9 15  2  0
 11 16  2  0
 15 16  1  0
M  END
