mac-x0139-mac-x0348
     RDKit          3D

 27 30  0  0  0  0  0  0  0  0999 V2000
   30.6300   48.1730   -4.4020 C   0  0  0  0  0  0  0  0  0  0  0  0
   29.9790   47.1560   -5.2090 N   0  0  0  0  0  0  0  0  0  0  0  0
   30.3970   45.7480   -4.8870 C   0  0  1  0  0  0  0  0  0  0  0  0
   29.4770   47.5790   -6.4710 C   0  0  0  0  0  0  0  0  0  0  0  0
   31.8920   45.4550   -5.3080 C   0  0  1  0  0  0  0  0  0  0  0  0
   29.2910   48.9040   -6.6530 C   0  0  0  0  0  0  0  0  0  0  0  0
   29.1790   46.6720   -7.5030 N   0  0  0  0  0  0  0  0  0  0  0  0
   30.0910   45.5160   -3.3180 C   0  0  2  0  0  0  0  0  0  0  0  0
   32.1650   44.9200   -6.7040 C   0  0  0  0  0  0  0  0  0  0  0  0
   32.8580   46.6160   -5.1330 C   0  0  0  0  0  0  0  0  0  0  0  0
   28.7740   49.3830   -7.9510 C   0  0  0  0  0  0  0  0  0  0  0  0
   28.7250   47.1440   -8.6280 C   0  0  0  0  0  0  0  0  0  0  0  0
   29.4550   50.1080   -5.9030 C   0  0  0  0  0  0  0  0  0  0  0  0
   28.7460   44.7940   -3.0290 C   0  0  0  0  0  0  0  0  0  0  0  0
   29.8000   46.7190   -2.3420 C   0  0  1  0  0  0  0  0  0  0  0  0
   31.3780   44.4950   -7.5310 O   0  0  0  0  0  0  0  0  0  0  0  0
   33.4860   44.9550   -7.0040 O   0  0  0  0  0  0  0  0  0  0  0  0
   28.5090   48.4590   -8.9030 N   0  0  0  0  0  0  0  0  0  0  0  0
   28.6490   50.6820   -7.9820 N   0  0  0  0  0  0  0  0  0  0  0  0
   29.0690   51.0920   -6.7240 C   0  0  0  0  0  0  0  0  0  0  0  0
   28.5350   44.8730   -1.5660 N   0  0  0  0  0  0  0  0  0  0  0  0
   29.3780   45.9680   -1.0660 C   0  0  2  0  0  0  0  0  0  0  0  0
   30.7270   47.8370   -1.9360 C   0  0  0  0  0  0  0  0  0  0  0  0
   27.1400   44.9090   -1.1580 C   0  0  0  0  0  0  0  0  0  0  0  0
   30.4940   48.5040   -0.7800 C   0  0  0  0  0  0  0  0  0  0  0  0
   28.8080   46.9200   -0.0560 C   0  0  0  0  0  0  0  0  0  0  0  0
   29.3660   48.1420    0.0660 C   0  0  0  0  0  0  0  0  0  0  0  0
  1  2  1  0
  3  2  1  1
  2  4  1  0
  3  5  1  0
  4  6  2  0
  4  7  1  0
  3  8  1  0
  5  9  1  0
  5 10  1  6
  6 11  1  0
  7 12  2  0
  6 13  1  0
  8 14  1  6
  8 15  1  0
  9 16  2  0
  9 17  1  0
 11 18  1  0
 12 18  1  0
 11 19  2  0
 13 20  2  0
 19 20  1  0
 14 21  1  0
 15 22  1  0
 21 22  1  0
 15 23  1  1
 21 24  1  0
 23 25  2  0
 22 26  1  1
 25 27  1  0
 26 27  2  0
M  END
