mac-x0131-mac-x0439
     RDKit          3D

 30 34  0  0  0  0  0  0  0  0999 V2000
   30.7940   47.2810   -3.1910 C   0  0  0  0  0  0  0  0  0  0  0  0
   30.3490   48.1010   -4.3770 C   0  0  0  0  0  0  0  0  0  0  0  0
   29.3510   49.0760   -4.4480 C   0  0  0  0  0  0  0  0  0  0  0  0
   29.7800   46.2860   -2.6760 C   0  0  0  0  0  0  0  0  0  0  0  0
   30.9050   47.9950   -5.6460 N   0  0  0  0  0  0  0  0  0  0  0  0
   28.8290   45.6110   -3.6260 C   0  0  1  0  0  0  0  0  0  0  0  0
   29.6850   45.9700   -1.3610 C   0  0  0  0  0  0  0  0  0  0  0  0
   28.4770   49.5390   -3.3350 C   0  0  0  0  0  0  0  0  0  0  0  0
   31.9860   47.1110   -6.0810 C   0  0  0  0  0  0  0  0  0  0  0  0
   29.3130   49.5590   -5.7990 C   0  0  0  0  0  0  0  0  0  0  0  0
   30.2840   48.8690   -6.5050 C   0  0  0  0  0  0  0  0  0  0  0  0
   29.2640   45.1490   -4.9800 C   0  0  0  0  0  0  0  0  0  0  0  0
   28.5550   44.2150   -3.0800 C   0  0  0  0  0  0  0  0  0  0  0  0
   28.7000   45.0110   -0.8740 C   0  0  0  0  0  0  0  0  0  0  0  0
   28.5710   50.5070   -6.5340 C   0  0  0  0  0  0  0  0  0  0  0  0
   30.5830   49.0130   -7.8080 N   0  0  0  0  0  0  0  0  0  0  0  0
   32.9780   46.9050   -5.0010 C   0  0  0  0  0  0  0  0  0  0  0  0
   29.1820   43.8080   -5.0470 C   0  0  0  0  0  0  0  0  0  0  0  0
   28.7470   43.2150   -3.8850 N   0  0  0  0  0  0  0  0  0  0  0  0
   28.1100   44.1210   -1.6840 C   0  0  0  0  0  0  0  0  0  0  0  0
   27.5590   51.2970   -6.0050 N   0  0  0  0  0  0  0  0  0  0  0  0
   29.5360   43.0250   -6.2680 C   0  0  0  0  0  0  0  0  0  0  0  0
   28.8410   50.6810   -7.8400 N   0  0  0  0  0  0  0  0  0  0  0  0
   29.8140   49.9400   -8.3970 C   0  0  0  0  0  0  0  0  0  0  0  0
   33.4990   45.7800   -4.3960 C   0  0  0  0  0  0  0  0  0  0  0  0
   33.5290   48.0260   -4.4490 O   0  0  0  0  0  0  0  0  0  0  0  0
   30.3360   41.9700   -5.9840 O   0  0  0  0  0  0  0  0  0  0  0  0
   29.1550   43.2880   -7.3970 O   0  0  0  0  0  0  0  0  0  0  0  0
   34.3960   47.6110   -3.4920 C   0  0  0  0  0  0  0  0  0  0  0  0
   34.4140   46.2390   -3.4210 C   0  0  0  0  0  0  0  0  0  0  0  0
  1  2  1  0
  2  3  2  0
  1  4  1  0
  2  5  1  0
  4  6  1  0
  4  7  2  0
  3  8  1  0
  5  9  1  0
  3 10  1  0
  5 11  1  0
 10 11  2  0
  6 12  1  6
  6 13  1  0
  7 14  1  0
 10 15  1  0
 11 16  1  0
  9 17  1  0
 12 18  2  0
 13 19  2  0
 18 19  1  0
 13 20  1  0
 14 20  2  0
 15 21  1  0
 18 22  1  0
 15 23  2  0
 16 24  2  0
 23 24  1  0
 17 25  2  0
 17 26  1  0
 22 27  1  0
 22 28  2  0
 26 29  1  0
 25 30  1  0
 29 30  2  0
M  END
