mac-x0193-mac-x0455
     RDKit          3D

 25 26  0  0  0  0  0  0  0  0999 V2000
   34.2170   45.1230   -6.7150 O   0  0  0  0  0  0  0  0  0  0  0  0
   33.1510   45.0710   -5.8840 C   0  0  0  0  0  0  0  0  0  0  0  0
   32.1760   45.8890   -6.1340 N   0  0  0  0  0  0  0  0  0  0  0  0
   33.2840   44.0300   -4.7720 C   0  0  0  0  0  0  0  0  0  0  0  0
   34.6750   43.6550   -4.5940 N   0  0  0  0  0  0  0  0  0  0  0  0
   31.0680   45.8590   -5.3060 C   0  0  0  0  0  0  0  0  0  0  0  0
   35.1030   43.1140   -3.4140 C   0  0  0  0  0  0  0  0  0  0  0  0
   31.0500   47.0150   -4.2460 C   0  0  1  0  0  0  0  0  0  0  0  0
   30.1870   45.0060   -5.3990 O   0  0  0  0  0  0  0  0  0  0  0  0
   34.6860   42.0280   -3.0150 O   0  0  0  0  0  0  0  0  0  0  0  0
   36.0170   43.8990   -2.7660 N   0  0  0  0  0  0  0  0  0  0  0  0
   30.6010   48.3030   -4.9510 C   0  0  0  0  0  0  0  0  0  0  0  0
   30.0430   46.7430   -3.2510 O   0  0  0  0  0  0  0  0  0  0  0  0
   32.4060   47.1650   -3.5570 C   0  0  0  0  0  0  0  0  0  0  0  0
   37.2140   43.3450   -2.1360 C   0  0  0  0  0  0  0  0  0  0  0  0
   33.2980   48.1950   -3.9130 C   0  0  0  0  0  0  0  0  0  0  0  0
   32.8080   46.2780   -2.5400 C   0  0  0  0  0  0  0  0  0  0  0  0
   37.5680   41.9600   -2.6920 C   0  0  0  0  0  0  0  0  0  0  0  0
   37.0600   43.2780   -0.6060 C   0  0  0  0  0  0  0  0  0  0  0  0
   34.5360   48.3300   -3.2790 C   0  0  0  0  0  0  0  0  0  0  0  0
   34.0470   46.4140   -1.9080 C   0  0  0  0  0  0  0  0  0  0  0  0
   38.8460   41.3880   -2.0660 C   0  0  0  0  0  0  0  0  0  0  0  0
   38.1810   42.5150    0.1030 C   0  0  0  0  0  0  0  0  0  0  0  0
   34.9100   47.4420   -2.2800 C   0  0  0  0  0  0  0  0  0  0  0  0
   39.3250   42.1560   -0.8340 C   0  0  0  0  0  0  0  0  0  0  0  0
  1  2  1  0
  2  3  2  3
  2  4  1  0
  4  5  1  0
  3  6  1  0
  5  7  1  0
  6  8  1  0
  6  9  2  0
  7 10  2  0
  7 11  1  0
  8 12  1  6
  8 13  1  0
  8 14  1  0
 11 15  1  0
 14 16  2  0
 14 17  1  0
 15 18  1  0
 15 19  1  0
 16 20  1  0
 17 21  2  0
 18 22  1  0
 19 23  1  0
 20 24  2  0
 21 24  1  0
 22 25  1  0
 23 25  1  0
M  END
