mac-x0319-mac-x0576
     RDKit          3D

 24 26  0  0  0  0  0  0  0  0999 V2000
   34.8320   46.1200   -6.1730 O   0  0  0  0  0  0  0  0  0  0  0  0
   33.6460   45.5340   -5.9040 C   0  0  0  0  0  0  0  0  0  0  0  0
   32.9700   45.0920   -6.8190 O   0  0  0  0  0  0  0  0  0  0  0  0
   33.3390   45.5290   -4.4220 C   0  0  0  0  0  0  0  0  0  0  0  0
   31.8680   45.6330   -4.0950 C   0  0  0  0  0  0  0  0  0  0  0  0
   31.3560   45.2040   -2.8610 C   0  0  0  0  0  0  0  0  0  0  0  0
   30.9810   46.1640   -5.0390 C   0  0  0  0  0  0  0  0  0  0  0  0
   29.9900   45.3120   -2.6000 C   0  0  0  0  0  0  0  0  0  0  0  0
   29.6120   46.2690   -4.7740 C   0  0  0  0  0  0  0  0  0  0  0  0
   29.4590   44.9020   -1.4150 O   0  0  0  0  0  0  0  0  0  0  0  0
   28.7760   46.7900   -5.7680 N   0  0  0  0  0  0  0  0  0  0  0  0
   29.1190   45.8400   -3.5420 C   0  0  0  0  0  0  0  0  0  0  0  0
   28.7030   48.0250   -6.2130 C   0  0  0  0  0  0  0  0  0  0  0  0
   27.7970   48.1930   -7.2260 N   0  0  0  0  0  0  0  0  0  0  0  0
   29.4690   49.3070   -5.8130 C   0  0  1  0  0  0  0  0  0  0  0  0
   28.1830   48.9090   -8.3940 C   0  0  2  0  0  0  0  0  0  0  0  0
   29.0380   50.3800   -6.8590 C   0  0  2  0  0  0  0  0  0  0  0  0
   29.0960   49.8750   -4.4870 N   0  0  0  0  0  0  0  0  0  0  0  0
   28.7360   48.1240   -9.4580 N   0  0  0  0  0  0  0  0  0  0  0  0
   29.1770   49.9410   -8.2330 N   0  0  0  0  0  0  0  0  0  0  0  0
   29.7850   51.5840   -6.7030 N   0  0  0  0  0  0  0  0  0  0  0  0
   29.8260   51.1530   -4.2560 C   0  0  0  0  0  0  0  0  0  0  0  0
   29.8010   52.1360   -5.4490 C   0  0  0  0  0  0  0  0  0  0  0  0
   29.7910   53.3590   -5.3130 O   0  0  0  0  0  0  0  0  0  0  0  0
  1  2  1  0
  2  3  2  0
  2  4  1  0
  4  5  1  0
  5  6  2  0
  5  7  1  0
  6  8  1  0
  7  9  2  0
  8 10  1  0
  9 11  1  0
  8 12  2  0
  9 12  1  0
 11 13  2  3
 13 14  1  0
 13 15  1  0
 14 16  1  0
 15 17  1  0
 15 18  1  1
 16 19  1  6
 16 20  1  0
 17 20  1  6
 17 21  1  0
 18 22  1  0
 21 23  1  0
 22 23  1  0
 23 24  2  0
M  END
