mac-x0271-mac-x0453
     RDKit          3D

 15 16  0  0  0  0  0  0  0  0999 V2000
   30.2270   49.5840   -3.3770 O   0  0  0  0  0  0  0  0  0  0  0  0
   29.8650   50.7870   -3.9070 C   0  0  0  0  0  0  0  0  0  0  0  0
   29.5670   50.8300   -5.2680 C   0  0  0  0  0  0  0  0  0  0  0  0
   29.7930   51.9300   -3.1290 C   0  0  0  0  0  0  0  0  0  0  0  0
   29.4160   53.1220   -3.7420 C   0  0  0  0  0  0  0  0  0  0  0  0
   29.1860   52.0380   -5.8870 C   0  0  0  0  0  0  0  0  0  0  0  0
   28.8780   52.0070   -7.3730 C   0  0  0  0  0  0  0  0  0  0  0  0
   29.1080   53.2080   -5.1070 C   0  0  0  0  0  0  0  0  0  0  0  0
   29.3590   54.2620   -2.9060 O   0  0  0  0  0  0  0  0  0  0  0  0
   30.0260   52.5220   -8.2520 C   0  0  0  0  0  0  0  0  0  0  0  0
   28.7260   54.5180   -5.6300 C   0  0  0  0  0  0  0  0  0  0  0  0
   29.1610   55.5280   -3.4290 C   0  0  0  0  0  0  0  0  0  0  0  0
   29.3140   56.5460   -2.7680 O   0  0  0  0  0  0  0  0  0  0  0  0
   29.5580   53.3200   -9.3850 N   0  0  0  0  0  0  0  0  0  0  0  0
   28.7540   55.5940   -4.8380 C   0  0  0  0  0  0  0  0  0  0  0  0
  1  2  1  0
  2  3  2  0
  2  4  1  0
  4  5  2  0
  3  6  1  0
  6  7  1  0
  5  8  1  0
  6  8  2  0
  5  9  1  0
  7 10  1  0
  8 11  1  0
  9 12  1  0
 12 13  2  0
 10 14  1  0
 11 15  2  0
 12 15  1  0
M  END
