mac-x0223-mac-x0396
     RDKit          3D

 25 26  0  0  0  0  0  0  0  0999 V2000
   27.5340   43.6640   -2.1650 C   0  0  0  0  0  0  0  0  0  0  0  0
   27.6450   45.0570   -1.9020 O   0  0  0  0  0  0  0  0  0  0  0  0
   28.8130   45.6640   -2.2770 C   0  0  0  0  0  0  0  0  0  0  0  0
   29.0420   46.9430   -1.7520 C   0  0  0  0  0  0  0  0  0  0  0  0
   29.7680   45.0990   -3.1300 C   0  0  0  0  0  0  0  0  0  0  0  0
   28.1120   47.5030   -0.9180 O   0  0  0  0  0  0  0  0  0  0  0  0
   30.2000   47.6510   -2.0700 C   0  0  0  0  0  0  0  0  0  0  0  0
   30.9410   45.8000   -3.4600 C   0  0  0  0  0  0  0  0  0  0  0  0
   31.9730   45.1880   -4.3850 C   0  0  0  0  0  0  0  0  0  0  0  0
   31.1450   47.0790   -2.9210 C   0  0  0  0  0  0  0  0  0  0  0  0
   32.2990   46.0130   -5.6160 C   0  0  0  0  0  0  0  0  0  0  0  0
   33.2730   46.7450   -5.7500 O   0  0  0  0  0  0  0  0  0  0  0  0
   31.3410   45.8090   -6.5660 O   0  0  0  0  0  0  0  0  0  0  0  0
   30.0520   46.3900   -6.3260 C   0  0  0  0  0  0  0  0  0  0  0  0
   30.1500   47.8790   -6.0080 C   0  0  0  0  0  0  0  0  0  0  0  0
   28.9920   48.3930   -5.1560 C   0  0  0  0  0  0  0  0  0  0  0  0
   29.2140   49.7890   -4.8030 N   0  0  0  0  0  0  0  0  0  0  0  0
   29.0560   50.7470   -5.6380 C   0  0  0  0  0  0  0  0  0  0  0  0
   28.6740   50.6160   -6.9510 N   0  0  0  0  0  0  0  0  0  0  0  0
   29.3140   52.1200   -5.1100 C   0  0  0  0  0  0  0  0  0  0  0  0
   29.7580   52.3280   -3.8100 C   0  0  0  0  0  0  0  0  0  0  0  0
   29.1120   53.2370   -5.9170 C   0  0  0  0  0  0  0  0  0  0  0  0
   30.0030   53.5570   -3.2850 N   0  0  0  0  0  0  0  0  0  0  0  0
   29.3550   54.5080   -5.4060 C   0  0  0  0  0  0  0  0  0  0  0  0
   29.7950   54.6170   -4.0970 C   0  0  0  0  0  0  0  0  0  0  0  0
  1  2  1  0
  2  3  1  0
  3  4  2  0
  3  5  1  0
  4  6  1  0
  4  7  1  0
  5  8  2  0
  8  9  1  0
  7 10  2  0
  8 10  1  0
  9 11  1  0
 11 12  2  0
 11 13  1  0
 13 14  1  0
 14 15  1  0
 15 16  1  0
 16 17  1  0
 17 18  2  3
 18 19  1  0
 18 20  1  0
 20 21  2  0
 20 22  1  0
 21 23  1  0
 22 24  2  0
 23 25  2  0
 24 25  1  0
M  END
