mac-x0568-mac-x0385
     RDKit          3D

 17 18  0  0  0  0  0  0  0  0999 V2000
   29.1850   55.5900   -5.9490 C   0  0  0  0  0  0  0  0  0  0  0  0
   29.7330   54.2960   -5.4360 C   0  0  0  0  0  0  0  0  0  0  0  0
   29.7000   53.1430   -6.2210 C   0  0  0  0  0  0  0  0  0  0  0  0
   30.2560   54.3140   -4.1920 N   0  0  0  0  0  0  0  0  0  0  0  0
   30.7580   53.1570   -3.7070 C   0  0  0  0  0  0  0  0  0  0  0  0
   30.2290   51.9550   -5.6970 C   0  0  0  0  0  0  0  0  0  0  0  0
   30.7730   51.9640   -4.4020 C   0  0  0  0  0  0  0  0  0  0  0  0
   31.3430   50.7400   -3.7850 C   0  0  0  0  0  0  0  0  0  0  0  0
   30.8660   49.5430   -3.7280 N   0  0  0  0  0  0  0  0  0  0  0  0
   29.6710   49.4100   -4.3740 C   0  0  0  0  0  0  0  0  0  0  0  0
   28.6780   50.3370   -4.1440 C   0  0  0  0  0  0  0  0  0  0  0  0
   29.5840   48.3700   -5.2140 N   0  0  0  0  0  0  0  0  0  0  0  0
   28.8170   51.4770   -3.1760 C   0  0  0  0  0  0  0  0  0  0  0  0
   27.5510   50.1420   -4.8820 C   0  0  0  0  0  0  0  0  0  0  0  0
   28.4310   48.2860   -5.8620 C   0  0  0  0  0  0  0  0  0  0  0  0
   26.4710   51.0110   -4.7780 N   0  0  0  0  0  0  0  0  0  0  0  0
   27.3990   49.1280   -5.7470 N   0  0  0  0  0  0  0  0  0  0  0  0
  1  2  1  0
  2  3  2  0
  2  4  1  0
  4  5  2  0
  3  6  1  0
  5  7  1  0
  6  7  2  0
  7  8  1  0
  8  9  2  3
  9 10  1  0
 10 11  2  0
 10 12  1  0
 11 13  1  0
 11 14  1  0
 12 15  2  0
 14 16  1  0
 14 17  2  0
 15 17  1  0
M  END
