mac-x0451-mac-x0385
     RDKit          3D

 14 15  0  0  0  0  0  0  0  0999 V2000
   28.8450   53.9760   -8.4040 N   0  0  0  0  0  0  0  0  0  0  0  0
   29.0260   52.8660   -7.6680 C   0  0  0  0  0  0  0  0  0  0  0  0
   29.1810   52.8910   -6.3720 N   0  0  0  0  0  0  0  0  0  0  0  0
   29.0730   51.3180   -8.3850 S   0  0  0  0  0  0  0  0  0  0  0  0
   29.3510   51.6030   -5.8730 C   0  0  0  0  0  0  0  0  0  0  0  0
   29.3220   50.5890   -6.8360 C   0  0  0  0  0  0  0  0  0  0  0  0
   29.5420   51.2830   -4.5010 C   0  0  0  0  0  0  0  0  0  0  0  0
   29.4760   49.2260   -6.5070 C   0  0  0  0  0  0  0  0  0  0  0  0
   29.5760   52.3540   -3.4450 C   0  0  0  0  0  0  0  0  0  0  0  0
   29.4510   48.0920   -7.4900 C   0  0  0  0  0  0  0  0  0  0  0  0
   29.6990   49.9230   -4.1460 C   0  0  0  0  0  0  0  0  0  0  0  0
   29.6620   48.9410   -5.1460 C   0  0  0  0  0  0  0  0  0  0  0  0
   29.8160   47.6540   -4.7780 F   0  0  0  0  0  0  0  0  0  0  0  0
   29.8930   49.5350   -2.8030 N   0  0  0  0  0  0  0  0  0  0  0  0
  1  2  1  0
  2  3  2  0
  2  4  1  0
  3  5  1  0
  4  6  1  0
  5  6  2  0
  5  7  1  0
  6  8  1  0
  7  9  1  0
  8 10  1  0
  7 11  2  0
  8 12  2  0
 11 12  1  0
 12 13  1  0
 11 14  1  0
M  END
