mac-x0396-mac-x0348
     RDKit          3D

 26 28  0  0  0  0  0  0  0  0999 V2000
   28.6370   50.6750   -7.1010 N   0  0  0  0  0  0  0  0  0  0  0  0
   29.3010   50.6620   -5.8990 C   0  0  0  0  0  0  0  0  0  0  0  0
   29.8370   49.5970   -5.3960 N   0  0  0  0  0  0  0  0  0  0  0  0
   29.4080   51.9830   -5.1850 C   0  0  0  0  0  0  0  0  0  0  0  0
   29.7510   48.3620   -6.2000 C   0  0  0  0  0  0  0  0  0  0  0  0
   29.7740   52.1040   -3.8490 C   0  0  0  0  0  0  0  0  0  0  0  0
   29.1380   53.1620   -5.8910 C   0  0  0  0  0  0  0  0  0  0  0  0
   29.3990   47.1100   -5.3810 C   0  0  0  0  0  0  0  0  0  0  0  0
   29.8830   53.3020   -3.2040 N   0  0  0  0  0  0  0  0  0  0  0  0
   29.2420   54.3950   -5.2520 C   0  0  0  0  0  0  0  0  0  0  0  0
   30.4400   46.6910   -4.3140 C   0  0  2  0  0  0  0  0  0  0  0  0
   29.6150   54.4140   -3.9220 C   0  0  0  0  0  0  0  0  0  0  0  0
   31.4140   45.6080   -4.8070 C   0  0  0  0  0  0  0  0  0  0  0  0
   29.7110   46.3020   -3.0560 C   0  0  0  0  0  0  0  0  0  0  0  0
   32.1230   46.0370   -6.0630 C   0  0  0  0  0  0  0  0  0  0  0  0
   28.8800   45.2190   -2.8160 C   0  0  0  0  0  0  0  0  0  0  0  0
   29.7710   47.0520   -1.8540 C   0  0  0  0  0  0  0  0  0  0  0  0
   31.6690   46.0060   -7.1920 O   0  0  0  0  0  0  0  0  0  0  0  0
   33.3780   46.4830   -5.8470 O   0  0  0  0  0  0  0  0  0  0  0  0
   28.4400   45.3010   -1.5200 N   0  0  0  0  0  0  0  0  0  0  0  0
   28.9730   46.4190   -0.9070 C   0  0  0  0  0  0  0  0  0  0  0  0
   30.4540   48.2330   -1.5120 C   0  0  0  0  0  0  0  0  0  0  0  0
   27.5470   44.3500   -0.8970 C   0  0  0  0  0  0  0  0  0  0  0  0
   30.3210   48.7560   -0.2280 C   0  0  0  0  0  0  0  0  0  0  0  0
   28.8300   46.9370    0.3920 C   0  0  0  0  0  0  0  0  0  0  0  0
   29.5180   48.1160    0.7090 C   0  0  0  0  0  0  0  0  0  0  0  0
  1  2  1  0
  2  3  2  3
  2  4  1  0
  3  5  1  0
  4  6  2  0
  4  7  1  0
  5  8  1  0
  6  9  1  0
  7 10  2  0
 11  8  1  6
  9 12  2  0
 10 12  1  0
 11 13  1  0
 11 14  1  0
 13 15  1  0
 14 16  2  0
 14 17  1  0
 15 18  2  0
 15 19  1  0
 16 20  1  0
 17 21  2  0
 20 21  1  0
 17 22  1  0
 20 23  1  0
 22 24  2  0
 21 25  1  0
 24 26  1  0
 25 26  2  0
M  END
