mac-x0206-mac-x0159
     RDKit          3D

 28 31  0  0  0  0  0  0  0  0999 V2000
   30.5120   52.0560   -4.4370 N   0  0  0  0  0  0  0  0  0  0  0  0
   29.1600   52.6230   -4.4660 C   0  0  2  0  0  0  0  0  0  0  0  0
   28.7700   52.7420   -3.1080 O   0  0  0  0  0  0  0  0  0  0  0  0
   28.1740   51.5690   -5.1180 C   0  0  0  0  0  0  0  0  0  0  0  0
   29.1820   54.0290   -5.0730 C   0  0  0  0  0  0  0  0  0  0  0  0
   28.8250   50.5370   -5.9700 N   0  0  0  0  0  0  0  0  0  0  0  0
   29.7560   55.1200   -4.3880 C   0  0  0  0  0  0  0  0  0  0  0  0
   28.6330   54.2990   -6.3420 C   0  0  0  0  0  0  0  0  0  0  0  0
   30.3120   54.9260   -3.1450 O   0  0  0  0  0  0  0  0  0  0  0  0
   29.7830   56.4080   -4.9360 C   0  0  0  0  0  0  0  0  0  0  0  0
   28.6560   55.5880   -6.8940 C   0  0  0  0  0  0  0  0  0  0  0  0
   28.4800   49.1690   -5.5850 C   0  0  2  0  0  0  0  0  0  0  0  0
   29.2290   56.6390   -6.1930 C   0  0  0  0  0  0  0  0  0  0  0  0
   29.4830   48.9430   -4.5580 N   0  0  0  0  0  0  0  0  0  0  0  0
   28.3710   48.0110   -6.6530 C   0  0  2  0  0  0  0  0  0  0  0  0
   29.4630   47.5930   -4.0540 C   0  0  0  0  0  0  0  0  0  0  0  0
   29.1290   46.7090   -6.2560 C   0  0  2  0  0  0  0  0  0  0  0  0
   28.8450   48.3350   -8.0120 N   0  0  0  0  0  0  0  0  0  0  0  0
   30.0300   46.7760   -5.1070 N   0  0  0  0  0  0  0  0  0  0  0  0
   29.9440   46.3890   -7.4360 N   0  0  0  0  0  0  0  0  0  0  0  0
   29.2990   47.0660   -8.5360 C   0  0  0  0  0  0  0  0  0  0  0  0
   30.3590   45.4410   -4.5640 C   0  0  0  0  0  0  0  0  0  0  0  0
   29.3860   44.9720   -3.5150 C   0  0  0  0  0  0  0  0  0  0  0  0
   28.2730   44.1740   -3.7220 C   0  0  0  0  0  0  0  0  0  0  0  0
   29.5880   45.3520   -2.1910 N   0  0  0  0  0  0  0  0  0  0  0  0
   28.6400   44.8460   -1.4280 C   0  0  0  0  0  0  0  0  0  0  0  0
   27.4640   43.8910   -2.2410 S   0  0  0  0  0  0  0  0  0  0  0  0
   28.5450   45.0560    0.0410 C   0  0  0  0  0  0  0  0  0  0  0  0
  2  1  1  1
  2  3  1  0
  2  4  1  0
  2  5  1  0
  4  6  1  0
  5  7  2  0
  5  8  1  0
  7  9  1  0
  7 10  1  0
  8 11  2  0
 12  6  1  6
 10 13  2  0
 11 13  1  0
 12 14  1  0
 12 15  1  0
 14 16  1  0
 15 17  1  0
 15 18  1  6
 16 19  1  0
 17 19  1  0
 17 20  1  6
 18 21  1  0
 20 21  1  0
 19 22  1  0
 22 23  1  0
 23 24  2  0
 23 25  1  0
 25 26  2  0
 24 27  1  0
 26 27  1  0
 26 28  1  0
M  END
