mac-x0375-mac-x0472
     RDKit          3D

 28 30  0  0  0  0  0  0  0  0999 V2000
   31.6190   44.7660   -6.4270 O   0  0  0  0  0  0  0  0  0  0  0  0
   32.9180   44.9890   -6.1300 C   0  0  0  0  0  0  0  0  0  0  0  0
   33.8330   44.6070   -6.8420 O   0  0  0  0  0  0  0  0  0  0  0  0
   33.1640   45.7740   -4.8540 C   0  0  2  0  0  0  0  0  0  0  0  0
   34.1470   45.1040   -4.0630 O   0  0  0  0  0  0  0  0  0  0  0  0
   31.9070   46.1790   -4.0710 C   0  0  0  0  0  0  0  0  0  0  0  0
   32.1110   47.4400   -3.2100 C   0  0  0  0  0  0  0  0  0  0  0  0
   35.0940   45.9750   -3.6450 C   0  0  0  0  0  0  0  0  0  0  0  0
   30.8900   48.2550   -3.0670 N   0  0  0  0  0  0  0  0  0  0  0  0
   36.3750   45.4730   -3.4210 C   0  0  0  0  0  0  0  0  0  0  0  0
   34.8480   47.3280   -3.4400 C   0  0  0  0  0  0  0  0  0  0  0  0
   30.6420   49.4920   -3.9740 S   0  0  2  0  0  0  0  0  0  0  0  0
   37.3940   46.3260   -2.9980 C   0  0  0  0  0  0  0  0  0  0  0  0
   35.8570   48.1790   -3.0200 C   0  0  0  0  0  0  0  0  0  0  0  0
   29.7330   50.5400   -3.5720 O   0  0  0  0  0  0  0  0  0  0  0  0
   29.8340   48.8550   -5.3090 N   0  0  0  0  0  0  0  0  0  0  0  0
   37.1340   47.6830   -2.7980 C   0  0  0  0  0  0  0  0  0  0  0  0
   32.1240   50.3080   -4.5470 C   0  0  0  0  0  0  0  0  0  0  0  0
   29.3390   49.7060   -6.2360 C   0  0  0  0  0  0  0  0  0  0  0  0
   33.2270   49.5950   -5.0330 C   0  0  0  0  0  0  0  0  0  0  0  0
   32.1640   51.7090   -4.5100 C   0  0  0  0  0  0  0  0  0  0  0  0
   29.1250   49.3610   -7.4910 N   0  0  0  0  0  0  0  0  0  0  0  0
   28.9200   51.3510   -5.9130 S   0  0  0  0  0  0  0  0  0  0  0  0
   34.3590   50.2800   -5.4740 C   0  0  0  0  0  0  0  0  0  0  0  0
   33.2990   52.3880   -4.9530 C   0  0  0  0  0  0  0  0  0  0  0  0
   28.4610   51.4880   -7.5530 C   0  0  0  0  0  0  0  0  0  0  0  0
   28.6160   50.3900   -8.2570 N   0  0  0  0  0  0  0  0  0  0  0  0
   34.3960   51.6730   -5.4350 C   0  0  0  0  0  0  0  0  0  0  0  0
  1  2  1  0
  2  3  2  0
  2  4  1  0
  4  5  1  0
  4  6  1  1
  6  7  1  0
  5  8  1  0
  7  9  1  0
  8 10  2  0
  8 11  1  0
  9 12  2  0
 10 13  1  0
 11 14  2  0
 12 15  2  0
 12 16  1  6
 13 17  2  0
 14 17  1  0
 12 18  1  0
 16 19  1  0
 18 20  2  0
 18 21  1  0
 19 22  2  0
 19 23  1  0
 20 24  1  0
 21 25  2  0
 23 26  1  0
 22 27  1  0
 26 27  2  0
 24 28  2  0
 25 28  1  0
M  END
