mac-x0115-mac-x0387
     RDKit          3D

 23 25  0  0  0  0  0  0  0  0999 V2000
   27.8880   45.8430   -1.8730 C   0  0  0  0  0  0  0  0  0  0  0  0
   28.7140   44.5710   -2.0440 C   0  0  0  0  0  0  0  0  0  0  0  0
   27.9290   43.5260   -2.8250 C   0  0  0  0  0  0  0  0  0  0  0  0
   29.9170   44.8350   -2.7720 O   0  0  0  0  0  0  0  0  0  0  0  0
   29.8010   44.6660   -4.1880 C   0  0  0  0  0  0  0  0  0  0  0  0
   31.0510   45.2370   -4.8750 C   0  0  0  0  0  0  0  0  0  0  0  0
   30.7500   45.9350   -6.1420 N   0  0  0  0  0  0  0  0  0  0  0  0
   30.4620   45.2100   -7.3050 C   0  0  0  0  0  0  0  0  0  0  0  0
   31.2540   47.2920   -6.3320 C   0  0  1  0  0  0  0  0  0  0  0  0
   30.6710   43.5740   -7.5570 S   0  0  0  0  0  0  0  0  0  0  0  0
   29.9540   45.9620   -8.3430 N   0  0  0  0  0  0  0  0  0  0  0  0
   30.4680   48.1030   -7.3650 C   0  0  1  0  0  0  0  0  0  0  0  0
   31.1800   48.2330   -5.1760 C   0  0  0  0  0  0  0  0  0  0  0  0
   30.2530   47.2800   -8.6030 C   0  0  0  0  0  0  0  0  0  0  0  0
   29.3030   48.7080   -6.5780 C   0  0  1  0  0  0  0  0  0  0  0  0
   30.0950   49.0230   -5.3010 C   0  0  0  0  0  0  0  0  0  0  0  0
   30.3250   47.7170   -9.7470 O   0  0  0  0  0  0  0  0  0  0  0  0
   28.7280   49.9740   -7.3540 C   0  0  2  0  0  0  0  0  0  0  0  0
   28.2000   47.7410   -6.2310 C   0  0  0  0  0  0  0  0  0  0  0  0
   28.1560   50.9840   -6.4820 N   0  0  0  0  0  0  0  0  0  0  0  0
   27.2370   47.5560   -7.1240 C   0  0  0  0  0  0  0  0  0  0  0  0
   27.6230   49.7140   -8.2830 N   0  0  0  0  0  0  0  0  0  0  0  0
   27.2620   48.2940   -8.4200 C   0  0  0  0  0  0  0  0  0  0  0  0
  1  2  1  0
  2  3  1  0
  2  4  1  0
  4  5  1  0
  5  6  1  0
  6  7  1  0
  7  8  1  0
  7  9  1  0
  8 10  2  0
  8 11  1  0
  9 12  1  0
  9 13  1  1
 11 14  1  0
 12 14  1  6
 12 15  1  0
 13 16  2  0
 15 16  1  1
 14 17  2  0
 15 18  1  0
 15 19  1  0
 18 20  1  1
 19 21  2  0
 18 22  1  0
 21 23  1  0
 22 23  1  0
M  END
