mac-x0161-mac-x0415
     RDKit          3D

 32 36  0  0  0  0  0  0  0  0999 V2000
   28.5210   52.5190   -6.1510 N   0  0  0  0  0  0  0  0  0  0  0  0
   28.2810   51.4370   -5.2040 C   0  0  1  0  0  0  0  0  0  0  0  0
   27.9640   50.0860   -5.8740 C   0  0  2  0  0  0  0  0  0  0  0  0
   29.4570   51.3980   -4.3600 N   0  0  0  0  0  0  0  0  0  0  0  0
   29.6000   50.1780   -3.5530 C   0  0  0  0  0  0  0  0  0  0  0  0
   29.1660   49.1920   -5.7260 C   0  0  1  0  0  0  0  0  0  0  0  0
   27.6560   49.9930   -7.3150 N   0  0  0  0  0  0  0  0  0  0  0  0
   29.5340   48.9580   -4.3500 N   0  0  0  0  0  0  0  0  0  0  0  0
   28.6310   48.0230   -6.4270 N   0  0  0  0  0  0  0  0  0  0  0  0
   28.0130   48.6030   -7.6260 C   0  0  0  0  0  0  0  0  0  0  0  0
   30.4820   47.8480   -4.0420 C   0  0  1  0  0  0  0  0  0  0  0  0
   31.9410   48.2160   -3.9510 C   0  0  0  0  0  0  0  0  0  0  0  0
   29.9800   46.8570   -2.9770 C   0  0  0  0  0  0  0  0  0  0  0  0
   32.8680   48.2820   -2.9350 C   0  0  0  0  0  0  0  0  0  0  0  0
   32.5500   48.5700   -5.1240 O   0  0  0  0  0  0  0  0  0  0  0  0
   29.9370   45.4340   -3.2790 C   0  0  0  0  0  0  0  0  0  0  0  0
   29.5560   47.1560   -1.7050 C   0  0  0  0  0  0  0  0  0  0  0  0
   29.4880   48.8640   -0.9230 Br  0  0  0  0  0  0  0  0  0  0  0  0
   33.8840   48.8680   -4.8860 N   0  0  0  0  0  0  0  0  0  0  0  0
   34.0450   48.6860   -3.5760 C   0  0  0  0  0  0  0  0  0  0  0  0
   30.8060   44.6280   -3.9040 C   0  0  0  0  0  0  0  0  0  0  0  0
   28.7230   44.7020   -2.8010 C   0  0  1  0  0  0  0  0  0  0  0  0
   29.0950   46.0810   -0.8090 C   0  0  0  0  0  0  0  0  0  0  0  0
   35.2330   48.8790   -2.9640 O   0  0  0  0  0  0  0  0  0  0  0  0
   32.1360   44.8070   -4.5470 C   0  0  0  0  0  0  0  0  0  0  0  0
   30.1070   43.3400   -3.8070 C   0  0  0  0  0  0  0  0  0  0  0  0
   28.9540   43.3000   -3.2020 N   0  0  0  0  0  0  0  0  0  0  0  0
   28.6880   44.8940   -1.3140 C   0  0  0  0  0  0  0  0  0  0  0  0
   35.4750   47.9920   -1.8790 C   0  0  0  0  0  0  0  0  0  0  0  0
   32.1040   44.5530   -6.0380 C   0  0  0  0  0  0  0  0  0  0  0  0
   33.2950   44.7860   -6.6290 O   0  0  0  0  0  0  0  0  0  0  0  0
   31.1510   44.1820   -6.7020 O   0  0  0  0  0  0  0  0  0  0  0  0
  2  1  1  6
  2  3  1  0
  2  4  1  0
  4  5  1  0
  3  6  1  0
  3  7  1  6
  5  8  1  0
  6  8  1  0
  6  9  1  1
  7 10  1  0
  9 10  1  0
  8 11  1  0
 11 12  1  1
 11 13  1  0
 12 14  2  0
 12 15  1  0
 13 16  1  0
 13 17  2  0
 17 18  1  0
 15 19  1  0
 14 20  1  0
 19 20  2  0
 16 21  2  0
 16 22  1  0
 17 23  1  0
 20 24  1  0
 21 25  1  0
 21 26  1  0
 22 27  1  0
 26 27  2  0
 22 28  1  1
 23 28  2  0
 24 29  1  0
 25 30  1  0
 30 31  1  0
 30 32  2  0
M  END
