mac-x0115-mac-x0496
     RDKit          3D

 36 39  0  0  0  0  0  0  0  0999 V2000
   27.9940   45.6920   -1.8490 C   0  0  0  0  0  0  0  0  0  0  0  0
   28.8230   44.4270   -2.0470 C   0  0  0  0  0  0  0  0  0  0  0  0
   28.0350   43.4000   -2.8540 C   0  0  0  0  0  0  0  0  0  0  0  0
   30.0260   44.8070   -2.7300 O   0  0  0  0  0  0  0  0  0  0  0  0
   30.1370   44.3190   -4.0710 C   0  0  0  0  0  0  0  0  0  0  0  0
   31.0000   45.2680   -4.9200 C   0  0  0  0  0  0  0  0  0  0  0  0
   30.2290   45.9130   -6.0090 N   0  0  0  0  0  0  0  0  0  0  0  0
   29.8660   45.1640   -7.1510 C   0  0  0  0  0  0  0  0  0  0  0  0
   30.3010   47.3010   -6.1690 C   0  0  0  0  0  0  0  0  0  0  0  0
   30.0710   43.5180   -7.4030 S   0  0  0  0  0  0  0  0  0  0  0  0
   29.2790   45.8730   -8.1820 N   0  0  0  0  0  0  0  0  0  0  0  0
   30.5430   47.7960   -7.5540 C   0  0  1  0  0  0  0  0  0  0  0  0
   30.1880   48.3410   -5.3230 C   0  0  0  0  0  0  0  0  0  0  0  0
   29.9650   48.5000   -3.9930 N   0  0  0  0  0  0  0  0  0  0  0  0
   29.4730   47.2130   -8.4460 C   0  0  0  0  0  0  0  0  0  0  0  0
   30.5610   49.2700   -7.4950 N   0  0  0  0  0  0  0  0  0  0  0  0
   30.3710   49.4870   -6.2320 C   0  0  0  0  0  0  0  0  0  0  0  0
   28.8290   47.8080   -9.3080 O   0  0  0  0  0  0  0  0  0  0  0  0
   29.3930   49.5940   -3.6130 C   0  0  0  0  0  0  0  0  0  0  0  0
   29.1630   49.7810   -2.2930 O   0  0  0  0  0  0  0  0  0  0  0  0
   28.9220   50.7430   -4.4160 C   0  0  0  0  0  0  0  0  0  0  0  0
   28.0980   50.4930   -5.5240 C   0  0  0  0  0  0  0  0  0  0  0  0
   29.2880   52.0510   -4.0940 C   0  0  0  0  0  0  0  0  0  0  0  0
   27.6410   51.5480   -6.3110 C   0  0  0  0  0  0  0  0  0  0  0  0
   28.8270   53.1120   -4.8870 C   0  0  0  0  0  0  0  0  0  0  0  0
   29.1910   54.5210   -4.5830 C   0  0  0  0  0  0  0  0  0  0  0  0
   28.0050   52.8580   -5.9940 C   0  0  0  0  0  0  0  0  0  0  0  0
   28.9530   55.4340   -5.5820 N   0  0  0  0  0  0  0  0  0  0  0  0
   29.6680   54.8210   -3.4970 O   0  0  0  0  0  0  0  0  0  0  0  0
   29.1790   56.8570   -5.3910 C   0  0  0  0  0  0  0  0  0  0  0  0
   27.8580   57.5320   -5.3140 C   0  0  0  0  0  0  0  0  0  0  0  0
   27.6040   58.3200   -4.2310 O   0  0  0  0  0  0  0  0  0  0  0  0
   26.8600   57.4770   -6.1720 N   0  0  0  0  0  0  0  0  0  0  0  0
   25.9270   58.2850   -5.5750 C   0  0  0  0  0  0  0  0  0  0  0  0
   26.3100   58.8240   -4.4070 N   0  0  0  0  0  0  0  0  0  0  0  0
   24.6060   58.5350   -6.1830 C   0  0  0  0  0  0  0  0  0  0  0  0
  1  2  1  0
  2  3  1  0
  2  4  1  0
  4  5  1  0
  5  6  1  0
  6  7  1  0
  7  8  1  0
  7  9  1  0
  8 10  2  0
  8 11  1  0
  9 12  1  0
  9 13  2  0
 13 14  1  0
 11 15  1  0
 12 15  1  0
 12 16  1  1
 13 17  1  0
 16 17  2  0
 15 18  2  0
 14 19  2  3
 19 20  1  0
 19 21  1  0
 21 22  2  0
 21 23  1  0
 22 24  1  0
 23 25  2  0
 25 26  1  0
 24 27  2  0
 25 27  1  0
 26 28  1  0
 26 29  2  0
 28 30  1  0
 30 31  1  0
 31 32  1  0
 31 33  2  0
 33 34  1  0
 32 35  1  0
 34 35  2  0
 34 36  1  0
M  END
