mac-x0131-mac-x0415
     RDKit          3D

 31 35  0  0  0  0  0  0  0  0999 V2000
   30.3980   48.6860   -2.7590 C   0  0  0  0  0  0  0  0  0  0  0  0
   29.9440   49.2080   -4.1010 C   0  0  0  0  0  0  0  0  0  0  0  0
   29.2790   50.3920   -4.4190 C   0  0  0  0  0  0  0  0  0  0  0  0
   30.2330   47.1880   -2.6130 C   0  0  0  0  0  0  0  0  0  0  0  0
   30.1450   48.5200   -5.2840 N   0  0  0  0  0  0  0  0  0  0  0  0
   28.8690   46.6610   -2.4110 C   0  0  0  0  0  0  0  0  0  0  0  0
   31.2750   46.3240   -2.6680 C   0  0  0  0  0  0  0  0  0  0  0  0
   28.8480   51.4590   -3.4750 C   0  0  0  0  0  0  0  0  0  0  0  0
   30.8020   47.2290   -5.4540 C   0  0  0  0  0  0  0  0  0  0  0  0
   29.0760   50.4020   -5.8420 C   0  0  0  0  0  0  0  0  0  0  0  0
   29.6250   49.2290   -6.3360 C   0  0  0  0  0  0  0  0  0  0  0  0
   30.9620   44.9300   -2.5330 C   0  0  0  0  0  0  0  0  0  0  0  0
   28.6710   45.4190   -1.9140 C   0  0  0  0  0  0  0  0  0  0  0  0
   28.4940   51.2610   -6.7900 C   0  0  0  0  0  0  0  0  0  0  0  0
   29.6510   48.8400   -7.6250 N   0  0  0  0  0  0  0  0  0  0  0  0
   32.2200   47.3030   -5.0210 C   0  0  0  0  0  0  0  0  0  0  0  0
   31.4710   43.8520   -3.1280 C   0  0  0  0  0  0  0  0  0  0  0  0
   29.8700   44.5960   -1.5750 C   0  0  1  0  0  0  0  0  0  0  0  0
   27.8970   52.4780   -6.4870 N   0  0  0  0  0  0  0  0  0  0  0  0
   32.5440   43.6370   -4.1300 C   0  0  0  0  0  0  0  0  0  0  0  0
   28.4990   50.9070   -8.0910 N   0  0  0  0  0  0  0  0  0  0  0  0
   29.0670   49.7370   -8.4280 C   0  0  0  0  0  0  0  0  0  0  0  0
   33.3340   46.5380   -5.2970 C   0  0  0  0  0  0  0  0  0  0  0  0
   32.5550   48.3170   -4.1710 O   0  0  0  0  0  0  0  0  0  0  0  0
   30.6390   42.7980   -2.5280 C   0  0  0  0  0  0  0  0  0  0  0  0
   29.7190   43.1340   -1.6650 N   0  0  0  0  0  0  0  0  0  0  0  0
   32.0300   43.0800   -5.4430 C   0  0  0  0  0  0  0  0  0  0  0  0
   33.8810   48.1940   -3.9080 C   0  0  0  0  0  0  0  0  0  0  0  0
   34.4050   47.1150   -4.5770 C   0  0  0  0  0  0  0  0  0  0  0  0
   33.0380   42.7900   -6.2960 O   0  0  0  0  0  0  0  0  0  0  0  0
   30.8750   42.8800   -5.7780 O   0  0  0  0  0  0  0  0  0  0  0  0
  1  2  1  0
  2  3  2  0
  1  4  1  0
  2  5  1  0
  4  6  1  0
  4  7  2  0
  3  8  1  0
  5  9  1  0
  3 10  1  0
  5 11  1  0
 10 11  2  0
  7 12  1  0
  6 13  2  0
 10 14  1  0
 11 15  1  0
  9 16  1  0
 12 17  2  0
 12 18  1  0
 18 13  1  6
 14 19  1  0
 17 20  1  0
 14 21  2  0
 15 22  2  0
 21 22  1  0
 16 23  2  0
 16 24  1  0
 17 25  1  0
 18 26  1  0
 25 26  2  0
 20 27  1  0
 24 28  1  0
 23 29  1  0
 28 29  2  0
 27 30  1  0
 27 31  2  0
M  END
