mac-x0404-mac-x0380
     RDKit          3D

 29 32  0  0  0  0  0  0  0  0999 V2000
   33.3730   42.8130   -6.0380 O   0  0  0  0  0  0  0  0  0  0  0  0
   33.4000   42.9330   -4.6900 C   0  0  0  0  0  0  0  0  0  0  0  0
   34.4220   42.6640   -4.0800 O   0  0  0  0  0  0  0  0  0  0  0  0
   32.0670   43.4080   -4.1350 C   0  0  0  0  0  0  0  0  0  0  0  0
   32.2770   44.3430   -3.0820 O   0  0  0  0  0  0  0  0  0  0  0  0
   31.6180   45.5500   -3.1450 C   0  0  0  0  0  0  0  0  0  0  0  0
   30.2730   45.5560   -2.6830 C   0  0  0  0  0  0  0  0  0  0  0  0
   32.1970   46.7240   -3.6240 C   0  0  0  0  0  0  0  0  0  0  0  0
   29.5260   46.7650   -2.7150 C   0  0  0  0  0  0  0  0  0  0  0  0
   31.4630   47.9080   -3.6550 C   0  0  0  0  0  0  0  0  0  0  0  0
   29.6440   44.3890   -2.1870 C   0  0  0  0  0  0  0  0  0  0  0  0
   30.1390   47.9440   -3.2080 C   0  0  0  0  0  0  0  0  0  0  0  0
   28.1900   46.7450   -2.2510 C   0  0  0  0  0  0  0  0  0  0  0  0
   28.3260   44.4010   -1.7360 C   0  0  0  0  0  0  0  0  0  0  0  0
   29.4720   49.1860   -3.2770 N   0  0  0  0  0  0  0  0  0  0  0  0
   27.5960   45.5780   -1.7660 C   0  0  0  0  0  0  0  0  0  0  0  0
   29.3670   49.7930   -4.4090 C   0  0  0  0  0  0  0  0  0  0  0  0
   29.9080   49.2020   -5.4880 O   0  0  0  0  0  0  0  0  0  0  0  0
   28.7420   51.0710   -4.7890 C   0  0  0  0  0  0  0  0  0  0  0  0
   29.1500   52.2640   -4.1860 C   0  0  0  0  0  0  0  0  0  0  0  0
   27.7370   51.0770   -5.7600 C   0  0  0  0  0  0  0  0  0  0  0  0
   28.5480   53.4730   -4.5560 C   0  0  0  0  0  0  0  0  0  0  0  0
   27.1370   52.2840   -6.1280 C   0  0  0  0  0  0  0  0  0  0  0  0
   27.5390   53.4820   -5.5290 C   0  0  0  0  0  0  0  0  0  0  0  0
   29.0960   54.9710   -3.7620 S   0  0  0  0  0  0  0  0  0  0  0  0
   26.9090   54.6650   -5.9330 N   0  0  0  0  0  0  0  0  0  0  0  0
   28.7290   56.1330   -5.0950 C   0  0  0  0  0  0  0  0  0  0  0  0
   27.3630   55.9370   -5.7180 C   0  0  0  0  0  0  0  0  0  0  0  0
   26.6530   56.8950   -6.0310 O   0  0  0  0  0  0  0  0  0  0  0  0
  1  2  1  0
  2  3  2  0
  2  4  1  0
  4  5  1  0
  5  6  1  0
  6  7  2  0
  6  8  1  0
  7  9  1  0
  8 10  2  0
  7 11  1  0
  9 12  2  0
 10 12  1  0
  9 13  1  0
 11 14  2  0
 12 15  1  0
 13 16  2  0
 14 16  1  0
 15 17  2  3
 17 18  1  0
 17 19  1  0
 19 20  2  0
 19 21  1  0
 20 22  1  0
 21 23  2  0
 22 24  2  0
 23 24  1  0
 22 25  1  0
 24 26  1  0
 25 27  1  0
 26 28  1  0
 27 28  1  0
 28 29  2  0
M  END
