mac-x0228-mac-x0303
     RDKit          3D

 16 17  0  0  0  0  0  0  0  0999 V2000
   29.9890   47.7110   -5.6130 O   0  0  0  0  0  0  0  0  0  0  0  0
   30.3180   48.2050   -4.4070 C   0  0  0  0  0  0  0  0  0  0  0  0
   30.7510   47.4810   -3.5270 O   0  0  0  0  0  0  0  0  0  0  0  0
   30.0950   49.6740   -4.2870 C   0  0  0  0  0  0  0  0  0  0  0  0
   29.8450   50.5050   -5.4000 C   0  0  0  0  0  0  0  0  0  0  0  0
   30.1440   50.2250   -2.9900 C   0  0  0  0  0  0  0  0  0  0  0  0
   29.6560   51.8660   -5.1710 C   0  0  0  0  0  0  0  0  0  0  0  0
   29.9500   51.5950   -2.7830 C   0  0  0  0  0  0  0  0  0  0  0  0
   29.7100   52.3880   -3.8840 C   0  0  0  0  0  0  0  0  0  0  0  0
   29.3830   52.9860   -6.1190 C   0  0  0  0  0  0  0  0  0  0  0  0
   29.5070   53.7430   -3.8400 O   0  0  0  0  0  0  0  0  0  0  0  0
   29.8470   54.1270   -5.2040 C   0  0  2  0  0  0  0  0  0  0  0  0
   29.2320   55.7790   -5.7110 S   0  0  0  0  0  0  0  0  0  0  0  0
   30.4020   56.2530   -6.8160 N   0  0  0  0  0  0  0  0  0  0  0  0
   27.9950   55.6760   -6.4460 O   0  0  0  0  0  0  0  0  0  0  0  0
   29.3700   56.6870   -4.5920 O   0  0  0  0  0  0  0  0  0  0  0  0
  1  2  1  0
  2  3  2  0
  2  4  1  0
  4  5  2  0
  4  6  1  0
  5  7  1  0
  6  8  2  0
  7  9  2  0
  8  9  1  0
  7 10  1  0
  9 11  1  0
 10 12  1  0
 11 12  1  0
 12 13  1  6
 13 14  1  0
 13 15  2  0
 13 16  2  0
M  END
