mac-x0123-mac-x0224
     RDKit          3D

 18 20  0  0  0  0  0  0  0  0999 V2000
   28.1160   51.3360   -6.5100 N   0  0  0  0  0  0  0  0  0  0  0  0
   27.2840   52.5170   -6.3330 C   0  0  0  0  0  0  0  0  0  0  0  0
   29.5370   51.6390   -6.2910 C   0  0  2  0  0  0  0  0  0  0  0  0
   30.2550   50.7970   -5.2460 N   0  0  0  0  0  0  0  0  0  0  0  0
   29.8230   53.1460   -5.9950 C   0  0  2  0  0  0  0  0  0  0  0  0
   30.5470   51.4910   -3.9630 C   0  0  1  0  0  0  0  0  0  0  0  0
   29.2940   53.5540   -4.6200 C   0  0  1  0  0  0  0  0  0  0  0  0
   29.2850   54.3030   -6.8150 C   0  0  0  0  0  0  0  0  0  0  0  0
   29.8560   49.4130   -4.8680 N   0  0  0  0  0  0  0  0  0  0  0  0
   30.2090   48.1610   -5.4730 C   0  0  0  0  0  0  0  0  0  0  0  0
   29.8690   52.7270   -3.5760 N   0  0  0  0  0  0  0  0  0  0  0  0
   29.5500   55.0720   -4.6110 C   0  0  0  0  0  0  0  0  0  0  0  0
   29.1390   55.3870   -6.0270 C   0  0  0  0  0  0  0  0  0  0  0  0
   30.4410   50.5140   -2.8970 N   0  0  0  0  0  0  0  0  0  0  0  0
   29.7010   49.3690   -3.4380 C   0  0  2  0  0  0  0  0  0  0  0  0
   30.3050   48.1710   -2.9600 O   0  0  0  0  0  0  0  0  0  0  0  0
   30.1200   47.8390   -6.6540 O   0  0  0  0  0  0  0  0  0  0  0  0
   30.6720   47.2560   -4.5630 O   0  0  0  0  0  0  0  0  0  0  0  0
  1  2  1  0
  3  1  1  1
  3  4  1  0
  3  5  1  0
  4  6  1  0
  5  7  1  0
  5  8  1  6
  4  9  1  0
  9 10  1  0
  6 11  1  1
  7 11  1  0
  7 12  1  1
  8 13  2  0
 12 13  1  0
  6 14  1  0
  9 15  1  0
 14 15  1  0
 15 16  1  1
 10 17  2  0
 10 18  1  0
M  END
