mac-x0344-mac-x0301
     RDKit          3D

 23 25  0  0  0  0  0  0  0  0999 V2000
   31.6440   46.4560   -4.9700 O   0  0  0  0  0  0  0  0  0  0  0  0
   32.3290   45.3410   -4.6580 C   0  0  0  0  0  0  0  0  0  0  0  0
   31.9510   44.2170   -4.3690 O   0  0  0  0  0  0  0  0  0  0  0  0
   30.3000   46.4350   -4.8240 C   0  0  0  0  0  0  0  0  0  0  0  0
   33.8410   45.6520   -4.7020 C   0  0  0  0  0  0  0  0  0  0  0  0
   29.5930   45.4980   -4.4960 O   0  0  0  0  0  0  0  0  0  0  0  0
   29.7780   47.7920   -5.1360 C   0  0  0  0  0  0  0  0  0  0  0  0
   34.3740   45.9360   -5.7660 O   0  0  0  0  0  0  0  0  0  0  0  0
   34.4170   45.5580   -3.4470 N   0  0  0  0  0  0  0  0  0  0  0  0
   29.1700   48.0600   -6.3550 C   0  0  0  0  0  0  0  0  0  0  0  0
   29.8780   48.8560   -4.2160 C   0  0  0  0  0  0  0  0  0  0  0  0
   35.5830   46.1870   -2.9730 C   0  0  0  0  0  0  0  0  0  0  0  0
   28.6840   49.3160   -6.6520 C   0  0  0  0  0  0  0  0  0  0  0  0
   29.3770   50.1330   -4.5310 C   0  0  0  0  0  0  0  0  0  0  0  0
   28.9650   47.1930   -7.3870 O   0  0  0  0  0  0  0  0  0  0  0  0
   36.6430   45.5070   -2.3700 C   0  0  0  0  0  0  0  0  0  0  0  0
   35.6690   47.5780   -3.1210 C   0  0  0  0  0  0  0  0  0  0  0  0
   28.7720   50.3690   -5.7660 C   0  0  0  0  0  0  0  0  0  0  0  0
   28.1240   49.3850   -7.8910 O   0  0  0  0  0  0  0  0  0  0  0  0
   28.4150   48.0660   -8.3910 C   0  0  0  0  0  0  0  0  0  0  0  0
   37.7690   46.2040   -1.9220 C   0  0  0  0  0  0  0  0  0  0  0  0
   36.7950   48.2750   -2.6740 C   0  0  0  0  0  0  0  0  0  0  0  0
   37.8460   47.5870   -2.0730 C   0  0  0  0  0  0  0  0  0  0  0  0
  1  2  1  0
  2  3  2  0
  1  4  1  0
  2  5  1  0
  4  6  2  0
  4  7  1  0
  5  8  2  0
  5  9  1  0
  7 10  1  0
  7 11  2  0
  9 12  1  0
 10 13  2  0
 11 14  1  0
 10 15  1  0
 12 16  2  0
 12 17  1  0
 13 18  1  0
 14 18  2  0
 13 19  1  0
 15 20  1  0
 19 20  1  0
 16 21  1  0
 17 22  2  0
 21 23  2  0
 22 23  1  0
M  END
