mac-x0263-mac-x0472
     RDKit          3D

 28 31  0  0  0  0  0  0  0  0999 V2000
   28.0180   60.0130   -6.4790 O   0  0  0  0  0  0  0  0  0  0  0  0
   26.8980   59.2610   -6.3670 C   0  0  0  0  0  0  0  0  0  0  0  0
   25.7960   59.6810   -6.6840 O   0  0  0  0  0  0  0  0  0  0  0  0
   27.1770   57.8900   -5.8150 C   0  0  0  0  0  0  0  0  0  0  0  0
   28.0560   57.0780   -6.7610 C   0  0  0  0  0  0  0  0  0  0  0  0
   28.0740   55.6380   -6.3700 C   0  0  0  0  0  0  0  0  0  0  0  0
   28.6120   55.2320   -5.1670 N   0  0  0  0  0  0  0  0  0  0  0  0
   27.6080   54.6080   -7.0680 N   0  0  0  0  0  0  0  0  0  0  0  0
   28.4760   53.8850   -5.1230 C   0  0  0  0  0  0  0  0  0  0  0  0
   27.8610   53.5150   -6.2870 C   0  0  0  0  0  0  0  0  0  0  0  0
   28.8890   53.0460   -4.0920 C   0  0  0  0  0  0  0  0  0  0  0  0
   27.5610   52.0830   -6.5650 C   0  0  0  0  0  0  0  0  0  0  0  0
   29.0190   51.7660   -4.4710 C   0  0  0  0  0  0  0  0  0  0  0  0
   28.7250   51.2550   -5.9210 C   0  0  1  0  0  0  0  0  0  0  0  0
   28.6480   49.7070   -6.0360 C   0  0  2  0  0  0  0  0  0  0  0  0
   29.8940   51.4010   -6.8930 C   0  0  0  0  0  0  0  0  0  0  0  0
   29.8060   48.9780   -5.5300 N   0  0  0  0  0  0  0  0  0  0  0  0
   28.6180   49.5340   -7.4930 N   0  0  0  0  0  0  0  0  0  0  0  0
   29.4740   50.5710   -8.0430 N   0  0  0  0  0  0  0  0  0  0  0  0
   30.6050   49.2930   -4.0960 S   0  0  0  0  0  0  0  0  0  0  0  0
   29.7640   50.1040   -3.2540 O   0  0  0  0  0  0  0  0  0  0  0  0
   31.1380   48.0410   -3.6060 O   0  0  0  0  0  0  0  0  0  0  0  0
   32.0020   50.2790   -4.6210 C   0  0  0  0  0  0  0  0  0  0  0  0
   33.1390   49.6230   -5.1030 C   0  0  0  0  0  0  0  0  0  0  0  0
   31.9660   51.6790   -4.5530 C   0  0  0  0  0  0  0  0  0  0  0  0
   34.2450   50.3670   -5.5200 C   0  0  0  0  0  0  0  0  0  0  0  0
   33.0770   52.4150   -4.9730 C   0  0  0  0  0  0  0  0  0  0  0  0
   34.2130   51.7620   -5.4540 C   0  0  0  0  0  0  0  0  0  0  0  0
  1  2  1  0
  2  3  2  0
  2  4  1  0
  4  5  1  0
  5  6  1  0
  6  7  1  0
  6  8  2  0
  7  9  1  0
  8 10  1  0
  9 10  2  0
  9 11  1  0
 10 12  1  0
 11 13  2  0
 14 12  1  6
 14 13  1  0
 14 15  1  0
 14 16  1  0
 15 17  1  6
 15 18  1  0
 16 19  1  0
 18 19  1  0
 20 17  1  0
 20 21  2  0
 20 22  2  0
 20 23  1  0
 23 24  2  0
 23 25  1  0
 24 26  1  0
 25 27  2  0
 26 28  2  0
 27 28  1  0
M  END
