mac-x0572-mac-x0437
     RDKit          3D

 30 33  0  0  0  0  0  0  0  0999 V2000
   28.6240   55.9780   -7.0160 C   0  0  0  0  0  0  0  0  0  0  0  0
   28.8980   54.7230   -6.2220 C   0  0  0  0  0  0  0  0  0  0  0  0
   28.4330   53.5640   -6.8250 N   0  0  0  0  0  0  0  0  0  0  0  0
   29.5380   54.7690   -5.0380 C   0  0  0  0  0  0  0  0  0  0  0  0
   29.9940   55.9300   -4.4430 O   0  0  0  0  0  0  0  0  0  0  0  0
   29.7740   53.4790   -4.3330 C   0  0  0  0  0  0  0  0  0  0  0  0
   28.8560   52.4110   -6.3830 C   0  0  0  0  0  0  0  0  0  0  0  0
   29.9010   53.4780   -3.1070 O   0  0  0  0  0  0  0  0  0  0  0  0
   29.8460   52.2750   -5.2450 C   0  0  2  0  0  0  0  0  0  0  0  0
   28.3550   51.1720   -7.0350 C   0  0  0  0  0  0  0  0  0  0  0  0
   28.5620   49.9920   -6.4380 C   0  0  0  0  0  0  0  0  0  0  0  0
   29.8450   50.9110   -4.5990 C   0  0  0  0  0  0  0  0  0  0  0  0
   29.2520   49.8380   -5.1740 C   0  0  0  0  0  0  0  0  0  0  0  0
   29.2780   48.4530   -4.5660 C   0  0  0  0  0  0  0  0  0  0  0  0
   29.6710   47.3420   -5.5680 C   0  0  0  0  0  0  0  0  0  0  0  0
   30.8260   46.4300   -5.1330 C   0  0  0  0  0  0  0  0  0  0  0  0
   31.4670   45.7890   -6.2560 O   0  0  0  0  0  0  0  0  0  0  0  0
   32.6830   45.2280   -6.0000 C   0  0  0  0  0  0  0  0  0  0  0  0
   33.7170   45.4430   -6.6250 O   0  0  0  0  0  0  0  0  0  0  0  0
   32.6110   44.2810   -4.8300 C   0  0  0  0  0  0  0  0  0  0  0  0
   32.6890   45.0270   -3.5030 C   0  0  0  0  0  0  0  0  0  0  0  0
   33.9010   45.8100   -3.3570 N   0  0  0  0  0  0  0  0  0  0  0  0
   33.9940   47.1580   -3.5730 C   0  0  0  0  0  0  0  0  0  0  0  0
   35.1370   45.3500   -2.9850 C   0  0  0  0  0  0  0  0  0  0  0  0
   35.2140   47.5990   -3.3670 N   0  0  0  0  0  0  0  0  0  0  0  0
   35.9380   46.4940   -3.0020 C   0  0  0  0  0  0  0  0  0  0  0  0
   35.6320   44.0880   -2.6450 C   0  0  0  0  0  0  0  0  0  0  0  0
   37.2940   46.3870   -2.6680 C   0  0  0  0  0  0  0  0  0  0  0  0
   36.9890   44.0020   -2.3140 C   0  0  0  0  0  0  0  0  0  0  0  0
   37.8100   45.1340   -2.3260 C   0  0  0  0  0  0  0  0  0  0  0  0
  1  2  1  0
  2  3  1  0
  2  4  2  0
  4  5  1  0
  4  6  1  0
  3  7  2  0
  6  8  2  0
  6  9  1  0
  7  9  1  0
  7 10  1  0
 10 11  2  0
  9 12  1  1
 11 13  1  0
 12 13  2  0
 13 14  1  0
 14 15  1  0
 15 16  1  0
 16 17  1  0
 17 18  1  0
 18 19  2  0
 18 20  1  0
 20 21  1  0
 21 22  1  0
 22 23  1  0
 22 24  1  0
 23 25  2  0
 24 26  2  0
 25 26  1  0
 24 27  1  0
 26 28  1  0
 27 29  2  0
 28 30  2  0
 29 30  1  0
M  END
