mac-x0305-mac-x0132
     RDKit          3D

 19 21  0  0  0  0  0  0  0  0999 V2000
   30.5820   46.4360   -7.2600 O   0  0  0  0  0  0  0  0  0  0  0  0
   30.1780   46.7500   -6.0160 C   0  0  0  0  0  0  0  0  0  0  0  0
   30.0550   45.9020   -5.1430 O   0  0  0  0  0  0  0  0  0  0  0  0
   29.9030   48.1960   -5.8130 C   0  0  0  0  0  0  0  0  0  0  0  0
   29.3770   48.9410   -6.8540 C   0  0  0  0  0  0  0  0  0  0  0  0
   30.1910   48.7300   -4.6000 N   0  0  0  0  0  0  0  0  0  0  0  0
   29.0690   48.4570   -8.0950 O   0  0  0  0  0  0  0  0  0  0  0  0
   29.1450   50.2910   -6.6350 C   0  0  0  0  0  0  0  0  0  0  0  0
   29.9580   50.0390   -4.4100 C   0  0  0  0  0  0  0  0  0  0  0  0
   29.4290   50.9080   -5.3920 C   0  0  0  0  0  0  0  0  0  0  0  0
   30.2670   50.5410   -3.1660 C   0  0  0  0  0  0  0  0  0  0  0  0
   29.2280   52.3200   -5.0730 C   0  0  0  0  0  0  0  0  0  0  0  0
   30.0730   51.8860   -2.8630 C   0  0  0  0  0  0  0  0  0  0  0  0
   28.7220   53.3580   -5.9000 C   0  0  0  0  0  0  0  0  0  0  0  0
   29.5650   52.7760   -3.7880 C   0  0  0  0  0  0  0  0  0  0  0  0
   28.3210   53.1490   -7.2190 N   0  0  0  0  0  0  0  0  0  0  0  0
   29.4310   54.0340   -3.3740 N   0  0  0  0  0  0  0  0  0  0  0  0
   28.5830   54.6290   -5.5020 N   0  0  0  0  0  0  0  0  0  0  0  0
   28.9440   54.9090   -4.2560 C   0  0  0  0  0  0  0  0  0  0  0  0
  1  2  1  0
  2  3  2  0
  2  4  1  0
  4  5  2  0
  4  6  1  0
  5  7  1  0
  5  8  1  0
  6  9  2  0
  8 10  2  0
  9 10  1  0
  9 11  1  0
 10 12  1  0
 11 13  2  0
 12 14  2  0
 12 15  1  0
 13 15  1  0
 14 16  1  0
 15 17  2  0
 14 18  1  0
 17 19  1  0
 18 19  2  0
M  END
