mac-x0213-mac-x0306
     RDKit          3D

 25 28  0  0  0  0  0  0  0  0999 V2000
   33.0650   46.7690   -6.0730 O   0  0  0  0  0  0  0  0  0  0  0  0
   31.7090   46.6020   -5.6720 C   0  0  0  0  0  0  0  0  0  0  0  0
   31.0960   45.8850   -6.7260 O   0  0  0  0  0  0  0  0  0  0  0  0
   31.0790   48.0050   -5.5830 C   0  0  0  0  0  0  0  0  0  0  0  0
   31.7110   45.8190   -4.3440 C   0  0  0  0  0  0  0  0  0  0  0  0
   29.7090   48.0770   -4.9060 C   0  0  0  0  0  0  0  0  0  0  0  0
   31.7080   46.6950   -3.0660 C   0  0  0  0  0  0  0  0  0  0  0  0
   30.5270   44.8160   -4.2180 C   0  0  0  0  0  0  0  0  0  0  0  0
   30.3920   46.3900   -2.4270 C   0  0  0  0  0  0  0  0  0  0  0  0
   29.7360   45.3410   -3.0690 C   0  0  0  0  0  0  0  0  0  0  0  0
   29.2820   49.4860   -4.7750 N   0  0  0  0  0  0  0  0  0  0  0  0
   29.8310   47.0270   -1.3320 C   0  0  0  0  0  0  0  0  0  0  0  0
   28.4960   44.9050   -2.6230 C   0  0  0  0  0  0  0  0  0  0  0  0
   29.7130   50.2740   -3.7080 C   0  0  0  0  0  0  0  0  0  0  0  0
   28.7220   50.1440   -5.8570 C   0  0  0  0  0  0  0  0  0  0  0  0
   28.5840   46.5940   -0.8790 C   0  0  0  0  0  0  0  0  0  0  0  0
   27.9210   45.5380   -1.5210 C   0  0  0  0  0  0  0  0  0  0  0  0
   30.0210   51.5730   -3.8610 C   0  0  0  0  0  0  0  0  0  0  0  0
   28.9770   51.4280   -6.1260 C   0  0  0  0  0  0  0  0  0  0  0  0
   29.9120   52.2250   -5.2310 C   0  0  0  0  0  0  0  0  0  0  0  0
   29.5490   53.6880   -5.1800 C   0  0  0  0  0  0  0  0  0  0  0  0
   28.9280   54.3130   -6.2400 N   0  0  0  0  0  0  0  0  0  0  0  0
   29.7540   54.5410   -4.1950 N   0  0  0  0  0  0  0  0  0  0  0  0
   29.2540   55.7390   -4.6320 C   0  0  0  0  0  0  0  0  0  0  0  0
   28.7370   55.6200   -5.8980 C   0  0  0  0  0  0  0  0  0  0  0  0
  2  1  1  0
  2  3  1  0
  2  4  1  0
  2  5  1  0
  4  6  1  0
  5  7  1  0
  5  8  1  0
  7  9  1  0
  8 10  1  0
  9 10  2  0
  6 11  1  0
  9 12  1  0
 10 13  1  0
 11 14  1  0
 11 15  1  0
 12 16  2  0
 13 17  2  0
 16 17  1  0
 14 18  2  0
 15 19  2  0
 18 20  1  0
 19 20  1  0
 20 21  1  0
 21 22  1  0
 21 23  2  0
 23 24  1  0
 22 25  1  0
 24 25  2  0
M  END
