mac-x0344-mac-x0398
     RDKit          3D

 25 26  0  0  0  0  0  0  0  0999 V2000
   31.6770   44.5410   -4.2030 O   0  0  0  0  0  0  0  0  0  0  0  0
   32.0570   45.4330   -5.2410 C   0  0  0  0  0  0  0  0  0  0  0  0
   31.8960   44.7070   -6.4340 O   0  0  0  0  0  0  0  0  0  0  0  0
   33.5370   45.9170   -5.0320 C   0  0  0  0  0  0  0  0  0  0  0  0
   31.0840   46.6230   -5.2770 C   0  0  0  0  0  0  0  0  0  0  0  0
   34.1430   46.4620   -5.9500 O   0  0  0  0  0  0  0  0  0  0  0  0
   34.0360   45.6660   -3.7600 N   0  0  0  0  0  0  0  0  0  0  0  0
   30.8640   47.3750   -3.9680 C   0  0  0  0  0  0  0  0  0  0  0  0
   29.8280   48.3550   -4.1570 O   0  0  0  0  0  0  0  0  0  0  0  0
   35.2060   46.2160   -3.1980 C   0  0  0  0  0  0  0  0  0  0  0  0
   29.9980   49.5030   -3.4440 C   0  0  0  0  0  0  0  0  0  0  0  0
   36.1780   45.4720   -2.5270 C   0  0  0  0  0  0  0  0  0  0  0  0
   35.3890   47.5990   -3.3320 C   0  0  0  0  0  0  0  0  0  0  0  0
   30.3690   49.5930   -2.2880 O   0  0  0  0  0  0  0  0  0  0  0  0
   37.3150   46.1030   -2.0000 C   0  0  0  0  0  0  0  0  0  0  0  0
   36.5210   48.2270   -2.8060 C   0  0  0  0  0  0  0  0  0  0  0  0
   29.6510   50.6530   -4.3050 C   0  0  0  0  0  0  0  0  0  0  0  0
   37.4860   47.4780   -2.1400 C   0  0  0  0  0  0  0  0  0  0  0  0
   29.6390   51.9410   -3.7650 C   0  0  0  0  0  0  0  0  0  0  0  0
   29.3360   50.4610   -5.6550 C   0  0  0  0  0  0  0  0  0  0  0  0
   29.9480   52.1300   -2.4470 O   0  0  0  0  0  0  0  0  0  0  0  0
   29.3150   53.0370   -4.5690 C   0  0  0  0  0  0  0  0  0  0  0  0
   29.0110   51.5650   -6.4560 C   0  0  0  0  0  0  0  0  0  0  0  0
   28.9980   52.8600   -5.9190 C   0  0  0  0  0  0  0  0  0  0  0  0
   28.6720   53.9650   -6.7180 N   0  0  0  0  0  0  0  0  0  0  0  0
  2  1  1  0
  2  3  1  0
  2  4  1  0
  2  5  1  0
  4  6  2  0
  4  7  1  0
  5  8  1  0
  8  9  1  0
  7 10  1  0
  9 11  1  0
 10 12  2  0
 10 13  1  0
 11 14  2  0
 12 15  1  0
 13 16  2  0
 11 17  1  0
 15 18  2  0
 16 18  1  0
 17 19  2  0
 17 20  1  0
 19 21  1  0
 19 22  1  0
 20 23  2  0
 22 24  2  0
 23 24  1  0
 24 25  1  0
M  END
