mac-x0328-mac-x0496
     RDKit          3D

 21 22  0  0  0  0  0  0  0  0999 V2000
   31.2100   48.0800   -3.9380 O   0  0  0  0  0  0  0  0  0  0  0  0
   29.9410   48.5700   -4.3460 C   0  0  0  0  0  0  0  0  0  0  0  0
   29.7600   48.1250   -5.6800 O   0  0  0  0  0  0  0  0  0  0  0  0
   28.8240   47.9620   -3.4540 C   0  0  0  0  0  0  0  0  0  0  0  0
   29.9220   50.0960   -4.3120 C   0  0  0  0  0  0  0  0  0  0  0  0
   29.1350   48.0390   -2.0600 O   0  0  0  0  0  0  0  0  0  0  0  0
   29.5520   50.8290   -5.4570 C   0  0  0  0  0  0  0  0  0  0  0  0
   30.2660   50.8120   -3.1530 C   0  0  0  0  0  0  0  0  0  0  0  0
   29.5280   52.2310   -5.4450 C   0  0  0  0  0  0  0  0  0  0  0  0
   30.2430   52.2110   -3.1380 C   0  0  0  0  0  0  0  0  0  0  0  0
   29.8750   52.9280   -4.2820 C   0  0  0  0  0  0  0  0  0  0  0  0
   29.8690   54.4180   -4.2100 C   0  0  0  0  0  0  0  0  0  0  0  0
   28.8610   55.0730   -4.8800 N   0  0  0  0  0  0  0  0  0  0  0  0
   30.7340   55.0100   -3.5730 O   0  0  0  0  0  0  0  0  0  0  0  0
   29.0730   56.4170   -5.3880 C   0  0  0  0  0  0  0  0  0  0  0  0
   27.7940   57.1680   -5.3840 C   0  0  0  0  0  0  0  0  0  0  0  0
   27.5790   58.0090   -4.3300 O   0  0  0  0  0  0  0  0  0  0  0  0
   26.8020   57.1570   -6.2550 N   0  0  0  0  0  0  0  0  0  0  0  0
   25.9250   58.0520   -5.6950 C   0  0  0  0  0  0  0  0  0  0  0  0
   26.3310   58.5970   -4.5410 N   0  0  0  0  0  0  0  0  0  0  0  0
   24.6310   58.3900   -6.3150 C   0  0  0  0  0  0  0  0  0  0  0  0
  2  1  1  0
  2  3  1  0
  2  4  1  0
  2  5  1  0
  4  6  1  0
  5  7  2  0
  5  8  1  0
  7  9  1  0
  8 10  2  0
  9 11  2  0
 10 11  1  0
 11 12  1  0
 12 13  1  0
 12 14  2  0
 13 15  1  0
 15 16  1  0
 16 17  1  0
 16 18  2  0
 18 19  1  0
 17 20  1  0
 19 20  2  0
 19 21  1  0
M  END
