mac-x0380-mac-x0182
     RDKit          3D

 28 31  0  0  0  0  0  0  0  0999 V2000
   28.8090   48.1220   -4.0730 O   0  0  0  0  0  0  0  0  0  0  0  0
   29.8150   49.1190   -4.0920 C   0  0  0  0  0  0  0  0  0  0  0  0
   30.0930   49.3970   -2.7290 O   0  0  0  0  0  0  0  0  0  0  0  0
   31.0600   48.6060   -4.8340 C   0  0  0  0  0  0  0  0  0  0  0  0
   29.2680   50.3780   -4.7640 C   0  0  0  0  0  0  0  0  0  0  0  0
   32.3450   48.7220   -4.0120 C   0  0  0  0  0  0  0  0  0  0  0  0
   29.3460   51.6260   -4.1130 C   0  0  0  0  0  0  0  0  0  0  0  0
   28.6750   50.3370   -6.0370 C   0  0  0  0  0  0  0  0  0  0  0  0
   32.8210   47.3660   -3.6720 N   0  0  0  0  0  0  0  0  0  0  0  0
   28.8500   52.7950   -4.7120 C   0  0  0  0  0  0  0  0  0  0  0  0
   28.1790   51.4990   -6.6390 C   0  0  0  0  0  0  0  0  0  0  0  0
   28.2670   52.7260   -5.9790 C   0  0  0  0  0  0  0  0  0  0  0  0
   28.9860   54.3340   -3.8310 S   0  0  0  0  0  0  0  0  0  0  0  0
   33.9590   46.7340   -4.4720 S   0  0  2  0  0  0  0  0  0  0  0  0
   34.2990   46.9240   -5.8610 O   0  0  0  0  0  0  0  0  0  0  0  0
   27.7590   53.8610   -6.6220 N   0  0  0  0  0  0  0  0  0  0  0  0
   29.0880   55.4510   -5.2460 C   0  0  0  0  0  0  0  0  0  0  0  0
   33.6850   45.0770   -4.3250 N   0  0  0  0  0  0  0  0  0  0  0  0
   35.4030   46.7420   -3.5150 C   0  0  0  0  0  0  0  0  0  0  0  0
   28.0770   55.1620   -6.3340 C   0  0  0  0  0  0  0  0  0  0  0  0
   34.4950   44.5370   -3.3560 C   0  0  0  0  0  0  0  0  0  0  0  0
   35.5720   45.4780   -2.9650 C   0  0  0  0  0  0  0  0  0  0  0  0
   36.2780   47.7850   -3.2960 C   0  0  0  0  0  0  0  0  0  0  0  0
   27.5360   56.0690   -6.9710 O   0  0  0  0  0  0  0  0  0  0  0  0
   34.3600   43.4270   -2.8650 O   0  0  0  0  0  0  0  0  0  0  0  0
   37.3780   47.5220   -2.4740 C   0  0  0  0  0  0  0  0  0  0  0  0
   36.6580   45.2080   -2.1500 C   0  0  0  0  0  0  0  0  0  0  0  0
   37.5670   46.2450   -1.9060 C   0  0  0  0  0  0  0  0  0  0  0  0
  2  1  1  0
  2  3  1  0
  2  4  1  0
  2  5  1  0
  4  6  1  0
  5  7  2  0
  5  8  1  0
  6  9  1  0
  7 10  1  0
  8 11  2  0
 10 12  2  0
 11 12  1  0
 10 13  1  0
  9 14  2  0
 14 15  2  0
 12 16  1  0
 13 17  1  0
 14 18  1  6
 14 19  1  0
 16 20  1  0
 17 20  1  0
 18 21  1  0
 19 22  2  0
 21 22  1  0
 19 23  1  0
 20 24  2  0
 21 25  2  0
 23 26  2  0
 22 27  1  0
 26 28  1  0
 27 28  2  0
M  END
