mac-x0161-mac-x0182
     RDKit          3D

 29 33  0  0  0  0  0  0  0  0999 V2000
   28.8190   52.7230   -5.4460 N   0  0  0  0  0  0  0  0  0  0  0  0
   28.5370   51.4050   -4.9230 C   0  0  1  0  0  0  0  0  0  0  0  0
   27.6510   50.5780   -5.8800 C   0  0  2  0  0  0  0  0  0  0  0  0
   29.8500   50.8360   -4.7140 N   0  0  0  0  0  0  0  0  0  0  0  0
   30.0110   49.5660   -5.4130 C   0  0  0  0  0  0  0  0  0  0  0  0
   27.6400   49.1090   -5.4360 C   0  0  2  0  0  0  0  0  0  0  0  0
   28.1180   50.5000   -7.2950 N   0  0  0  0  0  0  0  0  0  0  0  0
   28.9650   48.6430   -4.9870 N   0  0  0  0  0  0  0  0  0  0  0  0
   27.2820   48.3960   -6.6700 N   0  0  0  0  0  0  0  0  0  0  0  0
   27.4110   49.3300   -7.7840 C   0  0  0  0  0  0  0  0  0  0  0  0
   29.2360   47.2800   -5.5030 C   0  0  0  0  0  0  0  0  0  0  0  0
   30.3950   46.6240   -4.8390 C   0  0  0  0  0  0  0  0  0  0  0  0
   31.1380   46.8940   -3.7130 C   0  0  0  0  0  0  0  0  0  0  0  0
   30.8760   45.4960   -5.4300 O   0  0  0  0  0  0  0  0  0  0  0  0
   31.9420   45.0150   -4.6970 N   0  0  0  0  0  0  0  0  0  0  0  0
   32.1000   45.8570   -3.6620 C   0  0  0  0  0  0  0  0  0  0  0  0
   33.1140   45.6990   -2.6530 C   0  0  0  0  0  0  0  0  0  0  0  0
   32.5380   44.9850   -1.4500 C   0  0  0  0  0  0  0  0  0  0  0  0
   34.3930   46.1190   -2.7540 C   0  0  0  0  0  0  0  0  0  0  0  0
   35.4710   45.9660   -1.7250 C   0  0  0  0  0  0  0  0  0  0  0  0
   35.0490   46.9640   -4.2010 S   0  0  0  0  0  0  0  0  0  0  0  0
   35.3400   45.6680   -0.5530 O   0  0  0  0  0  0  0  0  0  0  0  0
   34.7660   48.4250   -4.0050 O   0  0  0  0  0  0  0  0  0  0  0  0
   36.7170   46.7480   -3.6140 C   0  0  0  0  0  0  0  0  0  0  0  0
   36.7910   46.2270   -2.3260 C   0  0  0  0  0  0  0  0  0  0  0  0
   37.8720   47.0510   -4.3240 C   0  0  0  0  0  0  0  0  0  0  0  0
   38.0130   45.9930   -1.7090 C   0  0  0  0  0  0  0  0  0  0  0  0
   39.1100   46.8200   -3.7160 C   0  0  0  0  0  0  0  0  0  0  0  0
   39.1810   46.2940   -2.4150 C   0  0  0  0  0  0  0  0  0  0  0  0
  2  1  1  6
  2  3  1  0
  2  4  1  0
  4  5  1  0
  3  6  1  0
  3  7  1  6
  5  8  1  0
  6  8  1  0
  6  9  1  6
  7 10  1  0
  9 10  1  0
  8 11  1  0
 11 12  1  0
 12 13  2  0
 12 14  1  0
 14 15  1  0
 13 16  1  0
 15 16  2  0
 16 17  1  0
 17 18  1  0
 17 19  2  3
 19 20  1  0
 21 19  1  1
 20 22  2  0
 21 23  2  0
 21 24  1  0
 20 25  1  0
 24 25  2  0
 24 26  1  0
 25 27  1  0
 26 28  2  0
 27 29  2  0
 28 29  1  0
M  END
