mac-x0361-mac-x0347
     RDKit          3D

 24 26  0  0  0  0  0  0  0  0999 V2000
   28.7460   54.5930   -4.8840 N   0  0  0  0  0  0  0  0  0  0  0  0
   29.6610   54.1960   -3.9460 C   0  0  0  0  0  0  0  0  0  0  0  0
   30.1400   55.0080   -3.1630 O   0  0  0  0  0  0  0  0  0  0  0  0
   30.0480   52.7590   -3.9160 C   0  0  0  0  0  0  0  0  0  0  0  0
   31.2700   52.3570   -4.3150 C   0  0  0  0  0  0  0  0  0  0  0  0
   29.2520   51.7510   -3.5050 C   0  0  0  0  0  0  0  0  0  0  0  0
   31.6360   51.0000   -4.2900 C   0  0  0  0  0  0  0  0  0  0  0  0
   29.7120   50.4230   -3.5190 C   0  0  0  0  0  0  0  0  0  0  0  0
   30.9530   49.7880   -3.9040 C   0  0  0  0  0  0  0  0  0  0  0  0
   30.1240   48.7460   -3.4850 N   0  0  0  0  0  0  0  0  0  0  0  0
   28.7150   48.8150   -3.9090 C   0  0  0  0  0  0  0  0  0  0  0  0
   30.6490   47.3780   -3.6780 C   0  0  0  0  0  0  0  0  0  0  0  0
   30.0370   46.7130   -4.9250 C   0  0  2  0  0  0  0  0  0  0  0  0
   28.6830   48.7850   -5.4540 C   0  0  2  0  0  0  0  0  0  0  0  0
   30.9630   45.6470   -5.4620 C   0  0  0  0  0  0  0  0  0  0  0  0
   29.7000   47.7590   -5.9990 C   0  0  0  0  0  0  0  0  0  0  0  0
   28.8630   50.1640   -6.0780 C   0  0  0  0  0  0  0  0  0  0  0  0
   31.0900   44.5970   -4.6260 O   0  0  0  0  0  0  0  0  0  0  0  0
   31.5650   45.6530   -6.5240 O   0  0  0  0  0  0  0  0  0  0  0  0
   27.7710   51.0270   -6.2520 C   0  0  0  0  0  0  0  0  0  0  0  0
   30.1320   50.6030   -6.4910 C   0  0  0  0  0  0  0  0  0  0  0  0
   27.9410   52.2910   -6.8200 C   0  0  0  0  0  0  0  0  0  0  0  0
   30.3000   51.8670   -7.0600 C   0  0  0  0  0  0  0  0  0  0  0  0
   29.2060   52.7110   -7.2240 C   0  0  0  0  0  0  0  0  0  0  0  0
  1  2  1  0
  2  3  2  0
  2  4  1  0
  4  5  2  0
  4  6  1  0
  5  7  1  0
  6  8  2  0
  7  9  2  0
  8  9  1  0
  9 10  1  0
 10 11  1  0
 10 12  1  0
 12 13  1  0
 11 14  1  0
 13 15  1  6
 13 16  1  0
 14 16  1  0
 14 17  1  6
 15 18  1  0
 15 19  2  0
 17 20  2  0
 17 21  1  0
 20 22  1  0
 21 23  2  0
 22 24  2  0
 23 24  1  0
M  END
