mac-x0188-mac-x0455
     RDKit          3D

 24 26  0  0  0  0  0  0  0  0999 V2000
   31.3140   44.0180   -3.0950 C   0  0  0  0  0  0  0  0  0  0  0  0
   30.8280   45.4090   -2.9920 C   0  0  0  0  0  0  0  0  0  0  0  0
   30.5040   45.8170   -1.7420 O   0  0  0  0  0  0  0  0  0  0  0  0
   30.6140   46.4360   -3.8930 C   0  0  0  0  0  0  0  0  0  0  0  0
   30.8490   46.3950   -5.3840 C   0  0  0  0  0  0  0  0  0  0  0  0
   30.0740   47.1190   -1.7750 N   0  0  0  0  0  0  0  0  0  0  0  0
   30.1370   47.5070   -3.0620 C   0  0  0  0  0  0  0  0  0  0  0  0
   29.6480   46.7220   -6.0850 O   0  0  0  0  0  0  0  0  0  0  0  0
   31.1200   45.0750   -5.8360 O   0  0  0  0  0  0  0  0  0  0  0  0
   32.0520   47.3850   -5.7840 C   0  0  1  0  0  0  0  0  0  0  0  0
   29.7440   48.8660   -3.4150 C   0  0  0  0  0  0  0  0  0  0  0  0
   32.4420   47.2320   -7.2650 C   0  0  0  0  0  0  0  0  0  0  0  0
   31.6560   48.7690   -5.6430 O   0  0  0  0  0  0  0  0  0  0  0  0
   30.0060   49.9350   -2.5510 C   0  0  0  0  0  0  0  0  0  0  0  0
   29.0960   49.1120   -4.6330 C   0  0  0  0  0  0  0  0  0  0  0  0
   33.2460   47.1560   -4.8330 C   0  0  0  0  0  0  0  0  0  0  0  0
   29.6250   51.2340   -2.9030 C   0  0  0  0  0  0  0  0  0  0  0  0
   28.7170   50.4100   -4.9830 C   0  0  0  0  0  0  0  0  0  0  0  0
   33.8270   48.2500   -4.1670 C   0  0  0  0  0  0  0  0  0  0  0  0
   33.7880   45.8800   -4.5970 C   0  0  0  0  0  0  0  0  0  0  0  0
   28.9820   51.4720   -4.1170 C   0  0  0  0  0  0  0  0  0  0  0  0
   34.9070   48.0760   -3.3000 C   0  0  0  0  0  0  0  0  0  0  0  0
   34.8670   45.7080   -3.7290 C   0  0  0  0  0  0  0  0  0  0  0  0
   35.4280   46.8050   -3.0800 C   0  0  0  0  0  0  0  0  0  0  0  0
  1  2  1  0
  2  3  1  0
  2  4  2  0
  4  5  1  0
  3  6  1  0
  4  7  1  0
  6  7  2  0
  5  8  1  0
  5  9  1  0
  5 10  1  0
  7 11  1  0
 10 12  1  6
 10 13  1  0
 11 14  2  0
 11 15  1  0
 10 16  1  0
 14 17  1  0
 15 18  2  0
 16 19  2  0
 16 20  1  0
 17 21  2  0
 18 21  1  0
 19 22  1  0
 20 23  2  0
 22 24  2  0
 23 24  1  0
M  END
