mac-x0161-mac-x0576
     RDKit          3D

 19 21  0  0  0  0  0  0  0  0999 V2000
   27.8400   52.3310   -5.9020 N   0  0  0  0  0  0  0  0  0  0  0  0
   28.6890   51.2020   -5.5690 C   0  0  2  0  0  0  0  0  0  0  0  0
   28.2630   49.8830   -6.2320 C   0  0  2  0  0  0  0  0  0  0  0  0
   28.6240   51.1290   -4.1240 N   0  0  0  0  0  0  0  0  0  0  0  0
   29.3730   49.9910   -3.5790 C   0  0  0  0  0  0  0  0  0  0  0  0
   29.2430   48.8480   -5.7190 C   0  0  1  0  0  0  0  0  0  0  0  0
   28.3580   49.6580   -7.6780 N   0  0  0  0  0  0  0  0  0  0  0  0
   29.1230   48.7250   -4.2820 N   0  0  0  0  0  0  0  0  0  0  0  0
   28.8260   47.6860   -6.4930 N   0  0  0  0  0  0  0  0  0  0  0  0
   28.2800   48.2160   -7.7220 C   0  0  2  0  0  0  0  0  0  0  0  0
   29.7570   47.5530   -3.6700 C   0  0  0  0  0  0  0  0  0  0  0  0
   29.1070   47.7840   -8.8030 N   0  0  0  0  0  0  0  0  0  0  0  0
   31.2330   47.4300   -3.8270 C   0  0  0  0  0  0  0  0  0  0  0  0
   32.3150   47.6420   -2.9990 C   0  0  0  0  0  0  0  0  0  0  0  0
   31.6920   47.0140   -5.0440 O   0  0  0  0  0  0  0  0  0  0  0  0
   33.0730   46.9480   -5.0280 N   0  0  0  0  0  0  0  0  0  0  0  0
   33.4240   47.3260   -3.7990 C   0  0  0  0  0  0  0  0  0  0  0  0
   34.7200   47.3810   -3.4170 O   0  0  0  0  0  0  0  0  0  0  0  0
   34.9440   48.0060   -2.1580 C   0  0  0  0  0  0  0  0  0  0  0  0
  2  1  1  6
  2  3  1  0
  2  4  1  0
  4  5  1  0
  3  6  1  0
  3  7  1  6
  5  8  1  0
  6  8  1  0
  6  9  1  6
  7 10  1  0
  9 10  1  0
  8 11  1  0
 10 12  1  6
 11 13  1  0
 13 14  2  0
 13 15  1  0
 15 16  1  0
 14 17  1  0
 16 17  2  0
 17 18  1  0
 18 19  1  0
M  END
