mac-x0365-mac-x0584
     RDKit          3D

 25 28  0  0  0  0  0  0  0  0999 V2000
   32.2390   48.7940   -6.1020 O   0  0  0  0  0  0  0  0  0  0  0  0
   32.1020   49.0960   -4.7940 C   0  0  0  0  0  0  0  0  0  0  0  0
   33.0250   48.9080   -4.0220 O   0  0  0  0  0  0  0  0  0  0  0  0
   30.7350   49.6430   -4.4630 C   0  0  1  0  0  0  0  0  0  0  0  0
   30.8690   51.1120   -4.0570 C   0  0  0  0  0  0  0  0  0  0  0  0
   29.5770   49.3350   -5.4740 C   0  0  1  0  0  0  0  0  0  0  0  0
   29.6320   51.5170   -3.3060 C   0  0  1  0  0  0  0  0  0  0  0  0
   28.2690   50.1020   -4.9350 C   0  0  0  0  0  0  0  0  0  0  0  0
   29.7900   49.8580   -6.9170 C   0  0  0  0  0  0  0  0  0  0  0  0
   29.4410   47.7810   -5.6580 C   0  0  1  0  0  0  0  0  0  0  0  0
   29.7770   52.7810   -2.8210 F   0  0  0  0  0  0  0  0  0  0  0  0
   28.4260   51.4730   -4.2300 C   0  0  2  0  0  0  0  0  0  0  0  0
   29.5470   46.8740   -4.4770 N   0  0  0  0  0  0  0  0  0  0  0  0
   28.3860   47.4040   -6.5770 N   0  0  0  0  0  0  0  0  0  0  0  0
   28.8020   49.3760   -7.8940 N   0  0  0  0  0  0  0  0  0  0  0  0
   28.4920   52.5430   -5.1760 O   0  0  0  0  0  0  0  0  0  0  0  0
   30.8880   46.5380   -3.9150 C   0  0  2  0  0  0  0  0  0  0  0  0
   28.7600   47.4070   -3.3370 C   0  0  0  0  0  0  0  0  0  0  0  0
   28.5320   47.9520   -7.9090 C   0  0  0  0  0  0  0  0  0  0  0  0
   31.6560   45.4200   -4.6450 C   0  0  0  0  0  0  0  0  0  0  0  0
   30.5640   46.1290   -2.4840 C   0  0  0  0  0  0  0  0  0  0  0  0
   29.5650   47.1740   -2.0660 C   0  0  0  0  0  0  0  0  0  0  0  0
   31.7340   45.4310   -6.1960 C   0  0  0  0  0  0  0  0  0  0  0  0
   33.2190   45.3810   -4.6710 C   0  0  0  0  0  0  0  0  0  0  0  0
   33.1040   44.7340   -6.0660 C   0  0  0  0  0  0  0  0  0  0  0  0
  1  2  1  0
  2  3  2  0
  4  2  1  6
  4  5  1  0
  4  6  1  0
  5  7  1  0
  6  8  1  1
  6  9  1  0
  6 10  1  0
  7 11  1  6
  7 12  1  0
  8 12  1  0
 10 13  1  1
 10 14  1  0
  9 15  1  0
 12 16  1  6
 13 17  1  0
 13 18  1  0
 14 19  1  0
 15 19  1  0
 17 20  1  6
 17 21  1  0
 18 22  1  0
 21 22  1  0
 20 23  1  0
 20 24  1  0
 23 25  1  0
 24 25  1  0
M  END
