mac-x0396-mac-x0453
     RDKit          3D

 16 17  0  0  0  0  0  0  0  0999 V2000
   26.0880   51.6140   -5.3150 N   0  0  0  0  0  0  0  0  0  0  0  0
   27.3890   51.2550   -4.7600 C   0  0  0  0  0  0  0  0  0  0  0  0
   28.1970   52.4810   -4.4050 C   0  0  0  0  0  0  0  0  0  0  0  0
   27.8090   53.1970   -3.2650 C   0  0  0  0  0  0  0  0  0  0  0  0
   29.3180   52.9590   -5.1350 C   0  0  0  0  0  0  0  0  0  0  0  0
   28.4150   54.3120   -2.8010 N   0  0  0  0  0  0  0  0  0  0  0  0
   29.9500   54.1210   -4.6530 C   0  0  0  0  0  0  0  0  0  0  0  0
   29.8250   52.2500   -6.3950 C   0  0  1  0  0  0  0  0  0  0  0  0
   29.4740   54.7460   -3.5080 C   0  0  0  0  0  0  0  0  0  0  0  0
   30.7710   53.0360   -7.3530 C   0  0  0  0  0  0  0  0  0  0  0  0
   30.4210   50.9330   -5.9520 C   0  0  0  0  0  0  0  0  0  0  0  0
   30.2250   54.2050   -8.0700 N   0  0  0  0  0  0  0  0  0  0  0  0
   30.1680   49.6390   -6.3700 C   0  0  0  0  0  0  0  0  0  0  0  0
   31.3900   50.9160   -4.9670 N   0  0  0  0  0  0  0  0  0  0  0  0
   30.9930   48.8410   -5.6260 N   0  0  0  0  0  0  0  0  0  0  0  0
   31.7100   49.6550   -4.7970 C   0  0  0  0  0  0  0  0  0  0  0  0
  1  2  1  0
  2  3  1  0
  3  4  2  0
  3  5  1  0
  4  6  1  0
  5  7  2  0
  5  8  1  0
  6  9  2  0
  7  9  1  0
  8 10  1  1
  8 11  1  0
 10 12  1  0
 11 13  2  0
 11 14  1  0
 13 15  1  0
 14 16  2  0
 15 16  1  0
M  END
