mac-x0115-mac-x0347
     RDKit          3D

 24 27  0  0  0  0  0  0  0  0999 V2000
   28.1160   45.6740   -1.5000 C   0  0  0  0  0  0  0  0  0  0  0  0
   29.0330   44.8210   -2.3680 C   0  0  0  0  0  0  0  0  0  0  0  0
   28.2440   43.6720   -2.9920 C   0  0  0  0  0  0  0  0  0  0  0  0
   29.5740   45.6840   -3.3730 O   0  0  0  0  0  0  0  0  0  0  0  0
   30.6140   45.0870   -4.1600 C   0  0  0  0  0  0  0  0  0  0  0  0
   31.0020   46.0420   -5.3030 C   0  0  2  0  0  0  0  0  0  0  0  0
   30.8910   47.4860   -4.8290 C   0  0  0  0  0  0  0  0  0  0  0  0
   30.0690   46.1170   -6.4360 N   0  0  0  0  0  0  0  0  0  0  0  0
   31.7570   48.0660   -4.1790 O   0  0  0  0  0  0  0  0  0  0  0  0
   29.9500   45.2560   -7.5020 C   0  0  0  0  0  0  0  0  0  0  0  0
   29.0590   47.1540   -6.2650 C   0  0  1  0  0  0  0  0  0  0  0  0
   29.5990   48.1480   -5.2400 C   0  0  2  0  0  0  0  0  0  0  0  0
   30.4120   43.6570   -7.5650 S   0  0  0  0  0  0  0  0  0  0  0  0
   29.3820   45.8210   -8.6190 N   0  0  0  0  0  0  0  0  0  0  0  0
   28.8000   47.9630   -7.5270 C   0  0  2  0  0  0  0  0  0  0  0  0
   29.6750   49.4920   -6.0040 C   0  0  0  0  0  0  0  0  0  0  0  0
   29.0370   47.1440   -8.7860 C   0  0  0  0  0  0  0  0  0  0  0  0
   29.7370   49.0930   -7.4190 N   0  0  0  0  0  0  0  0  0  0  0  0
   28.3850   50.2740   -5.7760 C   0  0  0  0  0  0  0  0  0  0  0  0
   30.8870   50.3570   -5.7380 C   0  0  0  0  0  0  0  0  0  0  0  0
   28.9320   47.6270   -9.9120 O   0  0  0  0  0  0  0  0  0  0  0  0
   28.3420   51.6150   -5.6810 C   0  0  0  0  0  0  0  0  0  0  0  0
   30.8370   51.6990   -5.6430 C   0  0  0  0  0  0  0  0  0  0  0  0
   29.5650   52.4820   -5.7910 C   0  0  0  0  0  0  0  0  0  0  0  0
  1  2  1  0
  2  3  1  0
  2  4  1  0
  4  5  1  0
  6  5  1  1
  6  7  1  0
  6  8  1  0
  7  9  2  0
  8 10  1  0
 11  8  1  6
 12  7  1  6
 11 12  1  0
 10 13  2  0
 10 14  1  0
 11 15  1  0
 12 16  1  0
 14 17  1  0
 15 17  1  0
 15 18  1  6
 16 18  1  0
 16 19  1  0
 16 20  1  0
 17 21  2  0
 19 22  2  0
 20 23  2  0
 22 24  1  0
 23 24  1  0
M  END
