mac-x0115-mac-x0321
     RDKit          3D

 26 28  0  0  0  0  0  0  0  0999 V2000
   28.2160   45.8240   -2.1480 C   0  0  0  0  0  0  0  0  0  0  0  0
   28.8550   44.4390   -2.1550 C   0  0  0  0  0  0  0  0  0  0  0  0
   27.9380   43.4380   -2.8460 C   0  0  0  0  0  0  0  0  0  0  0  0
   30.0930   44.4810   -2.8760 O   0  0  0  0  0  0  0  0  0  0  0  0
   29.9420   44.3220   -4.2860 C   0  0  0  0  0  0  0  0  0  0  0  0
   31.0710   45.0650   -5.0140 C   0  0  0  0  0  0  0  0  0  0  0  0
   30.6250   45.8030   -6.2200 N   0  0  0  0  0  0  0  0  0  0  0  0
   30.6450   45.1190   -7.4650 C   0  0  0  0  0  0  0  0  0  0  0  0
   29.7590   46.9010   -6.1100 C   0  0  0  0  0  0  0  0  0  0  0  0
   31.2810   43.6010   -7.7970 S   0  0  0  0  0  0  0  0  0  0  0  0
   30.0650   45.7790   -8.5320 N   0  0  0  0  0  0  0  0  0  0  0  0
   28.5800   46.8880   -7.0420 C   0  0  2  0  0  0  0  0  0  0  0  0
   29.7190   48.0130   -5.3550 C   0  0  0  0  0  0  0  0  0  0  0  0
   29.0950   46.7550   -8.4520 C   0  0  0  0  0  0  0  0  0  0  0  0
   27.8100   48.1130   -6.7940 N   0  0  0  0  0  0  0  0  0  0  0  0
   28.4950   48.6720   -5.8490 C   0  0  0  0  0  0  0  0  0  0  0  0
   30.4660   48.6990   -4.2950 C   0  0  0  0  0  0  0  0  0  0  0  0
   28.7420   47.4010   -9.4340 O   0  0  0  0  0  0  0  0  0  0  0  0
   31.3160   48.1210   -3.6200 O   0  0  0  0  0  0  0  0  0  0  0  0
   30.1590   50.1270   -4.0620 C   0  0  0  0  0  0  0  0  0  0  0  0
   29.8930   50.9160   -5.1850 C   0  0  0  0  0  0  0  0  0  0  0  0
   30.1230   50.6950   -2.7810 C   0  0  0  0  0  0  0  0  0  0  0  0
   29.5900   52.2630   -5.0320 C   0  0  0  0  0  0  0  0  0  0  0  0
   29.8210   52.0500   -2.6360 C   0  0  0  0  0  0  0  0  0  0  0  0
   29.2620   53.2260   -6.4180 Cl  0  0  0  0  0  0  0  0  0  0  0  0
   29.5530   52.8340   -3.7610 C   0  0  0  0  0  0  0  0  0  0  0  0
  1  2  1  0
  2  3  1  0
  2  4  1  0
  4  5  1  0
  5  6  1  0
  6  7  1  0
  7  8  1  0
  7  9  1  0
  8 10  2  0
  8 11  1  0
  9 12  1  0
  9 13  2  0
 11 14  1  0
 12 14  1  0
 12 15  1  6
 13 16  1  0
 15 16  2  0
 13 17  1  0
 14 18  2  0
 17 19  2  0
 17 20  1  0
 20 21  2  0
 20 22  1  0
 21 23  1  0
 22 24  2  0
 23 25  1  0
 23 26  2  0
 24 26  1  0
M  END
