mac-x0148-mac-x0590
     RDKit          3D

 27 31  0  0  0  0  0  0  0  0999 V2000
   29.1780   52.0580   -7.4690 N   0  0  0  0  0  0  0  0  0  0  0  0
   29.5790   50.9170   -6.7270 N   0  0  0  0  0  0  0  0  0  0  0  0
   28.8910   49.7360   -6.6570 C   0  0  0  0  0  0  0  0  0  0  0  0
   30.7100   50.8520   -5.9830 C   0  0  0  0  0  0  0  0  0  0  0  0
   27.7270   49.4990   -7.2950 N   0  0  0  0  0  0  0  0  0  0  0  0
   29.6030   48.8620   -5.8300 C   0  0  0  0  0  0  0  0  0  0  0  0
   30.7830   49.5940   -5.3990 C   0  0  0  0  0  0  0  0  0  0  0  0
   31.9090   49.1660   -4.5060 C   0  0  0  0  0  0  0  0  0  0  0  0
   27.2790   48.2680   -7.0500 C   0  0  0  0  0  0  0  0  0  0  0  0
   29.0170   47.5720   -5.6440 C   0  0  0  0  0  0  0  0  0  0  0  0
   32.8220   48.1280   -5.1760 C   0  0  0  0  0  0  0  0  0  0  0  0
   29.5580   46.5400   -4.8550 N   0  0  0  0  0  0  0  0  0  0  0  0
   27.8420   47.3220   -6.2830 N   0  0  0  0  0  0  0  0  0  0  0  0
   33.6270   47.2780   -4.1830 C   0  0  0  0  0  0  0  0  0  0  0  0
   30.3040   46.9540   -3.6640 C   0  0  1  0  0  0  0  0  0  0  0  0
   30.2250   45.4930   -5.6620 C   0  0  0  0  0  0  0  0  0  0  0  0
   29.5720   47.8110   -2.6430 C   0  0  0  0  0  0  0  0  0  0  0  0
   30.5630   45.7260   -2.8220 C   0  0  2  0  0  0  0  0  0  0  0  0
   31.5530   45.0240   -5.0470 C   0  0  0  0  0  0  0  0  0  0  0  0
   34.7310   46.3440   -4.7220 C   0  0  2  0  0  0  0  0  0  0  0  0
   31.0420   46.3700   -1.5430 C   0  0  0  0  0  0  0  0  0  0  0  0
   30.1930   47.5230   -1.3660 O   0  0  0  0  0  0  0  0  0  0  0  0
   31.4830   44.7460   -3.5320 C   0  0  0  0  0  0  0  0  0  0  0  0
   34.5450   45.9320   -6.1760 C   0  0  0  0  0  0  0  0  0  0  0  0
   34.8910   45.0230   -3.9970 C   0  0  0  0  0  0  0  0  0  0  0  0
   34.3940   43.9570   -4.9550 C   0  0  0  0  0  0  0  0  0  0  0  0
   34.0770   44.5810   -6.1990 O   0  0  0  0  0  0  0  0  0  0  0  0
  1  2  1  0
  2  3  1  0
  2  4  1  0
  3  5  2  0
  3  6  1  0
  4  7  2  0
  6  7  1  0
  7  8  1  0
  5  9  1  0
  6 10  2  0
  8 11  1  0
 10 12  1  0
  9 13  2  0
 10 13  1  0
 11 14  1  0
 12 15  1  0
 12 16  1  0
 15 17  1  1
 15 18  1  0
 16 19  1  0
 20 14  1  1
 18 21  1  1
 17 22  1  0
 21 22  1  0
 18 23  1  0
 19 23  1  0
 20 24  1  0
 20 25  1  0
 25 26  1  0
 24 27  1  0
 26 27  1  0
M  END
