mac-x0341-mac-x0333
     RDKit          3D

 13 14  0  0  0  0  0  0  0  0999 V2000
   28.3380   54.7320   -7.6390 N   0  0  0  0  0  0  0  0  0  0  0  0
   28.6360   53.6030   -6.9520 C   0  0  0  0  0  0  0  0  0  0  0  0
   28.5260   52.4420   -7.5150 N   0  0  0  0  0  0  0  0  0  0  0  0
   29.0490   53.7670   -5.6650 N   0  0  0  0  0  0  0  0  0  0  0  0
   29.4030   52.7260   -4.8440 C   0  0  0  0  0  0  0  0  0  0  0  0
   28.8510   51.3040   -6.7590 C   0  0  0  0  0  0  0  0  0  0  0  0
   29.7880   52.9020   -3.6910 O   0  0  0  0  0  0  0  0  0  0  0  0
   29.2900   51.3840   -5.4350 C   0  0  0  0  0  0  0  0  0  0  0  0
   28.7330   50.0430   -7.3470 C   0  0  0  0  0  0  0  0  0  0  0  0
   29.0480   48.8900   -6.6190 C   0  0  0  0  0  0  0  0  0  0  0  0
   29.6080   50.2410   -4.6920 C   0  0  0  0  0  0  0  0  0  0  0  0
   29.4830   48.9990   -5.2980 C   0  0  0  0  0  0  0  0  0  0  0  0
   29.7810   47.8510   -4.6230 O   0  0  0  0  0  0  0  0  0  0  0  0
  1  2  1  0
  2  3  2  0
  2  4  1  0
  4  5  1  0
  3  6  1  0
  5  7  2  0
  5  8  1  0
  6  8  2  0
  6  9  1  0
  9 10  2  0
  8 11  1  0
 10 12  1  0
 11 12  2  0
 12 13  1  0
M  END
