mac-x0212-mac-x0302
     RDKit          3D

 17 17  0  0  0  0  0  0  0  0999 V2000
   30.8790   53.9290   -6.4360 C   0  0  0  0  0  0  0  0  0  0  0  0
   29.4190   54.1020   -5.4270 S   0  0  0  0  0  0  0  0  0  0  0  0
   28.6310   55.1810   -5.9860 O   0  0  0  0  0  0  0  0  0  0  0  0
   29.8100   54.1140   -4.0360 O   0  0  0  0  0  0  0  0  0  0  0  0
   28.5630   52.6970   -5.7780 N   0  0  0  0  0  0  0  0  0  0  0  0
   29.0370   51.4040   -5.3940 C   0  0  0  0  0  0  0  0  0  0  0  0
   29.3210   50.4170   -6.3390 C   0  0  0  0  0  0  0  0  0  0  0  0
   29.2110   51.1310   -4.0350 C   0  0  0  0  0  0  0  0  0  0  0  0
   29.7760   49.1530   -5.9310 C   0  0  0  0  0  0  0  0  0  0  0  0
   29.6670   49.8680   -3.6430 C   0  0  0  0  0  0  0  0  0  0  0  0
   29.9530   48.8600   -4.5690 C   0  0  0  0  0  0  0  0  0  0  0  0
   29.8450   49.5730   -2.3190 O   0  0  0  0  0  0  0  0  0  0  0  0
   30.4350   47.4940   -4.0910 C   0  0  1  0  0  0  0  0  0  0  0  0
   30.8360   46.5010   -5.2020 C   0  0  0  0  0  0  0  0  0  0  0  0
   31.4610   47.6760   -3.1210 O   0  0  0  0  0  0  0  0  0  0  0  0
   30.9380   45.2190   -4.7660 O   0  0  0  0  0  0  0  0  0  0  0  0
   31.0540   46.7400   -6.3780 O   0  0  0  0  0  0  0  0  0  0  0  0
  1  2  1  0
  2  3  2  0
  2  4  2  0
  2  5  1  0
  5  6  1  0
  6  7  2  0
  6  8  1  0
  7  9  1  0
  8 10  2  0
  9 11  2  0
 10 11  1  0
 10 12  1  0
 11 13  1  0
 13 14  1  0
 13 15  1  1
 14 16  1  0
 14 17  2  0
M  END
