mac-x0555-mac-x0584
     RDKit          3D

 28 33  0  0  0  0  0  0  0  0999 V2000
   30.0590   54.7410   -6.6700 N   0  0  0  0  0  0  0  0  0  0  0  0
   29.8710   53.7700   -5.6800 C   0  0  0  0  0  0  0  0  0  0  0  0
   30.4000   53.8980   -4.3990 C   0  0  0  0  0  0  0  0  0  0  0  0
   29.1330   52.6180   -5.9440 C   0  0  0  0  0  0  0  0  0  0  0  0
   28.9420   51.6410   -4.9500 C   0  0  0  0  0  0  0  0  0  0  0  0
   30.2480   52.9930   -3.4050 N   0  0  0  0  0  0  0  0  0  0  0  0
   29.5270   51.8880   -3.6980 C   0  0  0  0  0  0  0  0  0  0  0  0
   28.1380   50.3460   -5.1670 C   0  0  2  0  0  0  0  0  0  0  0  0
   29.3870   50.9300   -2.6010 C   0  0  0  0  0  0  0  0  0  0  0  0
   27.5450   49.8120   -3.8350 C   0  0  0  0  0  0  0  0  0  0  0  0
   28.7740   49.2900   -6.0380 C   0  0  0  0  0  0  0  0  0  0  0  0
   26.9730   50.7270   -6.1420 C   0  0  0  0  0  0  0  0  0  0  0  0
   28.4670   49.9570   -2.6540 C   0  0  0  0  0  0  0  0  0  0  0  0
   28.3590   49.4640   -7.3510 C   0  0  0  0  0  0  0  0  0  0  0  0
   29.6390   48.2410   -5.7910 C   0  0  0  0  0  0  0  0  0  0  0  0
   27.4650   50.5580   -7.5210 N   0  0  0  0  0  0  0  0  0  0  0  0
   30.1050   47.9920   -4.4750 N   0  0  0  0  0  0  0  0  0  0  0  0
   30.0390   47.4490   -6.8080 N   0  0  0  0  0  0  0  0  0  0  0  0
   28.7340   48.7020   -8.3730 N   0  0  0  0  0  0  0  0  0  0  0  0
   30.6140   46.6290   -4.1860 C   0  0  1  0  0  0  0  0  0  0  0  0
   31.2290   48.8900   -4.1440 C   0  0  0  0  0  0  0  0  0  0  0  0
   29.5710   47.7180   -8.0390 C   0  0  0  0  0  0  0  0  0  0  0  0
   31.6510   46.1540   -5.2310 C   0  0  0  0  0  0  0  0  0  0  0  0
   31.3140   46.8430   -2.8340 C   0  0  0  0  0  0  0  0  0  0  0  0
   31.8620   48.2710   -2.8970 C   0  0  0  0  0  0  0  0  0  0  0  0
   32.1760   44.6990   -5.0550 C   0  0  0  0  0  0  0  0  0  0  0  0
   33.1240   46.6030   -5.0270 C   0  0  0  0  0  0  0  0  0  0  0  0
   33.5640   45.2040   -5.4890 C   0  0  0  0  0  0  0  0  0  0  0  0
  1  2  1  0
  2  3  2  0
  2  4  1  0
  4  5  2  0
  3  6  1  0
  5  7  1  0
  6  7  2  0
  5  8  1  0
  7  9  1  0
  8 10  1  1
  8 11  1  0
  8 12  1  0
  9 13  2  0
 10 13  1  0
 11 14  2  0
 11 15  1  0
 12 16  1  0
 14 16  1  0
 15 17  1  0
 15 18  2  0
 14 19  1  0
 17 20  1  0
 17 21  1  0
 18 22  1  0
 19 22  2  0
 20 23  1  6
 20 24  1  0
 21 25  1  0
 24 25  1  0
 23 26  1  0
 23 27  1  0
 26 28  1  0
 27 28  1  0
M  END
