mac-x0439-mac-x0341
     RDKit          3D

 28 31  0  0  0  0  0  0  0  0999 V2000
   30.9400   47.2670   -1.8640 Cl  0  0  0  0  0  0  0  0  0  0  0  0
   29.7180   46.0880   -2.1540 C   0  0  0  0  0  0  0  0  0  0  0  0
   29.3020   45.8120   -3.5580 C   0  0  1  0  0  0  0  0  0  0  0  0
   29.1270   45.4270   -1.1410 C   0  0  0  0  0  0  0  0  0  0  0  0
   30.2200   45.7580   -4.7250 C   0  0  0  0  0  0  0  0  0  0  0  0
   28.8370   44.3730   -3.6560 C   0  0  0  0  0  0  0  0  0  0  0  0
   28.0890   44.4360   -1.4040 C   0  0  0  0  0  0  0  0  0  0  0  0
   30.1370   44.5520   -5.3160 C   0  0  0  0  0  0  0  0  0  0  0  0
   29.2910   43.6790   -4.6570 N   0  0  0  0  0  0  0  0  0  0  0  0
   27.9100   43.8880   -2.6190 C   0  0  0  0  0  0  0  0  0  0  0  0
   30.8760   44.1580   -6.5580 C   0  0  0  0  0  0  0  0  0  0  0  0
   31.1340   42.8390   -6.5910 O   0  0  0  0  0  0  0  0  0  0  0  0
   31.2240   44.9580   -7.4930 N   0  0  0  0  0  0  0  0  0  0  0  0
   30.8960   46.3690   -7.4330 C   0  0  0  0  0  0  0  0  0  0  0  0
   29.3890   46.4770   -7.1900 C   0  0  0  0  0  0  0  0  0  0  0  0
   28.7340   47.7090   -7.8040 C   0  0  0  0  0  0  0  0  0  0  0  0
   28.9250   48.9640   -6.9890 C   0  0  0  0  0  0  0  0  0  0  0  0
   28.6490   50.2010   -7.5830 C   0  0  0  0  0  0  0  0  0  0  0  0
   29.3700   48.9210   -5.6570 C   0  0  0  0  0  0  0  0  0  0  0  0
   28.8080   51.3880   -6.8770 C   0  0  0  0  0  0  0  0  0  0  0  0
   29.5340   50.1040   -4.9370 C   0  0  0  0  0  0  0  0  0  0  0  0
   29.2510   51.3290   -5.5570 C   0  0  0  0  0  0  0  0  0  0  0  0
   28.5150   52.6030   -7.5260 N   0  0  0  0  0  0  0  0  0  0  0  0
   28.6590   53.7020   -6.8610 C   0  0  0  0  0  0  0  0  0  0  0  0
   29.4080   52.6050   -4.8440 C   0  0  0  0  0  0  0  0  0  0  0  0
   28.3880   54.8960   -7.4500 N   0  0  0  0  0  0  0  0  0  0  0  0
   29.8030   52.6620   -3.6870 O   0  0  0  0  0  0  0  0  0  0  0  0
   29.0820   53.7340   -5.5650 N   0  0  0  0  0  0  0  0  0  0  0  0
  1  2  1  0
  2  3  1  0
  2  4  2  0
  3  5  1  6
  3  6  1  0
  4  7  1  0
  5  8  2  0
  6  9  2  0
  8  9  1  0
  6 10  1  0
  7 10  2  0
  8 11  1  0
 11 12  1  0
 11 13  2  3
 13 14  1  0
 14 15  1  0
 15 16  1  0
 16 17  1  0
 17 18  2  0
 17 19  1  0
 18 20  1  0
 19 21  2  0
 20 22  2  0
 21 22  1  0
 20 23  1  0
 23 24  2  0
 22 25  1  0
 24 26  1  0
 25 27  2  0
 24 28  1  0
 25 28  1  0
M  END
