mac-x0472-mac-x0284
     RDKit          3D

 24 26  0  0  0  0  0  0  0  0999 V2000
   31.4580   52.2610   -3.1220 O   0  0  0  0  0  0  0  0  0  0  0  0
   31.5890   52.5070   -4.5980 S   0  0  0  0  0  0  0  0  0  0  0  0
   31.2010   51.0700   -5.4300 N   0  0  0  0  0  0  0  0  0  0  0  0
   33.3630   52.3420   -4.9490 C   0  0  0  0  0  0  0  0  0  0  0  0
   29.9410   50.8480   -5.8260 C   0  0  0  0  0  0  0  0  0  0  0  0
   33.9470   51.0710   -5.0390 C   0  0  0  0  0  0  0  0  0  0  0  0
   34.1650   53.4760   -5.1350 C   0  0  0  0  0  0  0  0  0  0  0  0
   29.4140   49.8310   -6.5200 N   0  0  0  0  0  0  0  0  0  0  0  0
   28.5820   51.7610   -5.6030 S   0  0  0  0  0  0  0  0  0  0  0  0
   35.3110   50.9380   -5.3090 C   0  0  0  0  0  0  0  0  0  0  0  0
   35.5280   53.3410   -5.4040 C   0  0  0  0  0  0  0  0  0  0  0  0
   27.3700   50.8950   -6.3560 C   0  0  0  0  0  0  0  0  0  0  0  0
   27.9900   49.8100   -6.8380 N   0  0  0  0  0  0  0  0  0  0  0  0
   36.1010   52.0700   -5.4910 C   0  0  0  0  0  0  0  0  0  0  0  0
   28.6620   50.1680   -6.4680 C   0  0  0  0  0  0  0  0  0  0  0  0
   28.4410   49.0080   -5.4700 C   0  0  0  0  0  0  0  0  0  0  0  0
   28.7610   47.6740   -5.8170 C   0  0  0  0  0  0  0  0  0  0  0  0
   27.9160   49.2560   -4.1880 C   0  0  0  0  0  0  0  0  0  0  0  0
   28.5580   46.6290   -4.9030 C   0  0  0  0  0  0  0  0  0  0  0  0
   27.7150   48.2140   -3.2810 C   0  0  0  0  0  0  0  0  0  0  0  0
   28.8810   45.2160   -5.2310 C   0  0  0  0  0  0  0  0  0  0  0  0
   28.0350   46.9020   -3.6360 C   0  0  0  0  0  0  0  0  0  0  0  0
   28.2880   44.5950   -6.0970 O   0  0  0  0  0  0  0  0  0  0  0  0
   29.8820   44.6920   -4.4980 O   0  0  0  0  0  0  0  0  0  0  0  0
  1  2  2  0
  2  3  1  6
  2  4  1  0
  3  5  1  0
  4  6  2  0
  4  7  1  0
  5  8  1  0
  5  9  2  0
  6 10  1  0
  7 11  2  0
  9 12  1  0
  8 13  1  0
 12 13  2  0
 10 14  2  0
 11 14  1  0
  9 15  1  0
 15 16  1  0
 16 17  2  0
 16 18  1  0
 17 19  1  0
 18 20  2  0
 19 21  1  0
 19 22  2  0
 20 22  1  0
 21 23  2  0
 21 24  1  0
M  END
