mac-x0402-mac-x0453
     RDKit          3D

 14 16  0  0  0  0  0  0  0  0999 V2000
   29.1290   48.1760   -3.7810 Cl  0  0  0  0  0  0  0  0  0  0  0  0
   30.3150   49.4390   -4.2210 C   0  0  2  0  0  0  0  0  0  0  0  0
   29.7540   50.8150   -3.8640 C   0  0  0  0  0  0  0  0  0  0  0  0
   30.6800   49.3050   -5.7030 C   0  0  0  0  0  0  0  0  0  0  0  0
   29.7050   50.0290   -6.6530 C   0  0  2  0  0  0  0  0  0  0  0  0
   30.1590   51.8760   -4.8940 C   0  0  2  0  0  0  0  0  0  0  0  0
   29.5430   53.1780   -4.6370 C   0  0  0  0  0  0  0  0  0  0  0  0
   29.6630   51.5450   -6.4310 C   0  0  2  0  0  0  0  0  0  0  0  0
   28.3840   49.3040   -6.6200 C   0  0  0  0  0  0  0  0  0  0  0  0
   29.0270   53.1220   -5.7410 C   0  0  0  0  0  0  0  0  0  0  0  0
   28.4640   52.3670   -7.2280 C   0  0  2  0  0  0  0  0  0  0  0  0
   26.8260   50.0410   -6.9360 S   0  0  0  0  0  0  0  0  0  0  0  0
   28.2870   53.6600   -6.5900 N   0  0  0  0  0  0  0  0  0  0  0  0
   27.1050   51.7370   -7.2600 C   0  0  0  0  0  0  0  0  0  0  0  0
  2  1  1  6
  2  3  1  0
  2  4  1  0
  5  4  1  1
  6  3  1  1
  6  7  1  0
  8  5  1  1
  6  8  1  0
  5  9  1  0
  7 10  2  0
  8 11  1  0
  9 12  2  0
 10 13  1  0
 11 13  1  0
 11 14  1  1
 12 14  2  0
M  END
