mac-x0365-mac-x0283
     RDKit          3D

 15 16  0  0  0  0  0  0  0  0999 V2000
   29.7250   47.9760   -6.1300 O   0  0  0  0  0  0  0  0  0  0  0  0
   30.1500   48.4510   -4.9470 C   0  0  0  0  0  0  0  0  0  0  0  0
   30.8100   47.7410   -4.2010 O   0  0  0  0  0  0  0  0  0  0  0  0
   29.7320   49.8610   -4.6510 C   0  0  0  0  0  0  0  0  0  0  0  0
   29.8520   50.3440   -3.2930 C   0  0  0  0  0  0  0  0  0  0  0  0
   29.2380   50.6930   -5.6250 C   0  0  0  0  0  0  0  0  0  0  0  0
   29.6450   51.6270   -2.9700 C   0  0  0  0  0  0  0  0  0  0  0  0
   28.7690   52.1180   -5.2890 C   0  0  1  0  0  0  0  0  0  0  0  0
   29.7900   52.0040   -1.6840 F   0  0  0  0  0  0  0  0  0  0  0  0
   29.2660   52.6680   -3.9640 C   0  0  1  0  0  0  0  0  0  0  0  0
   29.2710   53.3040   -6.0860 C   0  0  0  0  0  0  0  0  0  0  0  0
   28.2880   53.5460   -3.4330 O   0  0  0  0  0  0  0  0  0  0  0  0
   28.7890   53.6190   -7.3280 N   0  0  0  0  0  0  0  0  0  0  0  0
   30.1730   54.0360   -5.5010 N   0  0  0  0  0  0  0  0  0  0  0  0
   30.4170   53.4450   -4.2530 O   0  0  0  0  0  0  0  0  0  0  0  0
  1  2  1  0
  2  3  2  0
  2  4  1  0
  4  5  1  0
  4  6  2  0
  5  7  2  0
  8  6  1  6
  7  9  1  0
  7 10  1  0
  8 10  1  0
  8 11  1  0
 10 12  1  1
 11 13  1  0
 11 14  2  0
 10 15  1  0
 14 15  1  0
M  END
