mac-x0226-mac-x0282
     RDKit          3D

 25 28  0  0  0  0  0  0  0  0999 V2000
   32.0440   45.6080   -6.8160 O   0  0  0  0  0  0  0  0  0  0  0  0
   32.8710   46.3120   -5.9140 C   0  0  0  0  0  0  0  0  0  0  0  0
   33.9130   46.8750   -6.7010 O   0  0  0  0  0  0  0  0  0  0  0  0
   32.1240   47.4740   -5.2420 C   0  0  0  0  0  0  0  0  0  0  0  0
   33.4260   45.4260   -4.8610 C   0  0  0  0  0  0  0  0  0  0  0  0
   30.6270   47.2590   -5.0160 C   0  0  0  0  0  0  0  0  0  0  0  0
   32.9930   44.1490   -4.4580 C   0  0  0  0  0  0  0  0  0  0  0  0
   34.4940   45.6850   -4.0380 C   0  0  0  0  0  0  0  0  0  0  0  0
   33.7250   43.6490   -3.4630 N   0  0  0  0  0  0  0  0  0  0  0  0
   34.6510   44.6100   -3.2090 N   0  0  0  0  0  0  0  0  0  0  0  0
   29.8230   47.8950   -6.1060 C   0  0  0  0  0  0  0  0  0  0  0  0
   35.6290   44.4680   -2.1980 C   0  0  0  0  0  0  0  0  0  0  0  0
   29.3900   49.2320   -6.0570 C   0  0  0  0  0  0  0  0  0  0  0  0
   29.4760   47.1610   -7.2480 C   0  0  0  0  0  0  0  0  0  0  0  0
   36.4920   45.5300   -1.9040 C   0  0  0  0  0  0  0  0  0  0  0  0
   35.7310   43.2680   -1.4870 C   0  0  0  0  0  0  0  0  0  0  0  0
   29.5040   50.3070   -5.1320 C   0  0  0  0  0  0  0  0  0  0  0  0
   28.6680   49.7150   -7.1400 C   0  0  0  0  0  0  0  0  0  0  0  0
   28.7450   47.7680   -8.2600 C   0  0  0  0  0  0  0  0  0  0  0  0
   37.4520   45.3880   -0.9040 C   0  0  0  0  0  0  0  0  0  0  0  0
   36.6940   43.1340   -0.4880 C   0  0  0  0  0  0  0  0  0  0  0  0
   28.8580   51.3970   -5.6710 C   0  0  0  0  0  0  0  0  0  0  0  0
   28.3560   51.0230   -6.8900 N   0  0  0  0  0  0  0  0  0  0  0  0
   28.3180   49.0500   -8.2550 N   0  0  0  0  0  0  0  0  0  0  0  0
   37.5520   44.1910   -0.1960 C   0  0  0  0  0  0  0  0  0  0  0  0
  2  1  1  0
  2  3  1  0
  2  4  1  0
  2  5  1  0
  4  6  1  0
  5  7  1  0
  5  8  2  0
  7  9  2  0
  8 10  1  0
  9 10  1  0
  6 11  1  0
 10 12  1  0
 11 13  1  0
 11 14  2  0
 12 15  2  0
 12 16  1  0
 13 17  1  0
 13 18  2  0
 14 19  1  0
 15 20  1  0
 16 21  2  0
 17 22  2  0
 18 23  1  0
 22 23  1  0
 18 24  1  0
 19 24  2  0
 20 25  2  0
 21 25  1  0
M  END
