mac-x0271-mac-x0161
     RDKit          3D

 24 27  0  0  0  0  0  0  0  0999 V2000
   30.2790   48.9390   -3.9490 O   0  0  0  0  0  0  0  0  0  0  0  0
   30.2330   50.2000   -4.6390 C   0  0  1  0  0  0  0  0  0  0  0  0
   29.2350   50.1090   -5.8370 C   0  0  2  0  0  0  0  0  0  0  0  0
   31.4530   48.3090   -3.8560 C   0  0  0  0  0  0  0  0  0  0  0  0
   29.8590   51.3440   -3.6820 C   0  0  0  0  0  0  0  0  0  0  0  0
   32.6430   48.6750   -3.2850 C   0  0  0  0  0  0  0  0  0  0  0  0
   31.5740   47.0670   -4.4040 O   0  0  0  0  0  0  0  0  0  0  0  0
   29.5020   52.6220   -4.3740 C   0  0  0  0  0  0  0  0  0  0  0  0
   29.1280   51.4990   -6.6080 C   0  0  1  0  0  0  0  0  0  0  0  0
   27.8730   49.6430   -5.4030 N   0  0  0  0  0  0  0  0  0  0  0  0
   29.6160   48.9430   -6.7540 C   0  0  0  0  0  0  0  0  0  0  0  0
   32.8660   46.5970   -4.1990 N   0  0  0  0  0  0  0  0  0  0  0  0
   33.4820   47.5740   -3.5300 C   0  0  0  0  0  0  0  0  0  0  0  0
   27.9240   51.6260   -7.4560 N   0  0  0  0  0  0  0  0  0  0  0  0
   34.7730   47.4750   -3.1470 O   0  0  0  0  0  0  0  0  0  0  0  0
   29.1750   52.7050   -5.6750 C   0  0  0  0  0  0  0  0  0  0  0  0
   29.5370   53.7670   -3.5340 O   0  0  0  0  0  0  0  0  0  0  0  0
   28.3790   48.6680   -7.4830 N   0  0  0  0  0  0  0  0  0  0  0  0
   27.3040   48.9270   -6.5440 C   0  0  0  0  0  0  0  0  0  0  0  0
   35.1120   48.2500   -2.0020 C   0  0  0  0  0  0  0  0  0  0  0  0
   28.8530   54.0070   -6.2130 C   0  0  0  0  0  0  0  0  0  0  0  0
   29.3630   55.0200   -4.0480 C   0  0  0  0  0  0  0  0  0  0  0  0
   29.5460   56.0420   -3.3930 O   0  0  0  0  0  0  0  0  0  0  0  0
   28.9380   55.1070   -5.4540 C   0  0  0  0  0  0  0  0  0  0  0  0
  2  1  1  1
  2  3  1  0
  1  4  1  0
  2  5  1  0
  4  6  2  0
  4  7  1  0
  5  8  1  0
  3  9  1  0
  3 10  1  0
  3 11  1  6
  7 12  1  0
  6 13  1  0
 12 13  2  0
  9 14  1  1
 13 15  1  0
  8 16  2  0
  9 16  1  0
  8 17  1  0
 11 18  1  0
 10 19  1  0
 18 19  1  0
 15 20  1  0
 16 21  1  0
 17 22  1  0
 22 23  2  0
 21 24  2  0
 22 24  1  0
M  END
