mac-x0124-mac-x0437
     RDKit          3D

 27 30  0  0  0  0  0  0  0  0999 V2000
   28.0970   45.8250   -5.3530 C   0  0  0  0  0  0  0  0  0  0  0  0
   28.5290   47.1920   -5.5500 N   0  0  0  0  0  0  0  0  0  0  0  0
   29.3300   47.9240   -4.6920 C   0  0  0  0  0  0  0  0  0  0  0  0
   28.1930   47.9610   -6.6430 C   0  0  0  0  0  0  0  0  0  0  0  0
   29.8820   47.4030   -3.3940 C   0  0  0  0  0  0  0  0  0  0  0  0
   29.4920   49.1770   -5.2690 C   0  0  0  0  0  0  0  0  0  0  0  0
   28.7820   49.2100   -6.4940 C   0  0  0  0  0  0  0  0  0  0  0  0
   27.4280   47.5710   -7.6750 N   0  0  0  0  0  0  0  0  0  0  0  0
   31.1690   46.5840   -3.5290 C   0  0  0  0  0  0  0  0  0  0  0  0
   28.5570   50.1500   -7.5120 C   0  0  0  0  0  0  0  0  0  0  0  0
   27.2810   48.5480   -8.5860 C   0  0  0  0  0  0  0  0  0  0  0  0
   29.0760   51.4340   -7.5040 N   0  0  0  0  0  0  0  0  0  0  0  0
   31.4370   46.2940   -4.9140 O   0  0  0  0  0  0  0  0  0  0  0  0
   27.7930   49.7950   -8.5650 N   0  0  0  0  0  0  0  0  0  0  0  0
   32.7450   46.0920   -5.2150 C   0  0  0  0  0  0  0  0  0  0  0  0
   33.4440   46.8420   -5.8850 O   0  0  0  0  0  0  0  0  0  0  0  0
   33.2360   44.8020   -4.6160 C   0  0  0  0  0  0  0  0  0  0  0  0
   33.6340   44.9980   -3.1560 C   0  0  0  0  0  0  0  0  0  0  0  0
   34.9210   45.6520   -2.9740 N   0  0  0  0  0  0  0  0  0  0  0  0
   35.1500   46.9970   -3.0750 C   0  0  0  0  0  0  0  0  0  0  0  0
   36.1140   45.0390   -2.6700 C   0  0  0  0  0  0  0  0  0  0  0  0
   36.4120   47.2940   -2.8570 N   0  0  0  0  0  0  0  0  0  0  0  0
   37.0260   46.0930   -2.6040 C   0  0  0  0  0  0  0  0  0  0  0  0
   36.4830   43.7070   -2.4500 C   0  0  0  0  0  0  0  0  0  0  0  0
   38.3710   45.8250   -2.3070 C   0  0  0  0  0  0  0  0  0  0  0  0
   37.8310   43.4600   -2.1550 C   0  0  0  0  0  0  0  0  0  0  0  0
   38.7620   44.4990   -2.0830 C   0  0  0  0  0  0  0  0  0  0  0  0
  1  2  1  0
  2  3  1  0
  2  4  1  0
  3  5  1  0
  3  6  2  0
  4  7  2  0
  6  7  1  0
  4  8  1  0
  5  9  1  0
  7 10  1  0
  8 11  2  0
 10 12  1  0
  9 13  1  0
 10 14  2  0
 11 14  1  0
 13 15  1  0
 15 16  2  0
 15 17  1  0
 17 18  1  0
 18 19  1  0
 19 20  1  0
 19 21  1  0
 20 22  2  0
 21 23  2  0
 22 23  1  0
 21 24  1  0
 23 25  1  0
 24 26  2  0
 25 27  2  0
 26 27  1  0
M  END
