mac-x0333-mac-x0433
     RDKit          3D

 12 13  0  0  0  0  0  0  0  0999 V2000
   30.3000   48.0210   -3.7580 O   0  0  0  0  0  0  0  0  0  0  0  0
   29.9950   49.2490   -4.2750 C   0  0  0  0  0  0  0  0  0  0  0  0
   29.5300   49.2900   -5.5930 C   0  0  0  0  0  0  0  0  0  0  0  0
   30.1400   50.4110   -3.5190 C   0  0  0  0  0  0  0  0  0  0  0  0
   29.8060   51.6180   -4.1190 C   0  0  0  0  0  0  0  0  0  0  0  0
   29.1980   50.5110   -6.1860 C   0  0  0  0  0  0  0  0  0  0  0  0
   29.3400   51.6730   -5.4370 C   0  0  0  0  0  0  0  0  0  0  0  0
   29.8760   52.9180   -3.5420 N   0  0  0  0  0  0  0  0  0  0  0  0
   29.4610   53.0740   -2.2000 N   0  0  0  0  0  0  0  0  0  0  0  0
   29.0630   52.9940   -5.8470 N   0  0  0  0  0  0  0  0  0  0  0  0
   29.3050   53.7770   -4.6160 C   0  0  0  0  0  0  0  0  0  0  0  0
   27.7800   53.1780   -6.5010 C   0  0  0  0  0  0  0  0  0  0  0  0
  1  2  1  0
  2  3  2  0
  2  4  1  0
  4  5  2  0
  3  6  1  0
  5  7  1  0
  6  7  2  0
  5  8  1  0
  8  9  1  0
  7 10  1  0
  8 11  1  0
 10 11  1  0
 10 12  1  0
M  END
