mac-x0347-mac-x0346
     RDKit          3D

 20 21  0  0  0  0  0  0  0  0999 V2000
   30.5180   44.4950   -5.4150 O   0  0  0  0  0  0  0  0  0  0  0  0
   30.9300   45.6880   -5.8910 C   0  0  0  0  0  0  0  0  0  0  0  0
   31.5720   45.8120   -6.9210 O   0  0  0  0  0  0  0  0  0  0  0  0
   30.5370   46.8400   -5.0500 C   0  0  0  0  0  0  0  0  0  0  0  0
   30.2320   48.1010   -5.5690 C   0  0  0  0  0  0  0  0  0  0  0  0
   30.4670   46.6560   -3.6780 C   0  0  0  0  0  0  0  0  0  0  0  0
   29.8640   49.1510   -4.7070 C   0  0  0  0  0  0  0  0  0  0  0  0
   30.1170   47.6340   -2.8080 N   0  0  0  0  0  0  0  0  0  0  0  0
   29.8270   48.8460   -3.3420 C   0  0  0  0  0  0  0  0  0  0  0  0
   29.5320   50.4970   -5.2120 C   0  0  0  0  0  0  0  0  0  0  0  0
   28.8560   50.6230   -6.4400 C   0  0  0  0  0  0  0  0  0  0  0  0
   29.8620   51.6830   -4.5210 C   0  0  0  0  0  0  0  0  0  0  0  0
   30.5250   51.5580   -3.3190 O   0  0  0  0  0  0  0  0  0  0  0  0
   28.5200   51.8740   -6.9610 C   0  0  0  0  0  0  0  0  0  0  0  0
   29.5250   52.9530   -5.0400 C   0  0  0  0  0  0  0  0  0  0  0  0
   29.8870   54.1860   -4.2850 C   0  0  0  0  0  0  0  0  0  0  0  0
   28.8520   53.0320   -6.2670 C   0  0  0  0  0  0  0  0  0  0  0  0
   30.4960   55.2110   -4.9780 N   0  0  0  0  0  0  0  0  0  0  0  0
   29.6430   54.2690   -3.0800 O   0  0  0  0  0  0  0  0  0  0  0  0
   29.7830   56.4380   -4.9650 O   0  0  0  0  0  0  0  0  0  0  0  0
  1  2  1  0
  2  3  2  0
  2  4  1  0
  4  5  2  0
  4  6  1  0
  5  7  1  0
  6  8  2  0
  7  9  2  0
  8  9  1  0
  7 10  1  0
 10 11  2  0
 10 12  1  0
 12 13  1  0
 11 14  1  0
 12 15  2  0
 15 16  1  0
 14 17  2  0
 15 17  1  0
 16 18  1  0
 16 19  2  0
 18 20  1  0
M  END
