mac-x0138-mac-x0132
     RDKit          3D

 22 25  0  0  0  0  0  0  0  0999 V2000
   31.8290   46.1790   -5.5960 C   0  0  0  0  0  0  0  0  0  0  0  0
   31.5430   47.5830   -5.7460 N   0  0  0  0  0  0  0  0  0  0  0  0
   32.3450   48.6230   -5.3690 C   0  0  0  0  0  0  0  0  0  0  0  0
   30.4090   48.1080   -6.2970 C   0  0  0  0  0  0  0  0  0  0  0  0
   31.7970   49.7890   -5.6410 N   0  0  0  0  0  0  0  0  0  0  0  0
   30.5800   49.4810   -6.2240 C   0  0  0  0  0  0  0  0  0  0  0  0
   29.3560   47.4450   -6.8000 N   0  0  0  0  0  0  0  0  0  0  0  0
   29.5350   50.2780   -6.7320 C   0  0  0  0  0  0  0  0  0  0  0  0
   28.4150   48.2840   -7.2600 C   0  0  0  0  0  0  0  0  0  0  0  0
   29.6150   51.6890   -6.7030 N   0  0  0  0  0  0  0  0  0  0  0  0
   27.2810   47.7100   -7.8060 N   0  0  0  0  0  0  0  0  0  0  0  0
   28.4530   49.6270   -7.2500 N   0  0  0  0  0  0  0  0  0  0  0  0
   29.5920   52.5620   -5.5840 C   0  0  0  0  0  0  0  0  0  0  0  0
   28.7600   52.2770   -4.4750 C   0  0  0  0  0  0  0  0  0  0  0  0
   30.3760   53.6590   -5.6090 N   0  0  0  0  0  0  0  0  0  0  0  0
   28.8120   53.2060   -3.4220 C   0  0  0  0  0  0  0  0  0  0  0  0
   30.3340   54.4650   -4.5440 C   0  0  0  0  0  0  0  0  0  0  0  0
   27.9020   51.1520   -4.3570 C   0  0  0  0  0  0  0  0  0  0  0  0
   29.5900   54.2920   -3.4490 N   0  0  0  0  0  0  0  0  0  0  0  0
   28.0230   52.9930   -2.2990 C   0  0  0  0  0  0  0  0  0  0  0  0
   27.1200   50.9600   -3.2190 C   0  0  0  0  0  0  0  0  0  0  0  0
   27.1800   51.8830   -2.1860 C   0  0  0  0  0  0  0  0  0  0  0  0
  1  2  1  0
  2  3  1  0
  2  4  1  0
  3  5  2  0
  4  6  2  0
  5  6  1  0
  4  7  1  0
  6  8  1  0
  7  9  2  0
  8 10  1  0
  9 11  1  0
  8 12  2  0
  9 12  1  0
 10 13  1  0
 13 14  1  0
 13 15  2  0
 14 16  2  0
 15 17  1  0
 14 18  1  0
 16 19  1  0
 17 19  2  0
 16 20  1  0
 18 21  2  0
 20 22  2  0
 21 22  1  0
M  END
