mac-x0572-mac-x0472
     RDKit          3D

 23 25  0  0  0  0  0  0  0  0999 V2000
   28.1950   56.1620   -7.2850 C   0  0  0  0  0  0  0  0  0  0  0  0
   28.6180   54.9780   -6.4570 C   0  0  0  0  0  0  0  0  0  0  0  0
   28.3850   53.7530   -7.0580 N   0  0  0  0  0  0  0  0  0  0  0  0
   29.1720   55.1380   -5.2390 C   0  0  0  0  0  0  0  0  0  0  0  0
   29.4060   56.3580   -4.6350 O   0  0  0  0  0  0  0  0  0  0  0  0
   29.5570   53.9140   -4.5030 C   0  0  0  0  0  0  0  0  0  0  0  0
   28.9650   52.6880   -6.5790 C   0  0  0  0  0  0  0  0  0  0  0  0
   29.5770   53.9400   -3.2700 O   0  0  0  0  0  0  0  0  0  0  0  0
   29.8970   52.7300   -5.3750 C   0  0  2  0  0  0  0  0  0  0  0  0
   28.7150   51.3750   -7.2320 C   0  0  0  0  0  0  0  0  0  0  0  0
   28.9930   50.2540   -6.5480 C   0  0  0  0  0  0  0  0  0  0  0  0
   29.9390   51.4230   -4.6400 C   0  0  0  0  0  0  0  0  0  0  0  0
   29.5190   50.2880   -5.2080 C   0  0  0  0  0  0  0  0  0  0  0  0
   29.6230   49.1160   -4.4430 N   0  0  0  0  0  0  0  0  0  0  0  0
   31.0070   48.9700   -3.4680 S   0  0  0  0  0  0  0  0  0  0  0  0
   30.6730   49.6630   -2.2420 O   0  0  0  0  0  0  0  0  0  0  0  0
   31.4380   47.5910   -3.4600 O   0  0  0  0  0  0  0  0  0  0  0  0
   32.2310   49.9570   -4.3130 C   0  0  0  0  0  0  0  0  0  0  0  0
   32.9140   49.4130   -5.4050 C   0  0  0  0  0  0  0  0  0  0  0  0
   32.4990   51.2630   -3.8840 C   0  0  0  0  0  0  0  0  0  0  0  0
   33.8690   50.1840   -6.0690 C   0  0  0  0  0  0  0  0  0  0  0  0
   33.4550   52.0250   -4.5560 C   0  0  0  0  0  0  0  0  0  0  0  0
   34.1390   51.4860   -5.6460 C   0  0  0  0  0  0  0  0  0  0  0  0
  1  2  1  0
  2  3  1  0
  2  4  2  0
  4  5  1  0
  4  6  1  0
  3  7  2  0
  6  8  2  0
  6  9  1  0
  7  9  1  0
  7 10  1  0
 10 11  2  0
  9 12  1  1
 11 13  1  0
 12 13  2  0
 13 14  1  0
 15 14  1  0
 15 16  2  0
 15 17  2  0
 15 18  1  0
 18 19  2  0
 18 20  1  0
 19 21  1  0
 20 22  2  0
 21 23  2  0
 22 23  1  0
M  END
