mac-x0306-mac-x0206
     RDKit          3D

 15 16  0  0  0  0  0  0  0  0999 V2000
   28.4000   51.9370   -2.4900 N   0  0  0  0  0  0  0  0  0  0  0  0
   29.4400   52.7670   -2.7850 C   0  0  0  0  0  0  0  0  0  0  0  0
   30.3620   53.0100   -2.0150 O   0  0  0  0  0  0  0  0  0  0  0  0
   29.4200   53.3590   -4.0630 N   0  0  0  0  0  0  0  0  0  0  0  0
   29.3520   54.7360   -4.2790 C   0  0  0  0  0  0  0  0  0  0  0  0
   29.4590   52.7760   -5.3280 C   0  0  0  0  0  0  0  0  0  0  0  0
   29.3010   55.6450   -3.3050 O   0  0  0  0  0  0  0  0  0  0  0  0
   29.3530   54.8980   -5.6430 C   0  0  0  0  0  0  0  0  0  0  0  0
   29.4180   53.6940   -6.2810 N   0  0  0  0  0  0  0  0  0  0  0  0
   29.5350   51.3400   -5.6040 C   0  0  0  0  0  0  0  0  0  0  0  0
   30.1650   50.5060   -4.6780 C   0  0  0  0  0  0  0  0  0  0  0  0
   28.9980   50.7760   -6.7630 C   0  0  0  0  0  0  0  0  0  0  0  0
   30.2320   49.1500   -4.9460 C   0  0  0  0  0  0  0  0  0  0  0  0
   29.1170   49.4070   -6.9420 C   0  0  0  0  0  0  0  0  0  0  0  0
   29.7210   48.5830   -6.0600 N   0  0  0  0  0  0  0  0  0  0  0  0
  1  2  1  0
  2  3  2  0
  2  4  1  0
  4  5  1  0
  4  6  1  0
  5  7  1  0
  5  8  2  0
  6  9  2  0
  8  9  1  0
  6 10  1  0
 10 11  2  0
 10 12  1  0
 11 13  1  0
 12 14  2  0
 13 15  2  0
 14 15  1  0
M  END
