mac-x0263-mac-x0302
     RDKit          3D

 22 23  0  0  0  0  0  0  0  0999 V2000
   28.0100   59.7820   -6.3860 O   0  0  0  0  0  0  0  0  0  0  0  0
   26.8620   59.0800   -6.3160 C   0  0  0  0  0  0  0  0  0  0  0  0
   25.7980   59.5940   -6.6210 O   0  0  0  0  0  0  0  0  0  0  0  0
   27.0430   57.6600   -5.8390 C   0  0  0  0  0  0  0  0  0  0  0  0
   28.2780   56.9890   -6.4150 C   0  0  0  0  0  0  0  0  0  0  0  0
   28.3210   55.5100   -6.1710 C   0  0  0  0  0  0  0  0  0  0  0  0
   28.8840   54.9500   -5.0530 N   0  0  0  0  0  0  0  0  0  0  0  0
   27.8520   54.5700   -6.9680 N   0  0  0  0  0  0  0  0  0  0  0  0
   28.7870   53.5760   -5.1450 C   0  0  0  0  0  0  0  0  0  0  0  0
   28.1350   53.3740   -6.3500 C   0  0  0  0  0  0  0  0  0  0  0  0
   29.2020   52.5240   -4.3130 C   0  0  0  0  0  0  0  0  0  0  0  0
   27.8680   52.0570   -6.7610 C   0  0  0  0  0  0  0  0  0  0  0  0
   29.8430   52.8450   -3.1430 O   0  0  0  0  0  0  0  0  0  0  0  0
   28.9590   51.1640   -4.7210 C   0  0  0  0  0  0  0  0  0  0  0  0
   28.2800   50.9770   -5.9500 C   0  0  0  0  0  0  0  0  0  0  0  0
   29.3790   49.8790   -3.9620 C   0  0  0  0  0  0  0  0  0  0  0  0
   29.7630   48.7460   -4.6960 N   0  0  0  0  0  0  0  0  0  0  0  0
   29.4000   49.8440   -2.7310 O   0  0  0  0  0  0  0  0  0  0  0  0
   30.3100   47.5280   -4.0770 C   0  0  0  0  0  0  0  0  0  0  0  0
   30.6460   46.4340   -5.0970 C   0  0  0  0  0  0  0  0  0  0  0  0
   30.7450   45.1990   -4.5540 O   0  0  0  0  0  0  0  0  0  0  0  0
   30.8260   46.5760   -6.2990 O   0  0  0  0  0  0  0  0  0  0  0  0
  1  2  1  0
  2  3  2  0
  2  4  1  0
  4  5  1  0
  5  6  1  0
  6  7  1  0
  6  8  2  0
  7  9  1  0
  8 10  1  0
  9 10  2  0
  9 11  1  0
 10 12  1  0
 11 13  1  0
 11 14  2  0
 12 15  2  0
 14 15  1  0
 14 16  1  0
 16 17  1  0
 16 18  2  0
 17 19  1  0
 19 20  1  0
 20 21  1  0
 20 22  2  0
M  END
