mac-x0358-mac-x0380
     RDKit          3D

 26 28  0  0  0  0  0  0  0  0999 V2000
   31.6920   44.9540   -6.6640 O   0  0  0  0  0  0  0  0  0  0  0  0
   32.7630   45.4330   -5.9880 C   0  0  0  0  0  0  0  0  0  0  0  0
   33.5580   46.1570   -6.5670 O   0  0  0  0  0  0  0  0  0  0  0  0
   32.7940   44.9500   -4.5550 C   0  0  0  0  0  0  0  0  0  0  0  0
   32.5450   46.0310   -3.5260 C   0  0  0  0  0  0  0  0  0  0  0  0
   33.6030   46.6060   -2.8100 C   0  0  0  0  0  0  0  0  0  0  0  0
   31.2400   46.4780   -3.2670 C   0  0  0  0  0  0  0  0  0  0  0  0
   34.8760   46.1730   -3.0570 O   0  0  0  0  0  0  0  0  0  0  0  0
   33.3760   47.6000   -1.8610 C   0  0  0  0  0  0  0  0  0  0  0  0
   30.9910   47.4810   -2.3120 C   0  0  0  0  0  0  0  0  0  0  0  0
   29.5860   47.9610   -2.0360 C   0  0  0  0  0  0  0  0  0  0  0  0
   32.0710   48.0350   -1.6140 C   0  0  0  0  0  0  0  0  0  0  0  0
   29.3770   49.2760   -2.6450 N   0  0  0  0  0  0  0  0  0  0  0  0
   28.8680   49.2730   -3.8210 C   0  0  0  0  0  0  0  0  0  0  0  0
   28.5350   48.1450   -4.4790 O   0  0  0  0  0  0  0  0  0  0  0  0
   28.5960   50.5110   -4.5800 C   0  0  0  0  0  0  0  0  0  0  0  0
   28.7810   51.7460   -3.9480 C   0  0  0  0  0  0  0  0  0  0  0  0
   28.1630   50.4560   -5.9070 C   0  0  0  0  0  0  0  0  0  0  0  0
   28.5300   52.9350   -4.6460 C   0  0  0  0  0  0  0  0  0  0  0  0
   27.9130   51.6400   -6.6050 C   0  0  0  0  0  0  0  0  0  0  0  0
   28.0950   52.8780   -5.9790 C   0  0  0  0  0  0  0  0  0  0  0  0
   28.7730   54.4840   -3.8050 S   0  0  0  0  0  0  0  0  0  0  0  0
   27.8270   54.0340   -6.7230 N   0  0  0  0  0  0  0  0  0  0  0  0
   29.1470   55.5200   -5.2350 C   0  0  0  0  0  0  0  0  0  0  0  0
   28.2100   55.3080   -6.4020 C   0  0  0  0  0  0  0  0  0  0  0  0
   27.7830   56.2510   -7.0710 O   0  0  0  0  0  0  0  0  0  0  0  0
  1  2  1  0
  2  3  2  0
  2  4  1  0
  4  5  1  0
  5  6  2  0
  5  7  1  0
  6  8  1  0
  6  9  1  0
  7 10  2  0
 10 11  1  0
  9 12  2  0
 10 12  1  0
 11 13  1  0
 13 14  2  3
 14 15  1  0
 14 16  1  0
 16 17  2  0
 16 18  1  0
 17 19  1  0
 18 20  2  0
 19 21  2  0
 20 21  1  0
 19 22  1  0
 21 23  1  0
 22 24  1  0
 23 25  1  0
 24 25  1  0
 25 26  2  0
M  END
