mac-x0284-mac-x0182
     RDKit          3D

 24 26  0  0  0  0  0  0  0  0999 V2000
   28.7220   51.7210   -5.2310 C   0  0  0  0  0  0  0  0  0  0  0  0
   29.3460   50.4500   -4.7430 C   0  0  0  0  0  0  0  0  0  0  0  0
   30.3890   50.4820   -3.8100 C   0  0  0  0  0  0  0  0  0  0  0  0
   28.8940   49.2070   -5.2150 C   0  0  0  0  0  0  0  0  0  0  0  0
   29.4730   48.0090   -4.7630 C   0  0  0  0  0  0  0  0  0  0  0  0
   30.9730   49.2990   -3.3530 C   0  0  0  0  0  0  0  0  0  0  0  0
   28.9770   46.7090   -5.2750 C   0  0  0  0  0  0  0  0  0  0  0  0
   30.5190   48.0620   -3.8250 C   0  0  0  0  0  0  0  0  0  0  0  0
   31.1210   46.9210   -3.3460 O   0  0  0  0  0  0  0  0  0  0  0  0
   29.0130   46.3250   -6.4320 O   0  0  0  0  0  0  0  0  0  0  0  0
   28.4510   45.9370   -4.3060 O   0  0  0  0  0  0  0  0  0  0  0  0
   32.5500   47.0700   -3.1970 C   0  0  0  0  0  0  0  0  0  0  0  0
   33.2770   47.3120   -4.4500 N   0  0  0  0  0  0  0  0  0  0  0  0
   34.5110   46.4580   -4.7320 S   0  0  2  0  0  0  0  0  0  0  0  0
   35.1950   46.2620   -5.9870 O   0  0  0  0  0  0  0  0  0  0  0  0
   34.1200   44.9130   -4.1980 N   0  0  0  0  0  0  0  0  0  0  0  0
   35.6960   46.7410   -3.4970 C   0  0  0  0  0  0  0  0  0  0  0  0
   35.0080   44.4620   -3.2550 C   0  0  0  0  0  0  0  0  0  0  0  0
   35.8660   45.5690   -2.7710 C   0  0  0  0  0  0  0  0  0  0  0  0
   36.3880   47.9050   -3.2300 C   0  0  0  0  0  0  0  0  0  0  0  0
   35.0970   43.3130   -2.8560 O   0  0  0  0  0  0  0  0  0  0  0  0
   37.2980   47.8690   -2.1700 C   0  0  0  0  0  0  0  0  0  0  0  0
   36.7660   45.5240   -1.7170 C   0  0  0  0  0  0  0  0  0  0  0  0
   37.4850   46.6900   -1.4190 C   0  0  0  0  0  0  0  0  0  0  0  0
  1  2  1  0
  2  3  2  0
  2  4  1  0
  4  5  2  0
  3  6  1  0
  5  7  1  0
  5  8  1  0
  6  8  2  0
  8  9  1  0
  7 10  2  0
  7 11  1  0
  9 12  1  0
 12 13  1  0
 13 14  2  0
 14 15  2  0
 14 16  1  1
 14 17  1  0
 16 18  1  0
 17 19  2  0
 18 19  1  0
 17 20  1  0
 18 21  2  0
 20 22  2  0
 19 23  1  0
 22 24  1  0
 23 24  2  0
M  END
