mac-x0439-mac-x0392
     RDKit          3D

 22 24  0  0  0  0  0  0  0  0999 V2000
   30.9780   47.3800   -4.1780 N   0  0  0  0  0  0  0  0  0  0  0  0
   30.8970   48.1720   -5.3980 C   0  0  1  0  0  0  0  0  0  0  0  0
   30.8710   47.2460   -6.4710 O   0  0  0  0  0  0  0  0  0  0  0  0
   30.0130   46.5040   -3.6780 C   0  0  0  0  0  0  0  0  0  0  0  0
   30.3620   45.0740   -3.2970 C   0  0  2  0  0  0  0  0  0  0  0  0
   28.7190   46.8760   -3.5030 C   0  0  0  0  0  0  0  0  0  0  0  0
   29.6690   49.0730   -5.4600 C   0  0  0  0  0  0  0  0  0  0  0  0
   31.2990   44.2470   -4.1260 C   0  0  0  0  0  0  0  0  0  0  0  0
   29.1370   44.2080   -3.5680 C   0  0  0  0  0  0  0  0  0  0  0  0
   27.7050   45.9650   -2.9800 C   0  0  0  0  0  0  0  0  0  0  0  0
   28.8300   49.2030   -6.5810 C   0  0  0  0  0  0  0  0  0  0  0  0
   29.3550   49.8310   -4.3090 C   0  0  0  0  0  0  0  0  0  0  0  0
   29.0370   48.5100   -7.7880 N   0  0  0  0  0  0  0  0  0  0  0  0
   30.6400   43.1970   -4.6430 C   0  0  0  0  0  0  0  0  0  0  0  0
   29.3070   43.1540   -4.3080 N   0  0  0  0  0  0  0  0  0  0  0  0
   27.8590   44.6320   -2.9870 C   0  0  0  0  0  0  0  0  0  0  0  0
   28.2490   50.6640   -4.3080 C   0  0  0  0  0  0  0  0  0  0  0  0
   27.7400   50.0750   -6.4620 C   0  0  0  0  0  0  0  0  0  0  0  0
   31.2870   42.1700   -5.5130 C   0  0  0  0  0  0  0  0  0  0  0  0
   27.4300   50.8020   -5.3620 N   0  0  0  0  0  0  0  0  0  0  0  0
   30.4360   41.6450   -6.4250 O   0  0  0  0  0  0  0  0  0  0  0  0
   32.4530   41.8310   -5.4280 O   0  0  0  0  0  0  0  0  0  0  0  0
  1  2  1  0
  2  3  1  6
  1  4  1  0
  4  5  1  0
  4  6  2  0
  2  7  1  0
  5  8  1  6
  5  9  1  0
  6 10  1  0
  7 11  2  0
  7 12  1  0
 11 13  1  0
  8 14  2  0
  9 15  2  0
 14 15  1  0
  9 16  1  0
 10 16  2  0
 12 17  2  0
 11 18  1  0
 14 19  1  0
 17 20  1  0
 18 20  2  0
 19 21  1  0
 19 22  2  0
M  END
