mac-x0223-mac-x0116
     RDKit          3D

 30 33  0  0  0  0  0  0  0  0999 V2000
   27.2300   43.2290   -1.9210 C   0  0  0  0  0  0  0  0  0  0  0  0
   27.7820   44.3570   -1.2530 O   0  0  0  0  0  0  0  0  0  0  0  0
   28.9750   44.8310   -1.7360 C   0  0  0  0  0  0  0  0  0  0  0  0
   29.5890   45.8040   -0.9410 C   0  0  0  0  0  0  0  0  0  0  0  0
   29.6020   44.4340   -2.9180 C   0  0  0  0  0  0  0  0  0  0  0  0
   29.0000   46.2170    0.2230 O   0  0  0  0  0  0  0  0  0  0  0  0
   30.8020   46.3790   -1.3010 C   0  0  0  0  0  0  0  0  0  0  0  0
   30.8320   45.0040   -3.3030 C   0  0  0  0  0  0  0  0  0  0  0  0
   31.5010   44.5650   -4.5890 C   0  0  0  0  0  0  0  0  0  0  0  0
   31.4240   45.9790   -2.4840 C   0  0  0  0  0  0  0  0  0  0  0  0
   32.1810   45.6730   -5.3700 C   0  0  0  0  0  0  0  0  0  0  0  0
   33.2480   45.5920   -5.9630 O   0  0  0  0  0  0  0  0  0  0  0  0
   31.4210   46.8080   -5.3210 O   0  0  0  0  0  0  0  0  0  0  0  0
   30.2300   46.8000   -6.1250 C   0  0  0  0  0  0  0  0  0  0  0  0
   30.0470   48.1080   -6.7250 N   0  0  0  0  0  0  0  0  0  0  0  0
   29.4450   49.1900   -6.1440 C   0  0  0  0  0  0  0  0  0  0  0  0
   30.4500   48.4800   -7.9810 C   0  0  0  0  0  0  0  0  0  0  0  0
   28.9020   49.2790   -4.9190 N   0  0  0  0  0  0  0  0  0  0  0  0
   29.5150   50.1920   -7.1010 C   0  0  0  0  0  0  0  0  0  0  0  0
   30.1440   49.7350   -8.2440 N   0  0  0  0  0  0  0  0  0  0  0  0
   28.4030   50.5110   -4.7010 C   0  0  0  0  0  0  0  0  0  0  0  0
   28.9610   51.4450   -6.7640 C   0  0  0  0  0  0  0  0  0  0  0  0
   28.9840   52.5190   -7.6620 N   0  0  0  0  0  0  0  0  0  0  0  0
   28.4000   51.5750   -5.5320 N   0  0  0  0  0  0  0  0  0  0  0  0
   29.3430   53.8080   -7.0780 C   0  0  0  0  0  0  0  0  0  0  0  0
   30.6470   54.4000   -7.5190 C   0  0  0  0  0  0  0  0  0  0  0  0
   31.5540   54.6620   -6.5290 O   0  0  0  0  0  0  0  0  0  0  0  0
   31.1740   54.7610   -8.7420 C   0  0  0  0  0  0  0  0  0  0  0  0
   32.4740   55.2700   -8.4850 C   0  0  0  0  0  0  0  0  0  0  0  0
   32.6520   55.1870   -7.1250 C   0  0  0  0  0  0  0  0  0  0  0  0
  1  2  1  0
  2  3  1  0
  3  4  2  0
  3  5  1  0
  4  6  1  0
  4  7  1  0
  5  8  2  0
  8  9  1  0
  7 10  2  0
  8 10  1  0
  9 11  1  0
 11 12  2  0
 11 13  1  0
 13 14  1  0
 14 15  1  0
 15 16  1  0
 15 17  1  0
 16 18  2  0
 16 19  1  0
 17 20  2  0
 19 20  1  0
 18 21  1  0
 19 22  2  0
 22 23  1  0
 21 24  2  0
 22 24  1  0
 23 25  1  0
 25 26  1  0
 26 27  1  0
 26 28  2  0
 28 29  1  0
 27 30  1  0
 29 30  2  0
M  END
