mac-x0568-mac-x0303
     RDKit          3D

 17 18  0  0  0  0  0  0  0  0999 V2000
   29.6000   55.7510   -5.6340 C   0  0  0  0  0  0  0  0  0  0  0  0
   30.7390   56.0170   -6.4720 N   0  0  0  0  0  0  0  0  0  0  0  0
   28.4960   56.2980   -6.2820 O   0  0  0  0  0  0  0  0  0  0  0  0
   29.7740   56.4450   -4.4360 O   0  0  0  0  0  0  0  0  0  0  0  0
   29.3850   54.1960   -5.4350 C   0  0  0  0  0  0  0  0  0  0  0  0
   29.5140   53.6730   -4.2440 N   0  0  0  0  0  0  0  0  0  0  0  0
   29.0030   53.4600   -6.6830 C   0  0  0  0  0  0  0  0  0  0  0  0
   29.1710   52.2350   -4.1260 C   0  0  1  0  0  0  0  0  0  0  0  0
   28.8960   52.1250   -6.6540 C   0  0  0  0  0  0  0  0  0  0  0  0
   29.1420   51.3580   -5.3880 C   0  0  1  0  0  0  0  0  0  0  0  0
   29.7730   51.4240   -3.0330 C   0  0  0  0  0  0  0  0  0  0  0  0
   30.3250   50.3690   -5.4650 C   0  0  0  0  0  0  0  0  0  0  0  0
   29.2900   50.1640   -2.9420 C   0  0  0  0  0  0  0  0  0  0  0  0
   28.1340   50.3140   -5.0880 C   0  0  0  0  0  0  0  0  0  0  0  0
   31.1760   50.2430   -4.5920 O   0  0  0  0  0  0  0  0  0  0  0  0
   30.3490   49.5440   -6.5560 N   0  0  0  0  0  0  0  0  0  0  0  0
   28.2430   49.7320   -3.8780 C   0  0  0  0  0  0  0  0  0  0  0  0
  1  2  1  0
  1  3  1  0
  1  4  1  0
  1  5  1  0
  5  6  2  0
  5  7  1  0
  6  8  1  0
  7  9  2  0
  8 10  1  0
  9 10  1  0
  8 11  1  1
 10 12  1  6
 11 13  2  0
 10 14  1  0
 12 15  2  0
 12 16  1  0
 13 17  1  0
 14 17  2  0
M  END
