mac-x0412-mac-x0590
     RDKit          3D

 24 27  0  0  0  0  0  0  0  0999 V2000
   28.2520   53.8210   -3.9020 O   0  0  0  0  0  0  0  0  0  0  0  0
   28.3910   53.1670   -4.9360 C   0  0  0  0  0  0  0  0  0  0  0  0
   28.1090   53.7330   -6.1550 N   0  0  0  0  0  0  0  0  0  0  0  0
   28.8740   51.7190   -4.9610 C   0  0  1  0  0  0  0  0  0  0  0  0
   29.6070   51.3380   -6.2560 C   0  0  2  0  0  0  0  0  0  0  0  0
   28.2460   53.0980   -7.3610 C   0  0  0  0  0  0  0  0  0  0  0  0
   29.6960   51.2870   -3.7190 C   0  0  2  0  0  0  0  0  0  0  0  0
   30.1380   52.3730   -2.8330 N   0  0  0  0  0  0  0  0  0  0  0  0
   28.9440   51.9650   -7.4590 C   0  0  0  0  0  0  0  0  0  0  0  0
   29.8550   49.7640   -6.2970 C   0  0  1  0  0  0  0  0  0  0  0  0
   30.9740   50.5040   -4.1160 C   0  0  0  0  0  0  0  0  0  0  0  0
   30.6830   49.2860   -5.0200 C   0  0  1  0  0  0  0  0  0  0  0  0
   28.4920   49.1470   -6.2730 N   0  0  0  0  0  0  0  0  0  0  0  0
   30.4090   49.2450   -7.6490 C   0  0  0  0  0  0  0  0  0  0  0  0
   30.0890   48.0900   -4.2220 C   0  0  0  0  0  0  0  0  0  0  0  0
   29.3940   48.3110   -8.1740 N   0  0  0  0  0  0  0  0  0  0  0  0
   28.1560   48.8380   -7.6430 C   0  0  0  0  0  0  0  0  0  0  0  0
   31.0670   47.3130   -3.3260 C   0  0  0  0  0  0  0  0  0  0  0  0
   31.3780   45.8640   -3.7250 C   0  0  0  0  0  0  0  0  0  0  0  0
   32.8000   45.5050   -4.1680 C   0  0  2  0  0  0  0  0  0  0  0  0
   33.0930   45.6000   -5.6570 C   0  0  0  0  0  0  0  0  0  0  0  0
   33.3130   44.1190   -3.8430 C   0  0  0  0  0  0  0  0  0  0  0  0
   32.8970   43.3490   -5.0790 C   0  0  0  0  0  0  0  0  0  0  0  0
   32.9830   44.2640   -6.1800 O   0  0  0  0  0  0  0  0  0  0  0  0
  1  2  2  0
  2  3  1  0
  4  2  1  1
  4  5  1  0
  3  6  1  0
  4  7  1  0
  7  8  1  6
  5  9  1  6
  6  9  2  0
  5 10  1  0
  7 11  1  0
 10 12  1  0
 11 12  1  0
 10 13  1  0
 10 14  1  6
 12 15  1  1
 14 16  1  0
 13 17  1  0
 16 17  1  0
 15 18  1  0
 18 19  1  0
 20 19  1  6
 20 21  1  0
 20 22  1  0
 22 23  1  0
 21 24  1  0
 23 24  1  0
M  END
