mac-x0182-mac-x0441
     RDKit          3D

 18 19  0  0  0  0  0  0  0  0999 V2000
   33.9180   44.4740   -1.6880 O   0  0  0  0  0  0  0  0  0  0  0  0
   34.9190   44.2510   -2.6500 C   0  0  2  0  0  0  0  0  0  0  0  0
   34.2100   44.4450   -3.9490 N   0  0  0  0  0  0  0  0  0  0  0  0
   35.6930   42.8970   -2.2560 C   0  0  0  0  0  0  0  0  0  0  0  0
   35.9310   45.3780   -2.5810 C   0  0  0  0  0  0  0  0  0  0  0  0
   36.7260   42.6060   -3.0920 F   0  0  0  0  0  0  0  0  0  0  0  0
   36.2360   42.9730   -1.0120 F   0  0  0  0  0  0  0  0  0  0  0  0
   34.8830   41.8110   -2.2330 F   0  0  0  0  0  0  0  0  0  0  0  0
   34.1930   46.1400   -4.3040 S   0  0  2  0  0  0  0  0  0  0  0  0
   35.6610   46.4630   -3.4260 C   0  0  0  0  0  0  0  0  0  0  0  0
   37.0630   45.4130   -1.7790 C   0  0  0  0  0  0  0  0  0  0  0  0
   33.0720   46.6660   -3.5650 O   0  0  0  0  0  0  0  0  0  0  0  0
   34.3750   46.1310   -5.8010 N   0  0  0  0  0  0  0  0  0  0  0  0
   36.4670   47.5830   -3.5030 C   0  0  0  0  0  0  0  0  0  0  0  0
   37.8970   46.5290   -1.8360 C   0  0  0  0  0  0  0  0  0  0  0  0
   33.4350   45.4240   -6.5480 C   0  0  0  0  0  0  0  0  0  0  0  0
   37.6040   47.6060   -2.6880 C   0  0  0  0  0  0  0  0  0  0  0  0
   32.2350   45.3470   -6.2860 O   0  0  0  0  0  0  0  0  0  0  0  0
  2  1  1  1
  2  3  1  0
  2  4  1  0
  2  5  1  0
  4  6  1  0
  4  7  1  0
  4  8  1  0
  9  3  1  1
  5 10  2  0
  9 10  1  0
  5 11  1  0
  9 12  2  0
  9 13  2  0
 10 14  1  0
 11 15  2  0
 13 16  1  0
 14 17  2  0
 15 17  1  0
 16 18  2  0
M  END
