mac-x0385-mac-x1494
     RDKit          3D

 13 14  0  0  0  0  0  0  0  0999 V2000
   29.0690   51.4840   -2.7090 C   0  0  0  0  0  0  0  0  0  0  0  0
   29.3070   50.4630   -3.8270 C   0  0  0  0  0  0  0  0  0  0  0  0
   30.0670   49.2120   -3.3200 C   0  0  0  0  0  0  0  0  0  0  0  0
   28.0330   50.1080   -4.3930 O   0  0  0  0  0  0  0  0  0  0  0  0
   30.1090   51.1280   -4.9500 C   0  0  0  0  0  0  0  0  0  0  0  0
   27.8380   48.7160   -4.7900 C   0  0  2  0  0  0  0  0  0  0  0  0
   30.2470   48.1400   -4.3160 N   0  0  0  0  0  0  0  0  0  0  0  0
   30.6470   46.6100   -3.5280 Cl  0  0  0  0  0  0  0  0  0  0  0  0
   29.1610   48.1140   -5.3340 C   0  0  1  0  0  0  0  0  0  0  0  0
   26.6160   48.5710   -5.6330 C   0  0  0  0  0  0  0  0  0  0  0  0
   26.9810   47.8800   -3.8650 C   0  0  0  0  0  0  0  0  0  0  0  0
   28.9750   46.7640   -6.0480 C   0  0  0  0  0  0  0  0  0  0  0  0
   25.7700   47.8030   -4.8350 C   0  0  0  0  0  0  0  0  0  0  0  0
  2  1  1  0
  2  3  1  0
  2  4  1  0
  2  5  1  0
  6  4  1  0
  3  7  1  0
  7  8  1  0
  6  9  1  0
  7  9  1  0
  6 10  1  6
  6 11  1  0
  9 12  1  1
 10 13  2  0
 11 13  1  0
M  END
