mac-x0115-mac-x0277
     RDKit          3D

 26 28  0  0  0  0  0  0  0  0999 V2000
   29.8090   43.3810   -2.5980 C   0  0  0  0  0  0  0  0  0  0  0  0
   28.6100   42.7570   -3.2900 C   0  0  0  0  0  0  0  0  0  0  0  0
   30.9260   43.4050   -3.4970 O   0  0  0  0  0  0  0  0  0  0  0  0
   30.6270   43.8210   -4.8460 C   0  0  0  0  0  0  0  0  0  0  0  0
   30.8440   45.3720   -5.0450 C   0  0  1  0  0  0  0  0  0  0  0  0
   32.3780   45.5890   -5.2220 C   0  0  0  0  0  0  0  0  0  0  0  0
   30.1590   46.0410   -6.2540 N   0  0  0  0  0  0  0  0  0  0  0  0
   30.1870   45.9000   -3.7340 C   0  0  0  0  0  0  0  0  0  0  0  0
   33.0790   45.9880   -4.1400 O   0  0  0  0  0  0  0  0  0  0  0  0
   32.9930   45.4340   -6.2690 O   0  0  0  0  0  0  0  0  0  0  0  0
   29.8860   45.3810   -7.4930 C   0  0  0  0  0  0  0  0  0  0  0  0
   29.8310   47.4080   -6.1750 C   0  0  0  0  0  0  0  0  0  0  0  0
   30.8970   46.6580   -2.7740 C   0  0  0  0  0  0  0  0  0  0  0  0
   28.8310   45.6250   -3.4800 C   0  0  0  0  0  0  0  0  0  0  0  0
   30.0350   43.7600   -7.8940 S   0  0  0  0  0  0  0  0  0  0  0  0
   29.4220   46.1910   -8.5290 N   0  0  0  0  0  0  0  0  0  0  0  0
   28.7420   47.9330   -7.0480 C   0  0  2  0  0  0  0  0  0  0  0  0
   30.3200   48.4040   -5.4300 C   0  0  0  0  0  0  0  0  0  0  0  0
   30.2570   47.1110   -1.6160 C   0  0  0  0  0  0  0  0  0  0  0  0
   28.2040   46.0790   -2.3210 C   0  0  0  0  0  0  0  0  0  0  0  0
   31.1210   48.0350   -0.4560 Cl  0  0  0  0  0  0  0  0  0  0  0  0
   29.0770   47.5330   -8.4620 C   0  0  0  0  0  0  0  0  0  0  0  0
   28.6350   49.3830   -6.7760 N   0  0  0  0  0  0  0  0  0  0  0  0
   29.5350   49.5580   -5.8630 C   0  0  0  0  0  0  0  0  0  0  0  0
   28.9140   46.8200   -1.3900 C   0  0  0  0  0  0  0  0  0  0  0  0
   29.0580   48.2480   -9.4520 O   0  0  0  0  0  0  0  0  0  0  0  0
  1  2  1  0
  1  3  1  0
  3  4  1  0
  5  4  1  6
  5  6  1  0
  5  7  1  0
  5  8  1  0
  6  9  1  0
  6 10  2  0
  7 11  1  0
  7 12  1  0
  8 13  2  0
  8 14  1  0
 11 15  2  0
 11 16  1  0
 12 17  1  0
 12 18  2  0
 13 19  1  0
 14 20  2  0
 19 21  1  0
 16 22  1  0
 17 22  1  0
 17 23  1  6
 18 24  1  0
 23 24  2  0
 19 25  2  0
 20 25  1  0
 22 26  2  0
M  END
