mac-x0509-mac-x0344
     RDKit          3D

 21 23  0  0  0  0  0  0  0  0999 V2000
   38.0340   47.0290   -5.2220 O   0  0  0  0  0  0  0  0  0  0  0  0
   37.9210   45.9890   -4.5840 C   0  0  0  0  0  0  0  0  0  0  0  0
   37.2460   45.7830   -3.1850 C   0  0  2  0  0  0  0  0  0  0  0  0
   38.3890   44.7480   -4.9850 N   0  0  0  0  0  0  0  0  0  0  0  0
   37.7190   44.4070   -2.8200 C   0  0  0  0  0  0  0  0  0  0  0  0
   38.3660   43.8480   -3.9270 C   0  0  0  0  0  0  0  0  0  0  0  0
   35.7590   45.5680   -3.3620 C   0  0  0  0  0  0  0  0  0  0  0  0
   37.5540   46.9850   -2.3210 C   0  0  0  0  0  0  0  0  0  0  0  0
   37.5830   43.6850   -1.6490 C   0  0  0  0  0  0  0  0  0  0  0  0
   38.8850   42.5740   -3.9130 C   0  0  0  0  0  0  0  0  0  0  0  0
   35.0100   46.8140   -3.7230 C   0  0  1  0  0  0  0  0  0  0  0  0
   36.6410   47.9640   -2.1220 C   0  0  0  0  0  0  0  0  0  0  0  0
   33.6220   46.4540   -3.9250 N   0  0  0  0  0  0  0  0  0  0  0  0
   38.1020   42.3910   -1.6120 C   0  0  0  0  0  0  0  0  0  0  0  0
   38.7460   41.8390   -2.7330 C   0  0  0  0  0  0  0  0  0  0  0  0
   35.2480   47.9500   -2.7190 C   0  0  0  0  0  0  0  0  0  0  0  0
   33.2610   46.0670   -5.1990 C   0  0  0  0  0  0  0  0  0  0  0  0
   32.0350   45.1210   -5.2760 C   0  0  0  0  0  0  0  0  0  0  0  0
   33.8480   46.4280   -6.2010 O   0  0  0  0  0  0  0  0  0  0  0  0
   31.8560   44.3260   -4.2200 O   0  0  0  0  0  0  0  0  0  0  0  0
   31.2950   45.1090   -6.2450 O   0  0  0  0  0  0  0  0  0  0  0  0
  1  2  2  0
  3  2  1  0
  2  4  1  0
  3  5  1  0
  4  6  1  0
  5  6  2  0
  3  7  1  6
  3  8  1  0
  5  9  1  0
  6 10  1  0
  7 11  1  0
  8 12  2  0
 11 13  1  1
  9 14  2  0
 10 15  2  0
 14 15  1  0
 11 16  1  0
 12 16  1  0
 13 17  1  0
 17 18  1  0
 17 19  2  0
 18 20  1  0
 18 21  2  0
M  END
