mac-x0348-mac-x0231
     RDKit          3D

 24 25  0  0  0  0  0  0  0  0999 V2000
   29.6030   43.5360   -1.8350 C   0  0  0  0  0  0  0  0  0  0  0  0
   28.3640   44.0490   -1.2930 N   0  0  0  0  0  0  0  0  0  0  0  0
   28.0250   45.3760   -1.2370 C   0  0  0  0  0  0  0  0  0  0  0  0
   30.6040   44.6770   -1.9280 C   0  0  0  0  0  0  0  0  0  0  0  0
   31.1940   45.0330   -3.1820 C   0  0  0  0  0  0  0  0  0  0  0  0
   30.9830   45.4140   -0.8110 C   0  0  0  0  0  0  0  0  0  0  0  0
   30.6830   44.6830   -4.5820 C   0  0  0  0  0  0  0  0  0  0  0  0
   28.3820   46.3940   -0.4420 C   0  0  0  0  0  0  0  0  0  0  0  0
   32.2090   45.7300   -2.8570 C   0  0  0  0  0  0  0  0  0  0  0  0
   31.9130   46.5890   -0.5330 C   0  0  0  0  0  0  0  0  0  0  0  0
   31.3480   45.3850   -5.8000 C   0  0  0  0  0  0  0  0  0  0  0  0
   27.9790   47.7780   -0.4670 C   0  0  0  0  0  0  0  0  0  0  0  0
   32.9420   47.3450   -1.1590 C   0  0  0  0  0  0  0  0  0  0  0  0
   33.2370   46.4600   -3.3880 C   0  0  0  0  0  0  0  0  0  0  0  0
   31.2480   46.8870   -5.8710 C   0  0  0  0  0  0  0  0  0  0  0  0
   30.8030   44.9020   -7.0220 O   0  0  0  0  0  0  0  0  0  0  0  0
   32.7080   44.9960   -5.8640 O   0  0  0  0  0  0  0  0  0  0  0  0
   28.7310   48.7830   -0.9390 C   0  0  0  0  0  0  0  0  0  0  0  0
   33.6170   47.3100   -2.4810 C   0  0  0  0  0  0  0  0  0  0  0  0
   30.6010   47.8440   -5.1710 C   0  0  0  0  0  0  0  0  0  0  0  0
   30.0570   48.6060   -1.4850 C   0  0  0  0  0  0  0  0  0  0  0  0
   29.6640   47.8780   -3.9770 C   0  0  2  0  0  0  0  0  0  0  0  0
   30.4430   48.2370   -2.7190 C   0  0  0  0  0  0  0  0  0  0  0  0
   28.6870   46.7340   -3.7270 C   0  0  0  0  0  0  0  0  0  0  0  0
  1  2  1  0
  2  3  1  0
  1  4  1  0
  4  5  1  0
  4  6  2  0
  5  7  1  0
  3  8  2  0
  5  9  2  0
  6 10  1  0
  7 11  1  0
  8 12  1  0
 10 13  2  0
  9 14  1  0
 11 15  1  0
 11 16  1  0
 11 17  1  0
 12 18  2  0
 13 19  1  0
 14 19  2  0
 15 20  2  0
 18 21  1  0
 20 22  1  0
 21 23  2  0
 22 23  1  0
 22 24  1  1
M  END
