mac-x0338-mac-x0439
     RDKit          3D

 23 25  0  0  0  0  0  0  0  0999 V2000
   28.7200   51.8490   -7.6340 N   0  0  0  0  0  0  0  0  0  0  0  0
   29.0330   52.4230   -6.4310 C   0  0  0  0  0  0  0  0  0  0  0  0
   29.0670   53.6400   -6.2870 O   0  0  0  0  0  0  0  0  0  0  0  0
   29.3110   51.4780   -5.3090 C   0  0  0  0  0  0  0  0  0  0  0  0
   29.2850   50.1400   -5.5800 N   0  0  0  0  0  0  0  0  0  0  0  0
   29.5780   51.9690   -4.0450 C   0  0  0  0  0  0  0  0  0  0  0  0
   29.5250   49.3320   -4.5140 C   0  0  0  0  0  0  0  0  0  0  0  0
   29.8200   51.1500   -2.9840 N   0  0  0  0  0  0  0  0  0  0  0  0
   29.7840   49.8130   -3.2290 C   0  0  0  0  0  0  0  0  0  0  0  0
   30.0230   48.8880   -2.0540 C   0  0  0  0  0  0  0  0  0  0  0  0
   30.7120   47.5500   -2.3740 C   0  0  0  0  0  0  0  0  0  0  0  0
   29.8670   46.2850   -2.3060 C   0  0  0  0  0  0  0  0  0  0  0  0
   30.3260   45.0690   -3.0620 C   0  0  2  0  0  0  0  0  0  0  0  0
   28.7170   46.1640   -1.5920 C   0  0  0  0  0  0  0  0  0  0  0  0
   30.9640   45.1560   -4.4020 C   0  0  0  0  0  0  0  0  0  0  0  0
   29.1210   44.2620   -3.5140 C   0  0  0  0  0  0  0  0  0  0  0  0
   27.9530   44.9140   -1.5670 C   0  0  0  0  0  0  0  0  0  0  0  0
   30.2340   44.4690   -5.2940 C   0  0  0  0  0  0  0  0  0  0  0  0
   29.0870   43.9120   -4.7670 N   0  0  0  0  0  0  0  0  0  0  0  0
   28.1140   43.9470   -2.4920 C   0  0  0  0  0  0  0  0  0  0  0  0
   30.6660   44.3530   -6.7090 C   0  0  0  0  0  0  0  0  0  0  0  0
   30.4210   43.1360   -7.2320 O   0  0  0  0  0  0  0  0  0  0  0  0
   31.1960   45.2270   -7.3740 O   0  0  0  0  0  0  0  0  0  0  0  0
  1  2  1  0
  2  3  2  0
  2  4  1  0
  4  5  2  0
  4  6  1  0
  5  7  1  0
  6  8  2  0
  7  9  2  0
  8  9  1  0
  9 10  1  0
 10 11  1  0
 11 12  1  0
 12 13  1  0
 12 14  2  0
 13 15  1  6
 13 16  1  0
 14 17  1  0
 15 18  2  0
 16 19  2  0
 18 19  1  0
 16 20  1  0
 17 20  2  0
 18 21  1  0
 21 22  1  0
 21 23  2  0
M  END
