mac-x0360-mac-x0394
     RDKit          3D

 23 24  0  0  0  0  0  0  0  0999 V2000
   32.8430   55.4070   -4.8050 Cl  0  0  0  0  0  0  0  0  0  0  0  0
   32.5150   53.7420   -5.0800 C   0  0  0  0  0  0  0  0  0  0  0  0
   33.3760   52.7730   -4.5730 C   0  0  0  0  0  0  0  0  0  0  0  0
   31.3860   53.3740   -5.8090 C   0  0  0  0  0  0  0  0  0  0  0  0
   31.1250   52.0190   -6.0300 C   0  0  0  0  0  0  0  0  0  0  0  0
   33.1030   51.4240   -4.8010 C   0  0  0  0  0  0  0  0  0  0  0  0
   34.1630   50.2240   -4.1770 Cl  0  0  0  0  0  0  0  0  0  0  0  0
   29.7210   51.5740   -6.9370 S   0  0  0  0  0  0  0  0  0  0  0  0
   31.9780   51.0390   -5.5290 C   0  0  0  0  0  0  0  0  0  0  0  0
   29.6350   50.9820   -8.5010 N   0  0  0  0  0  0  0  0  0  0  0  0
   28.8290   51.9910   -5.6400 O   0  0  0  0  0  0  0  0  0  0  0  0
   28.0080   51.5130   -6.7630 C   0  0  0  0  0  0  0  0  0  0  0  0
   27.2220   51.0160   -7.9330 C   0  0  0  0  0  0  0  0  0  0  0  0
   27.2780   51.9170   -5.5370 C   0  0  0  0  0  0  0  0  0  0  0  0
   26.9390   52.0170   -8.7650 O   0  0  0  0  0  0  0  0  0  0  0  0
   26.8910   49.8610   -8.0960 O   0  0  0  0  0  0  0  0  0  0  0  0
   26.9010   53.2530   -5.3500 C   0  0  0  0  0  0  0  0  0  0  0  0
   26.9590   50.9670   -4.5550 C   0  0  0  0  0  0  0  0  0  0  0  0
   26.2140   53.6280   -4.1920 C   0  0  0  0  0  0  0  0  0  0  0  0
   26.2710   51.3650   -3.4050 C   0  0  0  0  0  0  0  0  0  0  0  0
   25.8790   50.2020   -2.2070 Cl  0  0  0  0  0  0  0  0  0  0  0  0
   25.7520   55.2720   -3.9740 Cl  0  0  0  0  0  0  0  0  0  0  0  0
   25.8970   52.6920   -3.2160 C   0  0  0  0  0  0  0  0  0  0  0  0
  1  2  1  0
  2  3  2  0
  2  4  1  0
  4  5  2  0
  3  6  1  0
  6  7  1  0
  5  8  1  0
  5  9  1  0
  6  9  2  0
  8 10  1  0
  8 11  2  0
  8 12  2  0
 12 13  1  0
 12 14  1  0
 13 15  1  0
 13 16  2  0
 14 17  2  0
 14 18  1  0
 17 19  1  0
 18 20  2  0
 20 21  1  0
 19 22  1  0
 19 23  2  0
 20 23  1  0
M  END
