mac-x0263-mac-x0365
     RDKit          3D

 25 27  0  0  0  0  0  0  0  0999 V2000
   28.5700   59.6340   -6.5960 O   0  0  0  0  0  0  0  0  0  0  0  0
   27.5420   58.8400   -6.2190 C   0  0  0  0  0  0  0  0  0  0  0  0
   26.3940   59.0370   -6.6070 O   0  0  0  0  0  0  0  0  0  0  0  0
   27.9380   57.7150   -5.2800 C   0  0  0  0  0  0  0  0  0  0  0  0
   28.8930   56.7050   -5.9290 C   0  0  0  0  0  0  0  0  0  0  0  0
   28.2700   55.3460   -5.9940 C   0  0  0  0  0  0  0  0  0  0  0  0
   28.6590   54.2390   -5.2500 N   0  0  0  0  0  0  0  0  0  0  0  0
   27.2530   55.0210   -6.7800 N   0  0  0  0  0  0  0  0  0  0  0  0
   29.6850   54.0680   -4.3070 O   0  0  0  0  0  0  0  0  0  0  0  0
   27.8450   53.1840   -5.5680 C   0  0  0  0  0  0  0  0  0  0  0  0
   26.9910   53.6960   -6.5240 C   0  0  0  0  0  0  0  0  0  0  0  0
   27.7900   51.8590   -5.1130 C   0  0  0  0  0  0  0  0  0  0  0  0
   26.0210   52.8460   -7.0780 C   0  0  0  0  0  0  0  0  0  0  0  0
   29.9310   52.7040   -4.3590 C   0  0  0  0  0  0  0  0  0  0  0  0
   26.8200   51.0320   -5.6710 C   0  0  0  0  0  0  0  0  0  0  0  0
   25.9510   51.5170   -6.6390 C   0  0  0  0  0  0  0  0  0  0  0  0
   29.9960   51.9640   -3.1720 C   0  0  0  0  0  0  0  0  0  0  0  0
   30.1010   52.0380   -5.5820 C   0  0  0  0  0  0  0  0  0  0  0  0
   29.8400   52.5720   -1.9880 F   0  0  0  0  0  0  0  0  0  0  0  0
   30.2170   50.5830   -3.1950 C   0  0  0  0  0  0  0  0  0  0  0  0
   30.3210   50.6540   -5.6110 C   0  0  0  0  0  0  0  0  0  0  0  0
   30.3770   49.9190   -4.4170 C   0  0  0  0  0  0  0  0  0  0  0  0
   30.6020   48.4470   -4.4070 C   0  0  0  0  0  0  0  0  0  0  0  0
   30.2290   47.8480   -5.5510 O   0  0  0  0  0  0  0  0  0  0  0  0
   31.0640   47.8040   -3.4830 O   0  0  0  0  0  0  0  0  0  0  0  0
  1  2  1  0
  2  3  2  0
  2  4  1  0
  4  5  1  0
  5  6  1  0
  6  7  1  0
  6  8  2  0
  7  9  1  0
  7 10  1  0
  8 11  1  0
 10 11  2  0
 10 12  1  0
 11 13  1  0
  9 14  1  0
 12 15  2  0
 13 16  2  0
 15 16  1  0
 14 17  2  0
 14 18  1  0
 17 19  1  0
 17 20  1  0
 18 21  2  0
 20 22  2  0
 21 22  1  0
 22 23  1  0
 23 24  1  0
 23 25  2  0
M  END
