mac-x0346-mac-x0436
     RDKit          3D

 29 31  0  0  0  0  0  0  0  0999 V2000
   29.4600   54.8190   -5.7510 O   0  0  0  0  0  0  0  0  0  0  0  0
   29.5910   54.6300   -4.3560 N   0  0  0  0  0  0  0  0  0  0  0  0
   29.6350   53.3300   -3.9040 C   0  0  0  0  0  0  0  0  0  0  0  0
   30.0060   53.1000   -2.7530 O   0  0  0  0  0  0  0  0  0  0  0  0
   29.2380   52.1980   -4.8060 C   0  0  0  0  0  0  0  0  0  0  0  0
   29.5650   50.8670   -4.4950 C   0  0  0  0  0  0  0  0  0  0  0  0
   28.5210   52.4790   -5.9860 C   0  0  0  0  0  0  0  0  0  0  0  0
   30.2670   50.6780   -3.3300 O   0  0  0  0  0  0  0  0  0  0  0  0
   29.1700   49.8370   -5.3630 C   0  0  0  0  0  0  0  0  0  0  0  0
   28.1350   51.4430   -6.8440 C   0  0  0  0  0  0  0  0  0  0  0  0
   30.8500   49.4040   -3.0530 C   0  0  0  0  0  0  0  0  0  0  0  0
   28.4590   50.1260   -6.5300 C   0  0  0  0  0  0  0  0  0  0  0  0
   32.2670   49.2830   -3.6410 C   0  0  0  0  0  0  0  0  0  0  0  0
   32.6550   47.8730   -3.5980 N   0  0  0  0  0  0  0  0  0  0  0  0
   33.8460   47.3910   -3.4680 C   0  0  0  0  0  0  0  0  0  0  0  0
   33.8410   45.8560   -3.4210 C   0  0  0  0  0  0  0  0  0  0  0  0
   35.0770   48.0070   -3.3500 N   0  0  0  0  0  0  0  0  0  0  0  0
   32.5390   45.1460   -3.7310 C   0  0  0  0  0  0  0  0  0  0  0  0
   36.2000   47.2460   -2.9550 C   0  0  0  0  0  0  0  0  0  0  0  0
   34.8970   45.1590   -3.1230 N   0  0  0  0  0  0  0  0  0  0  0  0
   32.6400   44.3770   -5.0380 C   0  0  0  0  0  0  0  0  0  0  0  0
   36.0930   45.8450   -2.8450 C   0  0  0  0  0  0  0  0  0  0  0  0
   37.4270   47.8650   -2.6660 C   0  0  0  0  0  0  0  0  0  0  0  0
   32.5350   45.2810   -6.2340 C   0  0  0  0  0  0  0  0  0  0  0  0
   37.2000   45.0900   -2.4490 C   0  0  0  0  0  0  0  0  0  0  0  0
   38.5260   47.0970   -2.2740 C   0  0  0  0  0  0  0  0  0  0  0  0
   33.7270   45.7730   -6.6190 O   0  0  0  0  0  0  0  0  0  0  0  0
   31.5040   45.5640   -6.8280 O   0  0  0  0  0  0  0  0  0  0  0  0
   38.4150   45.7130   -2.1650 C   0  0  0  0  0  0  0  0  0  0  0  0
  1  2  1  0
  2  3  1  0
  3  4  2  0
  3  5  1  0
  5  6  2  0
  5  7  1  0
  6  8  1  0
  6  9  1  0
  7 10  2  0
  8 11  1  0
  9 12  2  0
 10 12  1  0
 11 13  1  0
 13 14  1  0
 14 15  2  3
 15 16  1  0
 15 17  1  0
 16 18  1  0
 17 19  1  0
 16 20  2  0
 18 21  1  0
 19 22  2  0
 20 22  1  0
 19 23  1  0
 21 24  1  0
 22 25  1  0
 23 26  2  0
 24 27  1  0
 24 28  2  0
 25 29  2  0
 26 29  1  0
M  END
