mac-x0510-mac-x0346
     RDKit          3D

 14 16  0  0  0  0  0  0  0  0999 V2000
   28.9990   53.4050   -5.9590 N   0  0  0  0  0  0  0  0  0  0  0  0
   29.3550   53.7020   -4.6670 N   0  0  0  0  0  0  0  0  0  0  0  0
   29.6240   52.5300   -3.9600 C   0  0  0  0  0  0  0  0  0  0  0  0
   29.0130   52.1020   -6.0190 C   0  0  0  0  0  0  0  0  0  0  0  0
   28.7200   51.4390   -7.1820 N   0  0  0  0  0  0  0  0  0  0  0  0
   29.3460   51.4840   -4.8470 N   0  0  0  0  0  0  0  0  0  0  0  0
   30.0180   52.5060   -2.8100 O   0  0  0  0  0  0  0  0  0  0  0  0
   28.7970   50.1550   -7.1520 C   0  0  0  0  0  0  0  0  0  0  0  0
   29.4460   50.1060   -4.6710 C   0  0  0  0  0  0  0  0  0  0  0  0
   29.7120   49.4570   -3.6770 O   0  0  0  0  0  0  0  0  0  0  0  0
   29.1640   49.4060   -5.9530 C   0  0  0  0  0  0  0  0  0  0  0  0
   28.5750   49.2810   -8.1730 N   0  0  0  0  0  0  0  0  0  0  0  0
   29.1730   48.1410   -6.2690 N   0  0  0  0  0  0  0  0  0  0  0  0
   28.8110   48.1270   -7.6150 C   0  0  0  0  0  0  0  0  0  0  0  0
  1  2  1  0
  2  3  1  0
  1  4  2  0
  4  5  1  0
  3  6  1  0
  4  6  1  0
  3  7  2  0
  5  8  2  0
  6  9  1  0
  9 10  2  0
  8 11  1  0
  9 11  1  0
  8 12  1  0
 11 13  2  0
 12 14  2  0
 13 14  1  0
M  END
