mac-x0305-mac-x0231
     RDKit          3D

 24 26  0  0  0  0  0  0  0  0999 V2000
   31.9700   46.9470   -6.6180 N   0  0  0  0  0  0  0  0  0  0  0  0
   30.6440   47.0210   -6.2500 C   0  0  0  0  0  0  0  0  0  0  0  0
   29.9230   46.0290   -6.2140 O   0  0  0  0  0  0  0  0  0  0  0  0
   32.6710   45.8900   -6.3310 C   0  0  0  0  0  0  0  0  0  0  0  0
   33.9540   45.9320   -6.7420 O   0  0  0  0  0  0  0  0  0  0  0  0
   32.3670   44.5920   -5.6280 C   0  0  0  0  0  0  0  0  0  0  0  0
   30.0580   48.3670   -5.8910 C   0  0  0  0  0  0  0  0  0  0  0  0
   29.2160   49.0310   -6.7890 C   0  0  0  0  0  0  0  0  0  0  0  0
   30.3920   48.8790   -4.6700 N   0  0  0  0  0  0  0  0  0  0  0  0
   31.3600   44.6310   -4.4980 C   0  0  0  0  0  0  0  0  0  0  0  0
   28.8520   48.5630   -8.0220 O   0  0  0  0  0  0  0  0  0  0  0  0
   28.6960   50.2670   -6.4150 C   0  0  0  0  0  0  0  0  0  0  0  0
   29.8670   50.0790   -4.3450 C   0  0  0  0  0  0  0  0  0  0  0  0
   31.3750   45.7430   -3.5130 C   0  0  0  0  0  0  0  0  0  0  0  0
   30.5030   43.6480   -4.4490 N   0  0  0  0  0  0  0  0  0  0  0  0
   29.0240   50.8020   -5.1730 C   0  0  0  0  0  0  0  0  0  0  0  0
   30.3150   45.7920   -2.6060 C   0  0  0  0  0  0  0  0  0  0  0  0
   29.5820   43.6600   -3.4470 N   0  0  0  0  0  0  0  0  0  0  0  0
   32.3760   46.7210   -3.4540 C   0  0  0  0  0  0  0  0  0  0  0  0
   29.2730   44.7550   -2.6810 C   0  0  0  0  0  0  0  0  0  0  0  0
   30.2470   46.8060   -1.6430 C   0  0  0  0  0  0  0  0  0  0  0  0
   32.3080   47.7350   -2.4910 C   0  0  0  0  0  0  0  0  0  0  0  0
   28.1980   44.8680   -2.0930 O   0  0  0  0  0  0  0  0  0  0  0  0
   31.2460   47.7780   -1.5890 C   0  0  0  0  0  0  0  0  0  0  0  0
  1  2  1  0
  2  3  2  0
  1  4  2  3
  4  5  1  0
  4  6  1  0
  2  7  1  0
  7  8  2  0
  7  9  1  0
  6 10  1  0
  8 11  1  0
  8 12  1  0
  9 13  2  0
 10 14  1  0
 10 15  2  0
 12 16  2  0
 13 16  1  0
 14 17  2  0
 15 18  1  0
 14 19  1  0
 17 20  1  0
 18 20  1  0
 17 21  1  0
 19 22  2  0
 20 23  2  0
 21 24  2  0
 22 24  1  0
M  END
