mac-x0565-mac-x0365
     RDKit          3D

 16 17  0  0  0  0  0  0  0  0999 V2000
   28.9760   52.3830   -5.8090 O   0  0  0  0  0  0  0  0  0  0  0  0
   29.4940   52.3990   -4.5750 C   0  0  0  0  0  0  0  0  0  0  0  0
   29.7290   53.4450   -3.9700 O   0  0  0  0  0  0  0  0  0  0  0  0
   29.7800   51.0950   -3.9160 C   0  0  0  0  0  0  0  0  0  0  0  0
   29.9120   49.7930   -4.5080 C   0  0  0  0  0  0  0  0  0  0  0  0
   29.9480   51.1610   -2.5160 C   0  0  0  0  0  0  0  0  0  0  0  0
   29.8630   49.1540   -5.8130 C   0  0  0  0  0  0  0  0  0  0  0  0
   29.8440   52.3440   -1.9040 F   0  0  0  0  0  0  0  0  0  0  0  0
   30.1710   48.7460   -3.7210 C   0  0  0  0  0  0  0  0  0  0  0  0
   30.2230   50.0320   -1.7340 C   0  0  0  0  0  0  0  0  0  0  0  0
   28.7500   49.1750   -6.5410 O   0  0  0  0  0  0  0  0  0  0  0  0
   30.8580   48.5240   -6.1380 O   0  0  0  0  0  0  0  0  0  0  0  0
   30.3260   48.8260   -2.3880 C   0  0  0  0  0  0  0  0  0  0  0  0
   30.3060   47.4780   -4.1980 O   0  0  0  0  0  0  0  0  0  0  0  0
   30.5790   47.5980   -1.8520 O   0  0  0  0  0  0  0  0  0  0  0  0
   30.2600   46.7490   -2.9780 C   0  0  0  0  0  0  0  0  0  0  0  0
  1  2  1  0
  2  3  2  0
  2  4  1  0
  4  5  2  0
  4  6  1  0
  5  7  1  0
  6  8  1  0
  5  9  1  0
  6 10  2  0
  7 11  1  0
  7 12  2  0
  9 13  2  0
 10 13  1  0
  9 14  1  0
 13 15  1  0
 14 16  1  0
 15 16  1  0
M  END
