mac-x0302-mac-x0188
     RDKit          3D

 19 21  0  0  0  0  0  0  0  0999 V2000
   30.8960   46.5340   -5.0040 C   0  0  2  0  0  0  0  0  0  0  0  0
   31.6260   45.6960   -6.0590 C   0  0  2  0  0  0  0  0  0  0  0  0
   30.9140   44.5050   -6.3280 O   0  0  0  0  0  0  0  0  0  0  0  0
   29.6470   47.2970   -5.4330 C   0  0  0  0  0  0  0  0  0  0  0  0
   32.0430   47.3680   -4.4450 C   0  0  1  0  0  0  0  0  0  0  0  0
   29.0180   48.1900   -4.4750 N   0  0  0  0  0  0  0  0  0  0  0  0
   31.7700   48.0670   -3.2350 O   0  0  0  0  0  0  0  0  0  0  0  0
   33.1490   46.3540   -4.4190 C   0  0  0  0  0  0  0  0  0  0  0  0
   32.9110   45.4070   -5.3410 C   0  0  0  0  0  0  0  0  0  0  0  0
   29.4970   49.0980   -3.5780 C   0  0  0  0  0  0  0  0  0  0  0  0
   31.9140   49.5070   -3.4350 N   0  0  0  0  0  0  0  0  0  0  0  0
   28.9730   49.0540   -2.4600 O   0  0  0  0  0  0  0  0  0  0  0  0
   30.6210   50.1200   -3.9050 C   0  0  2  0  0  0  0  0  0  0  0  0
   30.3250   51.5280   -3.3300 C   0  0  0  0  0  0  0  0  0  0  0  0
   30.7060   50.2580   -5.4720 C   0  0  0  0  0  0  0  0  0  0  0  0
   29.1470   52.2910   -3.9670 C   0  0  1  0  0  0  0  0  0  0  0  0
   29.6130   51.0860   -6.1000 C   0  0  0  0  0  0  0  0  0  0  0  0
   29.3860   53.6910   -3.8580 O   0  0  0  0  0  0  0  0  0  0  0  0
   28.9170   51.9980   -5.4170 C   0  0  0  0  0  0  0  0  0  0  0  0
  1  2  1  0
  2  3  1  1
  1  4  1  6
  1  5  1  0
  4  6  1  0
  5  7  1  0
  5  8  1  1
  2  9  1  0
  8  9  2  0
  6 10  1  0
  7 11  1  0
 10 12  2  0
 13 10  1  0
 11 13  1  0
 13 14  1  1
 13 15  1  0
 14 16  1  0
 15 17  1  0
 16 18  1  6
 16 19  1  0
 17 19  2  0
M  END
