mac-x0417-mac-x0455
     RDKit          3D

 24 26  0  0  0  0  0  0  0  0999 V2000
   32.5250   46.2960   -5.9260 O   0  0  0  0  0  0  0  0  0  0  0  0
   33.3890   45.2420   -5.9440 C   0  0  0  0  0  0  0  0  0  0  0  0
   34.1700   44.9390   -6.8380 O   0  0  0  0  0  0  0  0  0  0  0  0
   31.2690   46.1250   -5.4310 C   0  0  0  0  0  0  0  0  0  0  0  0
   33.2730   44.4320   -4.6710 C   0  0  0  0  0  0  0  0  0  0  0  0
   31.0110   47.0930   -4.2440 C   0  0  1  0  0  0  0  0  0  0  0  0
   30.4040   45.3440   -5.8150 O   0  0  0  0  0  0  0  0  0  0  0  0
   30.5190   48.4220   -4.8270 C   0  0  0  0  0  0  0  0  0  0  0  0
   29.9170   46.5960   -3.4490 O   0  0  0  0  0  0  0  0  0  0  0  0
   34.5230   44.4190   -3.8530 C   0  0  0  0  0  0  0  0  0  0  0  0
   32.2320   47.1980   -3.3290 C   0  0  0  0  0  0  0  0  0  0  0  0
   34.8920   43.2840   -3.2310 N   0  0  0  0  0  0  0  0  0  0  0  0
   35.4480   45.4720   -3.5970 C   0  0  0  0  0  0  0  0  0  0  0  0
   33.0570   48.3390   -3.3980 C   0  0  0  0  0  0  0  0  0  0  0  0
   32.5760   46.1980   -2.4030 C   0  0  0  0  0  0  0  0  0  0  0  0
   36.0650   43.5840   -2.5590 O   0  0  0  0  0  0  0  0  0  0  0  0
   36.3970   44.8840   -2.7750 C   0  0  0  0  0  0  0  0  0  0  0  0
   35.6080   46.8230   -3.9500 C   0  0  0  0  0  0  0  0  0  0  0  0
   34.1780   48.4730   -2.5770 C   0  0  0  0  0  0  0  0  0  0  0  0
   33.7010   46.3330   -1.5830 C   0  0  0  0  0  0  0  0  0  0  0  0
   37.5100   45.5450   -2.2610 C   0  0  0  0  0  0  0  0  0  0  0  0
   36.7200   47.5190   -3.4480 C   0  0  0  0  0  0  0  0  0  0  0  0
   34.5000   47.4690   -1.6690 C   0  0  0  0  0  0  0  0  0  0  0  0
   37.6520   46.8890   -2.6180 C   0  0  0  0  0  0  0  0  0  0  0  0
  1  2  1  0
  2  3  2  0
  1  4  1  0
  2  5  1  0
  4  6  1  0
  4  7  2  0
  6  8  1  6
  6  9  1  0
  5 10  1  0
  6 11  1  0
 10 12  2  0
 10 13  1  0
 11 14  2  0
 11 15  1  0
 12 16  1  0
 13 17  2  0
 16 17  1  0
 13 18  1  0
 14 19  1  0
 15 20  2  0
 17 21  1  0
 18 22  2  0
 19 23  2  0
 20 23  1  0
 21 24  2  0
 22 24  1  0
M  END
