mac-x0159-mac-x0271
     RDKit          3D

 30 34  0  0  0  0  0  0  0  0999 V2000
   26.2800   50.1620   -7.1840 N   0  0  0  0  0  0  0  0  0  0  0  0
   27.0810   49.0010   -6.8380 C   0  0  1  0  0  0  0  0  0  0  0  0
   28.5820   49.1820   -7.1960 C   0  0  1  0  0  0  0  0  0  0  0  0
   26.8610   48.8420   -5.4100 N   0  0  0  0  0  0  0  0  0  0  0  0
   28.1240   48.9610   -4.6650 C   0  0  0  0  0  0  0  0  0  0  0  0
   29.4320   48.1220   -6.4930 C   0  0  1  0  0  0  0  0  0  0  0  0
   28.8700   48.9220   -8.6260 N   0  0  0  0  0  0  0  0  0  0  0  0
   29.0310   47.9270   -5.1230 N   0  0  0  0  0  0  0  0  0  0  0  0
   29.2750   46.9620   -7.3590 N   0  0  0  0  0  0  0  0  0  0  0  0
   29.0130   47.4690   -8.6970 C   0  0  0  0  0  0  0  0  0  0  0  0
   30.0840   47.4770   -4.1800 C   0  0  1  0  0  0  0  0  0  0  0  0
   30.9270   48.6260   -3.5390 C   0  0  0  0  0  0  0  0  0  0  0  0
   29.6190   46.4360   -3.1730 C   0  0  0  0  0  0  0  0  0  0  0  0
   30.1530   49.7060   -2.9840 O   0  0  0  0  0  0  0  0  0  0  0  0
   29.4350   45.0890   -3.4430 C   0  0  0  0  0  0  0  0  0  0  0  0
   29.3360   46.7850   -1.8550 N   0  0  0  0  0  0  0  0  0  0  0  0
   28.9510   45.7330   -1.1680 C   0  0  0  0  0  0  0  0  0  0  0  0
   28.9020   44.2580   -2.0430 S   0  0  0  0  0  0  0  0  0  0  0  0
   30.2400   50.8650   -3.7150 C   0  0  0  0  0  0  0  0  0  0  0  0
   28.5730   45.7610    0.2700 C   0  0  0  0  0  0  0  0  0  0  0  0
   29.7770   52.0480   -3.1490 C   0  0  0  0  0  0  0  0  0  0  0  0
   30.7820   50.8580   -5.0060 C   0  0  0  0  0  0  0  0  0  0  0  0
   29.8620   53.2220   -3.8930 C   0  0  0  0  0  0  0  0  0  0  0  0
   30.8590   52.0440   -5.7370 C   0  0  0  0  0  0  0  0  0  0  0  0
   30.3970   53.2380   -5.1820 C   0  0  0  0  0  0  0  0  0  0  0  0
   29.3840   54.4070   -3.2970 O   0  0  0  0  0  0  0  0  0  0  0  0
   30.4550   54.4960   -5.9070 C   0  0  0  0  0  0  0  0  0  0  0  0
   29.3170   55.5920   -4.0140 C   0  0  0  0  0  0  0  0  0  0  0  0
   28.7730   56.5990   -3.5780 O   0  0  0  0  0  0  0  0  0  0  0  0
   29.9450   55.5980   -5.3500 C   0  0  0  0  0  0  0  0  0  0  0  0
  2  1  1  1
  2  3  1  0
  2  4  1  0
  4  5  1  0
  3  6  1  0
  3  7  1  6
  5  8  1  0
  6  8  1  0
  6  9  1  6
  7 10  1  0
  9 10  1  0
  8 11  1  0
 11 12  1  1
 11 13  1  0
 12 14  1  0
 13 15  2  0
 13 16  1  0
 16 17  2  0
 15 18  1  0
 17 18  1  0
 14 19  1  0
 17 20  1  0
 19 21  2  0
 19 22  1  0
 21 23  1  0
 22 24  2  0
 23 25  2  0
 24 25  1  0
 23 26  1  0
 25 27  1  0
 26 28  1  0
 28 29  2  0
 27 30  2  0
 28 30  1  0
M  END
