mac-x0123-mac-x0255
     RDKit          3D

 28 32  0  0  0  0  0  0  0  0999 V2000
   28.5290   51.6540   -7.1740 N   0  0  0  0  0  0  0  0  0  0  0  0
   28.9890   52.3170   -6.0420 C   0  0  0  0  0  0  0  0  0  0  0  0
   28.9480   53.6440   -5.8670 C   0  0  0  0  0  0  0  0  0  0  0  0
   29.5520   51.5580   -4.9860 N   0  0  0  0  0  0  0  0  0  0  0  0
   30.0340   52.1560   -3.8090 C   0  0  0  0  0  0  0  0  0  0  0  0
   29.4840   54.1830   -4.5850 C   0  0  0  0  0  0  0  0  0  0  0  0
   28.4690   54.7880   -6.6850 C   0  0  0  0  0  0  0  0  0  0  0  0
   29.7250   50.2110   -4.9170 N   0  0  0  0  0  0  0  0  0  0  0  0
   29.9910   53.5070   -3.6080 N   0  0  0  0  0  0  0  0  0  0  0  0
   29.3530   55.6740   -4.5720 C   0  0  0  0  0  0  0  0  0  0  0  0
   29.2200   55.9730   -6.0680 C   0  0  0  0  0  0  0  0  0  0  0  0
   30.5000   51.2210   -3.0140 N   0  0  0  0  0  0  0  0  0  0  0  0
   30.3010   50.0710   -3.7180 C   0  0  0  0  0  0  0  0  0  0  0  0
   30.7100   48.7510   -3.1870 C   0  0  0  0  0  0  0  0  0  0  0  0
   29.9330   48.2410   -1.9720 C   0  0  0  0  0  0  0  0  0  0  0  0
   29.4320   46.8310   -2.1920 C   0  0  0  0  0  0  0  0  0  0  0  0
   30.0610   45.9200   -3.0800 C   0  0  0  0  0  0  0  0  0  0  0  0
   28.2900   46.3830   -1.5030 C   0  0  0  0  0  0  0  0  0  0  0  0
   29.5770   44.6250   -3.2770 C   0  0  0  0  0  0  0  0  0  0  0  0
   31.4710   46.1880   -4.0470 S   0  0  0  0  0  0  0  0  0  0  0  0
   27.7930   45.1000   -1.6840 C   0  0  0  0  0  0  0  0  0  0  0  0
   31.4360   44.6300   -4.7200 C   0  0  0  0  0  0  0  0  0  0  0  0
   30.3780   43.8990   -4.2250 C   0  0  0  0  0  0  0  0  0  0  0  0
   28.4250   44.2220   -2.5630 C   0  0  0  0  0  0  0  0  0  0  0  0
   32.4770   44.2240   -5.7170 C   0  0  0  0  0  0  0  0  0  0  0  0
   32.6490   45.2610   -6.8150 C   0  0  0  0  0  0  0  0  0  0  0  0
   31.5530   45.3650   -7.6120 O   0  0  0  0  0  0  0  0  0  0  0  0
   33.6370   45.9520   -7.0110 O   0  0  0  0  0  0  0  0  0  0  0  0
  1  2  1  0
  2  3  2  0
  2  4  1  0
  4  5  1  0
  3  6  1  0
  3  7  1  0
  4  8  1  0
  5  9  1  0
  6  9  2  0
  6 10  1  0
  7 11  1  0
 10 11  1  0
  5 12  2  0
  8 13  2  0
 12 13  1  0
 13 14  1  0
 14 15  1  0
 15 16  1  0
 16 17  1  0
 16 18  2  0
 17 19  2  0
 17 20  1  0
 18 21  1  0
 20 22  1  0
 19 23  1  0
 22 23  2  0
 19 24  1  0
 21 24  2  0
 22 25  1  0
 25 26  1  0
 26 27  1  0
 26 28  2  0
M  END
