mac-x0148-mac-x0137
     RDKit          3D

 19 22  0  0  0  0  0  0  0  0999 V2000
   33.9670   48.2590   -4.9750 F   0  0  0  0  0  0  0  0  0  0  0  0
   33.5080   46.9810   -4.8660 C   0  0  1  0  0  0  0  0  0  0  0  0
   33.2480   46.6920   -3.3930 C   0  0  0  0  0  0  0  0  0  0  0  0
   32.2410   46.8290   -5.7100 C   0  0  0  0  0  0  0  0  0  0  0  0
   31.7910   46.2980   -3.1250 C   0  0  1  0  0  0  0  0  0  0  0  0
   31.0960   47.5840   -5.1560 N   0  0  0  0  0  0  0  0  0  0  0  0
   31.4500   46.4750   -1.6540 C   0  0  0  0  0  0  0  0  0  0  0  0
   30.7770   47.2350   -3.7570 C   0  0  2  0  0  0  0  0  0  0  0  0
   30.0550   48.0330   -5.9900 C   0  0  0  0  0  0  0  0  0  0  0  0
   31.0870   47.8550   -1.4820 O   0  0  0  0  0  0  0  0  0  0  0  0
   30.7550   48.4030   -2.7730 C   0  0  0  0  0  0  0  0  0  0  0  0
   29.4870   47.1510   -6.8960 N   0  0  0  0  0  0  0  0  0  0  0  0
   29.5290   49.2750   -6.0060 C   0  0  0  0  0  0  0  0  0  0  0  0
   28.4710   47.5090   -7.7390 C   0  0  0  0  0  0  0  0  0  0  0  0
   28.4240   49.5970   -6.9500 C   0  0  0  0  0  0  0  0  0  0  0  0
   29.7250   50.5130   -5.3180 C   0  0  0  0  0  0  0  0  0  0  0  0
   27.9170   48.6720   -7.8160 N   0  0  0  0  0  0  0  0  0  0  0  0
   28.0220   50.8350   -6.8460 N   0  0  0  0  0  0  0  0  0  0  0  0
   28.8300   51.3640   -5.8490 C   0  0  0  0  0  0  0  0  0  0  0  0
  2  1  1  1
  2  3  1  0
  2  4  1  0
  5  3  1  1
  4  6  1  0
  5  7  1  0
  5  8  1  0
  6  8  1  0
  6  9  1  0
  7 10  1  0
  8 11  1  1
 10 11  1  0
  9 12  1  0
  9 13  2  0
 12 14  1  0
 13 15  1  0
 13 16  1  0
 14 17  2  0
 15 17  1  0
 15 18  2  0
 16 19  2  0
 18 19  1  0
M  END
