mac-x0387-mac-x0179
     RDKit          3D

 27 30  0  0  0  0  0  0  0  0999 V2000
   28.3240   51.2080   -7.4250 N   0  0  0  0  0  0  0  0  0  0  0  0
   28.6880   49.8590   -7.3540 C   0  0  0  0  0  0  0  0  0  0  0  0
   28.4680   49.1700   -8.4900 N   0  0  0  0  0  0  0  0  0  0  0  0
   29.2390   49.2930   -6.1830 C   0  0  0  0  0  0  0  0  0  0  0  0
   29.5810   47.9160   -6.1990 C   0  0  0  0  0  0  0  0  0  0  0  0
   28.7990   47.8660   -8.4860 C   0  0  0  0  0  0  0  0  0  0  0  0
   29.4600   50.0400   -5.0040 C   0  0  0  0  0  0  0  0  0  0  0  0
   29.3440   47.2100   -7.3950 C   0  0  0  0  0  0  0  0  0  0  0  0
   30.1380   47.3220   -5.0260 C   0  0  0  0  0  0  0  0  0  0  0  0
   30.0030   49.4530   -3.8660 C   0  0  0  0  0  0  0  0  0  0  0  0
   30.5310   45.8610   -4.9470 C   0  0  0  0  0  0  0  0  0  0  0  0
   30.3380   48.1070   -3.8770 C   0  0  0  0  0  0  0  0  0  0  0  0
   31.7800   45.6420   -5.6270 O   0  0  0  0  0  0  0  0  0  0  0  0
   32.9420   45.8540   -4.9310 C   0  0  0  0  0  0  0  0  0  0  0  0
   34.0080   46.1640   -5.4470 O   0  0  0  0  0  0  0  0  0  0  0  0
   32.7190   45.6460   -3.4360 C   0  0  0  0  0  0  0  0  0  0  0  0
   33.9730   45.8240   -2.7260 N   0  0  0  0  0  0  0  0  0  0  0  0
   34.6400   44.8140   -2.0870 C   0  0  0  0  0  0  0  0  0  0  0  0
   34.5110   47.0440   -2.4240 C   0  0  0  0  0  0  0  0  0  0  0  0
   34.3170   43.6490   -1.9480 O   0  0  0  0  0  0  0  0  0  0  0  0
   34.0580   48.1530   -2.6230 O   0  0  0  0  0  0  0  0  0  0  0  0
   35.8760   45.4090   -1.5720 C   0  0  0  0  0  0  0  0  0  0  0  0
   35.7950   46.7740   -1.7800 C   0  0  0  0  0  0  0  0  0  0  0  0
   36.9750   44.8230   -0.9750 C   0  0  0  0  0  0  0  0  0  0  0  0
   36.8120   47.6340   -1.4030 C   0  0  0  0  0  0  0  0  0  0  0  0
   38.0180   45.6720   -0.5840 C   0  0  0  0  0  0  0  0  0  0  0  0
   37.9350   47.0650   -0.7970 C   0  0  0  0  0  0  0  0  0  0  0  0
  1  2  1  0
  2  3  2  0
  2  4  1  0
  4  5  2  0
  3  6  1  0
  4  7  1  0
  5  8  1  0
  6  8  2  0
  5  9  1  0
  7 10  2  0
  9 11  1  0
  9 12  2  0
 10 12  1  0
 11 13  1  0
 13 14  1  0
 14 15  2  0
 14 16  1  0
 16 17  1  0
 17 18  1  0
 17 19  1  0
 18 20  2  0
 19 21  2  0
 18 22  1  0
 19 23  1  0
 22 23  2  0
 22 24  1  0
 23 25  1  0
 24 26  2  0
 25 27  2  0
 26 27  1  0
M  END
