mac-x0361-mac-x0348
     RDKit          3D

 26 28  0  0  0  0  0  0  0  0999 V2000
   28.7720   53.9070   -6.1790 N   0  0  0  0  0  0  0  0  0  0  0  0
   29.4050   53.6390   -4.9930 C   0  0  0  0  0  0  0  0  0  0  0  0
   29.8010   54.5420   -4.2690 O   0  0  0  0  0  0  0  0  0  0  0  0
   29.5880   52.2140   -4.6320 C   0  0  0  0  0  0  0  0  0  0  0  0
   29.5070   51.2110   -5.5960 C   0  0  0  0  0  0  0  0  0  0  0  0
   29.8440   51.8810   -3.2950 C   0  0  0  0  0  0  0  0  0  0  0  0
   29.6820   49.8850   -5.2240 C   0  0  0  0  0  0  0  0  0  0  0  0
   30.0190   50.5470   -2.9280 C   0  0  0  0  0  0  0  0  0  0  0  0
   29.9350   49.5580   -3.8970 C   0  0  0  0  0  0  0  0  0  0  0  0
   30.0840   48.2420   -3.6740 O   0  0  0  0  0  0  0  0  0  0  0  0
   31.0060   47.5660   -4.5210 C   0  0  0  0  0  0  0  0  0  0  0  0
   31.2100   46.1810   -3.9260 C   0  0  2  0  0  0  0  0  0  0  0  0
   31.3510   45.1360   -5.0130 C   0  0  0  0  0  0  0  0  0  0  0  0
   30.1560   45.9660   -2.8610 C   0  0  0  0  0  0  0  0  0  0  0  0
   32.0590   45.7480   -6.1900 C   0  0  0  0  0  0  0  0  0  0  0  0
   29.2070   44.9630   -2.7280 C   0  0  0  0  0  0  0  0  0  0  0  0
   29.9830   46.8460   -1.7570 C   0  0  0  0  0  0  0  0  0  0  0  0
   31.6030   45.8440   -7.3150 O   0  0  0  0  0  0  0  0  0  0  0  0
   33.2940   46.2180   -5.9100 O   0  0  0  0  0  0  0  0  0  0  0  0
   28.4820   45.2110   -1.5850 N   0  0  0  0  0  0  0  0  0  0  0  0
   28.9410   46.3640   -0.9720 C   0  0  0  0  0  0  0  0  0  0  0  0
   30.6460   48.0290   -1.3700 C   0  0  0  0  0  0  0  0  0  0  0  0
   27.3990   44.3820   -1.1030 C   0  0  0  0  0  0  0  0  0  0  0  0
   30.2610   48.6980   -0.2130 C   0  0  0  0  0  0  0  0  0  0  0  0
   28.5420   47.0300    0.2010 C   0  0  0  0  0  0  0  0  0  0  0  0
   29.2200   48.2020    0.5620 C   0  0  0  0  0  0  0  0  0  0  0  0
  1  2  1  0
  2  3  2  0
  2  4  1  0
  4  5  2  0
  4  6  1  0
  5  7  1  0
  6  8  2  0
  7  9  2  0
  8  9  1  0
  9 10  1  0
 10 11  1  0
 12 11  1  6
 12 13  1  0
 12 14  1  0
 13 15  1  0
 14 16  2  0
 14 17  1  0
 15 18  2  0
 15 19  1  0
 16 20  1  0
 17 21  2  0
 20 21  1  0
 17 22  1  0
 20 23  1  0
 22 24  2  0
 21 25  1  0
 24 26  1  0
 25 26  2  0
M  END
