mac-x0132-mac-x1493
     RDKit          3D

 14 15  0  0  0  0  0  0  0  0999 V2000
   28.4940   52.5090   -7.2830 N   0  0  0  0  0  0  0  0  0  0  0  0
   28.8890   52.9680   -6.0160 C   0  0  0  0  0  0  0  0  0  0  0  0
   28.8460   54.2930   -5.8360 N   0  0  0  0  0  0  0  0  0  0  0  0
   29.3020   52.0770   -5.0130 C   0  0  0  0  0  0  0  0  0  0  0  0
   29.6670   52.6740   -3.7970 C   0  0  0  0  0  0  0  0  0  0  0  0
   29.2200   54.7410   -4.6340 C   0  0  0  0  0  0  0  0  0  0  0  0
   29.3690   50.6650   -5.1540 C   0  0  0  0  0  0  0  0  0  0  0  0
   29.6290   53.9940   -3.6010 N   0  0  0  0  0  0  0  0  0  0  0  0
   30.0850   51.8560   -2.7540 C   0  0  0  0  0  0  0  0  0  0  0  0
   29.7940   49.8630   -4.0900 C   0  0  0  0  0  0  0  0  0  0  0  0
   29.8870   48.3880   -4.1880 C   0  0  0  0  0  0  0  0  0  0  0  0
   30.1540   50.4650   -2.8860 C   0  0  0  0  0  0  0  0  0  0  0  0
   29.6220   47.9240   -5.4220 O   0  0  0  0  0  0  0  0  0  0  0  0
   30.1710   47.6370   -3.2770 O   0  0  0  0  0  0  0  0  0  0  0  0
  1  2  1  0
  2  3  2  0
  2  4  1  0
  4  5  2  0
  3  6  1  0
  4  7  1  0
  5  8  1  0
  6  8  2  0
  5  9  1  0
  7 10  2  0
 10 11  1  0
  9 12  2  0
 10 12  1  0
 11 13  1  0
 11 14  2  0
M  END
