mac-x0131-mac-x0305
     RDKit          3D

 21 23  0  0  0  0  0  0  0  0999 V2000
   31.4360   48.4410   -2.9660 C   0  0  0  0  0  0  0  0  0  0  0  0
   30.2250   48.5770   -3.8800 C   0  0  1  0  0  0  0  0  0  0  0  0
   30.1210   49.9390   -4.6090 C   0  0  2  0  0  0  0  0  0  0  0  0
   30.0540   47.5480   -4.9330 N   0  0  0  0  0  0  0  0  0  0  0  0
   29.3380   50.9860   -3.8270 C   0  0  0  0  0  0  0  0  0  0  0  0
   31.0000   46.6040   -5.3710 C   0  0  0  0  0  0  0  0  0  0  0  0
   29.5240   49.5840   -6.0010 C   0  0  2  0  0  0  0  0  0  0  0  0
   29.0720   48.1060   -5.8650 C   0  0  1  0  0  0  0  0  0  0  0  0
   30.8030   45.7450   -6.3930 C   0  0  0  0  0  0  0  0  0  0  0  0
   30.5260   49.7050   -7.0450 O   0  0  0  0  0  0  0  0  0  0  0  0
   28.2850   50.3980   -6.4440 C   0  0  1  0  0  0  0  0  0  0  0  0
   28.6850   47.5240   -7.1550 N   0  0  0  0  0  0  0  0  0  0  0  0
   32.2800   46.5180   -4.7110 C   0  0  0  0  0  0  0  0  0  0  0  0
   28.4950   51.6010   -7.2310 N   0  0  0  0  0  0  0  0  0  0  0  0
   29.6570   45.6720   -7.1430 O   0  0  0  0  0  0  0  0  0  0  0  0
   27.4330   49.6010   -7.3090 N   0  0  0  0  0  0  0  0  0  0  0  0
   28.1410   48.5510   -8.0340 C   0  0  0  0  0  0  0  0  0  0  0  0
   32.8530   45.4840   -3.9710 C   0  0  0  0  0  0  0  0  0  0  0  0
   33.2030   47.5520   -4.7240 O   0  0  0  0  0  0  0  0  0  0  0  0
   34.2950   47.1700   -4.0260 C   0  0  0  0  0  0  0  0  0  0  0  0
   34.1340   45.9020   -3.5370 C   0  0  0  0  0  0  0  0  0  0  0  0
  2  1  1  6
  2  3  1  0
  2  4  1  0
  3  5  1  1
  4  6  1  0
  3  7  1  0
  4  8  1  0
  7  8  1  0
  6  9  2  3
  7 10  1  6
  7 11  1  0
  8 12  1  6
  6 13  1  0
 11 14  1  6
  9 15  1  0
 11 16  1  0
 12 17  1  0
 16 17  1  0
 13 18  2  0
 13 19  1  0
 19 20  1  0
 18 21  1  0
 20 21  2  0
M  END
