mac-x0411-mac-x0396
     RDKit          3D

 25 26  0  0  0  0  0  0  0  0999 V2000
   37.3050   44.0950   -3.3530 Cl  0  0  0  0  0  0  0  0  0  0  0  0
   36.5040   45.6240   -3.2450 C   0  0  0  0  0  0  0  0  0  0  0  0
   35.1010   45.7540   -3.2810 C   0  0  0  0  0  0  0  0  0  0  0  0
   37.3200   46.7500   -3.1150 C   0  0  0  0  0  0  0  0  0  0  0  0
   34.2650   44.6670   -3.4020 O   0  0  0  0  0  0  0  0  0  0  0  0
   34.5210   47.0520   -3.1820 C   0  0  0  0  0  0  0  0  0  0  0  0
   36.7560   48.0170   -3.0190 C   0  0  0  0  0  0  0  0  0  0  0  0
   33.0200   47.3120   -3.2050 C   0  0  0  0  0  0  0  0  0  0  0  0
   33.1960   44.6660   -4.3480 C   0  0  0  0  0  0  0  0  0  0  0  0
   35.3720   48.1660   -3.0530 C   0  0  0  0  0  0  0  0  0  0  0  0
   33.3140   45.1120   -5.8110 C   0  0  0  0  0  0  0  0  0  0  0  0
   32.4790   48.0160   -4.4580 C   0  0  0  0  0  0  0  0  0  0  0  0
   32.1030   45.1210   -6.4220 O   0  0  0  0  0  0  0  0  0  0  0  0
   34.3170   45.4280   -6.4240 O   0  0  0  0  0  0  0  0  0  0  0  0
   32.1590   49.5100   -4.2570 C   0  0  0  0  0  0  0  0  0  0  0  0
   30.7040   49.7650   -3.8270 C   0  0  0  0  0  0  0  0  0  0  0  0
   29.8440   49.6760   -4.9980 N   0  0  0  0  0  0  0  0  0  0  0  0
   29.2420   50.6400   -5.6120 C   0  0  0  0  0  0  0  0  0  0  0  0
   28.4590   50.4500   -6.7230 N   0  0  0  0  0  0  0  0  0  0  0  0
   29.4050   52.0500   -5.0980 C   0  0  0  0  0  0  0  0  0  0  0  0
   29.6840   52.2980   -3.7550 C   0  0  0  0  0  0  0  0  0  0  0  0
   29.2840   53.1600   -5.9300 C   0  0  0  0  0  0  0  0  0  0  0  0
   29.8480   53.5360   -3.2050 N   0  0  0  0  0  0  0  0  0  0  0  0
   29.4430   54.4440   -5.4040 C   0  0  0  0  0  0  0  0  0  0  0  0
   29.7210   54.5790   -4.0530 C   0  0  0  0  0  0  0  0  0  0  0  0
  1  2  1  0
  2  3  2  0
  2  4  1  0
  3  5  1  0
  3  6  1  0
  4  7  2  0
  6  8  1  0
  5  9  1  0
  6 10  2  0
  7 10  1  0
  9 11  1  0
  8 12  1  0
 11 13  1  0
 11 14  2  0
 12 15  1  0
 15 16  1  0
 16 17  1  0
 17 18  2  3
 18 19  1  0
 18 20  1  0
 20 21  2  0
 20 22  1  0
 21 23  1  0
 22 24  2  0
 23 25  2  0
 24 25  1  0
M  END
