mac-x0306-mac-x0397
     RDKit          3D

 16 18  0  0  0  0  0  0  0  0999 V2000
   28.5880   52.6210   -2.1310 Cl  0  0  0  0  0  0  0  0  0  0  0  0
   29.1830   51.7810   -3.5150 C   0  0  0  0  0  0  0  0  0  0  0  0
   29.0470   52.4290   -4.9000 C   0  0  1  0  0  0  0  0  0  0  0  0
   29.7670   50.5670   -3.3820 C   0  0  0  0  0  0  0  0  0  0  0  0
   29.7000   53.8100   -4.9860 C   0  0  0  0  0  0  0  0  0  0  0  0
   30.2660   49.8490   -4.4580 N   0  0  0  0  0  0  0  0  0  0  0  0
   29.4660   51.4590   -5.9870 C   0  0  0  0  0  0  0  0  0  0  0  0
   27.6490   52.7680   -5.3330 N   0  0  0  0  0  0  0  0  0  0  0  0
   29.4780   54.5960   -6.0930 N   0  0  0  0  0  0  0  0  0  0  0  0
   30.4850   54.4350   -4.1290 N   0  0  0  0  0  0  0  0  0  0  0  0
   30.0300   50.2680   -5.7530 C   0  0  0  0  0  0  0  0  0  0  0  0
   27.6200   52.6760   -6.6360 C   0  0  0  0  0  0  0  0  0  0  0  0
   29.0670   52.1580   -7.4990 S   0  0  0  0  0  0  0  0  0  0  0  0
   26.5310   52.9440   -7.3900 N   0  0  0  0  0  0  0  0  0  0  0  0
   30.7680   55.6480   -4.7060 C   0  0  0  0  0  0  0  0  0  0  0  0
   30.1530   55.7680   -5.9270 C   0  0  0  0  0  0  0  0  0  0  0  0
  1  2  1  0
  2  3  1  0
  2  4  2  0
  3  5  1  1
  4  6  1  0
  3  7  1  0
  3  8  1  0
  5  9  1  0
  5 10  2  0
  6 11  1  0
  7 11  2  0
  8 12  2  0
  7 13  1  0
 12 13  1  0
 12 14  1  0
 10 15  1  0
  9 16  1  0
 15 16  2  0
M  END
