mac-x0546-mac-x0441
     RDKit          3D

 28 31  0  0  0  0  0  0  0  0999 V2000
   30.8090   49.3430   -0.5970 C   0  0  0  0  0  0  0  0  0  0  0  0
   29.6780   48.6330   -1.0950 O   0  0  0  0  0  0  0  0  0  0  0  0
   29.8800   47.3430   -1.5200 C   0  0  0  0  0  0  0  0  0  0  0  0
   30.9190   46.8790   -2.2540 C   0  0  0  0  0  0  0  0  0  0  0  0
   28.8210   46.4300   -1.0920 C   0  0  0  0  0  0  0  0  0  0  0  0
   30.9900   45.4210   -2.5990 C   0  0  1  0  0  0  0  0  0  0  0  0
   28.6280   45.2160   -1.6460 C   0  0  0  0  0  0  0  0  0  0  0  0
   29.5750   44.8840   -2.7180 C   0  0  0  0  0  0  0  0  0  0  0  0
   31.4860   44.8650   -3.9040 C   0  0  0  0  0  0  0  0  0  0  0  0
   32.8570   45.0030   -4.5080 C   0  0  1  0  0  0  0  0  0  0  0  0
   29.3160   44.1620   -3.7620 N   0  0  0  0  0  0  0  0  0  0  0  0
   30.4870   44.1690   -4.4690 C   0  0  0  0  0  0  0  0  0  0  0  0
   32.8460   45.9850   -5.7080 C   0  0  0  0  0  0  0  0  0  0  0  0
   33.9660   45.1310   -3.5130 N   0  0  0  0  0  0  0  0  0  0  0  0
   31.9150   46.1960   -6.4780 O   0  0  0  0  0  0  0  0  0  0  0  0
   34.0070   46.6480   -5.8930 O   0  0  0  0  0  0  0  0  0  0  0  0
   34.2440   43.8350   -2.8690 N   0  0  0  0  0  0  0  0  0  0  0  0
   35.2650   45.7020   -3.8990 C   0  0  2  0  0  0  0  0  0  0  0  0
   35.5030   44.0580   -2.1100 C   0  0  2  0  0  0  0  0  0  0  0  0
   36.3300   44.9010   -3.0920 C   0  0  2  0  0  0  0  0  0  0  0  0
   35.2800   47.1900   -3.6180 C   0  0  0  0  0  0  0  0  0  0  0  0
   36.2030   42.7680   -1.6580 C   0  0  0  0  0  0  0  0  0  0  0  0
   37.4260   45.7280   -2.4550 C   0  0  0  0  0  0  0  0  0  0  0  0
   36.2570   47.8010   -2.9280 C   0  0  0  0  0  0  0  0  0  0  0  0
   37.2060   42.4030   -2.4910 F   0  0  0  0  0  0  0  0  0  0  0  0
   36.7380   42.9030   -0.4260 F   0  0  0  0  0  0  0  0  0  0  0  0
   35.3320   41.7290   -1.6040 F   0  0  0  0  0  0  0  0  0  0  0  0
   37.3760   47.0660   -2.3940 C   0  0  0  0  0  0  0  0  0  0  0  0
  1  2  1  0
  2  3  1  0
  3  4  2  0
  3  5  1  0
  6  4  1  6
  5  7  2  0
  6  8  1  0
  7  8  1  0
  6  9  1  0
  9 10  1  0
  8 11  2  0
  9 12  2  0
 11 12  1  0
 10 13  1  6
 10 14  1  0
 13 15  2  0
 13 16  1  0
 14 17  1  0
 14 18  1  0
 17 19  1  0
 18 20  1  0
 19 20  1  0
 18 21  1  1
 19 22  1  6
 20 23  1  1
 21 24  2  0
 22 25  1  0
 22 26  1  0
 22 27  1  0
 23 28  2  0
 24 28  1  0
M  END
