mac-x0148-mac-x0387
     RDKit          3D

 19 22  0  0  0  0  0  0  0  0999 V2000
   27.8610   50.0000   -8.9660 N   0  0  0  0  0  0  0  0  0  0  0  0
   28.4860   49.3040   -7.9120 N   0  0  0  0  0  0  0  0  0  0  0  0
   29.0580   48.0800   -8.1390 C   0  0  0  0  0  0  0  0  0  0  0  0
   28.7410   49.9600   -6.7390 C   0  0  0  0  0  0  0  0  0  0  0  0
   29.8490   47.4600   -7.3130 N   0  0  0  0  0  0  0  0  0  0  0  0
   29.6410   49.2860   -5.7640 C   0  0  0  0  0  0  0  0  0  0  0  0
   28.3230   51.1210   -6.2940 N   0  0  0  0  0  0  0  0  0  0  0  0
   30.1610   48.0680   -6.0850 C   0  0  0  0  0  0  0  0  0  0  0  0
   29.6940   50.2140   -4.6770 C   0  0  0  0  0  0  0  0  0  0  0  0
   28.9170   51.2440   -5.0470 C   0  0  0  0  0  0  0  0  0  0  0  0
   31.0270   47.3640   -5.2110 N   0  0  0  0  0  0  0  0  0  0  0  0
   31.3730   47.8660   -3.8500 C   0  0  1  0  0  0  0  0  0  0  0  0
   31.2450   45.9280   -5.4250 C   0  0  0  0  0  0  0  0  0  0  0  0
   30.3730   47.4380   -2.7820 C   0  0  0  0  0  0  0  0  0  0  0  0
   32.6880   47.3460   -3.2700 C   0  0  1  0  0  0  0  0  0  0  0  0
   32.6910   45.5690   -5.1170 C   0  0  0  0  0  0  0  0  0  0  0  0
   32.4690   47.4790   -1.7700 C   0  0  0  0  0  0  0  0  0  0  0  0
   31.0640   47.3700   -1.5240 O   0  0  0  0  0  0  0  0  0  0  0  0
   33.0960   45.9340   -3.6900 C   0  0  0  0  0  0  0  0  0  0  0  0
  1  2  1  0
  2  3  1  0
  2  4  1  0
  3  5  2  0
  4  6  1  0
  4  7  2  0
  5  8  1  0
  6  8  2  0
  6  9  1  0
  7 10  1  0
  9 10  2  0
  8 11  1  0
 11 12  1  0
 11 13  1  0
 12 14  1  1
 12 15  1  0
 13 16  1  0
 15 17  1  1
 14 18  1  0
 17 18  1  0
 15 19  1  0
 16 19  1  0
M  END
