mac-x0415-mac-x0338
     RDKit          3D

 25 27  0  0  0  0  0  0  0  0999 V2000
   33.7290   46.4620   -5.9070 O   0  0  0  0  0  0  0  0  0  0  0  0
   32.5700   45.7790   -5.7860 C   0  0  0  0  0  0  0  0  0  0  0  0
   31.7430   45.8210   -6.6840 O   0  0  0  0  0  0  0  0  0  0  0  0
   32.4810   45.0250   -4.4740 C   0  0  0  0  0  0  0  0  0  0  0  0
   31.0960   45.0490   -3.9490 C   0  0  0  0  0  0  0  0  0  0  0  0
   30.0640   44.0420   -4.2450 C   0  0  0  0  0  0  0  0  0  0  0  0
   30.4270   45.8540   -3.1310 C   0  0  0  0  0  0  0  0  0  0  0  0
   28.8820   44.1720   -3.7050 N   0  0  0  0  0  0  0  0  0  0  0  0
   29.0040   45.4340   -2.9490 C   0  0  1  0  0  0  0  0  0  0  0  0
   30.8330   47.0330   -2.4170 C   0  0  0  0  0  0  0  0  0  0  0  0
   28.6490   45.4190   -1.5010 C   0  0  0  0  0  0  0  0  0  0  0  0
   30.2540   47.2410   -1.2140 C   0  0  0  0  0  0  0  0  0  0  0  0
   30.5580   48.3290   -0.4220 O   0  0  0  0  0  0  0  0  0  0  0  0
   29.2630   46.3040   -0.6810 C   0  0  0  0  0  0  0  0  0  0  0  0
   30.2590   49.5700   -1.0570 C   0  0  0  0  0  0  0  0  0  0  0  0
   31.2060   49.8540   -2.2170 C   0  0  0  0  0  0  0  0  0  0  0  0
   30.5250   50.5060   -3.3810 C   0  0  0  0  0  0  0  0  0  0  0  0
   30.1150   49.7940   -4.5120 C   0  0  0  0  0  0  0  0  0  0  0  0
   30.3300   51.8390   -3.2800 N   0  0  0  0  0  0  0  0  0  0  0  0
   29.5070   50.3880   -5.5700 N   0  0  0  0  0  0  0  0  0  0  0  0
   29.7250   52.4300   -4.3330 C   0  0  0  0  0  0  0  0  0  0  0  0
   29.3230   51.7280   -5.4560 C   0  0  0  0  0  0  0  0  0  0  0  0
   28.6710   52.4480   -6.5830 C   0  0  0  0  0  0  0  0  0  0  0  0
   28.3270   51.7190   -7.6990 N   0  0  0  0  0  0  0  0  0  0  0  0
   28.4430   53.6490   -6.5460 O   0  0  0  0  0  0  0  0  0  0  0  0
  1  2  1  0
  2  3  2  0
  2  4  1  0
  4  5  1  0
  5  6  1  0
  5  7  2  0
  6  8  2  0
  7  9  1  0
  8  9  1  0
  7 10  1  0
  9 11  1  1
 10 12  2  0
 12 13  1  0
 11 14  2  0
 12 14  1  0
 13 15  1  0
 15 16  1  0
 16 17  1  0
 17 18  2  0
 17 19  1  0
 18 20  1  0
 19 21  2  0
 20 22  2  0
 21 22  1  0
 22 23  1  0
 23 24  1  0
 23 25  2  0
M  END
