mac-x0284-mac-x0302
     RDKit          3D

 22 23  0  0  0  0  0  0  0  0999 V2000
   26.9060   50.9940   -5.2260 C   0  0  0  0  0  0  0  0  0  0  0  0
   27.8210   50.1140   -4.4310 C   0  0  0  0  0  0  0  0  0  0  0  0
   27.9450   50.2640   -3.0480 C   0  0  0  0  0  0  0  0  0  0  0  0
   28.5720   49.1310   -5.0690 C   0  0  0  0  0  0  0  0  0  0  0  0
   29.4490   48.3020   -4.3520 C   0  0  0  0  0  0  0  0  0  0  0  0
   28.8040   49.4420   -2.3160 C   0  0  0  0  0  0  0  0  0  0  0  0
   30.2640   47.3090   -5.1100 C   0  0  2  0  0  0  0  0  0  0  0  0
   29.5490   48.4700   -2.9720 C   0  0  0  0  0  0  0  0  0  0  0  0
   30.4040   47.6700   -2.2540 O   0  0  0  0  0  0  0  0  0  0  0  0
   29.8520   46.7980   -6.3710 O   0  0  0  0  0  0  0  0  0  0  0  0
   30.6440   46.2090   -4.2380 O   0  0  0  0  0  0  0  0  0  0  0  0
   31.3820   48.1570   -5.2780 N   0  0  0  0  0  0  0  0  0  0  0  0
   30.7830   44.9930   -5.0720 O   0  0  0  0  0  0  0  0  0  0  0  0
   31.3670   49.3000   -4.4790 C   0  0  0  0  0  0  0  0  0  0  0  0
   31.9350   49.3700   -3.3930 O   0  0  0  0  0  0  0  0  0  0  0  0
   30.5800   50.5080   -4.9300 C   0  0  0  0  0  0  0  0  0  0  0  0
   30.4100   51.6330   -4.0990 C   0  0  0  0  0  0  0  0  0  0  0  0
   29.9990   50.5130   -6.2120 C   0  0  0  0  0  0  0  0  0  0  0  0
   29.6740   52.7290   -4.5540 C   0  0  0  0  0  0  0  0  0  0  0  0
   29.2630   51.6190   -6.6500 C   0  0  0  0  0  0  0  0  0  0  0  0
   29.4870   53.8420   -3.7840 O   0  0  0  0  0  0  0  0  0  0  0  0
   29.1010   52.7270   -5.8230 C   0  0  0  0  0  0  0  0  0  0  0  0
  1  2  1  0
  2  3  2  0
  2  4  1  0
  4  5  2  0
  3  6  1  0
  5  7  1  0
  5  8  1  0
  6  8  2  0
  8  9  1  0
  7 10  1  6
  7 11  1  0
  7 12  1  0
 11 13  1  0
 12 14  1  0
 14 15  2  0
 14 16  1  0
 16 17  2  0
 16 18  1  0
 17 19  1  0
 18 20  2  0
 19 21  1  0
 19 22  2  0
 20 22  1  0
M  END
