mac-x0138-mac-x0338
     RDKit          3D

 14 16  0  0  0  0  0  0  0  0999 V2000
   30.4560   47.6570   -3.6650 C   0  0  0  0  0  0  0  0  0  0  0  0
   30.3480   48.6790   -4.7070 N   0  0  0  0  0  0  0  0  0  0  0  0
   30.0930   50.0800   -4.1570 C   0  0  0  0  0  0  0  0  0  0  0  0
   29.2580   48.4390   -5.6540 C   0  0  1  0  0  0  0  0  0  0  0  0
   29.0100   50.6790   -4.9480 N   0  0  0  0  0  0  0  0  0  0  0  0
   28.6910   49.7980   -5.9950 C   0  0  1  0  0  0  0  0  0  0  0  0
   29.5110   47.7120   -6.8920 N   0  0  0  0  0  0  0  0  0  0  0  0
   29.0870   51.9440   -5.6640 C   0  0  0  0  0  0  0  0  0  0  0  0
   29.4360   50.2910   -7.1660 C   0  0  2  0  0  0  0  0  0  0  0  0
   28.7280   48.2420   -8.0070 C   0  0  2  0  0  0  0  0  0  0  0  0
   29.0830   51.6580   -7.0390 N   0  0  0  0  0  0  0  0  0  0  0  0
   29.1180   47.4840   -9.1440 N   0  0  0  0  0  0  0  0  0  0  0  0
   29.1370   53.0780   -5.2180 O   0  0  0  0  0  0  0  0  0  0  0  0
   28.9390   49.6280   -8.3280 N   0  0  0  0  0  0  0  0  0  0  0  0
  1  2  1  0
  2  3  1  0
  2  4  1  0
  3  5  1  0
  4  6  1  0
  6  5  1  1
  4  7  1  6
  5  8  1  0
  6  9  1  0
  7 10  1  0
  8 11  1  0
  9 11  1  6
 10 12  1  6
  8 13  2  0
  9 14  1  0
 10 14  1  0
M  END
