mac-x0348-mac-x0590
     RDKit          3D

 31 35  0  0  0  0  0  0  0  0999 V2000
   27.5360   44.3350   -0.8930 C   0  0  0  0  0  0  0  0  0  0  0  0
   28.4020   45.3010   -1.5300 N   0  0  0  0  0  0  0  0  0  0  0  0
   28.7590   45.2700   -2.8510 C   0  0  0  0  0  0  0  0  0  0  0  0
   28.9880   46.3860   -0.9130 C   0  0  0  0  0  0  0  0  0  0  0  0
   29.5880   46.3460   -3.1240 C   0  0  0  0  0  0  0  0  0  0  0  0
   29.7370   47.0490   -1.8850 C   0  0  0  0  0  0  0  0  0  0  0  0
   28.9260   46.8450    0.4120 C   0  0  0  0  0  0  0  0  0  0  0  0
   30.2360   46.7730   -4.4310 C   0  0  2  0  0  0  0  0  0  0  0  0
   30.4520   48.2070   -1.5120 C   0  0  0  0  0  0  0  0  0  0  0  0
   29.6430   47.9990    0.7480 C   0  0  0  0  0  0  0  0  0  0  0  0
   31.7950   46.4860   -4.6360 C   0  0  1  0  0  0  0  0  0  0  0  0
   30.3990   48.6720   -0.2020 C   0  0  0  0  0  0  0  0  0  0  0  0
   29.6590   48.0910   -4.9120 N   0  0  0  0  0  0  0  0  0  0  0  0
   32.3920   46.9450   -5.9660 C   0  0  0  0  0  0  0  0  0  0  0  0
   32.5770   47.1700   -3.4780 C   0  0  0  0  0  0  0  0  0  0  0  0
   30.0400   49.3140   -4.1410 C   0  0  0  0  0  0  0  0  0  0  0  0
   29.6340   48.3980   -6.3220 C   0  0  2  0  0  0  0  0  0  0  0  0
   32.1190   44.9760   -4.7920 C   0  0  1  0  0  0  0  0  0  0  0  0
   31.8000   46.8600   -7.0370 O   0  0  0  0  0  0  0  0  0  0  0  0
   33.6530   47.4200   -5.9220 O   0  0  0  0  0  0  0  0  0  0  0  0
   29.2180   50.4900   -4.4850 N   0  0  0  0  0  0  0  0  0  0  0  0
   28.6310   49.5140   -6.5840 C   0  0  1  0  0  0  0  0  0  0  0  0
   29.0580   47.3710   -7.1580 N   0  0  0  0  0  0  0  0  0  0  0  0
   32.7190   44.6890   -6.1530 C   0  0  0  0  0  0  0  0  0  0  0  0
   33.1580   44.2430   -3.9660 C   0  0  0  0  0  0  0  0  0  0  0  0
   29.2030   50.7570   -5.9030 C   0  0  1  0  0  0  0  0  0  0  0  0
   28.4690   49.4830   -8.0410 N   0  0  0  0  0  0  0  0  0  0  0  0
   28.7130   48.0790   -8.3830 C   0  0  0  0  0  0  0  0  0  0  0  0
   33.1930   42.9440   -4.7580 C   0  0  0  0  0  0  0  0  0  0  0  0
   32.9700   43.2940   -6.1310 O   0  0  0  0  0  0  0  0  0  0  0  0
   28.3790   51.9380   -6.0640 N   0  0  0  0  0  0  0  0  0  0  0  0
  1  2  1  0
  2  3  1  0
  2  4  1  0
  3  5  2  0
  4  6  2  0
  5  6  1  0
  4  7  1  0
  8  5  1  1
  6  9  1  0
  7 10  2  0
  8 11  1  0
  9 12  2  0
 10 12  1  0
  8 13  1  0
 11 14  1  0
 11 15  1  1
 13 16  1  0
 13 17  1  0
 11 18  1  0
 14 19  2  0
 14 20  1  0
 16 21  1  0
 17 22  1  0
 17 23  1  6
 18 24  1  6
 18 25  1  0
 21 26  1  0
 22 26  1  0
 22 27  1  6
 23 28  1  0
 27 28  1  0
 25 29  1  0
 24 30  1  0
 29 30  1  0
 26 31  1  1
M  END
