mac-x0437-mac-x0277
     RDKit          3D

 22 24  0  0  0  0  0  0  0  0999 V2000
   31.0260   45.9900   -6.4520 O   0  0  0  0  0  0  0  0  0  0  0  0
   32.1640   45.3940   -6.0320 C   0  0  0  0  0  0  0  0  0  0  0  0
   33.1930   45.5570   -6.6650 O   0  0  0  0  0  0  0  0  0  0  0  0
   32.0060   44.5500   -4.7800 C   0  0  1  0  0  0  0  0  0  0  0  0
   33.3620   44.1560   -4.1470 C   0  0  0  0  0  0  0  0  0  0  0  0
   31.0000   45.1280   -3.7820 C   0  0  0  0  0  0  0  0  0  0  0  0
   34.2800   45.2530   -3.8530 N   0  0  0  0  0  0  0  0  0  0  0  0
   31.3290   46.1400   -2.8570 C   0  0  0  0  0  0  0  0  0  0  0  0
   29.6870   44.6300   -3.7820 C   0  0  0  0  0  0  0  0  0  0  0  0
   34.1880   46.5420   -4.3040 C   0  0  0  0  0  0  0  0  0  0  0  0
   35.4000   45.1590   -3.0610 C   0  0  0  0  0  0  0  0  0  0  0  0
   30.3660   46.6330   -1.9600 C   0  0  0  0  0  0  0  0  0  0  0  0
   28.7300   45.1220   -2.8890 C   0  0  0  0  0  0  0  0  0  0  0  0
   30.8490   47.8730   -0.8530 Cl  0  0  0  0  0  0  0  0  0  0  0  0
   35.1780   47.2860   -3.8540 N   0  0  0  0  0  0  0  0  0  0  0  0
   35.9390   46.4460   -3.0810 C   0  0  0  0  0  0  0  0  0  0  0  0
   35.9840   44.1070   -2.3450 C   0  0  0  0  0  0  0  0  0  0  0  0
   29.0660   46.1230   -1.9780 C   0  0  0  0  0  0  0  0  0  0  0  0
   27.8330   46.6840   -0.9060 Cl  0  0  0  0  0  0  0  0  0  0  0  0
   37.1110   46.7130   -2.3610 C   0  0  0  0  0  0  0  0  0  0  0  0
   37.1560   44.3960   -1.6330 C   0  0  0  0  0  0  0  0  0  0  0  0
   37.7110   45.6750   -1.6400 C   0  0  0  0  0  0  0  0  0  0  0  0
  1  2  1  0
  2  3  2  0
  2  4  1  0
  4  5  1  1
  4  6  1  0
  5  7  1  0
  6  8  2  0
  6  9  1  0
  7 10  1  0
  7 11  1  0
  8 12  1  0
  9 13  2  0
 12 14  1  0
 10 15  2  0
 11 16  2  0
 15 16  1  0
 11 17  1  0
 12 18  2  0
 13 18  1  0
 18 19  1  0
 16 20  1  0
 17 21  2  0
 20 22  2  0
 21 22  1  0
M  END
