mac-x0328-mac-x0319
     RDKit          3D

 22 23  0  0  0  0  0  0  0  0999 V2000
   30.8760   48.2320   -4.0760 O   0  0  0  0  0  0  0  0  0  0  0  0
   30.5210   48.9110   -5.1810 C   0  0  0  0  0  0  0  0  0  0  0  0
   30.5400   48.4060   -6.3670 N   0  0  0  0  0  0  0  0  0  0  0  0
   30.1060   50.2990   -4.8620 C   0  0  0  0  0  0  0  0  0  0  0  0
   30.9690   47.0180   -6.5210 C   0  0  0  0  0  0  0  0  0  0  0  0
   29.6500   51.1310   -5.8940 C   0  0  0  0  0  0  0  0  0  0  0  0
   30.1580   50.7980   -3.5510 C   0  0  0  0  0  0  0  0  0  0  0  0
   32.4100   46.8720   -6.3590 N   0  0  0  0  0  0  0  0  0  0  0  0
   29.2530   52.4420   -5.6160 C   0  0  0  0  0  0  0  0  0  0  0  0
   29.7600   52.1080   -3.2740 C   0  0  0  0  0  0  0  0  0  0  0  0
   32.8760   45.7380   -5.9570 C   0  0  0  0  0  0  0  0  0  0  0  0
   29.3110   52.9200   -4.3100 C   0  0  0  0  0  0  0  0  0  0  0  0
   28.9150   54.2040   -4.0870 O   0  0  0  0  0  0  0  0  0  0  0  0
   34.1880   45.4900   -5.7730 O   0  0  0  0  0  0  0  0  0  0  0  0
   32.0020   44.5480   -5.6500 C   0  0  0  0  0  0  0  0  0  0  0  0
   31.3710   44.6160   -4.2810 C   0  0  0  0  0  0  0  0  0  0  0  0
   30.2770   43.7960   -3.9670 C   0  0  0  0  0  0  0  0  0  0  0  0
   31.8650   45.4950   -3.3010 C   0  0  0  0  0  0  0  0  0  0  0  0
   29.6970   43.8600   -2.7020 C   0  0  0  0  0  0  0  0  0  0  0  0
   31.2740   45.5470   -2.0360 C   0  0  0  0  0  0  0  0  0  0  0  0
   28.6350   43.0410   -2.4510 O   0  0  0  0  0  0  0  0  0  0  0  0
   30.1850   44.7280   -1.7330 C   0  0  0  0  0  0  0  0  0  0  0  0
  1  2  1  0
  2  3  2  3
  2  4  1  0
  3  5  1  0
  4  6  2  0
  4  7  1  0
  5  8  1  0
  6  9  1  0
  7 10  2  0
  8 11  2  3
  9 12  2  0
 10 12  1  0
 12 13  1  0
 11 14  1  0
 11 15  1  0
 15 16  1  0
 16 17  2  0
 16 18  1  0
 17 19  1  0
 18 20  2  0
 19 21  1  0
 19 22  2  0
 20 22  1  0
M  END
