mac-x0137-mac-x0373
     RDKit          3D

 32 36  0  0  0  0  0  0  0  0999 V2000
   33.0380   50.1430   -6.2400 F   0  0  0  0  0  0  0  0  0  0  0  0
   32.7220   48.8650   -5.8870 C   0  0  2  0  0  0  0  0  0  0  0  0
   33.3000   47.9300   -6.9520 C   0  0  0  0  0  0  0  0  0  0  0  0
   31.1890   48.7260   -5.7220 C   0  0  2  0  0  0  0  0  0  0  0  0
   30.7290   48.1090   -4.3280 C   0  0  0  0  0  0  0  0  0  0  0  0
   30.5670   48.2420   -7.0100 N   0  0  0  0  0  0  0  0  0  0  0  0
   32.5040   46.6410   -7.1140 C   0  0  0  0  0  0  0  0  0  0  0  0
   30.2040   46.6430   -4.6060 C   0  0  0  0  0  0  0  0  0  0  0  0
   31.0410   46.9140   -7.4670 C   0  0  0  0  0  0  0  0  0  0  0  0
   29.4460   48.8100   -7.6240 C   0  0  0  0  0  0  0  0  0  0  0  0
   31.9840   47.8920   -3.4110 C   0  0  0  0  0  0  0  0  0  0  0  0
   29.6280   49.0840   -3.8030 C   0  0  0  0  0  0  0  0  0  0  0  0
   31.0850   45.8050   -5.1960 O   0  0  0  0  0  0  0  0  0  0  0  0
   29.0910   46.1990   -4.3400 O   0  0  0  0  0  0  0  0  0  0  0  0
   28.8670   48.1430   -8.6900 N   0  0  0  0  0  0  0  0  0  0  0  0
   28.8450   49.9730   -7.2850 C   0  0  0  0  0  0  0  0  0  0  0  0
   32.4180   46.6010   -3.0440 C   0  0  0  0  0  0  0  0  0  0  0  0
   32.7330   48.9820   -2.9270 C   0  0  0  0  0  0  0  0  0  0  0  0
   29.8210   49.9320   -2.7020 C   0  0  0  0  0  0  0  0  0  0  0  0
   28.3730   49.1520   -4.4450 C   0  0  0  0  0  0  0  0  0  0  0  0
   27.7740   48.6170   -9.3500 C   0  0  0  0  0  0  0  0  0  0  0  0
   27.6580   50.4340   -8.0540 C   0  0  0  0  0  0  0  0  0  0  0  0
   29.0130   51.0150   -6.3150 C   0  0  0  0  0  0  0  0  0  0  0  0
   33.5450   46.4150   -2.2380 C   0  0  0  0  0  0  0  0  0  0  0  0
   33.8590   48.7940   -2.1220 C   0  0  0  0  0  0  0  0  0  0  0  0
   28.8200   50.8030   -2.2650 C   0  0  0  0  0  0  0  0  0  0  0  0
   27.3730   50.0220   -4.0090 C   0  0  0  0  0  0  0  0  0  0  0  0
   27.1450   49.7140   -9.0950 N   0  0  0  0  0  0  0  0  0  0  0  0
   27.1880   51.5720   -7.6210 N   0  0  0  0  0  0  0  0  0  0  0  0
   28.0310   51.8970   -6.5660 C   0  0  0  0  0  0  0  0  0  0  0  0
   34.2630   47.5100   -1.7790 C   0  0  0  0  0  0  0  0  0  0  0  0
   27.5960   50.8490   -2.9200 C   0  0  0  0  0  0  0  0  0  0  0  0
  2  1  1  6
  2  3  1  0
  2  4  1  0
  4  5  1  1
  4  6  1  0
  3  7  1  0
  5  8  1  0
  6  9  1  0
  7  9  1  0
  6 10  1  0
  5 11  1  0
  5 12  1  0
  8 13  1  0
  8 14  2  0
 10 15  1  0
 10 16  2  0
 11 17  2  0
 11 18  1  0
 12 19  2  0
 12 20  1  0
 15 21  1  0
 16 22  1  0
 16 23  1  0
 17 24  1  0
 18 25  2  0
 19 26  1  0
 20 27  2  0
 21 28  2  0
 22 28  1  0
 22 29  2  0
 23 30  2  0
 29 30  1  0
 24 31  2  0
 25 31  1  0
 26 32  2  0
 27 32  1  0
M  END
