mac-x0321-mac-x0271
     RDKit          3D

 16 17  0  0  0  0  0  0  0  0999 V2000
   27.8540   51.9930   -6.7730 Cl  0  0  0  0  0  0  0  0  0  0  0  0
   28.2970   51.5400   -5.0810 C   0  0  1  0  0  0  0  0  0  0  0  0
   28.7470   50.0460   -5.1200 C   0  0  0  0  0  0  0  0  0  0  0  0
   29.3680   52.5310   -4.5070 C   0  0  2  0  0  0  0  0  0  0  0  0
   30.1800   49.7530   -4.6280 C   0  0  2  0  0  0  0  0  0  0  0  0
   30.1400   51.8740   -3.3840 C   0  0  0  0  0  0  0  0  0  0  0  0
   28.7680   53.7250   -3.8730 O   0  0  0  0  0  0  0  0  0  0  0  0
   30.1940   52.9280   -5.6950 C   0  0  0  0  0  0  0  0  0  0  0  0
   30.3850   48.2510   -4.3580 C   0  0  0  0  0  0  0  0  0  0  0  0
   30.5130   50.5960   -3.4330 C   0  0  0  0  0  0  0  0  0  0  0  0
   30.0060   54.0810   -6.3540 C   0  0  0  0  0  0  0  0  0  0  0  0
   28.8780   54.9760   -4.4040 C   0  0  0  0  0  0  0  0  0  0  0  0
   30.0390   47.4710   -5.4120 O   0  0  0  0  0  0  0  0  0  0  0  0
   30.8220   47.7590   -3.3270 O   0  0  0  0  0  0  0  0  0  0  0  0
   28.9110   55.9990   -3.7150 O   0  0  0  0  0  0  0  0  0  0  0  0
   28.9760   55.0340   -5.9010 C   0  0  0  0  0  0  0  0  0  0  0  0
  2  1  1  6
  2  3  1  0
  2  4  1  0
  3  5  1  0
  4  6  1  1
  4  7  1  0
  4  8  1  0
  5  9  1  1
  5 10  1  0
  6 10  2  0
  8 11  2  0
  7 12  1  0
  9 13  1  0
  9 14  2  0
 12 15  2  0
 11 16  1  0
 12 16  1  0
M  END
