mac-x0159-mac-x0305
     RDKit          3D

 20 22  0  0  0  0  0  0  0  0999 V2000
   28.6220   51.8160   -6.3090 N   0  0  0  0  0  0  0  0  0  0  0  0
   28.5590   50.4520   -5.7970 C   0  0  1  0  0  0  0  0  0  0  0  0
   28.8470   49.3660   -6.8950 C   0  0  1  0  0  0  0  0  0  0  0  0
   29.4660   50.4510   -4.6590 N   0  0  0  0  0  0  0  0  0  0  0  0
   30.0240   49.6570   -7.6420 O   0  0  0  0  0  0  0  0  0  0  0  0
   29.6520   49.1150   -4.0980 C   0  0  0  0  0  0  0  0  0  0  0  0
   28.8650   48.0220   -6.1640 C   0  0  2  0  0  0  0  0  0  0  0  0
   27.8710   49.1210   -7.9310 N   0  0  0  0  0  0  0  0  0  0  0  0
   29.7790   47.9850   -5.0350 N   0  0  0  0  0  0  0  0  0  0  0  0
   29.0290   47.1430   -7.3250 N   0  0  0  0  0  0  0  0  0  0  0  0
   28.2770   47.7920   -8.3910 C   0  0  0  0  0  0  0  0  0  0  0  0
   30.1710   46.6990   -4.6760 C   0  0  0  0  0  0  0  0  0  0  0  0
   31.1480   46.1920   -5.4470 C   0  0  0  0  0  0  0  0  0  0  0  0
   29.5160   45.9610   -3.6060 C   0  0  0  0  0  0  0  0  0  0  0  0
   31.7140   46.8980   -6.4900 O   0  0  0  0  0  0  0  0  0  0  0  0
   29.0880   44.6580   -3.7340 C   0  0  0  0  0  0  0  0  0  0  0  0
   29.2620   46.5370   -2.3610 N   0  0  0  0  0  0  0  0  0  0  0  0
   28.6450   45.6590   -1.5840 C   0  0  0  0  0  0  0  0  0  0  0  0
   28.3460   44.1240   -2.2890 S   0  0  0  0  0  0  0  0  0  0  0  0
   28.2040   45.9170   -0.1860 C   0  0  0  0  0  0  0  0  0  0  0  0
  2  1  1  6
  2  3  1  0
  2  4  1  0
  3  5  1  6
  4  6  1  0
  3  7  1  0
  3  8  1  0
  6  9  1  0
  7  9  1  0
  7 10  1  6
  8 11  1  0
 10 11  1  0
  9 12  1  0
 12 13  2  3
 12 14  1  0
 13 15  1  0
 14 16  2  0
 14 17  1  0
 17 18  2  0
 16 19  1  0
 18 19  1  0
 18 20  1  0
M  END
