mac-x0404-mac-x0263
     RDKit          3D

 32 35  0  0  0  0  0  0  0  0999 V2000
   31.5740   45.7790   -6.5060 O   0  0  0  0  0  0  0  0  0  0  0  0
   32.7470   45.5450   -5.8810 C   0  0  0  0  0  0  0  0  0  0  0  0
   33.7630   46.1130   -6.2560 O   0  0  0  0  0  0  0  0  0  0  0  0
   32.6750   44.5470   -4.7270 C   0  0  0  0  0  0  0  0  0  0  0  0
   31.4860   44.5470   -3.9400 O   0  0  0  0  0  0  0  0  0  0  0  0
   31.1040   45.6880   -3.2730 C   0  0  0  0  0  0  0  0  0  0  0  0
   29.8760   45.6200   -2.5630 C   0  0  0  0  0  0  0  0  0  0  0  0
   31.8430   46.8670   -3.2670 C   0  0  0  0  0  0  0  0  0  0  0  0
   29.3970   46.7610   -1.8580 C   0  0  0  0  0  0  0  0  0  0  0  0
   31.3790   47.9850   -2.5860 C   0  0  0  0  0  0  0  0  0  0  0  0
   29.1050   44.4330   -2.5410 C   0  0  0  0  0  0  0  0  0  0  0  0
   30.1650   47.9630   -1.8860 C   0  0  0  0  0  0  0  0  0  0  0  0
   28.1700   46.6410   -1.1640 C   0  0  0  0  0  0  0  0  0  0  0  0
   27.9000   44.3500   -1.8490 C   0  0  0  0  0  0  0  0  0  0  0  0
   29.7480   49.2590   -1.2050 C   0  0  0  0  0  0  0  0  0  0  0  0
   27.4310   45.4540   -1.1580 C   0  0  0  0  0  0  0  0  0  0  0  0
   29.5450   50.4500   -2.1860 C   0  0  0  0  0  0  0  0  0  0  0  0
   28.4500   50.2340   -3.2580 C   0  0  0  0  0  0  0  0  0  0  0  0
   28.3450   51.3660   -4.2890 C   0  0  0  0  0  0  0  0  0  0  0  0
   28.5260   52.7100   -3.8940 C   0  0  0  0  0  0  0  0  0  0  0  0
   28.0660   51.0770   -5.6440 C   0  0  0  0  0  0  0  0  0  0  0  0
   28.4200   53.7000   -4.8840 C   0  0  0  0  0  0  0  0  0  0  0  0
   27.9650   52.0930   -6.6130 C   0  0  0  0  0  0  0  0  0  0  0  0
   28.5370   55.0690   -4.8410 N   0  0  0  0  0  0  0  0  0  0  0  0
   28.1470   53.4280   -6.2190 C   0  0  0  0  0  0  0  0  0  0  0  0
   28.3390   55.5670   -6.1090 C   0  0  0  0  0  0  0  0  0  0  0  0
   28.1020   54.5860   -6.9590 N   0  0  0  0  0  0  0  0  0  0  0  0
   28.3910   57.0290   -6.4180 C   0  0  0  0  0  0  0  0  0  0  0  0
   27.2100   57.7580   -5.7810 C   0  0  0  0  0  0  0  0  0  0  0  0
   26.9730   59.1270   -6.3650 C   0  0  0  0  0  0  0  0  0  0  0  0
   28.0980   59.8630   -6.4750 O   0  0  0  0  0  0  0  0  0  0  0  0
   25.8920   59.5840   -6.7160 O   0  0  0  0  0  0  0  0  0  0  0  0
  1  2  1  0
  2  3  2  0
  2  4  1  0
  4  5  1  0
  5  6  1  0
  6  7  2  0
  6  8  1  0
  7  9  1  0
  8 10  2  0
  7 11  1  0
  9 12  2  0
 10 12  1  0
  9 13  1  0
 11 14  2  0
 12 15  1  0
 13 16  2  0
 14 16  1  0
 15 17  1  0
 17 18  1  0
 18 19  1  0
 19 20  2  0
 19 21  1  0
 20 22  1  0
 21 23  2  0
 22 24  1  0
 22 25  2  0
 23 25  1  0
 24 26  1  0
 25 27  1  0
 26 27  2  0
 26 28  1  0
 28 29  1  0
 29 30  1  0
 30 31  1  0
 30 32  2  0
M  END
