mac-x0398-mac-x0510
     RDKit          3D

 15 16  0  0  0  0  0  0  0  0999 V2000
   28.9350   54.0360   -6.8860 N   0  0  0  0  0  0  0  0  0  0  0  0
   28.8180   52.7870   -6.1260 C   0  0  1  0  0  0  0  0  0  0  0  0
   29.5040   51.5780   -6.8120 C   0  0  0  0  0  0  0  0  0  0  0  0
   29.3640   53.0080   -4.7160 C   0  0  0  0  0  0  0  0  0  0  0  0
   29.2830   51.7390   -3.8660 C   0  0  2  0  0  0  0  0  0  0  0  0
   29.4060   50.2570   -6.0010 C   0  0  2  0  0  0  0  0  0  0  0  0
   29.8740   52.0100   -2.5920 O   0  0  0  0  0  0  0  0  0  0  0  0
   29.9400   50.5290   -4.5510 C   0  0  2  0  0  0  0  0  0  0  0  0
   30.1170   49.1410   -6.7130 N   0  0  0  0  0  0  0  0  0  0  0  0
   27.9800   49.7180   -6.1510 C   0  0  0  0  0  0  0  0  0  0  0  0
   29.9290   49.3490   -3.5980 C   0  0  0  0  0  0  0  0  0  0  0  0
   27.9910   49.1830   -7.5260 N   0  0  0  0  0  0  0  0  0  0  0  0
   29.1790   48.3620   -7.5060 C   0  0  0  0  0  0  0  0  0  0  0  0
   30.0350   49.3980   -2.3830 O   0  0  0  0  0  0  0  0  0  0  0  0
   29.8050   48.1580   -4.2150 O   0  0  0  0  0  0  0  0  0  0  0  0
  2  1  1  6
  2  3  1  0
  2  4  1  0
  4  5  1  0
  6  3  1  6
  5  7  1  1
  5  8  1  0
  6  8  1  0
  6  9  1  0
  6 10  1  0
  8 11  1  1
 10 12  1  0
  9 13  1  0
 12 13  1  0
 11 14  2  0
 11 15  1  0
M  END
