mac-x1493-mac-x0131
     RDKit          3D

 29 33  0  0  0  0  0  0  0  0999 V2000
   29.0930   48.9950   -2.4460 O   0  0  0  0  0  0  0  0  0  0  0  0
   29.9780   49.3570   -3.5090 C   0  0  2  0  0  0  0  0  0  0  0  0
   30.0650   50.8580   -3.6380 C   0  0  0  0  0  0  0  0  0  0  0  0
   29.4290   48.6680   -4.7320 C   0  0  0  0  0  0  0  0  0  0  0  0
   30.3040   51.4840   -4.8680 C   0  0  0  0  0  0  0  0  0  0  0  0
   29.9110   51.6950   -2.5420 C   0  0  0  0  0  0  0  0  0  0  0  0
   28.4800   49.1160   -5.6600 C   0  0  0  0  0  0  0  0  0  0  0  0
   29.8210   47.3980   -5.1300 N   0  0  0  0  0  0  0  0  0  0  0  0
   30.3770   52.8800   -4.9560 C   0  0  0  0  0  0  0  0  0  0  0  0
   29.9750   53.0490   -2.5850 N   0  0  0  0  0  0  0  0  0  0  0  0
   27.7660   50.4270   -5.6560 C   0  0  0  0  0  0  0  0  0  0  0  0
   30.7950   46.5300   -4.4760 C   0  0  0  0  0  0  0  0  0  0  0  0
   28.3070   48.0780   -6.6330 C   0  0  0  0  0  0  0  0  0  0  0  0
   29.1470   47.0380   -6.2740 C   0  0  0  0  0  0  0  0  0  0  0  0
   30.2040   53.6290   -3.7750 C   0  0  0  0  0  0  0  0  0  0  0  0
   30.6140   53.5290   -6.1780 C   0  0  0  0  0  0  0  0  0  0  0  0
   27.5340   47.8830   -7.7910 C   0  0  0  0  0  0  0  0  0  0  0  0
   29.2940   45.8660   -6.9200 N   0  0  0  0  0  0  0  0  0  0  0  0
   32.1680   47.0290   -4.7240 C   0  0  0  0  0  0  0  0  0  0  0  0
   30.2740   55.0100   -3.8590 C   0  0  0  0  0  0  0  0  0  0  0  0
   30.6800   54.9190   -6.2350 C   0  0  0  0  0  0  0  0  0  0  0  0
   26.6400   48.8110   -8.3060 N   0  0  0  0  0  0  0  0  0  0  0  0
   27.6520   46.7210   -8.4710 N   0  0  0  0  0  0  0  0  0  0  0  0
   28.5080   45.7980   -8.0050 C   0  0  0  0  0  0  0  0  0  0  0  0
   32.8250   47.4830   -5.8510 C   0  0  0  0  0  0  0  0  0  0  0  0
   33.0110   47.0740   -3.6470 O   0  0  0  0  0  0  0  0  0  0  0  0
   30.5090   55.6610   -5.0720 C   0  0  0  0  0  0  0  0  0  0  0  0
   34.1980   47.5560   -4.0930 C   0  0  0  0  0  0  0  0  0  0  0  0
   34.1360   47.8230   -5.4410 C   0  0  0  0  0  0  0  0  0  0  0  0
  2  1  1  1
  2  3  1  0
  2  4  1  0
  3  5  2  0
  3  6  1  0
  4  7  2  0
  4  8  1  0
  5  9  1  0
  6 10  2  0
  7 11  1  0
  8 12  1  0
  7 13  1  0
  8 14  1  0
 13 14  2  0
  9 15  2  0
 10 15  1  0
  9 16  1  0
 13 17  1  0
 14 18  1  0
 12 19  1  0
 15 20  1  0
 16 21  2  0
 17 22  1  0
 17 23  2  0
 18 24  2  0
 23 24  1  0
 19 25  2  0
 19 26  1  0
 20 27  2  0
 21 27  1  0
 26 28  1  0
 25 29  1  0
 28 29  2  0
M  END
