mac-x0510-mac-x0193
     RDKit          3D

 27 29  0  0  0  0  0  0  0  0999 V2000
   28.8870   53.1940   -5.7820 O   0  0  0  0  0  0  0  0  0  0  0  0
   28.8930   51.9680   -5.8740 C   0  0  0  0  0  0  0  0  0  0  0  0
   29.3490   51.1760   -4.8410 N   0  0  0  0  0  0  0  0  0  0  0  0
   28.4510   51.3160   -6.9960 N   0  0  0  0  0  0  0  0  0  0  0  0
   28.7310   49.9950   -7.1710 C   0  0  0  0  0  0  0  0  0  0  0  0
   29.4410   49.7980   -4.8480 C   0  0  0  0  0  0  0  0  0  0  0  0
   29.6870   49.1590   -3.8330 O   0  0  0  0  0  0  0  0  0  0  0  0
   29.2180   49.2410   -6.1440 C   0  0  0  0  0  0  0  0  0  0  0  0
   28.5830   49.2920   -8.3170 N   0  0  0  0  0  0  0  0  0  0  0  0
   29.3870   47.9960   -6.6870 N   0  0  0  0  0  0  0  0  0  0  0  0
   28.9860   48.0780   -7.9980 C   0  0  0  0  0  0  0  0  0  0  0  0
   29.8840   46.7910   -6.0570 C   0  0  0  0  0  0  0  0  0  0  0  0
   31.1480   46.2520   -6.7430 C   0  0  0  0  0  0  0  0  0  0  0  0
   31.7290   45.1860   -5.9180 N   0  0  0  0  0  0  0  0  0  0  0  0
   32.9990   45.1470   -5.7260 C   0  0  0  0  0  0  0  0  0  0  0  0
   33.8700   46.0290   -6.2570 O   0  0  0  0  0  0  0  0  0  0  0  0
   33.6010   44.0670   -4.8470 C   0  0  0  0  0  0  0  0  0  0  0  0
   34.4980   44.5850   -3.8180 N   0  0  0  0  0  0  0  0  0  0  0  0
   35.0660   43.7000   -2.9270 C   0  0  0  0  0  0  0  0  0  0  0  0
   34.6460   42.5710   -2.7370 O   0  0  0  0  0  0  0  0  0  0  0  0
   36.1440   44.2790   -2.3020 N   0  0  0  0  0  0  0  0  0  0  0  0
   37.3060   43.5420   -1.8020 C   0  0  0  0  0  0  0  0  0  0  0  0
   37.6150   42.2800   -2.6200 C   0  0  0  0  0  0  0  0  0  0  0  0
   37.1580   43.2370   -0.3130 C   0  0  0  0  0  0  0  0  0  0  0  0
   38.7820   41.4590   -2.0580 C   0  0  0  0  0  0  0  0  0  0  0  0
   38.3500   42.4500    0.2370 C   0  0  0  0  0  0  0  0  0  0  0  0
   39.3990   42.0970   -0.8190 C   0  0  0  0  0  0  0  0  0  0  0  0
  1  2  2  0
  2  3  1  0
  2  4  1  0
  4  5  1  0
  3  6  1  0
  6  7  2  0
  5  8  2  0
  6  8  1  0
  5  9  1  0
  8 10  1  0
  9 11  2  0
 10 11  1  0
 10 12  1  0
 12 13  1  0
 13 14  1  0
 14 15  2  3
 15 16  1  0
 15 17  1  0
 17 18  1  0
 18 19  1  0
 19 20  2  0
 19 21  1  0
 21 22  1  0
 22 23  1  0
 22 24  1  0
 23 25  1  0
 24 26  1  0
 25 27  1  0
 26 27  1  0
M  END
