mac-x0412-mac-x0204
     RDKit          3D

 23 25  0  0  0  0  0  0  0  0999 V2000
   30.6660   53.7260   -3.9260 O   0  0  0  0  0  0  0  0  0  0  0  0
   29.7180   53.5010   -4.6770 C   0  0  0  0  0  0  0  0  0  0  0  0
   29.3560   54.3970   -5.6670 N   0  0  0  0  0  0  0  0  0  0  0  0
   28.8720   52.2060   -4.5770 C   0  0  1  0  0  0  0  0  0  0  0  0
   28.6640   51.6540   -5.9820 C   0  0  0  0  0  0  0  0  0  0  0  0
   28.8660   53.9000   -6.7530 C   0  0  0  0  0  0  0  0  0  0  0  0
   29.4490   51.1770   -3.6340 C   0  0  0  0  0  0  0  0  0  0  0  0
   28.6590   52.4710   -7.0430 C   0  0  0  0  0  0  0  0  0  0  0  0
   28.4740   50.2220   -6.1170 C   0  0  0  0  0  0  0  0  0  0  0  0
   29.4230   49.8620   -3.9070 C   0  0  0  0  0  0  0  0  0  0  0  0
   28.8300   49.3660   -5.1400 C   0  0  0  0  0  0  0  0  0  0  0  0
   28.6380   47.8770   -5.2700 C   0  0  0  0  0  0  0  0  0  0  0  0
   29.7180   47.1610   -6.0980 C   0  0  0  0  0  0  0  0  0  0  0  0
   30.7490   46.3420   -5.2950 C   0  0  0  0  0  0  0  0  0  0  0  0
   31.8380   46.0100   -6.1430 O   0  0  0  0  0  0  0  0  0  0  0  0
   30.1510   45.0870   -4.9840 O   0  0  0  0  0  0  0  0  0  0  0  0
   31.2360   46.9680   -4.0070 C   0  0  0  0  0  0  0  0  0  0  0  0
   30.5050   46.9130   -2.8110 C   0  0  0  0  0  0  0  0  0  0  0  0
   32.4580   47.6410   -3.9550 C   0  0  0  0  0  0  0  0  0  0  0  0
   31.0050   47.5080   -1.6590 C   0  0  0  0  0  0  0  0  0  0  0  0
   32.9730   48.2320   -2.8470 N   0  0  0  0  0  0  0  0  0  0  0  0
   30.2680   47.4330   -0.5170 O   0  0  0  0  0  0  0  0  0  0  0  0
   32.2290   48.1510   -1.7220 C   0  0  0  0  0  0  0  0  0  0  0  0
  1  2  2  0
  2  3  1  0
  2  4  1  0
  4  5  1  0
  3  6  2  0
  4  7  1  1
  5  8  2  0
  6  8  1  0
  5  9  1  0
  7 10  2  0
  9 11  2  0
 10 11  1  0
 11 12  1  0
 12 13  1  0
 13 14  1  0
 14 15  1  0
 14 16  1  0
 14 17  1  0
 17 18  2  0
 17 19  1  0
 18 20  1  0
 19 21  2  0
 20 22  1  0
 20 23  2  0
 21 23  1  0
M  END
