mac-x0284-mac-x0142
     RDKit          3D

 24 27  0  0  0  0  0  0  0  0999 V2000
   27.3940   50.3790   -5.0170 C   0  0  0  0  0  0  0  0  0  0  0  0
   28.9030   50.1760   -4.8270 C   0  0  1  0  0  0  0  0  0  0  0  0
   29.2880   50.1200   -3.3740 C   0  0  0  0  0  0  0  0  0  0  0  0
   29.6000   49.0120   -5.6480 C   0  0  2  0  0  0  0  0  0  0  0  0
   31.2000   49.1470   -5.4380 C   0  0  2  0  0  0  0  0  0  0  0  0
   30.5830   49.9780   -3.0510 C   0  0  0  0  0  0  0  0  0  0  0  0
   29.3790   49.3670   -7.1750 C   0  0  0  0  0  0  0  0  0  0  0  0
   28.8630   47.5860   -5.4070 C   0  0  2  0  0  0  0  0  0  0  0  0
   32.1540   47.9910   -5.7570 C   0  0  0  0  0  0  0  0  0  0  0  0
   31.6210   49.8870   -4.1290 C   0  0  1  0  0  0  0  0  0  0  0  0
   29.3870   46.6830   -4.3650 N   0  0  0  0  0  0  0  0  0  0  0  0
   28.8460   46.9350   -6.7310 N   0  0  0  0  0  0  0  0  0  0  0  0
   28.0370   49.0160   -7.6090 N   0  0  0  0  0  0  0  0  0  0  0  0
   32.8440   49.4450   -3.5580 O   0  0  0  0  0  0  0  0  0  0  0  0
   32.1260   47.3110   -6.7780 O   0  0  0  0  0  0  0  0  0  0  0  0
   33.0910   47.7740   -4.8000 O   0  0  0  0  0  0  0  0  0  0  0  0
   30.1800   47.1380   -3.2150 C   0  0  0  0  0  0  0  0  0  0  0  0
   29.5150   45.2450   -4.6680 C   0  0  0  0  0  0  0  0  0  0  0  0
   27.8570   47.5790   -7.5970 C   0  0  0  0  0  0  0  0  0  0  0  0
   30.8760   44.6700   -4.3330 C   0  0  0  0  0  0  0  0  0  0  0  0
   30.4840   46.0010   -2.2410 C   0  0  0  0  0  0  0  0  0  0  0  0
   31.2700   43.3520   -4.9750 C   0  0  0  0  0  0  0  0  0  0  0  0
   31.9300   44.6220   -5.4220 C   0  0  0  0  0  0  0  0  0  0  0  0
   31.3460   44.9400   -2.9190 C   0  0  0  0  0  0  0  0  0  0  0  0
  2  1  1  1
  2  3  1  0
  2  4  1  0
  4  5  1  0
  3  6  2  0
  4  7  1  6
  4  8  1  0
  5  9  1  1
  5 10  1  0
  6 10  1  0
  8 11  1  1
  8 12  1  0
  7 13  1  0
 10 14  1  1
  9 15  2  0
  9 16  1  0
 11 17  1  0
 11 18  1  0
 12 19  1  0
 13 19  1  0
 20 18  1  0
 17 21  1  0
 20 22  1  0
 20 23  1  0
 22 23  1  0
 20 24  1  0
 21 24  1  0
M  END
