mac-x0439-mac-x0305
     RDKit          3D

 22 24  0  0  0  0  0  0  0  0999 V2000
   30.5530   47.3300   -1.6500 Cl  0  0  0  0  0  0  0  0  0  0  0  0
   29.6830   45.8560   -1.8560 C   0  0  0  0  0  0  0  0  0  0  0  0
   30.1910   44.8450   -2.8310 C   0  0  2  0  0  0  0  0  0  0  0  0
   28.5630   45.6000   -1.1550 C   0  0  0  0  0  0  0  0  0  0  0  0
   30.7540   45.2410   -4.1430 C   0  0  0  0  0  0  0  0  0  0  0  0
   28.9750   44.1400   -3.3960 C   0  0  0  0  0  0  0  0  0  0  0  0
   27.8440   44.3440   -1.3420 C   0  0  0  0  0  0  0  0  0  0  0  0
   29.9680   44.7870   -5.1290 C   0  0  0  0  0  0  0  0  0  0  0  0
   28.8650   44.0880   -4.6840 N   0  0  0  0  0  0  0  0  0  0  0  0
   28.0140   43.5810   -2.4360 C   0  0  0  0  0  0  0  0  0  0  0  0
   30.2410   45.0430   -6.5690 C   0  0  0  0  0  0  0  0  0  0  0  0
   29.9480   43.9760   -7.3480 O   0  0  0  0  0  0  0  0  0  0  0  0
   30.6910   46.0920   -7.1550 N   0  0  0  0  0  0  0  0  0  0  0  0
   30.9990   47.1190   -6.2650 C   0  0  0  0  0  0  0  0  0  0  0  0
   32.0290   47.0240   -5.6180 O   0  0  0  0  0  0  0  0  0  0  0  0
   30.0920   48.3420   -6.0610 C   0  0  0  0  0  0  0  0  0  0  0  0
   29.2500   48.9070   -7.0260 C   0  0  0  0  0  0  0  0  0  0  0  0
   30.1810   48.8730   -4.7930 N   0  0  0  0  0  0  0  0  0  0  0  0
   29.1280   48.4200   -8.2930 O   0  0  0  0  0  0  0  0  0  0  0  0
   28.4940   50.0340   -6.6750 C   0  0  0  0  0  0  0  0  0  0  0  0
   29.4400   49.9560   -4.4920 C   0  0  0  0  0  0  0  0  0  0  0  0
   28.5900   50.5680   -5.3910 C   0  0  0  0  0  0  0  0  0  0  0  0
  1  2  1  0
  2  3  1  0
  2  4  2  0
  3  5  1  6
  3  6  1  0
  4  7  1  0
  5  8  2  0
  6  9  2  0
  8  9  1  0
  6 10  1  0
  7 10  2  0
  8 11  1  0
 11 12  1  0
 11 13  2  3
 13 14  1  0
 14 15  2  0
 14 16  1  0
 16 17  2  0
 16 18  1  0
 17 19  1  0
 17 20  1  0
 18 21  2  0
 20 22  2  0
 21 22  1  0
M  END
