mac-x0402-mac-x0546
     RDKit          3D

 28 31  0  0  0  0  0  0  0  0999 V2000
   29.8290   48.2040   -5.3080 Cl  0  0  0  0  0  0  0  0  0  0  0  0
   29.5790   49.9100   -5.1980 C   0  0  0  0  0  0  0  0  0  0  0  0
   29.8390   50.6270   -4.0170 C   0  0  0  0  0  0  0  0  0  0  0  0
   29.1010   50.5450   -6.3530 C   0  0  0  0  0  0  0  0  0  0  0  0
   30.3560   49.9810   -2.7470 C   0  0  0  0  0  0  0  0  0  0  0  0
   28.8820   51.9290   -6.3120 C   0  0  0  0  0  0  0  0  0  0  0  0
   29.6080   52.0180   -4.0100 C   0  0  0  0  0  0  0  0  0  0  0  0
   29.2380   49.3960   -1.8780 C   0  0  0  0  0  0  0  0  0  0  0  0
   29.1270   52.6800   -5.1600 C   0  0  0  0  0  0  0  0  0  0  0  0
   28.3080   52.9780   -7.5480 S   0  0  0  0  0  0  0  0  0  0  0  0
   29.7830   48.4110   -0.9190 N   0  0  0  0  0  0  0  0  0  0  0  0
   28.4310   54.3120   -6.4770 C   0  0  0  0  0  0  0  0  0  0  0  0
   28.8640   54.0340   -5.2740 N   0  0  0  0  0  0  0  0  0  0  0  0
   28.0990   55.5520   -6.8670 N   0  0  0  0  0  0  0  0  0  0  0  0
   30.3240   49.0270    0.3030 C   0  0  0  0  0  0  0  0  0  0  0  0
   30.0330   47.0650   -1.2340 C   0  0  0  0  0  0  0  0  0  0  0  0
   31.0840   46.6600   -1.9950 C   0  0  0  0  0  0  0  0  0  0  0  0
   29.1310   46.0090   -0.7320 C   0  0  0  0  0  0  0  0  0  0  0  0
   31.3130   45.2170   -2.3010 C   0  0  1  0  0  0  0  0  0  0  0  0
   29.0480   44.7760   -1.2680 C   0  0  0  0  0  0  0  0  0  0  0  0
   29.9440   44.5790   -2.4080 C   0  0  0  0  0  0  0  0  0  0  0  0
   31.7860   44.7740   -3.6580 C   0  0  0  0  0  0  0  0  0  0  0  0
   33.1350   45.1120   -4.2040 C   0  0  0  0  0  0  0  0  0  0  0  0
   29.6780   43.9210   -3.4960 N   0  0  0  0  0  0  0  0  0  0  0  0
   30.8190   44.0560   -4.2490 C   0  0  0  0  0  0  0  0  0  0  0  0
   33.5710   44.2410   -5.3730 C   0  0  0  0  0  0  0  0  0  0  0  0
   33.1810   43.0960   -5.5430 O   0  0  0  0  0  0  0  0  0  0  0  0
   34.4360   44.8340   -6.2270 O   0  0  0  0  0  0  0  0  0  0  0  0
  1  2  1  0
  2  3  2  0
  2  4  1  0
  3  5  1  0
  4  6  2  0
  3  7  1  0
  5  8  1  0
  6  9  1  0
  7  9  2  0
  6 10  1  0
  8 11  1  0
 10 12  1  0
  9 13  1  0
 12 13  2  0
 12 14  1  0
 11 15  1  0
 11 16  1  0
 16 17  2  0
 16 18  1  0
 19 17  1  6
 18 20  2  0
 19 21  1  0
 20 21  1  0
 19 22  1  0
 22 23  1  0
 21 24  2  0
 22 25  2  0
 24 25  1  0
 23 26  1  0
 26 27  2  0
 26 28  1  0
M  END
