mac-x0224-mac-x0212
     RDKit          3D

 17 18  0  0  0  0  0  0  0  0999 V2000
   28.1870   52.5920   -5.6830 C   0  0  0  0  0  0  0  0  0  0  0  0
   28.6570   51.1790   -6.7530 S   0  0  0  0  0  0  0  0  0  0  0  0
   29.3300   50.0540   -5.5480 C   0  0  0  0  0  0  0  0  0  0  0  0
   29.3040   54.0020   -5.4950 S   0  0  0  0  0  0  0  0  0  0  0  0
   30.6860   53.6060   -6.5370 C   0  0  0  0  0  0  0  0  0  0  0  0
   28.6840   55.1850   -6.0600 O   0  0  0  0  0  0  0  0  0  0  0  0
   29.8010   54.0300   -4.1310 O   0  0  0  0  0  0  0  0  0  0  0  0
   29.6230   48.7450   -5.9420 C   0  0  0  0  0  0  0  0  0  0  0  0
   29.5760   50.4710   -4.2220 C   0  0  0  0  0  0  0  0  0  0  0  0
   30.1600   47.8860   -5.0030 C   0  0  0  0  0  0  0  0  0  0  0  0
   30.1190   49.5880   -3.2830 C   0  0  0  0  0  0  0  0  0  0  0  0
   30.5780   46.4710   -5.1170 C   0  0  0  0  0  0  0  0  0  0  0  0
   30.4030   48.3110   -3.7040 C   0  0  0  0  0  0  0  0  0  0  0  0
   30.9490   47.3300   -2.9260 O   0  0  0  0  0  0  0  0  0  0  0  0
   31.0790   46.1470   -6.3890 O   0  0  0  0  0  0  0  0  0  0  0  0
   29.5700   45.5570   -4.7930 O   0  0  0  0  0  0  0  0  0  0  0  0
   31.5920   46.5550   -3.9740 C   0  0  0  0  0  0  0  0  0  0  0  0
  1  2  1  0
  2  3  1  0
  4  1  1  0
  4  5  1  0
  4  6  2  0
  4  7  2  0
  3  8  2  0
  3  9  1  0
  8 10  1  0
  9 11  2  0
 10 12  1  0
 10 13  2  0
 11 13  1  0
 13 14  1  0
 12 15  1  0
 12 16  1  0
 12 17  1  0
 14 17  1  0
M  END
