mac-x0302-mac-x0358
     RDKit          3D

 22 23  0  0  0  0  0  0  0  0999 V2000
   31.8480   45.5080   -4.4580 O   0  0  0  0  0  0  0  0  0  0  0  0
   31.4570   46.2940   -5.6080 C   0  0  0  0  0  0  0  0  0  0  0  0
   30.3230   45.8490   -6.3290 O   0  0  0  0  0  0  0  0  0  0  0  0
   32.0270   46.2100   -3.2990 C   0  0  0  0  0  0  0  0  0  0  0  0
   31.2060   47.7740   -5.1490 C   0  0  0  0  0  0  0  0  0  0  0  0
   32.5220   46.2540   -6.5600 O   0  0  0  0  0  0  0  0  0  0  0  0
   33.2850   46.6740   -2.8840 C   0  0  0  0  0  0  0  0  0  0  0  0
   30.8960   46.4610   -2.5170 C   0  0  0  0  0  0  0  0  0  0  0  0
   29.8510   48.0050   -4.6380 N   0  0  0  0  0  0  0  0  0  0  0  0
   34.3930   46.4270   -3.6520 O   0  0  0  0  0  0  0  0  0  0  0  0
   33.4110   47.3900   -1.6920 C   0  0  0  0  0  0  0  0  0  0  0  0
   31.0230   47.1800   -1.3180 C   0  0  0  0  0  0  0  0  0  0  0  0
   29.5320   49.0940   -3.8450 C   0  0  0  0  0  0  0  0  0  0  0  0
   32.2780   47.6430   -0.9070 C   0  0  0  0  0  0  0  0  0  0  0  0
   29.3910   49.0290   -2.6230 O   0  0  0  0  0  0  0  0  0  0  0  0
   29.3530   50.3950   -4.5410 C   0  0  0  0  0  0  0  0  0  0  0  0
   29.6120   51.5770   -3.8240 C   0  0  0  0  0  0  0  0  0  0  0  0
   28.9380   50.4660   -5.8790 C   0  0  0  0  0  0  0  0  0  0  0  0
   29.4500   52.8090   -4.4510 C   0  0  0  0  0  0  0  0  0  0  0  0
   28.7800   51.7100   -6.4960 C   0  0  0  0  0  0  0  0  0  0  0  0
   29.6900   53.9810   -3.7890 O   0  0  0  0  0  0  0  0  0  0  0  0
   29.0370   52.8850   -5.7800 C   0  0  0  0  0  0  0  0  0  0  0  0
  2  1  1  0
  2  3  1  0
  1  4  1  0
  2  5  1  0
  2  6  1  0
  4  7  2  0
  4  8  1  0
  5  9  1  0
  7 10  1  0
  7 11  1  0
  8 12  2  0
  9 13  1  0
 11 14  2  0
 12 14  1  0
 13 15  2  0
 13 16  1  0
 16 17  2  0
 16 18  1  0
 17 19  1  0
 18 20  2  0
 19 21  1  0
 19 22  2  0
 20 22  1  0
M  END
