mac-x0584-mac-x0277
     RDKit          3D

 24 27  0  0  0  0  0  0  0  0999 V2000
   29.2660   45.2560   -1.4260 Cl  0  0  0  0  0  0  0  0  0  0  0  0
   30.3470   46.4530   -2.2030 C   0  0  1  0  0  0  0  0  0  0  0  0
   31.2240   45.8690   -3.3300 C   0  0  1  0  0  0  0  0  0  0  0  0
   29.6420   47.6290   -2.9180 C   0  0  2  0  0  0  0  0  0  0  0  0
   27.9560   47.3280   -3.3500 Cl  0  0  0  0  0  0  0  0  0  0  0  0
   30.6180   44.6990   -4.1180 C   0  0  0  0  0  0  0  0  0  0  0  0
   31.6950   47.1300   -4.1020 C   0  0  2  0  0  0  0  0  0  0  0  0
   30.4710   47.9880   -4.1040 N   0  0  0  0  0  0  0  0  0  0  0  0
   31.6030   43.6680   -4.6270 C   0  0  0  0  0  0  0  0  0  0  0  0
   32.2270   46.9120   -5.5330 C   0  0  0  0  0  0  0  0  0  0  0  0
   29.8550   48.3970   -5.3020 C   0  0  0  0  0  0  0  0  0  0  0  0
   32.8120   43.6850   -4.0360 O   0  0  0  0  0  0  0  0  0  0  0  0
   31.3730   42.8520   -5.5070 O   0  0  0  0  0  0  0  0  0  0  0  0
   33.3400   45.8340   -5.7310 C   0  0  0  0  0  0  0  0  0  0  0  0
   33.2860   47.9360   -6.0530 C   0  0  0  0  0  0  0  0  0  0  0  0
   29.3460   47.4980   -6.2240 N   0  0  0  0  0  0  0  0  0  0  0  0
   29.7160   49.6910   -5.6360 C   0  0  0  0  0  0  0  0  0  0  0  0
   34.0180   46.7740   -6.7390 C   0  0  0  0  0  0  0  0  0  0  0  0
   28.7590   47.9050   -7.3930 C   0  0  0  0  0  0  0  0  0  0  0  0
   29.0630   50.0660   -6.9140 C   0  0  0  0  0  0  0  0  0  0  0  0
   30.0510   50.9530   -5.0600 C   0  0  0  0  0  0  0  0  0  0  0  0
   28.5890   49.1240   -7.7830 N   0  0  0  0  0  0  0  0  0  0  0  0
   29.0040   51.3600   -7.0830 N   0  0  0  0  0  0  0  0  0  0  0  0
   29.6130   51.8690   -5.9400 C   0  0  0  0  0  0  0  0  0  0  0  0
  2  1  1  6
  2  3  1  0
  2  4  1  0
  4  5  1  6
  3  6  1  6
  3  7  1  0
  4  8  1  0
  7  8  1  0
  6  9  1  0
  7 10  1  6
  8 11  1  0
  9 12  1  0
  9 13  2  0
 10 14  1  0
 10 15  1  0
 11 16  1  0
 11 17  2  0
 14 18  1  0
 15 18  1  0
 16 19  1  0
 17 20  1  0
 17 21  1  0
 19 22  2  0
 20 22  1  0
 20 23  2  0
 21 24  2  0
 23 24  1  0
M  END
