mac-x0344-mac-x0387
     RDKit          3D

 24 26  0  0  0  0  0  0  0  0999 V2000
   31.9420   43.5240   -4.1330 O   0  0  0  0  0  0  0  0  0  0  0  0
   32.2260   44.6260   -4.8310 C   0  0  0  0  0  0  0  0  0  0  0  0
   31.2720   45.2030   -5.4710 N   0  0  0  0  0  0  0  0  0  0  0  0
   33.6990   45.0210   -4.7440 C   0  0  0  0  0  0  0  0  0  0  0  0
   34.3790   44.9590   -5.7590 O   0  0  0  0  0  0  0  0  0  0  0  0
   34.0500   45.4090   -3.4660 N   0  0  0  0  0  0  0  0  0  0  0  0
   31.6290   46.4170   -6.2320 C   0  0  0  0  0  0  0  0  0  0  0  0
   35.1660   46.1700   -3.0720 C   0  0  0  0  0  0  0  0  0  0  0  0
   30.8190   47.6460   -5.8480 C   0  0  0  0  0  0  0  0  0  0  0  0
   36.3120   45.6230   -2.4910 C   0  0  0  0  0  0  0  0  0  0  0  0
   35.1080   47.5550   -3.2820 C   0  0  0  0  0  0  0  0  0  0  0  0
   29.8880   48.2870   -6.7250 C   0  0  0  0  0  0  0  0  0  0  0  0
   31.0200   48.1610   -4.5510 C   0  0  0  0  0  0  0  0  0  0  0  0
   37.3820   46.4470   -2.1260 C   0  0  0  0  0  0  0  0  0  0  0  0
   36.1760   48.3770   -2.9160 C   0  0  0  0  0  0  0  0  0  0  0  0
   29.1800   49.4310   -6.2720 C   0  0  0  0  0  0  0  0  0  0  0  0
   29.6170   47.8510   -8.0380 C   0  0  0  0  0  0  0  0  0  0  0  0
   30.3280   49.2790   -4.1110 C   0  0  0  0  0  0  0  0  0  0  0  0
   37.3150   47.8220   -2.3370 C   0  0  0  0  0  0  0  0  0  0  0  0
   28.2610   50.0500   -7.1600 C   0  0  0  0  0  0  0  0  0  0  0  0
   28.6990   48.5320   -8.8180 C   0  0  0  0  0  0  0  0  0  0  0  0
   29.4200   49.9050   -4.9600 C   0  0  0  0  0  0  0  0  0  0  0  0
   27.5250   51.1860   -6.7760 N   0  0  0  0  0  0  0  0  0  0  0  0
   28.0220   49.6140   -8.4070 N   0  0  0  0  0  0  0  0  0  0  0  0
  1  2  1  0
  2  3  2  3
  2  4  1  0
  4  5  2  0
  4  6  1  0
  3  7  1  0
  6  8  1  0
  7  9  1  0
  8 10  2  0
  8 11  1  0
  9 12  1  0
  9 13  2  0
 10 14  1  0
 11 15  2  0
 12 16  2  0
 12 17  1  0
 13 18  1  0
 14 19  2  0
 15 19  1  0
 16 20  1  0
 17 21  2  0
 16 22  1  0
 18 22  2  0
 20 23  1  0
 20 24  2  0
 21 24  1  0
M  END
