mac-x0412-mac-x0472
     RDKit          3D

 25 28  0  0  0  0  0  0  0  0999 V2000
   28.7340   54.9730   -3.0480 O   0  0  0  0  0  0  0  0  0  0  0  0
   29.1160   54.6380   -4.1630 C   0  0  0  0  0  0  0  0  0  0  0  0
   28.9070   55.4480   -5.2700 N   0  0  0  0  0  0  0  0  0  0  0  0
   29.8590   53.2960   -4.3840 C   0  0  2  0  0  0  0  0  0  0  0  0
   29.4440   52.7190   -5.7150 C   0  0  0  0  0  0  0  0  0  0  0  0
   28.8360   54.8920   -6.4300 C   0  0  0  0  0  0  0  0  0  0  0  0
   29.6600   52.2950   -3.2610 C   0  0  0  0  0  0  0  0  0  0  0  0
   28.9530   53.4610   -6.7090 C   0  0  0  0  0  0  0  0  0  0  0  0
   29.5930   51.3120   -5.8820 C   0  0  0  0  0  0  0  0  0  0  0  0
   29.5650   50.9710   -3.4950 C   0  0  0  0  0  0  0  0  0  0  0  0
   29.6500   50.4490   -4.8590 C   0  0  0  0  0  0  0  0  0  0  0  0
   29.7670   49.1100   -5.1550 N   0  0  0  0  0  0  0  0  0  0  0  0
   31.2210   48.3870   -4.5360 S   0  0  0  0  0  0  0  0  0  0  0  0
   29.2700   48.9140   -6.4230 C   0  0  0  0  0  0  0  0  0  0  0  0
   31.2040   48.2450   -3.0460 O   0  0  0  0  0  0  0  0  0  0  0  0
   29.8060   48.1760   -7.3880 N   0  0  0  0  0  0  0  0  0  0  0  0
   27.8010   49.6770   -6.9750 S   0  0  0  0  0  0  0  0  0  0  0  0
   32.3660   49.7570   -4.9190 C   0  0  0  0  0  0  0  0  0  0  0  0
   28.0250   48.9440   -8.4830 C   0  0  0  0  0  0  0  0  0  0  0  0
   29.0910   48.1940   -8.5690 N   0  0  0  0  0  0  0  0  0  0  0  0
   33.4690   49.5250   -5.7470 C   0  0  0  0  0  0  0  0  0  0  0  0
   32.1720   51.0450   -4.4010 C   0  0  0  0  0  0  0  0  0  0  0  0
   34.3590   50.5620   -6.0510 C   0  0  0  0  0  0  0  0  0  0  0  0
   33.0610   52.0820   -4.7070 C   0  0  0  0  0  0  0  0  0  0  0  0
   34.1530   51.8340   -5.5330 C   0  0  0  0  0  0  0  0  0  0  0  0
  1  2  2  0
  2  3  1  0
  2  4  1  0
  4  5  1  0
  3  6  2  0
  4  7  1  1
  5  8  2  0
  6  8  1  0
  5  9  1  0
  7 10  2  0
  9 11  2  0
 10 11  1  0
 11 12  1  0
 13 12  1  1
 12 14  1  0
 13 15  2  0
 14 16  2  0
 14 17  1  0
 13 18  1  0
 17 19  1  0
 16 20  1  0
 19 20  2  0
 18 21  2  0
 18 22  1  0
 21 23  1  0
 22 24  2  0
 23 25  2  0
 24 25  1  0
M  END
