mac-x0412-mac-x0131
     RDKit          3D

 24 27  0  0  0  0  0  0  0  0999 V2000
   30.6720   53.5910   -3.6530 O   0  0  0  0  0  0  0  0  0  0  0  0
   30.2240   53.1230   -4.6960 C   0  0  0  0  0  0  0  0  0  0  0  0
   30.3710   53.7900   -5.8870 N   0  0  0  0  0  0  0  0  0  0  0  0
   29.4720   51.7900   -4.8080 C   0  0  1  0  0  0  0  0  0  0  0  0
   30.0100   50.9610   -6.0200 C   0  0  2  0  0  0  0  0  0  0  0  0
   30.1900   53.2110   -7.1090 C   0  0  0  0  0  0  0  0  0  0  0  0
   29.4320   51.0260   -3.4860 C   0  0  0  0  0  0  0  0  0  0  0  0
   30.0170   51.8860   -7.2260 C   0  0  0  0  0  0  0  0  0  0  0  0
   29.3200   49.5310   -6.1290 C   0  0  1  0  0  0  0  0  0  0  0  0
   30.1830   49.7060   -3.5840 C   0  0  1  0  0  0  0  0  0  0  0  0
   30.1930   49.0160   -2.2110 C   0  0  0  0  0  0  0  0  0  0  0  0
   29.6040   48.7740   -4.7100 C   0  0  2  0  0  0  0  0  0  0  0  0
   27.7830   49.5610   -6.4840 C   0  0  2  0  0  0  0  0  0  0  0  0
   30.0010   48.7350   -7.3080 C   0  0  0  0  0  0  0  0  0  0  0  0
   30.3960   47.4220   -4.7550 C   0  0  0  0  0  0  0  0  0  0  0  0
   26.8700   49.8500   -5.3940 N   0  0  0  0  0  0  0  0  0  0  0  0
   27.2540   48.3090   -6.9860 N   0  0  0  0  0  0  0  0  0  0  0  0
   29.3210   47.5060   -7.7460 N   0  0  0  0  0  0  0  0  0  0  0  0
   31.8810   47.5040   -4.6330 C   0  0  0  0  0  0  0  0  0  0  0  0
   27.9510   47.7320   -8.1100 C   0  0  0  0  0  0  0  0  0  0  0  0
   32.9420   46.9540   -5.3220 C   0  0  0  0  0  0  0  0  0  0  0  0
   32.3580   48.2900   -3.6230 O   0  0  0  0  0  0  0  0  0  0  0  0
   33.7100   48.2410   -3.6720 C   0  0  0  0  0  0  0  0  0  0  0  0
   34.1220   47.4300   -4.7010 C   0  0  0  0  0  0  0  0  0  0  0  0
  1  2  2  0
  2  3  1  0
  2  4  1  0
  4  5  1  0
  3  6  1  0
  4  7  1  1
  5  8  1  6
  6  8  2  0
  5  9  1  0
  7 10  1  0
 10 11  1  1
  9 12  1  0
 10 12  1  0
  9 13  1  0
  9 14  1  6
 12 15  1  6
 13 16  1  1
 13 17  1  0
 14 18  1  0
 15 19  1  0
 17 20  1  0
 18 20  1  0
 19 21  2  0
 19 22  1  0
 22 23  1  0
 21 24  1  0
 23 24  2  0
M  END
