mac-x0394-mac-x0321
     RDKit          3D

 21 22  0  0  0  0  0  0  0  0999 V2000
   23.8730   49.9300   -3.6080 Cl  0  0  0  0  0  0  0  0  0  0  0  0
   24.9030   51.2420   -4.0270 C   0  0  0  0  0  0  0  0  0  0  0  0
   25.0720   52.3050   -3.1470 C   0  0  0  0  0  0  0  0  0  0  0  0
   25.5530   51.2240   -5.2520 C   0  0  0  0  0  0  0  0  0  0  0  0
   26.3840   52.2850   -5.6140 C   0  0  0  0  0  0  0  0  0  0  0  0
   25.9070   53.3600   -3.5070 C   0  0  0  0  0  0  0  0  0  0  0  0
   26.1270   54.6890   -2.4390 Cl  0  0  0  0  0  0  0  0  0  0  0  0
   27.0660   52.2750   -6.9460 C   0  0  0  0  0  0  0  0  0  0  0  0
   26.5620   53.3530   -4.7320 C   0  0  0  0  0  0  0  0  0  0  0  0
   28.5820   52.2130   -6.9360 C   0  0  0  0  0  0  0  0  0  0  0  0
   29.1610   53.4900   -7.1290 O   0  0  0  0  0  0  0  0  0  0  0  0
   28.9000   51.5250   -8.1260 O   0  0  0  0  0  0  0  0  0  0  0  0
   29.0950   51.5190   -5.6620 C   0  0  0  0  0  0  0  0  0  0  0  0
   29.5140   50.1650   -5.6290 C   0  0  0  0  0  0  0  0  0  0  0  0
   29.1550   52.2500   -4.4570 C   0  0  0  0  0  0  0  0  0  0  0  0
   29.9700   49.5800   -4.4280 C   0  0  0  0  0  0  0  0  0  0  0  0
   29.6060   51.6700   -3.2710 C   0  0  0  0  0  0  0  0  0  0  0  0
   30.4040   48.1540   -4.4250 C   0  0  0  0  0  0  0  0  0  0  0  0
   30.0120   50.3370   -3.2560 C   0  0  0  0  0  0  0  0  0  0  0  0
   30.1030   47.4970   -5.5590 O   0  0  0  0  0  0  0  0  0  0  0  0
   30.9770   47.5890   -3.5100 O   0  0  0  0  0  0  0  0  0  0  0  0
  1  2  1  0
  2  3  2  0
  2  4  1  0
  4  5  2  0
  3  6  1  0
  6  7  1  0
  5  8  1  0
  5  9  1  0
  6  9  2  0
  8 10  1  0
 10 11  1  0
 10 12  1  0
 10 13  1  0
 13 14  2  0
 13 15  1  0
 14 16  1  0
 15 17  2  0
 16 18  1  0
 16 19  2  0
 17 19  1  0
 18 20  1  0
 18 21  2  0
M  END
