mac-x0226-mac-x0228
     RDKit          3D

 28 31  0  0  0  0  0  0  0  0999 V2000
   32.1530   45.5550   -6.9720 O   0  0  0  0  0  0  0  0  0  0  0  0
   33.0120   46.2930   -6.1160 C   0  0  0  0  0  0  0  0  0  0  0  0
   34.0690   46.7110   -6.9670 O   0  0  0  0  0  0  0  0  0  0  0  0
   32.2960   47.5630   -5.6280 C   0  0  0  0  0  0  0  0  0  0  0  0
   33.5630   45.4520   -5.0080 C   0  0  0  0  0  0  0  0  0  0  0  0
   30.9870   47.9110   -6.3420 C   0  0  0  0  0  0  0  0  0  0  0  0
   33.1320   44.1710   -4.6020 C   0  0  0  0  0  0  0  0  0  0  0  0
   34.6040   45.7280   -4.1390 C   0  0  0  0  0  0  0  0  0  0  0  0
   29.8170   47.7720   -5.5130 O   0  0  0  0  0  0  0  0  0  0  0  0
   33.8260   43.6770   -3.5750 N   0  0  0  0  0  0  0  0  0  0  0  0
   34.7390   44.6480   -3.2890 N   0  0  0  0  0  0  0  0  0  0  0  0
   29.9290   48.1980   -4.2270 C   0  0  0  0  0  0  0  0  0  0  0  0
   35.6800   44.4930   -2.2340 C   0  0  0  0  0  0  0  0  0  0  0  0
   30.0580   47.4980   -3.2380 O   0  0  0  0  0  0  0  0  0  0  0  0
   36.5470   45.5330   -1.8800 C   0  0  0  0  0  0  0  0  0  0  0  0
   35.7430   43.2770   -1.5290 C   0  0  0  0  0  0  0  0  0  0  0  0
   29.8690   49.6780   -4.1830 C   0  0  0  0  0  0  0  0  0  0  0  0
   37.4660   45.3580   -0.8390 C   0  0  0  0  0  0  0  0  0  0  0  0
   36.6630   43.1090   -0.4900 C   0  0  0  0  0  0  0  0  0  0  0  0
   29.6030   50.4510   -5.3280 C   0  0  0  0  0  0  0  0  0  0  0  0
   30.0890   50.3050   -2.9350 C   0  0  0  0  0  0  0  0  0  0  0  0
   37.5220   44.1450   -0.1420 C   0  0  0  0  0  0  0  0  0  0  0  0
   29.5670   51.8320   -5.1900 C   0  0  0  0  0  0  0  0  0  0  0  0
   30.0440   51.6970   -2.8180 C   0  0  0  0  0  0  0  0  0  0  0  0
   29.7820   52.4330   -3.9600 C   0  0  0  0  0  0  0  0  0  0  0  0
   29.3130   52.8770   -6.2080 C   0  0  0  0  0  0  0  0  0  0  0  0
   29.7100   53.8030   -3.9900 O   0  0  0  0  0  0  0  0  0  0  0  0
   29.7280   54.1140   -5.4020 C   0  0  0  0  0  0  0  0  0  0  0  0
  2  1  1  0
  2  3  1  0
  2  4  1  0
  2  5  1  0
  4  6  1  0
  5  7  1  0
  5  8  2  0
  6  9  1  0
  7 10  2  0
  8 11  1  0
 10 11  1  0
  9 12  1  0
 11 13  1  0
 12 14  2  0
 13 15  2  0
 13 16  1  0
 12 17  1  0
 15 18  1  0
 16 19  2  0
 17 20  2  0
 17 21  1  0
 18 22  2  0
 19 22  1  0
 20 23  1  0
 21 24  2  0
 23 25  2  0
 24 25  1  0
 23 26  1  0
 25 27  1  0
 26 28  1  0
 27 28  1  0
M  END
