mac-x0360-mac-x0344
     RDKit          3D

 27 28  0  0  0  0  0  0  0  0999 V2000
   32.0930   55.3050   -7.2120 Cl  0  0  0  0  0  0  0  0  0  0  0  0
   32.1840   53.7410   -6.5010 C   0  0  0  0  0  0  0  0  0  0  0  0
   33.4220   53.2370   -6.1060 C   0  0  0  0  0  0  0  0  0  0  0  0
   31.0230   52.9940   -6.3250 C   0  0  0  0  0  0  0  0  0  0  0  0
   31.1090   51.7260   -5.7440 C   0  0  0  0  0  0  0  0  0  0  0  0
   33.4940   51.9700   -5.5270 C   0  0  0  0  0  0  0  0  0  0  0  0
   35.0250   51.3550   -5.0420 Cl  0  0  0  0  0  0  0  0  0  0  0  0
   29.6140   50.7900   -5.5290 S   0  0  0  0  0  0  0  0  0  0  0  0
   32.3440   51.2040   -5.3410 C   0  0  0  0  0  0  0  0  0  0  0  0
   30.1940   49.2740   -5.1070 N   0  0  0  0  0  0  0  0  0  0  0  0
   28.8840   51.3320   -4.4060 O   0  0  0  0  0  0  0  0  0  0  0  0
   29.0100   50.6420   -6.8340 O   0  0  0  0  0  0  0  0  0  0  0  0
   31.2360   48.6630   -5.9450 C   0  0  0  0  0  0  0  0  0  0  0  0
   30.6460   47.4470   -6.6560 C   0  0  0  0  0  0  0  0  0  0  0  0
   31.6960   46.3680   -6.9150 C   0  0  0  0  0  0  0  0  0  0  0  0
   31.3810   45.2030   -6.0900 N   0  0  0  0  0  0  0  0  0  0  0  0
   32.2670   44.8170   -5.2400 C   0  0  0  0  0  0  0  0  0  0  0  0
   32.0220   43.7540   -4.4600 O   0  0  0  0  0  0  0  0  0  0  0  0
   33.6330   45.4280   -4.9750 C   0  0  0  0  0  0  0  0  0  0  0  0
   34.3180   45.7330   -5.9460 O   0  0  0  0  0  0  0  0  0  0  0  0
   34.0850   45.6270   -3.6940 N   0  0  0  0  0  0  0  0  0  0  0  0
   35.2580   46.1920   -3.1550 C   0  0  0  0  0  0  0  0  0  0  0  0
   36.2730   45.4930   -2.5050 C   0  0  0  0  0  0  0  0  0  0  0  0
   35.3920   47.5830   -3.3000 C   0  0  0  0  0  0  0  0  0  0  0  0
   37.3990   46.1700   -2.0090 C   0  0  0  0  0  0  0  0  0  0  0  0
   36.5150   48.2570   -2.8050 C   0  0  0  0  0  0  0  0  0  0  0  0
   37.5180   47.5460   -2.1580 C   0  0  0  0  0  0  0  0  0  0  0  0
  1  2  1  0
  2  3  2  0
  2  4  1  0
  4  5  2  0
  3  6  1  0
  6  7  1  0
  5  8  1  0
  5  9  1  0
  6  9  2  0
  8 10  1  0
  8 11  2  0
  8 12  2  0
 10 13  1  0
 13 14  1  0
 14 15  1  0
 15 16  1  0
 16 17  2  3
 17 18  1  0
 17 19  1  0
 19 20  2  0
 19 21  1  0
 21 22  1  0
 22 23  2  0
 22 24  1  0
 23 25  1  0
 24 26  2  0
 25 27  2  0
 26 27  1  0
M  END
