mac-x0404-mac-x0321
     RDKit          3D

 25 27  0  0  0  0  0  0  0  0999 V2000
   31.4820   44.7460   -6.9250 O   0  0  0  0  0  0  0  0  0  0  0  0
   32.4480   45.0070   -6.0170 C   0  0  0  0  0  0  0  0  0  0  0  0
   33.6070   45.1270   -6.3890 O   0  0  0  0  0  0  0  0  0  0  0  0
   31.9530   45.1220   -4.5850 C   0  0  0  0  0  0  0  0  0  0  0  0
   30.6600   45.7370   -4.5400 O   0  0  0  0  0  0  0  0  0  0  0  0
   30.2720   46.0140   -3.2370 C   0  0  0  0  0  0  0  0  0  0  0  0
   29.8680   44.9280   -2.4220 C   0  0  0  0  0  0  0  0  0  0  0  0
   30.2800   47.3360   -2.7420 C   0  0  0  0  0  0  0  0  0  0  0  0
   30.6710   48.4440   -3.5150 N   0  0  0  0  0  0  0  0  0  0  0  0
   29.4700   45.1900   -1.0870 C   0  0  0  0  0  0  0  0  0  0  0  0
   29.8820   47.5640   -1.4240 C   0  0  0  0  0  0  0  0  0  0  0  0
   29.8420   43.5900   -2.8710 C   0  0  0  0  0  0  0  0  0  0  0  0
   29.8740   49.4570   -3.6290 C   0  0  0  0  0  0  0  0  0  0  0  0
   29.4820   46.5070   -0.6070 C   0  0  0  0  0  0  0  0  0  0  0  0
   29.0660   44.1310   -0.2600 C   0  0  0  0  0  0  0  0  0  0  0  0
   29.4400   42.5480   -2.0370 C   0  0  0  0  0  0  0  0  0  0  0  0
   28.6780   49.4350   -3.0040 O   0  0  0  0  0  0  0  0  0  0  0  0
   29.0510   42.8170   -0.7300 C   0  0  0  0  0  0  0  0  0  0  0  0
   30.0640   50.7120   -4.3750 C   0  0  0  0  0  0  0  0  0  0  0  0
   29.5340   50.8300   -5.6620 C   0  0  0  0  0  0  0  0  0  0  0  0
   30.7700   51.7650   -3.7850 C   0  0  0  0  0  0  0  0  0  0  0  0
   29.7200   52.0210   -6.3590 C   0  0  0  0  0  0  0  0  0  0  0  0
   30.9480   52.9520   -4.4950 C   0  0  0  0  0  0  0  0  0  0  0  0
   29.0780   52.1880   -7.9470 Cl  0  0  0  0  0  0  0  0  0  0  0  0
   30.4220   53.0810   -5.7830 C   0  0  0  0  0  0  0  0  0  0  0  0
  1  2  1  0
  2  3  2  0
  2  4  1  0
  4  5  1  0
  5  6  1  0
  6  7  2  0
  6  8  1  0
  8  9  1  0
  7 10  1  0
  8 11  2  0
  7 12  1  0
  9 13  2  3
 10 14  2  0
 11 14  1  0
 10 15  1  0
 12 16  2  0
 13 17  1  0
 15 18  2  0
 16 18  1  0
 13 19  1  0
 19 20  2  0
 19 21  1  0
 20 22  1  0
 21 23  2  0
 22 24  1  0
 22 25  2  0
 23 25  1  0
M  END
