mac-x0451-mac-x0263
     RDKit          3D

 20 22  0  0  0  0  0  0  0  0999 V2000
   29.0660   53.8850   -8.7300 N   0  0  0  0  0  0  0  0  0  0  0  0
   28.5430   52.9400   -7.7530 C   0  0  2  0  0  0  0  0  0  0  0  0
   29.0290   53.2010   -6.3220 C   0  0  1  0  0  0  0  0  0  0  0  0
   29.0400   51.2870   -8.2800 S   0  0  0  0  0  0  0  0  0  0  0  0
   29.5880   51.8900   -5.6350 C   0  0  2  0  0  0  0  0  0  0  0  0
   29.9910   50.8910   -6.7720 C   0  0  1  0  0  0  0  0  0  0  0  0
   30.0560   54.2720   -6.3580 C   0  0  0  0  0  0  0  0  0  0  0  0
   27.8860   54.0260   -5.7450 N   0  0  0  0  0  0  0  0  0  0  0  0
   28.9810   51.2000   -4.4310 C   0  0  0  0  0  0  0  0  0  0  0  0
   29.8340   49.3990   -6.4790 C   0  0  0  0  0  0  0  0  0  0  0  0
   28.3510   55.2650   -5.6960 C   0  0  0  0  0  0  0  0  0  0  0  0
   29.6420   55.4330   -6.0140 N   0  0  0  0  0  0  0  0  0  0  0  0
   27.5980   56.5200   -5.3170 C   0  0  0  0  0  0  0  0  0  0  0  0
   29.2600   49.8970   -4.1620 C   0  0  0  0  0  0  0  0  0  0  0  0
   30.1560   49.0760   -5.0360 C   0  0  1  0  0  0  0  0  0  0  0  0
   29.9590   47.7420   -4.8380 F   0  0  0  0  0  0  0  0  0  0  0  0
   27.4300   57.4050   -6.5590 C   0  0  0  0  0  0  0  0  0  0  0  0
   27.0040   58.8340   -6.2880 C   0  0  0  0  0  0  0  0  0  0  0  0
   28.0420   59.6850   -6.1570 O   0  0  0  0  0  0  0  0  0  0  0  0
   25.8540   59.2400   -6.2090 O   0  0  0  0  0  0  0  0  0  0  0  0
  2  1  1  6
  2  3  1  0
  2  4  1  0
  3  5  1  0
  4  6  1  0
  5  6  1  0
  3  7  1  6
  3  8  1  0
  5  9  1  1
  6 10  1  1
  8 11  2  0
  7 12  2  0
 11 12  1  0
 11 13  1  0
  9 14  2  0
 10 15  1  0
 14 15  1  0
 15 16  1  6
 13 17  1  0
 17 18  1  0
 18 19  1  0
 18 20  2  0
M  END
