mac-x0404-mac-x0568
     RDKit          3D

 26 28  0  0  0  0  0  0  0  0999 V2000
   31.8910   44.0340   -7.1500 O   0  0  0  0  0  0  0  0  0  0  0  0
   32.8100   44.3780   -6.2250 C   0  0  0  0  0  0  0  0  0  0  0  0
   33.9760   44.5430   -6.5440 O   0  0  0  0  0  0  0  0  0  0  0  0
   32.2410   44.5220   -4.8200 C   0  0  0  0  0  0  0  0  0  0  0  0
   30.9440   45.0910   -4.7210 O   0  0  0  0  0  0  0  0  0  0  0  0
   30.7120   46.0140   -3.7210 C   0  0  0  0  0  0  0  0  0  0  0  0
   29.6560   45.7200   -2.8240 C   0  0  0  0  0  0  0  0  0  0  0  0
   31.4580   47.1890   -3.5630 C   0  0  0  0  0  0  0  0  0  0  0  0
   29.3700   46.6280   -1.7760 C   0  0  0  0  0  0  0  0  0  0  0  0
   31.1770   48.0880   -2.5270 C   0  0  0  0  0  0  0  0  0  0  0  0
   28.8640   44.5540   -2.9230 C   0  0  0  0  0  0  0  0  0  0  0  0
   31.9870   49.3550   -2.3650 C   0  0  0  0  0  0  0  0  0  0  0  0
   30.1330   47.7970   -1.6430 C   0  0  0  0  0  0  0  0  0  0  0  0
   28.3240   46.3520   -0.8770 C   0  0  0  0  0  0  0  0  0  0  0  0
   27.8280   44.2910   -2.0240 C   0  0  0  0  0  0  0  0  0  0  0  0
   31.2960   50.5740   -2.8000 N   0  0  0  0  0  0  0  0  0  0  0  0
   27.5610   45.1940   -1.0010 C   0  0  0  0  0  0  0  0  0  0  0  0
   30.8380   50.7060   -3.9980 C   0  0  0  0  0  0  0  0  0  0  0  0
   31.0210   49.6560   -4.8620 N   0  0  0  0  0  0  0  0  0  0  0  0
   30.1280   51.8880   -4.5270 C   0  0  0  0  0  0  0  0  0  0  0  0
   29.9620   53.0270   -3.7540 C   0  0  0  0  0  0  0  0  0  0  0  0
   29.6140   51.8730   -5.8170 C   0  0  0  0  0  0  0  0  0  0  0  0
   29.3200   54.1390   -4.1920 N   0  0  0  0  0  0  0  0  0  0  0  0
   28.9490   53.0020   -6.2910 C   0  0  0  0  0  0  0  0  0  0  0  0
   28.8210   54.1100   -5.4550 C   0  0  0  0  0  0  0  0  0  0  0  0
   28.1100   55.3380   -5.9410 C   0  0  0  0  0  0  0  0  0  0  0  0
  1  2  1  0
  2  3  2  0
  2  4  1  0
  4  5  1  0
  5  6  1  0
  6  7  2  0
  6  8  1  0
  7  9  1  0
  8 10  2  0
  7 11  1  0
 10 12  1  0
  9 13  2  0
 10 13  1  0
  9 14  1  0
 11 15  2  0
 12 16  1  0
 14 17  2  0
 15 17  1  0
 16 18  2  3
 18 19  1  0
 18 20  1  0
 20 21  2  0
 20 22  1  0
 21 23  1  0
 22 24  2  0
 23 25  2  0
 24 25  1  0
 25 26  1  0
M  END
