mac-x0228-mac-x0131
     RDKit          3D

 29 33  0  0  0  0  0  0  0  0999 V2000
   33.4080   48.9180   -3.3040 O   0  0  0  0  0  0  0  0  0  0  0  0
   32.1490   48.9710   -3.8380 C   0  0  0  0  0  0  0  0  0  0  0  0
   31.4640   48.0050   -4.4490 C   0  0  0  0  0  0  0  0  0  0  0  0
   31.4870   50.2900   -3.7120 C   0  0  0  0  0  0  0  0  0  0  0  0
   30.9470   50.8710   -4.8760 C   0  0  0  0  0  0  0  0  0  0  0  0
   31.3730   50.9640   -2.4770 C   0  0  0  0  0  0  0  0  0  0  0  0
   30.1890   48.4290   -4.8800 N   0  0  0  0  0  0  0  0  0  0  0  0
   32.0790   46.7170   -4.6190 C   0  0  0  0  0  0  0  0  0  0  0  0
   30.3120   52.0930   -4.7830 C   0  0  0  0  0  0  0  0  0  0  0  0
   30.7250   52.2030   -2.4030 C   0  0  0  0  0  0  0  0  0  0  0  0
   29.2500   48.9910   -4.0100 C   0  0  0  0  0  0  0  0  0  0  0  0
   29.6250   48.4350   -6.1540 C   0  0  0  0  0  0  0  0  0  0  0  0
   31.5880   45.5170   -5.1160 C   0  0  0  0  0  0  0  0  0  0  0  0
   33.3970   46.5090   -4.2660 O   0  0  0  0  0  0  0  0  0  0  0  0
   29.4690   49.1600   -2.5360 C   0  0  0  0  0  0  0  0  0  0  0  0
   30.2070   52.7420   -3.5630 C   0  0  0  0  0  0  0  0  0  0  0  0
   29.6650   52.9080   -5.8330 C   0  0  0  0  0  0  0  0  0  0  0  0
   28.1340   49.3650   -4.7200 C   0  0  0  0  0  0  0  0  0  0  0  0
   28.3690   49.0160   -6.0770 C   0  0  0  0  0  0  0  0  0  0  0  0
   30.1970   47.9700   -7.2860 N   0  0  0  0  0  0  0  0  0  0  0  0
   33.7180   45.2280   -4.5350 C   0  0  0  0  0  0  0  0  0  0  0  0
   32.6380   44.5680   -5.0620 C   0  0  0  0  0  0  0  0  0  0  0  0
   26.9250   50.0160   -4.1610 C   0  0  0  0  0  0  0  0  0  0  0  0
   29.5500   53.9430   -3.6420 O   0  0  0  0  0  0  0  0  0  0  0  0
   29.5240   54.2200   -5.0630 C   0  0  0  0  0  0  0  0  0  0  0  0
   27.6530   49.1300   -7.2760 C   0  0  0  0  0  0  0  0  0  0  0  0
   29.4130   48.1270   -8.3610 C   0  0  0  0  0  0  0  0  0  0  0  0
   26.3940   49.6970   -7.3730 N   0  0  0  0  0  0  0  0  0  0  0  0
   28.1940   48.6740   -8.4170 N   0  0  0  0  0  0  0  0  0  0  0  0
  1  2  1  0
  2  3  2  3
  2  4  1  0
  4  5  2  0
  4  6  1  0
  3  7  1  0
  3  8  1  0
  5  9  1  0
  6 10  2  0
  7 11  1  0
  7 12  1  0
  8 13  2  0
  8 14  1  0
 11 15  1  0
  9 16  2  0
 10 16  1  0
  9 17  1  0
 11 18  2  0
 12 19  2  0
 18 19  1  0
 12 20  1  0
 14 21  1  0
 13 22  1  0
 21 22  2  0
 18 23  1  0
 16 24  1  0
 17 25  1  0
 24 25  1  0
 19 26  1  0
 20 27  2  0
 26 28  1  0
 26 29  2  0
 27 29  1  0
M  END
