mac-x0565-mac-x0277
     RDKit          3D

 24 26  0  0  0  0  0  0  0  0999 V2000
   28.6080   54.3460   -5.0410 O   0  0  0  0  0  0  0  0  0  0  0  0
   29.2260   54.0810   -3.8750 C   0  0  0  0  0  0  0  0  0  0  0  0
   29.5160   54.9740   -3.0990 O   0  0  0  0  0  0  0  0  0  0  0  0
   29.4950   52.6340   -3.6720 C   0  0  0  0  0  0  0  0  0  0  0  0
   29.5430   51.7310   -4.7420 C   0  0  0  0  0  0  0  0  0  0  0  0
   29.7040   52.1790   -2.3540 C   0  0  0  0  0  0  0  0  0  0  0  0
   29.8000   50.4050   -4.4400 C   0  0  0  0  0  0  0  0  0  0  0  0
   29.9610   50.8250   -2.0880 C   0  0  0  0  0  0  0  0  0  0  0  0
   30.0070   49.9420   -3.1480 C   0  0  0  0  0  0  0  0  0  0  0  0
   29.8800   49.3950   -5.3700 O   0  0  0  0  0  0  0  0  0  0  0  0
   30.2350   48.5910   -3.1580 N   0  0  0  0  0  0  0  0  0  0  0  0
   30.1940   48.2250   -4.5630 C   0  0  0  0  0  0  0  0  0  0  0  0
   30.1060   47.6400   -2.0770 C   0  0  0  0  0  0  0  0  0  0  0  0
   30.1540   46.1700   -2.4650 C   0  0  0  0  0  0  0  0  0  0  0  0
   31.2450   45.6060   -3.1580 C   0  0  0  0  0  0  0  0  0  0  0  0
   29.0840   45.3140   -2.1360 C   0  0  0  0  0  0  0  0  0  0  0  0
   27.6830   45.8750   -1.2870 Cl  0  0  0  0  0  0  0  0  0  0  0  0
   31.2810   44.2440   -3.5110 C   0  0  0  0  0  0  0  0  0  0  0  0
   29.1100   43.9590   -2.4850 C   0  0  0  0  0  0  0  0  0  0  0  0
   32.4750   43.6790   -4.2540 C   0  0  0  0  0  0  0  0  0  0  0  0
   30.2020   43.4260   -3.1700 C   0  0  0  0  0  0  0  0  0  0  0  0
   32.4690   43.9300   -5.7440 C   0  0  0  0  0  0  0  0  0  0  0  0
   33.5590   44.6280   -6.1360 O   0  0  0  0  0  0  0  0  0  0  0  0
   31.6400   43.5890   -6.5710 O   0  0  0  0  0  0  0  0  0  0  0  0
  1  2  1  0
  2  3  2  0
  2  4  1  0
  4  5  2  0
  4  6  1  0
  5  7  1  0
  6  8  2  0
  7  9  2  0
  8  9  1  0
  7 10  1  0
  9 11  1  0
 10 12  1  0
 11 12  1  0
 11 13  1  0
 13 14  1  0
 14 15  2  0
 14 16  1  0
 16 17  1  0
 15 18  1  0
 16 19  2  0
 18 20  1  0
 18 21  2  0
 19 21  1  0
 20 22  1  0
 22 23  1  0
 22 24  2  0
M  END
