mac-x0433-mac-x0397
     RDKit          3D

 14 15  0  0  0  0  0  0  0  0999 V2000
   27.4770   51.0560   -5.4180 C   0  0  0  0  0  0  0  0  0  0  0  0
   28.9800   51.4110   -5.4200 C   0  0  1  0  0  0  0  0  0  0  0  0
   29.1370   52.9350   -5.7120 C   0  0  0  0  0  0  0  0  0  0  0  0
   29.5650   51.0590   -4.0820 N   0  0  0  0  0  0  0  0  0  0  0  0
   29.6160   50.5200   -6.4960 C   0  0  0  0  0  0  0  0  0  0  0  0
   29.0420   53.3930   -7.0350 N   0  0  0  0  0  0  0  0  0  0  0  0
   29.5490   52.0650   -3.1340 C   0  0  0  0  0  0  0  0  0  0  0  0
   29.3600   53.7630   -4.6620 C   0  0  0  0  0  0  0  0  0  0  0  0
   29.9780   49.7480   -3.8730 C   0  0  0  0  0  0  0  0  0  0  0  0
   30.2270   49.3550   -6.2220 C   0  0  0  0  0  0  0  0  0  0  0  0
   29.5290   55.2530   -4.8030 C   0  0  0  0  0  0  0  0  0  0  0  0
   29.6400   51.6900   -1.8270 N   0  0  0  0  0  0  0  0  0  0  0  0
   29.4560   53.3410   -3.3560 N   0  0  0  0  0  0  0  0  0  0  0  0
   30.3020   48.9010   -4.8590 C   0  0  0  0  0  0  0  0  0  0  0  0
  2  1  1  1
  2  3  1  0
  2  4  1  0
  2  5  1  0
  3  6  1  0
  4  7  1  0
  3  8  2  0
  4  9  1  0
  5 10  2  0
  8 11  1  0
  7 12  1  0
  7 13  2  0
  8 13  1  0
  9 14  2  0
 10 14  1  0
M  END
