mac-x0584-mac-x0223
     RDKit          3D

 25 28  0  0  0  0  0  0  0  0999 V2000
   29.3650   44.0700   -1.7190 C   0  0  0  0  0  0  0  0  0  0  0  0
   29.4630   44.8370   -2.9120 O   0  0  0  0  0  0  0  0  0  0  0  0
   30.4790   45.8610   -2.8540 C   0  0  1  0  0  0  0  0  0  0  0  0
   30.8050   46.4540   -4.2920 C   0  0  1  0  0  0  0  0  0  0  0  0
   29.9000   47.0740   -2.1190 C   0  0  2  0  0  0  0  0  0  0  0  0
   32.1230   47.2810   -4.3210 C   0  0  0  0  0  0  0  0  0  0  0  0
   29.1220   46.6970   -0.9790 O   0  0  0  0  0  0  0  0  0  0  0  0
   30.8790   45.2830   -5.3070 C   0  0  0  0  0  0  0  0  0  0  0  0
   29.6480   47.3800   -4.5070 N   0  0  0  0  0  0  0  0  0  0  0  0
   29.0200   47.7180   -3.2050 C   0  0  0  0  0  0  0  0  0  0  0  0
   33.3960   46.4920   -4.1640 C   0  0  0  0  0  0  0  0  0  0  0  0
   31.5620   45.4440   -6.7000 C   0  0  0  0  0  0  0  0  0  0  0  0
   31.7920   44.0380   -5.0800 C   0  0  0  0  0  0  0  0  0  0  0  0
   29.1950   47.9600   -5.6910 C   0  0  0  0  0  0  0  0  0  0  0  0
   33.5700   45.5330   -3.4270 O   0  0  0  0  0  0  0  0  0  0  0  0
   34.3990   46.9510   -4.9380 O   0  0  0  0  0  0  0  0  0  0  0  0
   32.7080   44.5380   -6.2120 C   0  0  0  0  0  0  0  0  0  0  0  0
   28.7030   47.2040   -6.7390 N   0  0  0  0  0  0  0  0  0  0  0  0
   29.1990   49.2880   -5.9040 C   0  0  0  0  0  0  0  0  0  0  0  0
   28.2610   47.7700   -7.9050 C   0  0  0  0  0  0  0  0  0  0  0  0
   28.7050   49.8390   -7.1880 C   0  0  0  0  0  0  0  0  0  0  0  0
   29.5850   50.4570   -5.1770 C   0  0  0  0  0  0  0  0  0  0  0  0
   28.2360   49.0310   -8.1850 N   0  0  0  0  0  0  0  0  0  0  0  0
   28.7770   51.1440   -7.2310 N   0  0  0  0  0  0  0  0  0  0  0  0
   29.3140   51.4860   -5.9980 C   0  0  0  0  0  0  0  0  0  0  0  0
  1  2  1  0
  3  2  1  6
  3  4  1  0
  3  5  1  0
  4  6  1  1
  5  7  1  1
  4  8  1  0
  4  9  1  0
  5 10  1  0
  9 10  1  0
  6 11  1  0
  8 12  1  0
  8 13  1  0
  9 14  1  0
 11 15  2  0
 11 16  1  0
 12 17  1  0
 13 17  1  0
 14 18  1  0
 14 19  2  0
 18 20  1  0
 19 21  1  0
 19 22  1  0
 20 23  2  0
 21 23  1  0
 21 24  2  0
 22 25  2  0
 24 25  1  0
M  END
