mac-x0546-mac-x0590
     RDKit          3D

 32 36  0  0  0  0  0  0  0  0999 V2000
   29.8960   49.3460   -0.3390 C   0  0  0  0  0  0  0  0  0  0  0  0
   29.1640   48.3680   -1.0820 O   0  0  0  0  0  0  0  0  0  0  0  0
   29.9200   47.2280   -1.2490 C   0  0  0  0  0  0  0  0  0  0  0  0
   30.6230   46.9400   -2.3770 C   0  0  0  0  0  0  0  0  0  0  0  0
   29.9080   46.3370   -0.0990 C   0  0  0  0  0  0  0  0  0  0  0  0
   31.4210   45.6420   -2.4220 C   0  0  1  0  0  0  0  0  0  0  0  0
   30.2640   45.0510   -0.1840 C   0  0  0  0  0  0  0  0  0  0  0  0
   30.6220   47.8850   -3.5640 C   0  0  0  0  0  0  0  0  0  0  0  0
   30.6590   44.6460   -1.5330 C   0  0  0  0  0  0  0  0  0  0  0  0
   31.4920   44.6930   -3.6130 C   0  0  0  0  0  0  0  0  0  0  0  0
   29.6360   47.6130   -4.7530 C   0  0  1  0  0  0  0  0  0  0  0  0
   30.3800   43.4790   -2.0260 N   0  0  0  0  0  0  0  0  0  0  0  0
   30.8950   43.5320   -3.2840 C   0  0  0  0  0  0  0  0  0  0  0  0
   32.0990   44.8730   -4.9860 C   0  0  1  0  0  0  0  0  0  0  0  0
   28.8390   46.3140   -4.5650 C   0  0  0  0  0  0  0  0  0  0  0  0
   28.8680   48.8260   -5.1390 N   0  0  0  0  0  0  0  0  0  0  0  0
   33.1400   45.9580   -5.2980 C   0  0  2  0  0  0  0  0  0  0  0  0
   32.7380   43.6200   -5.5620 C   0  0  0  0  0  0  0  0  0  0  0  0
   29.5800   50.0730   -4.8370 C   0  0  0  0  0  0  0  0  0  0  0  0
   28.3250   48.8960   -6.4890 C   0  0  1  0  0  0  0  0  0  0  0  0
   33.7420   44.1390   -6.5780 C   0  0  0  0  0  0  0  0  0  0  0  0
   33.6620   45.5730   -6.5740 O   0  0  0  0  0  0  0  0  0  0  0  0
   34.2210   46.2400   -4.2530 C   0  0  0  0  0  0  0  0  0  0  0  0
   29.0490   51.2090   -5.6000 N   0  0  0  0  0  0  0  0  0  0  0  0
   29.2610   49.6070   -7.4550 C   0  0  2  0  0  0  0  0  0  0  0  0
   28.2400   47.5840   -7.1110 N   0  0  0  0  0  0  0  0  0  0  0  0
   34.4350   47.2820   -3.6510 O   0  0  0  0  0  0  0  0  0  0  0  0
   35.0060   45.1630   -4.0200 O   0  0  0  0  0  0  0  0  0  0  0  0
   29.2470   51.0900   -7.0260 C   0  0  1  0  0  0  0  0  0  0  0  0
   28.6970   49.2110   -8.7520 N   0  0  0  0  0  0  0  0  0  0  0  0
   28.3080   47.8210   -8.5450 C   0  0  0  0  0  0  0  0  0  0  0  0
   28.1430   51.8490   -7.5850 N   0  0  0  0  0  0  0  0  0  0  0  0
  1  2  1  0
  2  3  1  0
  3  4  2  0
  3  5  1  0
  6  4  1  6
  5  7  2  0
  4  8  1  0
  6  9  1  0
  7  9  1  0
  6 10  1  0
  8 11  1  0
  9 12  2  0
 10 13  2  0
 12 13  1  0
 14 10  1  1
 11 15  1  1
 11 16  1  0
 14 17  1  0
 14 18  1  0
 16 19  1  0
 16 20  1  0
 18 21  1  0
 17 22  1  0
 21 22  1  0
 17 23  1  1
 19 24  1  0
 20 25  1  0
 20 26  1  6
 23 27  2  0
 23 28  1  0
 24 29  1  0
 25 29  1  0
 25 30  1  6
 26 31  1  0
 30 31  1  0
 29 32  1  6
M  END
