mac-x0271-mac-x0277
     RDKit          3D

 26 28  0  0  0  0  0  0  0  0999 V2000
   30.4700   49.4920   -5.2220 O   0  0  0  0  0  0  0  0  0  0  0  0
   29.9920   50.7610   -5.3430 C   0  0  0  0  0  0  0  0  0  0  0  0
   29.7060   51.2670   -6.6150 C   0  0  0  0  0  0  0  0  0  0  0  0
   29.7970   51.5320   -4.1900 C   0  0  0  0  0  0  0  0  0  0  0  0
   30.1030   50.9890   -2.8120 C   0  0  0  0  0  0  0  0  0  0  0  0
   29.3040   52.8330   -4.3650 C   0  0  0  0  0  0  0  0  0  0  0  0
   29.2170   52.5630   -6.7560 C   0  0  0  0  0  0  0  0  0  0  0  0
   29.3670   49.6890   -2.4710 C   0  0  0  0  0  0  0  0  0  0  0  0
   29.0120   53.3580   -5.6300 C   0  0  0  0  0  0  0  0  0  0  0  0
   29.0980   53.6340   -3.2150 O   0  0  0  0  0  0  0  0  0  0  0  0
   30.1820   48.7550   -1.5690 C   0  0  0  0  0  0  0  0  0  0  0  0
   28.5040   54.7150   -5.7380 C   0  0  0  0  0  0  0  0  0  0  0  0
   28.7740   54.9810   -3.3060 C   0  0  0  0  0  0  0  0  0  0  0  0
   28.7970   55.7390   -2.3420 O   0  0  0  0  0  0  0  0  0  0  0  0
   28.3960   55.4730   -4.6430 C   0  0  0  0  0  0  0  0  0  0  0  0
   30.0800   47.3100   -2.0120 C   0  0  0  0  0  0  0  0  0  0  0  0
   31.1680   46.7380   -2.7010 C   0  0  0  0  0  0  0  0  0  0  0  0
   28.9480   46.5150   -1.7680 C   0  0  0  0  0  0  0  0  0  0  0  0
   27.5610   47.1190   -0.9340 Cl  0  0  0  0  0  0  0  0  0  0  0  0
   31.1370   45.4040   -3.1410 C   0  0  0  0  0  0  0  0  0  0  0  0
   28.9120   45.1870   -2.2040 C   0  0  0  0  0  0  0  0  0  0  0  0
   32.3210   44.8130   -3.8790 C   0  0  0  0  0  0  0  0  0  0  0  0
   29.9980   44.6330   -2.8850 C   0  0  0  0  0  0  0  0  0  0  0  0
   32.0660   44.4940   -5.3340 C   0  0  0  0  0  0  0  0  0  0  0  0
   32.9370   45.1350   -6.1460 O   0  0  0  0  0  0  0  0  0  0  0  0
   31.2120   43.7690   -5.8150 O   0  0  0  0  0  0  0  0  0  0  0  0
  1  2  1  0
  2  3  2  0
  2  4  1  0
  4  5  1  0
  4  6  2  0
  3  7  1  0
  5  8  1  0
  6  9  1  0
  7  9  2  0
  6 10  1  0
  8 11  1  0
  9 12  1  0
 10 13  1  0
 13 14  2  0
 12 15  2  0
 13 15  1  0
 11 16  1  0
 16 17  2  0
 16 18  1  0
 18 19  1  0
 17 20  1  0
 18 21  2  0
 20 22  1  0
 20 23  2  0
 21 23  1  0
 22 24  1  0
 24 25  1  0
 24 26  2  0
M  END
