mac-x0365-mac-x0417
     RDKit          3D

 26 28  0  0  0  0  0  0  0  0999 V2000
   29.1600   47.9300   -5.7380 O   0  0  0  0  0  0  0  0  0  0  0  0
   29.9930   48.4880   -4.8450 C   0  0  0  0  0  0  0  0  0  0  0  0
   30.8880   47.7340   -4.3230 N   0  0  0  0  0  0  0  0  0  0  0  0
   29.6670   49.9070   -4.6590 C   0  0  0  0  0  0  0  0  0  0  0  0
   30.9670   46.3280   -4.7200 C   0  0  0  0  0  0  0  0  0  0  0  0
   29.8460   50.4980   -3.4040 C   0  0  0  0  0  0  0  0  0  0  0  0
   29.1780   50.6570   -5.7390 C   0  0  0  0  0  0  0  0  0  0  0  0
   32.0380   45.6220   -3.8810 C   0  0  0  0  0  0  0  0  0  0  0  0
   29.5350   51.8430   -3.2470 C   0  0  0  0  0  0  0  0  0  0  0  0
   28.8680   52.0090   -5.5630 C   0  0  0  0  0  0  0  0  0  0  0  0
   29.7000   52.4320   -2.0520 F   0  0  0  0  0  0  0  0  0  0  0  0
   33.3970   45.4470   -4.5980 C   0  0  2  0  0  0  0  0  0  0  0  0
   29.0500   52.5930   -4.3160 C   0  0  0  0  0  0  0  0  0  0  0  0
   28.7410   53.9150   -4.1660 O   0  0  0  0  0  0  0  0  0  0  0  0
   33.3590   44.4220   -5.7280 C   0  0  0  0  0  0  0  0  0  0  0  0
   34.5190   45.1220   -3.6540 C   0  0  0  0  0  0  0  0  0  0  0  0
   32.5450   43.3670   -5.5120 O   0  0  0  0  0  0  0  0  0  0  0  0
   33.9830   44.4750   -6.7790 O   0  0  0  0  0  0  0  0  0  0  0  0
   34.6800   43.8780   -3.1720 N   0  0  0  0  0  0  0  0  0  0  0  0
   35.5170   46.0020   -3.1480 C   0  0  0  0  0  0  0  0  0  0  0  0
   35.7900   43.9320   -2.3420 O   0  0  0  0  0  0  0  0  0  0  0  0
   36.2880   45.1960   -2.3290 C   0  0  0  0  0  0  0  0  0  0  0  0
   35.8630   47.3590   -3.2770 C   0  0  0  0  0  0  0  0  0  0  0  0
   37.3970   45.6340   -1.6120 C   0  0  0  0  0  0  0  0  0  0  0  0
   36.9760   47.8360   -2.5690 C   0  0  0  0  0  0  0  0  0  0  0  0
   37.7280   46.9860   -1.7500 C   0  0  0  0  0  0  0  0  0  0  0  0
  1  2  1  0
  2  3  2  3
  2  4  1  0
  3  5  1  0
  4  6  2  0
  4  7  1  0
  5  8  1  0
  6  9  1  0
  7 10  2  0
  9 11  1  0
 12  8  1  1
  9 13  2  0
 10 13  1  0
 13 14  1  0
 12 15  1  0
 12 16  1  0
 15 17  1  0
 15 18  2  0
 16 19  2  0
 16 20  1  0
 19 21  1  0
 20 22  2  0
 21 22  1  0
 20 23  1  0
 22 24  1  0
 23 25  2  0
 24 26  2  0
 25 26  1  0
M  END
