mac-x0361-mac-x0263
     RDKit          3D

 24 26  0  0  0  0  0  0  0  0999 V2000
   30.8260   53.7010   -5.1140 N   0  0  0  0  0  0  0  0  0  0  0  0
   29.8350   53.0450   -4.2960 C   0  0  2  0  0  0  0  0  0  0  0  0
   29.6000   53.8780   -3.1810 O   0  0  0  0  0  0  0  0  0  0  0  0
   30.0450   51.6210   -3.9480 C   0  0  0  0  0  0  0  0  0  0  0  0
   28.6870   52.8970   -5.1650 C   0  0  0  0  0  0  0  0  0  0  0  0
   30.0920   50.7270   -5.0380 C   0  0  0  0  0  0  0  0  0  0  0  0
   30.1730   51.1340   -2.6560 C   0  0  0  0  0  0  0  0  0  0  0  0
   28.2450   53.9510   -5.8500 C   0  0  0  0  0  0  0  0  0  0  0  0
   28.0170   51.6640   -5.3480 C   0  0  0  0  0  0  0  0  0  0  0  0
   30.2530   49.3740   -4.8380 C   0  0  0  0  0  0  0  0  0  0  0  0
   30.3390   49.7710   -2.4520 C   0  0  0  0  0  0  0  0  0  0  0  0
   28.7030   55.2260   -5.8330 N   0  0  0  0  0  0  0  0  0  0  0  0
   27.2150   53.9180   -6.7250 C   0  0  0  0  0  0  0  0  0  0  0  0
   26.9560   51.5640   -6.2250 C   0  0  0  0  0  0  0  0  0  0  0  0
   30.3740   48.9060   -3.5440 C   0  0  0  0  0  0  0  0  0  0  0  0
   27.9440   55.9290   -6.6910 C   0  0  0  0  0  0  0  0  0  0  0  0
   27.0320   55.1630   -7.2600 N   0  0  0  0  0  0  0  0  0  0  0  0
   26.5430   52.6990   -6.9340 C   0  0  0  0  0  0  0  0  0  0  0  0
   30.5300   47.5690   -3.3800 O   0  0  0  0  0  0  0  0  0  0  0  0
   28.1710   57.3730   -6.9010 C   0  0  0  0  0  0  0  0  0  0  0  0
   27.3840   58.1350   -5.8550 C   0  0  0  0  0  0  0  0  0  0  0  0
   26.9250   59.4560   -6.3830 C   0  0  0  0  0  0  0  0  0  0  0  0
   27.9370   60.3210   -6.5520 O   0  0  0  0  0  0  0  0  0  0  0  0
   25.7750   59.7650   -6.6440 O   0  0  0  0  0  0  0  0  0  0  0  0
  2  1  1  6
  2  3  1  0
  2  4  1  0
  2  5  1  0
  4  6  2  0
  4  7  1  0
  5  8  1  0
  5  9  2  0
  6 10  1  0
  7 11  2  0
  8 12  1  0
  8 13  2  0
  9 14  1  0
 10 15  2  0
 11 15  1  0
 12 16  1  0
 13 17  1  0
 16 17  2  0
 13 18  1  0
 14 18  2  0
 15 19  1  0
 16 20  1  0
 20 21  1  0
 21 22  1  0
 22 23  1  0
 22 24  2  0
M  END
