mac-x0226-mac-x0137
     RDKit          3D

 30 34  0  0  0  0  0  0  0  0999 V2000
   32.4140   45.3140   -6.9070 O   0  0  0  0  0  0  0  0  0  0  0  0
   33.1170   46.1570   -6.0040 C   0  0  0  0  0  0  0  0  0  0  0  0
   34.1760   46.6940   -6.7750 O   0  0  0  0  0  0  0  0  0  0  0  0
   33.6510   45.3460   -4.8630 C   0  0  0  0  0  0  0  0  0  0  0  0
   32.1780   47.3060   -5.5480 C   0  0  1  0  0  0  0  0  0  0  0  0
   33.1810   44.1060   -4.3860 C   0  0  0  0  0  0  0  0  0  0  0  0
   34.7170   45.6260   -4.0250 C   0  0  0  0  0  0  0  0  0  0  0  0
   30.7690   47.1850   -6.1530 C   0  0  0  0  0  0  0  0  0  0  0  0
   32.0980   47.4210   -4.0070 C   0  0  0  0  0  0  0  0  0  0  0  0
   33.8800   43.6450   -3.3500 N   0  0  0  0  0  0  0  0  0  0  0  0
   34.8310   44.5860   -3.1240 N   0  0  0  0  0  0  0  0  0  0  0  0
   31.1390   48.5100   -3.5350 C   0  0  1  0  0  0  0  0  0  0  0  0
   29.8830   48.2810   -5.6870 N   0  0  0  0  0  0  0  0  0  0  0  0
   31.6980   49.7280   -3.7740 F   0  0  0  0  0  0  0  0  0  0  0  0
   35.7800   44.4360   -2.0740 C   0  0  0  0  0  0  0  0  0  0  0  0
   29.7750   48.4170   -4.2170 C   0  0  0  0  0  0  0  0  0  0  0  0
   28.9440   48.8690   -6.5530 C   0  0  0  0  0  0  0  0  0  0  0  0
   36.6050   45.4980   -1.6800 C   0  0  0  0  0  0  0  0  0  0  0  0
   35.8900   43.1970   -1.4190 C   0  0  0  0  0  0  0  0  0  0  0  0
   28.3920   48.1260   -7.5890 N   0  0  0  0  0  0  0  0  0  0  0  0
   28.4980   50.1430   -6.4830 C   0  0  0  0  0  0  0  0  0  0  0  0
   37.5280   45.3210   -0.6450 C   0  0  0  0  0  0  0  0  0  0  0  0
   36.8140   43.0290   -0.3860 C   0  0  0  0  0  0  0  0  0  0  0  0
   27.4740   48.6390   -8.4610 C   0  0  0  0  0  0  0  0  0  0  0  0
   27.4960   50.6330   -7.4710 C   0  0  0  0  0  0  0  0  0  0  0  0
   28.7140   51.2950   -5.6620 C   0  0  0  0  0  0  0  0  0  0  0  0
   37.6320   44.0880    0.0010 C   0  0  0  0  0  0  0  0  0  0  0  0
   26.9990   49.8380   -8.4610 N   0  0  0  0  0  0  0  0  0  0  0  0
   27.1650   51.8820   -7.2710 N   0  0  0  0  0  0  0  0  0  0  0  0
   27.9200   52.2540   -6.1680 C   0  0  0  0  0  0  0  0  0  0  0  0
  2  1  1  0
  2  3  1  0
  2  4  1  0
  5  2  1  1
  4  6  1  0
  4  7  2  0
  5  8  1  0
  5  9  1  0
  6 10  2  0
  7 11  1  0
 10 11  1  0
  9 12  1  0
  8 13  1  0
 12 14  1  6
 11 15  1  0
 12 16  1  0
 13 16  1  0
 13 17  1  0
 15 18  2  0
 15 19  1  0
 17 20  1  0
 17 21  2  0
 18 22  1  0
 19 23  2  0
 20 24  1  0
 21 25  1  0
 21 26  1  0
 22 27  2  0
 23 27  1  0
 24 28  2  0
 25 28  1  0
 25 29  2  0
 26 30  2  0
 29 30  1  0
M  END
