mac-x0124-mac-x0404
     RDKit          3D

 25 28  0  0  0  0  0  0  0  0999 V2000
   31.1450   46.5530   -4.5790 C   0  0  1  0  0  0  0  0  0  0  0  0
   31.3210   45.2030   -5.2730 C   0  0  0  0  0  0  0  0  0  0  0  0
   32.4700   45.3670   -6.2230 C   0  0  0  0  0  0  0  0  0  0  0  0
   30.3800   47.7280   -5.0570 N   0  0  0  0  0  0  0  0  0  0  0  0
   30.8610   46.5700   -3.1130 C   0  0  0  0  0  0  0  0  0  0  0  0
   30.3270   48.8310   -4.2160 C   0  0  0  0  0  0  0  0  0  0  0  0
   29.6700   48.0170   -6.2010 C   0  0  0  0  0  0  0  0  0  0  0  0
   29.7510   45.9680   -2.4540 C   0  0  0  0  0  0  0  0  0  0  0  0
   31.8140   47.3030   -2.3990 C   0  0  0  0  0  0  0  0  0  0  0  0
   32.0480   45.4500   -7.4890 O   0  0  0  0  0  0  0  0  0  0  0  0
   33.6620   45.4440   -5.9630 O   0  0  0  0  0  0  0  0  0  0  0  0
   29.6050   49.8190   -4.8210 C   0  0  0  0  0  0  0  0  0  0  0  0
   29.1890   49.3260   -6.0760 C   0  0  0  0  0  0  0  0  0  0  0  0
   29.4620   47.2230   -7.2650 N   0  0  0  0  0  0  0  0  0  0  0  0
   29.6590   46.1780   -1.0600 C   0  0  0  0  0  0  0  0  0  0  0  0
   31.7070   47.4810   -1.0490 C   0  0  0  0  0  0  0  0  0  0  0  0
   28.7240   45.1910   -3.0490 C   0  0  0  0  0  0  0  0  0  0  0  0
   28.4530   49.8450   -7.1400 C   0  0  0  0  0  0  0  0  0  0  0  0
   28.7360   47.8300   -8.2170 C   0  0  0  0  0  0  0  0  0  0  0  0
   30.6320   46.9260   -0.3860 C   0  0  0  0  0  0  0  0  0  0  0  0
   28.5960   45.6450   -0.3280 C   0  0  0  0  0  0  0  0  0  0  0  0
   27.6680   44.6600   -2.3020 C   0  0  0  0  0  0  0  0  0  0  0  0
   27.9330   51.1350   -7.1460 N   0  0  0  0  0  0  0  0  0  0  0  0
   28.2300   49.0770   -8.2180 N   0  0  0  0  0  0  0  0  0  0  0  0
   27.6050   44.8900   -0.9390 C   0  0  0  0  0  0  0  0  0  0  0  0
  1  2  1  6
  2  3  1  0
  1  4  1  0
  1  5  1  0
  4  6  1  0
  4  7  1  0
  5  8  1  0
  5  9  2  0
  3 10  1  0
  3 11  2  0
  6 12  2  0
  7 13  2  0
 12 13  1  0
  7 14  1  0
  8 15  2  0
  9 16  1  0
  8 17  1  0
 13 18  1  0
 14 19  2  0
 15 20  1  0
 16 20  2  0
 15 21  1  0
 17 22  2  0
 18 23  1  0
 18 24  2  0
 19 24  1  0
 21 25  2  0
 22 25  1  0
M  END
