mac-x0204-mac-x0397
     RDKit          3D

 23 25  0  0  0  0  0  0  0  0999 V2000
   31.7620   45.9460   -6.2260 O   0  0  0  0  0  0  0  0  0  0  0  0
   30.7690   46.1120   -5.2340 C   0  0  0  0  0  0  0  0  0  0  0  0
   30.2970   44.7980   -4.9780 O   0  0  0  0  0  0  0  0  0  0  0  0
   29.5990   46.9270   -5.8050 C   0  0  0  0  0  0  0  0  0  0  0  0
   31.3190   46.6810   -3.9420 C   0  0  0  0  0  0  0  0  0  0  0  0
   28.7730   47.7090   -4.7740 C   0  0  0  0  0  0  0  0  0  0  0  0
   30.5930   46.6040   -2.7430 C   0  0  0  0  0  0  0  0  0  0  0  0
   32.5650   47.3060   -3.8840 C   0  0  0  0  0  0  0  0  0  0  0  0
   31.1290   47.1410   -1.5780 C   0  0  0  0  0  0  0  0  0  0  0  0
   33.1110   47.8370   -2.7620 N   0  0  0  0  0  0  0  0  0  0  0  0
   28.9230   49.2070   -4.8440 C   0  0  0  0  0  0  0  0  0  0  0  0
   30.4600   47.0920   -0.3920 O   0  0  0  0  0  0  0  0  0  0  0  0
   32.3750   47.7410   -1.6320 C   0  0  0  0  0  0  0  0  0  0  0  0
   29.2170   49.9750   -3.7130 C   0  0  0  0  0  0  0  0  0  0  0  0
   28.7550   49.8390   -6.0830 C   0  0  0  0  0  0  0  0  0  0  0  0
   28.8790   51.2330   -6.1680 C   0  0  0  0  0  0  0  0  0  0  0  0
   29.3370   51.3630   -3.8220 C   0  0  0  0  0  0  0  0  0  0  0  0
   29.6940   52.3460   -2.4670 Cl  0  0  0  0  0  0  0  0  0  0  0  0
   29.1680   52.0260   -5.0570 C   0  0  0  0  0  0  0  0  0  0  0  0
   28.7160   52.2320   -7.5570 S   0  0  0  0  0  0  0  0  0  0  0  0
   29.0290   53.6120   -6.5990 C   0  0  0  0  0  0  0  0  0  0  0  0
   29.2500   53.3900   -5.3280 N   0  0  0  0  0  0  0  0  0  0  0  0
   29.0410   54.8410   -7.1390 N   0  0  0  0  0  0  0  0  0  0  0  0
  2  1  1  0
  2  3  1  0
  2  4  1  0
  2  5  1  0
  4  6  1  0
  5  7  2  0
  5  8  1  0
  7  9  1  0
  8 10  2  0
  6 11  1  0
  9 12  1  0
  9 13  2  0
 10 13  1  0
 11 14  2  0
 11 15  1  0
 15 16  2  0
 14 17  1  0
 17 18  1  0
 16 19  1  0
 17 19  2  0
 16 20  1  0
 20 21  1  0
 19 22  1  0
 21 22  2  0
 21 23  1  0
M  END
