mac-x0277-mac-x0137
     RDKit          3D

 28 31  0  0  0  0  0  0  0  0999 V2000
   27.4880   46.1410   -0.7960 Cl  0  0  0  0  0  0  0  0  0  0  0  0
   28.8540   45.7190   -1.7650 C   0  0  0  0  0  0  0  0  0  0  0  0
   30.0910   46.3480   -1.6270 C   0  0  0  0  0  0  0  0  0  0  0  0
   28.6910   44.7080   -2.7150 C   0  0  0  0  0  0  0  0  0  0  0  0
   30.3680   47.6060   -0.4750 Cl  0  0  0  0  0  0  0  0  0  0  0  0
   31.1610   45.9640   -2.4440 C   0  0  0  0  0  0  0  0  0  0  0  0
   29.7620   44.3270   -3.5310 C   0  0  0  0  0  0  0  0  0  0  0  0
   31.0070   44.9530   -3.4040 C   0  0  0  0  0  0  0  0  0  0  0  0
   32.1700   44.5580   -4.2900 C   0  0  0  0  0  0  0  0  0  0  0  0
   32.4520   45.6430   -5.3540 C   0  0  0  0  0  0  0  0  0  0  0  0
   33.8340   45.9730   -5.3740 O   0  0  0  0  0  0  0  0  0  0  0  0
   32.1500   45.1310   -6.6440 O   0  0  0  0  0  0  0  0  0  0  0  0
   31.6490   46.9240   -5.0500 C   0  0  2  0  0  0  0  0  0  0  0  0
   31.0810   47.5830   -6.3090 C   0  0  0  0  0  0  0  0  0  0  0  0
   32.4140   47.9970   -4.2650 C   0  0  0  0  0  0  0  0  0  0  0  0
   31.4040   49.0030   -3.7400 C   0  0  1  0  0  0  0  0  0  0  0  0
   30.1540   48.6470   -5.8860 N   0  0  0  0  0  0  0  0  0  0  0  0
   31.8680   50.2590   -4.0060 F   0  0  0  0  0  0  0  0  0  0  0  0
   30.0360   48.8120   -4.4080 C   0  0  0  0  0  0  0  0  0  0  0  0
   29.1570   49.1280   -6.7260 C   0  0  0  0  0  0  0  0  0  0  0  0
   28.7820   48.3560   -7.8100 N   0  0  0  0  0  0  0  0  0  0  0  0
   28.5060   50.2930   -6.5970 C   0  0  0  0  0  0  0  0  0  0  0  0
   27.8240   48.7540   -8.6960 C   0  0  0  0  0  0  0  0  0  0  0  0
   27.4710   50.6650   -7.5920 C   0  0  0  0  0  0  0  0  0  0  0  0
   28.5070   51.4050   -5.7000 C   0  0  0  0  0  0  0  0  0  0  0  0
   27.1540   49.8560   -8.6460 N   0  0  0  0  0  0  0  0  0  0  0  0
   26.9290   51.8240   -7.3340 N   0  0  0  0  0  0  0  0  0  0  0  0
   27.5780   52.2470   -6.1810 C   0  0  0  0  0  0  0  0  0  0  0  0
  1  2  1  0
  2  3  2  0
  2  4  1  0
  3  5  1  0
  3  6  1  0
  4  7  2  0
  6  8  2  0
  7  8  1  0
  8  9  1  0
  9 10  1  0
 10 11  1  0
 10 12  1  0
 13 10  1  6
 13 14  1  0
 13 15  1  0
 15 16  1  0
 14 17  1  0
 16 18  1  6
 16 19  1  0
 17 19  1  0
 17 20  1  0
 20 21  1  0
 20 22  2  0
 21 23  1  0
 22 24  1  0
 22 25  1  0
 23 26  2  0
 24 26  1  0
 24 27  2  0
 25 28  2  0
 27 28  1  0
M  END
