mac-x0394-mac-x0365
     RDKit          3D

 23 24  0  0  0  0  0  0  0  0999 V2000
   23.0480   50.3270   -4.2210 Cl  0  0  0  0  0  0  0  0  0  0  0  0
   24.3140   51.4850   -4.3660 C   0  0  0  0  0  0  0  0  0  0  0  0
   24.2170   52.6970   -3.6920 C   0  0  0  0  0  0  0  0  0  0  0  0
   25.4250   51.1940   -5.1600 C   0  0  0  0  0  0  0  0  0  0  0  0
   26.4720   52.1230   -5.2930 C   0  0  0  0  0  0  0  0  0  0  0  0
   25.2460   53.6260   -3.8150 C   0  0  0  0  0  0  0  0  0  0  0  0
   25.1330   55.1290   -2.9820 Cl  0  0  0  0  0  0  0  0  0  0  0  0
   27.7040   51.8280   -6.1550 C   0  0  1  0  0  0  0  0  0  0  0  0
   26.3660   53.3490   -4.6070 C   0  0  0  0  0  0  0  0  0  0  0  0
   28.1020   52.9420   -7.1340 C   0  0  0  0  0  0  0  0  0  0  0  0
   28.8490   51.2790   -5.2970 C   0  0  0  0  0  0  0  0  0  0  0  0
   28.9090   52.5040   -8.1290 O   0  0  0  0  0  0  0  0  0  0  0  0
   27.7780   54.1200   -7.1150 O   0  0  0  0  0  0  0  0  0  0  0  0
   29.5930   52.0910   -4.4250 C   0  0  0  0  0  0  0  0  0  0  0  0
   29.1940   49.9100   -5.3600 C   0  0  0  0  0  0  0  0  0  0  0  0
   29.3150   53.4260   -4.3120 O   0  0  0  0  0  0  0  0  0  0  0  0
   30.2370   49.3770   -4.5820 C   0  0  0  0  0  0  0  0  0  0  0  0
   30.6290   51.5550   -3.6540 C   0  0  0  0  0  0  0  0  0  0  0  0
   30.6070   47.9390   -4.6400 C   0  0  0  0  0  0  0  0  0  0  0  0
   31.3160   52.3650   -2.8320 F   0  0  0  0  0  0  0  0  0  0  0  0
   30.9580   50.2090   -3.7230 C   0  0  0  0  0  0  0  0  0  0  0  0
   30.4620   47.4090   -5.8660 O   0  0  0  0  0  0  0  0  0  0  0  0
   31.0040   47.2700   -3.7030 O   0  0  0  0  0  0  0  0  0  0  0  0
  1  2  1  0
  2  3  2  0
  2  4  1  0
  4  5  2  0
  3  6  1  0
  6  7  1  0
  5  8  1  0
  5  9  1  0
  6  9  2  0
  8 10  1  1
  8 11  1  0
 10 12  1  0
 10 13  2  0
 11 14  2  0
 11 15  1  0
 14 16  1  0
 15 17  2  0
 14 18  1  0
 17 19  1  0
 18 20  1  0
 17 21  1  0
 18 21  2  0
 19 22  1  0
 19 23  2  0
M  END
