mac-x0433-mac-x0568
     RDKit          3D

 11 11  0  0  0  0  0  0  0  0999 V2000
   28.7640   50.2720   -5.9190 C   0  0  0  0  0  0  0  0  0  0  0  0
   29.5590   49.0260   -5.6400 C   0  0  0  0  0  0  0  0  0  0  0  0
   29.3020   48.1900   -4.7760 O   0  0  0  0  0  0  0  0  0  0  0  0
   29.1120   51.4570   -5.0570 C   0  0  0  0  0  0  0  0  0  0  0  0
   29.3560   51.2040   -3.7550 N   0  0  0  0  0  0  0  0  0  0  0  0
   29.1760   52.7350   -5.5780 C   0  0  0  0  0  0  0  0  0  0  0  0
   29.6650   52.2470   -2.9800 C   0  0  0  0  0  0  0  0  0  0  0  0
   29.5040   53.7450   -4.6970 C   0  0  0  0  0  0  0  0  0  0  0  0
   29.5960   55.1610   -5.1750 C   0  0  0  0  0  0  0  0  0  0  0  0
   29.9170   51.9960   -1.6450 N   0  0  0  0  0  0  0  0  0  0  0  0
   29.7510   53.5130   -3.3940 N   0  0  0  0  0  0  0  0  0  0  0  0
  1  2  1  0
  2  3  2  0
  1  4  1  0
  4  5  2  0
  4  6  1  0
  5  7  1  0
  6  8  2  0
  8  9  1  0
  7 10  1  0
  7 11  2  0
  8 11  1  0
M  END
