mac-x0319-mac-x0179
     RDKit          3D

 23 25  0  0  0  0  0  0  0  0999 V2000
   34.0220   45.8490   -6.8480 O   0  0  0  0  0  0  0  0  0  0  0  0
   32.7910   45.5680   -6.3650 C   0  0  0  0  0  0  0  0  0  0  0  0
   31.8090   45.7920   -7.0540 O   0  0  0  0  0  0  0  0  0  0  0  0
   32.8380   44.9930   -4.9600 C   0  0  1  0  0  0  0  0  0  0  0  0
   34.1340   45.4690   -4.3010 C   0  0  0  0  0  0  0  0  0  0  0  0
   31.6360   45.3740   -4.1270 C   0  0  0  0  0  0  0  0  0  0  0  0
   30.5440   44.5020   -4.0540 C   0  0  0  0  0  0  0  0  0  0  0  0
   31.5850   46.5830   -3.4210 C   0  0  0  0  0  0  0  0  0  0  0  0
   34.1140   45.7120   -2.8710 N   0  0  0  0  0  0  0  0  0  0  0  0
   29.4340   44.8390   -3.2920 C   0  0  0  0  0  0  0  0  0  0  0  0
   30.4670   46.9140   -2.6570 C   0  0  0  0  0  0  0  0  0  0  0  0
   34.6680   44.7800   -2.0330 C   0  0  0  0  0  0  0  0  0  0  0  0
   34.4820   46.9490   -2.4130 C   0  0  0  0  0  0  0  0  0  0  0  0
   28.4000   43.9530   -3.2600 O   0  0  0  0  0  0  0  0  0  0  0  0
   34.2790   43.6630   -1.7470 O   0  0  0  0  0  0  0  0  0  0  0  0
   33.9110   48.0180   -2.5070 O   0  0  0  0  0  0  0  0  0  0  0  0
   29.3870   46.0400   -2.5910 C   0  0  0  0  0  0  0  0  0  0  0  0
   35.8890   45.4000   -1.5220 C   0  0  0  0  0  0  0  0  0  0  0  0
   35.7730   46.7540   -1.7620 C   0  0  0  0  0  0  0  0  0  0  0  0
   37.0020   44.8590   -0.9090 C   0  0  0  0  0  0  0  0  0  0  0  0
   36.7600   47.6530   -1.4080 C   0  0  0  0  0  0  0  0  0  0  0  0
   38.0180   45.7460   -0.5390 C   0  0  0  0  0  0  0  0  0  0  0  0
   37.9000   47.1320   -0.7870 C   0  0  0  0  0  0  0  0  0  0  0  0
  1  2  1  0
  2  3  2  0
  2  4  1  0
  4  5  1  1
  4  6  1  0
  6  7  2  0
  6  8  1  0
  5  9  1  0
  7 10  1  0
  8 11  2  0
  9 12  1  0
  9 13  1  0
 10 14  1  0
 12 15  2  0
 13 16  2  0
 10 17  2  0
 11 17  1  0
 12 18  1  0
 13 19  1  0
 18 19  2  0
 18 20  1  0
 19 21  1  0
 20 22  2  0
 21 23  2  0
 22 23  1  0
M  END
