mac-x0282-mac-x0182
     RDKit          3D

 23 26  0  0  0  0  0  0  0  0999 V2000
   34.4000   43.3600   -2.7400 O   0  0  0  0  0  0  0  0  0  0  0  0
   34.5300   44.4670   -3.2360 C   0  0  0  0  0  0  0  0  0  0  0  0
   33.6830   45.0320   -4.1570 N   0  0  0  0  0  0  0  0  0  0  0  0
   35.6530   45.3800   -2.9020 C   0  0  0  0  0  0  0  0  0  0  0  0
   34.1020   46.6240   -4.4900 S   0  0  2  0  0  0  0  0  0  0  0  0
   35.5450   46.6160   -3.5290 C   0  0  0  0  0  0  0  0  0  0  0  0
   36.7290   45.1120   -2.0700 C   0  0  0  0  0  0  0  0  0  0  0  0
   33.0240   47.4370   -3.7810 N   0  0  0  0  0  0  0  0  0  0  0  0
   34.4690   46.6440   -5.8850 O   0  0  0  0  0  0  0  0  0  0  0  0
   36.4720   47.6280   -3.3680 C   0  0  0  0  0  0  0  0  0  0  0  0
   37.6880   46.1180   -1.8860 C   0  0  0  0  0  0  0  0  0  0  0  0
   32.0270   48.1690   -4.5860 C   0  0  0  0  0  0  0  0  0  0  0  0
   37.5590   47.3650   -2.5300 C   0  0  0  0  0  0  0  0  0  0  0  0
   30.7660   47.3220   -4.8390 C   0  0  0  0  0  0  0  0  0  0  0  0
   29.9550   47.8960   -5.9810 C   0  0  0  0  0  0  0  0  0  0  0  0
   29.4760   49.2210   -5.9870 C   0  0  0  0  0  0  0  0  0  0  0  0
   29.6490   47.1180   -7.1130 C   0  0  0  0  0  0  0  0  0  0  0  0
   29.5360   50.3260   -5.0920 C   0  0  0  0  0  0  0  0  0  0  0  0
   28.7540   49.6480   -7.0940 C   0  0  0  0  0  0  0  0  0  0  0  0
   28.9140   47.6730   -8.1540 C   0  0  0  0  0  0  0  0  0  0  0  0
   28.8640   51.3780   -5.6750 C   0  0  0  0  0  0  0  0  0  0  0  0
   28.3940   50.9510   -6.8900 N   0  0  0  0  0  0  0  0  0  0  0  0
   28.4440   48.9380   -8.1930 N   0  0  0  0  0  0  0  0  0  0  0  0
  1  2  2  0
  2  3  1  0
  2  4  1  0
  5  3  1  6
  4  6  2  0
  5  6  1  0
  4  7  1  0
  5  8  2  0
  5  9  2  0
  6 10  1  0
  7 11  2  0
  8 12  1  0
 10 13  2  0
 11 13  1  0
 12 14  1  0
 14 15  1  0
 15 16  1  0
 15 17  2  0
 16 18  1  0
 16 19  2  0
 17 20  1  0
 18 21  2  0
 19 22  1  0
 21 22  1  0
 19 23  1  0
 20 23  2  0
M  END
