mac-x0305-mac-x0206
     RDKit          3D

 20 21  0  0  0  0  0  0  0  0999 V2000
   30.9710   46.8110   -7.9370 O   0  0  0  0  0  0  0  0  0  0  0  0
   30.6260   46.5070   -6.6610 C   0  0  0  0  0  0  0  0  0  0  0  0
   30.5980   45.3440   -6.3090 O   0  0  0  0  0  0  0  0  0  0  0  0
   30.3190   47.7030   -5.8290 C   0  0  0  0  0  0  0  0  0  0  0  0
   29.4110   48.6930   -6.2060 C   0  0  0  0  0  0  0  0  0  0  0  0
   31.0090   47.7360   -4.6600 N   0  0  0  0  0  0  0  0  0  0  0  0
   28.6890   48.7050   -7.3810 O   0  0  0  0  0  0  0  0  0  0  0  0
   29.2210   49.7550   -5.3150 C   0  0  0  0  0  0  0  0  0  0  0  0
   30.7940   48.7760   -3.8390 C   0  0  0  0  0  0  0  0  0  0  0  0
   28.3260   50.7640   -5.6340 N   0  0  0  0  0  0  0  0  0  0  0  0
   29.9200   49.7960   -4.1220 C   0  0  0  0  0  0  0  0  0  0  0  0
   28.1360   51.8190   -4.7910 C   0  0  0  0  0  0  0  0  0  0  0  0
   27.6000   51.7730   -3.6890 O   0  0  0  0  0  0  0  0  0  0  0  0
   28.6570   53.1200   -5.2590 C   0  0  0  0  0  0  0  0  0  0  0  0
   29.5210   53.8520   -4.4290 C   0  0  0  0  0  0  0  0  0  0  0  0
   28.3070   53.6350   -6.5130 C   0  0  0  0  0  0  0  0  0  0  0  0
   29.9230   53.4290   -3.1870 O   0  0  0  0  0  0  0  0  0  0  0  0
   30.0240   55.0800   -4.8460 C   0  0  0  0  0  0  0  0  0  0  0  0
   28.8140   54.8650   -6.9290 C   0  0  0  0  0  0  0  0  0  0  0  0
   29.6690   55.5860   -6.0970 C   0  0  0  0  0  0  0  0  0  0  0  0
  1  2  1  0
  2  3  2  0
  2  4  1  0
  4  5  2  0
  4  6  1  0
  5  7  1  0
  5  8  1  0
  6  9  2  0
  8 10  1  0
  8 11  2  0
  9 11  1  0
 10 12  1  0
 12 13  2  0
 12 14  1  0
 14 15  2  0
 14 16  1  0
 15 17  1  0
 15 18  1  0
 16 19  2  0
 18 20  2  0
 19 20  1  0
M  END
