mac-x0344-mac-x0455
     RDKit          3D

 22 23  0  0  0  0  0  0  0  0999 V2000
   31.7960   43.9360   -4.9060 O   0  0  0  0  0  0  0  0  0  0  0  0
   31.6670   45.3940   -5.1860 S   0  0  0  0  0  0  0  0  0  0  0  0
   30.2830   45.2560   -5.5810 O   0  0  0  0  0  0  0  0  0  0  0  0
   33.3100   45.7470   -5.3210 C   0  0  0  0  0  0  0  0  0  0  0  0
   31.3560   46.6450   -4.1450 C   0  0  1  0  0  0  0  0  0  0  0  0
   31.6210   45.9380   -6.9380 O   0  0  0  0  0  0  0  0  0  0  0  0
   33.7660   46.5580   -6.2320 O   0  0  0  0  0  0  0  0  0  0  0  0
   34.4460   45.2910   -4.5640 N   0  0  0  0  0  0  0  0  0  0  0  0
   30.9250   47.9200   -4.8110 C   0  0  0  0  0  0  0  0  0  0  0  0
   30.3350   46.3970   -3.1560 O   0  0  0  0  0  0  0  0  0  0  0  0
   32.5150   46.8310   -3.2830 C   0  0  0  0  0  0  0  0  0  0  0  0
   35.4190   46.0740   -3.9170 C   0  0  0  0  0  0  0  0  0  0  0  0
   33.1190   48.0250   -3.1000 C   0  0  0  0  0  0  0  0  0  0  0  0
   32.9840   45.7070   -2.6570 C   0  0  0  0  0  0  0  0  0  0  0  0
   36.2490   45.3820   -3.0070 C   0  0  0  0  0  0  0  0  0  0  0  0
   35.6270   47.4140   -4.0850 C   0  0  0  0  0  0  0  0  0  0  0  0
   34.2380   48.1330   -2.2630 C   0  0  0  0  0  0  0  0  0  0  0  0
   34.0750   45.7820   -1.8340 C   0  0  0  0  0  0  0  0  0  0  0  0
   37.2440   46.0030   -2.2930 C   0  0  0  0  0  0  0  0  0  0  0  0
   36.6050   48.0610   -3.3940 C   0  0  0  0  0  0  0  0  0  0  0  0
   34.7060   47.0090   -1.6380 C   0  0  0  0  0  0  0  0  0  0  0  0
   37.3970   47.3570   -2.5130 C   0  0  0  0  0  0  0  0  0  0  0  0
  1  2  1  0
  2  3  2  0
  2  4  1  0
  2  5  1  0
  2  6  1  0
  4  7  2  0
  4  8  1  0
  5  9  1  6
  5 10  1  0
  5 11  1  0
  8 12  1  0
 11 13  2  0
 11 14  1  0
 12 15  2  0
 12 16  1  0
 13 17  1  0
 14 18  2  0
 15 19  1  0
 16 20  2  0
 17 21  2  0
 18 21  1  0
 19 22  2  0
 20 22  1  0
M  END
