mac-x0546-mac-x0396
     RDKit          3D

 27 29  0  0  0  0  0  0  0  0999 V2000
   31.0530   48.5830    0.0090 C   0  0  0  0  0  0  0  0  0  0  0  0
   29.8290   48.4110   -0.7850 N   0  0  0  0  0  0  0  0  0  0  0  0
   29.0490   49.6600   -0.9330 C   0  0  0  0  0  0  0  0  0  0  0  0
   29.7220   47.3670   -1.7110 C   0  0  0  0  0  0  0  0  0  0  0  0
   29.3690   50.4160   -2.2260 C   0  0  0  0  0  0  0  0  0  0  0  0
   30.7160   47.0160   -2.5630 C   0  0  0  0  0  0  0  0  0  0  0  0
   28.4630   46.6010   -1.7780 C   0  0  0  0  0  0  0  0  0  0  0  0
   28.1740   50.5630   -3.1670 C   0  0  0  0  0  0  0  0  0  0  0  0
   30.5320   45.9000   -3.5390 C   0  0  2  0  0  0  0  0  0  0  0  0
   28.3620   45.3780   -2.3310 C   0  0  0  0  0  0  0  0  0  0  0  0
   28.5140   50.0430   -4.4950 N   0  0  0  0  0  0  0  0  0  0  0  0
   29.6360   44.8830   -2.8580 C   0  0  0  0  0  0  0  0  0  0  0  0
   31.6480   44.9420   -3.8220 C   0  0  0  0  0  0  0  0  0  0  0  0
   32.9240   45.3270   -4.4910 C   0  0  0  0  0  0  0  0  0  0  0  0
   29.0510   50.7990   -5.3950 C   0  0  0  0  0  0  0  0  0  0  0  0
   30.0710   43.6610   -2.7910 N   0  0  0  0  0  0  0  0  0  0  0  0
   31.3060   43.7210   -3.3860 C   0  0  0  0  0  0  0  0  0  0  0  0
   32.6950   45.8950   -5.8720 C   0  0  0  0  0  0  0  0  0  0  0  0
   29.3980   50.3970   -6.6640 N   0  0  0  0  0  0  0  0  0  0  0  0
   29.3140   52.2250   -5.0240 C   0  0  0  0  0  0  0  0  0  0  0  0
   31.7450   45.6580   -6.6020 O   0  0  0  0  0  0  0  0  0  0  0  0
   33.6730   46.7300   -6.2700 O   0  0  0  0  0  0  0  0  0  0  0  0
   30.2230   52.5620   -4.0270 C   0  0  0  0  0  0  0  0  0  0  0  0
   28.6460   53.2660   -5.6710 C   0  0  0  0  0  0  0  0  0  0  0  0
   30.5010   53.8370   -3.6480 N   0  0  0  0  0  0  0  0  0  0  0  0
   28.9110   54.5840   -5.3040 C   0  0  0  0  0  0  0  0  0  0  0  0
   29.8360   54.8160   -4.2970 C   0  0  0  0  0  0  0  0  0  0  0  0
  1  2  1  0
  2  3  1  0
  2  4  1  0
  3  5  1  0
  4  6  2  0
  4  7  1  0
  5  8  1  0
  9  6  1  1
  7 10  2  0
  8 11  1  0
  9 12  1  0
 10 12  1  0
  9 13  1  0
 13 14  1  0
 11 15  2  3
 12 16  2  0
 13 17  2  0
 16 17  1  0
 14 18  1  0
 15 19  1  0
 15 20  1  0
 18 21  2  0
 18 22  1  0
 20 23  2  0
 20 24  1  0
 23 25  1  0
 24 26  2  0
 25 27  2  0
 26 27  1  0
M  END
