mac-x0510-mac-x0576
     RDKit          3D

 12 13  0  0  0  0  0  0  0  0999 V2000
   28.8690   53.2180   -5.6890 O   0  0  0  0  0  0  0  0  0  0  0  0
   28.9200   51.9980   -5.8400 C   0  0  0  0  0  0  0  0  0  0  0  0
   29.2400   51.1640   -4.7840 N   0  0  0  0  0  0  0  0  0  0  0  0
   28.6670   51.4000   -7.0500 N   0  0  0  0  0  0  0  0  0  0  0  0
   28.8320   50.0570   -7.2000 C   0  0  0  0  0  0  0  0  0  0  0  0
   29.3560   49.7880   -4.8290 C   0  0  0  0  0  0  0  0  0  0  0  0
   29.5930   49.1040   -3.8390 O   0  0  0  0  0  0  0  0  0  0  0  0
   29.1630   49.2750   -6.1390 C   0  0  0  0  0  0  0  0  0  0  0  0
   28.7010   49.3480   -8.3460 N   0  0  0  0  0  0  0  0  0  0  0  0
   29.2430   48.0130   -6.6480 N   0  0  0  0  0  0  0  0  0  0  0  0
   28.9560   48.1100   -7.9890 C   0  0  0  0  0  0  0  0  0  0  0  0
   28.9580   47.0250   -8.7740 N   0  0  0  0  0  0  0  0  0  0  0  0
  1  2  2  0
  2  3  1  0
  2  4  1  0
  4  5  1  0
  3  6  1  0
  6  7  2  0
  5  8  2  0
  6  8  1  0
  5  9  1  0
  8 10  1  0
  9 11  2  0
 10 11  1  0
 11 12  1  0
M  END
