mac-x0284-mac-x0371
     RDKit          3D

 22 23  0  0  0  0  0  0  0  0999 V2000
   27.9630   51.7670   -4.9800 C   0  0  0  0  0  0  0  0  0  0  0  0
   28.8480   50.6190   -4.5940 C   0  0  0  0  0  0  0  0  0  0  0  0
   29.8080   50.7610   -3.5940 C   0  0  0  0  0  0  0  0  0  0  0  0
   28.7180   49.3830   -5.2380 C   0  0  0  0  0  0  0  0  0  0  0  0
   29.5330   48.2930   -4.8980 C   0  0  0  0  0  0  0  0  0  0  0  0
   30.6260   49.6860   -3.2460 C   0  0  0  0  0  0  0  0  0  0  0  0
   29.2570   47.0750   -5.6780 C   0  0  0  0  0  0  0  0  0  0  0  0
   30.5080   48.4400   -3.8860 C   0  0  0  0  0  0  0  0  0  0  0  0
   31.4090   47.5010   -3.4080 O   0  0  0  0  0  0  0  0  0  0  0  0
   29.5830   46.8510   -6.8320 O   0  0  0  0  0  0  0  0  0  0  0  0
   28.5490   46.1830   -4.9630 O   0  0  0  0  0  0  0  0  0  0  0  0
   31.2010   46.1480   -3.6020 C   0  0  0  0  0  0  0  0  0  0  0  0
   32.1810   45.2550   -4.1020 C   0  0  0  0  0  0  0  0  0  0  0  0
   29.9190   45.6910   -3.2590 C   0  0  0  0  0  0  0  0  0  0  0  0
   33.5840   45.7150   -4.4740 C   0  0  0  0  0  0  0  0  0  0  0  0
   29.5800   44.3510   -3.4030 C   0  0  0  0  0  0  0  0  0  0  0  0
   31.8090   43.8940   -4.2380 C   0  0  0  0  0  0  0  0  0  0  0  0
   32.9010   42.6860   -4.8300 Cl  0  0  0  0  0  0  0  0  0  0  0  0
   33.8110   46.1720   -5.9100 C   0  0  0  0  0  0  0  0  0  0  0  0
   30.5230   43.4540   -3.8910 C   0  0  0  0  0  0  0  0  0  0  0  0
   33.0080   45.5430   -6.8070 O   0  0  0  0  0  0  0  0  0  0  0  0
   34.6230   47.0120   -6.2700 O   0  0  0  0  0  0  0  0  0  0  0  0
  1  2  1  0
  2  3  2  0
  2  4  1  0
  4  5  2  0
  3  6  1  0
  5  7  1  0
  5  8  1  0
  6  8  2  0
  8  9  1  0
  7 10  2  0
  7 11  1  0
  9 12  1  0
 12 13  2  0
 12 14  1  0
 13 15  1  0
 14 16  2  0
 13 17  1  0
 17 18  1  0
 15 19  1  0
 16 20  1  0
 17 20  2  0
 19 21  1  0
 19 22  2  0
M  END
