mac-x0360-mac-x0564
     RDKit          3D

 26 29  0  0  0  0  0  0  0  0999 V2000
   32.1240   55.4980   -6.4500 Cl  0  0  0  0  0  0  0  0  0  0  0  0
   32.0870   53.7810   -6.3380 C   0  0  0  0  0  0  0  0  0  0  0  0
   33.1950   53.0960   -5.8410 C   0  0  0  0  0  0  0  0  0  0  0  0
   30.9510   53.0940   -6.7490 C   0  0  0  0  0  0  0  0  0  0  0  0
   30.9240   51.7010   -6.6580 C   0  0  0  0  0  0  0  0  0  0  0  0
   33.1610   51.7060   -5.7540 C   0  0  0  0  0  0  0  0  0  0  0  0
   34.5370   50.8730   -5.1410 Cl  0  0  0  0  0  0  0  0  0  0  0  0
   29.4580   50.8320   -7.1940 S   0  0  0  0  0  0  0  0  0  0  0  0
   32.0310   50.9930   -6.1600 C   0  0  0  0  0  0  0  0  0  0  0  0
   29.7120   49.2480   -6.6770 N   0  0  0  0  0  0  0  0  0  0  0  0
   28.3480   51.3340   -6.4130 O   0  0  0  0  0  0  0  0  0  0  0  0
   29.4180   50.8510   -8.6330 O   0  0  0  0  0  0  0  0  0  0  0  0
   29.9550   49.1240   -5.3110 C   0  0  0  0  0  0  0  0  0  0  0  0
   30.3240   47.9580   -4.7880 C   0  0  0  0  0  0  0  0  0  0  0  0
   29.8660   50.1460   -4.2840 C   0  0  0  0  0  0  0  0  0  0  0  0
   30.5640   46.6250   -5.3250 C   0  0  0  0  0  0  0  0  0  0  0  0
   30.5070   48.1570   -3.3610 C   0  0  0  0  0  0  0  0  0  0  0  0
   29.5250   51.4900   -4.3110 C   0  0  0  0  0  0  0  0  0  0  0  0
   30.2050   49.5500   -3.0720 C   0  0  0  0  0  0  0  0  0  0  0  0
   30.4080   46.3970   -6.5210 O   0  0  0  0  0  0  0  0  0  0  0  0
   30.8750   47.2250   -2.5580 N   0  0  0  0  0  0  0  0  0  0  0  0
   30.9600   45.6980   -4.3990 N   0  0  0  0  0  0  0  0  0  0  0  0
   30.2260   50.2340   -1.8730 C   0  0  0  0  0  0  0  0  0  0  0  0
   29.5370   52.2080   -3.1130 C   0  0  0  0  0  0  0  0  0  0  0  0
   31.0940   45.9980   -3.1450 C   0  0  0  0  0  0  0  0  0  0  0  0
   29.8840   51.5860   -1.9040 C   0  0  0  0  0  0  0  0  0  0  0  0
  1  2  1  0
  2  3  2  0
  2  4  1  0
  4  5  2  0
  3  6  1  0
  6  7  1  0
  5  8  1  0
  5  9  1  0
  6  9  2  0
  8 10  1  0
  8 11  2  0
  8 12  2  0
 10 13  1  0
 13 14  2  0
 13 15  1  0
 14 16  1  0
 14 17  1  0
 15 18  1  0
 15 19  2  0
 17 19  1  0
 16 20  2  0
 17 21  2  0
 16 22  1  0
 19 23  1  0
 18 24  2  0
 21 25  1  0
 22 25  2  0
 23 26  2  0
 24 26  1  0
M  END
