mac-x0228-mac-x0321
     RDKit          3D

 13 14  0  0  0  0  0  0  0  0999 V2000
   29.8820   47.7350   -5.7360 O   0  0  0  0  0  0  0  0  0  0  0  0
   30.2010   48.2760   -4.5470 C   0  0  0  0  0  0  0  0  0  0  0  0
   30.6230   47.5960   -3.6210 O   0  0  0  0  0  0  0  0  0  0  0  0
   30.0140   49.7540   -4.4120 C   0  0  0  0  0  0  0  0  0  0  0  0
   29.6060   50.6720   -5.4200 C   0  0  0  0  0  0  0  0  0  0  0  0
   30.2870   50.2560   -3.1130 C   0  0  0  0  0  0  0  0  0  0  0  0
   29.2060   50.3270   -7.0610 Cl  0  0  0  0  0  0  0  0  0  0  0  0
   29.5020   52.0080   -5.0970 C   0  0  0  0  0  0  0  0  0  0  0  0
   30.1690   51.6160   -2.8140 C   0  0  0  0  0  0  0  0  0  0  0  0
   29.7780   52.4640   -3.8250 C   0  0  0  0  0  0  0  0  0  0  0  0
   29.1130   53.1540   -5.9480 C   0  0  0  0  0  0  0  0  0  0  0  0
   29.6230   53.8170   -3.6910 O   0  0  0  0  0  0  0  0  0  0  0  0
   29.6130   54.2880   -5.0590 C   0  0  0  0  0  0  0  0  0  0  0  0
  1  2  1  0
  2  3  2  0
  2  4  1  0
  4  5  2  0
  4  6  1  0
  5  7  1  0
  5  8  1  0
  6  9  2  0
  8 10  2  0
  9 10  1  0
  8 11  1  0
 10 12  1  0
 11 13  1  0
 12 13  1  0
M  END
