mac-x0357-mac-x0347
     RDKit          3D

 22 24  0  0  0  0  0  0  0  0999 V2000
   32.2090   43.4410   -4.8330 C   0  0  0  0  0  0  0  0  0  0  0  0
   33.1790   44.5200   -4.4190 C   0  0  0  0  0  0  0  0  0  0  0  0
   34.3070   44.1690   -3.6560 C   0  0  0  0  0  0  0  0  0  0  0  0
   32.9970   45.8830   -4.7720 C   0  0  0  0  0  0  0  0  0  0  0  0
   34.4910   42.8570   -3.3120 O   0  0  0  0  0  0  0  0  0  0  0  0
   31.8200   46.4040   -5.5940 C   0  0  1  0  0  0  0  0  0  0  0  0
   33.9510   46.8300   -4.3420 C   0  0  0  0  0  0  0  0  0  0  0  0
   35.2390   45.1190   -3.2420 C   0  0  0  0  0  0  0  0  0  0  0  0
   31.0540   45.3080   -6.0980 O   0  0  0  0  0  0  0  0  0  0  0  0
   35.0590   46.4520   -3.5870 C   0  0  0  0  0  0  0  0  0  0  0  0
   30.9560   47.4350   -4.9010 C   0  0  0  0  0  0  0  0  0  0  0  0
   30.6910   48.6810   -5.4900 C   0  0  0  0  0  0  0  0  0  0  0  0
   30.3860   47.1990   -3.6540 C   0  0  0  0  0  0  0  0  0  0  0  0
   29.8920   49.6340   -4.8460 C   0  0  0  0  0  0  0  0  0  0  0  0
   29.6060   48.0850   -2.9900 N   0  0  0  0  0  0  0  0  0  0  0  0
   29.3820   49.2720   -3.6010 C   0  0  0  0  0  0  0  0  0  0  0  0
   29.6080   50.9410   -5.4540 C   0  0  0  0  0  0  0  0  0  0  0  0
   28.6450   51.0750   -6.4670 C   0  0  0  0  0  0  0  0  0  0  0  0
   30.2930   52.0950   -5.0380 C   0  0  0  0  0  0  0  0  0  0  0  0
   28.3750   52.3190   -7.0450 C   0  0  0  0  0  0  0  0  0  0  0  0
   30.0240   53.3400   -5.6140 C   0  0  0  0  0  0  0  0  0  0  0  0
   29.0650   53.4490   -6.6180 C   0  0  0  0  0  0  0  0  0  0  0  0
  1  2  1  0
  2  3  2  0
  2  4  1  0
  3  5  1  0
  4  6  1  0
  4  7  2  0
  3  8  1  0
  6  9  1  1
  7 10  1  0
  8 10  2  0
  6 11  1  0
 11 12  2  0
 11 13  1  0
 12 14  1  0
 13 15  2  0
 14 16  2  0
 15 16  1  0
 14 17  1  0
 17 18  2  0
 17 19  1  0
 18 20  1  0
 19 21  2  0
 20 22  2  0
 21 22  1  0
M  END
