mac-x0451-mac-x0303
     RDKit          3D

 19 21  0  0  0  0  0  0  0  0999 V2000
   28.3900   52.7410   -9.8080 N   0  0  0  0  0  0  0  0  0  0  0  0
   28.7320   52.0300   -8.7190 C   0  0  0  0  0  0  0  0  0  0  0  0
   28.8290   52.5600   -7.5270 N   0  0  0  0  0  0  0  0  0  0  0  0
   29.0710   50.3450   -8.8160 S   0  0  0  0  0  0  0  0  0  0  0  0
   29.1960   51.5860   -6.6050 C   0  0  0  0  0  0  0  0  0  0  0  0
   29.3650   50.3350   -7.1420 C   0  0  0  0  0  0  0  0  0  0  0  0
   29.3900   51.8890   -5.1220 C   0  0  1  0  0  0  0  0  0  0  0  0
   29.7570   49.1410   -6.3580 C   0  0  0  0  0  0  0  0  0  0  0  0
   30.1010   50.7230   -4.3590 C   0  0  0  0  0  0  0  0  0  0  0  0
   30.6950   49.6070   -5.2370 C   0  0  1  0  0  0  0  0  0  0  0  0
   30.1880   53.1350   -4.9890 N   0  0  0  0  0  0  0  0  0  0  0  0
   28.0330   52.2310   -4.4730 C   0  0  0  0  0  0  0  0  0  0  0  0
   30.9780   48.5410   -4.4330 F   0  0  0  0  0  0  0  0  0  0  0  0
   29.3520   54.1060   -4.2510 C   0  0  2  0  0  0  0  0  0  0  0  0
   27.9450   53.7070   -4.5100 N   0  0  0  0  0  0  0  0  0  0  0  0
   29.6710   55.9710   -4.7260 S   0  0  0  0  0  0  0  0  0  0  0  0
   31.2200   55.8850   -5.4130 N   0  0  0  0  0  0  0  0  0  0  0  0
   28.7940   56.3840   -5.7980 O   0  0  0  0  0  0  0  0  0  0  0  0
   29.7970   56.7370   -3.5020 O   0  0  0  0  0  0  0  0  0  0  0  0
  1  2  1  0
  2  3  2  0
  2  4  1  0
  3  5  1  0
  4  6  1  0
  5  6  2  0
  5  7  1  0
  6  8  1  0
  7  9  1  1
  8 10  1  0
  9 10  1  0
  7 11  1  0
  7 12  1  0
 10 13  1  1
 11 14  1  0
 12 15  1  0
 14 15  1  0
 14 16  1  6
 16 17  1  0
 16 18  2  0
 16 19  2  0
M  END
