mac-x0565-mac-x0284
     RDKit          3D

 16 17  0  0  0  0  0  0  0  0999 V2000
   28.9330   52.0010   -5.9460 O   0  0  0  0  0  0  0  0  0  0  0  0
   29.4860   52.0480   -4.7310 C   0  0  0  0  0  0  0  0  0  0  0  0
   29.6820   53.1090   -4.1480 O   0  0  0  0  0  0  0  0  0  0  0  0
   29.8190   50.6950   -4.1670 C   0  0  0  0  0  0  0  0  0  0  0  0
   29.8710   49.3500   -4.7670 C   0  0  0  0  0  0  0  0  0  0  0  0
   30.1430   50.7950   -2.7760 C   0  0  0  0  0  0  0  0  0  0  0  0
   29.6630   48.6620   -6.0820 C   0  0  0  0  0  0  0  0  0  0  0  0
   30.2050   48.3400   -3.9640 C   0  0  0  0  0  0  0  0  0  0  0  0
   30.4860   49.6450   -2.0510 C   0  0  0  0  0  0  0  0  0  0  0  0
   30.8110   49.6150   -0.7560 O   0  0  0  0  0  0  0  0  0  0  0  0
   28.9550   48.9830   -6.9940 O   0  0  0  0  0  0  0  0  0  0  0  0
   30.3820   47.4990   -6.1500 O   0  0  0  0  0  0  0  0  0  0  0  0
   30.5030   48.4510   -2.6700 C   0  0  0  0  0  0  0  0  0  0  0  0
   30.2790   47.0530   -4.3970 O   0  0  0  0  0  0  0  0  0  0  0  0
   30.8040   47.2520   -2.1170 O   0  0  0  0  0  0  0  0  0  0  0  0
   30.3110   46.3800   -3.1410 C   0  0  0  0  0  0  0  0  0  0  0  0
  1  2  1  0
  2  3  2  0
  2  4  1  0
  4  5  2  0
  4  6  1  0
  5  7  1  0
  5  8  1  0
  6  9  2  0
  9 10  1  0
  7 11  2  0
  7 12  1  0
  8 13  2  0
  9 13  1  0
  8 14  1  0
 13 15  1  0
 14 16  1  0
 15 16  1  0
M  END
