mac-x0455-mac-x0357
     RDKit          3D

 15 15  0  0  0  0  0  0  0  0999 V2000
   30.8600   48.4850   -4.3000 C   0  0  0  0  0  0  0  0  0  0  0  0
   31.0300   46.9570   -4.2730 C   0  0  1  0  0  0  0  0  0  0  0  0
   30.0800   46.4820   -3.2880 O   0  0  0  0  0  0  0  0  0  0  0  0
   30.5350   46.3270   -5.5880 C   0  0  0  0  0  0  0  0  0  0  0  0
   32.4700   46.5900   -3.8500 C   0  0  0  0  0  0  0  0  0  0  0  0
   29.5200   45.6400   -5.6830 O   0  0  0  0  0  0  0  0  0  0  0  0
   31.3460   46.6130   -6.6530 O   0  0  0  0  0  0  0  0  0  0  0  0
   33.3520   47.6500   -3.5100 C   0  0  0  0  0  0  0  0  0  0  0  0
   32.9730   45.2550   -3.7750 C   0  0  0  0  0  0  0  0  0  0  0  0
   32.1540   44.0300   -4.1070 C   0  0  0  0  0  0  0  0  0  0  0  0
   31.3000   45.4690   -7.5710 O   0  0  0  0  0  0  0  0  0  0  0  0
   34.6690   47.4220   -3.1160 C   0  0  0  0  0  0  0  0  0  0  0  0
   34.3140   45.0600   -3.3700 C   0  0  0  0  0  0  0  0  0  0  0  0
   34.8900   43.8190   -3.2650 O   0  0  0  0  0  0  0  0  0  0  0  0
   35.1500   46.1240   -3.0470 C   0  0  0  0  0  0  0  0  0  0  0  0
  2  1  1  6
  2  3  1  0
  2  4  1  0
  2  5  1  0
  4  6  2  0
  4  7  1  0
  5  8  2  0
  5  9  1  0
  9 10  1  0
  7 11  1  0
  8 12  1  0
  9 13  2  0
 13 14  1  0
 12 15  2  0
 13 15  1  0
M  END
