mac-x0373-mac-x0567
     RDKit          3D

 20 22  0  0  0  0  0  0  0  0999 V2000
   31.1060   45.7270   -6.6290 O   0  0  0  0  0  0  0  0  0  0  0  0
   30.4040   46.3360   -5.6480 C   0  0  0  0  0  0  0  0  0  0  0  0
   29.4050   45.7990   -5.1950 O   0  0  0  0  0  0  0  0  0  0  0  0
   31.0320   47.6730   -5.2910 C   0  0  2  0  0  0  0  0  0  0  0  0
   32.2900   47.6740   -4.4360 C   0  0  0  0  0  0  0  0  0  0  0  0
   30.1030   48.8570   -5.2540 C   0  0  0  0  0  0  0  0  0  0  0  0
   32.7330   46.6220   -3.6260 C   0  0  0  0  0  0  0  0  0  0  0  0
   33.0660   48.8440   -4.4940 C   0  0  0  0  0  0  0  0  0  0  0  0
   29.8650   49.6390   -4.0780 C   0  0  0  0  0  0  0  0  0  0  0  0
   29.3780   49.3520   -6.3410 C   0  0  0  0  0  0  0  0  0  0  0  0
   33.9240   46.7420   -2.9020 C   0  0  0  0  0  0  0  0  0  0  0  0
   34.2490   48.9640   -3.7740 C   0  0  0  0  0  0  0  0  0  0  0  0
   29.0050   50.7800   -4.0310 C   0  0  0  0  0  0  0  0  0  0  0  0
   28.5040   50.5050   -6.3310 C   0  0  0  0  0  0  0  0  0  0  0  0
   29.3490   48.8530   -7.6260 C   0  0  0  0  0  0  0  0  0  0  0  0
   29.9290   47.8110   -8.2690 N   0  0  0  0  0  0  0  0  0  0  0  0
   34.6790   47.9110   -2.9790 C   0  0  0  0  0  0  0  0  0  0  0  0
   28.2980   51.2540   -5.1550 C   0  0  0  0  0  0  0  0  0  0  0  0
   28.5050   49.6910   -8.3020 N   0  0  0  0  0  0  0  0  0  0  0  0
   27.9870   50.6870   -7.5600 N   0  0  0  0  0  0  0  0  0  0  0  0
  1  2  1  0
  2  3  2  0
  4  2  1  1
  4  5  1  0
  4  6  1  0
  5  7  2  0
  5  8  1  0
  6  9  2  0
  6 10  1  0
  7 11  1  0
  8 12  2  0
  9 13  1  0
 10 14  1  0
 10 15  2  0
 15 16  1  0
 11 17  2  0
 12 17  1  0
 13 18  2  0
 14 18  1  0
 15 19  1  0
 14 20  2  0
 19 20  1  0
M  END
