mac-x0226-mac-x0148
     RDKit          3D

 32 37  0  0  0  0  0  0  0  0999 V2000
   32.9120   45.1370   -7.0700 O   0  0  0  0  0  0  0  0  0  0  0  0
   33.4590   46.0110   -6.0970 C   0  0  0  0  0  0  0  0  0  0  0  0
   34.4760   46.7240   -6.7860 O   0  0  0  0  0  0  0  0  0  0  0  0
   34.0390   45.1800   -4.9830 C   0  0  0  0  0  0  0  0  0  0  0  0
   32.3680   47.0140   -5.6250 C   0  0  2  0  0  0  0  0  0  0  0  0
   33.7820   43.8110   -4.7340 C   0  0  0  0  0  0  0  0  0  0  0  0
   34.9210   45.5110   -3.9700 C   0  0  0  0  0  0  0  0  0  0  0  0
   32.8230   47.9280   -4.4550 C   0  0  0  0  0  0  0  0  0  0  0  0
   31.0660   46.3020   -5.2330 C   0  0  0  0  0  0  0  0  0  0  0  0
   34.4340   43.3330   -3.6770 N   0  0  0  0  0  0  0  0  0  0  0  0
   35.1420   44.3890   -3.2010 N   0  0  0  0  0  0  0  0  0  0  0  0
   31.8780   47.9570   -3.2440 C   0  0  2  0  0  0  0  0  0  0  0  0
   30.0570   47.2890   -4.8010 N   0  0  0  0  0  0  0  0  0  0  0  0
   35.9760   44.2680   -2.0550 C   0  0  0  0  0  0  0  0  0  0  0  0
   32.0250   46.7810   -2.2910 C   0  0  0  0  0  0  0  0  0  0  0  0
   30.3820   47.9890   -3.5390 C   0  0  1  0  0  0  0  0  0  0  0  0
   29.3480   47.9530   -5.8050 C   0  0  0  0  0  0  0  0  0  0  0  0
   36.7320   45.3740   -1.6380 C   0  0  0  0  0  0  0  0  0  0  0  0
   36.0580   43.0690   -1.3340 C   0  0  0  0  0  0  0  0  0  0  0  0
   30.8390   46.7730   -1.4960 O   0  0  0  0  0  0  0  0  0  0  0  0
   29.7720   47.2720   -2.3220 C   0  0  0  0  0  0  0  0  0  0  0  0
   28.4720   47.2410   -6.5950 N   0  0  0  0  0  0  0  0  0  0  0  0
   29.4450   49.2640   -6.0750 C   0  0  0  0  0  0  0  0  0  0  0  0
   37.5600   45.2790   -0.5140 C   0  0  0  0  0  0  0  0  0  0  0  0
   36.8870   42.9810   -0.2100 C   0  0  0  0  0  0  0  0  0  0  0  0
   27.7500   47.8300   -7.5970 C   0  0  0  0  0  0  0  0  0  0  0  0
   28.6290   49.8450   -7.1710 C   0  0  0  0  0  0  0  0  0  0  0  0
   30.1690   50.3880   -5.5730 C   0  0  0  0  0  0  0  0  0  0  0  0
   37.6350   44.0840    0.1970 C   0  0  0  0  0  0  0  0  0  0  0  0
   27.7820   49.0820   -7.9220 N   0  0  0  0  0  0  0  0  0  0  0  0
   28.8310   51.1280   -7.3080 N   0  0  0  0  0  0  0  0  0  0  0  0
   29.7700   51.4270   -6.3250 C   0  0  0  0  0  0  0  0  0  0  0  0
  2  1  1  0
  2  3  1  0
  2  4  1  0
  5  2  1  1
  4  6  1  0
  4  7  2  0
  5  8  1  0
  5  9  1  0
  6 10  2  0
  7 11  1  0
 10 11  1  0
 12  8  1  6
  9 13  1  0
 11 14  1  0
 12 15  1  0
 12 16  1  0
 13 16  1  0
 13 17  1  0
 14 18  2  0
 14 19  1  0
 15 20  1  0
 16 21  1  1
 20 21  1  0
 17 22  1  0
 17 23  2  0
 18 24  1  0
 19 25  2  0
 22 26  1  0
 23 27  1  0
 23 28  1  0
 24 29  2  0
 25 29  1  0
 26 30  2  0
 27 30  1  0
 27 31  2  0
 28 32  2  0
 31 32  1  0
M  END
