mac-x0392-mac-x0301
     RDKit          3D

 15 16  0  0  0  0  0  0  0  0999 V2000
   29.3510   47.3050   -9.1750 N   0  0  0  0  0  0  0  0  0  0  0  0
   29.1970   48.7080   -8.7680 C   0  0  0  0  0  0  0  0  0  0  0  0
   29.4290   48.9160   -7.2570 C   0  0  1  0  0  0  0  0  0  0  0  0
   29.2780   50.3290   -6.8770 N   0  0  0  0  0  0  0  0  0  0  0  0
   28.5490   48.0730   -6.3120 C   0  0  1  0  0  0  0  0  0  0  0  0
   28.8960   48.3500   -4.8200 C   0  0  1  0  0  0  0  0  0  0  0  0
   29.5800   50.6410   -5.5770 C   0  0  0  0  0  0  0  0  0  0  0  0
   27.0910   48.3970   -6.3210 C   0  0  0  0  0  0  0  0  0  0  0  0
   29.8640   47.2180   -4.2940 C   0  0  2  0  0  0  0  0  0  0  0  0
   29.4260   49.7590   -4.5800 C   0  0  0  0  0  0  0  0  0  0  0  0
   27.6240   48.2280   -4.0940 O   0  0  0  0  0  0  0  0  0  0  0  0
   26.6690   48.4590   -5.0610 C   0  0  0  0  0  0  0  0  0  0  0  0
   31.0950   47.8020   -3.6490 N   0  0  0  0  0  0  0  0  0  0  0  0
   30.1410   46.2340   -5.3020 O   0  0  0  0  0  0  0  0  0  0  0  0
   31.6560   46.9790   -2.9160 O   0  0  0  0  0  0  0  0  0  0  0  0
  1  2  1  0
  3  2  1  6
  3  4  1  0
  3  5  1  0
  5  6  1  0
  4  7  1  0
  5  8  1  1
  6  9  1  0
  6 10  1  6
  7 10  2  0
  6 11  1  0
  8 12  2  0
 11 12  1  0
  9 13  1  0
  9 14  1  6
 13 15  2  0
M  END
