mac-x0453-mac-x0361
     RDKit          3D

 10 10  0  0  0  0  0  0  0  0999 V2000
   29.7280   54.6590   -6.8690 N   0  0  0  0  0  0  0  0  0  0  0  0
   29.5630   53.7690   -5.8400 C   0  0  0  0  0  0  0  0  0  0  0  0
   28.9390   52.4340   -6.2270 C   0  0  0  0  0  0  0  0  0  0  0  0
   29.8940   54.0680   -4.6920 O   0  0  0  0  0  0  0  0  0  0  0  0
   29.3590   51.2950   -5.3520 C   0  0  0  0  0  0  0  0  0  0  0  0
   29.5550   49.9620   -5.6880 C   0  0  0  0  0  0  0  0  0  0  0  0
   29.6100   51.4840   -4.0030 N   0  0  0  0  0  0  0  0  0  0  0  0
   29.9240   49.3650   -4.5180 N   0  0  0  0  0  0  0  0  0  0  0  0
   29.9450   50.3010   -3.5410 C   0  0  0  0  0  0  0  0  0  0  0  0
   30.2290   48.0280   -4.3300 O   0  0  0  0  0  0  0  0  0  0  0  0
  1  2  1  0
  2  3  1  0
  2  4  2  0
  3  5  1  0
  5  6  2  0
  5  7  1  0
  6  8  1  0
  7  9  2  0
  8  9  1  0
  8 10  1  0
M  END
