mac-x0139-mac-x0354
     RDKit          3D

 29 32  0  0  0  0  0  0  0  0999 V2000
   30.4010   47.3340   -4.3430 C   0  0  0  0  0  0  0  0  0  0  0  0
   29.8530   46.7620   -5.5700 N   0  0  0  0  0  0  0  0  0  0  0  0
   30.0790   45.3170   -5.7540 C   0  0  0  0  0  0  0  0  0  0  0  0
   29.4010   47.5040   -6.6730 C   0  0  0  0  0  0  0  0  0  0  0  0
   31.4900   44.8960   -5.3880 C   0  0  0  0  0  0  0  0  0  0  0  0
   29.2940   48.8510   -6.6850 C   0  0  0  0  0  0  0  0  0  0  0  0
   29.0500   46.7550   -7.8080 N   0  0  0  0  0  0  0  0  0  0  0  0
   32.4670   45.0010   -6.5470 C   0  0  0  0  0  0  0  0  0  0  0  0
   28.7990   49.4960   -7.9300 C   0  0  0  0  0  0  0  0  0  0  0  0
   28.6270   47.3620   -8.8660 C   0  0  0  0  0  0  0  0  0  0  0  0
   29.5200   49.9640   -5.8180 C   0  0  0  0  0  0  0  0  0  0  0  0
   32.0670   45.0730   -7.7170 O   0  0  0  0  0  0  0  0  0  0  0  0
   33.7780   44.9840   -6.1290 N   0  0  0  0  0  0  0  0  0  0  0  0
   28.4880   48.7060   -8.9800 N   0  0  0  0  0  0  0  0  0  0  0  0
   28.7350   50.7950   -7.8180 N   0  0  0  0  0  0  0  0  0  0  0  0
   29.1780   51.0480   -6.5310 C   0  0  0  0  0  0  0  0  0  0  0  0
   34.5790   46.1020   -6.4440 O   0  0  0  0  0  0  0  0  0  0  0  0
   34.0510   44.3590   -4.9030 C   0  0  0  0  0  0  0  0  0  0  0  0
   33.4800   43.1400   -4.4550 C   0  0  0  0  0  0  0  0  0  0  0  0
   34.8930   44.7330   -3.8480 C   0  0  0  0  0  0  0  0  0  0  0  0
   34.7540   43.7360   -2.9040 N   0  0  0  0  0  0  0  0  0  0  0  0
   33.9010   42.7620   -3.2510 N   0  0  0  0  0  0  0  0  0  0  0  0
   35.7790   45.8700   -3.6250 C   0  0  0  0  0  0  0  0  0  0  0  0
   35.4210   43.6550   -1.6220 C   0  0  0  0  0  0  0  0  0  0  0  0
   37.1630   45.6750   -3.5680 C   0  0  0  0  0  0  0  0  0  0  0  0
   35.2590   47.1610   -3.4640 C   0  0  0  0  0  0  0  0  0  0  0  0
   38.0200   46.7550   -3.3520 C   0  0  0  0  0  0  0  0  0  0  0  0
   36.1180   48.2400   -3.2480 C   0  0  0  0  0  0  0  0  0  0  0  0
   37.4950   48.0380   -3.1920 C   0  0  0  0  0  0  0  0  0  0  0  0
  1  2  1  0
  2  3  1  0
  2  4  1  0
  3  5  1  0
  4  6  2  0
  4  7  1  0
  5  8  1  0
  6  9  1  0
  7 10  2  0
  6 11  1  0
  8 12  2  0
  8 13  1  0
  9 14  1  0
 10 14  1  0
  9 15  2  0
 11 16  2  0
 15 16  1  0
 13 17  1  0
 13 18  1  0
 18 19  1  0
 18 20  2  0
 20 21  1  0
 19 22  2  0
 21 22  1  0
 20 23  1  0
 21 24  1  0
 23 25  2  0
 23 26  1  0
 25 27  1  0
 26 28  2  0
 27 29  2  0
 28 29  1  0
M  END
