mac-x0379-mac-x0193
     RDKit          3D

 24 25  0  0  0  0  0  0  0  0999 V2000
   29.0470   52.1010   -5.3730 C   0  0  0  0  0  0  0  0  0  0  0  0
   29.4540   50.8010   -4.7680 C   0  0  0  0  0  0  0  0  0  0  0  0
   29.9320   50.6750   -3.5510 N   0  0  0  0  0  0  0  0  0  0  0  0
   29.3190   49.3340   -5.6610 S   0  0  0  0  0  0  0  0  0  0  0  0
   30.2120   49.3480   -3.2980 C   0  0  0  0  0  0  0  0  0  0  0  0
   29.9490   48.4580   -4.3190 C   0  0  0  0  0  0  0  0  0  0  0  0
   30.1650   47.0270   -4.2750 C   0  0  0  0  0  0  0  0  0  0  0  0
   30.6220   46.4440   -3.2970 O   0  0  0  0  0  0  0  0  0  0  0  0
   29.8100   46.3940   -5.4320 O   0  0  0  0  0  0  0  0  0  0  0  0
   30.6500   45.2740   -5.7710 C   0  0  0  0  0  0  0  0  0  0  0  0
   31.9530   45.5550   -6.3760 N   0  0  0  0  0  0  0  0  0  0  0  0
   33.0770   45.2710   -5.8300 C   0  0  0  0  0  0  0  0  0  0  0  0
   34.2730   45.5430   -6.3850 O   0  0  0  0  0  0  0  0  0  0  0  0
   33.1730   44.5850   -4.4710 C   0  0  0  0  0  0  0  0  0  0  0  0
   34.5050   44.6530   -3.8910 N   0  0  0  0  0  0  0  0  0  0  0  0
   34.9010   43.6760   -3.0100 C   0  0  0  0  0  0  0  0  0  0  0  0
   34.2880   42.6400   -2.8080 O   0  0  0  0  0  0  0  0  0  0  0  0
   36.0770   44.0200   -2.3900 N   0  0  0  0  0  0  0  0  0  0  0  0
   36.8880   42.9960   -1.7410 C   0  0  0  0  0  0  0  0  0  0  0  0
   37.9930   42.4960   -2.6730 C   0  0  0  0  0  0  0  0  0  0  0  0
   37.4690   43.5130   -0.4140 C   0  0  0  0  0  0  0  0  0  0  0  0
   38.9300   41.5000   -1.9850 C   0  0  0  0  0  0  0  0  0  0  0  0
   38.4060   42.5190    0.2780 C   0  0  0  0  0  0  0  0  0  0  0  0
   39.4880   41.9980   -0.6540 C   0  0  0  0  0  0  0  0  0  0  0  0
  1  2  1  0
  2  3  2  0
  2  4  1  0
  3  5  1  0
  4  6  1  0
  5  6  2  0
  6  7  1  0
  7  8  2  0
  7  9  1  0
  9 10  1  0
 10 11  1  0
 11 12  2  3
 12 13  1  0
 12 14  1  0
 14 15  1  0
 15 16  1  0
 16 17  2  0
 16 18  1  0
 18 19  1  0
 19 20  1  0
 19 21  1  0
 20 22  1  0
 21 23  1  0
 22 24  1  0
 23 24  1  0
M  END
