mac-x0373-mac-x0124
     RDKit          3D

 22 24  0  0  0  0  0  0  0  0999 V2000
   30.9200   45.4450   -5.5820 O   0  0  0  0  0  0  0  0  0  0  0  0
   30.4680   46.5210   -4.8960 C   0  0  0  0  0  0  0  0  0  0  0  0
   29.6090   46.3670   -4.0380 O   0  0  0  0  0  0  0  0  0  0  0  0
   31.1230   47.8490   -5.3010 C   0  0  2  0  0  0  0  0  0  0  0  0
   32.4700   47.9220   -4.5800 C   0  0  0  0  0  0  0  0  0  0  0  0
   30.1930   49.1230   -5.1400 C   0  0  2  0  0  0  0  0  0  0  0  0
   32.9420   46.8150   -3.8520 C   0  0  0  0  0  0  0  0  0  0  0  0
   33.2650   49.0790   -4.6210 C   0  0  0  0  0  0  0  0  0  0  0  0
   29.6490   49.2480   -3.7060 C   0  0  0  0  0  0  0  0  0  0  0  0
   29.0110   49.3380   -6.2220 C   0  0  1  0  0  0  0  0  0  0  0  0
   34.1690   46.8670   -3.1890 C   0  0  0  0  0  0  0  0  0  0  0  0
   34.4920   49.1280   -3.9580 C   0  0  0  0  0  0  0  0  0  0  0  0
   28.5490   49.9440   -3.3940 C   0  0  0  0  0  0  0  0  0  0  0  0
   27.9840   50.3670   -5.6970 C   0  0  0  0  0  0  0  0  0  0  0  0
   29.5630   49.8450   -7.6060 C   0  0  2  0  0  0  0  0  0  0  0  0
   28.1680   48.0500   -6.5090 C   0  0  0  0  0  0  0  0  0  0  0  0
   29.9890   51.2360   -7.6590 N   0  0  0  0  0  0  0  0  0  0  0  0
   34.9460   48.0230   -3.2410 C   0  0  0  0  0  0  0  0  0  0  0  0
   27.7900   50.6290   -4.4010 C   0  0  0  0  0  0  0  0  0  0  0  0
   28.5180   49.8000   -8.6010 N   0  0  0  0  0  0  0  0  0  0  0  0
   28.4520   47.4940   -7.8320 N   0  0  0  0  0  0  0  0  0  0  0  0
   28.1400   48.4270   -8.9070 C   0  0  0  0  0  0  0  0  0  0  0  0
  1  2  1  0
  2  3  2  0
  4  2  1  1
  4  5  1  0
  4  6  1  0
  5  7  2  0
  5  8  1  0
  6  9  1  1
  6 10  1  0
  7 11  1  0
  8 12  2  0
  9 13  2  0
 10 14  1  1
 10 15  1  0
 10 16  1  0
 15 17  1  1
 11 18  2  0
 12 18  1  0
 13 19  1  0
 14 19  2  0
 15 20  1  0
 16 21  1  0
 20 22  1  0
 21 22  1  0
M  END
