mac-x0394-mac-x0572
     RDKit          3D

 24 26  0  0  0  0  0  0  0  0999 V2000
   23.0150   49.9440   -5.1670 Cl  0  0  0  0  0  0  0  0  0  0  0  0
   24.2660   51.0630   -4.8050 C   0  0  0  0  0  0  0  0  0  0  0  0
   23.9300   52.3020   -4.2510 C   0  0  0  0  0  0  0  0  0  0  0  0
   25.5920   50.7120   -5.0620 C   0  0  0  0  0  0  0  0  0  0  0  0
   26.5880   51.6310   -4.7470 C   0  0  0  0  0  0  0  0  0  0  0  0
   24.9370   53.2070   -3.9480 C   0  0  0  0  0  0  0  0  0  0  0  0
   24.5910   54.7450   -3.2590 Cl  0  0  0  0  0  0  0  0  0  0  0  0
   26.2450   52.8690   -4.1960 C   0  0  0  0  0  0  0  0  0  0  0  0
   28.0110   51.4610   -4.8820 C   0  0  0  0  0  0  0  0  0  0  0  0
   28.8290   52.5320   -5.2650 C   0  0  0  0  0  0  0  0  0  0  0  0
   28.5500   50.2000   -4.5650 C   0  0  0  0  0  0  0  0  0  0  0  0
   30.1970   52.3090   -5.2340 C   0  0  0  0  0  0  0  0  0  0  0  0
   28.3370   53.8240   -5.6650 N   0  0  0  0  0  0  0  0  0  0  0  0
   29.9170   49.9890   -4.5900 C   0  0  0  0  0  0  0  0  0  0  0  0
   29.1770   54.9260   -5.6400 C   0  0  0  0  0  0  0  0  0  0  0  0
   31.0910   53.4330   -5.5240 C   0  0  0  0  0  0  0  0  0  0  0  0
   30.7430   51.0530   -4.9100 C   0  0  0  0  0  0  0  0  0  0  0  0
   27.4990   53.8260   -6.7950 O   0  0  0  0  0  0  0  0  0  0  0  0
   28.5150   56.2860   -5.7090 C   0  0  0  0  0  0  0  0  0  0  0  0
   32.2830   53.2450   -5.6650 O   0  0  0  0  0  0  0  0  0  0  0  0
   30.5030   54.8110   -5.5670 C   0  0  0  0  0  0  0  0  0  0  0  0
   27.8710   52.9450   -7.7780 C   0  0  0  0  0  0  0  0  0  0  0  0
   31.3640   55.8860   -5.5260 O   0  0  0  0  0  0  0  0  0  0  0  0
   27.2510   52.6530   -8.7900 O   0  0  0  0  0  0  0  0  0  0  0  0
  1  2  1  0
  2  3  2  0
  2  4  1  0
  4  5  2  0
  3  6  1  0
  6  7  1  0
  5  8  1  0
  6  8  2  0
  5  9  1  0
  9 10  1  0
  9 11  2  0
 10 12  2  0
 10 13  1  0
 11 14  1  0
 13 15  1  0
 12 16  1  0
 12 17  1  0
 14 17  2  0
 13 18  1  0
 15 19  1  0
 16 20  2  0
 15 21  2  0
 16 21  1  0
 18 22  1  0
 21 23  1  0
 22 24  2  0
M  END
