mac-x0271-mac-x0439
     RDKit          3D

 27 30  0  0  0  0  0  0  0  0999 V2000
   30.4520   49.8590   -2.8180 O   0  0  0  0  0  0  0  0  0  0  0  0
   30.0070   50.8250   -3.6700 C   0  0  0  0  0  0  0  0  0  0  0  0
   29.4220   50.4250   -4.8610 C   0  0  0  0  0  0  0  0  0  0  0  0
   30.1380   52.1580   -3.3390 C   0  0  0  0  0  0  0  0  0  0  0  0
   29.3180   48.9510   -5.1050 C   0  0  0  0  0  0  0  0  0  0  0  0
   29.6720   53.1060   -4.2330 C   0  0  0  0  0  0  0  0  0  0  0  0
   28.9520   51.4010   -5.7700 C   0  0  0  0  0  0  0  0  0  0  0  0
   28.7140   48.2630   -3.8660 C   0  0  0  0  0  0  0  0  0  0  0  0
   29.0810   52.7630   -5.4480 C   0  0  0  0  0  0  0  0  0  0  0  0
   29.8270   54.4480   -3.8450 O   0  0  0  0  0  0  0  0  0  0  0  0
   29.6790   47.6670   -2.8100 C   0  0  0  0  0  0  0  0  0  0  0  0
   28.6230   53.8370   -6.3210 C   0  0  0  0  0  0  0  0  0  0  0  0
   29.2590   55.4720   -4.5810 C   0  0  0  0  0  0  0  0  0  0  0  0
   29.2090   56.6230   -4.1610 O   0  0  0  0  0  0  0  0  0  0  0  0
   28.7150   55.1090   -5.9030 C   0  0  0  0  0  0  0  0  0  0  0  0
   29.3550   46.2390   -2.4890 C   0  0  0  0  0  0  0  0  0  0  0  0
   30.2100   45.1830   -3.1160 C   0  0  2  0  0  0  0  0  0  0  0  0
   28.3340   45.8340   -1.7040 C   0  0  0  0  0  0  0  0  0  0  0  0
   30.7760   45.3520   -4.4790 C   0  0  0  0  0  0  0  0  0  0  0  0
   29.3020   44.0150   -3.4550 C   0  0  0  0  0  0  0  0  0  0  0  0
   28.0450   44.4270   -1.4940 C   0  0  0  0  0  0  0  0  0  0  0  0
   30.2540   44.4280   -5.2910 C   0  0  0  0  0  0  0  0  0  0  0  0
   29.3290   43.5860   -4.6890 N   0  0  0  0  0  0  0  0  0  0  0  0
   28.4910   43.4830   -2.3450 C   0  0  0  0  0  0  0  0  0  0  0  0
   30.6280   44.2890   -6.7260 C   0  0  0  0  0  0  0  0  0  0  0  0
   30.3340   43.0400   -7.1560 O   0  0  0  0  0  0  0  0  0  0  0  0
   31.1290   45.1580   -7.4170 O   0  0  0  0  0  0  0  0  0  0  0  0
  1  2  1  0
  2  3  2  0
  2  4  1  0
  3  5  1  0
  4  6  2  0
  3  7  1  0
  5  8  1  0
  6  9  1  0
  7  9  2  0
  6 10  1  0
  8 11  1  0
  9 12  1  0
 10 13  1  0
 13 14  2  0
 12 15  2  0
 13 15  1  0
 11 16  1  0
 16 17  1  0
 16 18  2  0
 17 19  1  6
 17 20  1  0
 18 21  1  0
 19 22  2  0
 20 23  2  0
 22 23  1  0
 20 24  1  0
 21 24  2  0
 22 25  1  0
 25 26  1  0
 25 27  2  0
M  END
