mac-x0392-mac-x0333
     RDKit          3D

 14 15  0  0  0  0  0  0  0  0999 V2000
   29.8110   47.6010   -7.7220 N   0  0  0  0  0  0  0  0  0  0  0  0
   28.9740   48.5170   -6.9230 C   0  0  2  0  0  0  0  0  0  0  0  0
   28.8830   49.9250   -7.5730 C   0  0  0  0  0  0  0  0  0  0  0  0
   29.4780   48.7130   -5.4840 C   0  0  1  0  0  0  0  0  0  0  0  0
   30.2400   47.5170   -4.9260 C   0  0  0  0  0  0  0  0  0  0  0  0
   30.2290   50.0610   -5.3500 C   0  0  0  0  0  0  0  0  0  0  0  0
   28.3970   50.9970   -6.6810 N   0  0  0  0  0  0  0  0  0  0  0  0
   30.9230   47.5420   -3.9130 O   0  0  0  0  0  0  0  0  0  0  0  0
   30.0890   46.3800   -5.6450 O   0  0  0  0  0  0  0  0  0  0  0  0
   29.3090   51.2980   -5.5710 C   0  0  2  0  0  0  0  0  0  0  0  0
   30.0810   52.4500   -6.0060 O   0  0  0  0  0  0  0  0  0  0  0  0
   28.6840   51.8220   -4.2570 C   0  0  0  0  0  0  0  0  0  0  0  0
   29.4450   52.9700   -3.8470 O   0  0  0  0  0  0  0  0  0  0  0  0
   29.8470   53.5180   -5.0800 C   0  0  0  0  0  0  0  0  0  0  0  0
  2  1  1  6
  2  3  1  0
  2  4  1  0
  4  5  1  6
  4  6  1  0
  3  7  1  0
  5  8  2  0
  5  9  1  0
 10  6  1  1
  7 10  1  0
 10 11  1  0
 10 12  1  0
 12 13  1  0
 11 14  1  0
 13 14  1  0
M  END
