mac-x0415-mac-x0417
     RDKit          3D

 24 27  0  0  0  0  0  0  0  0999 V2000
   33.9980   46.2400   -6.5960 N   0  0  0  0  0  0  0  0  0  0  0  0
   32.8640   45.6680   -5.8260 C   0  0  0  0  0  0  0  0  0  0  0  0
   32.0080   45.0520   -6.4620 O   0  0  0  0  0  0  0  0  0  0  0  0
   34.6790   45.3940   -7.1830 O   0  0  0  0  0  0  0  0  0  0  0  0
   32.7700   45.8590   -4.3220 C   0  0  1  0  0  0  0  0  0  0  0  0
   31.4170   45.5470   -3.7640 C   0  0  0  0  0  0  0  0  0  0  0  0
   33.9750   45.3040   -3.5920 C   0  0  0  0  0  0  0  0  0  0  0  0
   30.7220   44.2550   -3.9660 C   0  0  0  0  0  0  0  0  0  0  0  0
   30.5180   46.1810   -3.0180 C   0  0  0  0  0  0  0  0  0  0  0  0
   34.1090   44.0040   -3.2710 N   0  0  0  0  0  0  0  0  0  0  0  0
   35.1060   46.0540   -3.1530 C   0  0  0  0  0  0  0  0  0  0  0  0
   29.5420   44.0770   -3.4330 N   0  0  0  0  0  0  0  0  0  0  0  0
   29.2840   45.3700   -2.7760 C   0  0  1  0  0  0  0  0  0  0  0  0
   30.5310   47.4840   -2.4140 C   0  0  0  0  0  0  0  0  0  0  0  0
   35.3310   43.8940   -2.6190 O   0  0  0  0  0  0  0  0  0  0  0  0
   35.9250   45.1160   -2.5500 C   0  0  0  0  0  0  0  0  0  0  0  0
   35.5280   47.3950   -3.1950 C   0  0  0  0  0  0  0  0  0  0  0  0
   28.9940   45.3450   -1.3120 C   0  0  0  0  0  0  0  0  0  0  0  0
   29.9420   47.6020   -1.2070 C   0  0  0  0  0  0  0  0  0  0  0  0
   37.1590   45.4080   -1.9720 C   0  0  0  0  0  0  0  0  0  0  0  0
   36.7660   47.7230   -2.6220 C   0  0  0  0  0  0  0  0  0  0  0  0
   29.8870   49.2270   -0.2930 Br  0  0  0  0  0  0  0  0  0  0  0  0
   29.3180   46.4340   -0.5730 C   0  0  0  0  0  0  0  0  0  0  0  0
   37.5670   46.7460   -2.0220 C   0  0  0  0  0  0  0  0  0  0  0  0
  1  2  1  0
  2  3  2  0
  1  4  2  0
  5  2  1  6
  5  6  1  0
  5  7  1  0
  6  8  1  0
  6  9  2  0
  7 10  2  0
  7 11  1  0
  8 12  2  0
  9 13  1  0
 12 13  1  0
  9 14  1  0
 10 15  1  0
 11 16  2  0
 15 16  1  0
 11 17  1  0
 13 18  1  1
 14 19  2  0
 16 20  1  0
 17 21  2  0
 19 22  1  0
 18 23  2  0
 19 23  1  0
 20 24  2  0
 21 24  1  0
M  END
