mac-x0115-mac-x0373
     RDKit          3D

 25 27  0  0  0  0  0  0  0  0999 V2000
   28.4910   45.9790   -2.0920 C   0  0  0  0  0  0  0  0  0  0  0  0
   28.9530   44.5610   -2.4020 C   0  0  0  0  0  0  0  0  0  0  0  0
   27.8300   43.5630   -2.1390 C   0  0  0  0  0  0  0  0  0  0  0  0
   29.2980   44.4340   -3.7820 O   0  0  0  0  0  0  0  0  0  0  0  0
   30.6040   44.9420   -4.1030 C   0  0  0  0  0  0  0  0  0  0  0  0
   30.9340   44.8050   -5.6300 C   0  0  0  0  0  0  0  0  0  0  0  0
   32.3070   44.5270   -5.8280 O   0  0  0  0  0  0  0  0  0  0  0  0
   30.2410   43.6250   -6.0270 O   0  0  0  0  0  0  0  0  0  0  0  0
   30.5430   45.9370   -6.5220 N   0  0  0  0  0  0  0  0  0  0  0  0
   30.3440   45.7760   -7.9120 C   0  0  0  0  0  0  0  0  0  0  0  0
   30.1920   47.1970   -6.0130 C   0  0  0  0  0  0  0  0  0  0  0  0
   30.8540   44.5090   -8.8900 S   0  0  0  0  0  0  0  0  0  0  0  0
   29.6430   46.7840   -8.5560 N   0  0  0  0  0  0  0  0  0  0  0  0
   28.8770   47.7500   -6.4660 C   0  0  2  0  0  0  0  0  0  0  0  0
   30.8120   48.0500   -5.1770 C   0  0  0  0  0  0  0  0  0  0  0  0
   28.9380   47.8240   -7.9820 C   0  0  0  0  0  0  0  0  0  0  0  0
   28.7510   49.0760   -5.8230 N   0  0  0  0  0  0  0  0  0  0  0  0
   29.8440   49.1620   -5.1300 C   0  0  0  0  0  0  0  0  0  0  0  0
   32.0710   48.0670   -4.4390 C   0  0  0  0  0  0  0  0  0  0  0  0
   28.4280   48.6970   -8.6800 O   0  0  0  0  0  0  0  0  0  0  0  0
   32.1060   47.7050   -3.0840 C   0  0  0  0  0  0  0  0  0  0  0  0
   33.2660   48.4410   -5.0650 C   0  0  0  0  0  0  0  0  0  0  0  0
   33.3110   47.7180   -2.3740 C   0  0  0  0  0  0  0  0  0  0  0  0
   34.4680   48.4590   -4.3550 C   0  0  0  0  0  0  0  0  0  0  0  0
   34.4910   48.0960   -3.0100 C   0  0  0  0  0  0  0  0  0  0  0  0
  1  2  1  0
  2  3  1  0
  2  4  1  0
  4  5  1  0
  5  6  1  0
  6  7  1  0
  6  8  1  0
  6  9  1  0
  9 10  1  0
  9 11  1  0
 10 12  2  0
 10 13  1  0
 11 14  1  0
 11 15  2  0
 13 16  1  0
 14 16  1  0
 14 17  1  1
 15 18  1  0
 17 18  2  0
 15 19  1  0
 16 20  2  0
 19 21  2  0
 19 22  1  0
 21 23  1  0
 22 24  2  0
 23 25  2  0
 24 25  1  0
M  END
