mac-x0303-mac-x1493
     RDKit          3D

 16 17  0  0  0  0  0  0  0  0999 V2000
   30.4050   56.2470   -6.8930 N   0  0  0  0  0  0  0  0  0  0  0  0
   29.1050   55.9540   -5.8680 S   0  0  0  0  0  0  0  0  0  0  0  0
   27.8870   55.9620   -6.6420 O   0  0  0  0  0  0  0  0  0  0  0  0
   29.2870   56.7560   -4.6820 O   0  0  0  0  0  0  0  0  0  0  0  0
   29.2710   54.2830   -5.3060 C   0  0  0  0  0  0  0  0  0  0  0  0
   29.3410   53.9580   -3.9770 N   0  0  0  0  0  0  0  0  0  0  0  0
   29.3430   53.2090   -6.0770 N   0  0  0  0  0  0  0  0  0  0  0  0
   29.4650   52.5970   -3.8820 C   0  0  0  0  0  0  0  0  0  0  0  0
   29.4640   52.1550   -5.2060 C   0  0  0  0  0  0  0  0  0  0  0  0
   29.5760   51.7370   -2.7850 C   0  0  0  0  0  0  0  0  0  0  0  0
   29.5790   50.7820   -5.4740 C   0  0  0  0  0  0  0  0  0  0  0  0
   29.6890   50.3670   -3.0660 C   0  0  0  0  0  0  0  0  0  0  0  0
   29.6910   49.8990   -4.3880 C   0  0  0  0  0  0  0  0  0  0  0  0
   29.8100   48.4540   -4.6780 C   0  0  0  0  0  0  0  0  0  0  0  0
   29.2520   48.0990   -5.8570 O   0  0  0  0  0  0  0  0  0  0  0  0
   30.3610   47.6640   -3.9260 O   0  0  0  0  0  0  0  0  0  0  0  0
  2  1  1  0
  2  3  2  0
  2  4  2  0
  2  5  1  0
  5  6  1  0
  5  7  2  0
  6  8  1  0
  7  9  1  0
  8  9  2  0
  8 10  1  0
  9 11  1  0
 10 12  2  0
 11 13  2  0
 12 13  1  0
 13 14  1  0
 14 15  1  0
 14 16  2  0
M  END
