mac-x0188-mac-x0380
     RDKit          3D

 24 26  0  0  0  0  0  0  0  0999 V2000
   32.8020   44.7790   -4.0880 C   0  0  0  0  0  0  0  0  0  0  0  0
   32.1160   46.0860   -4.0620 C   0  0  0  0  0  0  0  0  0  0  0  0
   32.4680   46.9020   -3.0360 O   0  0  0  0  0  0  0  0  0  0  0  0
   31.1680   46.7170   -4.8460 C   0  0  0  0  0  0  0  0  0  0  0  0
   30.5120   46.2190   -6.0380 C   0  0  0  0  0  0  0  0  0  0  0  0
   31.7650   48.0820   -3.1170 N   0  0  0  0  0  0  0  0  0  0  0  0
   30.9770   47.9840   -4.2020 C   0  0  0  0  0  0  0  0  0  0  0  0
   29.3970   45.7210   -6.0300 O   0  0  0  0  0  0  0  0  0  0  0  0
   31.2180   46.3340   -7.1920 O   0  0  0  0  0  0  0  0  0  0  0  0
   30.0330   49.1230   -4.6090 C   0  0  1  0  0  0  0  0  0  0  0  0
   29.5350   49.9230   -3.3870 C   0  0  2  0  0  0  0  0  0  0  0  0
   30.6100   50.0570   -5.6410 C   0  0  0  0  0  0  0  0  0  0  0  0
   28.7920   49.0560   -2.4060 C   0  0  0  0  0  0  0  0  0  0  0  0
   28.6390   51.1280   -3.7790 C   0  0  0  0  0  0  0  0  0  0  0  0
   30.1910   51.3230   -5.8140 C   0  0  0  0  0  0  0  0  0  0  0  0
   28.0290   48.1020   -2.9610 O   0  0  0  0  0  0  0  0  0  0  0  0
   28.8450   49.1700   -1.1920 O   0  0  0  0  0  0  0  0  0  0  0  0
   29.0900   51.9900   -5.0040 C   0  0  2  0  0  0  0  0  0  0  0  0
   29.7210   53.5880   -4.2870 S   0  0  0  0  0  0  0  0  0  0  0  0
   27.8670   52.3940   -5.8920 C   0  0  0  0  0  0  0  0  0  0  0  0
   27.9960   53.5930   -6.7380 N   0  0  0  0  0  0  0  0  0  0  0  0
   29.1280   55.0260   -5.1520 C   0  0  0  0  0  0  0  0  0  0  0  0
   28.2290   54.8780   -6.3190 C   0  0  0  0  0  0  0  0  0  0  0  0
   27.7540   55.8770   -6.8390 O   0  0  0  0  0  0  0  0  0  0  0  0
  1  2  1  0
  2  3  1  0
  2  4  2  0
  4  5  1  0
  3  6  1  0
  4  7  1  0
  6  7  2  0
  5  8  2  0
  5  9  1  0
 10  7  1  1
 10 11  1  0
 10 12  1  0
 11 13  1  1
 11 14  1  0
 12 15  2  0
 13 16  1  0
 13 17  2  0
 18 14  1  1
 18 15  1  0
 18 19  1  0
 18 20  1  0
 20 21  1  0
 19 22  2  0
 21 23  1  0
 22 23  1  0
 23 24  2  0
M  END
