mac-x0402-mac-x0228
     RDKit          3D

 13 14  0  0  0  0  0  0  0  0999 V2000
   30.7140   48.2020   -3.9500 N   0  0  0  0  0  0  0  0  0  0  0  0
   29.9720   47.0120   -4.2650 C   0  0  0  0  0  0  0  0  0  0  0  0
   30.3410   46.5840   -5.5530 O   0  0  0  0  0  0  0  0  0  0  0  0
   30.2640   49.4640   -4.3510 C   0  0  0  0  0  0  0  0  0  0  0  0
   30.1750   50.4630   -3.3680 C   0  0  0  0  0  0  0  0  0  0  0  0
   29.9010   49.7880   -5.6650 C   0  0  0  0  0  0  0  0  0  0  0  0
   29.4580   51.0960   -5.9590 C   0  0  0  0  0  0  0  0  0  0  0  0
   29.7350   51.7610   -3.6650 C   0  0  0  0  0  0  0  0  0  0  0  0
   29.3690   52.0860   -4.9810 C   0  0  0  0  0  0  0  0  0  0  0  0
   28.9550   51.7580   -7.4670 S   0  0  0  0  0  0  0  0  0  0  0  0
   28.6680   53.2680   -6.7060 C   0  0  0  0  0  0  0  0  0  0  0  0
   28.9170   53.3170   -5.4230 N   0  0  0  0  0  0  0  0  0  0  0  0
   28.2160   54.3270   -7.4010 N   0  0  0  0  0  0  0  0  0  0  0  0
  1  2  1  0
  2  3  1  0
  1  4  1  0
  4  5  2  0
  4  6  1  0
  6  7  2  0
  5  8  1  0
  7  9  1  0
  8  9  2  0
  7 10  1  0
 10 11  1  0
  9 12  1  0
 11 12  2  0
 11 13  1  0
M  END
