mac-x0321-mac-x0365
     RDKit          3D

 12 12  0  0  0  0  0  0  0  0999 V2000
   28.6100   52.1800   -6.9890 Cl  0  0  0  0  0  0  0  0  0  0  0  0
   29.1840   51.4770   -5.5190 C   0  0  0  0  0  0  0  0  0  0  0  0
   29.5670   50.1350   -5.5220 C   0  0  0  0  0  0  0  0  0  0  0  0
   29.2690   52.2260   -4.3420 C   0  0  0  0  0  0  0  0  0  0  0  0
   28.8950   53.5420   -4.3190 O   0  0  0  0  0  0  0  0  0  0  0  0
   30.0370   49.5380   -4.3410 C   0  0  0  0  0  0  0  0  0  0  0  0
   29.7380   51.6220   -3.1780 C   0  0  0  0  0  0  0  0  0  0  0  0
   30.4360   48.1120   -4.3760 C   0  0  0  0  0  0  0  0  0  0  0  0
   29.8160   52.3440   -2.0540 F   0  0  0  0  0  0  0  0  0  0  0  0
   30.1240   50.2850   -3.1590 C   0  0  0  0  0  0  0  0  0  0  0  0
   29.8470   47.4100   -5.3700 O   0  0  0  0  0  0  0  0  0  0  0  0
   31.2210   47.6260   -3.5820 O   0  0  0  0  0  0  0  0  0  0  0  0
  1  2  1  0
  2  3  2  0
  2  4  1  0
  4  5  1  0
  3  6  1  0
  4  7  2  0
  6  8  1  0
  7  9  1  0
  6 10  2  0
  7 10  1  0
  8 11  1  0
  8 12  2  0
M  END
