mac-x0138-mac-x0385
     RDKit          3D

 14 15  0  0  0  0  0  0  0  0999 V2000
   29.5680   46.5420   -4.4610 C   0  0  0  0  0  0  0  0  0  0  0  0
   29.9590   47.9070   -4.7740 N   0  0  0  0  0  0  0  0  0  0  0  0
   29.5780   48.9080   -3.7550 C   0  0  2  0  0  0  0  0  0  0  0  0
   29.4760   48.4630   -6.0300 C   0  0  1  0  0  0  0  0  0  0  0  0
   28.5070   48.3900   -2.7870 C   0  0  0  0  0  0  0  0  0  0  0  0
   29.2020   50.1750   -4.4630 N   0  0  0  0  0  0  0  0  0  0  0  0
   29.7580   49.9370   -5.8170 C   0  0  2  0  0  0  0  0  0  0  0  0
   30.0540   48.0110   -7.2780 N   0  0  0  0  0  0  0  0  0  0  0  0
   29.8110   51.3720   -3.8760 C   0  0  0  0  0  0  0  0  0  0  0  0
   29.0780   50.6700   -7.0020 C   0  0  2  0  0  0  0  0  0  0  0  0
   29.3290   48.6500   -8.3400 C   0  0  2  0  0  0  0  0  0  0  0  0
   27.6260   50.5920   -6.9470 N   0  0  0  0  0  0  0  0  0  0  0  0
   30.0700   48.3040   -9.5000 N   0  0  0  0  0  0  0  0  0  0  0  0
   29.4120   50.0900   -8.2920 N   0  0  0  0  0  0  0  0  0  0  0  0
  1  2  1  0
  2  3  1  0
  2  4  1  0
  3  5  1  6
  3  6  1  0
  4  7  1  0
  7  6  1  1
  4  8  1  6
  6  9  1  0
  7 10  1  0
  8 11  1  0
 10 12  1  1
 11 13  1  6
 10 14  1  0
 11 14  1  0
M  END
