mac-x0411-mac-x0348
     RDKit          3D

 25 27  0  0  0  0  0  0  0  0999 V2000
   35.8130   43.5750   -3.5020 Cl  0  0  0  0  0  0  0  0  0  0  0  0
   35.8460   45.3040   -3.5120 C   0  0  0  0  0  0  0  0  0  0  0  0
   34.7140   46.0890   -3.2360 C   0  0  0  0  0  0  0  0  0  0  0  0
   37.0720   45.9100   -3.8140 C   0  0  0  0  0  0  0  0  0  0  0  0
   33.4830   45.5550   -2.9310 O   0  0  0  0  0  0  0  0  0  0  0  0
   34.8460   47.4910   -3.2620 C   0  0  0  0  0  0  0  0  0  0  0  0
   37.1860   47.2990   -3.8390 C   0  0  0  0  0  0  0  0  0  0  0  0
   33.5100   48.5400   -2.9270 Cl  0  0  0  0  0  0  0  0  0  0  0  0
   32.5240   45.3320   -3.9970 C   0  0  2  0  0  0  0  0  0  0  0  0
   36.0730   48.0890   -3.5650 C   0  0  0  0  0  0  0  0  0  0  0  0
   33.1970   45.4840   -5.3640 C   0  0  0  0  0  0  0  0  0  0  0  0
   31.3200   46.2940   -3.9950 C   0  0  0  0  0  0  0  0  0  0  0  0
   32.9670   44.4550   -6.4170 N   0  0  0  0  0  0  0  0  0  0  0  0
   33.9220   46.4350   -5.6510 O   0  0  0  0  0  0  0  0  0  0  0  0
   30.3230   46.0200   -2.9010 C   0  0  0  0  0  0  0  0  0  0  0  0
   32.4780   44.9000   -7.4640 O   0  0  0  0  0  0  0  0  0  0  0  0
   29.5740   44.8670   -2.7430 C   0  0  0  0  0  0  0  0  0  0  0  0
   29.9620   46.8930   -1.8230 C   0  0  0  0  0  0  0  0  0  0  0  0
   28.7880   45.0070   -1.6310 N   0  0  0  0  0  0  0  0  0  0  0  0
   29.0020   46.2350   -1.0470 C   0  0  0  0  0  0  0  0  0  0  0  0
   30.3640   48.1890   -1.4340 C   0  0  0  0  0  0  0  0  0  0  0  0
   27.8650   44.0060   -1.1440 C   0  0  0  0  0  0  0  0  0  0  0  0
   29.8050   48.7810   -0.2970 C   0  0  0  0  0  0  0  0  0  0  0  0
   28.4340   46.8200    0.0960 C   0  0  0  0  0  0  0  0  0  0  0  0
   28.8520   48.1040    0.4560 C   0  0  0  0  0  0  0  0  0  0  0  0
  1  2  1  0
  2  3  2  0
  2  4  1  0
  3  5  1  0
  3  6  1  0
  4  7  2  0
  6  8  1  0
  5  9  1  0
  6 10  2  0
  7 10  1  0
  9 11  1  0
  9 12  1  6
 11 13  1  0
 11 14  2  0
 12 15  1  0
 13 16  2  0
 15 17  2  0
 15 18  1  0
 17 19  1  0
 18 20  2  0
 19 20  1  0
 18 21  1  0
 19 22  1  0
 21 23  2  0
 20 24  1  0
 23 25  1  0
 24 25  2  0
M  END
