mac-x0305-mac-x0284
     RDKit          3D

 12 12  0  0  0  0  0  0  0  0999 V2000
   29.3990   46.9960   -7.2630 O   0  0  0  0  0  0  0  0  0  0  0  0
   29.9710   47.2650   -6.0720 C   0  0  0  0  0  0  0  0  0  0  0  0
   29.8980   46.3050   -5.2010 N   0  0  0  0  0  0  0  0  0  0  0  0
   30.5990   48.6540   -5.9650 C   0  0  1  0  0  0  0  0  0  0  0  0
   30.5060   46.6330   -3.9870 O   0  0  0  0  0  0  0  0  0  0  0  0
   29.9270   49.6910   -6.9140 C   0  0  1  0  0  0  0  0  0  0  0  0
   30.6420   49.1450   -4.5500 N   0  0  0  0  0  0  0  0  0  0  0  0
   29.5860   49.1390   -8.1920 O   0  0  0  0  0  0  0  0  0  0  0  0
   31.3070   48.1720   -3.6840 O   0  0  0  0  0  0  0  0  0  0  0  0
   28.6110   50.1430   -6.3420 C   0  0  0  0  0  0  0  0  0  0  0  0
   29.2690   49.3390   -4.0460 C   0  0  0  0  0  0  0  0  0  0  0  0
   28.3230   49.9780   -5.0360 C   0  0  0  0  0  0  0  0  0  0  0  0
  1  2  1  0
  2  3  2  3
  4  2  1  1
  3  5  1  0
  4  6  1  0
  4  7  1  0
  6  8  1  6
  7  9  1  0
  6 10  1  0
  7 11  1  0
 10 12  2  0
 11 12  1  0
M  END
