mac-x0204-mac-x0564
     RDKit          3D

 17 19  0  0  0  0  0  0  0  0999 V2000
   31.6350   45.5000   -4.6840 O   0  0  0  0  0  0  0  0  0  0  0  0
   30.7540   46.4860   -4.4310 C   0  0  0  0  0  0  0  0  0  0  0  0
   29.6390   46.1770   -4.0370 O   0  0  0  0  0  0  0  0  0  0  0  0
   31.2670   47.9160   -4.6810 C   0  0  1  0  0  0  0  0  0  0  0  0
   30.6140   48.9780   -3.7880 C   0  0  1  0  0  0  0  0  0  0  0  0
   32.7120   47.8190   -4.2430 C   0  0  0  0  0  0  0  0  0  0  0  0
   30.7530   48.3130   -6.0640 C   0  0  0  0  0  0  0  0  0  0  0  0
   30.1960   48.1590   -2.5460 C   0  0  1  0  0  0  0  0  0  0  0  0
   32.7490   47.7520   -2.7570 N   0  0  0  0  0  0  0  0  0  0  0  0
   31.2750   50.2290   -3.2520 C   0  0  0  0  0  0  0  0  0  0  0  0
   29.5620   49.5690   -4.7150 C   0  0  1  0  0  0  0  0  0  0  0  0
   29.3600   48.6410   -5.7810 O   0  0  0  0  0  0  0  0  0  0  0  0
   29.0460   47.3400   -2.7770 O   0  0  0  0  0  0  0  0  0  0  0  0
   31.4460   47.3200   -2.1340 C   0  0  0  0  0  0  0  0  0  0  0  0
   30.4250   51.2270   -2.8660 C   0  0  0  0  0  0  0  0  0  0  0  0
   28.4870   50.2050   -3.9330 C   0  0  0  0  0  0  0  0  0  0  0  0
   28.9610   51.0520   -2.9910 C   0  0  0  0  0  0  0  0  0  0  0  0
  1  2  1  0
  2  3  2  0
  4  2  1  1
  4  5  1  0
  4  6  1  0
  4  7  1  0
  5  8  1  0
  6  9  1  0
  5 10  1  1
  5 11  1  0
  7 12  1  0
 11 12  1  0
  8 13  1  6
  8 14  1  0
  9 14  1  0
 10 15  2  0
 11 16  1  1
 15 17  1  0
 16 17  2  0
M  END
