mac-x0303-mac-x0394
     RDKit          3D

 25 27  0  0  0  0  0  0  0  0999 V2000
   31.9550   56.8610   -6.3780 N   0  0  0  0  0  0  0  0  0  0  0  0
   30.6870   56.7480   -5.2780 S   0  0  0  0  0  0  0  0  0  0  0  0
   29.5040   57.2800   -5.9120 O   0  0  0  0  0  0  0  0  0  0  0  0
   31.1520   57.1890   -3.9860 O   0  0  0  0  0  0  0  0  0  0  0  0
   30.3470   55.0260   -5.0770 C   0  0  0  0  0  0  0  0  0  0  0  0
   31.1700   54.1880   -4.3700 N   0  0  0  0  0  0  0  0  0  0  0  0
   29.3020   54.3790   -5.5630 N   0  0  0  0  0  0  0  0  0  0  0  0
   30.6230   52.9300   -4.4040 C   0  0  0  0  0  0  0  0  0  0  0  0
   29.4580   53.0700   -5.1540 C   0  0  0  0  0  0  0  0  0  0  0  0
   31.0450   51.7190   -3.8570 C   0  0  0  0  0  0  0  0  0  0  0  0
   28.6300   51.9530   -5.3950 C   0  0  0  0  0  0  0  0  0  0  0  0
   27.3450   52.0670   -6.2080 C   0  0  1  0  0  0  0  0  0  0  0  0
   30.2290   50.6110   -4.0920 C   0  0  0  0  0  0  0  0  0  0  0  0
   29.0510   50.7220   -4.8420 C   0  0  0  0  0  0  0  0  0  0  0  0
   27.3100   51.1720   -7.4480 C   0  0  0  0  0  0  0  0  0  0  0  0
   26.1140   51.9550   -5.3060 C   0  0  0  0  0  0  0  0  0  0  0  0
   26.9090   51.8320   -8.5610 O   0  0  0  0  0  0  0  0  0  0  0  0
   27.5920   49.9840   -7.5340 O   0  0  0  0  0  0  0  0  0  0  0  0
   25.6310   53.0480   -4.5680 C   0  0  0  0  0  0  0  0  0  0  0  0
   25.4340   50.7250   -5.1960 C   0  0  0  0  0  0  0  0  0  0  0  0
   24.5070   52.9140   -3.7500 C   0  0  0  0  0  0  0  0  0  0  0  0
   24.3090   50.6050   -4.3740 C   0  0  0  0  0  0  0  0  0  0  0  0
   23.4940   49.0940   -4.2550 Cl  0  0  0  0  0  0  0  0  0  0  0  0
   23.9380   54.2740   -2.8610 Cl  0  0  0  0  0  0  0  0  0  0  0  0
   23.8420   51.6970   -3.6490 C   0  0  0  0  0  0  0  0  0  0  0  0
  2  1  1  0
  2  3  2  0
  2  4  2  0
  2  5  1  0
  5  6  1  0
  5  7  2  0
  6  8  1  0
  7  9  1  0
  8  9  2  0
  8 10  1  0
  9 11  1  0
 11 12  1  0
 10 13  2  0
 11 14  2  0
 13 14  1  0
 12 15  1  6
 12 16  1  0
 15 17  1  0
 15 18  2  0
 16 19  2  0
 16 20  1  0
 19 21  1  0
 20 22  2  0
 22 23  1  0
 21 24  1  0
 21 25  2  0
 22 25  1  0
M  END
