mac-x1493-mac-x0361
     RDKit          3D

 16 17  0  0  0  0  0  0  0  0999 V2000
   29.8030   48.1080   -5.4790 O   0  0  0  0  0  0  0  0  0  0  0  0
   30.0600   48.7900   -4.3440 C   0  0  0  0  0  0  0  0  0  0  0  0
   30.7690   48.2920   -3.4870 O   0  0  0  0  0  0  0  0  0  0  0  0
   29.3870   50.1420   -4.3040 C   0  0  2  0  0  0  0  0  0  0  0  0
   28.7040   50.5070   -5.6360 C   0  0  0  0  0  0  0  0  0  0  0  0
   30.3920   51.2090   -3.8530 C   0  0  0  0  0  0  0  0  0  0  0  0
   27.9310   51.8330   -5.5760 C   0  0  1  0  0  0  0  0  0  0  0  0
   30.0080   52.5490   -4.3140 N   0  0  0  0  0  0  0  0  0  0  0  0
   30.8280   53.6510   -4.2770 C   0  0  0  0  0  0  0  0  0  0  0  0
   28.5600   52.7690   -4.4890 C   0  0  1  0  0  0  0  0  0  0  0  0
   27.7850   52.4700   -6.9420 C   0  0  0  0  0  0  0  0  0  0  0  0
   31.2700   54.1150   -5.4720 N   0  0  0  0  0  0  0  0  0  0  0  0
   31.1830   54.2290   -3.2530 O   0  0  0  0  0  0  0  0  0  0  0  0
   28.3700   54.2360   -4.7870 C   0  0  0  0  0  0  0  0  0  0  0  0
   27.8380   53.7990   -7.1150 C   0  0  0  0  0  0  0  0  0  0  0  0
   28.0360   54.6960   -6.0040 C   0  0  0  0  0  0  0  0  0  0  0  0
  1  2  1  0
  2  3  2  0
  4  2  1  6
  4  5  1  0
  4  6  1  0
  7  5  1  6
  6  8  1  0
  8  9  1  0
  7 10  1  0
  8 10  1  0
  7 11  1  0
  9 12  1  0
  9 13  2  0
 10 14  1  6
 11 15  2  0
 14 16  2  0
 15 16  1  0
M  END
