mac-x0341-mac-x0305
     RDKit          3D

 16 17  0  0  0  0  0  0  0  0999 V2000
   28.1440   54.8950   -7.1230 N   0  0  0  0  0  0  0  0  0  0  0  0
   28.5610   53.6770   -6.6960 C   0  0  0  0  0  0  0  0  0  0  0  0
   28.3020   52.6230   -7.3930 N   0  0  0  0  0  0  0  0  0  0  0  0
   29.2590   53.6190   -5.5270 N   0  0  0  0  0  0  0  0  0  0  0  0
   29.5140   52.4390   -4.8610 C   0  0  0  0  0  0  0  0  0  0  0  0
   28.7790   51.3880   -6.9300 C   0  0  0  0  0  0  0  0  0  0  0  0
   29.8150   52.4070   -3.6750 O   0  0  0  0  0  0  0  0  0  0  0  0
   29.3990   51.2150   -5.6870 C   0  0  0  0  0  0  0  0  0  0  0  0
   28.6320   50.2910   -7.7590 C   0  0  0  0  0  0  0  0  0  0  0  0
   29.0980   49.0450   -7.3780 C   0  0  0  0  0  0  0  0  0  0  0  0
   29.8820   49.9460   -5.2780 C   0  0  0  0  0  0  0  0  0  0  0  0
   28.8920   48.0630   -8.2980 O   0  0  0  0  0  0  0  0  0  0  0  0
   29.7310   48.8370   -6.1530 C   0  0  0  0  0  0  0  0  0  0  0  0
   30.2410   47.4780   -5.8020 C   0  0  0  0  0  0  0  0  0  0  0  0
   30.8490   46.8940   -6.8630 O   0  0  0  0  0  0  0  0  0  0  0  0
   30.1660   46.8890   -4.7420 O   0  0  0  0  0  0  0  0  0  0  0  0
  1  2  1  0
  2  3  2  0
  2  4  1  0
  4  5  1  0
  3  6  1  0
  5  7  2  0
  5  8  1  0
  6  8  2  0
  6  9  1  0
  9 10  2  0
  8 11  1  0
 10 12  1  0
 10 13  1  0
 11 13  2  0
 13 14  1  0
 14 15  1  0
 14 16  2  0
M  END
