mac-x0433-mac-x0204
     RDKit          3D

 21 22  0  0  0  0  0  0  0  0999 V2000
   28.5590   50.4020   -6.3640 C   0  0  0  0  0  0  0  0  0  0  0  0
   28.9610   51.4060   -5.3270 C   0  0  0  0  0  0  0  0  0  0  0  0
   29.1480   52.7270   -5.6720 C   0  0  0  0  0  0  0  0  0  0  0  0
   29.1290   50.9630   -4.0660 N   0  0  0  0  0  0  0  0  0  0  0  0
   29.4890   51.8530   -3.1350 C   0  0  0  0  0  0  0  0  0  0  0  0
   29.5180   53.5790   -4.6510 C   0  0  0  0  0  0  0  0  0  0  0  0
   29.7460   55.0330   -4.9280 C   0  0  0  0  0  0  0  0  0  0  0  0
   29.6770   51.4570   -1.8150 N   0  0  0  0  0  0  0  0  0  0  0  0
   29.6910   53.1530   -3.3820 N   0  0  0  0  0  0  0  0  0  0  0  0
   30.3210   50.1610   -1.6460 C   0  0  0  0  0  0  0  0  0  0  0  0
   29.4620   49.1830   -0.8300 C   0  0  0  0  0  0  0  0  0  0  0  0
   30.0200   47.8590   -0.8600 O   0  0  0  0  0  0  0  0  0  0  0  0
   30.9390   47.5750   -1.8280 C   0  0  0  0  0  0  0  0  0  0  0  0
   30.4270   46.9590   -2.9740 C   0  0  0  0  0  0  0  0  0  0  0  0
   32.3070   47.8310   -1.7960 C   0  0  0  0  0  0  0  0  0  0  0  0
   31.2880   46.6300   -4.0240 C   0  0  0  0  0  0  0  0  0  0  0  0
   33.1670   47.5230   -2.8020 N   0  0  0  0  0  0  0  0  0  0  0  0
   30.7600   45.9820   -5.2370 C   0  0  0  0  0  0  0  0  0  0  0  0
   32.6340   46.9290   -3.8950 C   0  0  0  0  0  0  0  0  0  0  0  0
   31.5990   46.0720   -6.2920 O   0  0  0  0  0  0  0  0  0  0  0  0
   29.6810   45.4240   -5.2790 O   0  0  0  0  0  0  0  0  0  0  0  0
  1  2  1  0
  2  3  2  0
  2  4  1  0
  4  5  2  0
  3  6  1  0
  6  7  1  0
  5  8  1  0
  5  9  1  0
  6  9  2  0
  8 10  1  0
 10 11  1  0
 11 12  1  0
 12 13  1  0
 13 14  2  0
 13 15  1  0
 14 16  1  0
 15 17  2  0
 16 18  1  0
 16 19  2  0
 17 19  1  0
 18 20  1  0
 18 21  2  0
M  END
