mac-x0433-mac-x0398
     RDKit          3D

 13 13  0  0  0  0  0  0  0  0999 V2000
   28.3330   50.3540   -6.1080 C   0  0  0  0  0  0  0  0  0  0  0  0
   29.4570   51.1790   -5.4660 C   0  0  1  0  0  0  0  0  0  0  0  0
   29.4670   52.6920   -5.8450 C   0  0  1  0  0  0  0  0  0  0  0  0
   29.5420   50.9340   -4.0100 N   0  0  0  0  0  0  0  0  0  0  0  0
   28.2420   53.2330   -6.4650 N   0  0  0  0  0  0  0  0  0  0  0  0
   29.9870   49.7140   -3.5380 C   0  0  0  0  0  0  0  0  0  0  0  0
   29.1530   51.9450   -3.0720 C   0  0  1  0  0  0  0  0  0  0  0  0
   30.0530   53.5910   -4.7270 C   0  0  1  0  0  0  0  0  0  0  0  0
   29.7450   55.0840   -4.9160 C   0  0  0  0  0  0  0  0  0  0  0  0
   29.6830   51.5690   -1.7900 N   0  0  0  0  0  0  0  0  0  0  0  0
   30.4730   49.4990   -2.4400 O   0  0  0  0  0  0  0  0  0  0  0  0
   29.8590   48.6700   -4.3850 O   0  0  0  0  0  0  0  0  0  0  0  0
   29.6550   53.2550   -3.3560 N   0  0  0  0  0  0  0  0  0  0  0  0
  2  1  1  1
  2  3  1  0
  2  4  1  0
  3  5  1  1
  4  6  1  0
  4  7  1  0
  3  8  1  0
  8  9  1  6
  7 10  1  1
  6 11  2  0
  6 12  1  0
  7 13  1  0
  8 13  1  0
M  END
