mac-x0411-mac-x0124
     RDKit          3D

 25 27  0  0  0  0  0  0  0  0999 V2000
   37.5760   44.0940   -3.5070 Cl  0  0  0  0  0  0  0  0  0  0  0  0
   36.7930   45.6180   -3.2850 C   0  0  0  0  0  0  0  0  0  0  0  0
   35.3970   45.7350   -3.3440 C   0  0  0  0  0  0  0  0  0  0  0  0
   37.6000   46.7320   -3.0420 C   0  0  0  0  0  0  0  0  0  0  0  0
   34.7020   44.5630   -3.5910 O   0  0  0  0  0  0  0  0  0  0  0  0
   34.8250   47.0180   -3.1470 C   0  0  0  0  0  0  0  0  0  0  0  0
   37.0290   47.9850   -2.8520 C   0  0  0  0  0  0  0  0  0  0  0  0
   33.1350   47.3560   -3.1780 Cl  0  0  0  0  0  0  0  0  0  0  0  0
   33.3370   44.6690   -3.9880 C   0  0  0  0  0  0  0  0  0  0  0  0
   35.6460   48.1250   -2.9050 C   0  0  0  0  0  0  0  0  0  0  0  0
   33.1610   45.1270   -5.4290 C   0  0  0  0  0  0  0  0  0  0  0  0
   31.8400   45.3550   -5.6680 O   0  0  0  0  0  0  0  0  0  0  0  0
   34.0630   45.2680   -6.2490 O   0  0  0  0  0  0  0  0  0  0  0  0
   31.0410   45.4630   -4.4740 C   0  0  0  0  0  0  0  0  0  0  0  0
   29.6320   45.9250   -4.8070 C   0  0  0  0  0  0  0  0  0  0  0  0
   29.5300   47.3640   -4.9990 N   0  0  0  0  0  0  0  0  0  0  0  0
   29.7990   48.3350   -4.0600 C   0  0  0  0  0  0  0  0  0  0  0  0
   29.1390   47.9500   -6.1700 C   0  0  0  0  0  0  0  0  0  0  0  0
   29.5710   49.5630   -4.6510 C   0  0  0  0  0  0  0  0  0  0  0  0
   29.1510   49.3250   -5.9920 C   0  0  0  0  0  0  0  0  0  0  0  0
   28.8040   47.2900   -7.2890 N   0  0  0  0  0  0  0  0  0  0  0  0
   28.7720   50.0990   -7.0980 C   0  0  0  0  0  0  0  0  0  0  0  0
   28.4630   48.1320   -8.2740 C   0  0  0  0  0  0  0  0  0  0  0  0
   28.7250   51.4850   -7.0910 N   0  0  0  0  0  0  0  0  0  0  0  0
   28.4280   49.4770   -8.2440 N   0  0  0  0  0  0  0  0  0  0  0  0
  1  2  1  0
  2  3  2  0
  2  4  1  0
  3  5  1  0
  3  6  1  0
  4  7  2  0
  6  8  1  0
  5  9  1  0
  6 10  2  0
  7 10  1  0
  9 11  1  0
 11 12  1  0
 11 13  2  0
 12 14  1  0
 14 15  1  0
 15 16  1  0
 16 17  1  0
 16 18  1  0
 17 19  2  0
 18 20  2  0
 19 20  1  0
 18 21  1  0
 20 22  1  0
 21 23  2  0
 22 24  1  0
 22 25  2  0
 23 25  1  0
M  END
