mac-x0116-mac-x0190
     RDKit          3D

 22 25  0  0  0  0  0  0  0  0999 V2000
   29.9140   53.6660   -7.2670 C   0  0  0  0  0  0  0  0  0  0  0  0
   29.5980   52.2450   -7.4480 N   0  0  0  0  0  0  0  0  0  0  0  0
   29.4280   51.3050   -6.4090 C   0  0  0  0  0  0  0  0  0  0  0  0
   31.2480   54.0850   -7.7880 C   0  0  0  0  0  0  0  0  0  0  0  0
   32.3270   53.3730   -7.3450 O   0  0  0  0  0  0  0  0  0  0  0  0
   31.6650   55.0750   -8.6540 C   0  0  0  0  0  0  0  0  0  0  0  0
   33.0740   54.9600   -8.7440 C   0  0  0  0  0  0  0  0  0  0  0  0
   33.4260   53.9100   -7.9290 C   0  0  0  0  0  0  0  0  0  0  0  0
   29.2830   51.6890   -4.9370 C   0  0  1  0  0  0  0  0  0  0  0  0
   29.3830   49.9940   -6.6940 C   0  0  0  0  0  0  0  0  0  0  0  0
   29.1040   50.4710   -4.0180 C   0  0  0  0  0  0  0  0  0  0  0  0
   29.2100   48.9520   -5.6890 C   0  0  0  0  0  0  0  0  0  0  0  0
   29.4830   49.3610   -7.9090 N   0  0  0  0  0  0  0  0  0  0  0  0
   30.4320   52.5340   -4.4650 C   0  0  0  0  0  0  0  0  0  0  0  0
   28.1370   52.5950   -4.6520 N   0  0  0  0  0  0  0  0  0  0  0  0
   29.0710   49.2210   -4.3690 N   0  0  0  0  0  0  0  0  0  0  0  0
   29.2080   47.7840   -6.2510 N   0  0  0  0  0  0  0  0  0  0  0  0
   29.3770   48.0980   -7.5940 C   0  0  0  0  0  0  0  0  0  0  0  0
   28.6850   53.6550   -4.1280 C   0  0  0  0  0  0  0  0  0  0  0  0
   30.0530   53.6730   -3.9900 N   0  0  0  0  0  0  0  0  0  0  0  0
   27.9100   54.8720   -3.6610 C   0  0  0  0  0  0  0  0  0  0  0  0
   28.3350   56.0470   -4.3360 O   0  0  0  0  0  0  0  0  0  0  0  0
  1  2  1  0
  2  3  1  0
  1  4  1  0
  4  5  1  0
  4  6  2  0
  6  7  1  0
  5  8  1  0
  7  8  2  0
  3  9  1  0
  3 10  2  0
  9 11  1  1
 10 12  1  0
 10 13  1  0
  9 14  1  0
  9 15  1  0
 11 16  2  0
 12 16  1  0
 12 17  2  0
 13 18  2  0
 17 18  1  0
 15 19  2  0
 14 20  2  0
 19 20  1  0
 19 21  1  0
 21 22  1  0
M  END
