mac-x0212-mac-x0439
     RDKit          3D

 26 28  0  0  0  0  0  0  0  0999 V2000
   30.0310   53.2830   -5.7360 C   0  0  0  0  0  0  0  0  0  0  0  0
   28.3080   53.4210   -5.3060 S   0  0  0  0  0  0  0  0  0  0  0  0
   27.5700   53.6170   -6.5370 O   0  0  0  0  0  0  0  0  0  0  0  0
   28.1800   54.3460   -4.2020 O   0  0  0  0  0  0  0  0  0  0  0  0
   27.9390   51.8580   -4.7980 N   0  0  0  0  0  0  0  0  0  0  0  0
   28.9750   50.9180   -4.5360 C   0  0  0  0  0  0  0  0  0  0  0  0
   29.1660   49.8660   -5.4350 C   0  0  0  0  0  0  0  0  0  0  0  0
   29.7940   51.0270   -3.4120 C   0  0  0  0  0  0  0  0  0  0  0  0
   30.1750   48.9260   -5.2070 C   0  0  0  0  0  0  0  0  0  0  0  0
   30.8040   50.0890   -3.1810 C   0  0  0  0  0  0  0  0  0  0  0  0
   31.0030   49.0290   -4.0770 C   0  0  0  0  0  0  0  0  0  0  0  0
   32.0590   48.0000   -3.8840 C   0  0  0  0  0  0  0  0  0  0  0  0
   33.1430   48.0480   -4.4490 O   0  0  0  0  0  0  0  0  0  0  0  0
   31.6360   47.0390   -3.0120 O   0  0  0  0  0  0  0  0  0  0  0  0
   30.2940   46.6030   -3.1310 C   0  0  0  0  0  0  0  0  0  0  0  0
   29.9970   45.1810   -3.5170 C   0  0  2  0  0  0  0  0  0  0  0  0
   29.2650   47.4480   -2.8940 C   0  0  0  0  0  0  0  0  0  0  0  0
   30.7960   44.4620   -4.5460 C   0  0  0  0  0  0  0  0  0  0  0  0
   28.7100   45.2110   -4.3210 C   0  0  0  0  0  0  0  0  0  0  0  0
   27.8850   46.9950   -3.0130 C   0  0  0  0  0  0  0  0  0  0  0  0
   30.0230   44.1840   -5.6100 C   0  0  0  0  0  0  0  0  0  0  0  0
   28.7260   44.6400   -5.4870 N   0  0  0  0  0  0  0  0  0  0  0  0
   27.5580   45.8910   -3.7100 C   0  0  0  0  0  0  0  0  0  0  0  0
   30.4970   43.4600   -6.8240 C   0  0  0  0  0  0  0  0  0  0  0  0
   30.6130   42.1290   -6.6280 O   0  0  0  0  0  0  0  0  0  0  0  0
   30.7740   43.9460   -7.9040 O   0  0  0  0  0  0  0  0  0  0  0  0
  1  2  1  0
  2  3  2  0
  2  4  2  0
  2  5  1  0
  5  6  1  0
  6  7  2  0
  6  8  1  0
  7  9  1  0
  8 10  2  0
  9 11  2  0
 10 11  1  0
 11 12  1  0
 12 13  2  0
 12 14  1  0
 14 15  1  0
 15 16  1  0
 15 17  2  0
 16 18  1  6
 16 19  1  0
 17 20  1  0
 18 21  2  0
 19 22  2  0
 21 22  1  0
 19 23  1  0
 20 23  2  0
 21 24  1  0
 24 25  1  0
 24 26  2  0
M  END
