mac-x0451-mac-x0148
     RDKit          3D

 25 29  0  0  0  0  0  0  0  0999 V2000
   28.9430   55.0270   -7.0440 N   0  0  0  0  0  0  0  0  0  0  0  0
   29.0870   53.6930   -6.9650 C   0  0  0  0  0  0  0  0  0  0  0  0
   29.8830   53.1050   -6.1110 N   0  0  0  0  0  0  0  0  0  0  0  0
   28.2190   52.6520   -8.0080 S   0  0  0  0  0  0  0  0  0  0  0  0
   29.8070   51.7390   -6.2830 C   0  0  0  0  0  0  0  0  0  0  0  0
   28.9560   51.2860   -7.2650 C   0  0  0  0  0  0  0  0  0  0  0  0
   30.6150   50.9300   -5.4360 C   0  0  0  0  0  0  0  0  0  0  0  0
   28.6150   49.9970   -7.7310 C   0  0  0  0  0  0  0  0  0  0  0  0
   30.4950   49.6110   -5.1860 C   0  0  0  0  0  0  0  0  0  0  0  0
   28.8210   48.8330   -7.0910 C   0  0  0  0  0  0  0  0  0  0  0  0
   29.4700   48.6040   -5.7210 C   0  0  2  0  0  0  0  0  0  0  0  0
   28.3660   47.7420   -7.7930 N   0  0  0  0  0  0  0  0  0  0  0  0
   28.4580   48.4610   -4.8050 F   0  0  0  0  0  0  0  0  0  0  0  0
   28.8950   46.5930   -7.5720 C   0  0  0  0  0  0  0  0  0  0  0  0
   30.2230   47.2250   -5.8010 C   0  0  0  0  0  0  0  0  0  0  0  0
   31.2960   46.9010   -4.9310 N   0  0  0  0  0  0  0  0  0  0  0  0
   29.8960   46.3290   -6.6940 N   0  0  0  0  0  0  0  0  0  0  0  0
   30.9910   46.4780   -3.5300 C   0  0  2  0  0  0  0  0  0  0  0  0
   32.5010   46.3030   -5.5190 C   0  0  0  0  0  0  0  0  0  0  0  0
   30.1770   47.5280   -2.7520 C   0  0  0  0  0  0  0  0  0  0  0  0
   32.1920   46.2920   -2.5860 C   0  0  2  0  0  0  0  0  0  0  0  0
   33.6870   46.4790   -4.5910 C   0  0  0  0  0  0  0  0  0  0  0  0
   32.3740   47.7010   -2.0600 C   0  0  0  0  0  0  0  0  0  0  0  0
   31.0560   48.1780   -1.8080 O   0  0  0  0  0  0  0  0  0  0  0  0
   33.4550   45.7760   -3.2660 C   0  0  0  0  0  0  0  0  0  0  0  0
  1  2  1  0
  2  3  2  0
  2  4  1  0
  3  5  1  0
  4  6  1  0
  5  6  2  0
  5  7  1  0
  6  8  1  0
  7  9  2  0
  8 10  2  0
  9 11  1  0
 10 11  1  0
 10 12  1  0
 11 13  1  1
 12 14  2  0
 11 15  1  0
 15 16  1  0
 14 17  1  0
 15 17  2  0
 16 18  1  0
 16 19  1  0
 18 20  1  1
 18 21  1  0
 19 22  1  0
 21 23  1  6
 20 24  1  0
 23 24  1  0
 21 25  1  0
 22 25  1  0
M  END
