mac-x0567-mac-x0433
     RDKit          3D

 19 21  0  0  0  0  0  0  0  0999 V2000
   29.9780   46.9080   -9.1150 N   0  0  0  0  0  0  0  0  0  0  0  0
   29.4940   47.9230   -8.3610 C   0  0  0  0  0  0  0  0  0  0  0  0
   28.7540   48.9430   -8.9010 N   0  0  0  0  0  0  0  0  0  0  0  0
   29.5660   48.2280   -7.0270 C   0  0  0  0  0  0  0  0  0  0  0  0
   28.3490   49.8780   -8.0210 N   0  0  0  0  0  0  0  0  0  0  0  0
   28.8390   49.4640   -6.8320 C   0  0  0  0  0  0  0  0  0  0  0  0
   30.2220   47.4810   -6.0510 C   0  0  0  0  0  0  0  0  0  0  0  0
   28.7220   50.0590   -5.5500 C   0  0  0  0  0  0  0  0  0  0  0  0
   30.0990   48.0840   -4.7850 C   0  0  0  0  0  0  0  0  0  0  0  0
   27.9690   51.3420   -5.3230 C   0  0  0  0  0  0  0  0  0  0  0  0
   29.3900   49.3030   -4.5430 C   0  0  0  0  0  0  0  0  0  0  0  0
   28.6690   52.4150   -4.5140 C   0  0  0  0  0  0  0  0  0  0  0  0
   28.8500   52.1790   -3.1920 N   0  0  0  0  0  0  0  0  0  0  0  0
   29.1000   53.5870   -5.1160 C   0  0  0  0  0  0  0  0  0  0  0  0
   29.4680   53.1300   -2.4820 C   0  0  0  0  0  0  0  0  0  0  0  0
   29.7270   54.5070   -4.2990 C   0  0  0  0  0  0  0  0  0  0  0  0
   30.2270   55.8050   -4.8610 C   0  0  0  0  0  0  0  0  0  0  0  0
   29.6620   52.9070   -1.1360 N   0  0  0  0  0  0  0  0  0  0  0  0
   29.9150   54.2870   -2.9780 N   0  0  0  0  0  0  0  0  0  0  0  0
  1  2  1  0
  2  3  1  0
  2  4  2  0
  3  5  1  0
  4  6  1  0
  5  6  2  0
  4  7  1  0
  6  8  1  0
  7  9  2  0
  8 10  1  0
  8 11  2  0
  9 11  1  0
 10 12  1  0
 12 13  2  0
 12 14  1  0
 13 15  1  0
 14 16  2  0
 16 17  1  0
 15 18  1  0
 15 19  2  0
 16 19  1  0
M  END
