mac-x0387-mac-x0472
     RDKit          3D

 21 23  0  0  0  0  0  0  0  0999 V2000
   28.3730   50.6250   -8.7110 N   0  0  0  0  0  0  0  0  0  0  0  0
   29.0600   49.7930   -7.8190 C   0  0  0  0  0  0  0  0  0  0  0  0
   29.8670   48.8860   -8.3920 N   0  0  0  0  0  0  0  0  0  0  0  0
   28.8950   49.9160   -6.4160 C   0  0  0  0  0  0  0  0  0  0  0  0
   29.6220   49.0370   -5.5770 C   0  0  0  0  0  0  0  0  0  0  0  0
   30.5460   48.0600   -7.5750 C   0  0  0  0  0  0  0  0  0  0  0  0
   28.0390   50.8700   -5.8200 C   0  0  0  0  0  0  0  0  0  0  0  0
   30.4710   48.0870   -6.1860 C   0  0  0  0  0  0  0  0  0  0  0  0
   29.4570   49.1520   -4.1740 C   0  0  0  0  0  0  0  0  0  0  0  0
   27.8970   50.9630   -4.4370 C   0  0  0  0  0  0  0  0  0  0  0  0
   31.2430   47.1640   -5.4090 N   0  0  0  0  0  0  0  0  0  0  0  0
   28.6070   50.1030   -3.6140 C   0  0  0  0  0  0  0  0  0  0  0  0
   32.3750   47.7600   -4.3030 S   0  0  0  0  0  0  0  0  0  0  0  0
   31.7820   47.6240   -2.9880 O   0  0  0  0  0  0  0  0  0  0  0  0
   33.6720   47.1950   -4.5900 O   0  0  0  0  0  0  0  0  0  0  0  0
   32.3960   49.4900   -4.7100 C   0  0  0  0  0  0  0  0  0  0  0  0
   33.0510   49.9080   -5.8700 C   0  0  0  0  0  0  0  0  0  0  0  0
   31.7610   50.4140   -3.8780 C   0  0  0  0  0  0  0  0  0  0  0  0
   33.0650   51.2620   -6.1970 C   0  0  0  0  0  0  0  0  0  0  0  0
   31.7830   51.7660   -4.2160 C   0  0  0  0  0  0  0  0  0  0  0  0
   32.4330   52.1880   -5.3740 C   0  0  0  0  0  0  0  0  0  0  0  0
  1  2  1  0
  2  3  2  0
  2  4  1  0
  4  5  2  0
  3  6  1  0
  4  7  1  0
  5  8  1  0
  6  8  2  0
  5  9  1  0
  7 10  2  0
  8 11  1  0
  9 12  2  0
 10 12  1  0
 13 11  1  0
 13 14  2  0
 13 15  2  0
 13 16  1  0
 16 17  2  0
 16 18  1  0
 17 19  1  0
 18 20  2  0
 19 21  2  0
 20 21  1  0
M  END
