mac-x0132-mac-x0124
     RDKit          3D

 21 24  0  0  0  0  0  0  0  0999 V2000
   28.6390   51.5290   -6.9680 N   0  0  0  0  0  0  0  0  0  0  0  0
   29.0860   52.3820   -5.9230 C   0  0  0  0  0  0  0  0  0  0  0  0
   29.5930   53.5930   -6.2330 N   0  0  0  0  0  0  0  0  0  0  0  0
   28.7350   50.1190   -7.0420 C   0  0  0  0  0  0  0  0  0  0  0  0
   28.9900   51.9430   -4.5850 C   0  0  0  0  0  0  0  0  0  0  0  0
   29.5540   49.3550   -6.1710 C   0  0  0  0  0  0  0  0  0  0  0  0
   28.0260   49.4350   -7.9790 N   0  0  0  0  0  0  0  0  0  0  0  0
   29.4640   52.8400   -3.6170 C   0  0  0  0  0  0  0  0  0  0  0  0
   30.0060   54.3560   -5.2190 C   0  0  0  0  0  0  0  0  0  0  0  0
   28.4660   50.6910   -4.1690 C   0  0  0  0  0  0  0  0  0  0  0  0
   30.4410   49.6150   -5.0820 C   0  0  0  0  0  0  0  0  0  0  0  0
   29.5520   47.9730   -6.3470 C   0  0  0  0  0  0  0  0  0  0  0  0
   28.1230   48.0940   -8.0370 C   0  0  0  0  0  0  0  0  0  0  0  0
   29.9670   54.0390   -3.9200 N   0  0  0  0  0  0  0  0  0  0  0  0
   29.4060   52.4650   -2.2800 C   0  0  0  0  0  0  0  0  0  0  0  0
   28.4200   50.3400   -2.8230 C   0  0  0  0  0  0  0  0  0  0  0  0
   30.3900   47.4200   -5.4120 N   0  0  0  0  0  0  0  0  0  0  0  0
   30.9390   48.4080   -4.6370 C   0  0  0  0  0  0  0  0  0  0  0  0
   28.8570   47.2810   -7.2640 N   0  0  0  0  0  0  0  0  0  0  0  0
   30.6470   46.0050   -5.2780 C   0  0  0  0  0  0  0  0  0  0  0  0
   28.8940   51.2320   -1.8750 C   0  0  0  0  0  0  0  0  0  0  0  0
  1  2  1  0
  2  3  2  0
  1  4  1  0
  2  5  1  0
  4  6  1  0
  4  7  2  0
  5  8  2  0
  3  9  1  0
  5 10  1  0
  6 11  1  0
  6 12  2  0
  7 13  1  0
  8 14  1  0
  9 14  2  0
  8 15  1  0
 10 16  2  0
 12 17  1  0
 11 18  2  0
 17 18  1  0
 12 19  1  0
 13 19  2  0
 17 20  1  0
 15 21  2  0
 16 21  1  0
M  END
