mac-x0437-mac-x0415
     RDKit          3D

 24 27  0  0  0  0  0  0  0  0999 V2000
   30.4420   45.8220   -6.4040 O   0  0  0  0  0  0  0  0  0  0  0  0
   31.6800   45.9570   -5.9020 C   0  0  0  0  0  0  0  0  0  0  0  0
   32.3580   46.9390   -6.2060 O   0  0  0  0  0  0  0  0  0  0  0  0
   32.2080   44.8610   -4.9650 C   0  0  1  0  0  0  0  0  0  0  0  0
   33.7600   44.8470   -5.0910 C   0  0  0  0  0  0  0  0  0  0  0  0
   31.6970   44.6670   -3.5000 C   0  0  2  0  0  0  0  0  0  0  0  0
   34.4990   45.5090   -4.0280 N   0  0  0  0  0  0  0  0  0  0  0  0
   30.7780   43.4140   -3.4080 C   0  0  0  0  0  0  0  0  0  0  0  0
   30.8960   45.7350   -2.7010 C   0  0  2  0  0  0  0  0  0  0  0  0
   34.4080   46.8340   -3.6910 C   0  0  0  0  0  0  0  0  0  0  0  0
   35.4140   44.9170   -3.1870 C   0  0  0  0  0  0  0  0  0  0  0  0
   29.6100   43.8410   -2.5950 N   0  0  0  0  0  0  0  0  0  0  0  0
   29.4740   45.2670   -2.9130 C   0  0  1  0  0  0  0  0  0  0  0  0
   31.0200   47.2470   -2.9020 C   0  0  0  0  0  0  0  0  0  0  0  0
   35.2000   47.1390   -2.6890 N   0  0  0  0  0  0  0  0  0  0  0  0
   35.8330   45.9600   -2.3630 C   0  0  0  0  0  0  0  0  0  0  0  0
   35.9080   43.6120   -3.0640 C   0  0  0  0  0  0  0  0  0  0  0  0
   28.5020   46.0400   -2.0980 C   0  0  0  0  0  0  0  0  0  0  0  0
   30.0950   47.9870   -1.9150 C   0  0  1  0  0  0  0  0  0  0  0  0
   29.6910   49.7580   -2.6280 Br  0  0  0  0  0  0  0  0  0  0  0  0
   36.7850   45.7080   -1.3650 C   0  0  0  0  0  0  0  0  0  0  0  0
   36.8570   43.3780   -2.0610 C   0  0  0  0  0  0  0  0  0  0  0  0
   28.7850   47.2810   -1.6450 C   0  0  0  0  0  0  0  0  0  0  0  0
   37.2900   44.4090   -1.2230 C   0  0  0  0  0  0  0  0  0  0  0  0
  1  2  1  0
  2  3  2  0
  2  4  1  0
  4  5  1  1
  4  6  1  0
  5  7  1  0
  6  8  1  6
  6  9  1  0
  7 10  1  0
  7 11  1  0
  8 12  1  0
  9 13  1  0
 12 13  1  0
  9 14  1  6
 10 15  2  0
 11 16  2  0
 15 16  1  0
 11 17  1  0
 13 18  1  1
 14 19  1  0
 19 20  1  6
 16 21  1  0
 17 22  2  0
 18 23  2  0
 19 23  1  0
 21 24  2  0
 22 24  1  0
M  END
