mac-x0510-mac-x0116
     RDKit          3D

 16 18  0  0  0  0  0  0  0  0999 V2000
   29.9830   52.8670   -5.5960 N   0  0  0  0  0  0  0  0  0  0  0  0
   29.2800   51.8530   -5.9720 C   0  0  0  0  0  0  0  0  0  0  0  0
   28.6880   51.2040   -4.9160 N   0  0  0  0  0  0  0  0  0  0  0  0
   30.7700   53.5830   -6.4390 C   0  0  0  0  0  0  0  0  0  0  0  0
   29.0780   51.2810   -7.2070 N   0  0  0  0  0  0  0  0  0  0  0  0
   32.1300   53.5590   -6.2660 O   0  0  0  0  0  0  0  0  0  0  0  0
   30.5110   54.4030   -7.5300 C   0  0  0  0  0  0  0  0  0  0  0  0
   28.9770   49.9470   -7.2230 C   0  0  0  0  0  0  0  0  0  0  0  0
   28.9670   49.8600   -4.7770 C   0  0  0  0  0  0  0  0  0  0  0  0
   31.7570   54.8770   -8.0180 C   0  0  0  0  0  0  0  0  0  0  0  0
   32.7120   54.3280   -7.2050 C   0  0  0  0  0  0  0  0  0  0  0  0
   29.2240   49.3010   -3.7180 O   0  0  0  0  0  0  0  0  0  0  0  0
   28.9250   49.2340   -6.0570 C   0  0  0  0  0  0  0  0  0  0  0  0
   28.9150   49.1450   -8.3150 N   0  0  0  0  0  0  0  0  0  0  0  0
   28.8330   47.9290   -6.4400 N   0  0  0  0  0  0  0  0  0  0  0  0
   28.8300   47.9240   -7.8140 C   0  0  0  0  0  0  0  0  0  0  0  0
  1  2  2  3
  2  3  1  0
  1  4  1  0
  2  5  1  0
  4  6  1  0
  4  7  2  0
  5  8  1  0
  3  9  1  0
  7 10  1  0
  6 11  1  0
 10 11  2  0
  9 12  2  0
  8 13  2  0
  9 13  1  0
  8 14  1  0
 13 15  1  0
 14 16  2  0
 15 16  1  0
M  END
