mac-x0341-mac-x0568
     RDKit          3D

 16 17  0  0  0  0  0  0  0  0999 V2000
   29.4140   54.4990   -7.6660 N   0  0  0  0  0  0  0  0  0  0  0  0
   29.0430   53.4490   -6.8800 C   0  0  0  0  0  0  0  0  0  0  0  0
   28.7370   52.3570   -7.4970 N   0  0  0  0  0  0  0  0  0  0  0  0
   29.0050   53.5760   -5.4960 N   0  0  0  0  0  0  0  0  0  0  0  0
   29.1440   54.8820   -4.8660 C   0  0  0  0  0  0  0  0  0  0  0  0
   29.0800   52.4540   -4.6670 C   0  0  0  0  0  0  0  0  0  0  0  0
   28.3310   51.2380   -6.6590 C   0  0  2  0  0  0  0  0  0  0  0  0
   29.0800   52.5290   -3.4280 O   0  0  0  0  0  0  0  0  0  0  0  0
   29.1630   51.1170   -5.3900 C   0  0  1  0  0  0  0  0  0  0  0  0
   28.2310   49.9220   -7.3850 C   0  0  0  0  0  0  0  0  0  0  0  0
   30.6270   50.7220   -5.6910 C   0  0  0  0  0  0  0  0  0  0  0  0
   28.1040   48.7980   -6.6540 C   0  0  0  0  0  0  0  0  0  0  0  0
   28.5610   49.9700   -4.5710 C   0  0  0  0  0  0  0  0  0  0  0  0
   31.6200   51.3030   -5.2560 O   0  0  0  0  0  0  0  0  0  0  0  0
   30.8230   49.6320   -6.5030 N   0  0  0  0  0  0  0  0  0  0  0  0
   28.0650   48.8850   -5.2030 C   0  0  0  0  0  0  0  0  0  0  0  0
  1  2  1  0
  2  3  2  0
  2  4  1  0
  4  5  1  0
  4  6  1  0
  3  7  1  0
  6  8  2  0
  6  9  1  0
  7  9  1  0
  7 10  1  6
  9 11  1  6
 10 12  2  0
  9 13  1  0
 11 14  2  0
 11 15  1  0
 12 16  1  0
 13 16  2  0
M  END
