mac-x0411-mac-x0302
     RDKit          3D

 26 27  0  0  0  0  0  0  0  0999 V2000
   36.9640   43.9800   -4.3110 Cl  0  0  0  0  0  0  0  0  0  0  0  0
   36.8230   45.5360   -3.4820 C   0  0  0  0  0  0  0  0  0  0  0  0
   35.5650   46.0770   -3.1980 C   0  0  0  0  0  0  0  0  0  0  0  0
   38.0080   46.1550   -3.1480 C   0  0  0  0  0  0  0  0  0  0  0  0
   34.4430   45.4500   -3.5370 O   0  0  0  0  0  0  0  0  0  0  0  0
   35.5660   47.3080   -2.5380 C   0  0  0  0  0  0  0  0  0  0  0  0
   38.0000   47.3760   -2.4960 C   0  0  0  0  0  0  0  0  0  0  0  0
   34.0620   48.1330   -2.0980 Cl  0  0  0  0  0  0  0  0  0  0  0  0
   33.8960   44.6470   -4.4750 C   0  0  0  0  0  0  0  0  0  0  0  0
   36.7620   47.9020   -2.2180 C   0  0  0  0  0  0  0  0  0  0  0  0
   32.9600   45.1310   -5.4800 C   0  0  0  0  0  0  0  0  0  0  0  0
   31.5710   45.0420   -5.4860 N   0  0  0  0  0  0  0  0  0  0  0  0
   33.4650   45.7150   -6.5190 O   0  0  0  0  0  0  0  0  0  0  0  0
   30.6860   45.8540   -5.0750 C   0  0  0  0  0  0  0  0  0  0  0  0
   29.3570   45.5750   -5.1720 O   0  0  0  0  0  0  0  0  0  0  0  0
   31.1000   47.1800   -4.4540 C   0  0  0  0  0  0  0  0  0  0  0  0
   30.1100   48.0720   -4.2910 N   0  0  0  0  0  0  0  0  0  0  0  0
   29.1250   48.9830   -4.1150 C   0  0  0  0  0  0  0  0  0  0  0  0
   28.1040   48.7860   -3.3440 O   0  0  0  0  0  0  0  0  0  0  0  0
   29.0670   50.3100   -4.7620 C   0  0  0  0  0  0  0  0  0  0  0  0
   29.3540   51.4740   -4.0500 C   0  0  0  0  0  0  0  0  0  0  0  0
   28.7300   50.4950   -6.0890 C   0  0  0  0  0  0  0  0  0  0  0  0
   29.3180   52.7420   -4.5930 C   0  0  0  0  0  0  0  0  0  0  0  0
   28.6830   51.7640   -6.6740 C   0  0  0  0  0  0  0  0  0  0  0  0
   29.6260   53.8690   -3.7950 O   0  0  0  0  0  0  0  0  0  0  0  0
   28.9790   52.8680   -5.9080 C   0  0  0  0  0  0  0  0  0  0  0  0
  1  2  1  0
  2  3  2  0
  2  4  1  0
  3  5  1  0
  3  6  1  0
  4  7  2  0
  6  8  1  0
  5  9  1  0
  6 10  2  0
  7 10  1  0
  9 11  1  0
 11 12  1  0
 11 13  2  0
 12 14  2  3
 14 15  1  0
 14 16  1  0
 16 17  1  0
 17 18  1  0
 18 19  2  0
 18 20  1  0
 20 21  2  0
 20 22  1  0
 21 23  1  0
 22 24  2  0
 23 25  1  0
 23 26  2  0
 24 26  1  0
M  END
