mac-x0546-mac-x0360
     RDKit          3D

 29 31  0  0  0  0  0  0  0  0999 V2000
   30.8830   49.1020   -0.4420 C   0  0  0  0  0  0  0  0  0  0  0  0
   29.7400   48.2890   -0.6970 O   0  0  0  0  0  0  0  0  0  0  0  0
   29.9530   47.0270   -1.1910 C   0  0  0  0  0  0  0  0  0  0  0  0
   30.9530   46.6200   -2.0100 C   0  0  0  0  0  0  0  0  0  0  0  0
   28.9460   46.0710   -0.7390 C   0  0  0  0  0  0  0  0  0  0  0  0
   31.0110   45.1860   -2.4350 C   0  0  1  0  0  0  0  0  0  0  0  0
   28.7210   44.8970   -1.3580 C   0  0  0  0  0  0  0  0  0  0  0  0
   29.5840   44.6760   -2.5260 C   0  0  0  0  0  0  0  0  0  0  0  0
   31.4110   44.7680   -3.8200 C   0  0  0  0  0  0  0  0  0  0  0  0
   32.7650   44.9950   -4.4100 C   0  0  0  0  0  0  0  0  0  0  0  0
   29.2370   44.0910   -3.6330 N   0  0  0  0  0  0  0  0  0  0  0  0
   30.3670   44.1610   -4.4070 C   0  0  0  0  0  0  0  0  0  0  0  0
   32.7360   45.9890   -5.5630 C   0  0  0  0  0  0  0  0  0  0  0  0
   31.6670   46.5920   -5.9320 N   0  0  0  0  0  0  0  0  0  0  0  0
   33.9220   46.1890   -6.1680 O   0  0  0  0  0  0  0  0  0  0  0  0
   31.7150   47.5400   -7.0450 C   0  0  0  0  0  0  0  0  0  0  0  0
   30.4010   48.3340   -7.0400 C   0  0  0  0  0  0  0  0  0  0  0  0
   30.3430   49.2560   -5.8970 N   0  0  0  0  0  0  0  0  0  0  0  0
   29.7160   50.7950   -6.1060 S   0  0  0  0  0  0  0  0  0  0  0  0
   28.9600   51.0950   -4.9120 O   0  0  0  0  0  0  0  0  0  0  0  0
   29.1230   50.8780   -7.4210 O   0  0  0  0  0  0  0  0  0  0  0  0
   31.1690   51.8220   -6.0870 C   0  0  0  0  0  0  0  0  0  0  0  0
   32.3800   51.2980   -5.6210 C   0  0  0  0  0  0  0  0  0  0  0  0
   31.0860   53.1400   -6.5380 C   0  0  0  0  0  0  0  0  0  0  0  0
   33.5110   52.1150   -5.6100 C   0  0  0  0  0  0  0  0  0  0  0  0
   32.2290   53.9390   -6.5210 C   0  0  0  0  0  0  0  0  0  0  0  0
   32.1440   55.5630   -7.0750 Cl  0  0  0  0  0  0  0  0  0  0  0  0
   35.0100   51.4900   -5.0390 Cl  0  0  0  0  0  0  0  0  0  0  0  0
   33.4430   53.4320   -6.0570 C   0  0  0  0  0  0  0  0  0  0  0  0
  1  2  1  0
  2  3  1  0
  3  4  2  0
  3  5  1  0
  6  4  1  6
  5  7  2  0
  6  8  1  0
  7  8  1  0
  6  9  1  0
  9 10  1  0
  8 11  2  0
  9 12  2  0
 11 12  1  0
 10 13  1  0
 13 14  2  3
 13 15  1  0
 14 16  1  0
 16 17  1  0
 17 18  1  0
 19 18  1  0
 19 20  2  0
 19 21  2  0
 19 22  1  0
 22 23  2  0
 22 24  1  0
 23 25  1  0
 24 26  2  0
 26 27  1  0
 25 28  1  0
 25 29  2  0
 26 29  1  0
M  END
