mac-x0306-mac-x0402
     RDKit          3D

 16 18  0  0  0  0  0  0  0  0999 V2000
   30.4170   48.1420   -3.9440 Cl  0  0  0  0  0  0  0  0  0  0  0  0
   30.1420   49.8080   -4.2730 N   0  0  0  0  0  0  0  0  0  0  0  0
   29.4530   50.5290   -3.3030 C   0  0  0  0  0  0  0  0  0  0  0  0
   30.1070   50.1920   -5.6010 C   0  0  0  0  0  0  0  0  0  0  0  0
   28.8820   51.7330   -3.5530 C   0  0  0  0  0  0  0  0  0  0  0  0
   29.5730   51.3780   -5.9420 C   0  0  0  0  0  0  0  0  0  0  0  0
   28.9840   52.3470   -4.9440 C   0  0  2  0  0  0  0  0  0  0  0  0
   29.4010   52.0690   -7.4970 S   0  0  0  0  0  0  0  0  0  0  0  0
   29.5480   53.7600   -4.9560 C   0  0  0  0  0  0  0  0  0  0  0  0
   27.8450   52.5980   -6.8640 C   0  0  0  0  0  0  0  0  0  0  0  0
   27.6730   52.6780   -5.5720 N   0  0  0  0  0  0  0  0  0  0  0  0
   26.8940   52.8880   -7.7720 N   0  0  0  0  0  0  0  0  0  0  0  0
   29.3200   54.5550   -6.0580 N   0  0  0  0  0  0  0  0  0  0  0  0
   30.2460   54.4190   -4.0520 N   0  0  0  0  0  0  0  0  0  0  0  0
   30.4660   55.6610   -4.5950 C   0  0  0  0  0  0  0  0  0  0  0  0
   29.8970   55.7630   -5.8400 C   0  0  0  0  0  0  0  0  0  0  0  0
  1  2  1  0
  2  3  1  0
  2  4  1  0
  3  5  2  0
  4  6  2  0
  5  7  1  0
  6  7  1  0
  6  8  1  0
  7  9  1  1
  8 10  1  0
  7 11  1  0
 10 11  2  0
 10 12  1  0
  9 13  1  0
  9 14  2  0
 14 15  1  0
 13 16  1  0
 15 16  2  0
M  END
