mac-x0451-mac-x0567
     RDKit          3D

 16 18  0  0  0  0  0  0  0  0999 V2000
   29.1330   54.4010   -7.8460 N   0  0  0  0  0  0  0  0  0  0  0  0
   29.3000   53.2100   -7.2540 C   0  0  0  0  0  0  0  0  0  0  0  0
   29.5850   53.0560   -5.9770 N   0  0  0  0  0  0  0  0  0  0  0  0
   29.1400   51.7590   -8.1630 S   0  0  0  0  0  0  0  0  0  0  0  0
   29.6740   51.7210   -5.6990 C   0  0  0  0  0  0  0  0  0  0  0  0
   29.4620   50.8730   -6.7470 C   0  0  0  0  0  0  0  0  0  0  0  0
   29.9630   51.2010   -4.4020 C   0  0  0  0  0  0  0  0  0  0  0  0
   29.4920   49.3850   -6.6300 C   0  0  2  0  0  0  0  0  0  0  0  0
   30.2800   49.8970   -4.2290 C   0  0  0  0  0  0  0  0  0  0  0  0
   30.3480   48.9320   -5.4000 C   0  0  1  0  0  0  0  0  0  0  0  0
   29.8200   48.6920   -7.9670 C   0  0  1  0  0  0  0  0  0  0  0  0
   28.0560   48.9780   -6.5250 C   0  0  0  0  0  0  0  0  0  0  0  0
   30.0130   47.6750   -4.9960 F   0  0  0  0  0  0  0  0  0  0  0  0
   29.8430   47.2340   -8.0360 N   0  0  0  0  0  0  0  0  0  0  0  0
   28.6390   49.0500   -8.7580 N   0  0  0  0  0  0  0  0  0  0  0  0
   27.5810   49.4640   -7.8300 N   0  0  0  0  0  0  0  0  0  0  0  0
  1  2  1  0
  2  3  2  0
  2  4  1  0
  3  5  1  0
  4  6  1  0
  5  6  2  0
  5  7  1  0
  6  8  1  0
  7  9  2  0
  8 10  1  0
  9 10  1  0
  8 11  1  0
  8 12  1  1
 10 13  1  1
 11 14  1  1
 11 15  1  0
 12 16  1  0
 15 16  1  0
M  END
