MAC-194_0_A_Î±
     RDKit          3D

 12 13  0  0  0  0  0  0  0  0999 V2000
   -7.5470   14.6900    3.0960 N   0  0  0  0  0  0  0  0  0  0  0  0
   -6.8580   14.6910    1.8180 C   0  0  0  0  0  0  0  0  0  0  0  0
   -5.3950   14.6020    1.7690 N   0  0  0  0  0  0  0  0  0  0  0  0
   -4.6950   14.6070    0.4520 C   0  0  0  0  0  0  0  0  0  0  0  0
   -3.2860   14.5140    0.4090 C   0  0  0  0  0  0  0  0  0  0  0  0
   -2.6280   14.5170   -0.8230 C   0  0  0  0  0  0  0  0  0  0  0  0
   -3.3630   14.6080   -2.0120 C   0  0  0  0  0  0  0  0  0  0  0  0
   -4.7520   14.7010   -1.9660 C   0  0  0  0  0  0  0  0  0  0  0  0
   -5.4180   14.6970   -0.7180 C   0  0  0  0  0  0  0  0  0  0  0  0
   -6.9460   14.7860   -0.6780 C   0  0  0  0  0  0  0  0  0  0  0  0
   -7.5600   14.8680   -1.6930 O   0  0  0  0  0  0  0  0  0  0  0  0
   -7.6220   14.7840    0.5920 N   0  0  0  0  0  0  0  0  0  0  0  0
  1  2  1  0
  2  3  2  0
  2 12  1  0
  3  4  1  0
 12 10  1  0
  4  5  2  0
  4  9  1  0
  5  6  1  0
  9  8  2  0
  9 10  1  0
  6  7  2  0
  7  8  1  0
 10 11  2  0
M  END
