mac-x0193-mac-x0496
     RDKit          3D

 36 38  0  0  0  0  0  0  0  0999 V2000
   34.3870   45.1290   -6.4710 O   0  0  0  0  0  0  0  0  0  0  0  0
   33.2070   45.2400   -5.8350 C   0  0  0  0  0  0  0  0  0  0  0  0
   32.1880   45.7880   -6.3970 N   0  0  0  0  0  0  0  0  0  0  0  0
   33.2010   44.6740   -4.4210 C   0  0  0  0  0  0  0  0  0  0  0  0
   34.5850   44.6200   -3.9670 N   0  0  0  0  0  0  0  0  0  0  0  0
   30.9120   45.9360   -5.6870 C   0  0  0  0  0  0  0  0  0  0  0  0
   35.0100   43.7500   -2.9900 C   0  0  0  0  0  0  0  0  0  0  0  0
   30.3440   47.3340   -5.9450 C   0  0  0  0  0  0  0  0  0  0  0  0
   34.4960   42.6490   -2.8180 O   0  0  0  0  0  0  0  0  0  0  0  0
   36.0450   44.2740   -2.2620 N   0  0  0  0  0  0  0  0  0  0  0  0
   29.0950   47.6890   -5.1380 C   0  0  0  0  0  0  0  0  0  0  0  0
   29.4360   48.2930   -3.8470 N   0  0  0  0  0  0  0  0  0  0  0  0
   37.2270   43.5440   -1.7880 C   0  0  0  0  0  0  0  0  0  0  0  0
   29.4300   49.5650   -3.6190 C   0  0  0  0  0  0  0  0  0  0  0  0
   37.5370   42.2970   -2.6260 C   0  0  0  0  0  0  0  0  0  0  0  0
   37.1420   43.2080   -0.2920 C   0  0  0  0  0  0  0  0  0  0  0  0
   29.7490   50.0450   -2.4010 O   0  0  0  0  0  0  0  0  0  0  0  0
   38.7240   41.4950   -2.0870 C   0  0  0  0  0  0  0  0  0  0  0  0
   38.3590   42.4520    0.2310 C   0  0  0  0  0  0  0  0  0  0  0  0
   29.0910   50.6380   -4.5980 C   0  0  0  0  0  0  0  0  0  0  0  0
   39.3710   42.1520   -0.8690 C   0  0  0  0  0  0  0  0  0  0  0  0
   28.6090   50.3190   -5.8800 C   0  0  0  0  0  0  0  0  0  0  0  0
   29.2510   51.9840   -4.2430 C   0  0  0  0  0  0  0  0  0  0  0  0
   28.2920   51.3330   -6.7900 C   0  0  0  0  0  0  0  0  0  0  0  0
   28.9320   52.9970   -5.1580 C   0  0  0  0  0  0  0  0  0  0  0  0
   29.1170   54.4130   -4.7330 C   0  0  0  0  0  0  0  0  0  0  0  0
   28.4510   52.6740   -6.4330 C   0  0  0  0  0  0  0  0  0  0  0  0
   29.0510   55.3700   -5.7280 N   0  0  0  0  0  0  0  0  0  0  0  0
   29.3140   54.6640   -3.5500 O   0  0  0  0  0  0  0  0  0  0  0  0
   29.2080   56.7790   -5.3820 C   0  0  0  0  0  0  0  0  0  0  0  0
   27.8840   57.4570   -5.3190 C   0  0  0  0  0  0  0  0  0  0  0  0
   27.6530   58.2580   -4.2340 O   0  0  0  0  0  0  0  0  0  0  0  0
   26.8670   57.4140   -6.1550 N   0  0  0  0  0  0  0  0  0  0  0  0
   25.9560   58.2370   -5.5480 C   0  0  0  0  0  0  0  0  0  0  0  0
   26.3640   58.7770   -4.3920 N   0  0  0  0  0  0  0  0  0  0  0  0
   24.6260   58.5020   -6.1290 C   0  0  0  0  0  0  0  0  0  0  0  0
  1  2  1  0
  2  3  2  3
  2  4  1  0
  4  5  1  0
  3  6  1  0
  5  7  1  0
  6  8  1  0
  7  9  2  0
  7 10  1  0
  8 11  1  0
 11 12  1  0
 10 13  1  0
 12 14  2  3
 13 15  1  0
 13 16  1  0
 14 17  1  0
 15 18  1  0
 16 19  1  0
 14 20  1  0
 18 21  1  0
 19 21  1  0
 20 22  2  0
 20 23  1  0
 22 24  1  0
 23 25  2  0
 25 26  1  0
 24 27  2  0
 25 27  1  0
 26 28  1  0
 26 29  2  0
 28 30  1  0
 30 31  1  0
 31 32  1  0
 31 33  2  0
 33 34  1  0
 32 35  1  0
 34 35  2  0
 34 36  1  0
M  END
