mac-x0255-mac-x1493
     RDKit          3D

 26 29  0  0  0  0  0  0  0  0999 V2000
   32.1210   44.0000   -6.9620 O   0  0  0  0  0  0  0  0  0  0  0  0
   32.4970   45.2940   -7.0740 C   0  0  0  0  0  0  0  0  0  0  0  0
   32.5310   45.8190   -8.1760 O   0  0  0  0  0  0  0  0  0  0  0  0
   32.8380   45.9130   -5.7340 C   0  0  0  0  0  0  0  0  0  0  0  0
   31.7280   45.7720   -4.7340 C   0  0  0  0  0  0  0  0  0  0  0  0
   30.4030   45.6750   -4.9980 C   0  0  0  0  0  0  0  0  0  0  0  0
   32.0580   45.7230   -3.0070 S   0  0  0  0  0  0  0  0  0  0  0  0
   29.5910   45.5370   -3.7450 C   0  0  1  0  0  0  0  0  0  0  0  0
   30.3340   46.4050   -2.7060 C   0  0  2  0  0  0  0  0  0  0  0  0
   30.3060   47.8590   -2.9850 N   0  0  0  0  0  0  0  0  0  0  0  0
   28.1230   45.8490   -3.6960 C   0  0  0  0  0  0  0  0  0  0  0  0
   29.7510   46.1180   -1.3520 C   0  0  0  0  0  0  0  0  0  0  0  0
   29.6340   48.3800   -3.9460 C   0  0  0  0  0  0  0  0  0  0  0  0
   27.5780   46.0440   -2.4750 C   0  0  0  0  0  0  0  0  0  0  0  0
   28.4100   45.9500   -1.2720 C   0  0  0  0  0  0  0  0  0  0  0  0
   28.8770   47.6850   -4.8130 O   0  0  0  0  0  0  0  0  0  0  0  0
   29.6290   49.8290   -4.1950 C   0  0  0  0  0  0  0  0  0  0  0  0
   29.0570   50.3920   -5.3340 C   0  0  0  0  0  0  0  0  0  0  0  0
   30.2120   50.6780   -3.2690 C   0  0  0  0  0  0  0  0  0  0  0  0
   29.0870   51.7850   -5.5080 C   0  0  0  0  0  0  0  0  0  0  0  0
   30.2580   52.0270   -3.4080 N   0  0  0  0  0  0  0  0  0  0  0  0
   29.7050   52.5700   -4.5080 C   0  0  0  0  0  0  0  0  0  0  0  0
   28.5230   52.3990   -6.6400 C   0  0  0  0  0  0  0  0  0  0  0  0
   29.7350   53.9470   -4.6790 C   0  0  0  0  0  0  0  0  0  0  0  0
   28.5680   53.7840   -6.7850 C   0  0  0  0  0  0  0  0  0  0  0  0
   29.1740   54.5600   -5.8040 C   0  0  0  0  0  0  0  0  0  0  0  0
  1  2  1  0
  2  3  2  0
  2  4  1  0
  4  5  1  0
  5  6  2  0
  5  7  1  0
  8  6  1  6
  7  9  1  0
  8  9  1  0
  9 10  1  6
  8 11  1  0
  9 12  1  0
 10 13  2  3
 11 14  2  0
 12 15  2  0
 14 15  1  0
 13 16  1  0
 13 17  1  0
 17 18  2  0
 17 19  1  0
 18 20  1  0
 19 21  2  0
 20 22  2  0
 21 22  1  0
 20 23  1  0
 22 24  1  0
 23 25  2  0
 24 26  2  0
 25 26  1  0
M  END
