mac-x0357-mac-x0193
     RDKit          3D

 21 23  0  0  0  0  0  0  0  0999 V2000
   33.2170   43.6010   -4.6460 C   0  0  0  0  0  0  0  0  0  0  0  0
   34.3880   42.8290   -4.2660 N   0  0  0  0  0  0  0  0  0  0  0  0
   34.9400   43.0710   -3.0500 C   0  0  0  0  0  0  0  0  0  0  0  0
   33.4850   45.0190   -4.2430 C   0  0  0  0  0  0  0  0  0  0  0  0
   32.9520   46.1630   -4.8780 C   0  0  0  0  0  0  0  0  0  0  0  0
   34.3500   45.1930   -3.1490 C   0  0  0  0  0  0  0  0  0  0  0  0
   34.9360   44.1630   -2.4620 N   0  0  0  0  0  0  0  0  0  0  0  0
   32.0330   46.1310   -6.0670 C   0  0  0  0  0  0  0  0  0  0  0  0
   35.5430   42.0510   -2.4220 N   0  0  0  0  0  0  0  0  0  0  0  0
   33.3190   47.4230   -4.3730 C   0  0  0  0  0  0  0  0  0  0  0  0
   34.6860   46.4410   -2.6870 C   0  0  0  0  0  0  0  0  0  0  0  0
   30.9760   47.0450   -5.9620 O   0  0  0  0  0  0  0  0  0  0  0  0
   31.4330   44.8940   -6.3080 O   0  0  0  0  0  0  0  0  0  0  0  0
   32.8330   46.4630   -7.1650 O   0  0  0  0  0  0  0  0  0  0  0  0
   34.1740   47.5610   -3.2930 C   0  0  0  0  0  0  0  0  0  0  0  0
   36.8630   42.1220   -1.7690 C   0  0  0  0  0  0  0  0  0  0  0  0
   38.0400   42.2110   -2.7190 C   0  0  0  0  0  0  0  0  0  0  0  0
   37.0440   43.0630   -0.5810 C   0  0  0  0  0  0  0  0  0  0  0  0
   39.2830   41.6870   -2.0210 C   0  0  0  0  0  0  0  0  0  0  0  0
   38.3260   42.7310    0.1840 C   0  0  0  0  0  0  0  0  0  0  0  0
   39.5550   42.4040   -0.6920 C   0  0  0  0  0  0  0  0  0  0  0  0
  1  2  1  0
  2  3  1  0
  1  4  1  0
  4  5  2  0
  4  6  1  0
  3  7  2  0
  6  7  1  0
  5  8  1  0
  3  9  1  0
  5 10  1  0
  6 11  2  0
  8 12  1  0
  8 13  1  0
  8 14  1  0
 10 15  2  0
 11 15  1  0
  9 16  1  0
 16 17  1  0
 16 18  1  0
 17 19  1  0
 18 20  1  0
 19 21  1  0
 20 21  1  0
M  END
