mac-x0404-mac-x0346
     RDKit          3D

 27 29  0  0  0  0  0  0  0  0999 V2000
   31.7070   45.2440   -6.6460 O   0  0  0  0  0  0  0  0  0  0  0  0
   32.8390   45.3130   -5.9170 C   0  0  0  0  0  0  0  0  0  0  0  0
   33.7860   45.9780   -6.3110 O   0  0  0  0  0  0  0  0  0  0  0  0
   32.7980   44.5090   -4.6220 C   0  0  0  0  0  0  0  0  0  0  0  0
   31.5860   44.5440   -3.8810 O   0  0  0  0  0  0  0  0  0  0  0  0
   31.1250   45.7460   -3.3930 C   0  0  0  0  0  0  0  0  0  0  0  0
   29.8920   45.7110   -2.6920 C   0  0  0  0  0  0  0  0  0  0  0  0
   31.7990   46.9510   -3.5560 C   0  0  0  0  0  0  0  0  0  0  0  0
   29.3430   46.9140   -2.1610 C   0  0  0  0  0  0  0  0  0  0  0  0
   31.2670   48.1290   -3.0410 C   0  0  0  0  0  0  0  0  0  0  0  0
   29.1830   44.5010   -2.5040 C   0  0  0  0  0  0  0  0  0  0  0  0
   30.0490   48.1380   -2.3500 C   0  0  0  0  0  0  0  0  0  0  0  0
   28.1090   46.8280   -1.4700 C   0  0  0  0  0  0  0  0  0  0  0  0
   27.9730   44.4510   -1.8200 C   0  0  0  0  0  0  0  0  0  0  0  0
   29.5220   49.4660   -1.8290 C   0  0  0  0  0  0  0  0  0  0  0  0
   27.4340   45.6160   -1.3010 C   0  0  0  0  0  0  0  0  0  0  0  0
   29.8980   50.5920   -2.6540 O   0  0  0  0  0  0  0  0  0  0  0  0
   29.3880   50.6940   -3.9340 C   0  0  0  0  0  0  0  0  0  0  0  0
   29.3010   51.9800   -4.5140 C   0  0  0  0  0  0  0  0  0  0  0  0
   28.9580   49.5820   -4.6790 C   0  0  0  0  0  0  0  0  0  0  0  0
   29.7240   53.2470   -3.8300 C   0  0  0  0  0  0  0  0  0  0  0  0
   28.4510   49.7370   -5.9720 C   0  0  0  0  0  0  0  0  0  0  0  0
   28.7870   52.1170   -5.8180 C   0  0  0  0  0  0  0  0  0  0  0  0
   30.1270   54.3050   -4.6100 N   0  0  0  0  0  0  0  0  0  0  0  0
   29.7160   53.3430   -2.6040 O   0  0  0  0  0  0  0  0  0  0  0  0
   28.3640   51.0020   -6.5420 C   0  0  0  0  0  0  0  0  0  0  0  0
   29.1040   55.0640   -5.2210 O   0  0  0  0  0  0  0  0  0  0  0  0
  1  2  1  0
  2  3  2  0
  2  4  1  0
  4  5  1  0
  5  6  1  0
  6  7  2  0
  6  8  1  0
  7  9  1  0
  8 10  2  0
  7 11  1  0
  9 12  2  0
 10 12  1  0
  9 13  1  0
 11 14  2  0
 12 15  1  0
 13 16  2  0
 14 16  1  0
 15 17  1  0
 17 18  1  0
 18 19  2  0
 18 20  1  0
 19 21  1  0
 20 22  2  0
 19 23  1  0
 21 24  1  0
 21 25  2  0
 22 26  1  0
 23 26  2  0
 24 27  1  0
M  END
