mac-x0360-mac-x0398
     RDKit          3D

 22 23  0  0  0  0  0  0  0  0999 V2000
   31.6210   54.8720   -7.0680 Cl  0  0  0  0  0  0  0  0  0  0  0  0
   32.0500   53.2960   -6.5220 C   0  0  0  0  0  0  0  0  0  0  0  0
   33.3210   53.0830   -5.9920 C   0  0  0  0  0  0  0  0  0  0  0  0
   31.1340   52.2440   -6.6120 C   0  0  0  0  0  0  0  0  0  0  0  0
   31.5100   50.9670   -6.1650 C   0  0  0  0  0  0  0  0  0  0  0  0
   33.6790   51.8110   -5.5530 C   0  0  0  0  0  0  0  0  0  0  0  0
   35.2500   51.5420   -4.9040 Cl  0  0  0  0  0  0  0  0  0  0  0  0
   30.3840   49.5960   -6.2650 S   0  0  0  0  0  0  0  0  0  0  0  0
   32.7830   50.7500   -5.6340 C   0  0  0  0  0  0  0  0  0  0  0  0
   30.1980   49.0750   -4.6900 N   0  0  0  0  0  0  0  0  0  0  0  0
   29.1210   50.0570   -6.7800 O   0  0  0  0  0  0  0  0  0  0  0  0
   31.0820   48.5320   -6.9430 O   0  0  0  0  0  0  0  0  0  0  0  0
   29.7200   49.9120   -3.6830 C   0  0  0  0  0  0  0  0  0  0  0  0
   29.6500   49.6170   -2.4950 O   0  0  0  0  0  0  0  0  0  0  0  0
   29.2990   51.2350   -4.1900 C   0  0  0  0  0  0  0  0  0  0  0  0
   29.7750   52.4110   -3.5980 C   0  0  0  0  0  0  0  0  0  0  0  0
   28.4250   51.3310   -5.2750 C   0  0  0  0  0  0  0  0  0  0  0  0
   30.6260   52.4370   -2.5230 O   0  0  0  0  0  0  0  0  0  0  0  0
   29.3860   53.6560   -4.1000 C   0  0  0  0  0  0  0  0  0  0  0  0
   28.0420   52.5750   -5.7720 C   0  0  0  0  0  0  0  0  0  0  0  0
   28.5200   53.7480   -5.1930 C   0  0  0  0  0  0  0  0  0  0  0  0
   28.1330   54.9880   -5.7030 N   0  0  0  0  0  0  0  0  0  0  0  0
  1  2  1  0
  2  3  2  0
  2  4  1  0
  4  5  2  0
  3  6  1  0
  6  7  1  0
  5  8  1  0
  5  9  1  0
  6  9  2  0
  8 10  1  0
  8 11  2  0
  8 12  2  0
 10 13  1  0
 13 14  2  0
 13 15  1  0
 15 16  2  0
 15 17  1  0
 16 18  1  0
 16 19  1  0
 17 20  2  0
 19 21  2  0
 20 21  1  0
 21 22  1  0
M  END
