mac-x0115-mac-x0346
     RDKit          3D

 27 29  0  0  0  0  0  0  0  0999 V2000
   27.8920   45.7710   -1.7300 C   0  0  0  0  0  0  0  0  0  0  0  0
   28.8460   44.6620   -2.1570 C   0  0  0  0  0  0  0  0  0  0  0  0
   28.1010   43.5790   -2.9280 C   0  0  0  0  0  0  0  0  0  0  0  0
   29.8880   45.1720   -2.9920 O   0  0  0  0  0  0  0  0  0  0  0  0
   30.2370   44.3780   -4.1270 C   0  0  0  0  0  0  0  0  0  0  0  0
   31.0800   45.2480   -5.0670 C   0  0  0  0  0  0  0  0  0  0  0  0
   30.2450   45.8930   -6.1060 N   0  0  0  0  0  0  0  0  0  0  0  0
   30.1080   45.2820   -7.3520 C   0  0  0  0  0  0  0  0  0  0  0  0
   30.2500   47.3620   -6.0580 C   0  0  1  0  0  0  0  0  0  0  0  0
   30.2600   43.6470   -7.6730 S   0  0  0  0  0  0  0  0  0  0  0  0
   29.8360   46.0970   -8.4310 N   0  0  0  0  0  0  0  0  0  0  0  0
   29.3570   48.0190   -7.0440 C   0  0  2  0  0  0  0  0  0  0  0  0
   29.7140   48.1210   -4.8320 C   0  0  0  0  0  0  0  0  0  0  0  0
   29.4850   47.4210   -8.4210 C   0  0  0  0  0  0  0  0  0  0  0  0
   29.8420   49.3880   -6.8370 N   0  0  0  0  0  0  0  0  0  0  0  0
   29.3970   49.5480   -5.4330 C   0  0  2  0  0  0  0  0  0  0  0  0
   29.2710   48.0500   -9.4520 O   0  0  0  0  0  0  0  0  0  0  0  0
   30.1280   50.7490   -4.7320 C   0  0  2  0  0  0  0  0  0  0  0  0
   27.9470   49.8920   -5.6060 C   0  0  0  0  0  0  0  0  0  0  0  0
   30.0640   50.6230   -3.3090 O   0  0  0  0  0  0  0  0  0  0  0  0
   29.7590   52.1950   -5.1530 C   0  0  2  0  0  0  0  0  0  0  0  0
   27.5600   51.1360   -5.9070 C   0  0  0  0  0  0  0  0  0  0  0  0
   29.7200   53.2050   -4.0010 C   0  0  0  0  0  0  0  0  0  0  0  0
   28.5280   52.2710   -6.0780 C   0  0  0  0  0  0  0  0  0  0  0  0
   29.6370   54.5480   -4.2940 N   0  0  0  0  0  0  0  0  0  0  0  0
   29.7720   52.8500   -2.8200 O   0  0  0  0  0  0  0  0  0  0  0  0
   29.3650   54.8630   -5.6480 O   0  0  0  0  0  0  0  0  0  0  0  0
  1  2  1  0
  2  3  1  0
  2  4  1  0
  4  5  1  0
  5  6  1  0
  6  7  1  0
  7  8  1  0
  7  9  1  0
  8 10  2  0
  8 11  1  0
  9 12  1  0
  9 13  1  1
 11 14  1  0
 12 14  1  0
 12 15  1  6
 16 13  1  1
 15 16  1  0
 14 17  2  0
 16 18  1  0
 16 19  1  0
 18 20  1  1
 18 21  1  0
 19 22  2  0
 21 23  1  1
 21 24  1  0
 22 24  1  0
 23 25  1  0
 23 26  2  0
 25 27  1  0
M  END
