mac-x0404-mac-x0190
     RDKit          3D

 28 31  0  0  0  0  0  0  0  0999 V2000
   32.0090   45.0720   -6.9680 O   0  0  0  0  0  0  0  0  0  0  0  0
   33.0390   45.2740   -6.0970 C   0  0  0  0  0  0  0  0  0  0  0  0
   34.1170   45.7360   -6.4700 O   0  0  0  0  0  0  0  0  0  0  0  0
   32.7090   44.8740   -4.6500 C   0  0  0  0  0  0  0  0  0  0  0  0
   31.3070   44.7770   -4.3620 O   0  0  0  0  0  0  0  0  0  0  0  0
   30.8370   45.8000   -3.5670 C   0  0  0  0  0  0  0  0  0  0  0  0
   29.7010   45.5630   -2.7560 C   0  0  0  0  0  0  0  0  0  0  0  0
   31.4740   47.0400   -3.5720 C   0  0  0  0  0  0  0  0  0  0  0  0
   29.2030   46.6090   -1.9350 C   0  0  0  0  0  0  0  0  0  0  0  0
   30.9890   48.0610   -2.7710 C   0  0  0  0  0  0  0  0  0  0  0  0
   29.0490   44.3130   -2.7430 C   0  0  0  0  0  0  0  0  0  0  0  0
   29.8600   47.8680   -1.9490 C   0  0  0  0  0  0  0  0  0  0  0  0
   28.0650   46.3400   -1.1360 C   0  0  0  0  0  0  0  0  0  0  0  0
   27.9280   44.0770   -1.9450 C   0  0  0  0  0  0  0  0  0  0  0  0
   29.4020   49.0440   -1.1070 C   0  0  0  0  0  0  0  0  0  0  0  0
   27.4380   45.0950   -1.1410 C   0  0  0  0  0  0  0  0  0  0  0  0
   30.2330   50.3210   -1.3290 C   0  0  0  0  0  0  0  0  0  0  0  0
   29.8850   51.0510   -2.6130 C   0  0  0  0  0  0  0  0  0  0  0  0
   30.0840   52.4460   -2.6530 C   0  0  0  0  0  0  0  0  0  0  0  0
   29.3780   50.3660   -3.7360 C   0  0  0  0  0  0  0  0  0  0  0  0
   29.7610   53.1010   -3.8360 C   0  0  0  0  0  0  0  0  0  0  0  0
   29.0610   51.0570   -4.9180 C   0  0  0  0  0  0  0  0  0  0  0  0
   29.8350   54.4230   -4.1940 N   0  0  0  0  0  0  0  0  0  0  0  0
   29.2600   52.4510   -4.9590 C   0  0  0  0  0  0  0  0  0  0  0  0
   29.3920   54.5430   -5.4870 C   0  0  0  0  0  0  0  0  0  0  0  0
   29.0370   53.3570   -5.9740 N   0  0  0  0  0  0  0  0  0  0  0  0
   29.3470   55.8660   -6.1860 C   0  0  0  0  0  0  0  0  0  0  0  0
   28.4970   56.7250   -5.3870 O   0  0  0  0  0  0  0  0  0  0  0  0
  1  2  1  0
  2  3  2  0
  2  4  1  0
  4  5  1  0
  5  6  1  0
  6  7  2  0
  6  8  1  0
  7  9  1  0
  8 10  2  0
  7 11  1  0
  9 12  2  0
 10 12  1  0
  9 13  1  0
 11 14  2  0
 12 15  1  0
 13 16  2  0
 14 16  1  0
 15 17  1  0
 17 18  1  0
 18 19  2  0
 18 20  1  0
 19 21  1  0
 20 22  2  0
 21 23  1  0
 21 24  2  0
 22 24  1  0
 23 25  1  0
 24 26  1  0
 25 26  2  0
 25 27  1  0
 27 28  1  0
M  END
