mac-x0226-mac-x0178
     RDKit          3D

 25 27  0  0  0  0  0  0  0  0999 V2000
   32.3870   46.4980   -5.6770 N   0  0  0  0  0  0  0  0  0  0  0  0
   33.4080   45.9790   -6.4290 C   0  0  0  0  0  0  0  0  0  0  0  0
   33.6240   46.1690   -7.6230 O   0  0  0  0  0  0  0  0  0  0  0  0
   32.0090   45.7010   -4.7320 C   0  0  0  0  0  0  0  0  0  0  0  0
   34.2310   45.1410   -5.5810 C   0  0  0  0  0  0  0  0  0  0  0  0
   30.9600   46.0360   -3.7620 C   0  0  0  0  0  0  0  0  0  0  0  0
   34.6860   43.8210   -5.7460 C   0  0  0  0  0  0  0  0  0  0  0  0
   34.7540   45.5120   -4.3560 C   0  0  0  0  0  0  0  0  0  0  0  0
   29.6440   45.5970   -3.9220 C   0  0  0  0  0  0  0  0  0  0  0  0
   31.3280   46.8110   -2.6580 C   0  0  0  0  0  0  0  0  0  0  0  0
   35.4280   43.3920   -4.7200 N   0  0  0  0  0  0  0  0  0  0  0  0
   35.4680   44.4470   -3.8590 N   0  0  0  0  0  0  0  0  0  0  0  0
   28.6840   45.9320   -2.9650 C   0  0  0  0  0  0  0  0  0  0  0  0
   30.3750   47.1470   -1.7030 C   0  0  0  0  0  0  0  0  0  0  0  0
   36.1760   44.3740   -2.6260 C   0  0  0  0  0  0  0  0  0  0  0  0
   29.0600   46.7050   -1.8600 C   0  0  0  0  0  0  0  0  0  0  0  0
   27.8560   47.1370   -0.6310 S   0  0  0  0  0  0  0  0  0  0  0  0
   36.9320   45.4570   -2.1600 C   0  0  0  0  0  0  0  0  0  0  0  0
   36.1140   43.1970   -1.8630 C   0  0  0  0  0  0  0  0  0  0  0  0
   27.3740   45.6190   -0.0860 N   0  0  0  0  0  0  0  0  0  0  0  0
   28.5380   47.7990    0.4550 O   0  0  0  0  0  0  0  0  0  0  0  0
   26.7070   47.7040   -1.2950 O   0  0  0  0  0  0  0  0  0  0  0  0
   37.6170   45.3610   -0.9440 C   0  0  0  0  0  0  0  0  0  0  0  0
   36.8020   43.1080   -0.6500 C   0  0  0  0  0  0  0  0  0  0  0  0
   37.5520   44.1890   -0.1920 C   0  0  0  0  0  0  0  0  0  0  0  0
  1  2  1  0
  2  3  2  0
  1  4  2  3
  2  5  1  0
  4  6  1  0
  5  7  1  0
  5  8  2  0
  6  9  2  0
  6 10  1  0
  7 11  2  0
  8 12  1  0
 11 12  1  0
  9 13  1  0
 10 14  2  0
 12 15  1  0
 13 16  2  0
 14 16  1  0
 16 17  1  0
 15 18  2  0
 15 19  1  0
 17 20  1  0
 17 21  2  0
 17 22  2  0
 18 23  1  0
 19 24  2  0
 23 25  2  0
 24 25  1  0
M  END
