mac-x0338-mac-x0213
     RDKit          3D

 23 25  0  0  0  0  0  0  0  0999 V2000
   28.4210   52.2610   -7.6630 N   0  0  0  0  0  0  0  0  0  0  0  0
   28.8240   52.7400   -6.4380 C   0  0  0  0  0  0  0  0  0  0  0  0
   28.7580   53.9350   -6.1930 O   0  0  0  0  0  0  0  0  0  0  0  0
   29.3320   51.7500   -5.4530 C   0  0  0  0  0  0  0  0  0  0  0  0
   29.4630   50.5000   -5.9330 N   0  0  0  0  0  0  0  0  0  0  0  0
   29.6480   52.0740   -4.1430 C   0  0  0  0  0  0  0  0  0  0  0  0
   29.9170   49.5730   -5.0790 C   0  0  0  0  0  0  0  0  0  0  0  0
   30.1090   51.1530   -3.2580 N   0  0  0  0  0  0  0  0  0  0  0  0
   30.0420   48.2030   -5.6670 C   0  0  0  0  0  0  0  0  0  0  0  0
   30.2370   49.8930   -3.7540 C   0  0  0  0  0  0  0  0  0  0  0  0
   31.4140   47.8540   -6.2880 C   0  0  0  0  0  0  0  0  0  0  0  0
   31.8430   46.4280   -5.9040 C   0  0  0  0  0  0  0  0  0  0  0  0
   33.2390   46.3700   -5.6970 O   0  0  0  0  0  0  0  0  0  0  0  0
   31.4730   45.5250   -6.9220 O   0  0  0  0  0  0  0  0  0  0  0  0
   30.9740   46.1700   -4.6550 C   0  0  0  0  0  0  0  0  0  0  0  0
   31.4440   46.8470   -3.3600 C   0  0  0  0  0  0  0  0  0  0  0  0
   30.5710   44.7660   -4.1850 C   0  0  0  0  0  0  0  0  0  0  0  0
   30.2630   46.4600   -2.5390 C   0  0  0  0  0  0  0  0  0  0  0  0
   29.7490   45.2440   -3.0150 C   0  0  0  0  0  0  0  0  0  0  0  0
   29.6920   47.1250   -1.4710 C   0  0  0  0  0  0  0  0  0  0  0  0
   28.6390   44.6680   -2.4190 C   0  0  0  0  0  0  0  0  0  0  0  0
   28.5750   46.5500   -0.8670 C   0  0  0  0  0  0  0  0  0  0  0  0
   28.0530   45.3330   -1.3360 C   0  0  0  0  0  0  0  0  0  0  0  0
  1  2  1  0
  2  3  2  0
  2  4  1  0
  4  5  2  0
  4  6  1  0
  5  7  1  0
  6  8  2  0
  7  9  1  0
  7 10  2  0
  8 10  1  0
  9 11  1  0
 11 12  1  0
 12 13  1  0
 12 14  1  0
 12 15  1  0
 15 16  1  0
 15 17  1  0
 16 18  1  0
 17 19  1  0
 18 19  2  0
 18 20  1  0
 19 21  1  0
 20 22  2  0
 21 23  2  0
 22 23  1  0
M  END
