mac-x0436-mac-x0354
     RDKit          3D

 21 22  0  0  0  0  0  0  0  0999 V2000
   33.1620   44.5380   -6.1850 C   0  0  0  0  0  0  0  0  0  0  0  0
   32.6420   45.7830   -5.5320 C   0  0  0  0  0  0  0  0  0  0  0  0
   32.3680   46.7430   -6.2580 O   0  0  0  0  0  0  0  0  0  0  0  0
   32.5070   44.2220   -7.3840 O   0  0  0  0  0  0  0  0  0  0  0  0
   34.1340   43.7040   -5.8010 C   0  0  0  0  0  0  0  0  0  0  0  0
   32.4550   45.8560   -4.0800 C   0  0  0  0  0  0  0  0  0  0  0  0
   35.0080   43.7390   -4.6140 C   0  0  0  0  0  0  0  0  0  0  0  0
   33.1690   46.6100   -3.2260 C   0  0  0  0  0  0  0  0  0  0  0  0
   35.3910   42.8500   -3.7580 N   0  0  0  0  0  0  0  0  0  0  0  0
   34.2720   47.5320   -3.3900 C   0  0  0  0  0  0  0  0  0  0  0  0
   36.2360   43.2010   -2.7320 N   0  0  0  0  0  0  0  0  0  0  0  0
   35.3930   43.6660   -1.6010 C   0  0  0  0  0  0  0  0  0  0  0  0
   34.2690   48.5650   -4.4440 C   0  0  0  0  0  0  0  0  0  0  0  0
   35.4610   47.7900   -2.8030 C   0  0  0  0  0  0  0  0  0  0  0  0
   37.3000   44.0530   -3.0090 C   0  0  0  0  0  0  0  0  0  0  0  0
   33.4320   48.8190   -5.2840 O   0  0  0  0  0  0  0  0  0  0  0  0
   36.2360   48.8210   -3.3160 N   0  0  0  0  0  0  0  0  0  0  0  0
   37.6130   45.2690   -2.5440 C   0  0  0  0  0  0  0  0  0  0  0  0
   36.0760   47.1350   -1.6810 C   0  0  0  0  0  0  0  0  0  0  0  0
   35.5540   49.2990   -4.2920 C   0  0  0  0  0  0  0  0  0  0  0  0
   36.9440   46.1160   -1.5840 C   0  0  0  0  0  0  0  0  0  0  0  0
  1  2  1  0
  2  3  2  0
  1  4  1  0
  1  5  2  0
  2  6  1  0
  5  7  1  0
  6  8  2  0
  7  9  2  0
  8 10  1  0
  9 11  1  0
 11 12  1  0
 10 13  1  0
 10 14  2  0
 11 15  1  0
 13 16  2  0
 14 17  1  0
 15 18  2  0
 14 19  1  0
 13 20  1  0
 17 20  2  0
 18 21  1  0
 19 21  2  0
M  END
