mac-x0572-mac-x0567
     RDKit          3D

 18 20  0  0  0  0  0  0  0  0999 V2000
   29.0640   56.1600   -7.2780 C   0  0  0  0  0  0  0  0  0  0  0  0
   29.2120   54.9450   -6.3970 C   0  0  0  0  0  0  0  0  0  0  0  0
   29.1660   53.7330   -7.0530 N   0  0  0  0  0  0  0  0  0  0  0  0
   29.3820   54.9950   -5.0610 C   0  0  0  0  0  0  0  0  0  0  0  0
   29.4450   56.1500   -4.3080 O   0  0  0  0  0  0  0  0  0  0  0  0
   29.5100   53.6870   -4.3310 C   0  0  0  0  0  0  0  0  0  0  0  0
   29.1880   52.4880   -6.4400 C   0  0  0  0  0  0  0  0  0  0  0  0
   29.7520   53.6810   -3.1220 O   0  0  0  0  0  0  0  0  0  0  0  0
   29.3480   52.3790   -5.0970 C   0  0  0  0  0  0  0  0  0  0  0  0
   29.0320   51.3810   -7.3760 C   0  0  0  0  0  0  0  0  0  0  0  0
   29.3900   51.1720   -4.2790 C   0  0  0  0  0  0  0  0  0  0  0  0
   28.9940   50.0730   -7.1360 C   0  0  0  0  0  0  0  0  0  0  0  0
   29.0820   49.3040   -5.9160 C   0  0  0  0  0  0  0  0  0  0  0  0
   29.2760   49.8810   -4.5930 C   0  0  0  0  0  0  0  0  0  0  0  0
   28.8340   49.0080   -8.1470 C   0  0  0  0  0  0  0  0  0  0  0  0
   28.7230   49.1390   -9.4960 N   0  0  0  0  0  0  0  0  0  0  0  0
   28.8100   47.8410   -7.5690 N   0  0  0  0  0  0  0  0  0  0  0  0
   28.9670   48.0320   -6.1550 N   0  0  0  0  0  0  0  0  0  0  0  0
  1  2  1  0
  2  3  1  0
  2  4  2  0
  4  5  1  0
  4  6  1  0
  3  7  1  0
  6  8  2  0
  6  9  1  0
  7  9  2  0
  7 10  1  0
  9 11  1  0
 10 12  2  0
 12 13  1  0
 11 14  2  0
 13 14  1  0
 12 15  1  0
 15 16  1  0
 15 17  2  0
 13 18  2  0
 17 18  1  0
M  END
