mac-x0139-mac-x0161
     RDKit          3D

 29 32  0  0  0  0  0  0  0  0999 V2000
   29.3860   46.8730   -5.7440 N   0  0  0  0  0  0  0  0  0  0  0  0
   29.9590   45.5180   -5.9940 C   0  0  0  0  0  0  0  0  0  0  0  0
   31.4360   45.6280   -6.4200 C   0  0  2  0  0  0  0  0  0  0  0  0
   29.0930   47.5860   -6.9310 C   0  0  0  0  0  0  0  0  0  0  0  0
   29.0830   48.9710   -6.9720 C   0  0  0  0  0  0  0  0  0  0  0  0
   28.8170   46.8890   -8.0510 N   0  0  0  0  0  0  0  0  0  0  0  0
   31.8520   44.3980   -7.2090 C   0  0  0  0  0  0  0  0  0  0  0  0
   28.7960   49.5530   -8.2010 C   0  0  0  0  0  0  0  0  0  0  0  0
   28.5480   47.5690   -9.1800 C   0  0  0  0  0  0  0  0  0  0  0  0
   29.3250   50.0930   -5.9740 C   0  0  1  0  0  0  0  0  0  0  0  0
   32.4400   45.8720   -5.2820 C   0  0  0  0  0  0  0  0  0  0  0  0
   31.0980   43.5540   -7.6600 O   0  0  0  0  0  0  0  0  0  0  0  0
   33.1930   44.3020   -7.3910 O   0  0  0  0  0  0  0  0  0  0  0  0
   28.5230   48.8970   -9.3190 N   0  0  0  0  0  0  0  0  0  0  0  0
   28.8330   50.9660   -8.1360 N   0  0  0  0  0  0  0  0  0  0  0  0
   29.7590   51.1660   -7.0250 C   0  0  0  0  0  0  0  0  0  0  0  0
   28.0570   50.6520   -5.2590 C   0  0  1  0  0  0  0  0  0  0  0  0
   30.4430   49.8740   -4.9450 C   0  0  0  0  0  0  0  0  0  0  0  0
   32.6410   47.3400   -4.8810 C   0  0  1  0  0  0  0  0  0  0  0  0
   26.8450   50.8280   -6.0440 N   0  0  0  0  0  0  0  0  0  0  0  0
   27.6590   49.8800   -4.0960 N   0  0  0  0  0  0  0  0  0  0  0  0
   29.9440   49.8910   -3.5650 N   0  0  0  0  0  0  0  0  0  0  0  0
   31.9030   47.6510   -3.6210 C   0  0  0  0  0  0  0  0  0  0  0  0
   34.0500   47.6590   -4.6000 N   0  0  0  0  0  0  0  0  0  0  0  0
   28.7250   49.1130   -3.4950 C   0  0  0  0  0  0  0  0  0  0  0  0
   32.7530   48.0520   -2.6810 C   0  0  0  0  0  0  0  0  0  0  0  0
   34.1450   48.0580   -3.1970 C   0  0  1  0  0  0  0  0  0  0  0  0
   34.8910   47.1230   -2.4410 O   0  0  0  0  0  0  0  0  0  0  0  0
   35.7400   47.7680   -1.4980 C   0  0  0  0  0  0  0  0  0  0  0  0
  1  2  1  0
  3  2  1  1
  1  4  1  0
  4  5  1  0
  4  6  2  0
  3  7  1  0
  5  8  2  0
  6  9  1  0
  5 10  1  0
  3 11  1  0
  7 12  2  0
  7 13  1  0
  8 14  1  0
  9 14  2  0
  8 15  1  0
 10 16  1  6
 15 16  1  0
 10 17  1  0
 10 18  1  0
 19 11  1  1
 17 20  1  6
 17 21  1  0
 18 22  1  0
 19 23  1  0
 19 24  1  0
 21 25  1  0
 22 25  1  0
 23 26  2  0
 24 27  1  0
 26 27  1  0
 27 28  1  1
 28 29  1  0
M  END
