mac-x0345-mac-x0510
     RDKit          3D

 19 21  0  0  0  0  0  0  0  0999 V2000
   29.3440   54.7290   -5.1230 C   0  0  0  0  0  0  0  0  0  0  0  0
   28.9810   53.5400   -4.2810 C   0  0  0  0  0  0  0  0  0  0  0  0
   29.0030   53.7730   -2.9370 N   0  0  0  0  0  0  0  0  0  0  0  0
   28.6490   52.2920   -4.8310 C   0  0  0  0  0  0  0  0  0  0  0  0
   28.6030   51.9640   -6.2130 N   0  0  0  0  0  0  0  0  0  0  0  0
   28.3320   51.2710   -3.9280 C   0  0  0  0  0  0  0  0  0  0  0  0
   28.6920   52.7670   -2.1060 C   0  0  0  0  0  0  0  0  0  0  0  0
   28.7250   53.0480   -0.7440 N   0  0  0  0  0  0  0  0  0  0  0  0
   28.3520   51.5050   -2.5570 C   0  0  0  0  0  0  0  0  0  0  0  0
   29.3650   50.9590   -6.7690 N   0  0  0  0  0  0  0  0  0  0  0  0
   30.7520   50.8970   -6.7040 C   0  0  0  0  0  0  0  0  0  0  0  0
   28.8150   49.7940   -7.1750 C   0  0  0  0  0  0  0  0  0  0  0  0
   29.5670   48.6590   -7.2110 C   0  0  0  0  0  0  0  0  0  0  0  0
   31.5290   49.8520   -6.7320 N   0  0  0  0  0  0  0  0  0  0  0  0
   27.5310   49.5770   -7.5810 N   0  0  0  0  0  0  0  0  0  0  0  0
   30.9450   48.6020   -6.8400 C   0  0  0  0  0  0  0  0  0  0  0  0
   28.7190   47.6870   -7.6570 N   0  0  0  0  0  0  0  0  0  0  0  0
   27.5010   48.2890   -7.8660 C   0  0  0  0  0  0  0  0  0  0  0  0
   31.5340   47.5480   -6.6390 O   0  0  0  0  0  0  0  0  0  0  0  0
  1  2  1  0
  2  3  2  0
  2  4  1  0
  4  5  1  0
  4  6  2  0
  3  7  1  0
  7  8  1  0
  6  9  1  0
  7  9  2  0
  5 10  1  0
 10 11  1  0
 10 12  1  0
 12 13  2  0
 11 14  2  0
 12 15  1  0
 13 16  1  0
 14 16  1  0
 13 17  1  0
 15 18  2  0
 17 18  1  0
 16 19  2  0
M  END
