mac-x0124-mac-x0472
     RDKit          3D

 21 23  0  0  0  0  0  0  0  0999 V2000
   29.3390   47.5310   -3.1340 C   0  0  0  0  0  0  0  0  0  0  0  0
   28.3860   47.6830   -4.2190 N   0  0  0  0  0  0  0  0  0  0  0  0
   27.0230   47.8360   -4.0130 C   0  0  0  0  0  0  0  0  0  0  0  0
   28.7260   48.6620   -5.2820 C   0  0  2  0  0  0  0  0  0  0  0  0
   26.4220   48.3050   -5.1260 C   0  0  0  0  0  0  0  0  0  0  0  0
   27.4840   48.4790   -6.1920 C   0  0  1  0  0  0  0  0  0  0  0  0
   29.9890   48.7450   -6.0360 N   0  0  0  0  0  0  0  0  0  0  0  0
   30.9260   49.7100   -5.5240 N   0  0  0  0  0  0  0  0  0  0  0  0
   27.3590   49.6730   -7.1580 C   0  0  2  0  0  0  0  0  0  0  0  0
   29.6790   49.0270   -7.4440 C   0  0  0  0  0  0  0  0  0  0  0  0
   26.5310   49.5100   -8.3320 N   0  0  0  0  0  0  0  0  0  0  0  0
   32.2570   48.9320   -4.7610 S   0  0  0  0  0  0  0  0  0  0  0  0
   28.6710   50.0880   -7.5960 N   0  0  0  0  0  0  0  0  0  0  0  0
   31.9510   48.8360   -3.3420 O   0  0  0  0  0  0  0  0  0  0  0  0
   32.6790   47.7810   -5.5300 O   0  0  0  0  0  0  0  0  0  0  0  0
   33.5040   50.1850   -4.9490 C   0  0  0  0  0  0  0  0  0  0  0  0
   34.7980   49.8100   -5.3430 C   0  0  0  0  0  0  0  0  0  0  0  0
   33.1890   51.5240   -4.7040 C   0  0  0  0  0  0  0  0  0  0  0  0
   35.7770   50.7880   -5.4910 C   0  0  0  0  0  0  0  0  0  0  0  0
   34.1770   52.4940   -4.8550 C   0  0  0  0  0  0  0  0  0  0  0  0
   35.4680   52.1310   -5.2480 C   0  0  0  0  0  0  0  0  0  0  0  0
  1  2  1  0
  2  3  1  0
  4  2  1  1
  3  5  2  0
  4  6  1  0
  6  5  1  1
  4  7  1  0
  7  8  1  0
  6  9  1  0
  7 10  1  0
  9 11  1  6
 12  8  1  0
  9 13  1  0
 10 13  1  0
 12 14  2  0
 12 15  2  0
 12 16  1  0
 16 17  2  0
 16 18  1  0
 17 19  1  0
 18 20  2  0
 19 21  2  0
 20 21  1  0
M  END
