mac-x0404-mac-x0303
     RDKit          3D

 29 32  0  0  0  0  0  0  0  0999 V2000
   32.8290   43.0990   -6.1820 O   0  0  0  0  0  0  0  0  0  0  0  0
   33.5650   43.8060   -5.2950 C   0  0  0  0  0  0  0  0  0  0  0  0
   34.7690   43.9350   -5.4620 O   0  0  0  0  0  0  0  0  0  0  0  0
   32.7610   44.3790   -4.1440 C   0  0  0  0  0  0  0  0  0  0  0  0
   31.4100   44.6290   -4.5460 O   0  0  0  0  0  0  0  0  0  0  0  0
   30.9260   45.7560   -3.9160 C   0  0  0  0  0  0  0  0  0  0  0  0
   29.9190   45.6640   -2.9300 C   0  0  0  0  0  0  0  0  0  0  0  0
   31.4690   46.9790   -4.2940 C   0  0  0  0  0  0  0  0  0  0  0  0
   29.4510   46.8560   -2.3120 C   0  0  0  0  0  0  0  0  0  0  0  0
   31.0170   48.1450   -3.6930 C   0  0  0  0  0  0  0  0  0  0  0  0
   29.3660   44.4220   -2.5440 C   0  0  0  0  0  0  0  0  0  0  0  0
   30.0150   48.1040   -2.7060 C   0  0  0  0  0  0  0  0  0  0  0  0
   28.4420   46.7320   -1.3290 C   0  0  0  0  0  0  0  0  0  0  0  0
   28.3720   44.3380   -1.5720 C   0  0  0  0  0  0  0  0  0  0  0  0
   29.5840   49.4320   -2.1060 C   0  0  0  0  0  0  0  0  0  0  0  0
   27.9100   45.4930   -0.9640 C   0  0  0  0  0  0  0  0  0  0  0  0
   29.3200   50.5200   -3.1280 C   0  0  0  0  0  0  0  0  0  0  0  0
   29.6120   51.8590   -2.8050 C   0  0  0  0  0  0  0  0  0  0  0  0
   28.7880   50.2050   -4.3900 C   0  0  0  0  0  0  0  0  0  0  0  0
   29.3520   52.8260   -3.7790 C   0  0  0  0  0  0  0  0  0  0  0  0
   28.5380   51.1940   -5.3500 C   0  0  0  0  0  0  0  0  0  0  0  0
   29.5150   54.1890   -3.7970 N   0  0  0  0  0  0  0  0  0  0  0  0
   28.8280   52.5270   -5.0320 C   0  0  0  0  0  0  0  0  0  0  0  0
   29.0990   54.6480   -5.0170 C   0  0  0  0  0  0  0  0  0  0  0  0
   28.6750   53.6620   -5.7920 N   0  0  0  0  0  0  0  0  0  0  0  0
   29.1420   56.3600   -5.4560 S   0  0  0  0  0  0  0  0  0  0  0  0
   30.4340   56.5420   -6.5190 N   0  0  0  0  0  0  0  0  0  0  0  0
   27.9230   56.5780   -6.2010 O   0  0  0  0  0  0  0  0  0  0  0  0
   29.4440   57.0540   -4.2270 O   0  0  0  0  0  0  0  0  0  0  0  0
  1  2  1  0
  2  3  2  0
  2  4  1  0
  4  5  1  0
  5  6  1  0
  6  7  2  0
  6  8  1  0
  7  9  1  0
  8 10  2  0
  7 11  1  0
  9 12  2  0
 10 12  1  0
  9 13  1  0
 11 14  2  0
 12 15  1  0
 13 16  2  0
 14 16  1  0
 15 17  1  0
 17 18  2  0
 17 19  1  0
 18 20  1  0
 19 21  2  0
 20 22  1  0
 20 23  2  0
 21 23  1  0
 22 24  1  0
 23 25  1  0
 24 25  2  0
 24 26  1  0
 26 27  1  0
 26 28  2  0
 26 29  2  0
M  END
