mac-x0402-mac-x0328
     RDKit          3D

 14 15  0  0  0  0  0  0  0  0999 V2000
   30.6980   48.2670   -3.9160 C   0  0  0  0  0  0  0  0  0  0  0  0
   29.8580   47.1700   -4.5150 C   0  0  0  0  0  0  0  0  0  0  0  0
   30.3040   46.0660   -4.8180 O   0  0  0  0  0  0  0  0  0  0  0  0
   30.2240   49.6350   -4.3410 C   0  0  0  0  0  0  0  0  0  0  0  0
   30.1580   50.6800   -3.4110 C   0  0  0  0  0  0  0  0  0  0  0  0
   29.8480   49.8610   -5.6810 C   0  0  0  0  0  0  0  0  0  0  0  0
   29.4100   51.1450   -6.0570 C   0  0  0  0  0  0  0  0  0  0  0  0
   29.7220   51.9440   -3.8080 C   0  0  0  0  0  0  0  0  0  0  0  0
   29.6700   52.9440   -2.8650 O   0  0  0  0  0  0  0  0  0  0  0  0
   29.3400   52.1920   -5.1410 C   0  0  0  0  0  0  0  0  0  0  0  0
   28.8890   51.7220   -7.5920 S   0  0  0  0  0  0  0  0  0  0  0  0
   28.6230   53.2800   -6.9190 C   0  0  0  0  0  0  0  0  0  0  0  0
   28.8900   53.4060   -5.6430 N   0  0  0  0  0  0  0  0  0  0  0  0
   28.1710   54.2940   -7.6740 N   0  0  0  0  0  0  0  0  0  0  0  0
  1  2  1  0
  2  3  2  0
  1  4  1  0
  4  5  2  0
  4  6  1  0
  6  7  2  0
  5  8  1  0
  8  9  1  0
  7 10  1  0
  8 10  2  0
  7 11  1  0
 11 12  1  0
 10 13  1  0
 12 13  2  0
 12 14  1  0
M  END
