mac-x0546-mac-x0380
     RDKit          3D

 30 33  0  0  0  0  0  0  0  0999 V2000
   29.8840   48.7600   -0.1270 C   0  0  0  0  0  0  0  0  0  0  0  0
   29.6060   48.5240   -1.5470 N   0  0  0  0  0  0  0  0  0  0  0  0
   29.8480   49.7060   -2.3800 C   0  0  0  0  0  0  0  0  0  0  0  0
   29.5730   47.2340   -2.0840 C   0  0  0  0  0  0  0  0  0  0  0  0
   30.6820   49.4510   -3.5530 N   0  0  0  0  0  0  0  0  0  0  0  0
   30.5760   46.7130   -2.8330 C   0  0  0  0  0  0  0  0  0  0  0  0
   28.3920   46.3800   -1.8410 C   0  0  0  0  0  0  0  0  0  0  0  0
   30.5060   50.1410   -4.6160 C   0  0  0  0  0  0  0  0  0  0  0  0
   30.4820   45.3340   -3.3940 C   0  0  2  0  0  0  0  0  0  0  0  0
   28.4030   45.0430   -1.9750 C   0  0  0  0  0  0  0  0  0  0  0  0
   31.2970   49.8650   -5.6620 O   0  0  0  0  0  0  0  0  0  0  0  0
   29.7040   44.5090   -2.3860 C   0  0  0  0  0  0  0  0  0  0  0  0
   31.6790   44.4290   -3.4310 C   0  0  0  0  0  0  0  0  0  0  0  0
   29.5910   51.2240   -4.9760 C   0  0  0  0  0  0  0  0  0  0  0  0
   32.8960   44.6840   -4.2580 C   0  0  0  0  0  0  0  0  0  0  0  0
   30.2560   43.4130   -1.9690 N   0  0  0  0  0  0  0  0  0  0  0  0
   31.4620   43.3840   -2.6180 C   0  0  0  0  0  0  0  0  0  0  0  0
   29.6850   52.4610   -4.3350 C   0  0  0  0  0  0  0  0  0  0  0  0
   28.6290   51.0060   -5.9700 C   0  0  0  0  0  0  0  0  0  0  0  0
   32.6470   44.7090   -5.7620 C   0  0  0  0  0  0  0  0  0  0  0  0
   28.8130   53.4930   -4.6890 C   0  0  0  0  0  0  0  0  0  0  0  0
   27.7580   52.0390   -6.3220 C   0  0  0  0  0  0  0  0  0  0  0  0
   31.6650   44.2660   -6.3370 O   0  0  0  0  0  0  0  0  0  0  0  0
   33.6620   45.2950   -6.4430 O   0  0  0  0  0  0  0  0  0  0  0  0
   27.8520   53.2810   -5.6830 C   0  0  0  0  0  0  0  0  0  0  0  0
   28.9500   55.0610   -3.8620 S   0  0  0  0  0  0  0  0  0  0  0  0
   26.9660   54.2930   -6.0630 N   0  0  0  0  0  0  0  0  0  0  0  0
   28.4220   56.1360   -5.2200 C   0  0  0  0  0  0  0  0  0  0  0  0
   27.2130   55.6370   -5.9840 C   0  0  0  0  0  0  0  0  0  0  0  0
   26.4360   56.4170   -6.5430 O   0  0  0  0  0  0  0  0  0  0  0  0
  1  2  1  0
  2  3  1  0
  2  4  1  0
  3  5  1  0
  4  6  2  0
  4  7  1  0
  5  8  2  3
  9  6  1  1
  7 10  2  0
  8 11  1  0
  9 12  1  0
 10 12  1  0
  9 13  1  0
  8 14  1  0
 13 15  1  0
 12 16  2  0
 13 17  2  0
 16 17  1  0
 14 18  2  0
 14 19  1  0
 15 20  1  0
 18 21  1  0
 19 22  2  0
 20 23  2  0
 20 24  1  0
 21 25  2  0
 22 25  1  0
 21 26  1  0
 25 27  1  0
 26 28  1  0
 27 29  1  0
 28 29  1  0
 29 30  2  0
M  END
