mac-x0139-mac-x0178
     RDKit          3D

 26 28  0  0  0  0  0  0  0  0999 V2000
   31.1860   47.6030   -5.4880 C   0  0  0  0  0  0  0  0  0  0  0  0
   30.3270   46.9900   -6.4970 N   0  0  0  0  0  0  0  0  0  0  0  0
   30.7210   45.6180   -6.9140 C   0  0  0  0  0  0  0  0  0  0  0  0
   29.4750   47.7390   -7.3310 C   0  0  0  0  0  0  0  0  0  0  0  0
   31.4310   44.8440   -5.7920 C   0  0  1  0  0  0  0  0  0  0  0  0
   29.1690   49.0390   -7.0940 C   0  0  0  0  0  0  0  0  0  0  0  0
   28.9370   47.0740   -8.4510 N   0  0  0  0  0  0  0  0  0  0  0  0
   32.9370   44.9030   -5.9580 C   0  0  0  0  0  0  0  0  0  0  0  0
   28.2660   49.7290   -8.0510 C   0  0  0  0  0  0  0  0  0  0  0  0
   28.1520   47.7240   -9.2500 C   0  0  0  0  0  0  0  0  0  0  0  0
   29.4610   50.0640   -6.1400 C   0  0  0  0  0  0  0  0  0  0  0  0
   30.9190   45.3040   -4.4240 C   0  0  0  0  0  0  0  0  0  0  0  0
   33.5230   45.2380   -6.9780 O   0  0  0  0  0  0  0  0  0  0  0  0
   33.6610   44.5410   -4.8810 O   0  0  0  0  0  0  0  0  0  0  0  0
   27.7930   49.0240   -9.1030 N   0  0  0  0  0  0  0  0  0  0  0  0
   28.0510   50.9740   -7.7220 N   0  0  0  0  0  0  0  0  0  0  0  0
   28.7900   51.1480   -6.5620 C   0  0  0  0  0  0  0  0  0  0  0  0
   29.5600   45.1540   -4.1060 C   0  0  0  0  0  0  0  0  0  0  0  0
   31.7790   45.8830   -3.4690 C   0  0  0  0  0  0  0  0  0  0  0  0
   29.0610   45.5670   -2.8730 C   0  0  0  0  0  0  0  0  0  0  0  0
   31.2810   46.3020   -2.2260 C   0  0  0  0  0  0  0  0  0  0  0  0
   29.9230   46.1390   -1.9410 C   0  0  0  0  0  0  0  0  0  0  0  0
   29.2580   46.6590   -0.3820 S   0  0  0  0  0  0  0  0  0  0  0  0
   28.6950   45.1980    0.2420 N   0  0  0  0  0  0  0  0  0  0  0  0
   30.3450   47.0570    0.4820 O   0  0  0  0  0  0  0  0  0  0  0  0
   28.1140   47.5030   -0.6330 O   0  0  0  0  0  0  0  0  0  0  0  0
  1  2  1  0
  2  3  1  0
  2  4  1  0
  5  3  1  6
  4  6  2  0
  4  7  1  0
  5  8  1  0
  6  9  1  0
  7 10  2  0
  6 11  1  0
  5 12  1  0
  8 13  2  0
  8 14  1  0
  9 15  1  0
 10 15  1  0
  9 16  2  0
 11 17  2  0
 16 17  1  0
 12 18  2  0
 12 19  1  0
 18 20  1  0
 19 21  2  0
 20 22  2  0
 21 22  1  0
 22 23  1  0
 23 24  1  0
 23 25  2  0
 23 26  2  0
M  END
