mac-x0375-mac-x0588
     RDKit          3D

 29 32  0  0  0  0  0  0  0  0999 V2000
   32.3290   43.7030   -6.4300 O   0  0  0  0  0  0  0  0  0  0  0  0
   33.4160   44.4840   -6.2340 C   0  0  0  0  0  0  0  0  0  0  0  0
   34.3310   44.4350   -7.0400 O   0  0  0  0  0  0  0  0  0  0  0  0
   33.3110   45.3500   -4.9750 C   0  0  2  0  0  0  0  0  0  0  0  0
   34.4000   44.9730   -4.1220 O   0  0  0  0  0  0  0  0  0  0  0  0
   31.9860   45.1100   -4.2380 C   0  0  0  0  0  0  0  0  0  0  0  0
   31.3620   46.4100   -3.7010 C   0  0  0  0  0  0  0  0  0  0  0  0
   35.2070   45.9600   -3.6290 C   0  0  0  0  0  0  0  0  0  0  0  0
   30.0370   46.7760   -4.4130 C   0  0  2  0  0  0  0  0  0  0  0  0
   36.5240   45.5590   -3.3860 C   0  0  0  0  0  0  0  0  0  0  0  0
   34.8350   47.2740   -3.3620 C   0  0  0  0  0  0  0  0  0  0  0  0
   37.4600   46.4660   -2.8820 C   0  0  0  0  0  0  0  0  0  0  0  0
   35.7710   48.1840   -2.8580 C   0  0  0  0  0  0  0  0  0  0  0  0
   30.0360   48.2010   -4.8170 N   0  0  0  0  0  0  0  0  0  0  0  0
   28.8150   46.2060   -3.6240 C   0  0  2  0  0  0  0  0  0  0  0  0
   37.0830   47.7760   -2.6180 C   0  0  0  0  0  0  0  0  0  0  0  0
   29.4490   49.1740   -3.9020 C   0  0  0  0  0  0  0  0  0  0  0  0
   29.6700   48.4640   -6.1960 C   0  0  2  0  0  0  0  0  0  0  0  0
   28.6520   46.8410   -2.3340 O   0  0  0  0  0  0  0  0  0  0  0  0
   28.7370   44.6970   -3.3890 C   0  0  0  0  0  0  0  0  0  0  0  0
   29.4160   50.4930   -4.5300 N   0  0  0  0  0  0  0  0  0  0  0  0
   28.3710   49.2070   -6.3680 C   0  0  1  0  0  0  0  0  0  0  0  0
   29.3460   47.2870   -6.9810 N   0  0  0  0  0  0  0  0  0  0  0  0
   28.2890   44.5630   -1.9530 C   0  0  0  0  0  0  0  0  0  0  0  0
   28.7810   45.8380   -1.3200 C   0  0  0  0  0  0  0  0  0  0  0  0
   28.5020   50.5700   -5.6460 C   0  0  2  0  0  0  0  0  0  0  0  0
   28.2220   49.1870   -7.8420 N   0  0  0  0  0  0  0  0  0  0  0  0
   28.7350   47.8490   -8.1820 C   0  0  0  0  0  0  0  0  0  0  0  0
   29.0120   51.6650   -6.4530 N   0  0  0  0  0  0  0  0  0  0  0  0
  1  2  1  0
  2  3  2  0
  2  4  1  0
  4  5  1  0
  4  6  1  1
  6  7  1  0
  5  8  1  0
  9  7  1  1
  8 10  2  0
  8 11  1  0
 10 12  1  0
 11 13  2  0
  9 14  1  0
  9 15  1  0
 12 16  2  0
 13 16  1  0
 14 17  1  0
 14 18  1  0
 15 19  1  0
 15 20  1  1
 17 21  1  0
 18 22  1  0
 18 23  1  6
 20 24  1  0
 19 25  1  0
 24 25  1  0
 21 26  1  0
 22 26  1  0
 22 27  1  6
 23 28  1  0
 27 28  1  0
 26 29  1  6
M  END
