mac-x0404-mac-x0123
     RDKit          3D

 29 33  0  0  0  0  0  0  0  0999 V2000
   31.9620   44.3470   -7.1690 O   0  0  0  0  0  0  0  0  0  0  0  0
   32.8200   44.7630   -6.2140 C   0  0  0  0  0  0  0  0  0  0  0  0
   33.9380   45.1470   -6.5290 O   0  0  0  0  0  0  0  0  0  0  0  0
   32.2760   44.7000   -4.7960 C   0  0  0  0  0  0  0  0  0  0  0  0
   30.9640   45.2440   -4.7050 O   0  0  0  0  0  0  0  0  0  0  0  0
   30.7020   46.1330   -3.6840 C   0  0  0  0  0  0  0  0  0  0  0  0
   29.6480   45.7810   -2.8020 C   0  0  0  0  0  0  0  0  0  0  0  0
   31.4070   47.3270   -3.4900 C   0  0  0  0  0  0  0  0  0  0  0  0
   29.3250   46.6500   -1.7330 C   0  0  0  0  0  0  0  0  0  0  0  0
   31.0900   48.1910   -2.4300 C   0  0  0  0  0  0  0  0  0  0  0  0
   28.8960   44.5920   -2.9390 C   0  0  0  0  0  0  0  0  0  0  0  0
   31.8590   49.4760   -2.2280 C   0  0  0  0  0  0  0  0  0  0  0  0
   30.0480   47.8400   -1.5610 C   0  0  0  0  0  0  0  0  0  0  0  0
   28.2850   46.3160   -0.8490 C   0  0  0  0  0  0  0  0  0  0  0  0
   27.8650   44.2740   -2.0540 C   0  0  0  0  0  0  0  0  0  0  0  0
   27.5590   45.1350   -1.0090 C   0  0  0  0  0  0  0  0  0  0  0  0
   31.1480   50.5360   -2.9990 C   0  0  0  0  0  0  0  0  0  0  0  0
   30.9920   51.8010   -2.4990 N   0  0  0  0  0  0  0  0  0  0  0  0
   30.6220   50.3280   -4.2130 N   0  0  0  0  0  0  0  0  0  0  0  0
   30.0930   51.5500   -4.5060 N   0  0  0  0  0  0  0  0  0  0  0  0
   30.3320   52.4380   -3.4420 C   0  0  0  0  0  0  0  0  0  0  0  0
   29.3960   51.9500   -5.6770 C   0  0  0  0  0  0  0  0  0  0  0  0
   29.9070   53.7400   -3.4690 N   0  0  0  0  0  0  0  0  0  0  0  0
   29.1980   51.0160   -6.6870 N   0  0  0  0  0  0  0  0  0  0  0  0
   29.2750   54.0840   -4.5430 C   0  0  0  0  0  0  0  0  0  0  0  0
   28.9730   53.2200   -5.7210 C   0  0  0  0  0  0  0  0  0  0  0  0
   28.2300   54.0380   -6.7170 C   0  0  0  0  0  0  0  0  0  0  0  0
   28.7270   55.4600   -4.7720 C   0  0  0  0  0  0  0  0  0  0  0  0
   28.5620   55.4740   -6.2930 C   0  0  0  0  0  0  0  0  0  0  0  0
  1  2  1  0
  2  3  2  0
  2  4  1  0
  4  5  1  0
  5  6  1  0
  6  7  2  0
  6  8  1  0
  7  9  1  0
  8 10  2  0
  7 11  1  0
 10 12  1  0
  9 13  2  0
 10 13  1  0
  9 14  1  0
 11 15  2  0
 14 16  2  0
 15 16  1  0
 12 17  1  0
 17 18  1  0
 17 19  2  0
 19 20  1  0
 18 21  2  0
 20 21  1  0
 20 22  1  0
 21 23  1  0
 22 24  1  0
 23 25  2  0
 22 26  2  0
 25 26  1  0
 26 27  1  0
 25 28  1  0
 27 29  1  0
 28 29  1  0
M  END
