mac-x0305-mac-x0142
     RDKit          3D

 23 26  0  0  0  0  0  0  0  0999 V2000
   33.3260   49.2440   -7.1990 O   0  0  0  0  0  0  0  0  0  0  0  0
   32.7850   49.6020   -6.0130 C   0  0  0  0  0  0  0  0  0  0  0  0
   33.4860   49.8860   -5.0540 O   0  0  0  0  0  0  0  0  0  0  0  0
   31.2780   49.5990   -6.0670 C   0  0  0  0  0  0  0  0  0  0  0  0
   30.6350   48.4210   -5.8350 C   0  0  0  0  0  0  0  0  0  0  0  0
   30.7190   50.8400   -6.3580 N   0  0  0  0  0  0  0  0  0  0  0  0
   31.3270   47.2480   -5.5560 O   0  0  0  0  0  0  0  0  0  0  0  0
   29.6610   51.0020   -7.2050 C   0  0  0  0  0  0  0  0  0  0  0  0
   29.1420   48.2260   -5.8470 C   0  0  0  0  0  0  0  0  0  0  0  0
   28.2370   49.0660   -6.5190 C   0  0  0  0  0  0  0  0  0  0  0  0
   28.5620   50.2570   -7.3130 C   0  0  0  0  0  0  0  0  0  0  0  0
   28.5100   47.1490   -5.1620 C   0  0  0  0  0  0  0  0  0  0  0  0
   29.2360   46.1810   -4.4190 N   0  0  0  0  0  0  0  0  0  0  0  0
   27.1660   46.9670   -5.1690 N   0  0  0  0  0  0  0  0  0  0  0  0
   26.8930   48.8820   -6.5250 N   0  0  0  0  0  0  0  0  0  0  0  0
   29.8590   46.5590   -3.1350 C   0  0  0  0  0  0  0  0  0  0  0  0
   29.6090   44.9680   -5.1710 C   0  0  0  0  0  0  0  0  0  0  0  0
   26.4270   47.8380   -5.8470 C   0  0  0  0  0  0  0  0  0  0  0  0
   31.0790   44.6380   -4.9950 C   0  0  0  0  0  0  0  0  0  0  0  0
   31.3410   46.2160   -3.0680 C   0  0  0  0  0  0  0  0  0  0  0  0
   31.6500   43.5030   -5.8280 C   0  0  0  0  0  0  0  0  0  0  0  0
   32.0380   44.9200   -6.1350 C   0  0  0  0  0  0  0  0  0  0  0  0
   31.5870   44.8000   -3.5800 C   0  0  0  0  0  0  0  0  0  0  0  0
  1  2  1  0
  2  3  2  0
  2  4  1  0
  4  5  2  0
  4  6  1  0
  5  7  1  0
  6  8  1  0
  5  9  1  0
  9 10  2  0
  8 11  2  0
 10 11  1  0
  9 12  1  0
 12 13  1  0
 12 14  2  0
 10 15  1  0
 13 16  1  0
 13 17  1  0
 14 18  1  0
 15 18  2  0
 19 17  1  0
 16 20  1  0
 19 21  1  0
 19 22  1  0
 21 22  1  0
 19 23  1  0
 20 23  1  0
M  END
