mac-x0546-mac-x0472
     RDKit          3D

 31 34  0  0  0  0  0  0  0  0999 V2000
   30.3050   48.0280    0.5570 C   0  0  0  0  0  0  0  0  0  0  0  0
   30.1060   48.2440   -0.8800 N   0  0  0  0  0  0  0  0  0  0  0  0
   30.4920   49.5820   -1.3280 C   0  0  0  0  0  0  0  0  0  0  0  0
   29.9130   47.1740   -1.7730 C   0  0  0  0  0  0  0  0  0  0  0  0
   31.0640   49.5170   -2.6700 N   0  0  0  0  0  0  0  0  0  0  0  0
   30.8460   46.7450   -2.6600 C   0  0  0  0  0  0  0  0  0  0  0  0
   28.6180   46.4540   -1.7670 C   0  0  0  0  0  0  0  0  0  0  0  0
   30.6490   50.6060   -3.6570 S   0  0  2  0  0  0  0  0  0  0  0  0
   30.5780   45.6040   -3.5860 C   0  0  2  0  0  0  0  0  0  0  0  0
   28.4470   45.2200   -2.2740 C   0  0  0  0  0  0  0  0  0  0  0  0
   29.8130   51.7450   -3.3420 O   0  0  0  0  0  0  0  0  0  0  0  0
   29.7340   49.6840   -4.7240 N   0  0  0  0  0  0  0  0  0  0  0  0
   29.6720   44.6480   -2.8410 C   0  0  0  0  0  0  0  0  0  0  0  0
   31.6330   44.5950   -3.9040 C   0  0  0  0  0  0  0  0  0  0  0  0
   32.1170   51.1730   -4.4840 C   0  0  0  0  0  0  0  0  0  0  0  0
   32.8850   44.9140   -4.6530 C   0  0  0  0  0  0  0  0  0  0  0  0
   30.0540   43.4100   -2.7620 N   0  0  0  0  0  0  0  0  0  0  0  0
   31.2580   43.4010   -3.4170 C   0  0  0  0  0  0  0  0  0  0  0  0
   29.3340   50.1790   -5.9140 C   0  0  0  0  0  0  0  0  0  0  0  0
   33.1530   50.2700   -4.7470 C   0  0  0  0  0  0  0  0  0  0  0  0
   32.2240   52.5160   -4.8630 C   0  0  0  0  0  0  0  0  0  0  0  0
   32.7230   44.8690   -6.1580 C   0  0  0  0  0  0  0  0  0  0  0  0
   28.7200   49.4410   -6.8220 N   0  0  0  0  0  0  0  0  0  0  0  0
   29.5530   51.8150   -6.4340 S   0  0  0  0  0  0  0  0  0  0  0  0
   34.3040   50.7190   -5.3950 C   0  0  0  0  0  0  0  0  0  0  0  0
   33.3790   52.9540   -5.5100 C   0  0  0  0  0  0  0  0  0  0  0  0
   31.7330   44.6000   -6.8150 O   0  0  0  0  0  0  0  0  0  0  0  0
   33.8800   45.1780   -6.7890 O   0  0  0  0  0  0  0  0  0  0  0  0
   28.7780   51.3890   -7.8940 C   0  0  0  0  0  0  0  0  0  0  0  0
   28.3960   50.1380   -7.9690 N   0  0  0  0  0  0  0  0  0  0  0  0
   34.4160   52.0570   -5.7750 C   0  0  0  0  0  0  0  0  0  0  0  0
  1  2  1  0
  2  3  1  0
  2  4  1  0
  3  5  1  0
  4  6  2  0
  4  7  1  0
  5  8  2  0
  9  6  1  1
  7 10  2  0
  8 11  2  0
  8 12  1  6
  9 13  1  0
 10 13  1  0
  9 14  1  0
  8 15  1  0
 14 16  1  0
 13 17  2  0
 14 18  2  0
 17 18  1  0
 12 19  1  0
 15 20  2  0
 15 21  1  0
 16 22  1  0
 19 23  2  0
 19 24  1  0
 20 25  1  0
 21 26  2  0
 22 27  2  0
 22 28  1  0
 24 29  1  0
 23 30  1  0
 29 30  2  0
 25 31  2  0
 26 31  1  0
M  END
