mac-x0328-mac-x0379
     RDKit          3D

 10 10  0  0  0  0  0  0  0  0999 V2000
   30.8280   47.6050   -3.4750 O   0  0  0  0  0  0  0  0  0  0  0  0
   30.2440   48.1740   -4.5500 C   0  0  0  0  0  0  0  0  0  0  0  0
   29.9280   47.5570   -5.5510 O   0  0  0  0  0  0  0  0  0  0  0  0
   30.0270   49.6320   -4.3920 C   0  0  0  0  0  0  0  0  0  0  0  0
   29.6470   50.3760   -5.5160 C   0  0  0  0  0  0  0  0  0  0  0  0
   30.1980   50.2660   -3.1530 C   0  0  0  0  0  0  0  0  0  0  0  0
   29.4330   51.7520   -5.4040 C   0  0  0  0  0  0  0  0  0  0  0  0
   29.9850   51.6410   -3.0460 C   0  0  0  0  0  0  0  0  0  0  0  0
   29.6020   52.3720   -4.1680 C   0  0  0  0  0  0  0  0  0  0  0  0
   29.4060   53.7110   -4.0140 O   0  0  0  0  0  0  0  0  0  0  0  0
  1  2  1  0
  2  3  2  0
  2  4  1  0
  4  5  2  0
  4  6  1  0
  5  7  1  0
  6  8  2  0
  7  9  2  0
  8  9  1  0
  9 10  1  0
M  END
