mac-x0568-mac-x0404
     RDKit          3D

 27 29  0  0  0  0  0  0  0  0999 V2000
   29.5480   55.7300   -5.4210 C   0  0  0  0  0  0  0  0  0  0  0  0
   29.5480   54.2330   -5.3390 C   0  0  0  0  0  0  0  0  0  0  0  0
   29.1820   53.4670   -6.4460 C   0  0  0  0  0  0  0  0  0  0  0  0
   29.9140   53.6790   -4.1600 N   0  0  0  0  0  0  0  0  0  0  0  0
   29.9170   52.3270   -4.0840 C   0  0  0  0  0  0  0  0  0  0  0  0
   29.1930   52.0760   -6.3380 C   0  0  0  0  0  0  0  0  0  0  0  0
   29.5690   51.4880   -5.1300 C   0  0  0  0  0  0  0  0  0  0  0  0
   29.5940   50.0150   -4.9770 C   0  0  0  0  0  0  0  0  0  0  0  0
   29.7610   49.5530   -3.8580 O   0  0  0  0  0  0  0  0  0  0  0  0
   29.4270   49.2390   -6.1100 N   0  0  0  0  0  0  0  0  0  0  0  0
   29.7310   47.8060   -6.1010 C   0  0  0  0  0  0  0  0  0  0  0  0
   31.2360   47.5070   -6.2190 C   0  0  0  0  0  0  0  0  0  0  0  0
   31.5050   46.1010   -6.4010 O   0  0  0  0  0  0  0  0  0  0  0  0
   32.7260   45.6810   -5.9370 C   0  0  0  0  0  0  0  0  0  0  0  0
   33.7980   46.1080   -6.3430 O   0  0  0  0  0  0  0  0  0  0  0  0
   32.5460   44.6140   -4.8610 C   0  0  0  0  0  0  0  0  0  0  0  0
   31.2660   44.7000   -4.2520 O   0  0  0  0  0  0  0  0  0  0  0  0
   31.0720   45.6510   -3.2770 C   0  0  0  0  0  0  0  0  0  0  0  0
   29.8760   45.5280   -2.5290 C   0  0  0  0  0  0  0  0  0  0  0  0
   31.9660   46.6910   -3.0030 C   0  0  0  0  0  0  0  0  0  0  0  0
   29.6000   46.4690   -1.5090 C   0  0  0  0  0  0  0  0  0  0  0  0
   31.6850   47.6130   -1.9940 C   0  0  0  0  0  0  0  0  0  0  0  0
   28.9350   44.5010   -2.7560 C   0  0  0  0  0  0  0  0  0  0  0  0
   30.5120   47.5030   -1.2550 C   0  0  0  0  0  0  0  0  0  0  0  0
   28.4160   46.3610   -0.7600 C   0  0  0  0  0  0  0  0  0  0  0  0
   27.7630   44.4060   -2.0030 C   0  0  0  0  0  0  0  0  0  0  0  0
   27.5060   45.3360   -1.0060 C   0  0  0  0  0  0  0  0  0  0  0  0
  1  2  1  0
  2  3  2  0
  2  4  1  0
  4  5  2  0
  3  6  1  0
  5  7  1  0
  6  7  2  0
  7  8  1  0
  8  9  2  0
  8 10  1  0
 10 11  1  0
 11 12  1  0
 12 13  1  0
 13 14  1  0
 14 15  2  0
 14 16  1  0
 16 17  1  0
 17 18  1  0
 18 19  1  0
 18 20  2  0
 19 21  2  0
 20 22  1  0
 19 23  1  0
 21 24  1  0
 22 24  2  0
 21 25  1  0
 23 26  2  0
 25 27  2  0
 26 27  1  0
M  END
