mac-x0373-mac-x0206
     RDKit          3D

 25 27  0  0  0  0  0  0  0  0999 V2000
   31.2720   45.4280   -6.7590 O   0  0  0  0  0  0  0  0  0  0  0  0
   30.5430   46.0780   -5.8330 C   0  0  0  0  0  0  0  0  0  0  0  0
   29.5600   45.5460   -5.3400 O   0  0  0  0  0  0  0  0  0  0  0  0
   31.1250   47.4570   -5.5910 C   0  0  2  0  0  0  0  0  0  0  0  0
   32.3050   47.5870   -4.6330 C   0  0  0  0  0  0  0  0  0  0  0  0
   30.0850   48.5380   -5.5410 C   0  0  0  0  0  0  0  0  0  0  0  0
   32.7230   46.5770   -3.7520 C   0  0  0  0  0  0  0  0  0  0  0  0
   33.0190   48.7980   -4.6600 C   0  0  0  0  0  0  0  0  0  0  0  0
   30.1740   49.5890   -4.6630 C   0  0  0  0  0  0  0  0  0  0  0  0
   29.0040   48.4840   -6.4290 C   0  0  0  0  0  0  0  0  0  0  0  0
   33.8310   46.7790   -2.9260 C   0  0  0  0  0  0  0  0  0  0  0  0
   34.1230   48.9950   -3.8370 C   0  0  0  0  0  0  0  0  0  0  0  0
   29.2030   50.5530   -4.6960 C   0  0  0  0  0  0  0  0  0  0  0  0
   28.0290   49.4710   -6.4360 C   0  0  0  0  0  0  0  0  0  0  0  0
   34.5300   47.9880   -2.9730 C   0  0  0  0  0  0  0  0  0  0  0  0
   28.1300   50.5160   -5.5590 C   0  0  0  0  0  0  0  0  0  0  0  0
   29.2850   51.6630   -3.8430 C   0  0  0  0  0  0  0  0  0  0  0  0
   29.3900   51.5240   -2.6350 O   0  0  0  0  0  0  0  0  0  0  0  0
   29.2650   52.9540   -4.5290 C   0  0  0  0  0  0  0  0  0  0  0  0
   29.8370   54.0670   -3.9740 C   0  0  0  0  0  0  0  0  0  0  0  0
   28.6470   53.0320   -5.7910 C   0  0  0  0  0  0  0  0  0  0  0  0
   30.4390   53.9780   -2.7560 O   0  0  0  0  0  0  0  0  0  0  0  0
   29.8060   55.2810   -4.6450 C   0  0  0  0  0  0  0  0  0  0  0  0
   28.6110   54.2430   -6.4740 C   0  0  0  0  0  0  0  0  0  0  0  0
   29.1920   55.3700   -5.8960 C   0  0  0  0  0  0  0  0  0  0  0  0
  1  2  1  0
  2  3  2  0
  4  2  1  1
  4  5  1  0
  4  6  1  0
  5  7  2  0
  5  8  1  0
  6  9  2  0
  6 10  1  0
  7 11  1  0
  8 12  2  0
  9 13  1  0
 10 14  2  0
 11 15  2  0
 12 15  1  0
 13 16  2  0
 14 16  1  0
 13 17  1  0
 17 18  2  0
 17 19  1  0
 19 20  2  0
 19 21  1  0
 20 22  1  0
 20 23  1  0
 21 24  2  0
 23 25  2  0
 24 25  1  0
M  END
