mac-x0396-mac-x0587
     RDKit          3D

 23 24  0  0  0  0  0  0  0  0999 V2000
   27.9330   51.4290   -7.0170 N   0  0  0  0  0  0  0  0  0  0  0  0
   28.6320   51.3120   -5.7350 C   0  0  2  0  0  0  0  0  0  0  0  0
   29.0410   52.6000   -5.1030 C   0  0  0  0  0  0  0  0  0  0  0  0
   29.8380   50.4110   -5.8670 C   0  0  1  0  0  0  0  0  0  0  0  0
   29.4830   52.6960   -3.7880 C   0  0  0  0  0  0  0  0  0  0  0  0
   28.9960   53.7680   -5.8520 C   0  0  0  0  0  0  0  0  0  0  0  0
   30.3030   49.8630   -4.5410 C   0  0  0  0  0  0  0  0  0  0  0  0
   29.5420   49.2630   -6.6490 N   0  0  0  0  0  0  0  0  0  0  0  0
   29.8670   53.8460   -3.1990 N   0  0  0  0  0  0  0  0  0  0  0  0
   29.3830   54.9660   -5.2780 C   0  0  0  0  0  0  0  0  0  0  0  0
   29.8200   48.5080   -4.5260 N   0  0  0  0  0  0  0  0  0  0  0  0
   29.3940   48.1630   -5.8330 C   0  0  0  0  0  0  0  0  0  0  0  0
   29.8050   54.9540   -3.9640 C   0  0  0  0  0  0  0  0  0  0  0  0
   30.3050   47.6970   -3.5320 C   0  0  0  0  0  0  0  0  0  0  0  0
   28.9640   47.1200   -6.2640 O   0  0  0  0  0  0  0  0  0  0  0  0
   30.5920   46.2290   -3.8230 C   0  0  2  0  0  0  0  0  0  0  0  0
   30.5150   48.1580   -2.3980 O   0  0  0  0  0  0  0  0  0  0  0  0
   29.5880   45.2500   -3.2290 C   0  0  0  0  0  0  0  0  0  0  0  0
   32.3430   45.7780   -3.5300 S   0  0  0  0  0  0  0  0  0  0  0  0
   33.1580   46.6530   -4.9160 C   0  0  0  0  0  0  0  0  0  0  0  0
   33.2900   45.8330   -6.1850 C   0  0  0  0  0  0  0  0  0  0  0  0
   34.2970   45.5700   -6.8160 O   0  0  0  0  0  0  0  0  0  0  0  0
   32.0970   45.3680   -6.6260 O   0  0  0  0  0  0  0  0  0  0  0  0
  2  1  1  6
  2  3  1  0
  2  4  1  0
  3  5  2  0
  3  6  1  0
  4  7  1  1
  4  8  1  0
  5  9  1  0
  6 10  2  0
  7 11  1  0
  8 12  1  0
 11 12  1  0
  9 13  2  0
 10 13  1  0
 11 14  1  0
 12 15  2  0
 14 16  1  0
 14 17  2  0
 16 18  1  1
 16 19  1  0
 19 20  1  0
 20 21  1  0
 21 22  2  0
 21 23  1  0
M  END
