mac-x0284-mac-x0361
     RDKit          3D

 14 14  0  0  0  0  0  0  0  0999 V2000
   28.0500   51.1020   -6.5480 C   0  0  0  0  0  0  0  0  0  0  0  0
   28.9240   50.3940   -5.5480 C   0  0  0  0  0  0  0  0  0  0  0  0
   29.5540   51.0750   -4.4870 C   0  0  0  0  0  0  0  0  0  0  0  0
   29.1240   49.0070   -5.6730 C   0  0  0  0  0  0  0  0  0  0  0  0
   29.3850   52.5400   -4.2940 C   0  0  0  0  0  0  0  0  0  0  0  0
   29.9330   48.2920   -4.7720 C   0  0  0  0  0  0  0  0  0  0  0  0
   30.3640   50.3670   -3.5790 C   0  0  0  0  0  0  0  0  0  0  0  0
   30.0750   46.8200   -5.0030 C   0  0  0  0  0  0  0  0  0  0  0  0
   29.4130   53.3040   -5.4310 N   0  0  0  0  0  0  0  0  0  0  0  0
   29.2260   53.0430   -3.1940 O   0  0  0  0  0  0  0  0  0  0  0  0
   30.5480   48.9920   -3.7260 C   0  0  0  0  0  0  0  0  0  0  0  0
   31.3440   48.3220   -2.8250 O   0  0  0  0  0  0  0  0  0  0  0  0
   29.8880   46.3060   -6.0960 O   0  0  0  0  0  0  0  0  0  0  0  0
   30.4230   46.0930   -3.9210 O   0  0  0  0  0  0  0  0  0  0  0  0
  1  2  1  0
  2  3  2  0
  2  4  1  0
  3  5  1  0
  4  6  2  0
  3  7  1  0
  6  8  1  0
  5  9  1  0
  5 10  2  0
  6 11  1  0
  7 11  2  0
 11 12  1  0
  8 13  2  0
  8 14  1  0
M  END
