mac-x0346-mac-x0338
     RDKit          3D

 12 12  0  0  0  0  0  0  0  0999 V2000
   29.1690   55.2740   -5.0840 O   0  0  0  0  0  0  0  0  0  0  0  0
   30.1530   54.4200   -4.5370 N   0  0  0  0  0  0  0  0  0  0  0  0
   29.7050   53.2780   -3.9200 C   0  0  0  0  0  0  0  0  0  0  0  0
   29.6380   53.2070   -2.6910 O   0  0  0  0  0  0  0  0  0  0  0  0
   29.3070   52.1300   -4.7910 C   0  0  0  0  0  0  0  0  0  0  0  0
   29.3880   50.7830   -4.4070 C   0  0  0  0  0  0  0  0  0  0  0  0
   28.8200   52.4360   -6.0750 C   0  0  0  0  0  0  0  0  0  0  0  0
   29.8530   50.4320   -3.1670 O   0  0  0  0  0  0  0  0  0  0  0  0
   28.9930   49.7710   -5.2830 C   0  0  0  0  0  0  0  0  0  0  0  0
   28.4230   51.4290   -6.9620 C   0  0  0  0  0  0  0  0  0  0  0  0
   28.5150   50.0990   -6.5520 C   0  0  0  0  0  0  0  0  0  0  0  0
   27.9470   51.7520   -8.2320 N   0  0  0  0  0  0  0  0  0  0  0  0
  1  2  1  0
  2  3  1  0
  3  4  2  0
  3  5  1  0
  5  6  2  0
  5  7  1  0
  6  8  1  0
  6  9  1  0
  7 10  2  0
  9 11  2  0
 10 11  1  0
 10 12  1  0
M  END
