mac-x0123-mac-x0178
     RDKit          3D

 28 31  0  0  0  0  0  0  0  0999 V2000
   28.4590   51.6900   -7.2460 N   0  0  0  0  0  0  0  0  0  0  0  0
   28.9060   52.3040   -6.0810 C   0  0  0  0  0  0  0  0  0  0  0  0
   29.0780   53.6210   -5.9380 C   0  0  0  0  0  0  0  0  0  0  0  0
   29.1920   51.4980   -4.9570 N   0  0  0  0  0  0  0  0  0  0  0  0
   29.6630   52.0440   -3.7510 C   0  0  0  0  0  0  0  0  0  0  0  0
   29.5800   54.1060   -4.6200 C   0  0  0  0  0  0  0  0  0  0  0  0
   28.8790   54.7940   -6.8270 C   0  0  0  0  0  0  0  0  0  0  0  0
   29.0590   50.1490   -4.8280 N   0  0  0  0  0  0  0  0  0  0  0  0
   29.8740   53.3820   -3.5890 N   0  0  0  0  0  0  0  0  0  0  0  0
   29.7060   55.5990   -4.6380 C   0  0  0  0  0  0  0  0  0  0  0  0
   29.6540   55.9170   -6.1350 C   0  0  0  0  0  0  0  0  0  0  0  0
   29.8230   51.0770   -2.8810 N   0  0  0  0  0  0  0  0  0  0  0  0
   29.4350   49.9570   -3.5630 C   0  0  0  0  0  0  0  0  0  0  0  0
   29.4270   48.6370   -2.8990 C   0  0  0  0  0  0  0  0  0  0  0  0
   28.0430   48.2050   -2.3700 C   0  0  0  0  0  0  0  0  0  0  0  0
   27.9730   47.4250   -1.1010 N   0  0  0  0  0  0  0  0  0  0  0  0
   29.1370   46.5280   -0.7230 S   0  0  2  0  0  0  0  0  0  0  0  0
   28.3240   45.1030   -0.3740 N   0  0  0  0  0  0  0  0  0  0  0  0
   30.0280   46.6930    0.3950 O   0  0  0  0  0  0  0  0  0  0  0  0
   30.0210   46.3470   -2.2340 C   0  0  0  0  0  0  0  0  0  0  0  0
   29.4110   45.6710   -3.2930 C   0  0  0  0  0  0  0  0  0  0  0  0
   31.2970   46.8890   -2.3610 C   0  0  0  0  0  0  0  0  0  0  0  0
   30.0910   45.5460   -4.5050 C   0  0  0  0  0  0  0  0  0  0  0  0
   31.9770   46.7640   -3.5750 C   0  0  0  0  0  0  0  0  0  0  0  0
   31.3690   46.0960   -4.6460 C   0  0  0  0  0  0  0  0  0  0  0  0
   32.0420   45.9460   -5.9570 C   0  0  0  0  0  0  0  0  0  0  0  0
   31.4440   45.6060   -6.9670 O   0  0  0  0  0  0  0  0  0  0  0  0
   33.3570   46.2270   -5.9370 O   0  0  0  0  0  0  0  0  0  0  0  0
  1  2  1  0
  2  3  2  0
  2  4  1  0
  4  5  1  0
  3  6  1  0
  3  7  1  0
  4  8  1  0
  5  9  1  0
  6  9  2  0
  6 10  1  0
  7 11  1  0
 10 11  1  0
  5 12  2  0
  8 13  2  0
 12 13  1  0
 13 14  1  0
 14 15  1  0
 15 16  1  0
 16 17  2  0
 17 18  1  1
 17 19  2  0
 17 20  1  0
 20 21  2  0
 20 22  1  0
 21 23  1  0
 22 24  2  0
 23 25  2  0
 24 25  1  0
 25 26  1  0
 26 27  2  0
 26 28  1  0
M  END
