mac-x0319-mac-x0306
     RDKit          3D

 23 25  0  0  0  0  0  0  0  0999 V2000
   34.3200   45.8000   -6.7200 O   0  0  0  0  0  0  0  0  0  0  0  0
   33.0320   45.4600   -6.5080 C   0  0  0  0  0  0  0  0  0  0  0  0
   32.1850   45.7430   -7.3390 O   0  0  0  0  0  0  0  0  0  0  0  0
   32.8410   44.7480   -5.1910 C   0  0  0  0  0  0  0  0  0  0  0  0
   31.6840   45.2980   -4.4010 C   0  0  0  0  0  0  0  0  0  0  0  0
   30.5790   44.5010   -4.0750 C   0  0  0  0  0  0  0  0  0  0  0  0
   31.7090   46.6340   -3.9860 C   0  0  0  0  0  0  0  0  0  0  0  0
   29.5280   45.0480   -3.3480 C   0  0  0  0  0  0  0  0  0  0  0  0
   30.6560   47.1970   -3.2540 C   0  0  0  0  0  0  0  0  0  0  0  0
   28.4380   44.2950   -3.0180 O   0  0  0  0  0  0  0  0  0  0  0  0
   30.7190   48.6490   -2.8200 C   0  0  0  0  0  0  0  0  0  0  0  0
   29.5540   46.3810   -2.9350 C   0  0  0  0  0  0  0  0  0  0  0  0
   29.8320   49.5950   -3.5440 N   0  0  0  0  0  0  0  0  0  0  0  0
   29.3550   50.6500   -2.7770 C   0  0  0  0  0  0  0  0  0  0  0  0
   30.0090   49.8540   -4.9090 C   0  0  0  0  0  0  0  0  0  0  0  0
   28.8730   51.7940   -3.2730 C   0  0  0  0  0  0  0  0  0  0  0  0
   29.5580   50.9680   -5.5290 C   0  0  0  0  0  0  0  0  0  0  0  0
   28.7990   52.0420   -4.7660 C   0  0  0  0  0  0  0  0  0  0  0  0
   29.1130   53.4830   -5.1290 C   0  0  0  0  0  0  0  0  0  0  0  0
   28.7880   54.0190   -6.3570 N   0  0  0  0  0  0  0  0  0  0  0  0
   29.7050   54.4000   -4.3800 N   0  0  0  0  0  0  0  0  0  0  0  0
   29.7540   55.5390   -5.1370 C   0  0  0  0  0  0  0  0  0  0  0  0
   29.1910   55.3250   -6.3710 C   0  0  0  0  0  0  0  0  0  0  0  0
  1  2  1  0
  2  3  2  0
  2  4  1  0
  4  5  1  0
  5  6  2  0
  5  7  1  0
  6  8  1  0
  7  9  2  0
  8 10  1  0
  9 11  1  0
  8 12  2  0
  9 12  1  0
 11 13  1  0
 13 14  1  0
 13 15  1  0
 14 16  2  0
 15 17  2  0
 16 18  1  0
 17 18  1  0
 18 19  1  0
 19 20  1  0
 19 21  2  0
 21 22  1  0
 20 23  1  0
 22 23  2  0
M  END
