mac-x0588-mac-x1493
     RDKit          3D

 28 32  0  0  0  0  0  0  0  0999 V2000
   26.7330   50.7710   -7.9680 N   0  0  0  0  0  0  0  0  0  0  0  0
   27.5700   50.0400   -7.0430 C   0  0  2  0  0  0  0  0  0  0  0  0
   28.4140   48.9350   -7.7120 C   0  0  1  0  0  0  0  0  0  0  0  0
   26.6510   49.5130   -6.0700 N   0  0  0  0  0  0  0  0  0  0  0  0
   27.3030   48.5090   -5.2390 C   0  0  0  0  0  0  0  0  0  0  0  0
   29.3560   48.3520   -6.6410 C   0  0  1  0  0  0  0  0  0  0  0  0
   27.6920   47.7740   -8.2630 N   0  0  0  0  0  0  0  0  0  0  0  0
   28.7570   48.3340   -5.2990 N   0  0  0  0  0  0  0  0  0  0  0  0
   29.7770   47.1280   -7.3330 N   0  0  0  0  0  0  0  0  0  0  0  0
   28.5700   46.6390   -7.9870 C   0  0  0  0  0  0  0  0  0  0  0  0
   29.5030   47.9970   -4.1380 C   0  0  0  0  0  0  0  0  0  0  0  0
   30.1280   48.9210   -3.3480 C   0  0  0  0  0  0  0  0  0  0  0  0
   29.5430   46.4880   -3.8360 C   0  0  2  0  0  0  0  0  0  0  0  0
   30.8450   48.5570   -2.2270 O   0  0  0  0  0  0  0  0  0  0  0  0
   28.3900   46.1390   -3.0380 O   0  0  0  0  0  0  0  0  0  0  0  0
   30.7690   45.8340   -3.1820 C   0  0  0  0  0  0  0  0  0  0  0  0
   30.1100   50.3790   -3.5870 C   0  0  0  0  0  0  0  0  0  0  0  0
   30.1700   44.8570   -2.2020 C   0  0  0  0  0  0  0  0  0  0  0  0
   28.8610   45.5200   -1.8380 C   0  0  0  0  0  0  0  0  0  0  0  0
   30.0980   50.9230   -4.8690 C   0  0  0  0  0  0  0  0  0  0  0  0
   30.1050   51.2770   -2.5260 C   0  0  0  0  0  0  0  0  0  0  0  0
   30.0800   52.3160   -5.0460 C   0  0  0  0  0  0  0  0  0  0  0  0
   30.0880   52.6270   -2.6570 N   0  0  0  0  0  0  0  0  0  0  0  0
   30.0750   53.1350   -3.8990 C   0  0  0  0  0  0  0  0  0  0  0  0
   30.0660   52.8950   -6.3270 C   0  0  0  0  0  0  0  0  0  0  0  0
   30.0550   54.5140   -4.0740 C   0  0  0  0  0  0  0  0  0  0  0  0
   30.0450   54.2820   -6.4750 C   0  0  0  0  0  0  0  0  0  0  0  0
   30.0400   55.0910   -5.3450 C   0  0  0  0  0  0  0  0  0  0  0  0
  2  1  1  6
  2  3  1  0
  2  4  1  0
  4  5  1  0
  3  6  1  0
  3  7  1  1
  5  8  1  0
  6  8  1  0
  6  9  1  6
  7 10  1  0
  9 10  1  0
  8 11  1  0
 11 12  2  3
 13 11  1  1
 12 14  1  0
 13 15  1  0
 13 16  1  0
 12 17  1  0
 16 18  1  0
 15 19  1  0
 18 19  1  0
 17 20  2  0
 17 21  1  0
 20 22  1  0
 21 23  2  0
 22 24  2  0
 23 24  1  0
 22 25  1  0
 24 26  1  0
 25 27  2  0
 26 28  2  0
 27 28  1  0
M  END
