mac-x0567-mac-x0590
     RDKit          3D

 19 21  0  0  0  0  0  0  0  0999 V2000
   29.6290   47.1760   -7.8420 N   0  0  0  0  0  0  0  0  0  0  0  0
   29.3500   48.4440   -7.4680 C   0  0  0  0  0  0  0  0  0  0  0  0
   28.9060   49.3540   -8.3890 N   0  0  0  0  0  0  0  0  0  0  0  0
   29.3980   49.1400   -6.2810 C   0  0  0  0  0  0  0  0  0  0  0  0
   28.6610   50.5850   -7.9080 N   0  0  0  0  0  0  0  0  0  0  0  0
   28.9560   50.4900   -6.5960 C   0  0  0  0  0  0  0  0  0  0  0  0
   29.7880   48.6750   -5.0120 C   0  0  0  0  0  0  0  0  0  0  0  0
   30.2540   47.3050   -4.6060 C   0  0  0  0  0  0  0  0  0  0  0  0
   28.8790   51.4950   -5.6010 C   0  0  0  0  0  0  0  0  0  0  0  0
   29.6940   49.7160   -4.0470 C   0  0  0  0  0  0  0  0  0  0  0  0
   28.4610   52.8140   -5.8340 N   0  0  0  0  0  0  0  0  0  0  0  0
   31.6420   47.3010   -3.9560 C   0  0  0  0  0  0  0  0  0  0  0  0
   29.2640   51.0510   -4.3230 C   0  0  0  0  0  0  0  0  0  0  0  0
   32.1330   45.8930   -3.5980 C   0  0  0  0  0  0  0  0  0  0  0  0
   33.3400   45.4680   -4.4360 C   0  0  2  0  0  0  0  0  0  0  0  0
   33.0500   45.4190   -5.9270 C   0  0  0  0  0  0  0  0  0  0  0  0
   33.8340   44.0570   -4.1820 C   0  0  0  0  0  0  0  0  0  0  0  0
   32.9360   43.2480   -5.0930 C   0  0  0  0  0  0  0  0  0  0  0  0
   32.6540   44.0710   -6.2300 O   0  0  0  0  0  0  0  0  0  0  0  0
  1  2  1  0
  2  3  1  0
  2  4  2  0
  3  5  1  0
  4  6  1  0
  5  6  2  0
  4  7  1  0
  7  8  1  0
  6  9  1  0
  7 10  2  0
  9 11  1  0
  8 12  1  0
  9 13  2  0
 10 13  1  0
 12 14  1  0
 15 14  1  1
 15 16  1  0
 15 17  1  0
 17 18  1  0
 16 19  1  0
 18 19  1  0
M  END
