mac-x0415-mac-x0328
     RDKit          3D

 25 27  0  0  0  0  0  0  0  0999 V2000
   33.5230   44.9490   -6.3100 O   0  0  0  0  0  0  0  0  0  0  0  0
   32.3780   45.6000   -6.0020 C   0  0  0  0  0  0  0  0  0  0  0  0
   31.3880   45.6640   -6.8250 N   0  0  0  0  0  0  0  0  0  0  0  0
   32.3540   46.2430   -4.6310 C   0  0  0  0  0  0  0  0  0  0  0  0
   30.1990   46.3870   -6.4010 C   0  0  0  0  0  0  0  0  0  0  0  0
   31.4080   45.5540   -3.7130 C   0  0  0  0  0  0  0  0  0  0  0  0
   30.5650   47.7640   -6.0930 N   0  0  0  0  0  0  0  0  0  0  0  0
   30.7490   44.2590   -3.9520 C   0  0  0  0  0  0  0  0  0  0  0  0
   30.9030   45.8640   -2.5190 C   0  0  0  0  0  0  0  0  0  0  0  0
   29.7740   48.4510   -5.3650 C   0  0  0  0  0  0  0  0  0  0  0  0
   29.9280   43.7900   -3.0480 N   0  0  0  0  0  0  0  0  0  0  0  0
   29.9780   44.8180   -1.9920 C   0  0  2  0  0  0  0  0  0  0  0  0
   31.0990   47.0160   -1.6840 C   0  0  0  0  0  0  0  0  0  0  0  0
   28.6490   47.8500   -4.9410 O   0  0  0  0  0  0  0  0  0  0  0  0
   28.6910   45.4710   -1.6150 C   0  0  0  0  0  0  0  0  0  0  0  0
   30.0170   47.4450   -1.0010 C   0  0  0  0  0  0  0  0  0  0  0  0
   29.8280   49.8280   -4.8660 C   0  0  0  0  0  0  0  0  0  0  0  0
   30.0820   48.9260    0.1310 Br  0  0  0  0  0  0  0  0  0  0  0  0
   28.7320   46.7400   -1.1380 C   0  0  0  0  0  0  0  0  0  0  0  0
   29.5770   50.9010   -5.7270 C   0  0  0  0  0  0  0  0  0  0  0  0
   30.1330   50.0600   -3.5190 C   0  0  0  0  0  0  0  0  0  0  0  0
   29.6310   52.2090   -5.2380 C   0  0  0  0  0  0  0  0  0  0  0  0
   30.1860   51.3690   -3.0310 C   0  0  0  0  0  0  0  0  0  0  0  0
   29.9340   52.4330   -3.8970 C   0  0  0  0  0  0  0  0  0  0  0  0
   29.9760   53.7280   -3.4620 O   0  0  0  0  0  0  0  0  0  0  0  0
  1  2  1  0
  2  3  2  3
  2  4  1  0
  3  5  1  0
  4  6  1  0
  5  7  1  0
  6  8  1  0
  6  9  2  0
  7 10  2  3
  8 11  2  0
  9 12  1  0
 11 12  1  0
  9 13  1  0
 10 14  1  0
 12 15  1  6
 13 16  2  0
 10 17  1  0
 16 18  1  0
 15 19  2  0
 16 19  1  0
 17 20  2  0
 17 21  1  0
 20 22  1  0
 21 23  2  0
 22 24  2  0
 23 24  1  0
 24 25  1  0
M  END
