mac-x1493-mac-x0116
     RDKit          3D

 28 32  0  0  0  0  0  0  0  0999 V2000
   28.9740   48.2830   -3.7740 O   0  0  0  0  0  0  0  0  0  0  0  0
   29.9490   49.2290   -4.1700 C   0  0  0  0  0  0  0  0  0  0  0  0
   31.0000   49.0520   -3.2410 O   0  0  0  0  0  0  0  0  0  0  0  0
   29.4250   50.6420   -3.9850 C   0  0  0  0  0  0  0  0  0  0  0  0
   30.3400   48.9330   -5.5380 N   0  0  0  0  0  0  0  0  0  0  0  0
   29.7960   51.7180   -4.8170 C   0  0  0  0  0  0  0  0  0  0  0  0
   28.5370   50.9480   -2.9670 C   0  0  0  0  0  0  0  0  0  0  0  0
   31.6270   49.2080   -5.9640 C   0  0  0  0  0  0  0  0  0  0  0  0
   29.4230   48.6620   -6.5240 C   0  0  0  0  0  0  0  0  0  0  0  0
   29.2880   53.0300   -4.6220 C   0  0  0  0  0  0  0  0  0  0  0  0
   28.0240   52.1820   -2.7390 N   0  0  0  0  0  0  0  0  0  0  0  0
   32.0440   49.2580   -7.1960 N   0  0  0  0  0  0  0  0  0  0  0  0
   29.8360   48.7130   -7.9280 C   0  0  0  0  0  0  0  0  0  0  0  0
   28.1580   48.3380   -6.4880 N   0  0  0  0  0  0  0  0  0  0  0  0
   28.3890   53.1920   -3.5430 C   0  0  0  0  0  0  0  0  0  0  0  0
   29.6190   54.1590   -5.4250 C   0  0  0  0  0  0  0  0  0  0  0  0
   31.1240   49.0110   -8.2010 C   0  0  0  0  0  0  0  0  0  0  0  0
   28.7520   48.4260   -8.7070 N   0  0  0  0  0  0  0  0  0  0  0  0
   27.8120   48.2130   -7.8280 C   0  0  0  0  0  0  0  0  0  0  0  0
   27.8510   54.4450   -3.2910 C   0  0  0  0  0  0  0  0  0  0  0  0
   29.0490   55.4080   -5.1310 C   0  0  0  0  0  0  0  0  0  0  0  0
   30.5380   54.0850   -6.5570 C   0  0  0  0  0  0  0  0  0  0  0  0
   31.5550   49.0700   -9.5080 N   0  0  0  0  0  0  0  0  0  0  0  0
   28.1690   55.5550   -4.0700 C   0  0  0  0  0  0  0  0  0  0  0  0
   31.7560   54.6630   -6.3560 O   0  0  0  0  0  0  0  0  0  0  0  0
   30.4840   53.5580   -7.8320 C   0  0  0  0  0  0  0  0  0  0  0  0
   31.7300   53.8270   -8.4370 C   0  0  0  0  0  0  0  0  0  0  0  0
   32.4720   54.5020   -7.4980 C   0  0  0  0  0  0  0  0  0  0  0  0
  2  1  1  0
  2  3  1  0
  2  4  1  0
  2  5  1  0
  4  6  2  0
  4  7  1  0
  5  8  1  0
  5  9  1  0
  6 10  1  0
  7 11  2  0
  8 12  2  0
  9 13  1  0
  9 14  2  0
 10 15  2  0
 11 15  1  0
 10 16  1  0
 12 17  1  0
 13 17  2  0
 13 18  1  0
 14 19  1  0
 18 19  2  0
 15 20  1  0
 16 21  2  0
 16 22  1  0
 17 23  1  0
 20 24  2  0
 21 24  1  0
 22 25  1  0
 22 26  2  0
 26 27  1  0
 25 28  1  0
 27 28  2  0
M  END
