mac-x0333-mac-x0371
     RDKit          3D

 21 23  0  0  0  0  0  0  0  0999 V2000
   31.4760   48.3660   -4.2370 O   0  0  0  0  0  0  0  0  0  0  0  0
   30.6560   49.4470   -4.5000 C   0  0  0  0  0  0  0  0  0  0  0  0
   29.7690   49.3000   -5.5860 C   0  0  0  0  0  0  0  0  0  0  0  0
   30.8820   47.1210   -4.2110 C   0  0  0  0  0  0  0  0  0  0  0  0
   30.6850   50.6300   -3.7530 C   0  0  0  0  0  0  0  0  0  0  0  0
   31.6940   45.9750   -4.3800 C   0  0  0  0  0  0  0  0  0  0  0  0
   29.4990   47.0120   -4.0150 C   0  0  0  0  0  0  0  0  0  0  0  0
   33.1900   46.1190   -4.5870 C   0  0  0  0  0  0  0  0  0  0  0  0
   29.8140   51.6320   -4.1250 C   0  0  0  0  0  0  0  0  0  0  0  0
   28.8980   50.3360   -5.9350 C   0  0  0  0  0  0  0  0  0  0  0  0
   28.8950   45.7610   -3.9840 C   0  0  0  0  0  0  0  0  0  0  0  0
   31.0540   44.7170   -4.3420 C   0  0  0  0  0  0  0  0  0  0  0  0
   31.9240   43.2320   -4.5320 Cl  0  0  0  0  0  0  0  0  0  0  0  0
   33.6320   46.1880   -6.0330 C   0  0  0  0  0  0  0  0  0  0  0  0
   28.9470   51.4900   -5.1830 C   0  0  0  0  0  0  0  0  0  0  0  0
   29.6960   52.8460   -3.5220 O   0  0  0  0  0  0  0  0  0  0  0  0
   29.6720   44.6170   -4.1470 C   0  0  0  0  0  0  0  0  0  0  0  0
   32.6200   45.9750   -6.9030 O   0  0  0  0  0  0  0  0  0  0  0  0
   34.7560   46.4060   -6.4650 O   0  0  0  0  0  0  0  0  0  0  0  0
   28.1790   52.5970   -5.3750 O   0  0  0  0  0  0  0  0  0  0  0  0
   28.7720   53.4980   -4.4170 C   0  0  0  0  0  0  0  0  0  0  0  0
  1  2  1  0
  2  3  2  0
  1  4  1  0
  2  5  1  0
  4  6  2  0
  4  7  1  0
  6  8  1  0
  5  9  2  0
  3 10  1  0
  7 11  2  0
  6 12  1  0
 12 13  1  0
  8 14  1  0
  9 15  1  0
 10 15  2  0
  9 16  1  0
 11 17  1  0
 12 17  2  0
 14 18  1  0
 14 19  2  0
 15 20  1  0
 16 21  1  0
 20 21  1  0
M  END
