mac-x0358-mac-x0361
     RDKit          3D

 21 22  0  0  0  0  0  0  0  0999 V2000
   31.7150   45.1440   -6.8500 O   0  0  0  0  0  0  0  0  0  0  0  0
   32.7890   45.4170   -6.0740 C   0  0  0  0  0  0  0  0  0  0  0  0
   33.7600   46.0240   -6.5020 O   0  0  0  0  0  0  0  0  0  0  0  0
   32.6820   44.9240   -4.6500 C   0  0  0  0  0  0  0  0  0  0  0  0
   32.4420   46.0570   -3.6980 C   0  0  0  0  0  0  0  0  0  0  0  0
   33.4500   46.6010   -2.8960 C   0  0  0  0  0  0  0  0  0  0  0  0
   31.1700   46.6000   -3.6170 C   0  0  0  0  0  0  0  0  0  0  0  0
   34.7040   46.0690   -2.9970 O   0  0  0  0  0  0  0  0  0  0  0  0
   33.2030   47.6550   -2.0210 C   0  0  0  0  0  0  0  0  0  0  0  0
   30.9240   47.6570   -2.7650 C   0  0  0  0  0  0  0  0  0  0  0  0
   29.6970   48.2290   -2.7070 O   0  0  0  0  0  0  0  0  0  0  0  0
   31.9230   48.1910   -1.9530 C   0  0  0  0  0  0  0  0  0  0  0  0
   29.6430   49.4450   -3.3680 C   0  0  0  0  0  0  0  0  0  0  0  0
   29.4790   49.5860   -4.7550 C   0  0  0  0  0  0  0  0  0  0  0  0
   29.7670   50.5680   -2.5620 C   0  0  0  0  0  0  0  0  0  0  0  0
   29.4310   50.8710   -5.3240 C   0  0  0  0  0  0  0  0  0  0  0  0
   29.7210   51.8440   -3.1270 C   0  0  0  0  0  0  0  0  0  0  0  0
   29.5500   52.0050   -4.5060 C   0  0  0  0  0  0  0  0  0  0  0  0
   29.4990   53.3970   -5.0390 C   0  0  0  0  0  0  0  0  0  0  0  0
   28.9070   53.5940   -6.2580 N   0  0  0  0  0  0  0  0  0  0  0  0
   29.9600   54.3420   -4.4130 O   0  0  0  0  0  0  0  0  0  0  0  0
  1  2  1  0
  2  3  2  0
  2  4  1  0
  4  5  1  0
  5  6  2  0
  5  7  1  0
  6  8  1  0
  6  9  1  0
  7 10  2  0
 10 11  1  0
  9 12  2  0
 10 12  1  0
 11 13  1  0
 13 14  2  0
 13 15  1  0
 14 16  1  0
 15 17  2  0
 16 18  2  0
 17 18  1  0
 18 19  1  0
 19 20  1  0
 19 21  2  0
M  END
