mac-x0341-mac-x0587
     RDKit          3D

 22 23  0  0  0  0  0  0  0  0999 V2000
   28.4800   54.6010   -7.7330 N   0  0  0  0  0  0  0  0  0  0  0  0
   28.7070   53.4920   -6.9840 C   0  0  0  0  0  0  0  0  0  0  0  0
   28.5370   52.2990   -7.4940 N   0  0  0  0  0  0  0  0  0  0  0  0
   29.1060   53.7150   -5.7020 N   0  0  0  0  0  0  0  0  0  0  0  0
   29.3470   52.6980   -4.8190 C   0  0  0  0  0  0  0  0  0  0  0  0
   28.7680   51.1910   -6.6880 C   0  0  0  0  0  0  0  0  0  0  0  0
   30.0180   52.8780   -3.8050 O   0  0  0  0  0  0  0  0  0  0  0  0
   28.7140   51.3660   -5.1930 C   0  0  1  0  0  0  0  0  0  0  0  0
   29.0250   49.9780   -7.2270 C   0  0  0  0  0  0  0  0  0  0  0  0
   29.2690   48.7830   -6.3640 C   0  0  0  0  0  0  0  0  0  0  0  0
   29.3220   50.2310   -4.4280 C   0  0  0  0  0  0  0  0  0  0  0  0
   29.2010   47.6530   -6.8310 O   0  0  0  0  0  0  0  0  0  0  0  0
   29.5930   49.0200   -4.9260 C   0  0  0  0  0  0  0  0  0  0  0  0
   30.1990   48.0370   -3.9430 C   0  0  0  0  0  0  0  0  0  0  0  0
   30.4650   46.5670   -4.3170 C   0  0  2  0  0  0  0  0  0  0  0  0
   30.4760   48.4440   -2.8010 O   0  0  0  0  0  0  0  0  0  0  0  0
   29.4290   45.6490   -3.6700 C   0  0  0  0  0  0  0  0  0  0  0  0
   32.1210   46.0290   -3.6590 S   0  0  0  0  0  0  0  0  0  0  0  0
   33.2350   46.6330   -4.9640 C   0  0  0  0  0  0  0  0  0  0  0  0
   33.2440   45.8420   -6.2530 C   0  0  0  0  0  0  0  0  0  0  0  0
   34.2840   45.6200   -6.8610 O   0  0  0  0  0  0  0  0  0  0  0  0
   32.0610   45.3930   -6.7110 O   0  0  0  0  0  0  0  0  0  0  0  0
  1  2  1  0
  2  3  2  0
  2  4  1  0
  4  5  1  0
  3  6  1  0
  5  7  2  0
  5  8  1  0
  6  8  1  0
  6  9  2  0
  9 10  1  0
  8 11  1  1
 10 12  2  0
 10 13  1  0
 11 13  2  0
 13 14  1  0
 14 15  1  0
 14 16  2  0
 15 17  1  1
 15 18  1  0
 18 19  1  0
 19 20  1  0
 20 21  2  0
 20 22  1  0
M  END
