mac-x0231-mac-x0282
     RDKit          3D

 25 28  0  0  0  0  0  0  0  0999 V2000
   33.7280   45.5440   -6.9800 O   0  0  0  0  0  0  0  0  0  0  0  0
   32.6130   45.0980   -6.3760 C   0  0  0  0  0  0  0  0  0  0  0  0
   31.3850   45.2870   -6.7190 N   0  0  0  0  0  0  0  0  0  0  0  0
   32.8530   44.2930   -5.1440 C   0  0  0  0  0  0  0  0  0  0  0  0
   30.8840   46.0380   -7.8590 C   0  0  0  0  0  0  0  0  0  0  0  0
   31.6410   44.4570   -4.2620 C   0  0  0  0  0  0  0  0  0  0  0  0
   31.5350   45.6700   -3.4120 C   0  0  0  0  0  0  0  0  0  0  0  0
   30.7180   43.5380   -4.3070 N   0  0  0  0  0  0  0  0  0  0  0  0
   30.1590   47.3160   -7.5130 C   0  0  0  0  0  0  0  0  0  0  0  0
   30.3470   45.8590   -2.7190 C   0  0  0  0  0  0  0  0  0  0  0  0
   29.6130   43.7060   -3.5350 N   0  0  0  0  0  0  0  0  0  0  0  0
   32.5670   46.6110   -3.2880 C   0  0  0  0  0  0  0  0  0  0  0  0
   30.2740   47.9310   -6.2500 C   0  0  0  0  0  0  0  0  0  0  0  0
   29.3480   47.9400   -8.4650 C   0  0  0  0  0  0  0  0  0  0  0  0
   29.2720   44.8570   -2.8580 C   0  0  0  0  0  0  0  0  0  0  0  0
   30.1740   46.9860   -1.8980 C   0  0  0  0  0  0  0  0  0  0  0  0
   32.3970   47.7320   -2.4710 C   0  0  0  0  0  0  0  0  0  0  0  0
   29.5850   49.1380   -6.0340 C   0  0  0  0  0  0  0  0  0  0  0  0
   28.6610   49.0930   -8.3040 N   0  0  0  0  0  0  0  0  0  0  0  0
   28.1520   45.0420   -2.3980 O   0  0  0  0  0  0  0  0  0  0  0  0
   31.2030   47.9200   -1.7780 C   0  0  0  0  0  0  0  0  0  0  0  0
   29.4430   50.0590   -4.9600 C   0  0  0  0  0  0  0  0  0  0  0  0
   28.8260   49.6360   -7.0880 C   0  0  0  0  0  0  0  0  0  0  0  0
   28.6180   51.0800   -5.3890 C   0  0  0  0  0  0  0  0  0  0  0  0
   28.2520   50.8080   -6.6830 N   0  0  0  0  0  0  0  0  0  0  0  0
  1  2  1  0
  2  3  2  3
  2  4  1  0
  3  5  1  0
  4  6  1  0
  6  7  1  0
  6  8  2  0
  5  9  1  0
  7 10  2  0
  8 11  1  0
  7 12  1  0
  9 13  2  0
  9 14  1  0
 10 15  1  0
 11 15  1  0
 10 16  1  0
 12 17  2  0
 13 18  1  0
 14 19  2  0
 15 20  2  0
 16 21  2  0
 17 21  1  0
 18 22  1  0
 18 23  2  0
 19 23  1  0
 22 24  2  0
 23 25  1  0
 24 25  1  0
M  END
