mac-x0439-mac-x0345
     RDKit          3D

 25 27  0  0  0  0  0  0  0  0999 V2000
   30.9720   47.9530   -2.8660 Cl  0  0  0  0  0  0  0  0  0  0  0  0
   29.7470   46.7430   -2.7190 C   0  0  0  0  0  0  0  0  0  0  0  0
   29.2590   46.1280   -3.9880 C   0  0  1  0  0  0  0  0  0  0  0  0
   29.2270   46.3560   -1.5350 C   0  0  0  0  0  0  0  0  0  0  0  0
   29.6300   46.9370   -0.1930 C   0  0  0  0  0  0  0  0  0  0  0  0
   30.1530   45.8500   -5.1430 C   0  0  0  0  0  0  0  0  0  0  0  0
   28.8980   44.6860   -3.7020 C   0  0  0  0  0  0  0  0  0  0  0  0
   28.2000   45.2940   -1.5210 C   0  0  0  0  0  0  0  0  0  0  0  0
   30.0370   48.4250   -0.2950 C   0  0  0  0  0  0  0  0  0  0  0  0
   30.1710   44.5340   -5.3750 C   0  0  0  0  0  0  0  0  0  0  0  0
   29.4040   43.7810   -4.4950 N   0  0  0  0  0  0  0  0  0  0  0  0
   28.0050   44.4490   -2.5540 C   0  0  0  0  0  0  0  0  0  0  0  0
   30.9490   43.9110   -6.4820 C   0  0  0  0  0  0  0  0  0  0  0  0
   29.1740   49.2900   -1.2340 C   0  0  0  0  0  0  0  0  0  0  0  0
   30.5870   42.6160   -6.6270 O   0  0  0  0  0  0  0  0  0  0  0  0
   31.7830   44.4800   -7.1640 O   0  0  0  0  0  0  0  0  0  0  0  0
   29.8480   50.4950   -1.7370 N   0  0  0  0  0  0  0  0  0  0  0  0
   29.5180   50.9840   -3.0030 C   0  0  0  0  0  0  0  0  0  0  0  0
   29.0560   50.1720   -4.0290 C   0  0  0  0  0  0  0  0  0  0  0  0
   29.6790   52.3150   -3.1690 N   0  0  0  0  0  0  0  0  0  0  0  0
   29.3770   52.8740   -4.3760 C   0  0  0  0  0  0  0  0  0  0  0  0
   28.7470   50.7430   -5.2630 C   0  0  0  0  0  0  0  0  0  0  0  0
   29.5830   54.3590   -4.4780 C   0  0  0  0  0  0  0  0  0  0  0  0
   28.9080   52.1140   -5.4470 C   0  0  0  0  0  0  0  0  0  0  0  0
   28.4800   52.8540   -7.1350 Br  0  0  0  0  0  0  0  0  0  0  0  0
  1  2  1  0
  2  3  1  0
  2  4  2  0
  4  5  1  0
  3  6  1  6
  3  7  1  0
  4  8  1  0
  5  9  1  0
  6 10  2  0
  7 11  2  0
 10 11  1  0
  7 12  1  0
  8 12  2  0
 10 13  1  0
  9 14  1  0
 13 15  1  0
 13 16  2  0
 14 17  1  0
 17 18  1  0
 18 19  2  0
 18 20  1  0
 20 21  2  0
 19 22  1  0
 21 23  1  0
 21 24  1  0
 22 24  2  0
 24 25  1  0
M  END
