mac-x0226-mac-x0441
     RDKit          3D

 23 25  0  0  0  0  0  0  0  0999 V2000
   32.3260   45.5040   -6.3780 O   0  0  0  0  0  0  0  0  0  0  0  0
   33.5510   45.7120   -5.8440 C   0  0  0  0  0  0  0  0  0  0  0  0
   34.4350   46.2620   -6.4870 O   0  0  0  0  0  0  0  0  0  0  0  0
   33.6980   45.2160   -4.4260 C   0  0  1  0  0  0  0  0  0  0  0  0
   33.8820   43.6990   -4.3440 C   0  0  0  0  0  0  0  0  0  0  0  0
   34.9200   45.7330   -3.6290 C   0  0  2  0  0  0  0  0  0  0  0  0
   34.2680   43.4690   -2.9370 N   0  0  0  0  0  0  0  0  0  0  0  0
   35.0200   44.6620   -2.5970 N   0  0  0  0  0  0  0  0  0  0  0  0
   34.6990   47.1000   -2.9070 C   0  0  0  0  0  0  0  0  0  0  0  0
   36.1360   45.7530   -4.5440 C   0  0  0  0  0  0  0  0  0  0  0  0
   35.0670   42.2240   -2.8380 C   0  0  0  0  0  0  0  0  0  0  0  0
   35.8990   44.7100   -1.4980 C   0  0  0  0  0  0  0  0  0  0  0  0
   37.1420   46.6260   -4.3680 C   0  0  0  0  0  0  0  0  0  0  0  0
   35.9870   47.8270   -2.6070 C   0  0  0  0  0  0  0  0  0  0  0  0
   36.1240   42.2590   -3.6870 F   0  0  0  0  0  0  0  0  0  0  0  0
   35.5560   42.0330   -1.5900 F   0  0  0  0  0  0  0  0  0  0  0  0
   34.3390   41.1330   -3.1640 F   0  0  0  0  0  0  0  0  0  0  0  0
   37.2160   45.1870   -1.6360 C   0  0  0  0  0  0  0  0  0  0  0  0
   35.5090   44.2900   -0.2180 C   0  0  0  0  0  0  0  0  0  0  0  0
   37.1100   47.5920   -3.2970 C   0  0  0  0  0  0  0  0  0  0  0  0
   38.0970   45.2420   -0.5510 C   0  0  0  0  0  0  0  0  0  0  0  0
   36.3840   44.3400    0.8720 C   0  0  0  0  0  0  0  0  0  0  0  0
   37.6780   44.8180    0.7040 C   0  0  0  0  0  0  0  0  0  0  0  0
  1  2  1  0
  2  3  2  0
  4  2  1  6
  4  5  1  0
  4  6  1  0
  5  7  1  0
  6  8  1  0
  7  8  1  0
  6  9  1  1
  6 10  1  0
  7 11  1  0
  8 12  1  0
 10 13  2  0
  9 14  1  0
 11 15  1  0
 11 16  1  0
 11 17  1  0
 12 18  2  0
 12 19  1  0
 13 20  1  0
 14 20  2  0
 18 21  1  0
 19 22  2  0
 21 23  2  0
 22 23  1  0
M  END
