mac-x0333-mac-x0451
     RDKit          3D

 14 16  0  0  0  0  0  0  0  0999 V2000
   30.2670   48.7430   -3.4560 O   0  0  0  0  0  0  0  0  0  0  0  0
   29.4200   49.7530   -4.0000 C   0  0  2  0  0  0  0  0  0  0  0  0
   29.3870   49.6100   -5.5040 C   0  0  0  0  0  0  0  0  0  0  0  0
   29.8940   51.1290   -3.5270 C   0  0  0  0  0  0  0  0  0  0  0  0
   30.2530   52.1080   -4.6700 C   0  0  1  0  0  0  0  0  0  0  0  0
   28.6000   50.7430   -6.1260 C   0  0  1  0  0  0  0  0  0  0  0  0
   29.2440   52.1600   -5.8400 C   0  0  1  0  0  0  0  0  0  0  0  0
   30.2510   53.4350   -4.1330 O   0  0  0  0  0  0  0  0  0  0  0  0
   28.5470   50.4330   -7.5810 C   0  0  0  0  0  0  0  0  0  0  0  0
   28.2730   53.0660   -5.2950 O   0  0  0  0  0  0  0  0  0  0  0  0
   29.0650   54.0440   -4.6260 C   0  0  0  0  0  0  0  0  0  0  0  0
   29.7590   52.9030   -7.1530 C   0  0  1  0  0  0  0  0  0  0  0  0
   29.2860   51.7450   -8.4630 S   0  0  0  0  0  0  0  0  0  0  0  0
   29.1120   54.1710   -7.5000 N   0  0  0  0  0  0  0  0  0  0  0  0
  2  1  1  1
  2  3  1  0
  2  4  1  0
  5  4  1  1
  6  3  1  1
  5  7  1  0
  6  7  1  0
  5  8  1  0
  6  9  1  0
  7 10  1  1
  8 11  1  0
 10 11  1  0
  7 12  1  0
  9 13  2  0
 12 13  1  0
 12 14  1  6
M  END
