mac-x0277-mac-x0282
     RDKit          3D

 22 24  0  0  0  0  0  0  0  0999 V2000
   27.5070   46.3960   -0.9920 Cl  0  0  0  0  0  0  0  0  0  0  0  0
   28.8890   46.0320   -1.9600 C   0  0  0  0  0  0  0  0  0  0  0  0
   30.0440   46.8130   -1.9320 C   0  0  0  0  0  0  0  0  0  0  0  0
   28.8280   44.9100   -2.7920 C   0  0  0  0  0  0  0  0  0  0  0  0
   30.1950   48.2110   -0.9300 Cl  0  0  0  0  0  0  0  0  0  0  0  0
   31.1370   46.4750   -2.7350 C   0  0  0  0  0  0  0  0  0  0  0  0
   29.9230   44.5720   -3.5940 C   0  0  0  0  0  0  0  0  0  0  0  0
   31.0840   45.3530   -3.5700 C   0  0  0  0  0  0  0  0  0  0  0  0
   32.2700   45.0090   -4.4350 C   0  0  0  0  0  0  0  0  0  0  0  0
   32.0430   45.6670   -5.7550 C   0  0  0  0  0  0  0  0  0  0  0  0
   33.0450   46.4860   -6.1390 O   0  0  0  0  0  0  0  0  0  0  0  0
   30.9480   45.4150   -6.3680 N   0  0  0  0  0  0  0  0  0  0  0  0
   30.5270   45.9930   -7.6250 C   0  0  0  0  0  0  0  0  0  0  0  0
   29.9050   47.3350   -7.3990 C   0  0  0  0  0  0  0  0  0  0  0  0
   30.0130   47.9890   -6.1610 C   0  0  0  0  0  0  0  0  0  0  0  0
   29.2060   47.9730   -8.4230 C   0  0  0  0  0  0  0  0  0  0  0  0
   29.4280   49.2480   -6.0280 C   0  0  0  0  0  0  0  0  0  0  0  0
   28.6170   49.1860   -8.3440 N   0  0  0  0  0  0  0  0  0  0  0  0
   29.3170   50.2140   -4.9940 C   0  0  0  0  0  0  0  0  0  0  0  0
   28.7680   49.7630   -7.1370 C   0  0  0  0  0  0  0  0  0  0  0  0
   28.6060   51.2810   -5.4970 C   0  0  0  0  0  0  0  0  0  0  0  0
   28.2800   50.9930   -6.7970 N   0  0  0  0  0  0  0  0  0  0  0  0
  1  2  1  0
  2  3  2  0
  2  4  1  0
  3  5  1  0
  3  6  1  0
  4  7  2  0
  6  8  2  0
  7  8  1  0
  8  9  1  0
  9 10  1  0
 10 11  1  0
 10 12  2  3
 12 13  1  0
 13 14  1  0
 14 15  2  0
 14 16  1  0
 15 17  1  0
 16 18  2  0
 17 19  1  0
 17 20  2  0
 18 20  1  0
 19 21  2  0
 20 22  1  0
 21 22  1  0
M  END
