mac-x0402-mac-x0361
     RDKit          3D

 15 17  0  0  0  0  0  0  0  0999 V2000
   30.6870   48.3760   -3.1380 Cl  0  0  0  0  0  0  0  0  0  0  0  0
   29.7720   49.4860   -4.1990 C   0  0  1  0  0  0  0  0  0  0  0  0
   30.0570   50.9800   -3.8970 C   0  0  0  0  0  0  0  0  0  0  0  0
   30.0790   49.0960   -5.6380 C   0  0  0  0  0  0  0  0  0  0  0  0
   29.3060   49.9350   -6.6570 C   0  0  1  0  0  0  0  0  0  0  0  0
   29.8110   51.8900   -5.1370 C   0  0  2  0  0  0  0  0  0  0  0  0
   29.5040   53.3820   -4.8740 C   0  0  0  0  0  0  0  0  0  0  0  0
   28.7590   51.2210   -6.0410 C   0  0  1  0  0  0  0  0  0  0  0  0
   30.2020   50.0700   -7.8540 C   0  0  0  0  0  0  0  0  0  0  0  0
   28.7580   54.0450   -5.8250 N   0  0  0  0  0  0  0  0  0  0  0  0
   29.8880   54.0020   -3.8890 O   0  0  0  0  0  0  0  0  0  0  0  0
   28.0890   52.1050   -7.1070 C   0  0  1  0  0  0  0  0  0  0  0  0
   30.1730   51.4100   -8.9500 S   0  0  0  0  0  0  0  0  0  0  0  0
   27.6510   53.4110   -6.4730 C   0  0  0  0  0  0  0  0  0  0  0  0
   28.9120   52.4270   -8.3230 C   0  0  0  0  0  0  0  0  0  0  0  0
  2  1  1  1
  2  3  1  0
  2  4  1  0
  5  4  1  1
  6  3  1  1
  6  7  1  0
  8  5  1  6
  6  8  1  0
  5  9  1  0
  7 10  1  0
  7 11  2  0
  8 12  1  0
  9 13  2  0
 10 14  1  0
 12 14  1  1
 12 15  1  0
 13 15  2  0
M  END
