mac-x0277
     RDKit          3D

 12 12  0  0  0  0  0  0  0  0999 V2000
   27.6400   46.4570   -1.0020 Cl  0  0  0  0  0  0  0  0  0  0  0  0
   30.2220   48.0780   -1.0760 Cl  0  0  0  0  0  0  0  0  0  0  0  0
   33.3170   46.6310   -5.7710 O   0  0  0  0  0  0  0  0  0  0  0  0
   32.2270   46.0470   -5.7460 C   0  0  0  0  0  0  0  0  0  0  0  0
   31.2980   46.1270   -6.5790 O   0  0  0  0  0  0  0  0  0  0  0  0
   32.0810   45.0190   -4.5930 C   0  0  0  0  0  0  0  0  0  0  0  0
   30.9780   45.3160   -3.6690 C   0  0  0  0  0  0  0  0  0  0  0  0
   29.7650   44.5790   -3.6960 C   0  0  0  0  0  0  0  0  0  0  0  0
   28.8170   44.9850   -2.7940 C   0  0  0  0  0  0  0  0  0  0  0  0
   28.9260   46.0300   -2.0630 C   0  0  0  0  0  0  0  0  0  0  0  0
   30.0200   46.7560   -2.0630 C   0  0  0  0  0  0  0  0  0  0  0  0
   31.0310   46.4340   -2.8840 C   0  0  0  0  0  0  0  0  0  0  0  0
  3  4  1  0
  4  5  2  0
  4  6  1  0
  6  7  1  0
  7  8  2  0
  8  9  1  0
  1 10  1  0
  9 10  2  0
  2 11  1  0
 10 11  1  0
  7 12  1  0
 11 12  2  0
M  END
