mac-x0193-mac-x0142
     RDKit          3D

 31 35  0  0  0  0  0  0  0  0999 V2000
   35.0230   45.8830   -6.2490 O   0  0  0  0  0  0  0  0  0  0  0  0
   33.9470   45.1060   -6.0640 C   0  0  0  0  0  0  0  0  0  0  0  0
   33.2210   44.8160   -7.0080 O   0  0  0  0  0  0  0  0  0  0  0  0
   33.7340   44.6690   -4.6070 C   0  0  2  0  0  0  0  0  0  0  0  0
   34.6150   43.5790   -4.2720 N   0  0  0  0  0  0  0  0  0  0  0  0
   32.2960   44.3130   -4.5240 C   0  0  2  0  0  0  0  0  0  0  0  0
   34.8190   43.2720   -2.9590 C   0  0  0  0  0  0  0  0  0  0  0  0
   31.4580   44.5010   -5.7560 C   0  0  0  0  0  0  0  0  0  0  0  0
   31.3700   45.5100   -4.6250 C   0  0  2  0  0  0  0  0  0  0  0  0
   34.0270   42.6050   -2.3160 O   0  0  0  0  0  0  0  0  0  0  0  0
   35.9910   43.7720   -2.4640 N   0  0  0  0  0  0  0  0  0  0  0  0
   32.1860   46.7860   -4.6380 C   0  0  0  0  0  0  0  0  0  0  0  0
   29.9830   45.6990   -4.0470 C   0  0  0  0  0  0  0  0  0  0  0  0
   36.9170   42.8980   -1.7600 C   0  0  0  0  0  0  0  0  0  0  0  0
   32.0630   47.5040   -3.3120 C   0  0  0  0  0  0  0  0  0  0  0  0
   29.7300   47.1510   -4.1120 N   0  0  0  0  0  0  0  0  0  0  0  0
   38.0610   42.4600   -2.6690 C   0  0  0  0  0  0  0  0  0  0  0  0
   37.4610   43.5300   -0.4730 C   0  0  0  0  0  0  0  0  0  0  0  0
   30.5990   47.8700   -3.1570 C   0  0  0  0  0  0  0  0  0  0  0  0
   29.3340   47.8040   -5.3160 C   0  0  0  0  0  0  0  0  0  0  0  0
   39.0100   41.4960   -1.9620 C   0  0  0  0  0  0  0  0  0  0  0  0
   38.4000   42.5740    0.2610 C   0  0  0  0  0  0  0  0  0  0  0  0
   29.1060   47.1170   -6.5120 N   0  0  0  0  0  0  0  0  0  0  0  0
   29.1400   49.1330   -5.4260 C   0  0  0  0  0  0  0  0  0  0  0  0
   39.5260   42.0710   -0.6440 C   0  0  0  0  0  0  0  0  0  0  0  0
   28.7260   47.7320   -7.6750 C   0  0  0  0  0  0  0  0  0  0  0  0
   28.7210   49.7400   -6.7200 C   0  0  0  0  0  0  0  0  0  0  0  0
   29.2200   50.2860   -4.5700 C   0  0  0  0  0  0  0  0  0  0  0  0
   28.5220   48.9940   -7.8420 N   0  0  0  0  0  0  0  0  0  0  0  0
   28.5710   51.0370   -6.6450 N   0  0  0  0  0  0  0  0  0  0  0  0
   28.8820   51.3370   -5.3280 C   0  0  0  0  0  0  0  0  0  0  0  0
  1  2  1  0
  2  3  2  0
  2  4  1  0
  4  5  1  6
  4  6  1  0
  5  7  1  0
  6  8  1  6
  6  9  1  0
  9  8  1  6
  7 10  2  0
  7 11  1  0
  9 12  1  0
  9 13  1  0
 11 14  1  0
 12 15  1  0
 13 16  1  0
 14 17  1  0
 14 18  1  0
 15 19  1  0
 16 19  1  0
 16 20  1  0
 17 21  1  0
 18 22  1  0
 20 23  1  0
 20 24  2  0
 21 25  1  0
 22 25  1  0
 23 26  1  0
 24 27  1  0
 24 28  1  0
 26 29  2  0
 27 29  1  0
 27 30  2  0
 28 31  2  0
 30 31  1  0
M  END
