mac-x0361-mac-x0568
     RDKit          3D

 17 18  0  0  0  0  0  0  0  0999 V2000
   31.5950   55.1950   -4.4710 N   0  0  0  0  0  0  0  0  0  0  0  0
   32.1680   54.1960   -3.5750 C   0  0  0  0  0  0  0  0  0  0  0  0
   31.5500   52.8400   -3.8020 C   0  0  0  0  0  0  0  0  0  0  0  0
   31.6560   52.2130   -5.0500 C   0  0  0  0  0  0  0  0  0  0  0  0
   30.8590   52.1900   -2.7680 C   0  0  0  0  0  0  0  0  0  0  0  0
   31.0760   50.9620   -5.2600 C   0  0  0  0  0  0  0  0  0  0  0  0
   30.2830   50.9370   -2.9850 C   0  0  0  0  0  0  0  0  0  0  0  0
   30.3890   50.3230   -4.2320 C   0  0  0  0  0  0  0  0  0  0  0  0
   29.8080   49.0820   -4.4760 N   0  0  0  0  0  0  0  0  0  0  0  0
   28.7090   49.1250   -5.1610 C   0  0  0  0  0  0  0  0  0  0  0  0
   27.9420   48.0430   -5.5420 N   0  0  0  0  0  0  0  0  0  0  0  0
   28.2750   50.5080   -5.5500 C   0  0  0  0  0  0  0  0  0  0  0  0
   27.4330   51.2440   -4.7200 C   0  0  0  0  0  0  0  0  0  0  0  0
   28.6980   51.1080   -6.7390 C   0  0  0  0  0  0  0  0  0  0  0  0
   27.0010   52.5040   -4.9990 N   0  0  0  0  0  0  0  0  0  0  0  0
   28.2680   52.3980   -7.0480 C   0  0  0  0  0  0  0  0  0  0  0  0
   27.4310   53.0490   -6.1550 C   0  0  0  0  0  0  0  0  0  0  0  0
  1  2  1  0
  2  3  1  0
  3  4  2  0
  3  5  1  0
  4  6  1  0
  5  7  2  0
  6  8  2  0
  7  8  1  0
  8  9  1  0
  9 10  2  3
 10 11  1  0
 10 12  1  0
 12 13  2  0
 12 14  1  0
 13 15  1  0
 14 16  2  0
 15 17  2  0
 16 17  1  0
M  END
