mac-x0496-mac-x0453
     RDKit          3D

 19 20  0  0  0  0  0  0  0  0999 V2000
   24.5740   58.7170   -6.2320 C   0  0  0  0  0  0  0  0  0  0  0  0
   25.8680   58.3820   -5.6120 C   0  0  0  0  0  0  0  0  0  0  0  0
   26.2570   58.9030   -4.4430 N   0  0  0  0  0  0  0  0  0  0  0  0
   26.7600   57.5130   -6.1860 N   0  0  0  0  0  0  0  0  0  0  0  0
   27.5120   58.3250   -4.2350 O   0  0  0  0  0  0  0  0  0  0  0  0
   27.7440   57.5140   -5.3070 C   0  0  0  0  0  0  0  0  0  0  0  0
   29.0330   56.7770   -5.3190 C   0  0  0  0  0  0  0  0  0  0  0  0
   28.7910   55.3650   -5.5600 N   0  0  0  0  0  0  0  0  0  0  0  0
   29.3550   54.4110   -4.7440 C   0  0  0  0  0  0  0  0  0  0  0  0
   30.0430   54.6950   -3.7670 O   0  0  0  0  0  0  0  0  0  0  0  0
   29.0990   52.9840   -5.0980 C   0  0  0  0  0  0  0  0  0  0  0  0
   28.5460   52.7000   -6.3530 C   0  0  0  0  0  0  0  0  0  0  0  0
   29.3920   51.9320   -4.2160 C   0  0  0  0  0  0  0  0  0  0  0  0
   28.2860   51.3790   -6.7330 C   0  0  0  0  0  0  0  0  0  0  0  0
   29.1330   50.6060   -4.5940 C   0  0  0  0  0  0  0  0  0  0  0  0
   29.4270   49.4580   -3.7010 C   0  0  0  0  0  0  0  0  0  0  0  0
   28.5790   50.3360   -5.8540 C   0  0  0  0  0  0  0  0  0  0  0  0
   29.6660   48.3190   -4.0580 O   0  0  0  0  0  0  0  0  0  0  0  0
   29.4120   49.7910   -2.3980 O   0  0  0  0  0  0  0  0  0  0  0  0
  1  2  1  0
  2  3  2  0
  2  4  1  0
  3  5  1  0
  4  6  2  0
  5  6  1  0
  6  7  1  0
  7  8  1  0
  8  9  1  0
  9 10  2  0
  9 11  1  0
 11 12  2  0
 11 13  1  0
 12 14  1  0
 13 15  2  0
 15 16  1  0
 14 17  2  0
 15 17  1  0
 16 18  2  0
 16 19  1  0
M  END
