mac-x0301-mac-x0385
     RDKit          3D

 15 16  0  0  0  0  0  0  0  0999 V2000
   30.2570   45.7600   -4.2660 O   0  0  0  0  0  0  0  0  0  0  0  0
   30.6800   47.0100   -4.0080 C   0  0  0  0  0  0  0  0  0  0  0  0
   31.5810   47.2160   -3.2080 O   0  0  0  0  0  0  0  0  0  0  0  0
   29.9590   48.0540   -4.7710 C   0  0  0  0  0  0  0  0  0  0  0  0
   29.5980   47.8580   -6.0960 C   0  0  0  0  0  0  0  0  0  0  0  0
   29.6220   49.2850   -4.1500 C   0  0  0  0  0  0  0  0  0  0  0  0
   29.9660   49.5400   -2.8000 N   0  0  0  0  0  0  0  0  0  0  0  0
   28.9250   48.8330   -6.8000 C   0  0  0  0  0  0  0  0  0  0  0  0
   28.9250   50.2880   -4.8930 C   0  0  0  0  0  0  0  0  0  0  0  0
   29.8300   46.7560   -6.8620 O   0  0  0  0  0  0  0  0  0  0  0  0
   28.5710   51.5990   -4.2220 C   0  0  0  0  0  0  0  0  0  0  0  0
   28.5690   50.0550   -6.2450 C   0  0  0  0  0  0  0  0  0  0  0  0
   28.6600   48.4530   -8.0830 O   0  0  0  0  0  0  0  0  0  0  0  0
   29.2220   47.1320   -8.1080 C   0  0  0  0  0  0  0  0  0  0  0  0
   27.8370   51.0650   -7.0760 C   0  0  0  0  0  0  0  0  0  0  0  0
  1  2  1  0
  2  3  2  0
  2  4  1  0
  4  5  2  0
  4  6  1  0
  6  7  1  0
  5  8  1  0
  6  9  2  0
  5 10  1  0
  9 11  1  0
  8 12  2  0
  9 12  1  0
  8 13  1  0
 10 14  1  0
 13 14  1  0
 12 15  1  0
M  END
