mac-x0255-mac-x0182
     RDKit          3D

 24 27  0  0  0  0  0  0  0  0999 V2000
   31.5700   44.9110   -7.0900 O   0  0  0  0  0  0  0  0  0  0  0  0
   32.5510   45.0160   -6.1750 C   0  0  0  0  0  0  0  0  0  0  0  0
   33.6050   45.7690   -6.2180 N   0  0  0  0  0  0  0  0  0  0  0  0
   32.3000   44.1010   -4.9930 C   0  0  0  0  0  0  0  0  0  0  0  0
   31.1380   44.5910   -4.1810 C   0  0  0  0  0  0  0  0  0  0  0  0
   34.6070   45.8810   -5.2930 N   0  0  0  0  0  0  0  0  0  0  0  0
   29.9920   43.9040   -3.8320 C   0  0  0  0  0  0  0  0  0  0  0  0
   31.1190   46.1790   -3.5560 S   0  0  0  0  0  0  0  0  0  0  0  0
   35.3080   44.8920   -4.6190 C   0  0  0  0  0  0  0  0  0  0  0  0
   35.2750   47.4290   -5.1150 S   0  0  0  0  0  0  0  0  0  0  0  0
   35.3070   43.6810   -4.8040 O   0  0  0  0  0  0  0  0  0  0  0  0
   34.2830   48.4180   -4.5820 O   0  0  0  0  0  0  0  0  0  0  0  0
   29.0810   44.6820   -3.0410 C   0  0  0  0  0  0  0  0  0  0  0  0
   29.5820   45.9660   -2.8130 C   0  0  0  0  0  0  0  0  0  0  0  0
   36.2020   46.8570   -3.7220 C   0  0  0  0  0  0  0  0  0  0  0  0
   36.1380   45.4860   -3.5690 C   0  0  0  0  0  0  0  0  0  0  0  0
   27.8200   44.3500   -2.4920 C   0  0  0  0  0  0  0  0  0  0  0  0
   28.8650   46.9150   -2.0600 C   0  0  0  0  0  0  0  0  0  0  0  0
   36.9360   47.6290   -2.8340 C   0  0  0  0  0  0  0  0  0  0  0  0
   36.7930   44.8270   -2.5410 C   0  0  0  0  0  0  0  0  0  0  0  0
   27.1050   45.2880   -1.7430 C   0  0  0  0  0  0  0  0  0  0  0  0
   27.6220   46.5560   -1.5290 C   0  0  0  0  0  0  0  0  0  0  0  0
   37.6060   46.9890   -1.7870 C   0  0  0  0  0  0  0  0  0  0  0  0
   37.5360   45.5940   -1.6400 C   0  0  0  0  0  0  0  0  0  0  0  0
  1  2  1  0
  2  3  2  3
  2  4  1  0
  4  5  1  0
  3  6  1  0
  5  7  2  0
  5  8  1  0
  6  9  1  0
 10  6  1  1
  9 11  2  0
 10 12  2  0
  7 13  1  0
  8 14  1  0
 13 14  2  0
 10 15  1  0
  9 16  1  0
 15 16  2  0
 13 17  1  0
 14 18  1  0
 15 19  1  0
 16 20  1  0
 17 21  2  0
 18 22  2  0
 21 22  1  0
 19 23  2  0
 20 24  2  0
 23 24  1  0
M  END
