mac-x0263-mac-x0138
     RDKit          3D

 25 28  0  0  0  0  0  0  0  0999 V2000
   28.1820   59.9500   -6.7140 O   0  0  0  0  0  0  0  0  0  0  0  0
   27.1990   59.0410   -6.5750 C   0  0  0  0  0  0  0  0  0  0  0  0
   26.0440   59.3250   -6.8670 O   0  0  0  0  0  0  0  0  0  0  0  0
   27.6910   57.7250   -6.0200 C   0  0  0  0  0  0  0  0  0  0  0  0
   28.4730   56.8260   -7.0030 C   0  0  0  0  0  0  0  0  0  0  0  0
   28.3630   55.4170   -6.5060 C   0  0  0  0  0  0  0  0  0  0  0  0
   27.8380   55.2710   -5.2770 N   0  0  0  0  0  0  0  0  0  0  0  0
   28.6810   54.2200   -7.0370 N   0  0  0  0  0  0  0  0  0  0  0  0
   27.7840   53.9700   -4.9690 C   0  0  0  0  0  0  0  0  0  0  0  0
   28.3180   53.2630   -6.0690 C   0  0  0  0  0  0  0  0  0  0  0  0
   27.2980   53.4240   -3.7930 C   0  0  0  0  0  0  0  0  0  0  0  0
   28.3460   51.8140   -5.8930 C   0  0  0  0  0  0  0  0  0  0  0  0
   27.3270   52.0700   -3.6820 C   0  0  0  0  0  0  0  0  0  0  0  0
   27.8280   51.3170   -4.6920 C   0  0  0  0  0  0  0  0  0  0  0  0
   28.7730   50.5900   -6.5690 C   0  0  0  0  0  0  0  0  0  0  0  0
   29.3710   49.7720   -5.6090 C   0  0  0  0  0  0  0  0  0  0  0  0
   28.6580   50.1320   -7.8610 N   0  0  0  0  0  0  0  0  0  0  0  0
   29.6190   49.9810   -4.2650 N   0  0  0  0  0  0  0  0  0  0  0  0
   29.8020   48.5320   -5.9870 C   0  0  0  0  0  0  0  0  0  0  0  0
   29.1390   48.8660   -8.0950 C   0  0  0  0  0  0  0  0  0  0  0  0
   29.0260   48.3770   -9.3820 N   0  0  0  0  0  0  0  0  0  0  0  0
   30.3120   47.9810   -4.8290 N   0  0  0  0  0  0  0  0  0  0  0  0
   30.1800   48.8920   -3.8300 C   0  0  0  0  0  0  0  0  0  0  0  0
   29.7170   48.0130   -7.2120 N   0  0  0  0  0  0  0  0  0  0  0  0
   30.8830   46.6730   -4.6830 C   0  0  0  0  0  0  0  0  0  0  0  0
  1  2  1  0
  2  3  2  0
  2  4  1  0
  4  5  1  0
  5  6  1  0
  6  7  1  0
  6  8  2  0
  7  9  1  0
  8 10  1  0
  9 10  2  0
  9 11  1  0
 10 12  1  0
 11 13  2  0
 12 14  2  0
 13 14  1  0
 12 15  1  0
 15 16  1  0
 15 17  2  0
 16 18  1  0
 16 19  2  0
 17 20  1  0
 20 21  1  0
 19 22  1  0
 18 23  2  0
 22 23  1  0
 19 24  1  0
 20 24  2  0
 22 25  1  0
M  END
