mac-x0411-mac-x0301
     RDKit          3D

 24 26  0  0  0  0  0  0  0  0999 V2000
   37.0940   44.8450   -3.2520 Cl  0  0  0  0  0  0  0  0  0  0  0  0
   35.9090   46.1000   -3.1820 C   0  0  0  0  0  0  0  0  0  0  0  0
   34.6400   45.9530   -3.7660 C   0  0  0  0  0  0  0  0  0  0  0  0
   36.2380   47.2810   -2.5230 C   0  0  0  0  0  0  0  0  0  0  0  0
   34.3200   44.7790   -4.4190 O   0  0  0  0  0  0  0  0  0  0  0  0
   33.6750   46.9920   -3.6980 C   0  0  0  0  0  0  0  0  0  0  0  0
   35.3060   48.3120   -2.4470 C   0  0  0  0  0  0  0  0  0  0  0  0
   32.4140   46.8140   -4.2930 N   0  0  0  0  0  0  0  0  0  0  0  0
   33.6470   45.0350   -5.6620 C   0  0  0  0  0  0  0  0  0  0  0  0
   34.0420   48.1650   -3.0280 C   0  0  0  0  0  0  0  0  0  0  0  0
   34.0140   43.9700   -6.6810 C   0  0  0  0  0  0  0  0  0  0  0  0
   31.1690   47.2060   -3.6430 C   0  0  2  0  0  0  0  0  0  0  0  0
   33.0820   42.9970   -6.7750 O   0  0  0  0  0  0  0  0  0  0  0  0
   35.0180   43.9290   -7.3770 O   0  0  0  0  0  0  0  0  0  0  0  0
   30.4000   46.0550   -3.3400 O   0  0  0  0  0  0  0  0  0  0  0  0
   30.4580   48.3300   -4.3740 C   0  0  0  0  0  0  0  0  0  0  0  0
   29.8570   48.2080   -5.6190 C   0  0  0  0  0  0  0  0  0  0  0  0
   30.3780   49.6100   -3.7770 C   0  0  0  0  0  0  0  0  0  0  0  0
   29.2200   49.2640   -6.2440 C   0  0  0  0  0  0  0  0  0  0  0  0
   29.7290   50.6830   -4.4160 C   0  0  0  0  0  0  0  0  0  0  0  0
   29.8040   47.0730   -6.3830 O   0  0  0  0  0  0  0  0  0  0  0  0
   29.1400   50.5100   -5.6670 C   0  0  0  0  0  0  0  0  0  0  0  0
   28.7020   48.9270   -7.4550 O   0  0  0  0  0  0  0  0  0  0  0  0
   29.1760   47.5740   -7.5830 C   0  0  0  0  0  0  0  0  0  0  0  0
  1  2  1  0
  2  3  2  0
  2  4  1  0
  3  5  1  0
  3  6  1  0
  4  7  2  0
  6  8  1  0
  5  9  1  0
  6 10  2  0
  7 10  1  0
  9 11  1  0
  8 12  1  0
 11 13  1  0
 11 14  2  0
 12 15  1  6
 12 16  1  0
 16 17  1  0
 16 18  2  0
 17 19  2  0
 18 20  1  0
 17 21  1  0
 19 22  1  0
 20 22  2  0
 19 23  1  0
 21 24  1  0
 23 24  1  0
M  END
