mac-x0228-mac-x0159
     RDKit          3D

 28 32  0  0  0  0  0  0  0  0999 V2000
   31.2860   48.2050   -2.1710 O   0  0  0  0  0  0  0  0  0  0  0  0
   30.4610   48.6850   -3.1710 C   0  0  0  0  0  0  0  0  0  0  0  0
   29.5410   47.9110   -3.8170 C   0  0  0  0  0  0  0  0  0  0  0  0
   30.6790   50.1220   -3.4590 C   0  0  0  0  0  0  0  0  0  0  0  0
   30.6680   50.6210   -4.7670 C   0  0  0  0  0  0  0  0  0  0  0  0
   30.9020   50.9970   -2.3710 C   0  0  0  0  0  0  0  0  0  0  0  0
   28.7200   48.4600   -4.8420 N   0  0  0  0  0  0  0  0  0  0  0  0
   29.3530   46.4950   -3.4800 C   0  0  0  0  0  0  0  0  0  0  0  0
   30.8770   51.9780   -4.9560 C   0  0  0  0  0  0  0  0  0  0  0  0
   31.1120   52.3630   -2.5810 C   0  0  0  0  0  0  0  0  0  0  0  0
   27.6510   49.3600   -4.4170 C   0  0  0  0  0  0  0  0  0  0  0  0
   28.4080   47.6750   -6.0430 C   0  0  1  0  0  0  0  0  0  0  0  0
   29.6000   45.4020   -4.2870 C   0  0  0  0  0  0  0  0  0  0  0  0
   28.8700   46.1740   -2.2090 N   0  0  0  0  0  0  0  0  0  0  0  0
   31.0930   52.8230   -3.8780 C   0  0  0  0  0  0  0  0  0  0  0  0
   30.9160   52.7670   -6.2060 C   0  0  0  0  0  0  0  0  0  0  0  0
   27.0320   50.2420   -5.3890 N   0  0  0  0  0  0  0  0  0  0  0  0
   27.5800   48.4180   -7.1040 C   0  0  1  0  0  0  0  0  0  0  0  0
   29.4950   47.1210   -6.8550 N   0  0  0  0  0  0  0  0  0  0  0  0
   28.7600   44.8700   -2.0800 C   0  0  0  0  0  0  0  0  0  0  0  0
   29.2240   43.9490   -3.4540 S   0  0  0  0  0  0  0  0  0  0  0  0
   28.2750   44.1870   -0.8500 C   0  0  0  0  0  0  0  0  0  0  0  0
   31.2810   54.1320   -4.2370 O   0  0  0  0  0  0  0  0  0  0  0  0
   30.8110   54.1700   -5.6070 C   0  0  0  0  0  0  0  0  0  0  0  0
   26.5770   49.4690   -6.5110 C   0  0  2  0  0  0  0  0  0  0  0  0
   28.6130   48.9950   -8.0150 N   0  0  0  0  0  0  0  0  0  0  0  0
   29.7030   48.0210   -7.9720 C   0  0  0  0  0  0  0  0  0  0  0  0
   26.1270   50.4930   -7.4420 N   0  0  0  0  0  0  0  0  0  0  0  0
  1  2  1  0
  2  3  2  3
  2  4  1  0
  4  5  2  0
  4  6  1  0
  3  7  1  0
  3  8  1  0
  5  9  1  0
  6 10  2  0
  7 11  1  0
  7 12  1  0
  8 13  2  0
  8 14  1  0
  9 15  2  0
 10 15  1  0
  9 16  1  0
 11 17  1  0
 12 18  1  0
 12 19  1  6
 14 20  2  0
 13 21  1  0
 20 21  1  0
 20 22  1  0
 15 23  1  0
 16 24  1  0
 23 24  1  0
 17 25  1  0
 18 25  1  0
 18 26  1  6
 19 27  1  0
 26 27  1  0
 25 28  1  6
M  END
