mac-x0139-mac-x0361
     RDKit          3D

 25 27  0  0  0  0  0  0  0  0999 V2000
   30.5370   47.7820   -4.2750 C   0  0  0  0  0  0  0  0  0  0  0  0
   29.9810   47.0240   -5.4300 N   0  0  0  0  0  0  0  0  0  0  0  0
   30.4680   45.6190   -5.4680 C   0  0  0  0  0  0  0  0  0  0  0  0
   30.3370   49.2880   -4.3240 C   0  0  0  0  0  0  0  0  0  0  0  0
   29.4730   47.5930   -6.6390 C   0  0  0  0  0  0  0  0  0  0  0  0
   30.7180   49.9860   -5.4810 C   0  0  0  0  0  0  0  0  0  0  0  0
   29.7820   50.0220   -3.2580 C   0  0  0  0  0  0  0  0  0  0  0  0
   31.9950   45.5480   -5.4420 C   0  0  0  0  0  0  0  0  0  0  0  0
   28.7890   48.7740   -6.7230 C   0  0  0  0  0  0  0  0  0  0  0  0
   29.7140   46.8430   -7.8180 N   0  0  0  0  0  0  0  0  0  0  0  0
   30.5460   51.3720   -5.5810 C   0  0  0  0  0  0  0  0  0  0  0  0
   29.6090   51.4100   -3.3550 C   0  0  0  0  0  0  0  0  0  0  0  0
   32.5420   44.8200   -6.6420 C   0  0  0  0  0  0  0  0  0  0  0  0
   28.3370   49.2350   -8.0670 C   0  0  0  0  0  0  0  0  0  0  0  0
   29.2790   47.2970   -8.9570 C   0  0  0  0  0  0  0  0  0  0  0  0
   28.3190   49.8250   -5.8710 C   0  0  0  0  0  0  0  0  0  0  0  0
   29.9890   52.0910   -4.5190 C   0  0  0  0  0  0  0  0  0  0  0  0
   31.8700   44.1270   -7.3910 O   0  0  0  0  0  0  0  0  0  0  0  0
   33.8700   45.0030   -6.8200 O   0  0  0  0  0  0  0  0  0  0  0  0
   29.7830   53.5650   -4.5900 C   0  0  0  0  0  0  0  0  0  0  0  0
   28.6000   48.4520   -9.1330 N   0  0  0  0  0  0  0  0  0  0  0  0
   27.7270   50.3850   -8.0260 N   0  0  0  0  0  0  0  0  0  0  0  0
   27.7320   50.7170   -6.6820 C   0  0  0  0  0  0  0  0  0  0  0  0
   29.1490   54.0650   -5.6970 N   0  0  0  0  0  0  0  0  0  0  0  0
   30.1600   54.3160   -3.6990 O   0  0  0  0  0  0  0  0  0  0  0  0
  1  2  1  0
  2  3  1  0
  1  4  1  0
  2  5  1  0
  4  6  2  0
  4  7  1  0
  3  8  1  0
  5  9  2  0
  5 10  1  0
  6 11  1  0
  7 12  2  0
  8 13  1  0
  9 14  1  0
 10 15  2  0
  9 16  1  0
 11 17  2  0
 12 17  1  0
 13 18  2  0
 13 19  1  0
 17 20  1  0
 14 21  1  0
 15 21  1  0
 14 22  2  0
 16 23  2  0
 22 23  1  0
 20 24  1  0
 20 25  2  0
M  END
