mac-x0137-mac-x0333
     RDKit          3D

 25 29  0  0  0  0  0  0  0  0999 V2000
   31.6040   49.7130   -3.6220 O   0  0  0  0  0  0  0  0  0  0  0  0
   31.2220   48.6660   -4.5290 C   0  0  1  0  0  0  0  0  0  0  0  0
   32.0730   47.4190   -4.3470 C   0  0  0  0  0  0  0  0  0  0  0  0
   30.9870   50.8700   -4.0040 C   0  0  0  0  0  0  0  0  0  0  0  0
   29.7650   48.2540   -4.3460 C   0  0  0  0  0  0  0  0  0  0  0  0
   30.5300   51.8150   -3.0890 C   0  0  0  0  0  0  0  0  0  0  0  0
   30.8280   51.0680   -5.3890 C   0  0  0  0  0  0  0  0  0  0  0  0
   29.3810   47.4130   -5.4870 N   0  0  0  0  0  0  0  0  0  0  0  0
   31.6870   46.3660   -5.3980 C   0  0  0  0  0  0  0  0  0  0  0  0
   29.9210   52.9400   -3.6040 C   0  0  0  0  0  0  0  0  0  0  0  0
   30.2060   52.2150   -5.8800 C   0  0  0  0  0  0  0  0  0  0  0  0
   30.1690   46.1600   -5.5760 C   0  0  0  0  0  0  0  0  0  0  0  0
   28.7960   48.0290   -6.6030 C   0  0  0  0  0  0  0  0  0  0  0  0
   29.7620   53.1350   -4.9590 C   0  0  0  0  0  0  0  0  0  0  0  0
   29.4130   53.9720   -2.8780 O   0  0  0  0  0  0  0  0  0  0  0  0
   28.7900   47.3680   -7.8220 N   0  0  0  0  0  0  0  0  0  0  0  0
   28.2120   49.2510   -6.6270 C   0  0  0  0  0  0  0  0  0  0  0  0
   29.1360   54.3070   -5.2420 O   0  0  0  0  0  0  0  0  0  0  0  0
   29.1160   54.9080   -3.9350 C   0  0  0  0  0  0  0  0  0  0  0  0
   28.2440   47.9020   -8.9530 C   0  0  0  0  0  0  0  0  0  0  0  0
   27.6360   49.7710   -7.8980 C   0  0  0  0  0  0  0  0  0  0  0  0
   27.9440   50.3220   -5.7120 C   0  0  0  0  0  0  0  0  0  0  0  0
   27.6730   49.0550   -9.0590 N   0  0  0  0  0  0  0  0  0  0  0  0
   27.1050   50.9580   -7.7680 N   0  0  0  0  0  0  0  0  0  0  0  0
   27.3100   51.2650   -6.4310 C   0  0  0  0  0  0  0  0  0  0  0  0
  2  1  1  1
  2  3  1  0
  1  4  1  0
  2  5  1  0
  4  6  2  0
  4  7  1  0
  5  8  1  0
  3  9  1  0
  6 10  1  0
  7 11  2  0
  8 12  1  0
  9 12  1  0
  8 13  1  0
 10 14  2  0
 11 14  1  0
 10 15  1  0
 13 16  1  0
 13 17  2  0
 14 18  1  0
 15 19  1  0
 18 19  1  0
 16 20  1  0
 17 21  1  0
 17 22  1  0
 20 23  2  0
 21 23  1  0
 21 24  2  0
 22 25  2  0
 24 25  1  0
M  END
