mac-x0213-mac-x0305
     RDKit          3D

 20 22  0  0  0  0  0  0  0  0999 V2000
   33.4090   45.9730   -6.1020 O   0  0  0  0  0  0  0  0  0  0  0  0
   32.1330   46.2000   -5.7670 C   0  0  0  0  0  0  0  0  0  0  0  0
   31.2770   46.7640   -6.5360 N   0  0  0  0  0  0  0  0  0  0  0  0
   31.7680   45.7370   -4.3690 C   0  0  0  0  0  0  0  0  0  0  0  0
   29.8890   47.0120   -6.1450 C   0  0  0  0  0  0  0  0  0  0  0  0
   31.5080   46.9560   -3.4630 C   0  0  0  0  0  0  0  0  0  0  0  0
   30.5450   44.7970   -4.2990 C   0  0  0  0  0  0  0  0  0  0  0  0
   30.2840   46.5620   -2.6950 C   0  0  0  0  0  0  0  0  0  0  0  0
   29.7460   45.3600   -3.1590 C   0  0  0  0  0  0  0  0  0  0  0  0
   29.5490   48.4620   -5.8430 C   0  0  0  0  0  0  0  0  0  0  0  0
   29.6970   47.2500   -1.6440 C   0  0  0  0  0  0  0  0  0  0  0  0
   28.6080   44.8190   -2.5770 C   0  0  0  0  0  0  0  0  0  0  0  0
   29.0140   49.2950   -6.8240 C   0  0  0  0  0  0  0  0  0  0  0  0
   29.7850   48.9060   -4.5810 N   0  0  0  0  0  0  0  0  0  0  0  0
   28.7870   48.8230   -8.0870 O   0  0  0  0  0  0  0  0  0  0  0  0
   28.5510   46.7120   -1.0530 C   0  0  0  0  0  0  0  0  0  0  0  0
   28.0110   45.5030   -1.5170 C   0  0  0  0  0  0  0  0  0  0  0  0
   28.7130   50.6160   -6.5000 C   0  0  0  0  0  0  0  0  0  0  0  0
   29.4850   50.1870   -4.2910 C   0  0  0  0  0  0  0  0  0  0  0  0
   28.9510   51.0700   -5.2080 C   0  0  0  0  0  0  0  0  0  0  0  0
  1  2  1  0
  2  3  2  3
  2  4  1  0
  3  5  1  0
  4  6  1  0
  4  7  1  0
  6  8  1  0
  7  9  1  0
  8  9  2  0
  5 10  1  0
  8 11  1  0
  9 12  1  0
 10 13  2  0
 10 14  1  0
 13 15  1  0
 11 16  2  0
 12 17  2  0
 16 17  1  0
 13 18  1  0
 14 19  2  0
 18 20  2  0
 19 20  1  0
M  END
