mac-x0398-mac-x0319
     RDKit          3D

 22 23  0  0  0  0  0  0  0  0999 V2000
   28.6310   53.8350   -6.7020 N   0  0  0  0  0  0  0  0  0  0  0  0
   29.0030   52.7640   -5.8730 C   0  0  0  0  0  0  0  0  0  0  0  0
   29.0660   51.4560   -6.3720 C   0  0  0  0  0  0  0  0  0  0  0  0
   29.3170   52.9910   -4.5300 C   0  0  0  0  0  0  0  0  0  0  0  0
   29.6900   51.9280   -3.6990 C   0  0  0  0  0  0  0  0  0  0  0  0
   29.4410   50.3850   -5.5420 C   0  0  0  0  0  0  0  0  0  0  0  0
   29.9930   52.1690   -2.3900 O   0  0  0  0  0  0  0  0  0  0  0  0
   29.7570   50.6230   -4.1940 C   0  0  0  0  0  0  0  0  0  0  0  0
   30.1610   49.5190   -3.2860 C   0  0  0  0  0  0  0  0  0  0  0  0
   31.0130   49.6290   -2.4290 O   0  0  0  0  0  0  0  0  0  0  0  0
   29.3930   48.4090   -3.5760 O   0  0  0  0  0  0  0  0  0  0  0  0
   29.9400   47.1070   -3.6700 C   0  0  0  0  0  0  0  0  0  0  0  0
   29.1130   46.0860   -3.2120 C   0  0  0  0  0  0  0  0  0  0  0  0
   31.2030   46.8200   -4.1960 C   0  0  0  0  0  0  0  0  0  0  0  0
   31.6380   45.4840   -4.2780 C   0  0  0  0  0  0  0  0  0  0  0  0
   29.5470   44.7720   -3.2920 C   0  0  0  0  0  0  0  0  0  0  0  0
   32.9880   45.1730   -4.8670 C   0  0  0  0  0  0  0  0  0  0  0  0
   28.7030   43.8010   -2.8440 O   0  0  0  0  0  0  0  0  0  0  0  0
   30.7960   44.4600   -3.8190 C   0  0  0  0  0  0  0  0  0  0  0  0
   33.0780   45.5980   -6.3130 C   0  0  0  0  0  0  0  0  0  0  0  0
   34.3440   45.8550   -6.6970 O   0  0  0  0  0  0  0  0  0  0  0  0
   32.1640   45.7220   -7.1140 O   0  0  0  0  0  0  0  0  0  0  0  0
  1  2  1  0
  2  3  2  0
  2  4  1  0
  4  5  2  0
  3  6  1  0
  5  7  1  0
  5  8  1  0
  6  8  2  0
  8  9  1  0
  9 10  2  0
  9 11  1  0
 11 12  1  0
 12 13  2  0
 12 14  1  0
 14 15  2  0
 13 16  1  0
 15 17  1  0
 16 18  1  0
 15 19  1  0
 16 19  2  0
 17 20  1  0
 20 21  1  0
 20 22  2  0
M  END
