mac-x0204-mac-x0306
     RDKit          3D

 22 24  0  0  0  0  0  0  0  0999 V2000
   31.8020   46.5120   -6.3770 O   0  0  0  0  0  0  0  0  0  0  0  0
   30.8660   46.3540   -5.4310 C   0  0  0  0  0  0  0  0  0  0  0  0
   29.7770   45.8720   -5.6970 O   0  0  0  0  0  0  0  0  0  0  0  0
   31.3040   46.7900   -4.0820 C   0  0  0  0  0  0  0  0  0  0  0  0
   30.4740   47.5120   -3.1980 C   0  0  0  0  0  0  0  0  0  0  0  0
   32.5940   46.4660   -3.6690 C   0  0  0  0  0  0  0  0  0  0  0  0
   29.0920   47.9320   -3.6390 C   0  0  0  0  0  0  0  0  0  0  0  0
   31.0000   47.8190   -1.9360 C   0  0  0  0  0  0  0  0  0  0  0  0
   33.1120   46.7880   -2.4630 N   0  0  0  0  0  0  0  0  0  0  0  0
   30.3200   48.4790   -0.9570 O   0  0  0  0  0  0  0  0  0  0  0  0
   32.2970   47.4490   -1.6200 C   0  0  0  0  0  0  0  0  0  0  0  0
   29.1110   49.3800   -4.0430 N   0  0  0  0  0  0  0  0  0  0  0  0
   29.6800   50.3270   -3.1800 C   0  0  0  0  0  0  0  0  0  0  0  0
   29.1050   49.7750   -5.3910 C   0  0  0  0  0  0  0  0  0  0  0  0
   29.5910   51.6440   -3.4180 C   0  0  0  0  0  0  0  0  0  0  0  0
   28.9880   51.0740   -5.7420 C   0  0  0  0  0  0  0  0  0  0  0  0
   28.8500   52.1220   -4.6480 C   0  0  0  0  0  0  0  0  0  0  0  0
   29.1210   53.5620   -5.0420 C   0  0  0  0  0  0  0  0  0  0  0  0
   28.7800   54.0670   -6.2740 N   0  0  0  0  0  0  0  0  0  0  0  0
   29.6830   54.5030   -4.3040 N   0  0  0  0  0  0  0  0  0  0  0  0
   29.7010   55.6320   -5.0770 C   0  0  0  0  0  0  0  0  0  0  0  0
   29.1450   55.3860   -6.3080 C   0  0  0  0  0  0  0  0  0  0  0  0
  1  2  1  0
  2  3  2  0
  2  4  1  0
  4  5  2  0
  4  6  1  0
  5  7  1  0
  5  8  1  0
  6  9  2  0
  8 10  1  0
  8 11  2  0
  9 11  1  0
  7 12  1  0
 12 13  1  0
 12 14  1  0
 13 15  2  0
 14 16  2  0
 15 17  1  0
 16 17  1  0
 17 18  1  0
 18 19  1  0
 18 20  2  0
 20 21  1  0
 19 22  1  0
 21 22  2  0
M  END
