mac-x0404-mac-x0397
     RDKit          3D

 27 30  0  0  0  0  0  0  0  0999 V2000
   31.9600   43.8100   -7.0690 O   0  0  0  0  0  0  0  0  0  0  0  0
   32.8920   44.2500   -6.1990 C   0  0  0  0  0  0  0  0  0  0  0  0
   34.0160   44.5240   -6.5980 O   0  0  0  0  0  0  0  0  0  0  0  0
   32.4170   44.3580   -4.7600 C   0  0  0  0  0  0  0  0  0  0  0  0
   31.0720   44.8150   -4.6900 O   0  0  0  0  0  0  0  0  0  0  0  0
   30.7780   45.7970   -3.7710 C   0  0  0  0  0  0  0  0  0  0  0  0
   29.8070   45.4710   -2.7900 C   0  0  0  0  0  0  0  0  0  0  0  0
   31.3790   47.0610   -3.7650 C   0  0  0  0  0  0  0  0  0  0  0  0
   29.4560   46.4390   -1.8170 C   0  0  0  0  0  0  0  0  0  0  0  0
   31.0360   48.0170   -2.8000 C   0  0  0  0  0  0  0  0  0  0  0  0
   29.1590   44.2170   -2.7380 C   0  0  0  0  0  0  0  0  0  0  0  0
   31.6900   49.3780   -2.8000 C   0  0  0  0  0  0  0  0  0  0  0  0
   30.0770   47.6960   -1.8340 C   0  0  0  0  0  0  0  0  0  0  0  0
   28.4950   46.1310   -0.8390 C   0  0  0  0  0  0  0  0  0  0  0  0
   28.2060   43.9250   -1.7610 C   0  0  0  0  0  0  0  0  0  0  0  0
   27.8730   44.8830   -0.8110 C   0  0  0  0  0  0  0  0  0  0  0  0
   30.8360   50.4430   -3.4490 C   0  0  0  0  0  0  0  0  0  0  0  0
   30.2180   51.4240   -2.6700 C   0  0  0  0  0  0  0  0  0  0  0  0
   30.6550   50.4430   -4.8450 C   0  0  0  0  0  0  0  0  0  0  0  0
   29.8540   51.4400   -5.4320 C   0  0  0  0  0  0  0  0  0  0  0  0
   29.4290   52.4000   -3.2790 C   0  0  0  0  0  0  0  0  0  0  0  0
   28.6550   53.6200   -2.3620 Cl  0  0  0  0  0  0  0  0  0  0  0  0
   29.2250   52.4330   -4.6750 C   0  0  0  0  0  0  0  0  0  0  0  0
   29.4690   51.6710   -7.0940 S   0  0  0  0  0  0  0  0  0  0  0  0
   28.5240   53.0380   -6.6880 C   0  0  0  0  0  0  0  0  0  0  0  0
   28.4710   53.3360   -5.4170 N   0  0  0  0  0  0  0  0  0  0  0  0
   27.8810   53.7500   -7.6300 N   0  0  0  0  0  0  0  0  0  0  0  0
  1  2  1  0
  2  3  2  0
  2  4  1  0
  4  5  1  0
  5  6  1  0
  6  7  2  0
  6  8  1  0
  7  9  1  0
  8 10  2  0
  7 11  1  0
 10 12  1  0
  9 13  2  0
 10 13  1  0
  9 14  1  0
 11 15  2  0
 14 16  2  0
 15 16  1  0
 12 17  1  0
 17 18  2  0
 17 19  1  0
 19 20  2  0
 18 21  1  0
 21 22  1  0
 20 23  1  0
 21 23  2  0
 20 24  1  0
 24 25  1  0
 23 26  1  0
 25 26  2  0
 25 27  1  0
M  END
