mac-x0451-mac-x0565
     RDKit          3D

 22 25  0  0  0  0  0  0  0  0999 V2000
   28.2150   52.7760  -10.6020 N   0  0  0  0  0  0  0  0  0  0  0  0
   28.6880   52.1150   -9.5360 C   0  0  0  0  0  0  0  0  0  0  0  0
   29.8340   52.4060   -8.9880 N   0  0  0  0  0  0  0  0  0  0  0  0
   27.8140   50.8330   -8.8090 S   0  0  0  0  0  0  0  0  0  0  0  0
   30.0630   51.5790   -7.9110 C   0  0  0  0  0  0  0  0  0  0  0  0
   29.0640   50.6420   -7.6440 C   0  0  0  0  0  0  0  0  0  0  0  0
   31.1930   51.6180   -7.0920 C   0  0  0  0  0  0  0  0  0  0  0  0
   29.1580   49.7410   -6.5690 C   0  0  0  0  0  0  0  0  0  0  0  0
   31.2880   50.7330   -6.0250 C   0  0  0  0  0  0  0  0  0  0  0  0
   30.2890   49.8000   -5.7460 C   0  0  0  0  0  0  0  0  0  0  0  0
   30.4900   49.0190   -4.6340 N   0  0  0  0  0  0  0  0  0  0  0  0
   30.1460   49.5520   -3.4210 C   0  0  0  0  0  0  0  0  0  0  0  0
   29.9730   47.6470   -4.4530 C   0  0  0  0  0  0  0  0  0  0  0  0
   30.0820   50.8930   -3.1430 C   0  0  0  0  0  0  0  0  0  0  0  0
   29.8510   48.6000   -2.4840 C   0  0  0  0  0  0  0  0  0  0  0  0
   29.9810   47.3430   -3.0200 O   0  0  0  0  0  0  0  0  0  0  0  0
   29.7050   51.2870   -1.8740 C   0  0  0  0  0  0  0  0  0  0  0  0
   29.4770   48.9450   -1.1970 C   0  0  0  0  0  0  0  0  0  0  0  0
   29.6200   52.7340   -1.5710 C   0  0  0  0  0  0  0  0  0  0  0  0
   29.4010   50.3180   -0.8880 C   0  0  0  0  0  0  0  0  0  0  0  0
   28.8360   53.4000   -2.4470 O   0  0  0  0  0  0  0  0  0  0  0  0
   30.2000   53.2640   -0.6460 O   0  0  0  0  0  0  0  0  0  0  0  0
  1  2  1  0
  2  3  2  0
  2  4  1  0
  3  5  1  0
  4  6  1  0
  5  6  2  0
  5  7  1  0
  6  8  1  0
  7  9  2  0
  8 10  2  0
  9 10  1  0
 10 11  1  0
 11 12  1  0
 11 13  1  0
 12 14  2  0
 12 15  1  0
 13 16  1  0
 15 16  1  0
 14 17  1  0
 15 18  2  0
 17 19  1  0
 17 20  2  0
 18 20  1  0
 19 21  1  0
 19 22  2  0
M  END
