mac-x0277-mac-x0387
     RDKit          3D

 24 26  0  0  0  0  0  0  0  0999 V2000
   27.4230   46.4610   -1.0740 Cl  0  0  0  0  0  0  0  0  0  0  0  0
   28.8640   45.9730   -1.8860 C   0  0  0  0  0  0  0  0  0  0  0  0
   30.0470   46.7050   -1.8000 C   0  0  0  0  0  0  0  0  0  0  0  0
   28.8250   44.8030   -2.6500 C   0  0  0  0  0  0  0  0  0  0  0  0
   30.1760   48.1600   -0.8800 Cl  0  0  0  0  0  0  0  0  0  0  0  0
   31.1850   46.2640   -2.4750 C   0  0  0  0  0  0  0  0  0  0  0  0
   29.9660   44.3630   -3.3250 C   0  0  0  0  0  0  0  0  0  0  0  0
   31.1580   45.0950   -3.2380 C   0  0  0  0  0  0  0  0  0  0  0  0
   32.4060   44.6600   -3.9680 C   0  0  0  0  0  0  0  0  0  0  0  0
   32.3800   45.5190   -5.1620 C   0  0  0  0  0  0  0  0  0  0  0  0
   33.4320   46.3090   -5.4650 O   0  0  0  0  0  0  0  0  0  0  0  0
   31.2990   45.4770   -5.7910 N   0  0  0  0  0  0  0  0  0  0  0  0
   31.2070   46.3990   -6.8350 C   0  0  0  0  0  0  0  0  0  0  0  0
   30.5820   47.6110   -6.1840 C   0  0  0  0  0  0  0  0  0  0  0  0
   29.6950   48.3310   -6.9490 C   0  0  0  0  0  0  0  0  0  0  0  0
   30.8780   48.0180   -4.8560 C   0  0  0  0  0  0  0  0  0  0  0  0
   29.0850   49.4860   -6.4440 C   0  0  0  0  0  0  0  0  0  0  0  0
   29.4060   47.9030   -8.2420 C   0  0  0  0  0  0  0  0  0  0  0  0
   30.2770   49.1590   -4.3240 C   0  0  0  0  0  0  0  0  0  0  0  0
   28.2050   50.1600   -7.3200 C   0  0  0  0  0  0  0  0  0  0  0  0
   28.5320   48.6230   -9.0020 C   0  0  0  0  0  0  0  0  0  0  0  0
   29.3890   49.8920   -5.1150 C   0  0  0  0  0  0  0  0  0  0  0  0
   27.5530   51.3350   -6.9320 N   0  0  0  0  0  0  0  0  0  0  0  0
   27.9310   49.7380   -8.5720 N   0  0  0  0  0  0  0  0  0  0  0  0
  1  2  1  0
  2  3  2  0
  2  4  1  0
  3  5  1  0
  3  6  1  0
  4  7  2  0
  6  8  2  0
  7  8  1  0
  8  9  1  0
  9 10  1  0
 10 11  1  0
 10 12  2  3
 12 13  1  0
 13 14  1  0
 14 15  1  0
 14 16  2  0
 15 17  2  0
 15 18  1  0
 16 19  1  0
 17 20  1  0
 18 21  2  0
 17 22  1  0
 19 22  2  0
 20 23  1  0
 20 24  2  0
 21 24  1  0
M  END
