mac-x0302-mac-x0161
     RDKit          3D

 25 27  0  0  0  0  0  0  0  0999 V2000
   31.1020   44.8240   -4.5470 O   0  0  0  0  0  0  0  0  0  0  0  0
   31.1040   45.7020   -5.5760 C   0  0  0  0  0  0  0  0  0  0  0  0
   30.4210   45.4530   -6.5490 O   0  0  0  0  0  0  0  0  0  0  0  0
   32.0000   46.9270   -5.3840 C   0  0  1  0  0  0  0  0  0  0  0  0
   31.5700   47.9640   -4.3450 C   0  0  2  0  0  0  0  0  0  0  0  0
   33.3880   46.5420   -4.9660 N   0  0  0  0  0  0  0  0  0  0  0  0
   32.4470   47.6790   -3.1520 C   0  0  0  0  0  0  0  0  0  0  0  0
   33.7460   47.4730   -3.8980 C   0  0  1  0  0  0  0  0  0  0  0  0
   30.1810   48.1270   -4.0550 N   0  0  0  0  0  0  0  0  0  0  0  0
   34.7290   46.9660   -3.0110 O   0  0  0  0  0  0  0  0  0  0  0  0
   29.7910   49.3480   -3.5940 C   0  0  0  0  0  0  0  0  0  0  0  0
   35.1790   47.9460   -2.0890 C   0  0  0  0  0  0  0  0  0  0  0  0
   29.4430   49.5240   -2.4290 O   0  0  0  0  0  0  0  0  0  0  0  0
   29.8420   50.4880   -4.6120 C   0  0  2  0  0  0  0  0  0  0  0  0
   29.9080   51.7770   -3.7210 C   0  0  0  0  0  0  0  0  0  0  0  0
   28.7680   50.3990   -5.7810 C   0  0  1  0  0  0  0  0  0  0  0  0
   29.1640   53.0090   -4.2070 C   0  0  1  0  0  0  0  0  0  0  0  0
   27.9880   51.7410   -5.9300 C   0  0  2  0  0  0  0  0  0  0  0  0
   29.2740   50.0710   -7.1590 N   0  0  0  0  0  0  0  0  0  0  0  0
   27.8670   49.1710   -5.5220 C   0  0  0  0  0  0  0  0  0  0  0  0
   29.9330   54.1710   -3.9160 O   0  0  0  0  0  0  0  0  0  0  0  0
   27.2680   51.9000   -7.1940 N   0  0  0  0  0  0  0  0  0  0  0  0
   28.8650   52.9500   -5.6840 C   0  0  0  0  0  0  0  0  0  0  0  0
   28.4430   48.0880   -6.3230 N   0  0  0  0  0  0  0  0  0  0  0  0
   28.7980   48.7540   -7.5460 C   0  0  0  0  0  0  0  0  0  0  0  0
  1  2  1  0
  2  3  2  0
  4  2  1  1
  4  5  1  0
  4  6  1  0
  5  7  1  0
  6  8  1  0
  7  8  1  0
  5  9  1  1
  8 10  1  1
  9 11  1  0
 10 12  1  0
 11 13  2  0
 14 11  1  1
 14 15  1  0
 14 16  1  0
 15 17  1  0
 16 18  1  0
 16 19  1  0
 16 20  1  1
 17 21  1  6
 18 22  1  6
 17 23  1  0
 18 23  1  0
 20 24  1  0
 19 25  1  0
 24 25  1  0
M  END
