mac-x0333-mac-x0206
     RDKit          3D

 13 14  0  0  0  0  0  0  0  0999 V2000
   28.7580   47.7390   -4.6910 O   0  0  0  0  0  0  0  0  0  0  0  0
   28.7320   49.0500   -5.0660 C   0  0  0  0  0  0  0  0  0  0  0  0
   28.0600   49.4640   -6.2240 C   0  0  0  0  0  0  0  0  0  0  0  0
   29.4010   49.9560   -4.2480 C   0  0  0  0  0  0  0  0  0  0  0  0
   29.3830   51.2850   -4.6160 C   0  0  0  0  0  0  0  0  0  0  0  0
   28.0510   50.8160   -6.5810 C   0  0  0  0  0  0  0  0  0  0  0  0
   28.7200   51.6990   -5.7590 C   0  0  0  0  0  0  0  0  0  0  0  0
   29.9450   52.3950   -4.0260 N   0  0  0  0  0  0  0  0  0  0  0  0
   31.0810   52.4840   -3.3050 C   0  0  0  0  0  0  0  0  0  0  0  0
   28.8020   53.0550   -5.9730 O   0  0  0  0  0  0  0  0  0  0  0  0
   29.4740   53.5410   -4.7890 C   0  0  0  0  0  0  0  0  0  0  0  0
   32.2020   51.9610   -3.8550 N   0  0  0  0  0  0  0  0  0  0  0  0
   31.1400   53.0020   -2.1980 O   0  0  0  0  0  0  0  0  0  0  0  0
  1  2  1  0
  2  3  2  0
  2  4  1  0
  4  5  2  0
  3  6  1  0
  5  7  1  0
  6  7  2  0
  5  8  1  0
  8  9  1  0
  7 10  1  0
  8 11  1  0
 10 11  1  0
  9 12  1  0
  9 13  2  0
M  END
