mac-x0301-mac-x0123
     RDKit          3D

 23 27  0  0  0  0  0  0  0  0999 V2000
   30.4040   45.9120   -4.2970 O   0  0  0  0  0  0  0  0  0  0  0  0
   30.5750   47.1980   -3.8890 C   0  0  0  0  0  0  0  0  0  0  0  0
   31.1630   47.4550   -2.8560 O   0  0  0  0  0  0  0  0  0  0  0  0
   29.9920   48.2060   -4.8210 C   0  0  0  0  0  0  0  0  0  0  0  0
   29.4870   47.7590   -6.0570 C   0  0  0  0  0  0  0  0  0  0  0  0
   29.8930   49.6400   -4.6030 C   0  0  0  0  0  0  0  0  0  0  0  0
   28.9330   48.5960   -6.9820 C   0  0  0  0  0  0  0  0  0  0  0  0
   29.3160   50.3850   -5.6250 C   0  0  0  0  0  0  0  0  0  0  0  0
   29.4560   46.4890   -6.5460 O   0  0  0  0  0  0  0  0  0  0  0  0
   30.2550   50.5410   -3.5700 N   0  0  0  0  0  0  0  0  0  0  0  0
   28.8240   49.9090   -6.8070 C   0  0  0  0  0  0  0  0  0  0  0  0
   28.4990   47.9950   -8.1110 O   0  0  0  0  0  0  0  0  0  0  0  0
   29.1130   46.7200   -7.9260 C   0  0  0  0  0  0  0  0  0  0  0  0
   29.3290   51.6540   -5.2730 N   0  0  0  0  0  0  0  0  0  0  0  0
   29.9030   51.7750   -4.0220 C   0  0  0  0  0  0  0  0  0  0  0  0
   28.8500   52.6840   -6.0680 C   0  0  0  0  0  0  0  0  0  0  0  0
   30.0300   53.0440   -3.4800 N   0  0  0  0  0  0  0  0  0  0  0  0
   28.2790   52.4330   -7.3110 N   0  0  0  0  0  0  0  0  0  0  0  0
   29.5930   54.0230   -4.2600 C   0  0  0  0  0  0  0  0  0  0  0  0
   28.9730   53.8890   -5.6000 C   0  0  0  0  0  0  0  0  0  0  0  0
   28.6110   55.2190   -6.1390 C   0  0  0  0  0  0  0  0  0  0  0  0
   29.6430   55.4860   -3.9330 C   0  0  0  0  0  0  0  0  0  0  0  0
   29.5350   56.1230   -5.3320 C   0  0  0  0  0  0  0  0  0  0  0  0
  1  2  1  0
  2  3  2  0
  2  4  1  0
  4  5  2  0
  4  6  1  0
  5  7  1  0
  6  8  2  0
  5  9  1  0
  6 10  1  0
  7 11  2  0
  8 11  1  0
  7 12  1  0
  9 13  1  0
 12 13  1  0
  8 14  1  0
 10 15  2  0
 14 15  1  0
 14 16  1  0
 15 17  1  0
 16 18  1  0
 17 19  2  0
 16 20  2  0
 19 20  1  0
 20 21  1  0
 19 22  1  0
 21 23  1  0
 22 23  1  0
M  END
