mac-x0271-mac-x0436
     RDKit          3D

 30 33  0  0  0  0  0  0  0  0999 V2000
   30.5190   50.2890   -2.4400 O   0  0  0  0  0  0  0  0  0  0  0  0
   30.2060   51.0800   -3.5200 C   0  0  0  0  0  0  0  0  0  0  0  0
   30.2000   50.4000   -4.8080 C   0  0  0  0  0  0  0  0  0  0  0  0
   29.9570   52.3940   -3.1300 C   0  0  0  0  0  0  0  0  0  0  0  0
   30.5640   49.3530   -3.7830 C   0  0  0  0  0  0  0  0  0  0  0  0
   29.6330   53.3100   -4.0640 C   0  0  0  0  0  0  0  0  0  0  0  0
   29.8380   51.5410   -5.6340 C   0  0  0  0  0  0  0  0  0  0  0  0
   32.0850   49.0770   -3.5950 C   0  0  0  0  0  0  0  0  0  0  0  0
   29.5710   52.8820   -5.3390 C   0  0  0  0  0  0  0  0  0  0  0  0
   29.3770   54.6420   -3.6850 O   0  0  0  0  0  0  0  0  0  0  0  0
   32.4690   47.6740   -3.7670 N   0  0  0  0  0  0  0  0  0  0  0  0
   29.2240   53.8450   -6.3830 C   0  0  0  0  0  0  0  0  0  0  0  0
   29.0360   55.5880   -4.6530 C   0  0  0  0  0  0  0  0  0  0  0  0
   28.7980   56.7580   -4.3700 O   0  0  0  0  0  0  0  0  0  0  0  0
   28.9730   55.1150   -6.0540 C   0  0  0  0  0  0  0  0  0  0  0  0
   33.6960   47.3070   -3.6100 C   0  0  0  0  0  0  0  0  0  0  0  0
   33.9570   45.7980   -3.8230 C   0  0  0  0  0  0  0  0  0  0  0  0
   34.7820   48.0800   -3.2790 N   0  0  0  0  0  0  0  0  0  0  0  0
   32.8490   44.9620   -4.4230 C   0  0  0  0  0  0  0  0  0  0  0  0
   35.9640   47.4470   -2.8330 C   0  0  0  0  0  0  0  0  0  0  0  0
   35.0900   45.2410   -3.5050 N   0  0  0  0  0  0  0  0  0  0  0  0
   33.3260   44.2060   -5.6640 C   0  0  0  0  0  0  0  0  0  0  0  0
   36.0990   46.0490   -2.9510 C   0  0  0  0  0  0  0  0  0  0  0  0
   37.0070   48.1970   -2.2730 C   0  0  0  0  0  0  0  0  0  0  0  0
   32.1900   43.9770   -6.6460 C   0  0  0  0  0  0  0  0  0  0  0  0
   37.2730   45.4290   -2.5090 C   0  0  0  0  0  0  0  0  0  0  0  0
   38.1740   47.5630   -1.8350 C   0  0  0  0  0  0  0  0  0  0  0  0
   32.5320   44.3120   -7.9130 O   0  0  0  0  0  0  0  0  0  0  0  0
   31.0810   43.5450   -6.3680 O   0  0  0  0  0  0  0  0  0  0  0  0
   38.3090   46.1830   -1.9510 C   0  0  0  0  0  0  0  0  0  0  0  0
  1  2  1  0
  2  3  2  0
  2  4  1  0
  3  5  1  0
  4  6  2  0
  3  7  1  0
  5  8  1  0
  6  9  1  0
  7  9  2  0
  6 10  1  0
  8 11  1  0
  9 12  1  0
 10 13  1  0
 13 14  2  0
 12 15  2  0
 13 15  1  0
 11 16  2  3
 16 17  1  0
 16 18  1  0
 17 19  1  0
 18 20  1  0
 17 21  2  0
 19 22  1  0
 20 23  2  0
 21 23  1  0
 20 24  1  0
 22 25  1  0
 23 26  1  0
 24 27  2  0
 25 28  1  0
 25 29  2  0
 26 30  2  0
 27 30  1  0
M  END
