mac-x0439-mac-x0411
     RDKit          3D

 25 27  0  0  0  0  0  0  0  0999 V2000
   30.7870   46.6780   -1.3630 Cl  0  0  0  0  0  0  0  0  0  0  0  0
   29.4370   45.7740   -1.9340 C   0  0  0  0  0  0  0  0  0  0  0  0
   29.2500   45.5970   -3.4080 C   0  0  1  0  0  0  0  0  0  0  0  0
   28.5500   45.2290   -1.0760 C   0  0  0  0  0  0  0  0  0  0  0  0
   30.3950   45.3460   -4.3330 C   0  0  0  0  0  0  0  0  0  0  0  0
   28.6090   44.2330   -3.5870 C   0  0  0  0  0  0  0  0  0  0  0  0
   27.4090   44.4660   -1.5730 C   0  0  0  0  0  0  0  0  0  0  0  0
   30.2910   44.1120   -4.8560 C   0  0  0  0  0  0  0  0  0  0  0  0
   29.1900   43.4130   -4.4050 N   0  0  0  0  0  0  0  0  0  0  0  0
   27.3890   43.9510   -2.8140 C   0  0  0  0  0  0  0  0  0  0  0  0
   31.2750   43.5460   -5.8300 C   0  0  0  0  0  0  0  0  0  0  0  0
   30.9740   42.2580   -6.0920 O   0  0  0  0  0  0  0  0  0  0  0  0
   32.2790   44.1730   -6.3620 N   0  0  0  0  0  0  0  0  0  0  0  0
   32.5540   45.4890   -6.0700 C   0  0  0  0  0  0  0  0  0  0  0  0
   32.1090   46.4400   -6.7140 O   0  0  0  0  0  0  0  0  0  0  0  0
   33.4820   45.6520   -4.8560 C   0  0  0  0  0  0  0  0  0  0  0  0
   34.8220   45.9710   -5.2470 O   0  0  0  0  0  0  0  0  0  0  0  0
   35.5570   46.4210   -4.1740 C   0  0  0  0  0  0  0  0  0  0  0  0
   35.7090   47.7970   -3.9440 C   0  0  0  0  0  0  0  0  0  0  0  0
   36.1620   45.5110   -3.2920 C   0  0  0  0  0  0  0  0  0  0  0  0
   36.0230   43.8020   -3.5040 Cl  0  0  0  0  0  0  0  0  0  0  0  0
   34.9970   48.9780   -4.9860 Cl  0  0  0  0  0  0  0  0  0  0  0  0
   36.4550   48.2540   -2.8550 C   0  0  0  0  0  0  0  0  0  0  0  0
   36.9060   45.9730   -2.2030 C   0  0  0  0  0  0  0  0  0  0  0  0
   37.0520   47.3420   -1.9820 C   0  0  0  0  0  0  0  0  0  0  0  0
  1  2  1  0
  2  3  1  0
  2  4  2  0
  3  5  1  6
  3  6  1  0
  4  7  1  0
  5  8  2  0
  6  9  2  0
  8  9  1  0
  6 10  1  0
  7 10  2  0
  8 11  1  0
 11 12  1  0
 11 13  2  3
 13 14  1  0
 14 15  2  0
 14 16  1  0
 16 17  1  0
 17 18  1  0
 18 19  2  0
 18 20  1  0
 20 21  1  0
 19 22  1  0
 19 23  1  0
 20 24  2  0
 23 25  2  0
 24 25  1  0
M  END
