mac-x0398-mac-x0193
     RDKit          3D

 28 29  0  0  0  0  0  0  0  0999 V2000
   28.6720   54.0130   -6.7020 N   0  0  0  0  0  0  0  0  0  0  0  0
   28.9950   52.9000   -5.9200 C   0  0  0  0  0  0  0  0  0  0  0  0
   29.0030   51.6170   -6.4720 C   0  0  0  0  0  0  0  0  0  0  0  0
   29.3170   53.0460   -4.5690 C   0  0  0  0  0  0  0  0  0  0  0  0
   29.6410   51.9380   -3.7820 C   0  0  0  0  0  0  0  0  0  0  0  0
   29.3260   50.5030   -5.6900 C   0  0  0  0  0  0  0  0  0  0  0  0
   29.9350   52.2160   -2.4750 O   0  0  0  0  0  0  0  0  0  0  0  0
   29.6510   50.6490   -4.3300 C   0  0  0  0  0  0  0  0  0  0  0  0
   29.9860   49.4180   -3.5560 C   0  0  0  0  0  0  0  0  0  0  0  0
   30.4900   49.4550   -2.4400 O   0  0  0  0  0  0  0  0  0  0  0  0
   29.6470   48.2960   -4.2480 O   0  0  0  0  0  0  0  0  0  0  0  0
   30.7060   47.5030   -4.8190 C   0  0  0  0  0  0  0  0  0  0  0  0
   30.3700   46.0180   -4.6380 C   0  0  0  0  0  0  0  0  0  0  0  0
   30.7780   45.1090   -5.8100 C   0  0  0  0  0  0  0  0  0  0  0  0
   32.0430   45.5670   -6.3840 N   0  0  0  0  0  0  0  0  0  0  0  0
   33.1330   45.2860   -5.7570 C   0  0  0  0  0  0  0  0  0  0  0  0
   34.3450   45.6650   -6.2060 O   0  0  0  0  0  0  0  0  0  0  0  0
   33.1180   44.4960   -4.4640 C   0  0  0  0  0  0  0  0  0  0  0  0
   34.4550   44.5810   -3.9120 N   0  0  0  0  0  0  0  0  0  0  0  0
   34.8920   43.6460   -3.0180 C   0  0  0  0  0  0  0  0  0  0  0  0
   34.2820   42.6170   -2.7700 O   0  0  0  0  0  0  0  0  0  0  0  0
   36.0810   44.0010   -2.4400 N   0  0  0  0  0  0  0  0  0  0  0  0
   36.9030   43.0150   -1.7510 C   0  0  0  0  0  0  0  0  0  0  0  0
   38.0170   42.5120   -2.6720 C   0  0  0  0  0  0  0  0  0  0  0  0
   37.4770   43.5530   -0.4360 C   0  0  0  0  0  0  0  0  0  0  0  0
   38.9260   41.4960   -1.9860 C   0  0  0  0  0  0  0  0  0  0  0  0
   38.3770   42.5330    0.2600 C   0  0  0  0  0  0  0  0  0  0  0  0
   39.4790   42.0270   -0.6680 C   0  0  0  0  0  0  0  0  0  0  0  0
  1  2  1  0
  2  3  2  0
  2  4  1  0
  4  5  2  0
  3  6  1  0
  5  7  1  0
  5  8  1  0
  6  8  2  0
  8  9  1  0
  9 10  2  0
  9 11  1  0
 11 12  1  0
 12 13  1  0
 13 14  1  0
 14 15  1  0
 15 16  2  3
 16 17  1  0
 16 18  1  0
 18 19  1  0
 19 20  1  0
 20 21  2  0
 20 22  1  0
 22 23  1  0
 23 24  1  0
 23 25  1  0
 24 26  1  0
 25 27  1  0
 26 28  1  0
 27 28  1  0
M  END
