mac-x0139-mac-x0453
     RDKit          3D

 23 25  0  0  0  0  0  0  0  0999 V2000
   29.5730   48.0500   -4.4770 C   0  0  0  0  0  0  0  0  0  0  0  0
   29.1340   47.1620   -5.5640 N   0  0  0  0  0  0  0  0  0  0  0  0
   29.8720   45.8760   -5.6600 C   0  0  0  0  0  0  0  0  0  0  0  0
   29.1050   47.8420   -6.8120 C   0  0  0  0  0  0  0  0  0  0  0  0
   31.3680   46.1170   -5.8980 C   0  0  0  0  0  0  0  0  0  0  0  0
   29.7000   49.0840   -7.0490 C   0  0  0  0  0  0  0  0  0  0  0  0
   28.4500   47.2040   -7.8110 N   0  0  0  0  0  0  0  0  0  0  0  0
   32.0830   44.8240   -6.1970 C   0  0  0  0  0  0  0  0  0  0  0  0
   29.5640   49.5690   -8.3500 C   0  0  0  0  0  0  0  0  0  0  0  0
   28.3910   47.7880   -9.0140 C   0  0  0  0  0  0  0  0  0  0  0  0
   30.5040   50.1140   -6.2590 C   0  0  1  0  0  0  0  0  0  0  0  0
   31.5480   43.7560   -6.4450 O   0  0  0  0  0  0  0  0  0  0  0  0
   33.4330   44.9580   -6.1690 O   0  0  0  0  0  0  0  0  0  0  0  0
   28.9250   48.9610   -9.3470 N   0  0  0  0  0  0  0  0  0  0  0  0
   30.2010   50.8350   -8.5500 N   0  0  0  0  0  0  0  0  0  0  0  0
   31.2250   50.7140   -7.4940 C   0  0  0  0  0  0  0  0  0  0  0  0
   29.7800   51.1790   -5.3910 C   0  0  1  0  0  0  0  0  0  0  0  0
   31.5090   49.5210   -5.3350 N   0  0  0  0  0  0  0  0  0  0  0  0
   28.2310   51.2900   -5.4610 C   0  0  0  0  0  0  0  0  0  0  0  0
   31.5470   50.3500   -4.1460 C   0  0  0  0  0  0  0  0  0  0  0  0
   30.2310   50.9350   -4.0010 N   0  0  0  0  0  0  0  0  0  0  0  0
   27.6020   52.6590   -5.1690 C   0  0  0  0  0  0  0  0  0  0  0  0
   28.1010   53.7080   -6.0640 N   0  0  0  0  0  0  0  0  0  0  0  0
  1  2  1  0
  2  3  1  0
  2  4  1  0
  3  5  1  0
  4  6  2  0
  4  7  1  0
  5  8  1  0
  6  9  1  0
  7 10  2  0
  6 11  1  0
  8 12  2  0
  8 13  1  0
  9 14  2  0
 10 14  1  0
  9 15  1  0
 11 16  1  6
 15 16  1  0
 11 17  1  0
 11 18  1  0
 17 19  1  1
 18 20  1  0
 17 21  1  0
 20 21  1  0
 19 22  1  0
 22 23  1  0
M  END
