mac-x0302-mac-x0565
     RDKit          3D

 25 27  0  0  0  0  0  0  0  0999 V2000
   29.5470   44.4170   -4.9330 O   0  0  0  0  0  0  0  0  0  0  0  0
   29.5990   45.5220   -5.7020 C   0  0  0  0  0  0  0  0  0  0  0  0
   29.8460   45.4360   -6.8980 O   0  0  0  0  0  0  0  0  0  0  0  0
   29.3290   46.7990   -4.9290 C   0  0  0  0  0  0  0  0  0  0  0  0
   28.1250   47.4490   -5.4270 N   0  0  0  0  0  0  0  0  0  0  0  0
   27.6380   48.5860   -4.8160 C   0  0  0  0  0  0  0  0  0  0  0  0
   26.9220   48.5450   -3.8190 O   0  0  0  0  0  0  0  0  0  0  0  0
   28.0140   49.8940   -5.4270 C   0  0  0  0  0  0  0  0  0  0  0  0
   28.3850   51.0050   -4.6570 C   0  0  0  0  0  0  0  0  0  0  0  0
   27.9920   50.0010   -6.8230 C   0  0  0  0  0  0  0  0  0  0  0  0
   28.7300   52.2120   -5.2770 C   0  0  0  0  0  0  0  0  0  0  0  0
   28.3350   51.2020   -7.4450 C   0  0  0  0  0  0  0  0  0  0  0  0
   29.1000   53.3040   -4.4860 N   0  0  0  0  0  0  0  0  0  0  0  0
   28.7010   52.3020   -6.6730 C   0  0  0  0  0  0  0  0  0  0  0  0
   29.9180   53.1090   -3.5120 C   0  0  0  0  0  0  0  0  0  0  0  0
   30.2620   54.1700   -2.7620 O   0  0  0  0  0  0  0  0  0  0  0  0
   30.5820   51.8860   -3.0360 C   0  0  0  0  0  0  0  0  0  0  0  0
   31.5130   51.2290   -3.8530 C   0  0  0  0  0  0  0  0  0  0  0  0
   30.2670   51.3880   -1.7530 C   0  0  0  0  0  0  0  0  0  0  0  0
   32.0990   50.0870   -3.3520 C   0  0  0  0  0  0  0  0  0  0  0  0
   30.8810   50.2250   -1.2760 C   0  0  0  0  0  0  0  0  0  0  0  0
   31.7920   49.6000   -2.1000 C   0  0  0  0  0  0  0  0  0  0  0  0
   33.0190   49.3150   -3.9920 O   0  0  0  0  0  0  0  0  0  0  0  0
   32.4830   48.4660   -1.8070 O   0  0  0  0  0  0  0  0  0  0  0  0
   33.0920   48.1960   -3.0850 C   0  0  0  0  0  0  0  0  0  0  0  0
  1  2  1  0
  2  3  2  0
  2  4  1  0
  4  5  1  0
  5  6  1  0
  6  7  2  0
  6  8  1  0
  8  9  2  0
  8 10  1  0
  9 11  1  0
 10 12  2  0
 11 13  1  0
 11 14  2  0
 12 14  1  0
 13 15  2  3
 15 16  1  0
 15 17  1  0
 17 18  2  0
 17 19  1  0
 18 20  1  0
 19 21  2  0
 20 22  2  0
 21 22  1  0
 20 23  1  0
 22 24  1  0
 23 25  1  0
 24 25  1  0
M  END
