mac-x0163-mac-x0360
     RDKit          3D

 27 30  0  0  0  0  0  0  0  0999 V2000
   29.9940   50.4040   -5.0830 C   0  0  2  0  0  0  0  0  0  0  0  0
   30.3540   49.7630   -3.8470 N   0  0  0  0  0  0  0  0  0  0  0  0
   28.8430   51.1790   -4.7550 O   0  0  0  0  0  0  0  0  0  0  0  0
   29.5900   49.4480   -6.1990 C   0  0  0  0  0  0  0  0  0  0  0  0
   31.1760   51.3440   -5.4530 C   0  0  0  0  0  0  0  0  0  0  0  0
   28.8360   49.9020   -7.2820 C   0  0  0  0  0  0  0  0  0  0  0  0
   29.9200   48.0890   -6.2470 C   0  0  0  0  0  0  0  0  0  0  0  0
   32.5150   50.9450   -5.2610 C   0  0  0  0  0  0  0  0  0  0  0  0
   30.9640   52.6400   -5.9980 C   0  0  0  0  0  0  0  0  0  0  0  0
   28.4100   51.2280   -7.3960 N   0  0  0  0  0  0  0  0  0  0  0  0
   29.5450   47.2830   -7.2620 N   0  0  0  0  0  0  0  0  0  0  0  0
   28.4560   49.1130   -8.2980 N   0  0  0  0  0  0  0  0  0  0  0  0
   30.6750   47.5020   -5.2000 N   0  0  0  0  0  0  0  0  0  0  0  0
   33.5800   51.7890   -5.5900 C   0  0  0  0  0  0  0  0  0  0  0  0
   32.0460   53.4770   -6.3230 C   0  0  0  0  0  0  0  0  0  0  0  0
   31.7710   55.0470   -6.9790 Cl  0  0  0  0  0  0  0  0  0  0  0  0
   35.1980   51.2560   -5.3380 Cl  0  0  0  0  0  0  0  0  0  0  0  0
   28.8320   47.8390   -8.2410 C   0  0  0  0  0  0  0  0  0  0  0  0
   31.7950   46.6820   -5.7360 C   0  0  0  0  0  0  0  0  0  0  0  0
   29.8350   46.7560   -4.2520 C   0  0  0  0  0  0  0  0  0  0  0  0
   33.3540   53.0530   -6.1200 C   0  0  0  0  0  0  0  0  0  0  0  0
   32.7130   46.2000   -4.5840 C   0  0  0  0  0  0  0  0  0  0  0  0
   30.7090   46.3220   -3.0730 C   0  0  0  0  0  0  0  0  0  0  0  0
   34.0180   45.4640   -5.0380 C   0  0  0  0  0  0  0  0  0  0  0  0
   33.6600   47.3130   -4.0310 C   0  0  0  0  0  0  0  0  0  0  0  0
   31.9110   45.4730   -3.5000 C   0  0  0  0  0  0  0  0  0  0  0  0
   34.7300   46.8290   -5.0250 C   0  0  0  0  0  0  0  0  0  0  0  0
  1  2  1  1
  1  3  1  0
  1  4  1  0
  1  5  1  0
  4  6  2  0
  4  7  1  0
  5  8  2  0
  5  9  1  0
  6 10  1  0
  7 11  2  0
  6 12  1  0
  7 13  1  0
  8 14  1  0
  9 15  2  0
 15 16  1  0
 14 17  1  0
 11 18  1  0
 12 18  2  0
 13 19  1  0
 13 20  1  0
 14 21  2  0
 15 21  1  0
 22 19  1  0
 20 23  1  0
 22 24  1  0
 22 25  1  0
 22 26  1  0
 23 26  1  0
 24 27  1  0
 25 27  1  0
M  END
