mac-x0387-mac-x0354
     RDKit          3D

 28 31  0  0  0  0  0  0  0  0999 V2000
   28.3300   51.8190   -7.2350 N   0  0  0  0  0  0  0  0  0  0  0  0
   28.5330   50.4460   -7.4560 C   0  0  0  0  0  0  0  0  0  0  0  0
   28.2020   50.0120   -8.6840 N   0  0  0  0  0  0  0  0  0  0  0  0
   29.0500   49.6000   -6.4400 C   0  0  0  0  0  0  0  0  0  0  0  0
   29.2260   48.2260   -6.7390 C   0  0  0  0  0  0  0  0  0  0  0  0
   28.3770   48.7070   -8.9460 C   0  0  0  0  0  0  0  0  0  0  0  0
   29.3980   50.0610   -5.1460 C   0  0  0  0  0  0  0  0  0  0  0  0
   28.8730   47.7940   -8.0320 C   0  0  0  0  0  0  0  0  0  0  0  0
   29.7430   47.3480   -5.7420 C   0  0  0  0  0  0  0  0  0  0  0  0
   29.9010   49.1980   -4.1760 C   0  0  0  0  0  0  0  0  0  0  0  0
   29.9610   45.8670   -5.9810 C   0  0  0  0  0  0  0  0  0  0  0  0
   30.0730   47.8530   -4.4710 C   0  0  0  0  0  0  0  0  0  0  0  0
   31.3920   45.5550   -6.4330 C   0  0  0  0  0  0  0  0  0  0  0  0
   32.0680   44.8410   -5.3440 N   0  0  0  0  0  0  0  0  0  0  0  0
   33.3520   44.8000   -5.4020 C   0  0  0  0  0  0  0  0  0  0  0  0
   34.0480   45.3760   -6.4070 O   0  0  0  0  0  0  0  0  0  0  0  0
   34.0710   44.1100   -4.3520 C   0  0  0  0  0  0  0  0  0  0  0  0
   33.8140   42.7800   -3.9320 C   0  0  0  0  0  0  0  0  0  0  0  0
   35.1230   44.5210   -3.5310 C   0  0  0  0  0  0  0  0  0  0  0  0
   35.3970   43.4400   -2.7170 N   0  0  0  0  0  0  0  0  0  0  0  0
   34.6120   42.3740   -2.9450 N   0  0  0  0  0  0  0  0  0  0  0  0
   35.8670   45.7740   -3.4390 C   0  0  0  0  0  0  0  0  0  0  0  0
   36.4050   43.3540   -1.6850 C   0  0  0  0  0  0  0  0  0  0  0  0
   37.2580   45.7680   -3.5940 C   0  0  0  0  0  0  0  0  0  0  0  0
   35.2020   46.9800   -3.1960 C   0  0  0  0  0  0  0  0  0  0  0  0
   37.9750   46.9620   -3.5060 C   0  0  0  0  0  0  0  0  0  0  0  0
   35.9240   48.1740   -3.1090 C   0  0  0  0  0  0  0  0  0  0  0  0
   37.3100   48.1610   -3.2650 C   0  0  0  0  0  0  0  0  0  0  0  0
  1  2  1  0
  2  3  2  0
  2  4  1  0
  4  5  2  0
  3  6  1  0
  4  7  1  0
  5  8  1  0
  6  8  2  0
  5  9  1  0
  7 10  2  0
  9 11  1  0
  9 12  2  0
 10 12  1  0
 11 13  1  0
 13 14  1  0
 14 15  2  3
 15 16  1  0
 15 17  1  0
 17 18  1  0
 17 19  2  0
 19 20  1  0
 18 21  2  0
 20 21  1  0
 19 22  1  0
 20 23  1  0
 22 24  2  0
 22 25  1  0
 24 26  1  0
 25 27  2  0
 26 28  2  0
 27 28  1  0
M  END
