mac-x0402-mac-x0404
     RDKit          3D

 27 30  0  0  0  0  0  0  0  0999 V2000
   28.3970   48.0630   -4.2820 Cl  0  0  0  0  0  0  0  0  0  0  0  0
   28.9710   49.6630   -4.6010 C   0  0  0  0  0  0  0  0  0  0  0  0
   30.0200   50.2580   -3.8780 C   0  0  0  0  0  0  0  0  0  0  0  0
   28.3190   50.3460   -5.6380 C   0  0  0  0  0  0  0  0  0  0  0  0
   30.7630   49.5750   -2.7450 C   0  0  0  0  0  0  0  0  0  0  0  0
   28.7340   51.6490   -5.9470 C   0  0  0  0  0  0  0  0  0  0  0  0
   30.4100   51.5700   -4.2190 C   0  0  0  0  0  0  0  0  0  0  0  0
   29.7680   52.2750   -5.2570 C   0  0  0  0  0  0  0  0  0  0  0  0
   28.1370   52.7270   -7.1490 S   0  0  0  0  0  0  0  0  0  0  0  0
   30.5080   48.0900   -2.6200 C   0  0  0  0  0  0  0  0  0  0  0  0
   29.2780   53.9070   -6.6570 C   0  0  0  0  0  0  0  0  0  0  0  0
   30.0660   53.5610   -5.6730 N   0  0  0  0  0  0  0  0  0  0  0  0
   29.6010   47.6020   -1.6720 C   0  0  0  0  0  0  0  0  0  0  0  0
   31.1750   47.1810   -3.4500 C   0  0  0  0  0  0  0  0  0  0  0  0
   29.3400   55.1100   -7.2560 N   0  0  0  0  0  0  0  0  0  0  0  0
   30.9490   45.8020   -3.3440 C   0  0  0  0  0  0  0  0  0  0  0  0
   29.3510   46.2290   -1.5420 C   0  0  0  0  0  0  0  0  0  0  0  0
   31.5680   44.8520   -4.1250 O   0  0  0  0  0  0  0  0  0  0  0  0
   30.0270   45.3110   -2.3800 C   0  0  0  0  0  0  0  0  0  0  0  0
   28.4360   45.7630   -0.5830 C   0  0  0  0  0  0  0  0  0  0  0  0
   32.9780   44.8990   -4.2910 C   0  0  0  0  0  0  0  0  0  0  0  0
   28.1780   44.4010   -0.4400 C   0  0  0  0  0  0  0  0  0  0  0  0
   29.7460   43.9360   -2.2130 C   0  0  0  0  0  0  0  0  0  0  0  0
   33.4620   44.7880   -5.7280 C   0  0  0  0  0  0  0  0  0  0  0  0
   28.8330   43.4870   -1.2550 C   0  0  0  0  0  0  0  0  0  0  0  0
   32.7710   43.8960   -6.4650 O   0  0  0  0  0  0  0  0  0  0  0  0
   34.3850   45.4180   -6.2260 O   0  0  0  0  0  0  0  0  0  0  0  0
  1  2  1  0
  2  3  2  0
  2  4  1  0
  3  5  1  0
  4  6  2  0
  3  7  1  0
  6  8  1  0
  7  8  2  0
  6  9  1  0
  5 10  1  0
  9 11  1  0
  8 12  1  0
 11 12  2  0
 10 13  2  0
 10 14  1  0
 11 15  1  0
 14 16  2  0
 13 17  1  0
 16 18  1  0
 16 19  1  0
 17 19  2  0
 17 20  1  0
 18 21  1  0
 20 22  2  0
 19 23  1  0
 21 24  1  0
 22 25  1  0
 23 25  2  0
 24 26  1  0
 24 27  2  0
M  END
