mac-x0115-mac-x0137
     RDKit          3D

 26 29  0  0  0  0  0  0  0  0999 V2000
   28.1540   45.8130   -1.8670 C   0  0  0  0  0  0  0  0  0  0  0  0
   28.9980   44.6180   -2.2960 C   0  0  0  0  0  0  0  0  0  0  0  0
   28.1160   43.5580   -2.9480 C   0  0  0  0  0  0  0  0  0  0  0  0
   29.9770   45.1010   -3.2250 O   0  0  0  0  0  0  0  0  0  0  0  0
   30.2800   44.2150   -4.3080 C   0  0  0  0  0  0  0  0  0  0  0  0
   31.3520   44.8200   -5.2310 C   0  0  0  0  0  0  0  0  0  0  0  0
   30.7760   45.7190   -6.2550 N   0  0  0  0  0  0  0  0  0  0  0  0
   30.6200   45.3470   -7.5760 C   0  0  0  0  0  0  0  0  0  0  0  0
   29.8440   46.7030   -5.7450 C   0  0  2  0  0  0  0  0  0  0  0  0
   30.5790   43.7860   -8.1770 S   0  0  0  0  0  0  0  0  0  0  0  0
   30.4800   46.3810   -8.4710 N   0  0  0  0  0  0  0  0  0  0  0  0
   29.1620   47.5840   -6.8000 C   0  0  2  0  0  0  0  0  0  0  0  0
   30.4730   47.6620   -4.7480 C   0  0  0  0  0  0  0  0  0  0  0  0
   29.9060   47.5760   -8.1100 C   0  0  0  0  0  0  0  0  0  0  0  0
   28.7080   48.8560   -5.9810 C   0  0  2  0  0  0  0  0  0  0  0  0
   29.3980   48.7080   -4.5840 C   0  0  2  0  0  0  0  0  0  0  0  0
   29.9870   48.5580   -8.8440 O   0  0  0  0  0  0  0  0  0  0  0  0
   30.0510   49.8510   -4.2210 F   0  0  0  0  0  0  0  0  0  0  0  0
   27.2460   48.5250   -5.9280 N   0  0  0  0  0  0  0  0  0  0  0  0
   28.6380   50.3660   -6.3070 C   0  0  2  0  0  0  0  0  0  0  0  0
   26.6340   48.4800   -7.2630 C   0  0  0  0  0  0  0  0  0  0  0  0
   27.4200   50.6800   -7.2100 C   0  0  2  0  0  0  0  0  0  0  0  0
   29.7170   51.1790   -6.9320 C   0  0  0  0  0  0  0  0  0  0  0  0
   27.1050   49.5720   -8.0880 N   0  0  0  0  0  0  0  0  0  0  0  0
   27.7600   51.9950   -7.7270 N   0  0  0  0  0  0  0  0  0  0  0  0
   29.1380   52.0950   -7.7160 C   0  0  0  0  0  0  0  0  0  0  0  0
  1  2  1  0
  2  3  1  0
  2  4  1  0
  4  5  1  0
  5  6  1  0
  6  7  1  0
  7  8  1  0
  7  9  1  0
  8 10  2  0
  8 11  1  0
  9 12  1  0
  9 13  1  1
 11 14  1  0
 12 14  1  6
 12 15  1  0
 13 16  1  0
 15 16  1  0
 14 17  2  0
 16 18  1  6
 15 19  1  1
 15 20  1  0
 19 21  1  0
 20 22  1  0
 20 23  1  6
 21 24  1  0
 22 24  1  6
 22 25  1  0
 23 26  2  0
 25 26  1  0
M  END
