mac-x0142-mac-x0305
     RDKit          3D

 21 24  0  0  0  0  0  0  0  0999 V2000
   32.7300   49.3770   -6.2020 O   0  0  0  0  0  0  0  0  0  0  0  0
   31.6780   49.6040   -5.3690 C   0  0  0  0  0  0  0  0  0  0  0  0
   31.8480   49.7730   -4.1720 O   0  0  0  0  0  0  0  0  0  0  0  0
   30.3850   49.6200   -6.0450 C   0  0  0  0  0  0  0  0  0  0  0  0
   29.4170   48.5530   -6.1770 C   0  0  0  0  0  0  0  0  0  0  0  0
   29.8550   50.7250   -6.7080 C   0  0  0  0  0  0  0  0  0  0  0  0
   28.3570   49.0680   -6.9140 C   0  0  0  0  0  0  0  0  0  0  0  0
   29.2910   47.2010   -5.7660 C   0  0  0  0  0  0  0  0  0  0  0  0
   28.6480   50.3640   -7.2160 N   0  0  0  0  0  0  0  0  0  0  0  0
   27.8280   51.2140   -7.9450 O   0  0  0  0  0  0  0  0  0  0  0  0
   30.2630   46.5380   -5.0210 N   0  0  0  0  0  0  0  0  0  0  0  0
   28.1570   46.5420   -6.1330 N   0  0  0  0  0  0  0  0  0  0  0  0
   27.2290   48.4420   -7.2890 N   0  0  0  0  0  0  0  0  0  0  0  0
   30.4820   47.0580   -3.6690 C   0  0  0  0  0  0  0  0  0  0  0  0
   30.3310   45.0800   -5.1390 C   0  0  0  0  0  0  0  0  0  0  0  0
   27.2150   47.1750   -6.8520 C   0  0  0  0  0  0  0  0  0  0  0  0
   31.6490   44.5500   -4.5930 C   0  0  0  0  0  0  0  0  0  0  0  0
   31.8070   46.5550   -3.0910 C   0  0  0  0  0  0  0  0  0  0  0  0
   32.0730   43.1470   -4.9790 C   0  0  0  0  0  0  0  0  0  0  0  0
   32.8010   44.3280   -5.5550 C   0  0  0  0  0  0  0  0  0  0  0  0
   31.9740   45.0370   -3.2010 C   0  0  0  0  0  0  0  0  0  0  0  0
  1  2  1  0
  2  3  2  0
  2  4  1  0
  4  5  1  0
  4  6  2  0
  5  7  2  0
  5  8  1  0
  6  9  1  0
  7  9  1  0
  9 10  1  0
  8 11  1  0
  8 12  2  0
  7 13  1  0
 11 14  1  0
 11 15  1  0
 12 16  1  0
 13 16  2  0
 17 15  1  0
 14 18  1  0
 17 19  1  0
 17 20  1  0
 19 20  1  0
 17 21  1  0
 18 21  1  0
M  END
