mac-x0354-mac-x0455
     RDKit          3D

 26 28  0  0  0  0  0  0  0  0999 V2000
   35.5130   43.3240   -2.0810 C   0  0  0  0  0  0  0  0  0  0  0  0
   34.6850   43.6480   -3.2240 N   0  0  0  0  0  0  0  0  0  0  0  0
   33.6850   42.8150   -3.5630 N   0  0  0  0  0  0  0  0  0  0  0  0
   34.7920   44.7530   -4.0500 C   0  0  0  0  0  0  0  0  0  0  0  0
   33.1390   43.4020   -4.6330 C   0  0  0  0  0  0  0  0  0  0  0  0
   33.7740   44.6150   -4.9980 C   0  0  0  0  0  0  0  0  0  0  0  0
   35.8050   45.7900   -3.8620 C   0  0  0  0  0  0  0  0  0  0  0  0
   33.4350   45.4930   -6.1090 C   0  0  0  0  0  0  0  0  0  0  0  0
   37.0500   45.4930   -3.2970 C   0  0  0  0  0  0  0  0  0  0  0  0
   35.5320   47.1080   -4.2490 C   0  0  0  0  0  0  0  0  0  0  0  0
   32.2600   46.0410   -6.2780 N   0  0  0  0  0  0  0  0  0  0  0  0
   34.4510   45.7000   -6.9670 O   0  0  0  0  0  0  0  0  0  0  0  0
   38.0020   46.4990   -3.1180 C   0  0  0  0  0  0  0  0  0  0  0  0
   36.4820   48.1120   -4.0670 C   0  0  0  0  0  0  0  0  0  0  0  0
   31.1590   45.9010   -5.4550 C   0  0  0  0  0  0  0  0  0  0  0  0
   37.7170   47.8090   -3.5010 C   0  0  0  0  0  0  0  0  0  0  0  0
   31.0670   46.9070   -4.2620 C   0  0  1  0  0  0  0  0  0  0  0  0
   30.2590   45.0690   -5.6250 O   0  0  0  0  0  0  0  0  0  0  0  0
   30.6680   48.2870   -4.8030 C   0  0  0  0  0  0  0  0  0  0  0  0
   29.9840   46.5270   -3.3860 O   0  0  0  0  0  0  0  0  0  0  0  0
   32.3480   46.9010   -3.4420 C   0  0  0  0  0  0  0  0  0  0  0  0
   33.1380   48.0620   -3.3490 C   0  0  0  0  0  0  0  0  0  0  0  0
   32.7810   45.7570   -2.7560 C   0  0  0  0  0  0  0  0  0  0  0  0
   34.3130   48.0760   -2.6000 C   0  0  0  0  0  0  0  0  0  0  0  0
   33.9550   45.7720   -2.0070 C   0  0  0  0  0  0  0  0  0  0  0  0
   34.7240   46.9290   -1.9270 C   0  0  0  0  0  0  0  0  0  0  0  0
  1  2  1  0
  2  3  1  0
  2  4  1  0
  3  5  2  0
  4  6  2  0
  5  6  1  0
  4  7  1  0
  6  8  1  0
  7  9  2  0
  7 10  1  0
  8 11  2  3
  8 12  1  0
  9 13  1  0
 10 14  2  0
 11 15  1  0
 13 16  2  0
 14 16  1  0
 15 17  1  0
 15 18  2  0
 17 19  1  6
 17 20  1  0
 17 21  1  0
 21 22  2  0
 21 23  1  0
 22 24  1  0
 23 25  2  0
 24 26  2  0
 25 26  1  0
M  END
