mac-x0455-mac-x0392
     RDKit          3D

 19 20  0  0  0  0  0  0  0  0999 V2000
   31.4190   48.2570   -5.5870 C   0  0  0  0  0  0  0  0  0  0  0  0
   31.2270   47.0540   -4.6220 C   0  0  1  0  0  0  0  0  0  0  0  0
   30.2370   47.3320   -3.5990 O   0  0  0  0  0  0  0  0  0  0  0  0
   30.1830   49.0480   -5.9930 C   0  0  0  0  0  0  0  0  0  0  0  0
   30.7140   45.7850   -5.3520 C   0  0  0  0  0  0  0  0  0  0  0  0
   32.5640   46.7550   -3.9280 C   0  0  0  0  0  0  0  0  0  0  0  0
   29.4890   48.8300   -7.1950 C   0  0  0  0  0  0  0  0  0  0  0  0
   29.7210   50.0530   -5.1210 C   0  0  0  0  0  0  0  0  0  0  0  0
   29.7210   45.1370   -5.0470 O   0  0  0  0  0  0  0  0  0  0  0  0
   31.5070   45.4460   -6.4080 O   0  0  0  0  0  0  0  0  0  0  0  0
   29.8690   47.8570   -8.1290 N   0  0  0  0  0  0  0  0  0  0  0  0
   33.4340   47.7930   -3.5320 C   0  0  0  0  0  0  0  0  0  0  0  0
   32.9660   45.4290   -3.6640 C   0  0  0  0  0  0  0  0  0  0  0  0
   28.6020   50.7940   -5.4650 C   0  0  0  0  0  0  0  0  0  0  0  0
   28.3730   49.6420   -7.4330 C   0  0  0  0  0  0  0  0  0  0  0  0
   34.6520   47.5140   -2.9020 C   0  0  0  0  0  0  0  0  0  0  0  0
   34.1830   45.1580   -3.0350 C   0  0  0  0  0  0  0  0  0  0  0  0
   27.9170   50.6100   -6.6060 N   0  0  0  0  0  0  0  0  0  0  0  0
   35.0230   46.1970   -2.6560 C   0  0  0  0  0  0  0  0  0  0  0  0
  1  2  1  0
  2  3  1  1
  1  4  1  0
  2  5  1  0
  2  6  1  0
  4  7  2  0
  4  8  1  0
  5  9  2  0
  5 10  1  0
  7 11  1  0
  6 12  2  0
  6 13  1  0
  8 14  2  0
  7 15  1  0
 12 16  1  0
 13 17  2  0
 14 18  1  0
 15 18  2  0
 16 19  2  0
 17 19  1  0
M  END
