mac-x0206-mac-x0564
     RDKit          3D

 23 26  0  0  0  0  0  0  0  0999 V2000
   30.9930   51.5840   -6.5790 N   0  0  0  0  0  0  0  0  0  0  0  0
   29.6640   51.6900   -5.9440 C   0  0  2  0  0  0  0  0  0  0  0  0
   29.1390   53.1240   -5.8760 C   0  0  0  0  0  0  0  0  0  0  0  0
   29.6880   51.0070   -4.5850 C   0  0  0  0  0  0  0  0  0  0  0  0
   30.0240   54.1980   -5.6660 C   0  0  0  0  0  0  0  0  0  0  0  0
   27.7720   53.4290   -6.0150 C   0  0  0  0  0  0  0  0  0  0  0  0
   29.5320   51.7360   -3.3840 C   0  0  0  0  0  0  0  0  0  0  0  0
   29.8620   49.6230   -4.4130 C   0  0  0  0  0  0  0  0  0  0  0  0
   31.3590   53.9410   -5.5250 O   0  0  0  0  0  0  0  0  0  0  0  0
   29.5710   55.5170   -5.5970 C   0  0  0  0  0  0  0  0  0  0  0  0
   27.3150   54.7490   -5.9480 C   0  0  0  0  0  0  0  0  0  0  0  0
   29.5500   51.1260   -2.1280 C   0  0  0  0  0  0  0  0  0  0  0  0
   29.8860   48.9750   -3.1680 C   0  0  0  0  0  0  0  0  0  0  0  0
   30.0320   48.7090   -5.4260 O   0  0  0  0  0  0  0  0  0  0  0  0
   28.2130   55.7890   -5.7380 C   0  0  0  0  0  0  0  0  0  0  0  0
   30.1630   47.4930   -4.8300 C   0  0  0  0  0  0  0  0  0  0  0  0
   30.0820   47.6140   -3.4730 C   0  0  0  0  0  0  0  0  0  0  0  0
   29.7270   49.7420   -2.0030 C   0  0  0  0  0  0  0  0  0  0  0  0
   30.3610   46.2470   -5.5290 C   0  0  0  0  0  0  0  0  0  0  0  0
   30.1910   46.5150   -2.7060 N   0  0  0  0  0  0  0  0  0  0  0  0
   30.2620   46.1000   -6.7400 O   0  0  0  0  0  0  0  0  0  0  0  0
   30.5870   45.3880   -3.3890 C   0  0  0  0  0  0  0  0  0  0  0  0
   30.6870   45.1980   -4.6680 N   0  0  0  0  0  0  0  0  0  0  0  0
  2  1  1  1
  2  3  1  0
  2  4  1  0
  3  5  2  0
  3  6  1  0
  4  7  2  0
  4  8  1  0
  5  9  1  0
  5 10  1  0
  6 11  2  0
  7 12  1  0
  8 13  2  0
  8 14  1  0
 10 15  2  0
 11 15  1  0
 14 16  1  0
 13 17  1  0
 16 17  2  0
 12 18  2  0
 13 18  1  0
 16 19  1  0
 17 20  1  0
 19 21  2  0
 20 22  1  0
 19 23  1  0
 22 23  2  0
M  END
