mac-x0380-mac-x0572
     RDKit          3D

 16 17  0  0  0  0  0  0  0  0999 V2000
   29.2950   47.9820   -4.7450 O   0  0  0  0  0  0  0  0  0  0  0  0
   29.1370   49.0030   -3.8790 C   0  0  0  0  0  0  0  0  0  0  0  0
   29.2160   48.8800   -2.6680 O   0  0  0  0  0  0  0  0  0  0  0  0
   28.8560   50.2970   -4.5400 C   0  0  0  0  0  0  0  0  0  0  0  0
   28.9060   51.5050   -3.8350 C   0  0  0  0  0  0  0  0  0  0  0  0
   28.5330   50.2930   -5.9020 C   0  0  0  0  0  0  0  0  0  0  0  0
   28.6350   52.7140   -4.4940 C   0  0  0  0  0  0  0  0  0  0  0  0
   28.2610   51.4950   -6.5590 C   0  0  0  0  0  0  0  0  0  0  0  0
   28.3120   52.7070   -5.8600 C   0  0  0  0  0  0  0  0  0  0  0  0
   28.7130   54.2290   -3.5560 S   0  0  0  0  0  0  0  0  0  0  0  0
   28.0330   53.8880   -6.5620 N   0  0  0  0  0  0  0  0  0  0  0  0
   29.2500   55.3530   -4.8810 C   0  0  0  0  0  0  0  0  0  0  0  0
   30.6170   55.1170   -5.1190 O   0  0  0  0  0  0  0  0  0  0  0  0
   29.1760   56.6860   -4.4170 O   0  0  0  0  0  0  0  0  0  0  0  0
   28.3480   55.1630   -6.1580 C   0  0  0  0  0  0  0  0  0  0  0  0
   27.9110   56.1120   -6.8180 O   0  0  0  0  0  0  0  0  0  0  0  0
  1  2  1  0
  2  3  2  0
  2  4  1  0
  4  5  2  0
  4  6  1  0
  5  7  1  0
  6  8  2  0
  7  9  2  0
  8  9  1  0
  7 10  1  0
  9 11  1  0
 10 12  1  0
 12 13  1  0
 12 14  1  0
 11 15  1  0
 12 15  1  0
 15 16  2  0
M  END
