mac-x0411-mac-x0392
     RDKit          3D

 24 25  0  0  0  0  0  0  0  0999 V2000
   37.4190   44.4790   -3.1180 Cl  0  0  0  0  0  0  0  0  0  0  0  0
   36.4440   45.9050   -3.0400 C   0  0  0  0  0  0  0  0  0  0  0  0
   35.3630   46.1190   -3.9140 C   0  0  0  0  0  0  0  0  0  0  0  0
   36.7640   46.8540   -2.0700 C   0  0  0  0  0  0  0  0  0  0  0  0
   35.0430   45.1930   -4.8780 O   0  0  0  0  0  0  0  0  0  0  0  0
   34.5930   47.3000   -3.8120 C   0  0  0  0  0  0  0  0  0  0  0  0
   36.0120   48.0210   -1.9620 C   0  0  0  0  0  0  0  0  0  0  0  0
   33.4140   47.5990   -4.7250 C   0  0  0  0  0  0  0  0  0  0  0  0
   33.7700   44.5790   -4.7000 C   0  0  0  0  0  0  0  0  0  0  0  0
   34.9380   48.2410   -2.8240 C   0  0  0  0  0  0  0  0  0  0  0  0
   33.1940   44.1830   -6.0580 C   0  0  0  0  0  0  0  0  0  0  0  0
   32.1890   48.2140   -4.0310 C   0  0  0  0  0  0  0  0  0  0  0  0
   31.9970   43.5450   -5.9610 O   0  0  0  0  0  0  0  0  0  0  0  0
   33.7180   44.3940   -7.1430 O   0  0  0  0  0  0  0  0  0  0  0  0
   31.0900   47.2380   -3.9590 N   0  0  0  0  0  0  0  0  0  0  0  0
   30.0070   47.4260   -4.6340 C   0  0  0  0  0  0  0  0  0  0  0  0
   28.9830   46.5510   -4.5940 O   0  0  0  0  0  0  0  0  0  0  0  0
   29.7710   48.6130   -5.5110 C   0  0  0  0  0  0  0  0  0  0  0  0
   29.5660   48.5170   -6.9010 C   0  0  0  0  0  0  0  0  0  0  0  0
   29.7520   49.8720   -4.8990 C   0  0  0  0  0  0  0  0  0  0  0  0
   29.5710   47.2720   -7.5880 N   0  0  0  0  0  0  0  0  0  0  0  0
   29.5320   50.9890   -5.6830 C   0  0  0  0  0  0  0  0  0  0  0  0
   29.3530   49.7140   -7.5870 C   0  0  0  0  0  0  0  0  0  0  0  0
   29.3310   50.9390   -7.0140 N   0  0  0  0  0  0  0  0  0  0  0  0
  1  2  1  0
  2  3  2  0
  2  4  1  0
  3  5  1  0
  3  6  1  0
  4  7  2  0
  6  8  1  0
  5  9  1  0
  6 10  2  0
  7 10  1  0
  9 11  1  0
  8 12  1  0
 11 13  1  0
 11 14  2  0
 12 15  1  0
 15 16  2  3
 16 17  1  0
 16 18  1  0
 18 19  2  0
 18 20  1  0
 19 21  1  0
 20 22  2  0
 19 23  1  0
 22 24  1  0
 23 24  2  0
M  END
