mac-x0206-mac-x0337
     RDKit          3D

 18 19  0  0  0  0  0  0  0  0999 V2000
   29.5650   49.7250   -5.6420 N   0  0  0  0  0  0  0  0  0  0  0  0
   29.8000   50.9620   -4.5770 S   0  0  0  0  0  0  0  0  0  0  0  0
   28.4920   50.8310   -4.2720 O   0  0  0  0  0  0  0  0  0  0  0  0
   30.2240   50.6130   -3.0480 N   0  0  0  0  0  0  0  0  0  0  0  0
   29.4290   52.5610   -5.0730 C   0  0  0  0  0  0  0  0  0  0  0  0
   31.4110   51.2500   -4.9790 C   0  0  0  0  0  0  0  0  0  0  0  0
   29.0980   53.5330   -4.2080 C   0  0  0  0  0  0  0  0  0  0  0  0
   29.4820   52.8370   -6.4230 C   0  0  0  0  0  0  0  0  0  0  0  0
   32.3200   50.1920   -5.1860 C   0  0  0  0  0  0  0  0  0  0  0  0
   32.0160   52.4810   -5.1500 C   0  0  0  0  0  0  0  0  0  0  0  0
   29.0220   53.3490   -2.8440 O   0  0  0  0  0  0  0  0  0  0  0  0
   28.8080   54.8220   -4.6770 C   0  0  0  0  0  0  0  0  0  0  0  0
   29.1970   54.1010   -6.8730 C   0  0  0  0  0  0  0  0  0  0  0  0
   33.6420   50.3400   -5.5140 C   0  0  0  0  0  0  0  0  0  0  0  0
   33.3040   52.6790   -5.4710 C   0  0  0  0  0  0  0  0  0  0  0  0
   28.8580   55.1040   -6.0080 C   0  0  0  0  0  0  0  0  0  0  0  0
   34.1190   51.6120   -5.6540 C   0  0  0  0  0  0  0  0  0  0  0  0
   35.5570   51.8660   -6.0140 C   0  0  0  0  0  0  0  0  0  0  0  0
  1  2  1  0
  2  3  2  0
  2  4  1  0
  2  5  1  0
  2  6  1  0
  5  7  2  0
  5  8  1  0
  6  9  2  0
  6 10  1  0
  7 11  1  0
  7 12  1  0
  8 13  2  0
  9 14  1  0
 10 15  2  0
 12 16  2  0
 13 16  1  0
 14 17  2  0
 15 17  1  0
 17 18  1  0
M  END
