mac-x0411-mac-x0397
     RDKit          3D

 26 28  0  0  0  0  0  0  0  0999 V2000
   37.4570   44.4040   -3.9280 Cl  0  0  0  0  0  0  0  0  0  0  0  0
   36.5830   45.7690   -3.3270 C   0  0  0  0  0  0  0  0  0  0  0  0
   35.1830   45.8590   -3.4490 C   0  0  0  0  0  0  0  0  0  0  0  0
   37.3010   46.7900   -2.7130 C   0  0  0  0  0  0  0  0  0  0  0  0
   34.4820   44.8420   -4.0600 O   0  0  0  0  0  0  0  0  0  0  0  0
   34.4960   46.9820   -2.9490 C   0  0  0  0  0  0  0  0  0  0  0  0
   36.6340   47.9060   -2.2160 C   0  0  0  0  0  0  0  0  0  0  0  0
   32.9970   47.1470   -3.0420 C   0  0  0  0  0  0  0  0  0  0  0  0
   33.9700   45.2620   -5.3390 C   0  0  0  0  0  0  0  0  0  0  0  0
   35.2460   47.9990   -2.3340 C   0  0  0  0  0  0  0  0  0  0  0  0
   33.2050   44.1030   -5.9680 C   0  0  0  0  0  0  0  0  0  0  0  0
   32.4850   48.2500   -3.9850 C   0  0  0  0  0  0  0  0  0  0  0  0
   32.3190   43.5150   -5.1250 O   0  0  0  0  0  0  0  0  0  0  0  0
   33.3630   43.7250   -7.1200 O   0  0  0  0  0  0  0  0  0  0  0  0
   30.9710   48.2390   -4.2490 C   0  0  0  0  0  0  0  0  0  0  0  0
   30.3590   49.5990   -4.4880 C   0  0  0  0  0  0  0  0  0  0  0  0
   30.1660   50.4770   -3.4220 C   0  0  0  0  0  0  0  0  0  0  0  0
   29.9830   49.9900   -5.7860 C   0  0  0  0  0  0  0  0  0  0  0  0
   29.4160   51.2630   -5.9850 C   0  0  0  0  0  0  0  0  0  0  0  0
   29.6000   51.7370   -3.6440 C   0  0  0  0  0  0  0  0  0  0  0  0
   29.3480   52.8390   -2.3630 Cl  0  0  0  0  0  0  0  0  0  0  0  0
   29.2120   52.1590   -4.9320 C   0  0  0  0  0  0  0  0  0  0  0  0
   28.8730   51.9820   -7.4500 S   0  0  0  0  0  0  0  0  0  0  0  0
   28.4210   53.3930   -6.5960 C   0  0  0  0  0  0  0  0  0  0  0  0
   28.6400   53.3740   -5.3070 N   0  0  0  0  0  0  0  0  0  0  0  0
   27.8740   54.4480   -7.2240 N   0  0  0  0  0  0  0  0  0  0  0  0
  1  2  1  0
  2  3  2  0
  2  4  1  0
  3  5  1  0
  3  6  1  0
  4  7  2  0
  6  8  1  0
  5  9  1  0
  6 10  2  0
  7 10  1  0
  9 11  1  0
  8 12  1  0
 11 13  1  0
 11 14  2  0
 12 15  1  0
 15 16  1  0
 16 17  2  0
 16 18  1  0
 18 19  2  0
 17 20  1  0
 20 21  1  0
 19 22  1  0
 20 22  2  0
 19 23  1  0
 23 24  1  0
 22 25  1  0
 24 25  2  0
 24 26  1  0
M  END
