mac-x0319-mac-x0228
     RDKit          3D

 23 25  0  0  0  0  0  0  0  0999 V2000
   33.9310   44.3100   -6.8220 O   0  0  0  0  0  0  0  0  0  0  0  0
   33.0140   43.8210   -5.9480 C   0  0  0  0  0  0  0  0  0  0  0  0
   32.2360   42.9370   -6.2750 O   0  0  0  0  0  0  0  0  0  0  0  0
   33.1040   44.4890   -4.5870 C   0  0  0  0  0  0  0  0  0  0  0  0
   31.7960   44.9870   -3.9990 C   0  0  0  0  0  0  0  0  0  0  0  0
   31.0200   44.1460   -3.2720 C   0  0  0  0  0  0  0  0  0  0  0  0
   31.3780   46.3170   -4.1990 C   0  0  0  0  0  0  0  0  0  0  0  0
   29.8830   44.6860   -2.7930 C   0  0  0  0  0  0  0  0  0  0  0  0
   30.2080   47.0580   -3.7700 C   0  0  0  0  0  0  0  0  0  0  0  0
   29.0740   43.8740   -2.0560 O   0  0  0  0  0  0  0  0  0  0  0  0
   29.5410   46.0110   -3.0350 C   0  0  0  0  0  0  0  0  0  0  0  0
   31.0880   47.9810   -4.5870 C   0  0  0  0  0  0  0  0  0  0  0  0
   30.2640   48.8700   -5.5370 C   0  0  2  0  0  0  0  0  0  0  0  0
   30.9910   49.1080   -6.7470 O   0  0  0  0  0  0  0  0  0  0  0  0
   29.9340   50.1980   -4.8850 C   0  0  0  0  0  0  0  0  0  0  0  0
   29.8520   51.3800   -5.6440 C   0  0  0  0  0  0  0  0  0  0  0  0
   29.7010   50.2530   -3.4910 C   0  0  0  0  0  0  0  0  0  0  0  0
   29.5440   52.5680   -4.9980 C   0  0  0  0  0  0  0  0  0  0  0  0
   29.3920   51.4610   -2.8560 C   0  0  0  0  0  0  0  0  0  0  0  0
   29.3210   52.5980   -3.6330 C   0  0  0  0  0  0  0  0  0  0  0  0
   29.3990   53.9310   -5.5520 C   0  0  0  0  0  0  0  0  0  0  0  0
   29.0310   53.8470   -3.1510 O   0  0  0  0  0  0  0  0  0  0  0  0
   29.4050   54.7220   -4.2420 C   0  0  0  0  0  0  0  0  0  0  0  0
  1  2  1  0
  2  3  2  0
  2  4  1  0
  4  5  1  0
  5  6  2  0
  5  7  1  0
  6  8  1  0
  7  9  2  0
  8 10  1  0
  8 11  2  0
  9 11  1  0
  9 12  1  0
 12 13  1  0
 13 14  1  6
 13 15  1  0
 15 16  2  0
 15 17  1  0
 16 18  1  0
 17 19  2  0
 18 20  2  0
 19 20  1  0
 18 21  1  0
 20 22  1  0
 21 23  1  0
 22 23  1  0
M  END
