mac-x0344-mac-x0360
     RDKit          3D

 27 28  0  0  0  0  0  0  0  0999 V2000
   31.9460   44.0100   -4.4110 O   0  0  0  0  0  0  0  0  0  0  0  0
   32.2020   45.0080   -5.2610 C   0  0  0  0  0  0  0  0  0  0  0  0
   31.3370   45.2270   -6.1930 N   0  0  0  0  0  0  0  0  0  0  0  0
   33.5090   45.7160   -4.9510 C   0  0  0  0  0  0  0  0  0  0  0  0
   34.0640   46.3310   -5.8580 O   0  0  0  0  0  0  0  0  0  0  0  0
   34.0680   45.6710   -3.6970 N   0  0  0  0  0  0  0  0  0  0  0  0
   31.6140   46.3320   -7.1190 C   0  0  0  0  0  0  0  0  0  0  0  0
   30.6820   47.4880   -6.7530 C   0  0  0  0  0  0  0  0  0  0  0  0
   35.2470   46.2140   -3.1560 C   0  0  0  0  0  0  0  0  0  0  0  0
   31.2960   48.3990   -5.6960 C   0  0  0  0  0  0  0  0  0  0  0  0
   36.2440   45.4980   -2.4940 C   0  0  0  0  0  0  0  0  0  0  0  0
   35.4140   47.6020   -3.3090 C   0  0  0  0  0  0  0  0  0  0  0  0
   30.2670   49.1580   -4.9880 N   0  0  0  0  0  0  0  0  0  0  0  0
   37.3800   46.1490   -1.9980 C   0  0  0  0  0  0  0  0  0  0  0  0
   36.5460   48.2510   -2.8140 C   0  0  0  0  0  0  0  0  0  0  0  0
   29.6970   50.6130   -5.5620 S   0  0  0  0  0  0  0  0  0  0  0  0
   37.5330   47.5250   -2.1570 C   0  0  0  0  0  0  0  0  0  0  0  0
   28.9290   51.2150   -4.4990 O   0  0  0  0  0  0  0  0  0  0  0  0
   29.1200   50.3800   -6.8660 O   0  0  0  0  0  0  0  0  0  0  0  0
   31.1630   51.5990   -5.7620 C   0  0  0  0  0  0  0  0  0  0  0  0
   32.4220   51.0830   -5.4150 C   0  0  0  0  0  0  0  0  0  0  0  0
   31.0410   52.8950   -6.2670 C   0  0  0  0  0  0  0  0  0  0  0  0
   33.5520   51.8860   -5.5870 C   0  0  0  0  0  0  0  0  0  0  0  0
   32.1800   53.6770   -6.4270 C   0  0  0  0  0  0  0  0  0  0  0  0
   32.0380   55.2740   -7.0510 Cl  0  0  0  0  0  0  0  0  0  0  0  0
   35.1100   51.2800   -5.1750 Cl  0  0  0  0  0  0  0  0  0  0  0  0
   33.4390   53.1790   -6.0900 C   0  0  0  0  0  0  0  0  0  0  0  0
  1  2  1  0
  2  3  2  3
  2  4  1  0
  4  5  2  0
  4  6  1  0
  3  7  1  0
  7  8  1  0
  6  9  1  0
  8 10  1  0
  9 11  2  0
  9 12  1  0
 10 13  1  0
 11 14  1  0
 12 15  2  0
 16 13  1  0
 14 17  2  0
 15 17  1  0
 16 18  2  0
 16 19  2  0
 16 20  1  0
 20 21  2  0
 20 22  1  0
 21 23  1  0
 22 24  2  0
 24 25  1  0
 23 26  1  0
 23 27  2  0
 24 27  1  0
M  END
