mac-x0255-mac-x0306
     RDKit          3D

 26 29  0  0  0  0  0  0  0  0999 V2000
   32.0840   44.4720   -7.8820 O   0  0  0  0  0  0  0  0  0  0  0  0
   32.9080   44.6600   -6.8240 C   0  0  0  0  0  0  0  0  0  0  0  0
   33.7890   45.5010   -6.8910 O   0  0  0  0  0  0  0  0  0  0  0  0
   32.5650   43.7320   -5.6810 C   0  0  0  0  0  0  0  0  0  0  0  0
   31.5370   44.3190   -4.7610 C   0  0  0  0  0  0  0  0  0  0  0  0
   30.3770   43.7380   -4.2970 C   0  0  0  0  0  0  0  0  0  0  0  0
   31.7200   45.8990   -4.1450 S   0  0  0  0  0  0  0  0  0  0  0  0
   29.6200   44.5900   -3.4260 C   0  0  0  0  0  0  0  0  0  0  0  0
   30.2420   45.8320   -3.2460 C   0  0  0  0  0  0  0  0  0  0  0  0
   28.3930   44.3460   -2.7640 C   0  0  0  0  0  0  0  0  0  0  0  0
   29.6750   46.8430   -2.4220 C   0  0  0  0  0  0  0  0  0  0  0  0
   30.3080   48.2020   -2.1950 C   0  0  0  0  0  0  0  0  0  0  0  0
   27.8210   45.3240   -1.9530 C   0  0  0  0  0  0  0  0  0  0  0  0
   28.4540   46.5480   -1.7880 C   0  0  0  0  0  0  0  0  0  0  0  0
   30.7640   48.9010   -3.4820 C   0  0  0  0  0  0  0  0  0  0  0  0
   29.9820   50.1220   -3.7740 N   0  0  0  0  0  0  0  0  0  0  0  0
   29.9240   51.1580   -2.8460 C   0  0  0  0  0  0  0  0  0  0  0  0
   29.5320   50.3740   -5.0650 C   0  0  0  0  0  0  0  0  0  0  0  0
   29.3020   52.3250   -3.0800 C   0  0  0  0  0  0  0  0  0  0  0  0
   28.8900   51.4990   -5.4160 C   0  0  0  0  0  0  0  0  0  0  0  0
   28.6040   52.5970   -4.4030 C   0  0  0  0  0  0  0  0  0  0  0  0
   28.9160   53.9700   -4.9470 C   0  0  0  0  0  0  0  0  0  0  0  0
   28.6030   54.3250   -6.2390 N   0  0  0  0  0  0  0  0  0  0  0  0
   29.4950   54.9760   -4.3180 N   0  0  0  0  0  0  0  0  0  0  0  0
   29.5530   55.9990   -5.2300 C   0  0  0  0  0  0  0  0  0  0  0  0
   29.0060   55.6150   -6.4290 C   0  0  0  0  0  0  0  0  0  0  0  0
  1  2  1  0
  2  3  2  0
  2  4  1  0
  4  5  1  0
  5  6  2  0
  5  7  1  0
  6  8  1  0
  7  9  1  0
  8  9  2  0
  8 10  1  0
  9 11  1  0
 11 12  1  0
 10 13  2  0
 11 14  2  0
 13 14  1  0
 12 15  1  0
 15 16  1  0
 16 17  1  0
 16 18  1  0
 17 19  2  0
 18 20  2  0
 19 21  1  0
 20 21  1  0
 21 22  1  0
 22 23  1  0
 22 24  2  0
 24 25  1  0
 23 26  1  0
 25 26  2  0
M  END
