mac-x0565-mac-x0411
     RDKit          3D

 25 27  0  0  0  0  0  0  0  0999 V2000
   28.8300   52.9800   -5.2390 O   0  0  0  0  0  0  0  0  0  0  0  0
   29.4080   52.8390   -4.0320 C   0  0  0  0  0  0  0  0  0  0  0  0
   29.4460   53.7630   -3.2400 O   0  0  0  0  0  0  0  0  0  0  0  0
   29.9660   51.4810   -3.8090 C   0  0  0  0  0  0  0  0  0  0  0  0
   29.2470   50.3240   -4.1250 C   0  0  0  0  0  0  0  0  0  0  0  0
   31.2640   51.3780   -3.2610 C   0  0  0  0  0  0  0  0  0  0  0  0
   29.8640   49.1120   -3.8780 C   0  0  0  0  0  0  0  0  0  0  0  0
   31.8550   50.1260   -3.0270 C   0  0  0  0  0  0  0  0  0  0  0  0
   31.1420   48.9860   -3.3430 C   0  0  0  0  0  0  0  0  0  0  0  0
   29.3140   47.8810   -4.1170 O   0  0  0  0  0  0  0  0  0  0  0  0
   31.4700   47.6500   -3.2290 N   0  0  0  0  0  0  0  0  0  0  0  0
   30.1310   47.0780   -3.2260 C   0  0  0  0  0  0  0  0  0  0  0  0
   32.4950   46.9620   -3.9980 C   0  0  0  0  0  0  0  0  0  0  0  0
   33.9300   47.0030   -3.4930 C   0  0  0  0  0  0  0  0  0  0  0  0
   34.7290   45.8330   -3.3710 C   0  0  0  0  0  0  0  0  0  0  0  0
   34.5180   48.2340   -3.1330 C   0  0  0  0  0  0  0  0  0  0  0  0
   34.2810   44.5650   -3.6860 O   0  0  0  0  0  0  0  0  0  0  0  0
   35.8330   48.3160   -2.6700 C   0  0  0  0  0  0  0  0  0  0  0  0
   36.0550   45.9300   -2.9030 C   0  0  0  0  0  0  0  0  0  0  0  0
   37.0570   44.5270   -2.7390 Cl  0  0  0  0  0  0  0  0  0  0  0  0
   33.3830   44.4220   -4.7910 C   0  0  0  0  0  0  0  0  0  0  0  0
   36.6030   47.1630   -2.5550 C   0  0  0  0  0  0  0  0  0  0  0  0
   33.7660   44.7190   -6.2500 C   0  0  0  0  0  0  0  0  0  0  0  0
   32.6840   44.6590   -7.0620 O   0  0  0  0  0  0  0  0  0  0  0  0
   34.8550   44.9790   -6.7260 O   0  0  0  0  0  0  0  0  0  0  0  0
  1  2  1  0
  2  3  2  0
  2  4  1  0
  4  5  2  0
  4  6  1  0
  5  7  1  0
  6  8  2  0
  7  9  2  0
  8  9  1  0
  7 10  1  0
  9 11  1  0
 10 12  1  0
 11 12  1  0
 11 13  1  0
 13 14  1  0
 14 15  2  0
 14 16  1  0
 15 17  1  0
 16 18  2  0
 15 19  1  0
 19 20  1  0
 17 21  1  0
 18 22  1  0
 19 22  2  0
 21 23  1  0
 23 24  1  0
 23 25  2  0
M  END
