mac-x0193-mac-x0576
     RDKit          3D

 29 31  0  0  0  0  0  0  0  0999 V2000
   34.1800   45.4940   -6.6220 O   0  0  0  0  0  0  0  0  0  0  0  0
   33.1840   45.2340   -5.7540 C   0  0  0  0  0  0  0  0  0  0  0  0
   32.0580   45.8320   -5.7200 N   0  0  0  0  0  0  0  0  0  0  0  0
   33.4900   44.1320   -4.7660 C   0  0  0  0  0  0  0  0  0  0  0  0
   34.5110   44.5800   -3.8410 N   0  0  0  0  0  0  0  0  0  0  0  0
   31.0890   45.4450   -4.6900 C   0  0  0  0  0  0  0  0  0  0  0  0
   34.9390   43.6690   -2.9180 C   0  0  0  0  0  0  0  0  0  0  0  0
   29.6860   45.9600   -5.0170 C   0  0  0  0  0  0  0  0  0  0  0  0
   34.3280   42.6490   -2.6330 O   0  0  0  0  0  0  0  0  0  0  0  0
   36.1310   44.0300   -2.3560 N   0  0  0  0  0  0  0  0  0  0  0  0
   29.4880   47.3840   -4.7200 N   0  0  0  0  0  0  0  0  0  0  0  0
   36.9350   43.0240   -1.6880 C   0  0  0  0  0  0  0  0  0  0  0  0
   29.3460   48.2190   -5.6920 C   0  0  0  0  0  0  0  0  0  0  0  0
   38.0390   42.5240   -2.6280 C   0  0  0  0  0  0  0  0  0  0  0  0
   37.5270   43.5460   -0.3770 C   0  0  0  0  0  0  0  0  0  0  0  0
   29.4290   47.6720   -6.9410 N   0  0  0  0  0  0  0  0  0  0  0  0
   29.0770   49.7280   -5.6550 C   0  0  2  0  0  0  0  0  0  0  0  0
   38.9570   41.4840   -1.9820 C   0  0  0  0  0  0  0  0  0  0  0  0
   38.4360   42.5030    0.2790 C   0  0  0  0  0  0  0  0  0  0  0  0
   28.8160   48.2930   -8.0530 C   0  0  2  0  0  0  0  0  0  0  0  0
   29.5340   50.3160   -7.0030 C   0  0  1  0  0  0  0  0  0  0  0  0
   29.7820   50.4020   -4.5410 N   0  0  0  0  0  0  0  0  0  0  0  0
   29.1420   47.7710   -9.3520 N   0  0  0  0  0  0  0  0  0  0  0  0
   39.5250   41.9620   -0.6510 C   0  0  0  0  0  0  0  0  0  0  0  0
   28.9430   49.7290   -8.2070 N   0  0  0  0  0  0  0  0  0  0  0  0
   29.1790   51.7060   -7.0440 N   0  0  0  0  0  0  0  0  0  0  0  0
   29.4170   51.8400   -4.5370 C   0  0  0  0  0  0  0  0  0  0  0  0
   29.1470   52.4890   -5.9150 C   0  0  0  0  0  0  0  0  0  0  0  0
   28.9050   53.6900   -6.0200 O   0  0  0  0  0  0  0  0  0  0  0  0
  1  2  1  0
  2  3  2  3
  2  4  1  0
  4  5  1  0
  3  6  1  0
  5  7  1  0
  6  8  1  0
  7  9  2  0
  7 10  1  0
  8 11  1  0
 10 12  1  0
 11 13  2  3
 12 14  1  0
 12 15  1  0
 13 16  1  0
 13 17  1  0
 14 18  1  0
 15 19  1  0
 16 20  1  0
 17 21  1  0
 17 22  1  1
 20 23  1  6
 18 24  1  0
 19 24  1  0
 20 25  1  0
 21 25  1  6
 21 26  1  0
 22 27  1  0
 26 28  1  0
 27 28  1  0
 28 29  2  0
M  END
