mac-x0404-mac-x0365
     RDKit          3D

 26 28  0  0  0  0  0  0  0  0999 V2000
   31.7480   45.5060   -7.1010 O   0  0  0  0  0  0  0  0  0  0  0  0
   32.6170   45.4000   -6.0710 C   0  0  0  0  0  0  0  0  0  0  0  0
   33.7890   45.6980   -6.2390 O   0  0  0  0  0  0  0  0  0  0  0  0
   31.9470   44.9010   -4.8000 C   0  0  0  0  0  0  0  0  0  0  0  0
   30.6080   45.4060   -4.7020 O   0  0  0  0  0  0  0  0  0  0  0  0
   30.3440   45.8420   -3.4160 C   0  0  0  0  0  0  0  0  0  0  0  0
   29.7070   44.9780   -2.4950 C   0  0  0  0  0  0  0  0  0  0  0  0
   30.6910   47.1450   -3.0230 C   0  0  0  0  0  0  0  0  0  0  0  0
   31.2660   48.1370   -3.7980 N   0  0  0  0  0  0  0  0  0  0  0  0
   29.4470   45.4500   -1.1810 C   0  0  0  0  0  0  0  0  0  0  0  0
   30.4310   47.5690   -1.7240 C   0  0  0  0  0  0  0  0  0  0  0  0
   29.3070   43.6670   -2.8170 C   0  0  0  0  0  0  0  0  0  0  0  0
   30.3280   49.0040   -3.9450 C   0  0  0  0  0  0  0  0  0  0  0  0
   29.8220   46.7380   -0.8120 C   0  0  0  0  0  0  0  0  0  0  0  0
   28.8110   44.6250   -0.2490 C   0  0  0  0  0  0  0  0  0  0  0  0
   28.6700   42.8600   -1.8760 C   0  0  0  0  0  0  0  0  0  0  0  0
   29.1540   48.6480   -3.4020 O   0  0  0  0  0  0  0  0  0  0  0  0
   28.4230   43.3370   -0.5970 C   0  0  0  0  0  0  0  0  0  0  0  0
   30.1320   50.3190   -4.5220 C   0  0  0  0  0  0  0  0  0  0  0  0
   30.1320   51.3490   -3.5880 C   0  0  0  0  0  0  0  0  0  0  0  0
   29.9400   50.5740   -5.8820 C   0  0  0  0  0  0  0  0  0  0  0  0
   29.9390   52.6440   -4.0050 C   0  0  0  0  0  0  0  0  0  0  0  0
   29.7440   51.8970   -6.3010 C   0  0  0  0  0  0  0  0  0  0  0  0
   29.9410   53.6190   -3.0860 F   0  0  0  0  0  0  0  0  0  0  0  0
   29.7430   52.9260   -5.3530 C   0  0  0  0  0  0  0  0  0  0  0  0
   29.5530   54.2270   -5.7200 O   0  0  0  0  0  0  0  0  0  0  0  0
  1  2  1  0
  2  3  2  0
  2  4  1  0
  4  5  1  0
  5  6  1  0
  6  7  2  0
  6  8  1  0
  8  9  1  0
  7 10  1  0
  8 11  2  0
  7 12  1  0
  9 13  2  3
 10 14  2  0
 11 14  1  0
 10 15  1  0
 12 16  2  0
 13 17  1  0
 15 18  2  0
 16 18  1  0
 13 19  1  0
 19 20  2  0
 19 21  1  0
 20 22  1  0
 21 23  2  0
 22 24  1  0
 22 25  2  0
 23 25  1  0
 25 26  1  0
M  END
