mac-x0398-mac-x0404
     RDKit          3D

 26 28  0  0  0  0  0  0  0  0999 V2000
   28.6010   53.5380   -7.0260 N   0  0  0  0  0  0  0  0  0  0  0  0
   29.0270   52.7010   -5.9900 C   0  0  0  0  0  0  0  0  0  0  0  0
   29.2180   51.3320   -6.2090 C   0  0  0  0  0  0  0  0  0  0  0  0
   29.2690   53.2220   -4.7150 C   0  0  0  0  0  0  0  0  0  0  0  0
   29.6940   52.3900   -3.6780 C   0  0  0  0  0  0  0  0  0  0  0  0
   29.6440   50.4920   -5.1710 C   0  0  0  0  0  0  0  0  0  0  0  0
   29.9240   52.9170   -2.4380 O   0  0  0  0  0  0  0  0  0  0  0  0
   29.8830   51.0280   -3.9000 C   0  0  0  0  0  0  0  0  0  0  0  0
   30.3320   50.1350   -2.8130 C   0  0  0  0  0  0  0  0  0  0  0  0
   29.9700   50.2820   -1.6560 O   0  0  0  0  0  0  0  0  0  0  0  0
   31.1860   49.1740   -3.3100 O   0  0  0  0  0  0  0  0  0  0  0  0
   30.7230   47.8780   -3.0980 C   0  0  0  0  0  0  0  0  0  0  0  0
   29.7320   47.6820   -2.1390 C   0  0  0  0  0  0  0  0  0  0  0  0
   31.2390   46.8220   -3.8350 C   0  0  0  0  0  0  0  0  0  0  0  0
   30.7470   45.5410   -3.6120 C   0  0  0  0  0  0  0  0  0  0  0  0
   29.2300   46.3960   -1.9070 C   0  0  0  0  0  0  0  0  0  0  0  0
   31.2560   44.4910   -4.3490 O   0  0  0  0  0  0  0  0  0  0  0  0
   29.7360   45.3000   -2.6500 C   0  0  0  0  0  0  0  0  0  0  0  0
   28.2270   46.1850   -0.9470 C   0  0  0  0  0  0  0  0  0  0  0  0
   32.6300   44.6860   -4.6840 C   0  0  0  0  0  0  0  0  0  0  0  0
   27.7180   44.9100   -0.7150 C   0  0  0  0  0  0  0  0  0  0  0  0
   29.2060   44.0220   -2.3960 C   0  0  0  0  0  0  0  0  0  0  0  0
   32.8840   45.3370   -6.0480 C   0  0  0  0  0  0  0  0  0  0  0  0
   28.2070   43.8270   -1.4400 C   0  0  0  0  0  0  0  0  0  0  0  0
   31.7890   45.3350   -6.8530 O   0  0  0  0  0  0  0  0  0  0  0  0
   33.9420   45.8200   -6.4170 O   0  0  0  0  0  0  0  0  0  0  0  0
  1  2  1  0
  2  3  2  0
  2  4  1  0
  4  5  2  0
  3  6  1  0
  5  7  1  0
  5  8  1  0
  6  8  2  0
  8  9  1  0
  9 10  2  0
  9 11  1  0
 11 12  1  0
 12 13  2  0
 12 14  1  0
 14 15  2  0
 13 16  1  0
 15 17  1  0
 15 18  1  0
 16 18  2  0
 16 19  1  0
 17 20  1  0
 19 21  2  0
 18 22  1  0
 20 23  1  0
 21 24  1  0
 22 24  2  0
 23 25  1  0
 23 26  2  0
M  END
