mac-x0576-mac-x0328
     RDKit          3D

 16 17  0  0  0  0  0  0  0  0999 V2000
   29.1920   47.6080   -9.1660 N   0  0  0  0  0  0  0  0  0  0  0  0
   29.2750   48.4320   -8.0970 C   0  0  0  0  0  0  0  0  0  0  0  0
   29.0530   49.7000   -8.1970 N   0  0  0  0  0  0  0  0  0  0  0  0
   29.6020   47.8090   -6.9460 N   0  0  0  0  0  0  0  0  0  0  0  0
   29.6820   48.5030   -5.7560 C   0  0  0  0  0  0  0  0  0  0  0  0
   29.1550   50.4820   -7.0660 C   0  0  0  0  0  0  0  0  0  0  0  0
   30.0040   47.6930   -4.5400 C   0  0  0  0  0  0  0  0  0  0  0  0
   29.4770   49.8370   -5.7080 C   0  0  0  0  0  0  0  0  0  0  0  0
   28.9540   51.7500   -7.2510 N   0  0  0  0  0  0  0  0  0  0  0  0
   31.2820   47.9360   -4.1400 O   0  0  0  0  0  0  0  0  0  0  0  0
   29.3160   46.9080   -3.9220 O   0  0  0  0  0  0  0  0  0  0  0  0
   29.0540   52.5190   -6.1180 C   0  0  0  0  0  0  0  0  0  0  0  0
   29.5320   50.6180   -4.5700 N   0  0  0  0  0  0  0  0  0  0  0  0
   28.9300   53.7430   -6.1020 O   0  0  0  0  0  0  0  0  0  0  0  0
   29.3350   51.8860   -4.7550 C   0  0  0  0  0  0  0  0  0  0  0  0
   29.3630   52.7660   -3.7440 O   0  0  0  0  0  0  0  0  0  0  0  0
  1  2  1  0
  2  3  2  0
  2  4  1  0
  4  5  1  0
  3  6  1  0
  5  7  1  0
  5  8  2  0
  6  8  1  0
  6  9  2  0
  7 10  1  0
  7 11  2  0
  9 12  1  0
  8 13  1  0
 12 14  2  0
 12 15  1  0
 13 15  2  0
 15 16  1  0
M  END
