mac-x0131-mac-x0277
     RDKit          3D

 29 32  0  0  0  0  0  0  0  0999 V2000
   30.5060   48.2170   -2.8340 C   0  0  0  0  0  0  0  0  0  0  0  0
   29.9990   48.7990   -4.1380 C   0  0  0  0  0  0  0  0  0  0  0  0
   29.2010   49.9280   -4.3460 C   0  0  0  0  0  0  0  0  0  0  0  0
   30.2600   46.7300   -2.6470 C   0  0  0  0  0  0  0  0  0  0  0  0
   30.2700   48.2640   -5.3950 N   0  0  0  0  0  0  0  0  0  0  0  0
   31.2460   45.8340   -3.1100 C   0  0  0  0  0  0  0  0  0  0  0  0
   29.1130   46.1860   -2.0460 C   0  0  0  0  0  0  0  0  0  0  0  0
   28.6470   50.8480   -3.3120 C   0  0  0  0  0  0  0  0  0  0  0  0
   31.0640   47.0840   -5.7210 C   0  0  0  0  0  0  0  0  0  0  0  0
   27.8250   47.1550   -1.4310 Cl  0  0  0  0  0  0  0  0  0  0  0  0
   28.9890   50.0610   -5.7590 C   0  0  0  0  0  0  0  0  0  0  0  0
   29.6640   49.0190   -6.3700 C   0  0  0  0  0  0  0  0  0  0  0  0
   31.1100   44.4440   -2.9890 C   0  0  0  0  0  0  0  0  0  0  0  0
   28.9700   44.7980   -1.9190 C   0  0  0  0  0  0  0  0  0  0  0  0
   32.1990   43.5300   -3.5050 C   0  0  0  0  0  0  0  0  0  0  0  0
   28.3070   50.9450   -6.6160 C   0  0  0  0  0  0  0  0  0  0  0  0
   29.7240   48.7720   -7.6930 N   0  0  0  0  0  0  0  0  0  0  0  0
   32.4610   47.2420   -5.2410 C   0  0  0  0  0  0  0  0  0  0  0  0
   29.9580   43.9320   -2.3880 C   0  0  0  0  0  0  0  0  0  0  0  0
   27.5760   52.0470   -6.1900 N   0  0  0  0  0  0  0  0  0  0  0  0
   31.9190   42.9180   -4.8690 C   0  0  0  0  0  0  0  0  0  0  0  0
   28.3420   50.7320   -7.9460 N   0  0  0  0  0  0  0  0  0  0  0  0
   29.0360   49.6760   -8.4020 C   0  0  0  0  0  0  0  0  0  0  0  0
   33.5720   46.4260   -5.2960 C   0  0  0  0  0  0  0  0  0  0  0  0
   32.7780   48.4100   -4.6060 O   0  0  0  0  0  0  0  0  0  0  0  0
   33.0610   42.6210   -5.5420 O   0  0  0  0  0  0  0  0  0  0  0  0
   30.8190   42.6940   -5.3520 O   0  0  0  0  0  0  0  0  0  0  0  0
   34.0870   48.3300   -4.2580 C   0  0  0  0  0  0  0  0  0  0  0  0
   34.6210   47.1290   -4.6600 C   0  0  0  0  0  0  0  0  0  0  0  0
  1  2  1  0
  2  3  2  0
  1  4  1  0
  2  5  1  0
  4  6  2  0
  4  7  1  0
  3  8  1  0
  5  9  1  0
  7 10  1  0
  3 11  1  0
  5 12  1  0
 11 12  2  0
  6 13  1  0
  7 14  2  0
 13 15  1  0
 11 16  1  0
 12 17  1  0
  9 18  1  0
 13 19  2  0
 14 19  1  0
 16 20  1  0
 15 21  1  0
 16 22  2  0
 17 23  2  0
 22 23  1  0
 18 24  2  0
 18 25  1  0
 21 26  1  0
 21 27  2  0
 25 28  1  0
 24 29  1  0
 28 29  2  0
M  END
