mac-x0347-mac-x0163
     RDKit          3D

 32 36  0  0  0  0  0  0  0  0999 V2000
   32.0430   46.0410   -5.8920 O   0  0  0  0  0  0  0  0  0  0  0  0
   31.4720   46.0350   -4.5860 C   0  0  0  0  0  0  0  0  0  0  0  0
   32.3730   45.2350   -3.8310 O   0  0  0  0  0  0  0  0  0  0  0  0
   31.5260   47.4280   -4.0080 C   0  0  0  0  0  0  0  0  0  0  0  0
   30.0810   45.3270   -4.5930 C   0  0  2  0  0  0  0  0  0  0  0  0
   31.0260   48.5470   -4.6950 C   0  0  0  0  0  0  0  0  0  0  0  0
   32.0770   47.6760   -2.7510 C   0  0  0  0  0  0  0  0  0  0  0  0
   29.5750   44.7770   -5.9340 C   0  0  0  0  0  0  0  0  0  0  0  0
   28.9530   46.0360   -3.8270 C   0  0  0  0  0  0  0  0  0  0  0  0
   31.0810   49.8340   -4.1410 C   0  0  0  0  0  0  0  0  0  0  0  0
   32.1560   48.8970   -2.1700 N   0  0  0  0  0  0  0  0  0  0  0  0
   28.0520   44.9120   -6.0970 C   0  0  0  0  0  0  0  0  0  0  0  0
   28.0860   46.9680   -4.6760 C   0  0  0  0  0  0  0  0  0  0  0  0
   31.6580   49.9370   -2.8780 C   0  0  0  0  0  0  0  0  0  0  0  0
   30.5590   51.0070   -4.8530 C   0  0  0  0  0  0  0  0  0  0  0  0
   27.2860   43.9080   -5.1660 C   0  0  0  0  0  0  0  0  0  0  0  0
   27.3200   44.1890   -7.2770 C   0  0  0  0  0  0  0  0  0  0  0  0
   27.6760   46.3200   -5.9480 N   0  0  0  0  0  0  0  0  0  0  0  0
   29.1950   51.3370   -4.7970 C   0  0  0  0  0  0  0  0  0  0  0  0
   31.4080   51.8310   -5.6100 C   0  0  0  0  0  0  0  0  0  0  0  0
   27.7530   47.2580   -7.0240 C   0  0  0  0  0  0  0  0  0  0  0  0
   26.2220   43.7860   -6.2760 C   0  0  0  0  0  0  0  0  0  0  0  0
   28.6970   52.4540   -5.4730 C   0  0  0  0  0  0  0  0  0  0  0  0
   30.9100   52.9480   -6.2860 C   0  0  0  0  0  0  0  0  0  0  0  0
   27.3020   48.5750   -6.8670 C   0  0  0  0  0  0  0  0  0  0  0  0
   28.2750   46.8310   -8.1960 N   0  0  0  0  0  0  0  0  0  0  0  0
   26.6220   49.1720   -5.3890 Cl  0  0  0  0  0  0  0  0  0  0  0  0
   29.5550   53.2580   -6.2170 C   0  0  0  0  0  0  0  0  0  0  0  0
   27.4230   49.4080   -7.9760 C   0  0  0  0  0  0  0  0  0  0  0  0
   28.3400   47.7200   -9.1930 C   0  0  0  0  0  0  0  0  0  0  0  0
   27.0140   50.7450   -7.9600 N   0  0  0  0  0  0  0  0  0  0  0  0
   27.9390   48.9960   -9.1460 N   0  0  0  0  0  0  0  0  0  0  0  0
  2  1  1  0
  2  3  1  0
  2  4  1  0
  5  2  1  6
  4  6  2  0
  4  7  1  0
  5  8  1  0
  5  9  1  0
  6 10  1  0
  7 11  2  0
  8 12  1  0
  9 13  1  0
 10 14  2  0
 11 14  1  0
 10 15  1  0
 12 16  1  0
 12 17  1  0
 12 18  1  0
 13 18  1  0
 15 19  2  0
 15 20  1  0
 18 21  1  0
 16 22  1  0
 17 22  1  0
 19 23  1  0
 20 24  2  0
 21 25  2  0
 21 26  1  0
 25 27  1  0
 23 28  2  0
 24 28  1  0
 25 29  1  0
 26 30  2  0
 29 31  1  0
 29 32  2  0
 30 32  1  0
M  END
