mac-x0546-mac-x0319
     RDKit          3D

 16 17  0  0  0  0  0  0  0  0999 V2000
   31.0650   49.3050   -0.5750 C   0  0  0  0  0  0  0  0  0  0  0  0
   29.8450   48.5760   -0.5910 O   0  0  0  0  0  0  0  0  0  0  0  0
   29.8180   47.4330   -1.3420 C   0  0  0  0  0  0  0  0  0  0  0  0
   30.8230   47.0080   -2.2220 C   0  0  0  0  0  0  0  0  0  0  0  0
   28.6650   46.6660   -1.1740 C   0  0  0  0  0  0  0  0  0  0  0  0
   30.6600   45.8000   -2.9370 C   0  0  0  0  0  0  0  0  0  0  0  0
   28.4780   45.4720   -1.8640 C   0  0  0  0  0  0  0  0  0  0  0  0
   29.4910   45.0680   -2.7370 C   0  0  0  0  0  0  0  0  0  0  0  0
   31.4640   45.0830   -3.8950 C   0  0  0  0  0  0  0  0  0  0  0  0
   32.8060   45.4810   -4.4250 C   0  0  0  0  0  0  0  0  0  0  0  0
   29.5810   43.9700   -3.5320 N   0  0  0  0  0  0  0  0  0  0  0  0
   30.7440   43.9460   -4.2340 C   0  0  0  0  0  0  0  0  0  0  0  0
   32.7780   46.0330   -5.8320 C   0  0  0  0  0  0  0  0  0  0  0  0
   28.5980   43.0060   -3.6080 O   0  0  0  0  0  0  0  0  0  0  0  0
   31.8690   46.0160   -6.6480 O   0  0  0  0  0  0  0  0  0  0  0  0
   33.9510   46.6120   -6.1660 O   0  0  0  0  0  0  0  0  0  0  0  0
  1  2  1  0
  2  3  1  0
  3  4  2  0
  3  5  1  0
  4  6  1  0
  5  7  2  0
  6  8  2  0
  7  8  1  0
  6  9  1  0
  9 10  1  0
  8 11  1  0
  9 12  2  0
 11 12  1  0
 10 13  1  0
 11 14  1  0
 13 15  2  0
 13 16  1  0
M  END
