mac-x0567-mac-x0302
     RDKit          3D

 17 18  0  0  0  0  0  0  0  0999 V2000
   29.2580   47.2040   -7.6330 N   0  0  0  0  0  0  0  0  0  0  0  0
   29.1570   48.5320   -7.3680 C   0  0  0  0  0  0  0  0  0  0  0  0
   28.8750   49.4190   -8.3780 N   0  0  0  0  0  0  0  0  0  0  0  0
   29.2750   49.3200   -6.2340 C   0  0  0  0  0  0  0  0  0  0  0  0
   28.8050   50.7020   -7.9970 N   0  0  0  0  0  0  0  0  0  0  0  0
   29.0520   50.6830   -6.6790 C   0  0  0  0  0  0  0  0  0  0  0  0
   29.5530   48.9370   -4.8960 C   0  0  0  0  0  0  0  0  0  0  0  0
   29.1030   51.7700   -5.7940 C   0  0  0  0  0  0  0  0  0  0  0  0
   29.6000   50.0740   -4.0380 C   0  0  0  0  0  0  0  0  0  0  0  0
   29.7560   47.6480   -4.3850 N   0  0  0  0  0  0  0  0  0  0  0  0
   29.3870   51.4340   -4.4630 C   0  0  0  0  0  0  0  0  0  0  0  0
   31.1240   47.1080   -4.4620 C   0  0  0  0  0  0  0  0  0  0  0  0
   29.8690   49.8380   -2.7000 O   0  0  0  0  0  0  0  0  0  0  0  0
   29.4550   52.4820   -3.5540 O   0  0  0  0  0  0  0  0  0  0  0  0
   31.1210   45.8640   -5.3310 C   0  0  0  0  0  0  0  0  0  0  0  0
   31.0330   44.7170   -4.6210 O   0  0  0  0  0  0  0  0  0  0  0  0
   31.1880   45.8260   -6.5460 O   0  0  0  0  0  0  0  0  0  0  0  0
  1  2  1  0
  2  3  1  0
  2  4  2  0
  3  5  1  0
  4  6  1  0
  5  6  2  0
  4  7  1  0
  6  8  1  0
  7  9  2  0
  7 10  1  0
  8 11  2  0
  9 11  1  0
 10 12  1  0
  9 13  1  0
 11 14  1  0
 12 15  1  0
 15 16  1  0
 15 17  2  0
M  END
