mac-x0357-mac-x0159
     RDKit          3D

 27 30  0  0  0  0  0  0  0  0999 V2000
   31.8870   43.5050   -4.8630 C   0  0  0  0  0  0  0  0  0  0  0  0
   32.9200   44.4650   -4.3420 C   0  0  0  0  0  0  0  0  0  0  0  0
   34.1070   43.9990   -3.7350 C   0  0  0  0  0  0  0  0  0  0  0  0
   32.7710   45.8650   -4.4200 C   0  0  0  0  0  0  0  0  0  0  0  0
   34.3830   42.6710   -3.5830 O   0  0  0  0  0  0  0  0  0  0  0  0
   31.6970   46.7100   -4.9480 C   0  0  0  0  0  0  0  0  0  0  0  0
   33.7790   46.7110   -3.9170 C   0  0  0  0  0  0  0  0  0  0  0  0
   35.0910   44.8570   -3.2410 C   0  0  0  0  0  0  0  0  0  0  0  0
   30.3960   46.8660   -4.5420 C   0  0  0  0  0  0  0  0  0  0  0  0
   32.1880   47.4720   -5.9970 O   0  0  0  0  0  0  0  0  0  0  0  0
   34.9270   46.2230   -3.3350 C   0  0  0  0  0  0  0  0  0  0  0  0
   29.5520   47.8580   -5.0720 N   0  0  0  0  0  0  0  0  0  0  0  0
   29.7450   46.0630   -3.5050 C   0  0  0  0  0  0  0  0  0  0  0  0
   29.1860   49.0020   -4.2380 C   0  0  0  0  0  0  0  0  0  0  0  0
   28.8390   47.7950   -6.3320 C   0  0  1  0  0  0  0  0  0  0  0  0
   29.4040   44.7380   -3.7010 C   0  0  0  0  0  0  0  0  0  0  0  0
   29.3960   46.5860   -2.2610 N   0  0  0  0  0  0  0  0  0  0  0  0
   29.3660   50.3470   -4.7560 N   0  0  0  0  0  0  0  0  0  0  0  0
   28.3910   49.1950   -6.8240 C   0  0  1  0  0  0  0  0  0  0  0  0
   29.5000   47.2300   -7.5100 N   0  0  0  0  0  0  0  0  0  0  0  0
   28.7930   45.6480   -1.5480 C   0  0  0  0  0  0  0  0  0  0  0  0
   28.6220   44.1180   -2.3130 S   0  0  0  0  0  0  0  0  0  0  0  0
   28.2680   45.8360   -0.1680 C   0  0  0  0  0  0  0  0  0  0  0  0
   29.1380   50.3930   -6.1780 C   0  0  1  0  0  0  0  0  0  0  0  0
   28.4740   49.1440   -8.3050 N   0  0  0  0  0  0  0  0  0  0  0  0
   28.7800   47.7690   -8.6270 C   0  0  0  0  0  0  0  0  0  0  0  0
   28.4340   51.6530   -6.3350 N   0  0  0  0  0  0  0  0  0  0  0  0
  1  2  1  0
  2  3  2  0
  2  4  1  0
  3  5  1  0
  4  6  1  0
  4  7  2  0
  3  8  1  0
  6  9  2  3
  6 10  1  0
  7 11  1  0
  8 11  2  0
  9 12  1  0
  9 13  1  0
 12 14  1  0
 12 15  1  0
 13 16  2  0
 13 17  1  0
 14 18  1  0
 15 19  1  0
 15 20  1  6
 17 21  2  0
 16 22  1  0
 21 22  1  0
 21 23  1  0
 18 24  1  0
 19 24  1  0
 19 25  1  6
 20 26  1  0
 25 26  1  0
 24 27  1  1
M  END
