mac-x0306-mac-x0231
     RDKit          3D

 27 30  0  0  0  0  0  0  0  0999 V2000
   34.3590   45.2290   -6.5240 O   0  0  0  0  0  0  0  0  0  0  0  0
   33.0970   44.7920   -6.3330 C   0  0  0  0  0  0  0  0  0  0  0  0
   32.2120   45.1200   -7.1080 O   0  0  0  0  0  0  0  0  0  0  0  0
   32.9720   43.9090   -5.1220 C   0  0  0  0  0  0  0  0  0  0  0  0
   31.7110   44.1850   -4.3290 C   0  0  0  0  0  0  0  0  0  0  0  0
   31.5010   45.5370   -3.7730 C   0  0  0  0  0  0  0  0  0  0  0  0
   30.8480   43.2200   -4.1940 N   0  0  0  0  0  0  0  0  0  0  0  0
   30.2870   45.7830   -3.1410 C   0  0  0  0  0  0  0  0  0  0  0  0
   29.7000   43.4760   -3.5050 N   0  0  0  0  0  0  0  0  0  0  0  0
   32.4580   46.5510   -3.8710 C   0  0  0  0  0  0  0  0  0  0  0  0
   29.2970   44.7020   -3.0350 C   0  0  0  0  0  0  0  0  0  0  0  0
   30.0110   47.0470   -2.6200 C   0  0  0  0  0  0  0  0  0  0  0  0
   32.1840   47.8100   -3.3520 C   0  0  0  0  0  0  0  0  0  0  0  0
   28.1840   44.8950   -2.5530 O   0  0  0  0  0  0  0  0  0  0  0  0
   30.9610   48.0650   -2.7350 C   0  0  0  0  0  0  0  0  0  0  0  0
   30.6570   49.4290   -2.2090 C   0  0  0  0  0  0  0  0  0  0  0  0
   29.6150   50.0270   -3.0730 N   0  0  0  0  0  0  0  0  0  0  0  0
   28.9210   51.0930   -2.5430 C   0  0  0  0  0  0  0  0  0  0  0  0
   29.7180   50.0500   -4.4760 C   0  0  0  0  0  0  0  0  0  0  0  0
   28.9930   52.3010   -3.0920 C   0  0  0  0  0  0  0  0  0  0  0  0
   29.8270   51.2160   -5.1430 C   0  0  0  0  0  0  0  0  0  0  0  0
   29.8480   52.4980   -4.3230 C   0  0  0  0  0  0  0  0  0  0  0  0
   29.5070   53.7820   -5.0310 C   0  0  0  0  0  0  0  0  0  0  0  0
   28.9540   53.8430   -6.2890 N   0  0  0  0  0  0  0  0  0  0  0  0
   29.6900   54.9930   -4.5420 N   0  0  0  0  0  0  0  0  0  0  0  0
   29.2480   55.8540   -5.5060 C   0  0  0  0  0  0  0  0  0  0  0  0
   28.7870   55.1660   -6.5980 C   0  0  0  0  0  0  0  0  0  0  0  0
  1  2  1  0
  2  3  2  0
  2  4  1  0
  4  5  1  0
  5  6  1  0
  5  7  2  0
  6  8  2  0
  7  9  1  0
  6 10  1  0
  8 11  1  0
  9 11  1  0
  8 12  1  0
 10 13  2  0
 11 14  2  0
 12 15  2  0
 13 15  1  0
 15 16  1  0
 16 17  1  0
 17 18  1  0
 17 19  1  0
 18 20  2  0
 19 21  2  0
 20 22  1  0
 21 22  1  0
 22 23  1  0
 23 24  1  0
 23 25  2  0
 25 26  1  0
 24 27  1  0
 26 27  2  0
M  END
