mac-x0123-mac-x1493
     RDKit          3D

 16 18  0  0  0  0  0  0  0  0999 V2000
   28.3890   51.9230   -7.4180 N   0  0  0  0  0  0  0  0  0  0  0  0
   28.8960   52.4090   -6.2230 C   0  0  0  0  0  0  0  0  0  0  0  0
   28.9770   53.7020   -5.9000 C   0  0  0  0  0  0  0  0  0  0  0  0
   29.3660   51.4840   -5.2640 N   0  0  0  0  0  0  0  0  0  0  0  0
   29.8930   51.8800   -4.0280 C   0  0  0  0  0  0  0  0  0  0  0  0
   29.5510   54.0380   -4.5640 C   0  0  0  0  0  0  0  0  0  0  0  0
   28.6150   54.9670   -6.5860 C   0  0  0  0  0  0  0  0  0  0  0  0
   29.3860   50.1390   -5.3720 N   0  0  0  0  0  0  0  0  0  0  0  0
   29.9870   53.2010   -3.6680 N   0  0  0  0  0  0  0  0  0  0  0  0
   29.5610   55.5260   -4.3890 C   0  0  0  0  0  0  0  0  0  0  0  0
   29.4510   56.0070   -5.8410 C   0  0  0  0  0  0  0  0  0  0  0  0
   30.2470   50.8020   -3.3510 N   0  0  0  0  0  0  0  0  0  0  0  0
   29.9190   49.7610   -4.2110 C   0  0  0  0  0  0  0  0  0  0  0  0
   30.1540   48.3600   -3.8520 C   0  0  0  0  0  0  0  0  0  0  0  0
   29.9540   47.5340   -4.9230 O   0  0  0  0  0  0  0  0  0  0  0  0
   30.4840   47.9410   -2.7570 O   0  0  0  0  0  0  0  0  0  0  0  0
  1  2  1  0
  2  3  2  0
  2  4  1  0
  4  5  1  0
  3  6  1  0
  3  7  1  0
  4  8  1  0
  5  9  1  0
  6  9  2  0
  6 10  1  0
  7 11  1  0
 10 11  1  0
  5 12  2  0
  8 13  2  0
 12 13  1  0
 13 14  1  0
 14 15  1  0
 14 16  2  0
M  END
