mac-x0159-mac-x0182
     RDKit          3D

 30 34  0  0  0  0  0  0  0  0999 V2000
   28.4820   51.6730   -6.2600 N   0  0  0  0  0  0  0  0  0  0  0  0
   28.6280   50.3460   -5.6910 C   0  0  1  0  0  0  0  0  0  0  0  0
   29.1850   49.3170   -6.6770 C   0  0  1  0  0  0  0  0  0  0  0  0
   29.4830   50.4960   -4.5340 N   0  0  0  0  0  0  0  0  0  0  0  0
   29.8150   49.2320   -3.8620 C   0  0  0  0  0  0  0  0  0  0  0  0
   29.2040   48.0220   -5.8860 C   0  0  2  0  0  0  0  0  0  0  0  0
   28.4420   48.9300   -7.8750 N   0  0  0  0  0  0  0  0  0  0  0  0
   30.1300   48.1410   -4.7850 N   0  0  0  0  0  0  0  0  0  0  0  0
   29.6370   47.0990   -6.9270 N   0  0  0  0  0  0  0  0  0  0  0  0
   28.8920   47.5550   -8.1070 C   0  0  0  0  0  0  0  0  0  0  0  0
   30.6670   46.8950   -4.1770 C   0  0  1  0  0  0  0  0  0  0  0  0
   31.9750   47.1230   -3.3340 C   0  0  0  0  0  0  0  0  0  0  0  0
   29.6510   46.0630   -3.3900 C   0  0  0  0  0  0  0  0  0  0  0  0
   33.1660   47.6200   -4.0780 N   0  0  0  0  0  0  0  0  0  0  0  0
   29.0250   44.9100   -3.8340 C   0  0  0  0  0  0  0  0  0  0  0  0
   29.2740   46.4370   -2.0930 N   0  0  0  0  0  0  0  0  0  0  0  0
   28.4000   45.5830   -1.6010 C   0  0  0  0  0  0  0  0  0  0  0  0
   27.9710   44.2880   -2.6400 S   0  0  0  0  0  0  0  0  0  0  0  0
   34.2000   46.6280   -4.6030 S   0  0  2  0  0  0  0  0  0  0  0  0
   27.7940   45.6740   -0.2420 C   0  0  0  0  0  0  0  0  0  0  0  0
   34.6410   46.4680   -5.9670 O   0  0  0  0  0  0  0  0  0  0  0  0
   33.6510   45.1080   -4.1270 N   0  0  0  0  0  0  0  0  0  0  0  0
   35.5950   46.6260   -3.5770 C   0  0  0  0  0  0  0  0  0  0  0  0
   34.5290   44.5090   -3.2570 C   0  0  0  0  0  0  0  0  0  0  0  0
   35.6540   45.4110   -2.9050 C   0  0  0  0  0  0  0  0  0  0  0  0
   36.5330   47.6260   -3.4090 C   0  0  0  0  0  0  0  0  0  0  0  0
   34.4230   43.3760   -2.8100 O   0  0  0  0  0  0  0  0  0  0  0  0
   37.5770   47.3750   -2.5180 C   0  0  0  0  0  0  0  0  0  0  0  0
   36.6860   45.1540   -2.0200 C   0  0  0  0  0  0  0  0  0  0  0  0
   37.6560   46.1470   -1.8280 C   0  0  0  0  0  0  0  0  0  0  0  0
  2  1  1  6
  2  3  1  0
  2  4  1  0
  4  5  1  0
  3  6  1  0
  3  7  1  6
  5  8  1  0
  6  8  1  0
  6  9  1  6
  7 10  1  0
  9 10  1  0
  8 11  1  0
 11 12  1  1
 11 13  1  0
 12 14  1  0
 13 15  2  0
 13 16  1  0
 16 17  2  0
 15 18  1  0
 17 18  1  0
 14 19  2  0
 17 20  1  0
 19 21  2  0
 19 22  1  1
 19 23  1  0
 22 24  1  0
 23 25  2  0
 24 25  1  0
 23 26  1  0
 24 27  2  0
 26 28  2  0
 25 29  1  0
 28 30  1  0
 29 30  2  0
M  END
