mac-x0190-mac-x0412
     RDKit          3D

 11 12  0  0  0  0  0  0  0  0999 V2000
   28.6210   56.8070   -5.4620 O   0  0  0  0  0  0  0  0  0  0  0  0
   29.7970   56.2060   -4.9370 C   0  0  0  0  0  0  0  0  0  0  0  0
   29.5790   54.7380   -4.9490 C   0  0  0  0  0  0  0  0  0  0  0  0
   29.7810   53.9740   -3.8280 N   0  0  0  0  0  0  0  0  0  0  0  0
   29.1890   53.9930   -5.9640 N   0  0  0  0  0  0  0  0  0  0  0  0
   29.5050   52.6710   -4.1410 C   0  0  0  0  0  0  0  0  0  0  0  0
   29.1380   52.7080   -5.4800 C   0  0  0  0  0  0  0  0  0  0  0  0
   29.5460   51.4970   -3.3880 C   0  0  0  0  0  0  0  0  0  0  0  0
   28.7870   51.5130   -6.1270 C   0  0  0  0  0  0  0  0  0  0  0  0
   29.1910   50.3150   -4.0480 C   0  0  0  0  0  0  0  0  0  0  0  0
   28.8180   50.3190   -5.3950 C   0  0  0  0  0  0  0  0  0  0  0  0
  1  2  1  0
  2  3  1  0
  3  4  1  0
  3  5  2  0
  4  6  1  0
  5  7  1  0
  6  7  2  0
  6  8  1  0
  7  9  1  0
  8 10  2  0
  9 11  2  0
 10 11  1  0
M  END
