mac-x0354-mac-x0587
     RDKit          3D

 27 29  0  0  0  0  0  0  0  0999 V2000
   35.8110   43.2730   -1.7580 C   0  0  0  0  0  0  0  0  0  0  0  0
   34.9750   43.5580   -2.9040 N   0  0  0  0  0  0  0  0  0  0  0  0
   34.0690   42.6440   -3.2910 N   0  0  0  0  0  0  0  0  0  0  0  0
   34.9860   44.6940   -3.6810 C   0  0  0  0  0  0  0  0  0  0  0  0
   33.4830   43.2070   -4.3460 C   0  0  0  0  0  0  0  0  0  0  0  0
   34.0030   44.4920   -4.6500 C   0  0  0  0  0  0  0  0  0  0  0  0
   35.8890   45.8160   -3.4380 C   0  0  0  0  0  0  0  0  0  0  0  0
   33.5390   45.3640   -5.7790 C   0  0  0  0  0  0  0  0  0  0  0  0
   37.2730   45.6360   -3.5320 C   0  0  0  0  0  0  0  0  0  0  0  0
   35.3850   47.0810   -3.1110 C   0  0  0  0  0  0  0  0  0  0  0  0
   32.5380   44.6940   -6.5400 O   0  0  0  0  0  0  0  0  0  0  0  0
   34.5620   45.6490   -6.7210 O   0  0  0  0  0  0  0  0  0  0  0  0
   32.9010   46.6890   -5.2840 C   0  0  0  0  0  0  0  0  0  0  0  0
   38.1420   46.7030   -3.3020 C   0  0  0  0  0  0  0  0  0  0  0  0
   36.2550   48.1470   -2.8820 C   0  0  0  0  0  0  0  0  0  0  0  0
   32.1980   46.5930   -3.5810 S   0  0  0  0  0  0  0  0  0  0  0  0
   37.6310   47.9590   -2.9770 C   0  0  0  0  0  0  0  0  0  0  0  0
   30.4120   46.7550   -3.9660 C   0  0  1  0  0  0  0  0  0  0  0  0
   29.6130   45.5960   -3.3850 C   0  0  0  0  0  0  0  0  0  0  0  0
   29.8870   48.1540   -3.6000 C   0  0  0  0  0  0  0  0  0  0  0  0
   29.6880   48.3790   -2.3990 O   0  0  0  0  0  0  0  0  0  0  0  0
   29.6580   49.0970   -4.5780 N   0  0  0  0  0  0  0  0  0  0  0  0
   29.8360   50.5390   -4.4960 C   0  0  0  0  0  0  0  0  0  0  0  0
   29.0450   48.7980   -5.8170 C   0  0  0  0  0  0  0  0  0  0  0  0
   28.6740   47.7300   -6.2720 O   0  0  0  0  0  0  0  0  0  0  0  0
   28.9940   51.0960   -5.6270 C   0  0  0  0  0  0  0  0  0  0  0  0
   28.8980   49.9890   -6.5220 N   0  0  0  0  0  0  0  0  0  0  0  0
  1  2  1  0
  2  3  1  0
  2  4  1  0
  3  5  2  0
  4  6  2  0
  5  6  1  0
  4  7  1  0
  6  8  1  0
  7  9  2  0
  7 10  1  0
  8 11  1  0
  8 12  1  0
  8 13  1  0
  9 14  1  0
 10 15  2  0
 13 16  1  0
 14 17  2  0
 15 17  1  0
 16 18  1  0
 18 19  1  1
 18 20  1  0
 20 21  2  0
 20 22  1  0
 22 23  1  0
 22 24  1  0
 24 25  2  0
 23 26  1  0
 24 27  1  0
 26 27  1  0
M  END
