mac-x0522-mac-x0226
     RDKit          3D

 29 32  0  0  0  0  0  0  0  0999 V2000
   39.2580   42.0670   -0.1860 O   0  0  0  0  0  0  0  0  0  0  0  0
   38.5420   41.0020   -0.7680 C   0  0  2  0  0  0  0  0  0  0  0  0
   39.1630   40.6480   -2.0540 N   0  0  0  0  0  0  0  0  0  0  0  0
   37.0660   41.4690   -0.9030 C   0  0  0  0  0  0  0  0  0  0  0  0
   38.4200   39.8290    0.2110 C   0  0  0  0  0  0  0  0  0  0  0  0
   39.5980   41.5760   -2.9580 C   0  0  0  0  0  0  0  0  0  0  0  0
   39.1570   38.6410    0.0640 C   0  0  0  0  0  0  0  0  0  0  0  0
   37.5400   39.9260    1.3050 C   0  0  0  0  0  0  0  0  0  0  0  0
   36.8130   42.9390   -1.1400 C   0  0  0  0  0  0  0  0  0  0  0  0
   40.4210   41.3340   -3.9660 N   0  0  0  0  0  0  0  0  0  0  0  0
   39.0830   43.2180   -2.8520 S   0  0  0  0  0  0  0  0  0  0  0  0
   39.0120   37.5930    0.9790 C   0  0  0  0  0  0  0  0  0  0  0  0
   37.3950   38.8830    2.2160 C   0  0  0  0  0  0  0  0  0  0  0  0
   37.4800   43.9820   -0.4760 C   0  0  0  0  0  0  0  0  0  0  0  0
   35.8560   43.2380   -2.0890 C   0  0  0  0  0  0  0  0  0  0  0  0
   40.0130   43.6160   -4.2350 C   0  0  0  0  0  0  0  0  0  0  0  0
   40.6560   42.4880   -4.6900 C   0  0  0  0  0  0  0  0  0  0  0  0
   38.1320   37.7150    2.0530 C   0  0  0  0  0  0  0  0  0  0  0  0
   37.1730   45.3130   -0.7830 C   0  0  0  0  0  0  0  0  0  0  0  0
   35.5480   44.5450   -2.4030 C   0  0  0  0  0  0  0  0  0  0  0  0
   34.5700   44.7650   -3.3870 N   0  0  0  0  0  0  0  0  0  0  0  0
   36.2050   45.5970   -1.7510 C   0  0  0  0  0  0  0  0  0  0  0  0
   33.4460   44.0040   -3.4230 N   0  0  0  0  0  0  0  0  0  0  0  0
   34.5870   45.6910   -4.3940 C   0  0  0  0  0  0  0  0  0  0  0  0
   33.4290   45.5240   -5.1150 C   0  0  0  0  0  0  0  0  0  0  0  0
   32.7660   44.4680   -4.4650 C   0  0  0  0  0  0  0  0  0  0  0  0
   33.0080   46.2630   -6.2700 C   0  0  0  0  0  0  0  0  0  0  0  0
   31.7610   45.9770   -6.6980 O   0  0  0  0  0  0  0  0  0  0  0  0
   33.6870   47.0940   -6.8520 O   0  0  0  0  0  0  0  0  0  0  0  0
  2  1  1  1
  2  3  1  0
  2  4  1  0
  2  5  1  0
  3  6  1  0
  5  7  2  0
  5  8  1  0
  4  9  1  0
  6 10  2  0
  6 11  1  0
  7 12  1  0
  8 13  2  0
  9 14  2  0
  9 15  1  0
 11 16  1  0
 10 17  1  0
 16 17  2  0
 12 18  2  0
 13 18  1  0
 14 19  1  0
 15 20  2  0
 20 21  1  0
 19 22  2  0
 20 22  1  0
 21 23  1  0
 21 24  1  0
 24 25  2  0
 23 26  2  0
 25 26  1  0
 25 27  1  0
 27 28  1  0
 27 29  2  0
M  END
