mac-x0163-mac-x0346
     RDKit          3D

 26 29  0  0  0  0  0  0  0  0999 V2000
   28.7600   50.7350   -8.1570 N   0  0  0  0  0  0  0  0  0  0  0  0
   29.3390   49.5840   -7.5830 C   0  0  0  0  0  0  0  0  0  0  0  0
   29.7610   48.6640   -8.4280 N   0  0  0  0  0  0  0  0  0  0  0  0
   29.4100   49.5020   -6.2020 C   0  0  0  0  0  0  0  0  0  0  0  0
   29.9870   48.3330   -5.6910 C   0  0  0  0  0  0  0  0  0  0  0  0
   30.2900   47.5930   -7.8590 C   0  0  0  0  0  0  0  0  0  0  0  0
   28.7790   50.7070   -5.6750 C   0  0  0  0  0  0  0  0  0  0  0  0
   30.4300   47.3760   -6.5410 N   0  0  0  0  0  0  0  0  0  0  0  0
   30.1040   48.1010   -4.2890 N   0  0  0  0  0  0  0  0  0  0  0  0
   28.9670   51.9420   -4.9390 C   0  0  0  0  0  0  0  0  0  0  0  0
   27.5190   50.4350   -6.1720 C   0  0  0  0  0  0  0  0  0  0  0  0
   30.1220   52.5930   -4.2600 C   0  0  0  0  0  0  0  0  0  0  0  0
   29.1830   46.9960   -3.9440 C   0  0  0  0  0  0  0  0  0  0  0  0
   31.3820   48.0420   -3.5810 C   0  0  0  0  0  0  0  0  0  0  0  0
   26.4620   51.2500   -6.0340 C   0  0  0  0  0  0  0  0  0  0  0  0
   27.8480   52.7630   -4.8220 C   0  0  0  0  0  0  0  0  0  0  0  0
   30.5390   53.8260   -4.7200 N   0  0  0  0  0  0  0  0  0  0  0  0
   30.6450   52.0890   -3.2740 O   0  0  0  0  0  0  0  0  0  0  0  0
   29.8470   45.6560   -4.2880 C   0  0  0  0  0  0  0  0  0  0  0  0
   31.7480   49.3340   -2.7950 C   0  0  0  0  0  0  0  0  0  0  0  0
   32.6450   48.3050   -4.4560 C   0  0  0  0  0  0  0  0  0  0  0  0
   31.4140   46.7670   -2.7250 C   0  0  0  0  0  0  0  0  0  0  0  0
   26.6210   52.4210   -5.3640 C   0  0  0  0  0  0  0  0  0  0  0  0
   29.5940   54.7370   -5.2390 O   0  0  0  0  0  0  0  0  0  0  0  0
   31.2040   45.5410   -3.6010 C   0  0  0  0  0  0  0  0  0  0  0  0
   33.1920   49.1810   -3.3130 C   0  0  0  0  0  0  0  0  0  0  0  0
  1  2  1  0
  2  3  2  0
  2  4  1  0
  4  5  2  0
  3  6  1  0
  4  7  1  0
  5  8  1  0
  6  8  2  0
  5  9  1  0
  7 10  2  0
  7 11  1  0
 10 12  1  0
  9 13  1  0
 14  9  1  0
 11 15  2  0
 10 16  1  0
 12 17  1  0
 12 18  2  0
 13 19  1  0
 14 20  1  0
 14 21  1  0
 14 22  1  0
 15 23  1  0
 16 23  2  0
 17 24  1  0
 19 25  1  0
 22 25  1  0
 20 26  1  0
 21 26  1  0
M  END
