mac-x0319-mac-x0337
     RDKit          3D

 23 24  0  0  0  0  0  0  0  0999 V2000
   34.2480   45.8340   -6.7270 O   0  0  0  0  0  0  0  0  0  0  0  0
   32.9910   45.6130   -6.2910 C   0  0  0  0  0  0  0  0  0  0  0  0
   32.0550   45.6850   -7.0700 O   0  0  0  0  0  0  0  0  0  0  0  0
   32.9510   45.2970   -4.8120 C   0  0  0  0  0  0  0  0  0  0  0  0
   31.5960   45.5420   -4.1960 C   0  0  0  0  0  0  0  0  0  0  0  0
   30.7580   44.4520   -3.9130 C   0  0  0  0  0  0  0  0  0  0  0  0
   31.1420   46.8470   -3.9020 C   0  0  0  0  0  0  0  0  0  0  0  0
   29.5100   44.6680   -3.3550 C   0  0  0  0  0  0  0  0  0  0  0  0
   29.8600   47.0570   -3.3350 C   0  0  0  0  0  0  0  0  0  0  0  0
   28.7260   43.5840   -3.1000 O   0  0  0  0  0  0  0  0  0  0  0  0
   29.2810   48.4280   -3.0080 C   0  0  0  0  0  0  0  0  0  0  0  0
   29.0630   45.9420   -3.0660 C   0  0  0  0  0  0  0  0  0  0  0  0
   30.0140   49.6130   -3.4700 N   0  0  0  0  0  0  0  0  0  0  0  0
   29.9530   50.2340   -4.8710 S   0  0  1  0  0  0  0  0  0  0  0  0
   29.4070   49.6970   -6.0980 O   0  0  0  0  0  0  0  0  0  0  0  0
   28.8920   51.5080   -4.5680 N   0  0  0  0  0  0  0  0  0  0  0  0
   31.5620   50.8840   -5.1250 C   0  0  0  0  0  0  0  0  0  0  0  0
   32.6490   50.0150   -5.0890 C   0  0  0  0  0  0  0  0  0  0  0  0
   31.7430   52.2510   -5.3480 C   0  0  0  0  0  0  0  0  0  0  0  0
   33.9330   50.5130   -5.2710 C   0  0  0  0  0  0  0  0  0  0  0  0
   33.0360   52.7430   -5.5310 C   0  0  0  0  0  0  0  0  0  0  0  0
   34.1390   51.8800   -5.4910 C   0  0  0  0  0  0  0  0  0  0  0  0
   35.5290   52.4070   -5.6820 C   0  0  0  0  0  0  0  0  0  0  0  0
  1  2  1  0
  2  3  2  0
  2  4  1  0
  4  5  1  0
  5  6  2  0
  5  7  1  0
  6  8  1  0
  7  9  2  0
  8 10  1  0
  9 11  1  0
  8 12  2  0
  9 12  1  0
 11 13  1  0
 13 14  2  0
 14 15  2  0
 14 16  1  1
 14 17  1  0
 17 18  2  0
 17 19  1  0
 18 20  1  0
 19 21  2  0
 20 22  2  0
 21 22  1  0
 22 23  1  0
M  END
