mac-x0398-mac-x0348
     RDKit          3D

 27 29  0  0  0  0  0  0  0  0999 V2000
   28.3260   54.1250   -7.2640 N   0  0  0  0  0  0  0  0  0  0  0  0
   28.8290   53.1610   -6.3850 C   0  0  0  0  0  0  0  0  0  0  0  0
   29.0270   51.8470   -6.8090 C   0  0  0  0  0  0  0  0  0  0  0  0
   29.1450   53.4970   -5.0640 C   0  0  0  0  0  0  0  0  0  0  0  0
   29.6500   52.5360   -4.1830 C   0  0  0  0  0  0  0  0  0  0  0  0
   29.5330   50.8830   -5.9310 C   0  0  0  0  0  0  0  0  0  0  0  0
   29.9200   52.9880   -2.9200 O   0  0  0  0  0  0  0  0  0  0  0  0
   29.8500   51.2160   -4.6080 C   0  0  0  0  0  0  0  0  0  0  0  0
   30.3840   50.1280   -3.7420 C   0  0  0  0  0  0  0  0  0  0  0  0
   30.5280   50.2480   -2.5370 O   0  0  0  0  0  0  0  0  0  0  0  0
   30.6810   49.0150   -4.4720 O   0  0  0  0  0  0  0  0  0  0  0  0
   29.5960   48.0680   -4.5980 C   0  0  0  0  0  0  0  0  0  0  0  0
   30.0790   46.6180   -4.3360 C   0  0  1  0  0  0  0  0  0  0  0  0
   31.6110   46.4550   -4.3780 C   0  0  0  0  0  0  0  0  0  0  0  0
   29.4860   46.0980   -3.0370 C   0  0  0  0  0  0  0  0  0  0  0  0
   32.0910   45.8440   -5.6690 C   0  0  0  0  0  0  0  0  0  0  0  0
   28.5880   45.0520   -2.8830 C   0  0  0  0  0  0  0  0  0  0  0  0
   29.7480   46.6010   -1.7160 C   0  0  0  0  0  0  0  0  0  0  0  0
   31.4110   45.3570   -6.5600 O   0  0  0  0  0  0  0  0  0  0  0  0
   33.4360   45.8830   -5.7770 O   0  0  0  0  0  0  0  0  0  0  0  0
   28.3040   44.9080   -1.5510 N   0  0  0  0  0  0  0  0  0  0  0  0
   28.9990   45.8410   -0.8130 C   0  0  0  0  0  0  0  0  0  0  0  0
   30.5620   47.6410   -1.2110 C   0  0  0  0  0  0  0  0  0  0  0  0
   27.4030   43.9150   -1.0050 C   0  0  0  0  0  0  0  0  0  0  0  0
   30.6000   47.8870    0.1650 C   0  0  0  0  0  0  0  0  0  0  0  0
   29.0300   46.0800    0.5720 C   0  0  0  0  0  0  0  0  0  0  0  0
   29.8440   47.1160    1.0430 C   0  0  0  0  0  0  0  0  0  0  0  0
  1  2  1  0
  2  3  2  0
  2  4  1  0
  4  5  2  0
  3  6  1  0
  5  7  1  0
  5  8  1  0
  6  8  2  0
  8  9  1  0
  9 10  2  0
  9 11  1  0
 11 12  1  0
 13 12  1  1
 13 14  1  0
 13 15  1  0
 14 16  1  0
 15 17  2  0
 15 18  1  0
 16 19  2  0
 16 20  1  0
 17 21  1  0
 18 22  2  0
 21 22  1  0
 18 23  1  0
 21 24  1  0
 23 25  2  0
 22 26  1  0
 25 27  1  0
 26 27  2  0
M  END
