mac-x0137-mac-x0357
     RDKit          3D

 26 29  0  0  0  0  0  0  0  0999 V2000
   29.4780   49.8370   -2.2520 F   0  0  0  0  0  0  0  0  0  0  0  0
   30.2460   48.8490   -2.7900 C   0  0  2  0  0  0  0  0  0  0  0  0
   31.5860   49.4400   -3.2100 C   0  0  0  0  0  0  0  0  0  0  0  0
   29.5200   48.2310   -3.9910 C   0  0  0  0  0  0  0  0  0  0  0  0
   30.2630   48.4960   -5.2560 N   0  0  0  0  0  0  0  0  0  0  0  0
   32.4060   48.4380   -4.0220 C   0  0  0  0  0  0  0  0  0  0  0  0
   31.6380   47.8790   -5.2500 C   0  0  1  0  0  0  0  0  0  0  0  0
   29.6050   48.9440   -6.4420 C   0  0  0  0  0  0  0  0  0  0  0  0
   29.8450   48.3080   -7.6570 N   0  0  0  0  0  0  0  0  0  0  0  0
   28.7220   49.9720   -6.5420 C   0  0  0  0  0  0  0  0  0  0  0  0
   31.6810   46.3030   -5.2980 C   0  0  2  0  0  0  0  0  0  0  0  0
   29.2600   48.6700   -8.8380 C   0  0  0  0  0  0  0  0  0  0  0  0
   28.1190   50.3100   -7.8730 C   0  0  0  0  0  0  0  0  0  0  0  0
   28.1050   50.9530   -5.6960 C   0  0  0  0  0  0  0  0  0  0  0  0
   30.6440   45.7780   -4.4530 O   0  0  0  0  0  0  0  0  0  0  0  0
   32.9890   45.6040   -4.9210 C   0  0  0  0  0  0  0  0  0  0  0  0
   28.4190   49.6260   -9.0100 N   0  0  0  0  0  0  0  0  0  0  0  0
   27.2900   51.3170   -7.8190 N   0  0  0  0  0  0  0  0  0  0  0  0
   27.3020   51.6850   -6.4880 C   0  0  0  0  0  0  0  0  0  0  0  0
   33.0190   44.2310   -4.5660 C   0  0  0  0  0  0  0  0  0  0  0  0
   34.1950   46.3270   -4.9220 C   0  0  0  0  0  0  0  0  0  0  0  0
   31.7670   43.3930   -4.5430 C   0  0  0  0  0  0  0  0  0  0  0  0
   35.4060   45.7200   -4.5830 C   0  0  0  0  0  0  0  0  0  0  0  0
   34.2550   43.6440   -4.2270 C   0  0  0  0  0  0  0  0  0  0  0  0
   34.2890   42.3200   -3.8850 O   0  0  0  0  0  0  0  0  0  0  0  0
   35.4370   44.3790   -4.2350 C   0  0  0  0  0  0  0  0  0  0  0  0
  2  1  1  6
  2  3  1  0
  2  4  1  0
  4  5  1  0
  3  6  1  0
  5  7  1  0
  7  6  1  1
  5  8  1  0
  8  9  1  0
  8 10  2  0
  7 11  1  0
  9 12  1  0
 10 13  1  0
 10 14  1  0
 11 15  1  1
 11 16  1  0
 12 17  2  0
 13 17  1  0
 13 18  2  0
 14 19  2  0
 18 19  1  0
 16 20  2  0
 16 21  1  0
 20 22  1  0
 21 23  2  0
 20 24  1  0
 24 25  1  0
 23 26  1  0
 24 26  2  0
M  END
