mac-x0584-mac-x0138
     RDKit          3D

 21 24  0  0  0  0  0  0  0  0999 V2000
   29.0060   49.9310   -2.9080 C   0  0  0  0  0  0  0  0  0  0  0  0
   28.8240   50.1360   -4.3620 C   0  0  0  0  0  0  0  0  0  0  0  0
   29.2190   49.2510   -5.4230 C   0  0  0  0  0  0  0  0  0  0  0  0
   28.2520   51.1850   -4.9810 C   0  0  0  0  0  0  0  0  0  0  0  0
   28.7810   49.9670   -6.6480 C   0  0  0  0  0  0  0  0  0  0  0  0
   29.8290   48.0480   -5.5720 C   0  0  0  0  0  0  0  0  0  0  0  0
   28.2100   51.1150   -6.3660 N   0  0  0  0  0  0  0  0  0  0  0  0
   30.2620   47.3370   -4.4410 N   0  0  0  0  0  0  0  0  0  0  0  0
   30.0440   47.4810   -6.8350 N   0  0  0  0  0  0  0  0  0  0  0  0
   29.0220   49.3610   -7.8530 N   0  0  0  0  0  0  0  0  0  0  0  0
   28.7790   50.0930   -9.0490 N   0  0  0  0  0  0  0  0  0  0  0  0
   30.5400   45.8870   -4.4980 C   0  0  1  0  0  0  0  0  0  0  0  0
   31.2550   47.9170   -3.5340 C   0  0  0  0  0  0  0  0  0  0  0  0
   29.6470   48.1310   -7.8960 C   0  0  0  0  0  0  0  0  0  0  0  0
   29.8410   47.6010   -9.1390 N   0  0  0  0  0  0  0  0  0  0  0  0
   31.6850   45.5160   -5.4520 C   0  0  0  0  0  0  0  0  0  0  0  0
   30.8300   45.5780   -3.0280 C   0  0  0  0  0  0  0  0  0  0  0  0
   31.4530   46.8520   -2.4610 C   0  0  0  0  0  0  0  0  0  0  0  0
   32.3740   44.1300   -5.2790 C   0  0  0  0  0  0  0  0  0  0  0  0
   33.1110   46.1300   -5.3390 C   0  0  0  0  0  0  0  0  0  0  0  0
   33.6530   44.7790   -5.8490 C   0  0  0  0  0  0  0  0  0  0  0  0
  1  2  1  0
  2  3  1  0
  2  4  2  0
  3  5  1  0
  3  6  2  0
  4  7  1  0
  5  7  2  0
  6  8  1  0
  6  9  1  0
  5 10  1  0
 10 11  1  0
  8 12  1  0
  8 13  1  0
  9 14  2  0
 10 14  1  0
 14 15  1  0
 12 16  1  6
 12 17  1  0
 13 18  1  0
 17 18  1  0
 16 19  1  0
 16 20  1  0
 19 21  1  0
 20 21  1  0
M  END
