mac-x0373-mac-x0587
     RDKit          3D

 23 25  0  0  0  0  0  0  0  0999 V2000
   32.1330   46.5930   -6.3230 O   0  0  0  0  0  0  0  0  0  0  0  0
   31.1010   47.3050   -5.7090 C   0  0  0  0  0  0  0  0  0  0  0  0
   30.3480   47.6540   -6.7220 O   0  0  0  0  0  0  0  0  0  0  0  0
   32.6040   45.3270   -6.0810 C   0  0  0  0  0  0  0  0  0  0  0  0
   30.7270   47.7070   -4.1230 S   0  0  0  0  0  0  0  0  0  0  0  0
   32.1830   44.4500   -4.9620 C   0  0  0  0  0  0  0  0  0  0  0  0
   33.4740   44.7940   -6.8500 O   0  0  0  0  0  0  0  0  0  0  0  0
   30.1520   46.2330   -3.6810 C   0  0  1  0  0  0  0  0  0  0  0  0
   30.3870   44.8510   -4.8450 S   0  0  0  0  0  0  0  0  0  0  0  0
   30.6680   48.1630   -2.7890 O   0  0  0  0  0  0  0  0  0  0  0  0
   32.4420   48.0800   -3.9890 C   0  0  0  0  0  0  0  0  0  0  0  0
   29.6890   48.9750   -4.5760 C   0  0  0  0  0  0  0  0  0  0  0  0
   30.5270   45.6110   -2.3320 C   0  0  0  0  0  0  0  0  0  0  0  0
   33.1090   47.4920   -2.9470 C   0  0  0  0  0  0  0  0  0  0  0  0
   33.0660   48.8890   -4.8450 C   0  0  0  0  0  0  0  0  0  0  0  0
   28.4380   49.1640   -4.0360 C   0  0  0  0  0  0  0  0  0  0  0  0
   30.1340   49.8660   -5.5400 C   0  0  0  0  0  0  0  0  0  0  0  0
   34.4750   47.7550   -2.7850 C   0  0  0  0  0  0  0  0  0  0  0  0
   34.4410   49.1390   -4.6670 C   0  0  0  0  0  0  0  0  0  0  0  0
   27.6640   50.2310   -4.4710 C   0  0  0  0  0  0  0  0  0  0  0  0
   29.3370   50.9140   -5.9460 C   0  0  0  0  0  0  0  0  0  0  0  0
   35.1510   48.5840   -3.6490 C   0  0  0  0  0  0  0  0  0  0  0  0
   28.0790   51.1280   -5.4250 C   0  0  0  0  0  0  0  0  0  0  0  0
  1  2  1  0
  2  3  2  0
  1  4  1  0
  2  5  1  0
  4  6  1  0
  4  7  2  0
  5  8  1  0
  6  9  1  0
  8  9  1  0
  5 10  2  0
  5 11  1  0
  5 12  1  0
  8 13  1  1
 11 14  2  0
 11 15  1  0
 12 16  2  0
 12 17  1  0
 14 18  1  0
 15 19  2  0
 16 20  1  0
 17 21  2  0
 18 22  2  0
 19 22  1  0
 20 23  2  0
 21 23  1  0
M  END
