mac-x0576-mac-x1494
     RDKit          3D

 18 20  0  0  0  0  0  0  0  0999 V2000
   28.5260   47.8610   -9.4260 N   0  0  0  0  0  0  0  0  0  0  0  0
   28.4400   48.2440   -8.0640 C   0  0  2  0  0  0  0  0  0  0  0  0
   28.6070   49.6630   -8.0280 N   0  0  0  0  0  0  0  0  0  0  0  0
   29.5410   47.6330   -7.4380 N   0  0  0  0  0  0  0  0  0  0  0  0
   29.8580   48.0020   -6.1460 C   0  0  0  0  0  0  0  0  0  0  0  0
   28.8900   50.1320   -6.6760 C   0  0  1  0  0  0  0  0  0  0  0  0
   29.9270   47.1670   -5.2530 O   0  0  0  0  0  0  0  0  0  0  0  0
   30.0980   49.4950   -6.0020 C   0  0  1  0  0  0  0  0  0  0  0  0
   29.0310   51.5500   -6.7810 N   0  0  0  0  0  0  0  0  0  0  0  0
   29.4630   52.2990   -5.7210 C   0  0  0  0  0  0  0  0  0  0  0  0
   30.2710   50.1120   -4.5940 C   0  0  2  0  0  0  0  0  0  0  0  0
   29.0800   53.4590   -5.5910 O   0  0  0  0  0  0  0  0  0  0  0  0
   30.4190   51.6440   -4.7420 C   0  0  0  0  0  0  0  0  0  0  0  0
   31.4230   49.5530   -3.7680 C   0  0  0  0  0  0  0  0  0  0  0  0
   29.0970   49.8220   -3.6720 C   0  0  0  0  0  0  0  0  0  0  0  0
   30.9500   49.0620   -2.6160 C   0  0  0  0  0  0  0  0  0  0  0  0
   29.5260   49.2220   -2.5470 C   0  0  0  0  0  0  0  0  0  0  0  0
   31.8690   48.3460   -1.3860 Cl  0  0  0  0  0  0  0  0  0  0  0  0
  2  1  1  6
  2  3  1  0
  2  4  1  0
  4  5  1  0
  6  3  1  6
  5  7  2  0
  8  5  1  1
  6  8  1  0
  6  9  1  0
  9 10  1  0
  8 11  1  0
 10 12  2  0
 10 13  1  0
 11 13  1  6
 11 14  1  0
 11 15  1  0
 14 16  2  0
 15 17  2  0
 16 17  1  0
 16 18  1  0
M  END
