mac-x0412
     RDKit          3D

 11 12  0  0  0  0  0  0  0  0999 V2000
   29.6050   54.3880   -3.7980 O   0  0  0  0  0  0  0  0  0  0  0  0
   29.3000   53.7690   -4.7560 C   0  0  0  0  0  0  0  0  0  0  0  0
   28.8140   54.4340   -5.9670 N   0  0  0  0  0  0  0  0  0  0  0  0
   28.4520   53.6550   -7.1210 C   0  0  0  0  0  0  0  0  0  0  0  0
   28.5700   52.1630   -7.1030 C   0  0  0  0  0  0  0  0  0  0  0  0
   29.0710   51.4690   -5.8420 C   0  0  0  0  0  0  0  0  0  0  0  0
   29.1900   50.0700   -5.8180 C   0  0  0  0  0  0  0  0  0  0  0  0
   29.6550   49.4470   -4.6710 C   0  0  0  0  0  0  0  0  0  0  0  0
   30.0050   50.2020   -3.5450 C   0  0  0  0  0  0  0  0  0  0  0  0
   29.8870   51.5810   -3.5650 C   0  0  0  0  0  0  0  0  0  0  0  0
   29.4190   52.2180   -4.7270 C   0  0  0  0  0  0  0  0  0  0  0  0
  1  2  2  0
  2  3  1  0
  3  4  1  0
  4  5  2  0
  5  6  1  0
  6  7  1  0
  7  8  2  0
  8  9  1  0
  9 10  2  0
  2 11  1  0
  6 11  2  0
 10 11  1  0
M  END
