mac-x0223-mac-x0453
     RDKit          3D

 23 24  0  0  0  0  0  0  0  0999 V2000
   27.5070   43.6590   -2.1550 C   0  0  0  0  0  0  0  0  0  0  0  0
   27.5870   45.0670   -1.9920 O   0  0  0  0  0  0  0  0  0  0  0  0
   28.7860   45.6520   -2.3000 C   0  0  0  0  0  0  0  0  0  0  0  0
   29.0620   46.8720   -1.6750 C   0  0  0  0  0  0  0  0  0  0  0  0
   29.7250   45.1100   -3.1830 C   0  0  0  0  0  0  0  0  0  0  0  0
   28.1440   47.4100   -0.8120 O   0  0  0  0  0  0  0  0  0  0  0  0
   30.2590   47.5450   -1.9190 C   0  0  0  0  0  0  0  0  0  0  0  0
   30.9330   45.7770   -3.4410 C   0  0  0  0  0  0  0  0  0  0  0  0
   31.9490   45.1920   -4.4000 C   0  0  0  0  0  0  0  0  0  0  0  0
   31.1900   46.9960   -2.7990 C   0  0  0  0  0  0  0  0  0  0  0  0
   32.2530   46.0740   -5.5980 C   0  0  0  0  0  0  0  0  0  0  0  0
   33.3130   46.6480   -5.8100 O   0  0  0  0  0  0  0  0  0  0  0  0
   31.1670   46.1420   -6.4280 O   0  0  0  0  0  0  0  0  0  0  0  0
   30.5190   47.4290   -6.4890 C   0  0  0  0  0  0  0  0  0  0  0  0
   30.3870   47.9600   -5.0660 C   0  0  0  0  0  0  0  0  0  0  0  0
   29.9880   49.3540   -4.9870 N   0  0  0  0  0  0  0  0  0  0  0  0
   29.5700   50.1470   -6.0140 C   0  0  0  0  0  0  0  0  0  0  0  0
   29.9690   50.0980   -3.8480 C   0  0  0  0  0  0  0  0  0  0  0  0
   29.3100   51.3720   -5.4330 C   0  0  0  0  0  0  0  0  0  0  0  0
   29.5620   51.3240   -4.0830 N   0  0  0  0  0  0  0  0  0  0  0  0
   28.8260   52.6280   -6.0670 C   0  0  0  0  0  0  0  0  0  0  0  0
   29.9490   53.6470   -6.3070 C   0  0  0  0  0  0  0  0  0  0  0  0
   29.4910   54.8810   -6.9560 N   0  0  0  0  0  0  0  0  0  0  0  0
  1  2  1  0
  2  3  1  0
  3  4  2  0
  3  5  1  0
  4  6  1  0
  4  7  1  0
  5  8  2  0
  8  9  1  0
  7 10  2  0
  8 10  1  0
  9 11  1  0
 11 12  2  0
 11 13  1  0
 13 14  1  0
 14 15  1  0
 15 16  1  0
 16 17  1  0
 16 18  1  0
 17 19  2  0
 18 20  2  0
 19 20  1  0
 19 21  1  0
 21 22  1  0
 22 23  1  0
M  END
