mac-x0584-mac-x0212
     RDKit          3D

 26 29  0  0  0  0  0  0  0  0999 V2000
   30.7870   53.1280   -6.7020 C   0  0  0  0  0  0  0  0  0  0  0  0
   29.5580   53.7910   -5.6050 S   0  0  0  0  0  0  0  0  0  0  0  0
   28.4560   54.2830   -6.4020 O   0  0  0  0  0  0  0  0  0  0  0  0
   30.2370   54.6540   -4.6630 O   0  0  0  0  0  0  0  0  0  0  0  0
   29.1150   52.4060   -4.7250 N   0  0  0  0  0  0  0  0  0  0  0  0
   29.1380   51.1320   -5.3510 C   0  0  0  0  0  0  0  0  0  0  0  0
   28.5570   50.9750   -6.5990 N   0  0  0  0  0  0  0  0  0  0  0  0
   29.7020   50.0260   -4.8050 C   0  0  0  0  0  0  0  0  0  0  0  0
   30.4180   49.8080   -3.5480 C   0  0  0  0  0  0  0  0  0  0  0  0
   28.7570   49.7040   -6.8580 C   0  0  0  0  0  0  0  0  0  0  0  0
   29.4440   48.9930   -5.7550 C   0  0  0  0  0  0  0  0  0  0  0  0
   31.5960   49.5290   -3.4170 O   0  0  0  0  0  0  0  0  0  0  0  0
   29.6420   49.9230   -2.4520 O   0  0  0  0  0  0  0  0  0  0  0  0
   28.3730   49.0590   -8.0010 N   0  0  0  0  0  0  0  0  0  0  0  0
   29.6500   47.6730   -5.8470 C   0  0  0  0  0  0  0  0  0  0  0  0
   30.2670   46.9490   -4.8280 N   0  0  0  0  0  0  0  0  0  0  0  0
   29.2070   47.0710   -7.0060 N   0  0  0  0  0  0  0  0  0  0  0  0
   28.6180   47.7850   -8.0120 C   0  0  0  0  0  0  0  0  0  0  0  0
   30.7510   45.5600   -4.9580 C   0  0  1  0  0  0  0  0  0  0  0  0
   29.8120   47.1440   -3.4360 C   0  0  0  0  0  0  0  0  0  0  0  0
   32.1120   45.4980   -5.6340 C   0  0  0  0  0  0  0  0  0  0  0  0
   30.7450   44.9910   -3.5230 C   0  0  0  0  0  0  0  0  0  0  0  0
   30.7160   46.2230   -2.6420 C   0  0  0  0  0  0  0  0  0  0  0  0
   33.0110   44.2350   -5.5270 C   0  0  0  0  0  0  0  0  0  0  0  0
   33.2950   46.2880   -5.0060 C   0  0  0  0  0  0  0  0  0  0  0  0
   34.2250   45.1860   -5.5520 C   0  0  0  0  0  0  0  0  0  0  0  0
  1  2  1  0
  2  3  2  0
  2  4  2  0
  2  5  1  0
  5  6  1  0
  6  7  1  0
  6  8  2  0
  8  9  1  0
  7 10  2  0
  8 11  1  0
 10 11  1  0
  9 12  2  0
  9 13  1  0
 10 14  1  0
 11 15  2  0
 15 16  1  0
 15 17  1  0
 14 18  2  0
 17 18  1  0
 16 19  1  0
 16 20  1  0
 19 21  1  1
 19 22  1  0
 20 23  1  0
 22 23  1  0
 21 24  1  0
 21 25  1  0
 24 26  1  0
 25 26  1  0
M  END
