mac-x0451-mac-x0357
     RDKit          3D

 21 23  0  0  0  0  0  0  0  0999 V2000
   28.0740   53.7100   -8.0690 N   0  0  0  0  0  0  0  0  0  0  0  0
   28.6310   52.6560   -7.4450 C   0  0  0  0  0  0  0  0  0  0  0  0
   28.7810   52.6050   -6.1500 N   0  0  0  0  0  0  0  0  0  0  0  0
   29.1940   51.2900   -8.3150 S   0  0  0  0  0  0  0  0  0  0  0  0
   29.4000   51.4210   -5.7930 C   0  0  0  0  0  0  0  0  0  0  0  0
   29.7180   50.5580   -6.8470 C   0  0  0  0  0  0  0  0  0  0  0  0
   29.7260   51.0430   -4.4830 C   0  0  0  0  0  0  0  0  0  0  0  0
   30.3740   49.3240   -6.6340 C   0  0  0  0  0  0  0  0  0  0  0  0
   30.3800   49.8350   -4.2650 C   0  0  0  0  0  0  0  0  0  0  0  0
   30.7190   48.9870   -5.3170 C   0  0  0  0  0  0  0  0  0  0  0  0
   31.4490   47.8450   -4.9570 N   0  0  0  0  0  0  0  0  0  0  0  0
   31.7150   46.6890   -5.4810 C   0  0  0  0  0  0  0  0  0  0  0  0
   31.2800   46.1250   -6.6340 O   0  0  0  0  0  0  0  0  0  0  0  0
   32.7290   45.9530   -4.6960 C   0  0  0  0  0  0  0  0  0  0  0  0
   32.8660   44.5650   -4.4820 C   0  0  0  0  0  0  0  0  0  0  0  0
   33.6430   46.8570   -4.1250 C   0  0  0  0  0  0  0  0  0  0  0  0
   31.9220   43.5560   -5.0690 C   0  0  0  0  0  0  0  0  0  0  0  0
   34.6960   46.4190   -3.3400 C   0  0  0  0  0  0  0  0  0  0  0  0
   33.9520   44.1540   -3.6750 C   0  0  0  0  0  0  0  0  0  0  0  0
   34.1370   42.8220   -3.4300 O   0  0  0  0  0  0  0  0  0  0  0  0
   34.8520   45.0630   -3.1120 C   0  0  0  0  0  0  0  0  0  0  0  0
  1  2  1  0
  2  3  2  0
  2  4  1  0
  3  5  1  0
  4  6  1  0
  5  6  2  0
  5  7  1  0
  6  8  1  0
  7  9  2  0
  8 10  2  0
  9 10  1  0
 10 11  1  0
 11 12  2  3
 12 13  1  0
 12 14  1  0
 14 15  2  0
 14 16  1  0
 15 17  1  0
 16 18  2  0
 15 19  1  0
 19 20  1  0
 18 21  1  0
 19 21  2  0
M  END
