mac-x0131-mac-x0159
     RDKit          3D

 24 27  0  0  0  0  0  0  0  0999 V2000
   30.5560   49.8660   -2.1510 C   0  0  0  0  0  0  0  0  0  0  0  0
   30.1470   49.5400   -3.5490 C   0  0  0  0  0  0  0  0  0  0  0  0
   29.5720   50.3770   -4.5010 C   0  0  0  0  0  0  0  0  0  0  0  0
   30.2950   48.2830   -4.1190 N   0  0  0  0  0  0  0  0  0  0  0  0
   29.2330   51.8190   -4.3210 C   0  0  0  0  0  0  0  0  0  0  0  0
   30.8550   47.0530   -3.5160 C   0  0  2  0  0  0  0  0  0  0  0  0
   29.3630   49.6030   -5.6860 C   0  0  0  0  0  0  0  0  0  0  0  0
   29.8170   48.3200   -5.4210 C   0  0  0  0  0  0  0  0  0  0  0  0
   28.8390   49.8310   -6.9730 C   0  0  0  0  0  0  0  0  0  0  0  0
   29.8000   47.2830   -6.2810 N   0  0  0  0  0  0  0  0  0  0  0  0
   31.9500   46.4230   -4.3290 C   0  0  0  0  0  0  0  0  0  0  0  0
   29.7310   46.1340   -3.0650 C   0  0  0  0  0  0  0  0  0  0  0  0
   28.3400   51.0520   -7.4120 N   0  0  0  0  0  0  0  0  0  0  0  0
   28.8060   48.8180   -7.8600 N   0  0  0  0  0  0  0  0  0  0  0  0
   29.2800   47.6210   -7.4700 C   0  0  0  0  0  0  0  0  0  0  0  0
   31.9970   45.5950   -5.4350 C   0  0  0  0  0  0  0  0  0  0  0  0
   33.2320   46.6960   -3.9230 O   0  0  0  0  0  0  0  0  0  0  0  0
   28.9050   45.4120   -3.9150 C   0  0  0  0  0  0  0  0  0  0  0  0
   29.4440   45.9440   -1.7090 N   0  0  0  0  0  0  0  0  0  0  0  0
   34.0730   46.0490   -4.7640 C   0  0  0  0  0  0  0  0  0  0  0  0
   33.3640   45.3560   -5.7150 C   0  0  0  0  0  0  0  0  0  0  0  0
   28.4370   45.1100   -1.5640 C   0  0  0  0  0  0  0  0  0  0  0  0
   27.7680   44.4960   -3.0220 S   0  0  0  0  0  0  0  0  0  0  0  0
   27.8760   44.6910   -0.2500 C   0  0  0  0  0  0  0  0  0  0  0  0
  1  2  1  0
  2  3  2  0
  2  4  1  0
  3  5  1  0
  4  6  1  0
  3  7  1  0
  4  8  1  0
  7  8  2  0
  7  9  1  0
  8 10  1  0
  6 11  1  6
  6 12  1  0
  9 13  1  0
  9 14  2  0
 10 15  2  0
 14 15  1  0
 11 16  2  0
 11 17  1  0
 12 18  2  0
 12 19  1  0
 17 20  1  0
 16 21  1  0
 20 21  2  0
 19 22  2  0
 18 23  1  0
 22 23  1  0
 22 24  1  0
M  END
