mac-x0345-mac-x0338
     RDKit          3D

 10 11  0  0  0  0  0  0  0  0999 V2000
   29.3690   54.2510   -5.4370 C   0  0  0  0  0  0  0  0  0  0  0  0
   28.8600   53.9630   -6.6900 C   0  0  0  0  0  0  0  0  0  0  0  0
   28.5790   52.6480   -6.8310 O   0  0  0  0  0  0  0  0  0  0  0  0
   29.4050   53.0200   -4.7520 C   0  0  0  0  0  0  0  0  0  0  0  0
   28.9130   52.0740   -5.6450 C   0  0  0  0  0  0  0  0  0  0  0  0
   29.8130   52.7170   -3.4960 N   0  0  0  0  0  0  0  0  0  0  0  0
   28.8020   50.7380   -5.3150 C   0  0  0  0  0  0  0  0  0  0  0  0
   29.7070   51.4170   -3.1720 C   0  0  0  0  0  0  0  0  0  0  0  0
   30.1190   51.0670   -1.8840 N   0  0  0  0  0  0  0  0  0  0  0  0
   29.2210   50.4220   -4.0230 C   0  0  0  0  0  0  0  0  0  0  0  0
  1  2  2  0
  2  3  1  0
  1  4  1  0
  3  5  1  0
  4  5  2  0
  4  6  1  0
  5  7  1  0
  6  8  2  0
  8  9  1  0
  7 10  2  0
  8 10  1  0
M  END
