mac-x0361-mac-x0179
     RDKit          3D

 27 29  0  0  0  0  0  0  0  0999 V2000
   28.6780   54.2060   -6.0030 N   0  0  0  0  0  0  0  0  0  0  0  0
   29.3080   53.7180   -4.8930 C   0  0  0  0  0  0  0  0  0  0  0  0
   29.8220   54.4750   -4.0770 O   0  0  0  0  0  0  0  0  0  0  0  0
   29.3380   52.2400   -4.7170 C   0  0  0  0  0  0  0  0  0  0  0  0
   29.2230   51.4330   -5.8530 C   0  0  0  0  0  0  0  0  0  0  0  0
   29.4760   51.6440   -3.4570 C   0  0  0  0  0  0  0  0  0  0  0  0
   29.2470   50.0420   -5.7280 C   0  0  0  0  0  0  0  0  0  0  0  0
   29.4990   50.2500   -3.3370 C   0  0  0  0  0  0  0  0  0  0  0  0
   29.3850   49.4460   -4.4720 C   0  0  0  0  0  0  0  0  0  0  0  0
   29.3950   48.0830   -4.4740 O   0  0  0  0  0  0  0  0  0  0  0  0
   30.6400   47.4500   -4.7970 C   0  0  0  0  0  0  0  0  0  0  0  0
   30.5490   45.9820   -4.3820 C   0  0  0  0  0  0  0  0  0  0  0  0
   31.6410   45.2870   -5.0100 O   0  0  0  0  0  0  0  0  0  0  0  0
   32.8960   45.6270   -4.6020 C   0  0  0  0  0  0  0  0  0  0  0  0
   33.8460   45.7780   -5.3600 O   0  0  0  0  0  0  0  0  0  0  0  0
   32.9820   45.8040   -3.0850 C   0  0  0  0  0  0  0  0  0  0  0  0
   34.3460   45.8640   -2.5830 N   0  0  0  0  0  0  0  0  0  0  0  0
   34.9770   44.7840   -2.0200 C   0  0  0  0  0  0  0  0  0  0  0  0
   34.9620   47.0330   -2.2250 C   0  0  0  0  0  0  0  0  0  0  0  0
   34.6060   43.6280   -1.9590 O   0  0  0  0  0  0  0  0  0  0  0  0
   34.5740   48.1780   -2.3700 O   0  0  0  0  0  0  0  0  0  0  0  0
   36.2380   45.2830   -1.4730 C   0  0  0  0  0  0  0  0  0  0  0  0
   36.2290   46.6610   -1.6000 C   0  0  0  0  0  0  0  0  0  0  0  0
   37.3060   44.6060   -0.9130 C   0  0  0  0  0  0  0  0  0  0  0  0
   37.2860   47.4420   -1.1770 C   0  0  0  0  0  0  0  0  0  0  0  0
   38.3870   45.3760   -0.4760 C   0  0  0  0  0  0  0  0  0  0  0  0
   38.3790   46.7810   -0.6060 C   0  0  0  0  0  0  0  0  0  0  0  0
  1  2  1  0
  2  3  2  0
  2  4  1  0
  4  5  2  0
  4  6  1  0
  5  7  1  0
  6  8  2  0
  7  9  2  0
  8  9  1  0
  9 10  1  0
 10 11  1  0
 11 12  1  0
 12 13  1  0
 13 14  1  0
 14 15  2  0
 14 16  1  0
 16 17  1  0
 17 18  1  0
 17 19  1  0
 18 20  2  0
 19 21  2  0
 18 22  1  0
 19 23  1  0
 22 23  2  0
 22 24  1  0
 23 25  1  0
 24 26  2  0
 25 27  2  0
 26 27  1  0
M  END
