mac-x0212
     RDKit          3D

 14 14  0  0  0  0  0  0  0  0999 V2000
   30.8960   53.9870   -6.4810 C   0  0  0  0  0  0  0  0  0  0  0  0
   29.3840   54.0790   -5.4660 S   0  0  2  0  0  0  0  0  0  0  0  0
   28.6330   55.2220   -5.9180 O   0  0  0  0  0  0  0  0  0  0  0  0
   29.7180   54.0970   -4.1030 O   0  0  0  0  0  0  0  0  0  0  0  0
   28.4380   52.7240   -5.7360 N   0  0  0  0  0  0  0  0  0  0  0  0
   28.9970   51.4400   -5.3460 C   0  0  0  0  0  0  0  0  0  0  0  0
   29.1980   51.1890   -4.0040 C   0  0  0  0  0  0  0  0  0  0  0  0
   29.7720   49.9940   -3.6430 C   0  0  0  0  0  0  0  0  0  0  0  0
   30.0590   49.0560   -4.5990 C   0  0  0  0  0  0  0  0  0  0  0  0
   29.8330   49.3090   -5.9100 C   0  0  0  0  0  0  0  0  0  0  0  0
   29.3280   50.4980   -6.3000 C   0  0  0  0  0  0  0  0  0  0  0  0
   30.7250   47.7390   -4.1980 C   0  0  0  0  0  0  0  0  0  0  0  0
   31.0660   46.8980   -5.0250 O   0  0  0  0  0  0  0  0  0  0  0  0
   31.0330   47.5540   -3.0100 O   0  0  0  0  0  0  0  0  0  0  0  0
  2  1  1  6
  2  3  2  0
  2  4  2  0
  2  5  1  0
  5  6  1  0
  6  7  2  0
  7  8  1  0
  8  9  2  0
  9 10  1  0
  6 11  1  0
 10 11  2  0
  9 12  1  0
 12 13  2  0
 12 14  1  0
M  END
