mac-x0357-mac-x0379
     RDKit          3D

 19 20  0  0  0  0  0  0  0  0999 V2000
   32.2630   43.3520   -4.8360 C   0  0  0  0  0  0  0  0  0  0  0  0
   33.0730   44.5480   -4.4030 C   0  0  0  0  0  0  0  0  0  0  0  0
   34.2160   44.3550   -3.6100 C   0  0  0  0  0  0  0  0  0  0  0  0
   32.7150   45.8730   -4.7680 C   0  0  0  0  0  0  0  0  0  0  0  0
   34.6310   43.1130   -3.2070 O   0  0  0  0  0  0  0  0  0  0  0  0
   31.4870   46.2240   -5.6180 C   0  0  1  0  0  0  0  0  0  0  0  0
   33.5280   46.9400   -4.3210 C   0  0  0  0  0  0  0  0  0  0  0  0
   35.0020   45.4210   -3.1790 C   0  0  0  0  0  0  0  0  0  0  0  0
   30.2840   46.7880   -4.7420 C   0  0  0  0  0  0  0  0  0  0  0  0
   31.8400   46.9460   -6.8010 O   0  0  0  0  0  0  0  0  0  0  0  0
   34.6590   46.7170   -3.5350 C   0  0  0  0  0  0  0  0  0  0  0  0
   30.4530   46.3680   -3.3970 O   0  0  0  0  0  0  0  0  0  0  0  0
   29.0470   46.2360   -5.1350 O   0  0  0  0  0  0  0  0  0  0  0  0
   30.1010   48.3000   -4.6250 C   0  0  0  0  0  0  0  0  0  0  0  0
   30.4020   49.1150   -3.5400 C   0  0  0  0  0  0  0  0  0  0  0  0
   29.4370   49.3030   -5.8640 S   0  0  0  0  0  0  0  0  0  0  0  0
   29.6070   50.6930   -4.8590 C   0  0  0  0  0  0  0  0  0  0  0  0
   30.1230   50.4610   -3.6740 N   0  0  0  0  0  0  0  0  0  0  0  0
   29.1860   52.0390   -5.3420 C   0  0  0  0  0  0  0  0  0  0  0  0
  1  2  1  0
  2  3  2  0
  2  4  1  0
  3  5  1  0
  4  6  1  0
  4  7  2  0
  3  8  1  0
  6  9  1  0
  6 10  1  6
  7 11  1  0
  8 11  2  0
  9 12  1  0
  9 13  1  0
  9 14  1  0
 14 15  2  0
 14 16  1  0
 16 17  1  0
 15 18  1  0
 17 18  2  0
 17 19  1  0
M  END
