mac-x0161-mac-x0348
     RDKit          3D

 32 36  0  0  0  0  0  0  0  0999 V2000
   27.6000   51.8500   -5.8690 N   0  0  0  0  0  0  0  0  0  0  0  0
   28.8480   51.1380   -5.6350 C   0  0  2  0  0  0  0  0  0  0  0  0
   29.1970   50.0740   -6.7280 C   0  0  1  0  0  0  0  0  0  0  0  0
   28.6700   50.6080   -4.3140 N   0  0  0  0  0  0  0  0  0  0  0  0
   29.7070   49.6420   -4.0000 C   0  0  0  0  0  0  0  0  0  0  0  0
   29.2400   48.6240   -6.1880 C   0  0  1  0  0  0  0  0  0  0  0  0
   28.1800   50.0550   -7.8200 N   0  0  0  0  0  0  0  0  0  0  0  0
   29.4710   48.4170   -4.7530 N   0  0  0  0  0  0  0  0  0  0  0  0
   27.9080   48.1420   -6.5360 N   0  0  0  0  0  0  0  0  0  0  0  0
   27.7140   48.6770   -7.8680 C   0  0  0  0  0  0  0  0  0  0  0  0
   30.1530   47.1070   -4.3150 C   0  0  1  0  0  0  0  0  0  0  0  0
   30.1570   46.0290   -5.4770 C   0  0  0  0  0  0  0  0  0  0  0  0
   31.6440   47.3730   -4.0220 C   0  0  0  0  0  0  0  0  0  0  0  0
   29.3600   46.5940   -3.0250 C   0  0  1  0  0  0  0  0  0  0  0  0
   31.3920   45.6750   -6.2910 C   0  0  0  0  0  0  0  0  0  0  0  0
   32.4640   47.1820   -2.9200 C   0  0  0  0  0  0  0  0  0  0  0  0
   32.4020   47.9190   -5.0180 O   0  0  0  0  0  0  0  0  0  0  0  0
   29.7370   45.2710   -2.3420 C   0  0  0  0  0  0  0  0  0  0  0  0
   29.1950   47.5090   -1.7690 C   0  0  1  0  0  0  0  0  0  0  0  0
   31.3100   45.2470   -7.4400 O   0  0  0  0  0  0  0  0  0  0  0  0
   32.5950   45.8330   -5.7120 O   0  0  0  0  0  0  0  0  0  0  0  0
   33.7060   48.0870   -4.5900 N   0  0  0  0  0  0  0  0  0  0  0  0
   33.7230   47.6410   -3.3380 C   0  0  0  0  0  0  0  0  0  0  0  0
   28.7620   45.1900   -1.2440 N   0  0  0  0  0  0  0  0  0  0  0  0
   28.5390   46.5540   -0.7090 C   0  0  1  0  0  0  0  0  0  0  0  0
   30.4120   48.2530   -1.2820 C   0  0  0  0  0  0  0  0  0  0  0  0
   34.8460   47.6470   -2.5880 O   0  0  0  0  0  0  0  0  0  0  0  0
   27.5860   44.4030   -1.5680 C   0  0  0  0  0  0  0  0  0  0  0  0
   30.7970   48.2810   -0.0010 C   0  0  0  0  0  0  0  0  0  0  0  0
   29.0240   46.7910    0.7060 C   0  0  0  0  0  0  0  0  0  0  0  0
   34.8020   48.5200   -1.4670 C   0  0  0  0  0  0  0  0  0  0  0  0
   30.0570   47.5860    1.0120 C   0  0  0  0  0  0  0  0  0  0  0  0
  2  1  1  6
  2  3  1  0
  2  4  1  0
  4  5  1  0
  3  6  1  0
  3  7  1  6
  5  8  1  0
  6  8  1  0
  6  9  1  1
  7 10  1  0
  9 10  1  0
  8 11  1  0
 11 12  1  6
 11 13  1  0
 11 14  1  0
 12 15  1  0
 13 16  2  0
 13 17  1  0
 14 18  1  1
 14 19  1  0
 15 20  2  0
 15 21  1  0
 17 22  1  0
 16 23  1  0
 22 23  2  0
 18 24  1  0
 19 25  1  0
 24 25  1  0
 19 26  1  1
 23 27  1  0
 24 28  1  0
 26 29  2  0
 25 30  1  1
 27 31  1  0
 29 32  1  0
 30 32  2  0
M  END
