mac-x0555-mac-x0277
     RDKit          3D

 25 27  0  0  0  0  0  0  0  0999 V2000
   29.3680   55.6900   -6.7080 N   0  0  0  0  0  0  0  0  0  0  0  0
   29.4220   54.6180   -5.8100 C   0  0  0  0  0  0  0  0  0  0  0  0
   29.7470   54.7820   -4.4660 C   0  0  0  0  0  0  0  0  0  0  0  0
   29.1500   53.3240   -6.2260 C   0  0  0  0  0  0  0  0  0  0  0  0
   29.2030   52.2570   -5.3190 C   0  0  0  0  0  0  0  0  0  0  0  0
   29.8110   53.7810   -3.5550 N   0  0  0  0  0  0  0  0  0  0  0  0
   29.5400   52.5340   -3.9760 C   0  0  0  0  0  0  0  0  0  0  0  0
   28.9280   50.9460   -5.7280 C   0  0  0  0  0  0  0  0  0  0  0  0
   29.5830   51.4680   -3.0820 C   0  0  0  0  0  0  0  0  0  0  0  0
   28.9760   49.9070   -4.8180 C   0  0  0  0  0  0  0  0  0  0  0  0
   29.2980   50.1520   -3.4900 C   0  0  0  0  0  0  0  0  0  0  0  0
   29.3190   48.9950   -2.5480 C   0  0  0  0  0  0  0  0  0  0  0  0
   30.2220   49.1340   -1.3310 C   0  0  0  0  0  0  0  0  0  0  0  0
   30.4910   47.7530   -0.7490 C   0  0  0  0  0  0  0  0  0  0  0  0
   30.1910   46.6850   -1.7790 C   0  0  0  0  0  0  0  0  0  0  0  0
   31.2030   46.3330   -2.6890 C   0  0  0  0  0  0  0  0  0  0  0  0
   28.9500   46.0310   -1.8730 C   0  0  0  0  0  0  0  0  0  0  0  0
   27.6390   46.3920   -0.8070 Cl  0  0  0  0  0  0  0  0  0  0  0  0
   30.9970   45.3530   -3.6690 C   0  0  0  0  0  0  0  0  0  0  0  0
   28.7380   45.0530   -2.8460 C   0  0  0  0  0  0  0  0  0  0  0  0
   32.1050   44.9960   -4.6340 C   0  0  0  0  0  0  0  0  0  0  0  0
   29.7540   44.7130   -3.7410 C   0  0  0  0  0  0  0  0  0  0  0  0
   32.2120   45.9320   -5.8120 C   0  0  0  0  0  0  0  0  0  0  0  0
   33.3750   46.6230   -5.8000 O   0  0  0  0  0  0  0  0  0  0  0  0
   31.4090   46.1130   -6.7120 O   0  0  0  0  0  0  0  0  0  0  0  0
  1  2  1  0
  2  3  2  0
  2  4  1  0
  4  5  2  0
  3  6  1  0
  5  7  1  0
  6  7  2  0
  5  8  1  0
  7  9  1  0
  8 10  2  0
  9 11  2  0
 10 11  1  0
 11 12  1  0
 12 13  1  0
 13 14  1  0
 14 15  1  0
 15 16  2  0
 15 17  1  0
 17 18  1  0
 16 19  1  0
 17 20  2  0
 19 21  1  0
 19 22  2  0
 20 22  1  0
 21 23  1  0
 23 24  1  0
 23 25  2  0
M  END
