mac-x0565-mac-x0338
     RDKit          3D

 14 16  0  0  0  0  0  0  0  0999 V2000
   29.0050   52.8400   -5.5820 N   0  0  0  0  0  0  0  0  0  0  0  0
   29.3890   52.9670   -4.2630 C   0  0  0  0  0  0  0  0  0  0  0  0
   29.4510   53.9860   -3.6010 O   0  0  0  0  0  0  0  0  0  0  0  0
   29.0980   51.5830   -5.8980 C   0  0  0  0  0  0  0  0  0  0  0  0
   28.7890   51.1190   -7.1410 N   0  0  0  0  0  0  0  0  0  0  0  0
   29.7400   51.6530   -3.7280 C   0  0  0  0  0  0  0  0  0  0  0  0
   29.5640   50.7450   -4.7610 C   0  0  0  0  0  0  0  0  0  0  0  0
   29.8350   49.4030   -4.5140 C   0  0  0  0  0  0  0  0  0  0  0  0
   30.1730   51.2950   -2.4580 C   0  0  0  0  0  0  0  0  0  0  0  0
   30.2690   49.0370   -3.2470 C   0  0  0  0  0  0  0  0  0  0  0  0
   30.4450   49.9490   -2.2140 C   0  0  0  0  0  0  0  0  0  0  0  0
   29.7490   48.3220   -5.3370 O   0  0  0  0  0  0  0  0  0  0  0  0
   30.4970   47.6980   -3.1450 O   0  0  0  0  0  0  0  0  0  0  0  0
   29.9330   47.2440   -4.3880 C   0  0  0  0  0  0  0  0  0  0  0  0
  1  2  1  0
  2  3  2  0
  1  4  2  0
  4  5  1  0
  2  6  1  0
  4  7  1  0
  6  7  2  0
  7  8  1  0
  6  9  1  0
  8 10  2  0
  9 11  2  0
 10 11  1  0
  8 12  1  0
 10 13  1  0
 12 14  1  0
 13 14  1  0
M  END
