mac-x0206-mac-x0116
     RDKit          3D

 25 28  0  0  0  0  0  0  0  0999 V2000
   28.4740   50.8690   -3.9920 N   0  0  0  0  0  0  0  0  0  0  0  0
   29.7140   51.4510   -4.4450 C   0  0  2  0  0  0  0  0  0  0  0  0
   30.5260   51.3120   -3.2920 O   0  0  0  0  0  0  0  0  0  0  0  0
   29.3960   52.9210   -4.7810 C   0  0  0  0  0  0  0  0  0  0  0  0
   30.3660   50.7230   -5.4620 N   0  0  0  0  0  0  0  0  0  0  0  0
   28.4810   53.5030   -3.9360 C   0  0  0  0  0  0  0  0  0  0  0  0
   29.8900   53.8010   -5.8080 C   0  0  0  0  0  0  0  0  0  0  0  0
   30.8180   49.5290   -4.9150 C   0  0  0  0  0  0  0  0  0  0  0  0
   29.6490   50.6460   -6.6650 C   0  0  0  0  0  0  0  0  0  0  0  0
   27.9610   52.8100   -2.8920 O   0  0  0  0  0  0  0  0  0  0  0  0
   28.0240   54.8090   -4.0580 C   0  0  0  0  0  0  0  0  0  0  0  0
   29.4080   55.1060   -5.9230 C   0  0  0  0  0  0  0  0  0  0  0  0
   30.8810   53.6550   -6.8330 C   0  0  0  0  0  0  0  0  0  0  0  0
   29.1560   51.7630   -7.3360 N   0  0  0  0  0  0  0  0  0  0  0  0
   30.6330   48.3280   -5.3350 N   0  0  0  0  0  0  0  0  0  0  0  0
   29.4240   49.4290   -7.1690 C   0  0  0  0  0  0  0  0  0  0  0  0
   28.4810   55.6140   -5.0650 C   0  0  0  0  0  0  0  0  0  0  0  0
   32.0900   53.2450   -6.3810 O   0  0  0  0  0  0  0  0  0  0  0  0
   30.9110   53.8740   -8.1860 C   0  0  0  0  0  0  0  0  0  0  0  0
   29.9220   48.2540   -6.4750 C   0  0  0  0  0  0  0  0  0  0  0  0
   28.7720   49.0040   -8.2890 N   0  0  0  0  0  0  0  0  0  0  0  0
   32.2370   53.5820   -8.5860 C   0  0  0  0  0  0  0  0  0  0  0  0
   32.9120   53.2040   -7.4490 C   0  0  0  0  0  0  0  0  0  0  0  0
   29.5860   47.1880   -7.1220 N   0  0  0  0  0  0  0  0  0  0  0  0
   28.8960   47.7080   -8.2060 C   0  0  0  0  0  0  0  0  0  0  0  0
  2  1  1  1
  2  3  1  0
  2  4  1  0
  2  5  1  0
  4  6  2  0
  4  7  1  0
  5  8  1  0
  5  9  1  0
  6 10  1  0
  6 11  1  0
  7 12  2  0
  7 13  1  0
  9 14  1  0
  8 15  2  0
  9 16  2  0
 11 17  2  0
 12 17  1  0
 13 18  1  0
 13 19  2  0
 15 20  1  0
 16 20  1  0
 16 21  1  0
 19 22  1  0
 18 23  1  0
 22 23  2  0
 20 24  2  0
 21 25  2  0
 24 25  1  0
M  END
