mac-x0394-mac-x0341
     RDKit          3D

 22 24  0  0  0  0  0  0  0  0999 V2000
   24.3940   49.5620   -3.9810 Cl  0  0  0  0  0  0  0  0  0  0  0  0
   25.1280   51.0980   -4.2410 C   0  0  0  0  0  0  0  0  0  0  0  0
   25.2970   51.9650   -3.1680 C   0  0  0  0  0  0  0  0  0  0  0  0
   25.5410   51.4580   -5.5260 C   0  0  0  0  0  0  0  0  0  0  0  0
   26.1350   52.7120   -5.7440 C   0  0  0  0  0  0  0  0  0  0  0  0
   25.8890   53.2070   -3.3840 C   0  0  0  0  0  0  0  0  0  0  0  0
   26.1060   54.2980   -2.0700 Cl  0  0  0  0  0  0  0  0  0  0  0  0
   26.5840   53.1450   -7.1210 C   0  0  0  0  0  0  0  0  0  0  0  0
   26.3060   53.5800   -4.6610 C   0  0  0  0  0  0  0  0  0  0  0  0
   27.6220   52.2740   -7.8050 C   0  0  0  0  0  0  0  0  0  0  0  0
   27.3080   51.4930   -8.7020 O   0  0  0  0  0  0  0  0  0  0  0  0
   28.9320   52.4190   -7.3830 N   0  0  0  0  0  0  0  0  0  0  0  0
   29.4950   53.6480   -6.9090 C   0  0  0  0  0  0  0  0  0  0  0  0
   29.6780   51.2330   -6.9670 C   0  0  1  0  0  0  0  0  0  0  0  0
   29.4420   53.6340   -5.4900 N   0  0  0  0  0  0  0  0  0  0  0  0
   30.0470   51.2090   -5.4570 C   0  0  1  0  0  0  0  0  0  0  0  0
   28.8940   50.0180   -7.4280 C   0  0  0  0  0  0  0  0  0  0  0  0
   29.8610   52.5570   -4.7520 C   0  0  0  0  0  0  0  0  0  0  0  0
   28.4110   49.0910   -6.5920 C   0  0  0  0  0  0  0  0  0  0  0  0
   29.3490   50.1510   -4.6260 C   0  0  0  0  0  0  0  0  0  0  0  0
   30.0840   52.7020   -3.5540 O   0  0  0  0  0  0  0  0  0  0  0  0
   28.6010   49.1820   -5.1710 C   0  0  0  0  0  0  0  0  0  0  0  0
  1  2  1  0
  2  3  2  0
  2  4  1  0
  4  5  2  0
  3  6  1  0
  6  7  1  0
  5  8  1  0
  5  9  1  0
  6  9  2  0
  8 10  1  0
 10 11  2  0
 10 12  1  0
 12 13  1  0
 12 14  1  0
 13 15  1  0
 14 16  1  0
 14 17  1  1
 15 18  1  0
 16 18  1  0
 17 19  2  0
 16 20  1  1
 18 21  2  0
 19 22  1  0
 20 22  2  0
M  END
