mac-x0455-mac-x0417
     RDKit          3D

 24 26  0  0  0  0  0  0  0  0999 V2000
   30.4690   48.4270   -4.7230 C   0  0  0  0  0  0  0  0  0  0  0  0
   30.9790   47.0770   -4.2040 C   0  0  1  0  0  0  0  0  0  0  0  0
   29.9270   46.5810   -3.3510 O   0  0  0  0  0  0  0  0  0  0  0  0
   31.1460   46.1280   -5.4200 C   0  0  0  0  0  0  0  0  0  0  0  0
   32.2530   47.1610   -3.3600 C   0  0  0  0  0  0  0  0  0  0  0  0
   30.2850   45.2990   -5.7080 O   0  0  0  0  0  0  0  0  0  0  0  0
   32.3220   46.3670   -6.0630 O   0  0  0  0  0  0  0  0  0  0  0  0
   33.1050   48.2780   -3.3920 C   0  0  0  0  0  0  0  0  0  0  0  0
   32.6020   46.0930   -2.5120 C   0  0  0  0  0  0  0  0  0  0  0  0
   33.3690   45.4950   -5.9380 C   0  0  0  0  0  0  0  0  0  0  0  0
   34.2630   48.3220   -2.6030 C   0  0  0  0  0  0  0  0  0  0  0  0
   33.7590   46.1350   -1.7260 C   0  0  0  0  0  0  0  0  0  0  0  0
   34.3400   45.4040   -6.6790 O   0  0  0  0  0  0  0  0  0  0  0  0
   33.1980   44.5990   -4.7300 C   0  0  0  0  0  0  0  0  0  0  0  0
   34.5860   47.2520   -1.7750 C   0  0  0  0  0  0  0  0  0  0  0  0
   34.4210   44.5590   -3.8680 C   0  0  0  0  0  0  0  0  0  0  0  0
   34.6990   43.4330   -3.1810 N   0  0  0  0  0  0  0  0  0  0  0  0
   35.4060   45.5630   -3.6270 C   0  0  0  0  0  0  0  0  0  0  0  0
   35.8670   43.6930   -2.4800 O   0  0  0  0  0  0  0  0  0  0  0  0
   36.2870   44.9590   -2.7430 C   0  0  0  0  0  0  0  0  0  0  0  0
   35.6670   46.8880   -4.0310 C   0  0  0  0  0  0  0  0  0  0  0  0
   37.4220   45.5700   -2.2170 C   0  0  0  0  0  0  0  0  0  0  0  0
   36.8050   47.5340   -3.5160 C   0  0  0  0  0  0  0  0  0  0  0  0
   37.6640   46.8860   -2.6260 C   0  0  0  0  0  0  0  0  0  0  0  0
  2  1  1  6
  2  3  1  0
  2  4  1  0
  2  5  1  0
  4  6  2  0
  4  7  1  0
  5  8  2  0
  5  9  1  0
  7 10  1  0
  8 11  1  0
  9 12  2  0
 10 13  2  0
 10 14  1  0
 11 15  2  0
 12 15  1  0
 14 16  1  0
 16 17  2  0
 16 18  1  0
 17 19  1  0
 18 20  2  0
 19 20  1  0
 18 21  1  0
 20 22  1  0
 21 23  2  0
 22 24  2  0
 23 24  1  0
M  END
