mac-x0437-mac-x0472
     RDKit          3D

 31 34  0  0  0  0  0  0  0  0999 V2000
   31.5710   44.7100   -6.8720 O   0  0  0  0  0  0  0  0  0  0  0  0
   32.7890   44.6700   -6.3050 C   0  0  0  0  0  0  0  0  0  0  0  0
   33.7870   44.8280   -6.9890 O   0  0  0  0  0  0  0  0  0  0  0  0
   32.7710   44.4260   -4.8180 C   0  0  0  0  0  0  0  0  0  0  0  0
   32.7600   45.7260   -4.0040 C   0  0  1  0  0  0  0  0  0  0  0  0
   31.6050   45.8800   -2.9850 C   0  0  0  0  0  0  0  0  0  0  0  0
   34.0570   46.1690   -3.4840 N   0  0  0  0  0  0  0  0  0  0  0  0
   30.6570   47.0660   -3.1750 C   0  0  0  0  0  0  0  0  0  0  0  0
   34.3640   47.5030   -3.3600 C   0  0  0  0  0  0  0  0  0  0  0  0
   35.1560   45.4540   -3.0500 C   0  0  0  0  0  0  0  0  0  0  0  0
   31.4420   48.3020   -3.3130 N   0  0  0  0  0  0  0  0  0  0  0  0
   35.5670   47.6970   -2.8850 N   0  0  0  0  0  0  0  0  0  0  0  0
   36.0750   46.4450   -2.6860 C   0  0  0  0  0  0  0  0  0  0  0  0
   35.4710   44.0930   -2.9230 C   0  0  0  0  0  0  0  0  0  0  0  0
   30.7890   49.5600   -3.9120 S   0  0  2  0  0  0  0  0  0  0  0  0
   37.3370   46.0890   -2.1910 C   0  0  0  0  0  0  0  0  0  0  0  0
   36.7380   43.7570   -2.4250 C   0  0  0  0  0  0  0  0  0  0  0  0
   29.8820   50.4280   -3.1950 O   0  0  0  0  0  0  0  0  0  0  0  0
   29.9080   48.9280   -5.1810 N   0  0  0  0  0  0  0  0  0  0  0  0
   37.6580   44.7370   -2.0640 C   0  0  0  0  0  0  0  0  0  0  0  0
   32.1090   50.5320   -4.5840 C   0  0  0  0  0  0  0  0  0  0  0  0
   29.3750   49.7110   -6.1450 C   0  0  0  0  0  0  0  0  0  0  0  0
   33.1760   49.8870   -5.2160 C   0  0  0  0  0  0  0  0  0  0  0  0
   32.0730   51.9240   -4.4780 C   0  0  0  0  0  0  0  0  0  0  0  0
   29.1050   49.2610   -7.3580 N   0  0  0  0  0  0  0  0  0  0  0  0
   28.9710   51.3850   -5.9630 S   0  0  0  0  0  0  0  0  0  0  0  0
   34.2190   50.6460   -5.7460 C   0  0  0  0  0  0  0  0  0  0  0  0
   33.1210   52.6760   -5.0110 C   0  0  0  0  0  0  0  0  0  0  0  0
   28.4450   51.3760   -7.5880 C   0  0  0  0  0  0  0  0  0  0  0  0
   28.5680   50.2190   -8.1950 N   0  0  0  0  0  0  0  0  0  0  0  0
   34.1900   52.0370   -5.6430 C   0  0  0  0  0  0  0  0  0  0  0  0
  1  2  1  0
  2  3  2  0
  2  4  1  0
  5  4  1  1
  5  6  1  0
  5  7  1  0
  6  8  1  0
  7  9  1  0
  7 10  1  0
  8 11  1  0
  9 12  2  0
 10 13  2  0
 12 13  1  0
 10 14  1  0
 11 15  2  0
 13 16  1  0
 14 17  2  0
 15 18  2  0
 15 19  1  6
 16 20  2  0
 17 20  1  0
 15 21  1  0
 19 22  1  0
 21 23  2  0
 21 24  1  0
 22 25  2  0
 22 26  1  0
 23 27  1  0
 24 28  2  0
 26 29  1  0
 25 30  1  0
 29 30  2  0
 27 31  2  0
 28 31  1  0
M  END
