mac-x0321-mac-x0159
     RDKit          3D

 20 22  0  0  0  0  0  0  0  0999 V2000
   28.6110   51.9160   -7.0670 Cl  0  0  0  0  0  0  0  0  0  0  0  0
   28.4650   50.9550   -5.5510 C   0  0  1  0  0  0  0  0  0  0  0  0
   29.0520   49.4670   -5.6700 C   0  0  2  0  0  0  0  0  0  0  0  0
   28.9210   51.8350   -4.4110 C   0  0  0  0  0  0  0  0  0  0  0  0
   29.6250   49.0110   -4.2470 C   0  0  1  0  0  0  0  0  0  0  0  0
   29.8330   51.4570   -3.5150 C   0  0  0  0  0  0  0  0  0  0  0  0
   29.9860   49.3760   -6.8440 N   0  0  0  0  0  0  0  0  0  0  0  0
   28.0020   48.4230   -6.1000 C   0  0  0  0  0  0  0  0  0  0  0  0
   30.3370   47.6160   -4.1060 C   0  0  0  0  0  0  0  0  0  0  0  0
   30.4830   50.1210   -3.5730 C   0  0  0  0  0  0  0  0  0  0  0  0
   28.7230   47.4980   -6.9820 N   0  0  0  0  0  0  0  0  0  0  0  0
   29.4630   48.4070   -7.7990 C   0  0  0  0  0  0  0  0  0  0  0  0
   30.6540   47.1470   -5.4160 O   0  0  0  0  0  0  0  0  0  0  0  0
   31.6280   47.7830   -3.5420 O   0  0  0  0  0  0  0  0  0  0  0  0
   29.5320   46.5130   -3.3940 C   0  0  0  0  0  0  0  0  0  0  0  0
   29.1150   45.2810   -3.8940 C   0  0  0  0  0  0  0  0  0  0  0  0
   29.1430   46.7120   -2.0610 N   0  0  0  0  0  0  0  0  0  0  0  0
   28.4710   45.6830   -1.6040 C   0  0  0  0  0  0  0  0  0  0  0  0
   28.2460   44.3930   -2.7110 S   0  0  0  0  0  0  0  0  0  0  0  0
   27.9180   45.5920   -0.2240 C   0  0  0  0  0  0  0  0  0  0  0  0
  2  1  1  6
  2  3  1  0
  2  4  1  0
  3  5  1  0
  4  6  2  0
  3  7  1  0
  3  8  1  6
  5  9  1  6
  5 10  1  0
  6 10  1  0
  8 11  1  0
  7 12  1  0
 11 12  1  0
  9 13  1  0
  9 14  1  0
  9 15  1  0
 15 16  2  0
 15 17  1  0
 17 18  2  0
 16 19  1  0
 18 19  1  0
 18 20  1  0
M  END
