mac-x0116-mac-x0437
     RDKit          3D

 31 35  0  0  0  0  0  0  0  0999 V2000
   29.2010   53.2190   -6.5840 C   0  0  0  0  0  0  0  0  0  0  0  0
   28.8850   51.8830   -7.0830 N   0  0  0  0  0  0  0  0  0  0  0  0
   29.2020   50.8240   -6.2240 C   0  0  0  0  0  0  0  0  0  0  0  0
   30.5130   53.7800   -7.0320 C   0  0  0  0  0  0  0  0  0  0  0  0
   31.5920   53.5450   -6.2280 O   0  0  0  0  0  0  0  0  0  0  0  0
   30.8980   54.5180   -8.1310 C   0  0  0  0  0  0  0  0  0  0  0  0
   32.2890   54.7470   -7.9900 C   0  0  0  0  0  0  0  0  0  0  0  0
   32.6620   54.1350   -6.8170 C   0  0  0  0  0  0  0  0  0  0  0  0
   29.2510   51.0110   -4.8750 N   0  0  0  0  0  0  0  0  0  0  0  0
   29.4820   49.5290   -6.7120 C   0  0  0  0  0  0  0  0  0  0  0  0
   29.5620   49.9650   -4.0840 C   0  0  0  0  0  0  0  0  0  0  0  0
   29.7890   48.5540   -5.7760 C   0  0  0  0  0  0  0  0  0  0  0  0
   29.5180   49.0010   -7.9930 N   0  0  0  0  0  0  0  0  0  0  0  0
   29.8460   48.7000   -4.4410 N   0  0  0  0  0  0  0  0  0  0  0  0
   30.0170   47.4190   -6.5020 N   0  0  0  0  0  0  0  0  0  0  0  0
   29.8430   47.7320   -7.8270 C   0  0  0  0  0  0  0  0  0  0  0  0
   30.3780   46.1170   -5.9690 C   0  0  0  0  0  0  0  0  0  0  0  0
   31.3750   45.5360   -6.8210 O   0  0  0  0  0  0  0  0  0  0  0  0
   32.6100   45.4040   -6.2540 C   0  0  0  0  0  0  0  0  0  0  0  0
   33.6240   45.9380   -6.6810 O   0  0  0  0  0  0  0  0  0  0  0  0
   32.5840   44.5040   -5.0400 C   0  0  0  0  0  0  0  0  0  0  0  0
   32.6600   45.2530   -3.7100 C   0  0  0  0  0  0  0  0  0  0  0  0
   33.9330   45.9110   -3.4570 N   0  0  0  0  0  0  0  0  0  0  0  0
   34.1470   47.2560   -3.5860 C   0  0  0  0  0  0  0  0  0  0  0  0
   35.1120   45.3290   -3.0540 C   0  0  0  0  0  0  0  0  0  0  0  0
   35.3850   47.5840   -3.2950 N   0  0  0  0  0  0  0  0  0  0  0  0
   36.0000   46.4040   -2.9630 C   0  0  0  0  0  0  0  0  0  0  0  0
   35.4950   44.0140   -2.7650 C   0  0  0  0  0  0  0  0  0  0  0  0
   37.3250   46.1740   -2.5700 C   0  0  0  0  0  0  0  0  0  0  0  0
   36.8220   43.8060   -2.3740 C   0  0  0  0  0  0  0  0  0  0  0  0
   37.7260   44.8660   -2.2770 C   0  0  0  0  0  0  0  0  0  0  0  0
  1  2  1  0
  2  3  1  0
  1  4  1  0
  4  5  1  0
  4  6  2  0
  6  7  1  0
  5  8  1  0
  7  8  2  0
  3  9  2  0
  3 10  1  0
  9 11  1  0
 10 12  2  0
 10 13  1  0
 11 14  2  0
 12 14  1  0
 12 15  1  0
 13 16  2  0
 15 16  1  0
 15 17  1  0
 17 18  1  0
 18 19  1  0
 19 20  2  0
 19 21  1  0
 21 22  1  0
 22 23  1  0
 23 24  1  0
 23 25  1  0
 24 26  2  0
 25 27  2  0
 26 27  1  0
 25 28  1  0
 27 29  1  0
 28 30  2  0
 29 31  2  0
 30 31  1  0
M  END
