mac-x0371
     RDKit          3D

 24 24  0  0  0  0  0  0  0  0999 V2000
   32.5050   43.0020   -5.3790 Cl  0  0  0  0  0  0  0  0  0  0  0  0
   -7.5870   30.1950  -14.8760 Cl  0  0  0  0  0  0  0  0  0  0  0  0
   31.4450   47.9090   -3.2430 Cl  0  0  0  0  0  0  0  0  0  0  0  0
   -4.2310   27.4420  -12.0550 Cl  0  0  0  0  0  0  0  0  0  0  0  0
   32.2880   46.4430   -6.8630 O   0  0  0  0  0  0  0  0  0  0  0  0
   -4.6090   26.9300  -15.0430 O   0  0  0  0  0  0  0  0  0  0  0  0
   33.3020   46.4290   -6.1360 C   0  0  0  0  0  0  0  0  0  0  0  0
   -4.1930   28.1370  -15.0350 C   0  0  0  0  0  0  0  0  0  0  0  0
   34.4280   46.8330   -6.5600 O   0  0  0  0  0  0  0  0  0  0  0  0
   -3.1070   28.4840  -15.6290 O   0  0  0  0  0  0  0  0  0  0  0  0
   33.2010   45.9240   -4.6950 C   0  0  0  0  0  0  0  0  0  0  0  0
   -5.0330   29.2180  -14.3300 C   0  0  0  0  0  0  0  0  0  0  0  0
   31.8310   45.4070   -4.2430 C   0  0  0  0  0  0  0  0  0  0  0  0
   -6.0900   28.7930  -13.2980 C   0  0  0  0  0  0  0  0  0  0  0  0
   31.4310   44.1020   -4.4950 C   0  0  0  0  0  0  0  0  0  0  0  0
   -7.3580   29.2180  -13.4530 C   0  0  0  0  0  0  0  0  0  0  0  0
   30.2030   43.6560   -4.1000 C   0  0  0  0  0  0  0  0  0  0  0  0
   -8.3700   28.9120  -12.5950 C   0  0  0  0  0  0  0  0  0  0  0  0
   29.3760   44.5000   -3.4020 C   0  0  0  0  0  0  0  0  0  0  0  0
   -8.0990   28.1340  -11.4920 C   0  0  0  0  0  0  0  0  0  0  0  0
   29.7540   45.7900   -3.1370 C   0  0  0  0  0  0  0  0  0  0  0  0
   -6.8250   27.6540  -11.3210 C   0  0  0  0  0  0  0  0  0  0  0  0
   30.9730   46.2370   -3.5630 C   0  0  0  0  0  0  0  0  0  0  0  0
   -5.8540   28.0170  -12.2270 C   0  0  0  0  0  0  0  0  0  0  0  0
  5  7  1  0
  6  8  1  0
  7  9  2  0
  8 10  1  0
  7 11  1  0
  8 12  1  0
 11 13  1  0
 12 14  1  0
  1 15  1  0
 13 15  2  0
  2 16  1  0
 14 16  1  0
 15 17  1  0
 16 18  1  0
 17 19  2  0
 18 20  1  0
 19 21  1  0
 20 22  1  0
  3 23  1  0
 13 23  1  0
 21 23  2  0
  4 24  1  0
 14 24  1  0
 22 24  1  0
M  END
