mac-x0138-mac-x1493
     RDKit          3D

 24 27  0  0  0  0  0  0  0  0999 V2000
   30.2310   48.4750   -4.3930 C   0  0  0  0  0  0  0  0  0  0  0  0
   31.0160   49.4290   -3.8620 C   0  0  0  0  0  0  0  0  0  0  0  0
   32.1870   49.0340   -3.2350 O   0  0  0  0  0  0  0  0  0  0  0  0
   29.0070   48.5310   -5.0790 N   0  0  0  0  0  0  0  0  0  0  0  0
   27.7260   48.7770   -4.6150 C   0  0  0  0  0  0  0  0  0  0  0  0
   28.8550   48.3330   -6.4460 C   0  0  0  0  0  0  0  0  0  0  0  0
   30.7930   50.8760   -3.8570 C   0  0  0  0  0  0  0  0  0  0  0  0
   26.8060   48.7490   -5.5600 N   0  0  0  0  0  0  0  0  0  0  0  0
   27.5040   48.4730   -6.7070 C   0  0  0  0  0  0  0  0  0  0  0  0
   29.8150   48.0590   -7.3530 N   0  0  0  0  0  0  0  0  0  0  0  0
   30.2490   51.5280   -4.9630 C   0  0  0  0  0  0  0  0  0  0  0  0
   31.1180   51.6490   -2.7510 C   0  0  0  0  0  0  0  0  0  0  0  0
   27.1020   48.3150   -8.0420 C   0  0  0  0  0  0  0  0  0  0  0  0
   29.3290   47.9280   -8.5930 C   0  0  0  0  0  0  0  0  0  0  0  0
   30.0490   52.9170   -4.9290 C   0  0  0  0  0  0  0  0  0  0  0  0
   30.9380   52.9900   -2.6850 N   0  0  0  0  0  0  0  0  0  0  0  0
   25.7810   48.4270   -8.4560 N   0  0  0  0  0  0  0  0  0  0  0  0
   30.2420   47.6480   -9.5920 N   0  0  0  0  0  0  0  0  0  0  0  0
   28.0440   48.0410   -8.9730 N   0  0  0  0  0  0  0  0  0  0  0  0
   30.4140   53.6130   -3.7530 C   0  0  0  0  0  0  0  0  0  0  0  0
   29.5030   53.6130   -6.0210 C   0  0  0  0  0  0  0  0  0  0  0  0
   30.2160   54.9860   -3.7170 C   0  0  0  0  0  0  0  0  0  0  0  0
   29.3180   54.9920   -5.9560 C   0  0  0  0  0  0  0  0  0  0  0  0
   29.6750   55.6790   -4.8010 C   0  0  0  0  0  0  0  0  0  0  0  0
  1  2  2  3
  2  3  1  0
  1  4  1  0
  4  5  1  0
  4  6  1  0
  2  7  1  0
  5  8  2  0
  6  9  2  0
  8  9  1  0
  6 10  1  0
  7 11  2  0
  7 12  1  0
  9 13  1  0
 10 14  2  0
 11 15  1  0
 12 16  2  0
 13 17  1  0
 14 18  1  0
 13 19  2  0
 14 19  1  0
 15 20  2  0
 16 20  1  0
 15 21  1  0
 20 22  1  0
 21 23  2  0
 22 24  2  0
 23 24  1  0
M  END
