mac-x0137-mac-x0546
     RDKit          3D

 31 35  0  0  0  0  0  0  0  0999 V2000
   32.1890   50.2550   -4.6090 F   0  0  0  0  0  0  0  0  0  0  0  0
   31.6120   49.2320   -3.9240 C   0  0  2  0  0  0  0  0  0  0  0  0
   32.4510   47.9760   -4.1240 C   0  0  0  0  0  0  0  0  0  0  0  0
   30.1860   49.0310   -4.4290 C   0  0  0  0  0  0  0  0  0  0  0  0
   30.1380   48.5770   -5.8360 N   0  0  0  0  0  0  0  0  0  0  0  0
   32.2760   47.3110   -5.5090 C   0  0  1  0  0  0  0  0  0  0  0  0
   32.9380   45.9030   -5.5610 C   0  0  0  0  0  0  0  0  0  0  0  0
   30.8360   47.3030   -6.0720 C   0  0  0  0  0  0  0  0  0  0  0  0
   29.1230   49.0510   -6.6830 C   0  0  0  0  0  0  0  0  0  0  0  0
   32.9030   45.1380   -4.2040 C   0  0  0  0  0  0  0  0  0  0  0  0
   32.2950   45.1390   -6.5670 O   0  0  0  0  0  0  0  0  0  0  0  0
   34.2720   46.0800   -6.0160 O   0  0  0  0  0  0  0  0  0  0  0  0
   28.6810   48.2420   -7.7140 N   0  0  0  0  0  0  0  0  0  0  0  0
   28.5070   50.2510   -6.6030 C   0  0  0  0  0  0  0  0  0  0  0  0
   27.7060   48.6210   -8.5910 C   0  0  0  0  0  0  0  0  0  0  0  0
   27.4470   50.5980   -7.5890 C   0  0  0  0  0  0  0  0  0  0  0  0
   28.5600   51.4190   -5.7780 C   0  0  0  0  0  0  0  0  0  0  0  0
   31.5450   44.8080   -3.6390 C   0  0  0  0  0  0  0  0  0  0  0  0
   27.0710   49.7440   -8.5840 N   0  0  0  0  0  0  0  0  0  0  0  0
   26.9440   51.7870   -7.3850 N   0  0  0  0  0  0  0  0  0  0  0  0
   27.6390   52.2570   -6.2810 C   0  0  0  0  0  0  0  0  0  0  0  0
   30.5760   45.8010   -3.0740 C   0  0  2  0  0  0  0  0  0  0  0  0
   31.0030   43.5800   -3.5620 C   0  0  0  0  0  0  0  0  0  0  0  0
   30.8500   46.5960   -1.8410 C   0  0  0  0  0  0  0  0  0  0  0  0
   29.5030   44.7860   -2.7150 C   0  0  0  0  0  0  0  0  0  0  0  0
   29.7530   43.5420   -3.0000 N   0  0  0  0  0  0  0  0  0  0  0  0
   29.8460   46.8250   -0.9710 C   0  0  0  0  0  0  0  0  0  0  0  0
   28.2840   45.2930   -2.0670 C   0  0  0  0  0  0  0  0  0  0  0  0
   30.0070   47.5510    0.1860 O   0  0  0  0  0  0  0  0  0  0  0  0
   28.5090   46.3060   -1.2100 C   0  0  0  0  0  0  0  0  0  0  0  0
   30.6080   48.8180   -0.0850 C   0  0  0  0  0  0  0  0  0  0  0  0
  2  1  1  6
  2  3  1  0
  2  4  1  0
  4  5  1  0
  3  6  1  0
  6  7  1  1
  5  8  1  0
  6  8  1  0
  5  9  1  0
  7 10  1  0
  7 11  1  0
  7 12  1  0
  9 13  1  0
  9 14  2  0
 13 15  1  0
 14 16  1  0
 14 17  1  0
 10 18  1  0
 15 19  2  0
 16 19  1  0
 16 20  2  0
 17 21  2  0
 20 21  1  0
 18 22  1  0
 18 23  2  0
 22 24  1  1
 22 25  1  0
 23 26  1  0
 25 26  2  0
 24 27  2  0
 25 28  1  0
 27 29  1  0
 27 30  1  0
 28 30  2  0
 29 31  1  0
M  END
