mac-x0365-mac-x0587
     RDKit          3D

 18 18  0  0  0  0  0  0  0  0999 V2000
   31.7630   47.3250   -3.1710 O   0  0  0  0  0  0  0  0  0  0  0  0
   30.1200   47.6370   -4.2740 S   0  0  0  0  0  0  0  0  0  0  0  0
   29.6700   47.6290   -2.6880 N   0  0  0  0  0  0  0  0  0  0  0  0
   28.8070   46.3350   -4.6320 C   0  0  0  0  0  0  0  0  0  0  0  0
   31.6260   47.7590   -5.8110 S   0  0  0  0  0  0  0  0  0  0  0  0
   29.8220   49.4460   -4.5580 C   0  0  0  0  0  0  0  0  0  0  0  0
   32.9400   46.7550   -5.3780 C   0  0  0  0  0  0  0  0  0  0  0  0
   30.0740   48.0310   -1.7230 O   0  0  0  0  0  0  0  0  0  0  0  0
   30.0000   50.2870   -3.4940 C   0  0  0  0  0  0  0  0  0  0  0  0
   29.4380   50.0760   -5.7070 C   0  0  0  0  0  0  0  0  0  0  0  0
   33.1930   45.7520   -6.4340 C   0  0  0  0  0  0  0  0  0  0  0  0
   29.8160   51.6580   -3.5340 C   0  0  0  0  0  0  0  0  0  0  0  0
   29.2310   51.4620   -5.8270 C   0  0  0  0  0  0  0  0  0  0  0  0
   30.0300   52.3450   -2.4010 F   0  0  0  0  0  0  0  0  0  0  0  0
   34.3860   45.5090   -6.8060 O   0  0  0  0  0  0  0  0  0  0  0  0
   32.2100   45.0280   -7.0840 O   0  0  0  0  0  0  0  0  0  0  0  0
   29.4340   52.1870   -4.7160 C   0  0  0  0  0  0  0  0  0  0  0  0
   29.2410   53.5690   -4.7740 O   0  0  0  0  0  0  0  0  0  0  0  0
  1  2  1  0
  2  3  1  0
  2  4  1  0
  2  5  1  0
  2  6  1  0
  5  7  1  0
  3  8  2  0
  6  9  2  0
  6 10  1  0
  7 11  1  0
  9 12  1  0
 10 13  2  0
 12 14  1  0
 11 15  2  0
 11 16  1  0
 12 17  2  0
 13 17  1  0
 17 18  1  0
M  END
