mac-x0357-mac-x0433
     RDKit          3D

 22 23  0  0  0  0  0  0  0  0999 V2000
   31.9240   43.5310   -5.0080 C   0  0  0  0  0  0  0  0  0  0  0  0
   32.9860   44.4860   -4.5430 C   0  0  0  0  0  0  0  0  0  0  0  0
   34.1360   44.0220   -3.8840 C   0  0  0  0  0  0  0  0  0  0  0  0
   32.8770   45.8770   -4.7430 C   0  0  0  0  0  0  0  0  0  0  0  0
   34.3650   42.7000   -3.6270 O   0  0  0  0  0  0  0  0  0  0  0  0
   31.7220   46.4760   -5.4180 C   0  0  0  0  0  0  0  0  0  0  0  0
   33.8730   46.7620   -4.3050 C   0  0  0  0  0  0  0  0  0  0  0  0
   35.1310   44.9010   -3.4470 C   0  0  0  0  0  0  0  0  0  0  0  0
   30.6320   46.9650   -4.9580 N   0  0  0  0  0  0  0  0  0  0  0  0
   31.9060   46.4790   -6.7450 O   0  0  0  0  0  0  0  0  0  0  0  0
   35.0010   46.2710   -3.6560 C   0  0  0  0  0  0  0  0  0  0  0  0
   29.6380   47.5080   -5.8850 C   0  0  0  0  0  0  0  0  0  0  0  0
   28.9870   48.7310   -5.2370 C   0  0  0  0  0  0  0  0  0  0  0  0
   29.2230   49.9910   -6.0700 C   0  0  0  0  0  0  0  0  0  0  0  0
   29.2520   51.2310   -5.2080 C   0  0  0  0  0  0  0  0  0  0  0  0
   29.2350   51.0510   -3.8720 N   0  0  0  0  0  0  0  0  0  0  0  0
   29.2910   52.4870   -5.7840 C   0  0  0  0  0  0  0  0  0  0  0  0
   29.2600   52.1490   -3.1120 C   0  0  0  0  0  0  0  0  0  0  0  0
   29.3140   53.5580   -4.9120 C   0  0  0  0  0  0  0  0  0  0  0  0
   29.3560   54.9610   -5.4440 C   0  0  0  0  0  0  0  0  0  0  0  0
   29.2450   51.9770   -1.7440 N   0  0  0  0  0  0  0  0  0  0  0  0
   29.2980   53.4020   -3.5750 N   0  0  0  0  0  0  0  0  0  0  0  0
  1  2  1  0
  2  3  2  0
  2  4  1  0
  3  5  1  0
  4  6  1  0
  4  7  2  0
  3  8  1  0
  6  9  2  3
  6 10  1  0
  7 11  1  0
  8 11  2  0
  9 12  1  0
 12 13  1  0
 13 14  1  0
 14 15  1  0
 15 16  2  0
 15 17  1  0
 16 18  1  0
 17 19  2  0
 19 20  1  0
 18 21  1  0
 18 22  2  0
 19 22  1  0
M  END
