mac-x0397-mac-x0373
     RDKit          3D

 21 23  0  0  0  0  0  0  0  0999 V2000
   29.5510   52.3400   -2.3750 Cl  0  0  0  0  0  0  0  0  0  0  0  0
   29.6470   51.2930   -3.7280 C   0  0  0  0  0  0  0  0  0  0  0  0
   29.2950   51.8440   -4.9780 C   0  0  0  0  0  0  0  0  0  0  0  0
   30.0570   49.9630   -3.5980 C   0  0  0  0  0  0  0  0  0  0  0  0
   28.8770   53.1430   -5.2660 N   0  0  0  0  0  0  0  0  0  0  0  0
   29.3680   50.9970   -6.0860 C   0  0  0  0  0  0  0  0  0  0  0  0
   30.1300   49.1270   -4.7230 C   0  0  0  0  0  0  0  0  0  0  0  0
   30.6070   47.6760   -4.5480 C   0  0  1  0  0  0  0  0  0  0  0  0
   28.6440   53.2750   -6.5470 C   0  0  0  0  0  0  0  0  0  0  0  0
   28.8980   51.8740   -7.4920 S   0  0  0  0  0  0  0  0  0  0  0  0
   29.7760   49.6500   -5.9830 C   0  0  0  0  0  0  0  0  0  0  0  0
   28.2310   54.4310   -7.1020 N   0  0  0  0  0  0  0  0  0  0  0  0
   30.3140   46.7210   -5.7110 C   0  0  0  0  0  0  0  0  0  0  0  0
   32.0740   47.6790   -4.1360 C   0  0  0  0  0  0  0  0  0  0  0  0
   31.2360   46.7110   -6.6980 O   0  0  0  0  0  0  0  0  0  0  0  0
   29.3430   45.9820   -5.8070 O   0  0  0  0  0  0  0  0  0  0  0  0
   32.6990   46.6100   -3.4800 C   0  0  0  0  0  0  0  0  0  0  0  0
   32.8390   48.8240   -4.4330 C   0  0  0  0  0  0  0  0  0  0  0  0
   34.0520   46.6860   -3.1310 C   0  0  0  0  0  0  0  0  0  0  0  0
   34.1860   48.8950   -4.0850 C   0  0  0  0  0  0  0  0  0  0  0  0
   34.7910   47.8260   -3.4340 C   0  0  0  0  0  0  0  0  0  0  0  0
  1  2  1  0
  2  3  2  0
  2  4  1  0
  3  5  1  0
  3  6  1  0
  4  7  2  0
  7  8  1  0
  5  9  2  0
  6 10  1  0
  9 10  1  0
  6 11  2  0
  7 11  1  0
  9 12  1  0
  8 13  1  6
  8 14  1  0
 13 15  1  0
 13 16  2  0
 14 17  2  0
 14 18  1  0
 17 19  1  0
 18 20  2  0
 19 21  2  0
 20 21  1  0
M  END
