mac-x0455-mac-x0139
     RDKit          3D

 24 26  0  0  0  0  0  0  0  0999 V2000
   30.2060   48.1690   -3.9120 C   0  0  0  0  0  0  0  0  0  0  0  0
   30.8360   46.7940   -4.2630 C   0  0  1  0  0  0  0  0  0  0  0  0
   30.0980   45.8780   -3.4220 O   0  0  0  0  0  0  0  0  0  0  0  0
   30.5920   46.4170   -5.8080 C   0  0  2  0  0  0  0  0  0  0  0  0
   32.3130   46.7690   -3.8270 C   0  0  0  0  0  0  0  0  0  0  0  0
   30.0820   45.0680   -5.8190 O   0  0  0  0  0  0  0  0  0  0  0  0
   31.9070   46.4620   -6.4420 O   0  0  0  0  0  0  0  0  0  0  0  0
   33.1250   47.9210   -3.8840 C   0  0  0  0  0  0  0  0  0  0  0  0
   32.9040   45.5840   -3.3500 C   0  0  0  0  0  0  0  0  0  0  0  0
   29.5390   47.3380   -6.5630 C   0  0  1  0  0  0  0  0  0  0  0  0
   32.3970   45.4010   -7.1090 C   0  0  0  0  0  0  0  0  0  0  0  0
   34.4640   47.8860   -3.4820 C   0  0  0  0  0  0  0  0  0  0  0  0
   34.2430   45.5490   -2.9490 C   0  0  0  0  0  0  0  0  0  0  0  0
   30.0020   48.7220   -7.0470 C   0  0  1  0  0  0  0  0  0  0  0  0
   28.9430   46.5880   -7.7420 N   0  0  0  0  0  0  0  0  0  0  0  0
   31.8290   44.3910   -7.4780 O   0  0  0  0  0  0  0  0  0  0  0  0
   33.7020   45.6450   -7.3240 O   0  0  0  0  0  0  0  0  0  0  0  0
   35.0210   46.7000   -3.0150 C   0  0  0  0  0  0  0  0  0  0  0  0
   28.7070   49.3630   -7.6300 C   0  0  2  0  0  0  0  0  0  0  0  0
   27.8410   47.2730   -8.4150 C   0  0  0  0  0  0  0  0  0  0  0  0
   30.5110   49.8620   -6.1980 C   0  0  0  0  0  0  0  0  0  0  0  0
   28.2030   48.6350   -8.7690 N   0  0  0  0  0  0  0  0  0  0  0  0
   29.0120   50.7850   -7.6100 N   0  0  0  0  0  0  0  0  0  0  0  0
   29.9040   50.9940   -6.5790 C   0  0  0  0  0  0  0  0  0  0  0  0
  2  1  1  6
  2  3  1  0
  2  4  1  0
  2  5  1  0
  4  6  1  1
  4  7  1  0
  5  8  2  0
  5  9  1  0
  4 10  1  0
  7 11  1  0
  8 12  1  0
  9 13  2  0
 10 14  1  0
 10 15  1  6
 11 16  2  0
 11 17  1  0
 12 18  2  0
 13 18  1  0
 14 19  1  0
 15 20  1  0
 14 21  1  1
 19 22  1  6
 20 22  1  0
 19 23  1  0
 21 24  2  0
 23 24  1  0
M  END
