mac-x0576-mac-x0124
     RDKit          3D

 16 18  0  0  0  0  0  0  0  0999 V2000
   28.5710   47.8450   -9.1180 N   0  0  0  0  0  0  0  0  0  0  0  0
   29.3390   48.3680   -8.0310 C   0  0  1  0  0  0  0  0  0  0  0  0
   29.2410   49.8390   -7.9790 N   0  0  0  0  0  0  0  0  0  0  0  0
   28.9810   47.6700   -6.8340 N   0  0  0  0  0  0  0  0  0  0  0  0
   27.8700   50.3820   -7.9600 N   0  0  0  0  0  0  0  0  0  0  0  0
   29.7680   48.1930   -5.7430 C   0  0  1  0  0  0  0  0  0  0  0  0
   29.9820   50.4300   -6.8610 C   0  0  2  0  0  0  0  0  0  0  0  0
   29.6490   49.7480   -5.5040 C   0  0  1  0  0  0  0  0  0  0  0  0
   29.7160   51.8570   -6.8860 N   0  0  0  0  0  0  0  0  0  0  0  0
   29.7220   47.7030   -4.3720 N   0  0  0  0  0  0  0  0  0  0  0  0
   29.1250   52.5320   -5.8440 C   0  0  0  0  0  0  0  0  0  0  0  0
   28.3750   50.2840   -5.0000 N   0  0  0  0  0  0  0  0  0  0  0  0
   30.5490   48.5890   -3.7090 C   0  0  0  0  0  0  0  0  0  0  0  0
   30.5760   49.7940   -4.3120 C   0  0  0  0  0  0  0  0  0  0  0  0
   29.0350   53.7570   -5.8740 O   0  0  0  0  0  0  0  0  0  0  0  0
   28.5870   51.7060   -4.6670 C   0  0  0  0  0  0  0  0  0  0  0  0
  2  1  1  6
  2  3  1  0
  2  4  1  0
  3  5  1  0
  6  4  1  6
  3  7  1  0
  6  8  1  0
  7  8  1  0
  7  9  1  1
  6 10  1  0
  9 11  1  0
  8 12  1  0
 10 13  1  0
  8 14  1  1
 13 14  2  0
 11 15  2  0
 11 16  1  0
 12 16  1  0
M  END
