mac-x0271-mac-x1494
     RDKit          3D

 18 20  0  0  0  0  0  0  0  0999 V2000
   28.6330   50.1810   -2.9630 O   0  0  0  0  0  0  0  0  0  0  0  0
   29.8340   50.8730   -3.2710 C   0  0  1  0  0  0  0  0  0  0  0  0
   30.1810   50.5610   -4.7360 C   0  0  2  0  0  0  0  0  0  0  0  0
   29.6660   52.3450   -2.9100 C   0  0  0  0  0  0  0  0  0  0  0  0
   30.8620   50.2800   -2.3850 C   0  0  0  0  0  0  0  0  0  0  0  0
   29.6990   53.2290   -4.1430 C   0  0  1  0  0  0  0  0  0  0  0  0
   29.2950   51.3430   -5.7130 C   0  0  0  0  0  0  0  0  0  0  0  0
   30.2400   49.0230   -4.9590 C   0  0  0  0  0  0  0  0  0  0  0  0
   31.1960   49.0180   -2.5720 C   0  0  0  0  0  0  0  0  0  0  0  0
   28.9710   50.8980   -6.8210 O   0  0  0  0  0  0  0  0  0  0  0  0
   28.8190   52.7200   -5.2630 C   0  0  2  0  0  0  0  0  0  0  0  0
   29.3580   54.5790   -3.7610 O   0  0  0  0  0  0  0  0  0  0  0  0
   30.5440   48.2120   -3.6570 C   0  0  2  0  0  0  0  0  0  0  0  0
   31.6180   46.8190   -3.9530 Cl  0  0  0  0  0  0  0  0  0  0  0  0
   28.7790   53.7320   -6.3680 C   0  0  0  0  0  0  0  0  0  0  0  0
   29.1540   55.5240   -4.7070 C   0  0  0  0  0  0  0  0  0  0  0  0
   29.1470   56.7210   -4.4500 O   0  0  0  0  0  0  0  0  0  0  0  0
   28.9360   55.0390   -6.0880 C   0  0  0  0  0  0  0  0  0  0  0  0
  2  1  1  1
  2  3  1  0
  2  4  1  0
  2  5  1  0
  6  4  1  1
  3  7  1  0
  3  8  1  1
  5  9  2  0
  7 10  2  0
  6 11  1  0
  7 11  1  0
  6 12  1  0
  8 13  1  0
  9 13  1  0
 13 14  1  6
 11 15  1  6
 12 16  1  0
 16 17  2  0
 15 18  2  0
 16 18  1  0
M  END
