mac-x0309
     RDKit          3D

 11 12  0  0  0  0  0  0  0  0999 V2000
    4.2500   13.2130   18.7580 O   0  0  0  0  0  0  0  0  0  0  0  0
    5.4160   13.1420   18.8950 C   0  0  0  0  0  0  0  0  0  0  0  0
    6.4360   13.5950   17.9710 N   0  0  0  0  0  0  0  0  0  0  0  0
    7.7880   13.2470   18.6000 C   0  0  0  0  0  0  0  0  0  0  0  0
    9.1080   13.4630   18.1740 C   0  0  0  0  0  0  0  0  0  0  0  0
   10.1820   13.0580   18.9720 C   0  0  0  0  0  0  0  0  0  0  0  0
    9.9310   12.4480   20.2290 C   0  0  0  0  0  0  0  0  0  0  0  0
    8.6150   12.2420   20.6730 C   0  0  0  0  0  0  0  0  0  0  0  0
    7.5430   12.6300   19.8700 C   0  0  0  0  0  0  0  0  0  0  0  0
    6.0550   12.5410   20.0540 C   0  0  0  0  0  0  0  0  0  0  0  0
    5.4490   12.1200   20.9730 O   0  0  0  0  0  0  0  0  0  0  0  0
  1  2  2  0
  2  3  1  0
  3  4  1  0
  4  5  2  0
  5  6  1  0
  6  7  2  0
  7  8  1  0
  4  9  1  0
  8  9  2  0
  2 10  1  0
  9 10  1  0
 10 11  2  0
M  END
