mac-x0190-mac-x0178
     RDKit          3D

 27 29  0  0  0  0  0  0  0  0999 V2000
   28.6640   56.7830   -5.4420 O   0  0  0  0  0  0  0  0  0  0  0  0
   29.8670   56.1600   -5.0050 C   0  0  0  0  0  0  0  0  0  0  0  0
   29.6120   54.6970   -4.9560 C   0  0  0  0  0  0  0  0  0  0  0  0
   29.7150   53.9660   -3.8000 N   0  0  0  0  0  0  0  0  0  0  0  0
   29.2630   53.9270   -5.9740 N   0  0  0  0  0  0  0  0  0  0  0  0
   29.4170   52.6620   -4.0870 C   0  0  0  0  0  0  0  0  0  0  0  0
   29.1400   52.6610   -5.4510 C   0  0  0  0  0  0  0  0  0  0  0  0
   29.3650   51.5100   -3.2950 C   0  0  0  0  0  0  0  0  0  0  0  0
   28.7930   51.4570   -6.0770 C   0  0  0  0  0  0  0  0  0  0  0  0
   29.0120   50.3040   -3.9240 C   0  0  0  0  0  0  0  0  0  0  0  0
   28.7310   50.2870   -5.3040 C   0  0  0  0  0  0  0  0  0  0  0  0
   28.9290   49.0180   -3.1190 C   0  0  0  0  0  0  0  0  0  0  0  0
   27.7300   48.1320   -3.4820 C   0  0  0  0  0  0  0  0  0  0  0  0
   27.1110   47.3010   -2.3450 C   0  0  0  0  0  0  0  0  0  0  0  0
   27.7950   47.5030   -1.0510 N   0  0  0  0  0  0  0  0  0  0  0  0
   29.0330   46.6530   -0.7500 S   0  0  2  0  0  0  0  0  0  0  0  0
   28.3100   45.2000   -0.3350 N   0  0  0  0  0  0  0  0  0  0  0  0
   29.9660   46.8640    0.3260 O   0  0  0  0  0  0  0  0  0  0  0  0
   29.9030   46.4620   -2.2690 C   0  0  0  0  0  0  0  0  0  0  0  0
   29.3390   45.6920   -3.2880 C   0  0  0  0  0  0  0  0  0  0  0  0
   31.1410   47.0880   -2.4370 C   0  0  0  0  0  0  0  0  0  0  0  0
   30.0210   45.5510   -4.4950 C   0  0  0  0  0  0  0  0  0  0  0  0
   31.8180   46.9440   -3.6490 C   0  0  0  0  0  0  0  0  0  0  0  0
   31.2600   46.1780   -4.6800 C   0  0  0  0  0  0  0  0  0  0  0  0
   32.0020   46.0520   -5.9550 C   0  0  0  0  0  0  0  0  0  0  0  0
   31.5180   45.7280   -7.0230 O   0  0  0  0  0  0  0  0  0  0  0  0
   33.3050   46.3410   -5.8350 O   0  0  0  0  0  0  0  0  0  0  0  0
  1  2  1  0
  2  3  1  0
  3  4  1  0
  3  5  2  0
  4  6  1  0
  5  7  1  0
  6  7  2  0
  6  8  1  0
  7  9  1  0
  8 10  2  0
  9 11  2  0
 10 11  1  0
 10 12  1  0
 12 13  1  0
 13 14  1  0
 14 15  1  0
 15 16  2  0
 16 17  1  1
 16 18  2  0
 16 19  1  0
 19 20  2  0
 19 21  1  0
 20 22  1  0
 21 23  2  0
 22 24  2  0
 23 24  1  0
 24 25  1  0
 25 26  2  0
 25 27  1  0
M  END
