mac-x0373-mac-x0411
     RDKit          3D

 28 30  0  0  0  0  0  0  0  0999 V2000
   32.1240   45.9930   -6.1460 O   0  0  0  0  0  0  0  0  0  0  0  0
   30.9240   46.4650   -5.7000 C   0  0  0  0  0  0  0  0  0  0  0  0
   29.8120   46.0460   -6.0180 O   0  0  0  0  0  0  0  0  0  0  0  0
   32.6650   44.8680   -5.5870 C   0  0  0  0  0  0  0  0  0  0  0  0
   31.0900   47.6350   -4.7050 C   0  0  0  0  0  0  0  0  0  0  0  0
   33.0240   43.8470   -6.1600 O   0  0  0  0  0  0  0  0  0  0  0  0
   32.7810   45.0560   -4.0770 C   0  0  0  0  0  0  0  0  0  0  0  0
   34.0230   44.5450   -3.5830 O   0  0  0  0  0  0  0  0  0  0  0  0
   32.5310   48.1570   -4.5260 C   0  0  0  0  0  0  0  0  0  0  0  0
   30.0940   48.7850   -4.8770 C   0  0  0  0  0  0  0  0  0  0  0  0
   33.6720   47.5500   -5.0810 C   0  0  0  0  0  0  0  0  0  0  0  0
   32.7140   49.3190   -3.7550 C   0  0  0  0  0  0  0  0  0  0  0  0
   29.5820   49.5150   -3.7900 C   0  0  0  0  0  0  0  0  0  0  0  0
   29.6680   49.1390   -6.1720 C   0  0  0  0  0  0  0  0  0  0  0  0
   34.8950   45.5390   -3.1790 C   0  0  0  0  0  0  0  0  0  0  0  0
   34.9450   48.0880   -4.8680 C   0  0  0  0  0  0  0  0  0  0  0  0
   33.9880   49.8540   -3.5460 C   0  0  0  0  0  0  0  0  0  0  0  0
   28.6780   50.5600   -3.9900 C   0  0  0  0  0  0  0  0  0  0  0  0
   28.7640   50.1830   -6.3710 C   0  0  0  0  0  0  0  0  0  0  0  0
   34.4480   46.5820   -2.3400 C   0  0  0  0  0  0  0  0  0  0  0  0
   36.2420   45.5380   -3.5860 C   0  0  0  0  0  0  0  0  0  0  0  0
   36.8940   44.3090   -4.6030 Cl  0  0  0  0  0  0  0  0  0  0  0  0
   32.8220   46.6780   -1.7680 Cl  0  0  0  0  0  0  0  0  0  0  0  0
   35.1020   49.2360   -4.1040 C   0  0  0  0  0  0  0  0  0  0  0  0
   28.2690   50.8960   -5.2780 C   0  0  0  0  0  0  0  0  0  0  0  0
   35.3280   47.5900   -1.9320 C   0  0  0  0  0  0  0  0  0  0  0  0
   37.1130   46.5510   -3.1730 C   0  0  0  0  0  0  0  0  0  0  0  0
   36.6570   47.5770   -2.3480 C   0  0  0  0  0  0  0  0  0  0  0  0
  1  2  1  0
  2  3  2  0
  1  4  1  0
  2  5  1  0
  4  6  2  0
  4  7  1  0
  7  8  1  0
  5  9  1  0
  5 10  1  0
  9 11  2  0
  9 12  1  0
 10 13  2  0
 10 14  1  0
  8 15  1  0
 11 16  1  0
 12 17  2  0
 13 18  1  0
 14 19  2  0
 15 20  2  0
 15 21  1  0
 21 22  1  0
 20 23  1  0
 16 24  2  0
 17 24  1  0
 18 25  2  0
 19 25  1  0
 20 26  1  0
 21 27  2  0
 26 28  2  0
 27 28  1  0
M  END
