mac-x0587-mac-x0159
     RDKit          3D

 25 27  0  0  0  0  0  0  0  0999 V2000
   30.4170   46.0160   -5.2140 C   0  0  0  0  0  0  0  0  0  0  0  0
   30.6080   46.5890   -3.7970 C   0  0  1  0  0  0  0  0  0  0  0  0
   32.4510   46.3340   -3.4710 S   0  0  0  0  0  0  0  0  0  0  0  0
   30.3450   48.1330   -3.7590 C   0  0  0  0  0  0  0  0  0  0  0  0
   29.6250   45.7790   -3.0140 C   0  0  0  0  0  0  0  0  0  0  0  0
   33.1100   45.1660   -4.7040 C   0  0  0  0  0  0  0  0  0  0  0  0
   30.4130   48.6980   -2.6520 O   0  0  0  0  0  0  0  0  0  0  0  0
   30.0430   48.9230   -4.8620 N   0  0  0  0  0  0  0  0  0  0  0  0
   29.0500   44.5820   -3.4110 C   0  0  0  0  0  0  0  0  0  0  0  0
   29.2040   46.2210   -1.7720 N   0  0  0  0  0  0  0  0  0  0  0  0
   33.2800   45.6560   -6.1190 C   0  0  0  0  0  0  0  0  0  0  0  0
   29.8040   50.3460   -4.7170 C   0  0  0  0  0  0  0  0  0  0  0  0
   29.1940   48.4400   -5.9280 C   0  0  1  0  0  0  0  0  0  0  0  0
   28.3420   45.3820   -1.2580 C   0  0  0  0  0  0  0  0  0  0  0  0
   27.9750   44.0110   -2.2180 S   0  0  0  0  0  0  0  0  0  0  0  0
   34.2540   46.1900   -6.6210 O   0  0  0  0  0  0  0  0  0  0  0  0
   32.1720   45.4110   -6.8490 O   0  0  0  0  0  0  0  0  0  0  0  0
   28.2720   47.5300   -5.4620 O   0  0  0  0  0  0  0  0  0  0  0  0
   27.6970   45.5630    0.0680 C   0  0  0  0  0  0  0  0  0  0  0  0
   29.2150   50.7740   -6.0630 C   0  0  1  0  0  0  0  0  0  0  0  0
   28.5180   49.5900   -6.5310 N   0  0  0  0  0  0  0  0  0  0  0  0
   29.9380   47.8600   -7.0010 N   0  0  0  0  0  0  0  0  0  0  0  0
   28.3040   51.9290   -6.0480 N   0  0  0  0  0  0  0  0  0  0  0  0
   28.5350   49.3540   -8.0050 N   0  0  0  0  0  0  0  0  0  0  0  0
   29.0130   47.9780   -8.1040 C   0  0  0  0  0  0  0  0  0  0  0  0
  2  1  1  6
  2  3  1  0
  2  4  1  0
  2  5  1  0
  3  6  1  0
  4  7  2  0
  4  8  1  0
  5  9  2  0
  5 10  1  0
  6 11  1  0
  8 12  1  0
  8 13  1  0
 10 14  2  0
  9 15  1  0
 14 15  1  0
 11 16  2  0
 11 17  1  0
 13 18  1  1
 14 19  1  0
 12 20  1  0
 13 21  1  0
 20 21  1  0
 13 22  1  0
 20 23  1  1
 21 24  1  0
 22 25  1  0
 24 25  1  0
M  END
