mac-x0284-mac-x0396
     RDKit          3D

 19 20  0  0  0  0  0  0  0  0999 V2000
   29.0120   51.1460   -5.8760 C   0  0  2  0  0  0  0  0  0  0  0  0
   27.6510   51.1200   -6.3820 N   0  0  0  0  0  0  0  0  0  0  0  0
   29.7980   50.9490   -7.0410 O   0  0  0  0  0  0  0  0  0  0  0  0
   29.3010   50.0100   -4.8810 C   0  0  0  0  0  0  0  0  0  0  0  0
   29.3160   52.5070   -5.2690 C   0  0  0  0  0  0  0  0  0  0  0  0
   29.7100   48.7400   -5.3540 C   0  0  0  0  0  0  0  0  0  0  0  0
   29.1750   50.1810   -3.4900 C   0  0  0  0  0  0  0  0  0  0  0  0
   30.5350   52.7450   -4.6270 C   0  0  0  0  0  0  0  0  0  0  0  0
   28.4180   53.5820   -5.3110 C   0  0  0  0  0  0  0  0  0  0  0  0
   29.9850   47.6770   -4.4710 C   0  0  0  0  0  0  0  0  0  0  0  0
   29.4460   49.1290   -2.6100 C   0  0  0  0  0  0  0  0  0  0  0  0
   30.8940   53.9230   -4.0570 N   0  0  0  0  0  0  0  0  0  0  0  0
   28.7580   54.8050   -4.7340 C   0  0  0  0  0  0  0  0  0  0  0  0
   30.4060   46.3850   -5.0710 C   0  0  0  0  0  0  0  0  0  0  0  0
   29.8480   47.8880   -3.0940 C   0  0  0  0  0  0  0  0  0  0  0  0
   29.9940   54.9240   -4.1250 C   0  0  0  0  0  0  0  0  0  0  0  0
   30.0860   46.9300   -2.1480 O   0  0  0  0  0  0  0  0  0  0  0  0
   29.7200   45.6570   -5.7650 O   0  0  0  0  0  0  0  0  0  0  0  0
   31.6820   46.0530   -4.7770 O   0  0  0  0  0  0  0  0  0  0  0  0
  1  2  1  6
  1  3  1  0
  1  4  1  0
  1  5  1  0
  4  6  2  0
  4  7  1  0
  5  8  2  0
  5  9  1  0
  6 10  1  0
  7 11  2  0
  8 12  1  0
  9 13  2  0
 10 14  1  0
 10 15  2  0
 11 15  1  0
 12 16  2  0
 13 16  1  0
 15 17  1  0
 14 18  2  0
 14 19  1  0
M  END
