mac-x0357-mac-x0371
     RDKit          3D

 20 22  0  0  0  0  0  0  0  0999 V2000
   32.2050   43.7290   -4.6720 C   0  0  0  0  0  0  0  0  0  0  0  0
   33.4600   44.4810   -4.4360 C   0  0  0  0  0  0  0  0  0  0  0  0
   34.4090   43.8980   -3.6210 C   0  0  0  0  0  0  0  0  0  0  0  0
   31.1340   44.5130   -4.0170 C   0  0  0  0  0  0  0  0  0  0  0  0
   33.6610   45.6710   -4.9750 C   0  0  0  0  0  0  0  0  0  0  0  0
   31.0100   45.8830   -4.0680 C   0  0  0  0  0  0  0  0  0  0  0  0
   30.2730   43.7020   -3.3390 C   0  0  0  0  0  0  0  0  0  0  0  0
   34.1700   42.6560   -3.0750 O   0  0  0  0  0  0  0  0  0  0  0  0
   32.6380   46.6910   -6.0530 S   0  0  0  0  0  0  0  0  0  0  0  0
   31.8000   46.9700   -4.7370 C   0  0  0  0  0  0  0  0  0  0  0  0
   34.7940   46.4110   -4.7760 C   0  0  0  0  0  0  0  0  0  0  0  0
   35.5900   44.6140   -3.3830 C   0  0  0  0  0  0  0  0  0  0  0  0
   29.9200   46.3830   -3.3440 C   0  0  0  0  0  0  0  0  0  0  0  0
   29.2170   44.2250   -2.6510 C   0  0  0  0  0  0  0  0  0  0  0  0
   31.2390   45.8370   -6.5800 O   0  0  0  0  0  0  0  0  0  0  0  0
   33.2820   46.0940   -7.2310 O   0  0  0  0  0  0  0  0  0  0  0  0
   33.0360   48.0420   -6.3630 O   0  0  0  0  0  0  0  0  0  0  0  0
   29.7110   48.1440   -3.3540 Cl  0  0  0  0  0  0  0  0  0  0  0  0
   35.7590   45.8570   -3.9660 C   0  0  0  0  0  0  0  0  0  0  0  0
   29.0450   45.5810   -2.6550 C   0  0  0  0  0  0  0  0  0  0  0  0
  1  2  1  0
  2  3  2  0
  1  4  1  0
  2  5  1  0
  4  6  2  0
  4  7  1  0
  3  8  1  0
  5  9  1  0
  6 10  1  0
  9 10  1  0
  5 11  2  0
  3 12  1  0
  6 13  1  0
  7 14  2  0
  9 15  2  0
  9 16  1  0
  9 17  1  0
 13 18  1  0
 11 19  1  0
 12 19  2  0
 13 20  2  0
 14 20  1  0
M  END
