mac-x0555-mac-x0137
     RDKit          3D

 27 31  0  0  0  0  0  0  0  0999 V2000
   28.9840   56.1990   -6.2980 N   0  0  0  0  0  0  0  0  0  0  0  0
   29.3130   55.0880   -5.5150 C   0  0  0  0  0  0  0  0  0  0  0  0
   29.2760   55.1080   -4.1240 C   0  0  0  0  0  0  0  0  0  0  0  0
   29.6990   53.8890   -6.1060 C   0  0  0  0  0  0  0  0  0  0  0  0
   30.0260   52.7800   -5.3130 C   0  0  0  0  0  0  0  0  0  0  0  0
   29.5830   54.0600   -3.3190 N   0  0  0  0  0  0  0  0  0  0  0  0
   29.9530   52.9100   -3.9130 C   0  0  0  0  0  0  0  0  0  0  0  0
   30.4180   51.5630   -5.8890 C   0  0  0  0  0  0  0  0  0  0  0  0
   30.2760   51.8080   -3.1340 C   0  0  0  0  0  0  0  0  0  0  0  0
   30.7370   50.4710   -5.0850 C   0  0  0  0  0  0  0  0  0  0  0  0
   30.6660   50.5910   -3.7040 C   0  0  0  0  0  0  0  0  0  0  0  0
   30.9520   49.5970   -2.8150 O   0  0  0  0  0  0  0  0  0  0  0  0
   30.8180   48.2350   -3.2560 C   0  0  1  0  0  0  0  0  0  0  0  0
   29.5430   48.0270   -4.1070 C   0  0  0  0  0  0  0  0  0  0  0  0
   32.0790   47.9220   -4.0800 C   0  0  0  0  0  0  0  0  0  0  0  0
   29.8320   47.8260   -5.5500 N   0  0  0  0  0  0  0  0  0  0  0  0
   31.9380   46.6660   -4.9410 C   0  0  0  0  0  0  0  0  0  0  0  0
   30.7200   46.6910   -5.8570 C   0  0  0  0  0  0  0  0  0  0  0  0
   29.0070   48.3730   -6.5510 C   0  0  0  0  0  0  0  0  0  0  0  0
   28.9070   47.7310   -7.7770 N   0  0  0  0  0  0  0  0  0  0  0  0
   28.2720   49.5040   -6.4480 C   0  0  0  0  0  0  0  0  0  0  0  0
   28.1360   48.2040   -8.8000 C   0  0  0  0  0  0  0  0  0  0  0  0
   27.4480   49.9580   -7.6030 C   0  0  0  0  0  0  0  0  0  0  0  0
   28.0100   50.5110   -5.4660 C   0  0  0  0  0  0  0  0  0  0  0  0
   27.4100   49.2700   -8.7820 N   0  0  0  0  0  0  0  0  0  0  0  0
   26.7910   51.0590   -7.3550 N   0  0  0  0  0  0  0  0  0  0  0  0
   27.1550   51.3700   -6.0490 C   0  0  0  0  0  0  0  0  0  0  0  0
  1  2  1  0
  2  3  2  0
  2  4  1  0
  4  5  2  0
  3  6  1  0
  5  7  1  0
  6  7  2  0
  5  8  1  0
  7  9  1  0
  8 10  2  0
  9 11  2  0
 10 11  1  0
 11 12  1  0
 13 12  1  6
 13 14  1  0
 13 15  1  0
 14 16  1  0
 15 17  1  0
 16 18  1  0
 17 18  1  0
 16 19  1  0
 19 20  1  0
 19 21  2  0
 20 22  1  0
 21 23  1  0
 21 24  1  0
 22 25  2  0
 23 25  1  0
 23 26  2  0
 24 27  2  0
 26 27  1  0
M  END
