mac-x0344-mac-x0358
     RDKit          3D

 18 20  0  0  0  0  0  0  0  0999 V2000
   32.0950   43.8750   -4.5050 O   0  0  0  0  0  0  0  0  0  0  0  0
   32.2260   45.2400   -4.8070 C   0  0  0  0  0  0  0  0  0  0  0  0
   31.4260   45.5150   -5.9430 O   0  0  0  0  0  0  0  0  0  0  0  0
   33.7000   45.7800   -4.9470 C   0  0  0  0  0  0  0  0  0  0  0  0
   31.8240   46.0500   -3.5960 C   0  0  0  0  0  0  0  0  0  0  0  0
   34.3080   45.9310   -5.9960 O   0  0  0  0  0  0  0  0  0  0  0  0
   34.0940   46.0540   -3.6210 N   0  0  0  0  0  0  0  0  0  0  0  0
   32.9670   46.5110   -2.9460 C   0  0  0  0  0  0  0  0  0  0  0  0
   30.5630   46.3560   -3.1080 C   0  0  0  0  0  0  0  0  0  0  0  0
   35.3500   46.5000   -3.1940 C   0  0  0  0  0  0  0  0  0  0  0  0
   32.8810   47.2980   -1.8080 C   0  0  0  0  0  0  0  0  0  0  0  0
   30.4660   47.1440   -1.9590 C   0  0  0  0  0  0  0  0  0  0  0  0
   36.2750   45.6200   -2.6120 C   0  0  0  0  0  0  0  0  0  0  0  0
   35.7060   47.8430   -3.3250 C   0  0  0  0  0  0  0  0  0  0  0  0
   31.6180   47.6140   -1.3150 C   0  0  0  0  0  0  0  0  0  0  0  0
   37.5180   46.0820   -2.1750 C   0  0  0  0  0  0  0  0  0  0  0  0
   36.9430   48.3070   -2.8900 C   0  0  0  0  0  0  0  0  0  0  0  0
   37.8500   47.4250   -2.3130 C   0  0  0  0  0  0  0  0  0  0  0  0
  2  1  1  0
  2  3  1  0
  2  4  1  0
  2  5  1  0
  4  6  2  0
  4  7  1  0
  5  8  2  0
  7  8  1  0
  5  9  1  0
  7 10  1  0
  8 11  1  0
  9 12  2  0
 10 13  2  0
 10 14  1  0
 11 15  2  0
 12 15  1  0
 13 16  1  0
 14 17  2  0
 16 18  2  0
 17 18  1  0
M  END
