mac-x0357-mac-x0328
     RDKit          3D

 20 21  0  0  0  0  0  0  0  0999 V2000
   32.1310   43.8780   -4.7810 C   0  0  0  0  0  0  0  0  0  0  0  0
   33.1230   44.8570   -4.3010 C   0  0  0  0  0  0  0  0  0  0  0  0
   34.2870   44.4380   -3.6490 C   0  0  0  0  0  0  0  0  0  0  0  0
   32.8530   46.1920   -4.5240 C   0  0  0  0  0  0  0  0  0  0  0  0
   34.5870   43.1110   -3.4110 O   0  0  0  0  0  0  0  0  0  0  0  0
   31.6390   46.6090   -5.2020 C   0  0  0  0  0  0  0  0  0  0  0  0
   33.8030   47.0770   -4.0610 C   0  0  0  0  0  0  0  0  0  0  0  0
   35.2150   45.3920   -3.2030 C   0  0  0  0  0  0  0  0  0  0  0  0
   30.6360   47.1550   -4.8730 N   0  0  0  0  0  0  0  0  0  0  0  0
   31.6600   46.2850   -6.6160 O   0  0  0  0  0  0  0  0  0  0  0  0
   34.9580   46.7070   -3.4170 C   0  0  0  0  0  0  0  0  0  0  0  0
   29.5110   47.7680   -4.5010 C   0  0  2  0  0  0  0  0  0  0  0  0
   28.5280   47.6570   -5.5280 O   0  0  0  0  0  0  0  0  0  0  0  0
   29.7410   49.2580   -4.3760 C   0  0  0  0  0  0  0  0  0  0  0  0
   29.3880   50.1070   -5.3950 C   0  0  0  0  0  0  0  0  0  0  0  0
   30.3060   49.8050   -3.2480 C   0  0  0  0  0  0  0  0  0  0  0  0
   29.5960   51.4880   -5.2880 C   0  0  0  0  0  0  0  0  0  0  0  0
   30.5260   51.1610   -3.1080 C   0  0  0  0  0  0  0  0  0  0  0  0
   30.1650   51.9950   -4.1380 C   0  0  0  0  0  0  0  0  0  0  0  0
   30.3800   53.3670   -4.0150 O   0  0  0  0  0  0  0  0  0  0  0  0
  1  2  1  0
  2  3  2  0
  2  4  1  0
  3  5  1  0
  4  6  1  0
  4  7  2  0
  3  8  1  0
  6  9  2  3
  6 10  1  0
  7 11  1  0
  8 11  2  0
  9 12  1  0
 12 13  1  6
 12 14  1  0
 14 15  2  0
 14 16  1  0
 15 17  1  0
 16 18  2  0
 17 19  2  0
 18 19  1  0
 19 20  1  0
M  END
