mac-x0306-mac-x0277
     RDKit          3D

 25 27  0  0  0  0  0  0  0  0999 V2000
   27.4940   46.1770   -0.9340 Cl  0  0  0  0  0  0  0  0  0  0  0  0
   28.8680   45.8740   -1.9410 C   0  0  0  0  0  0  0  0  0  0  0  0
   30.0510   46.6270   -1.8560 C   0  0  0  0  0  0  0  0  0  0  0  0
   28.7560   44.8300   -2.8640 C   0  0  0  0  0  0  0  0  0  0  0  0
   30.2260   47.7670   -0.8750 C   0  0  0  0  0  0  0  0  0  0  0  0
   31.1120   46.2950   -2.7260 C   0  0  0  0  0  0  0  0  0  0  0  0
   29.8140   44.5160   -3.7170 C   0  0  0  0  0  0  0  0  0  0  0  0
   29.6150   49.1120   -1.3000 C   0  0  0  0  0  0  0  0  0  0  0  0
   31.0060   45.2470   -3.6560 C   0  0  0  0  0  0  0  0  0  0  0  0
   32.1600   44.9120   -4.5740 C   0  0  0  0  0  0  0  0  0  0  0  0
   30.5680   50.0330   -2.0690 C   0  0  0  0  0  0  0  0  0  0  0  0
   32.2670   45.7820   -5.8060 C   0  0  0  0  0  0  0  0  0  0  0  0
   30.0030   50.5520   -3.3660 C   0  0  0  0  0  0  0  0  0  0  0  0
   33.4200   46.4900   -5.8190 O   0  0  0  0  0  0  0  0  0  0  0  0
   31.4740   45.9020   -6.7240 O   0  0  0  0  0  0  0  0  0  0  0  0
   29.9290   51.9200   -3.6100 C   0  0  0  0  0  0  0  0  0  0  0  0
   29.5830   49.6320   -4.2580 N   0  0  0  0  0  0  0  0  0  0  0  0
   29.0770   50.0780   -5.4250 C   0  0  0  0  0  0  0  0  0  0  0  0
   29.4020   52.3700   -4.8240 C   0  0  0  0  0  0  0  0  0  0  0  0
   29.2930   53.7900   -5.1580 C   0  0  0  0  0  0  0  0  0  0  0  0
   28.9680   51.4160   -5.7480 C   0  0  0  0  0  0  0  0  0  0  0  0
   28.8020   54.2900   -6.3440 N   0  0  0  0  0  0  0  0  0  0  0  0
   29.6470   54.7940   -4.3720 N   0  0  0  0  0  0  0  0  0  0  0  0
   29.3810   55.9460   -5.0630 C   0  0  0  0  0  0  0  0  0  0  0  0
   28.8530   55.6540   -6.2960 C   0  0  0  0  0  0  0  0  0  0  0  0
  1  2  1  0
  2  3  2  0
  2  4  1  0
  3  5  1  0
  3  6  1  0
  4  7  2  0
  5  8  1  0
  6  9  2  0
  7  9  1  0
  9 10  1  0
  8 11  1  0
 10 12  1  0
 11 13  1  0
 12 14  1  0
 12 15  2  0
 13 16  2  0
 13 17  1  0
 17 18  2  0
 16 19  1  0
 19 20  1  0
 18 21  1  0
 19 21  2  0
 20 22  1  0
 20 23  2  0
 23 24  1  0
 22 25  1  0
 24 25  2  0
M  END
