mac-x0565-mac-x0178
     RDKit          3D

 19 20  0  0  0  0  0  0  0  0999 V2000
   29.1570   52.6850   -5.7430 O   0  0  0  0  0  0  0  0  0  0  0  0
   29.6760   52.6430   -4.5020 C   0  0  0  0  0  0  0  0  0  0  0  0
   29.9550   53.6740   -3.9140 O   0  0  0  0  0  0  0  0  0  0  0  0
   29.8320   51.2610   -3.9610 C   0  0  0  0  0  0  0  0  0  0  0  0
   30.0290   50.1330   -4.8180 C   0  0  0  0  0  0  0  0  0  0  0  0
   29.7750   51.0850   -2.5660 C   0  0  0  0  0  0  0  0  0  0  0  0
   30.1510   48.8580   -4.2250 C   0  0  0  0  0  0  0  0  0  0  0  0
   29.8930   49.8220   -1.9960 C   0  0  0  0  0  0  0  0  0  0  0  0
   30.0680   48.7330   -2.8240 C   0  0  0  0  0  0  0  0  0  0  0  0
   30.3500   47.5300   -4.7610 N   0  0  0  0  0  0  0  0  0  0  0  0
   31.2410   47.0410   -5.7130 C   0  0  0  0  0  0  0  0  0  0  0  0
   30.1740   47.3640   -2.4250 N   0  0  0  0  0  0  0  0  0  0  0  0
   29.8800   46.6430   -3.6910 C   0  0  0  0  0  0  0  0  0  0  0  0
   29.2820   46.8820   -1.0730 S   0  0  0  0  0  0  0  0  0  0  0  0
   30.9910   46.5200   -6.7940 O   0  0  0  0  0  0  0  0  0  0  0  0
   32.5500   47.1340   -5.3690 O   0  0  0  0  0  0  0  0  0  0  0  0
   29.1650   45.2150   -1.1700 N   0  0  0  0  0  0  0  0  0  0  0  0
   30.0270   47.1140    0.1390 O   0  0  0  0  0  0  0  0  0  0  0  0
   27.9290   47.3630   -1.2030 O   0  0  0  0  0  0  0  0  0  0  0  0
  1  2  1  0
  2  3  2  0
  2  4  1  0
  4  5  2  0
  4  6  1  0
  5  7  1  0
  6  8  2  0
  7  9  2  0
  8  9  1  0
  7 10  1  0
 10 11  1  0
  9 12  1  0
 10 13  1  0
 12 13  1  0
 12 14  1  0
 11 15  2  0
 11 16  1  0
 14 17  1  0
 14 18  2  0
 14 19  2  0
M  END
