mac-x0306-mac-x0115
     RDKit          3D

 27 30  0  0  0  0  0  0  0  0999 V2000
   27.9490   45.8280   -1.8800 C   0  0  0  0  0  0  0  0  0  0  0  0
   28.8170   44.5920   -2.0990 C   0  0  0  0  0  0  0  0  0  0  0  0
   28.0660   43.5650   -2.9420 C   0  0  0  0  0  0  0  0  0  0  0  0
   30.0180   45.0290   -2.7450 O   0  0  0  0  0  0  0  0  0  0  0  0
   30.3030   44.4630   -4.0300 C   0  0  0  0  0  0  0  0  0  0  0  0
   30.7980   45.5570   -4.9800 C   0  0  0  0  0  0  0  0  0  0  0  0
   29.7940   45.8910   -6.0160 N   0  0  0  0  0  0  0  0  0  0  0  0
   29.9620   45.3940   -7.3220 C   0  0  0  0  0  0  0  0  0  0  0  0
   29.1760   47.2280   -6.0280 C   0  0  2  0  0  0  0  0  0  0  0  0
   30.3440   43.8260   -7.7720 S   0  0  0  0  0  0  0  0  0  0  0  0
   29.7880   46.3400   -8.3350 N   0  0  0  0  0  0  0  0  0  0  0  0
   30.1270   48.1030   -6.7790 C   0  0  1  0  0  0  0  0  0  0  0  0
   28.7300   48.0760   -4.8350 C   0  0  0  0  0  0  0  0  0  0  0  0
   29.1060   49.5350   -5.2020 C   0  0  1  0  0  0  0  0  0  0  0  0
   29.7100   47.7250   -8.1800 C   0  0  0  0  0  0  0  0  0  0  0  0
   30.1170   49.4850   -6.1990 N   0  0  0  0  0  0  0  0  0  0  0  0
   29.3280   48.4640   -9.0840 O   0  0  0  0  0  0  0  0  0  0  0  0
   31.2330   49.9190   -5.4710 N   0  0  0  0  0  0  0  0  0  0  0  0
   28.2350   50.8020   -5.1990 C   0  0  0  0  0  0  0  0  0  0  0  0
   31.1140   50.6020   -4.2430 C   0  0  0  0  0  0  0  0  0  0  0  0
   28.9060   51.9280   -4.3670 C   0  0  2  0  0  0  0  0  0  0  0  0
   29.0240   53.3460   -4.9410 C   0  0  0  0  0  0  0  0  0  0  0  0
   30.1810   51.4450   -3.7340 C   0  0  0  0  0  0  0  0  0  0  0  0
   28.6240   53.7310   -6.2020 N   0  0  0  0  0  0  0  0  0  0  0  0
   29.5270   54.3940   -4.2980 N   0  0  0  0  0  0  0  0  0  0  0  0
   29.4480   55.4560   -5.1520 C   0  0  0  0  0  0  0  0  0  0  0  0
   28.8880   55.0720   -6.3450 C   0  0  0  0  0  0  0  0  0  0  0  0
  1  2  1  0
  2  3  1  0
  2  4  1  0
  4  5  1  0
  5  6  1  0
  6  7  1  0
  7  8  1  0
  7  9  1  0
  8 10  2  0
  8 11  1  0
  9 12  1  0
  9 13  1  1
 14 13  1  6
 11 15  1  0
 12 15  1  6
 12 16  1  0
 14 16  1  0
 15 17  2  0
 16 18  1  0
 14 19  1  0
 18 20  1  0
 19 21  1  0
 21 22  1  6
 20 23  2  0
 21 23  1  0
 22 24  1  0
 22 25  2  0
 25 26  1  0
 24 27  1  0
 26 27  2  0
M  END
