mac-x0319-mac-x0137
     RDKit          3D

 26 29  0  0  0  0  0  0  0  0999 V2000
   34.2220   46.0880   -6.6610 O   0  0  0  0  0  0  0  0  0  0  0  0
   33.1570   45.4910   -6.0960 C   0  0  0  0  0  0  0  0  0  0  0  0
   32.1430   45.3000   -6.7520 O   0  0  0  0  0  0  0  0  0  0  0  0
   33.4240   45.1210   -4.6460 C   0  0  0  0  0  0  0  0  0  0  0  0
   32.2800   45.4660   -3.6380 C   0  0  2  0  0  0  0  0  0  0  0  0
   31.3250   44.2080   -3.5500 C   0  0  0  0  0  0  0  0  0  0  0  0
   31.3680   46.7110   -3.9610 C   0  0  1  0  0  0  0  0  0  0  0  0
   29.8010   44.5080   -3.5210 C   0  0  1  0  0  0  0  0  0  0  0  0
   30.2550   46.7730   -2.9280 C   0  0  0  0  0  0  0  0  0  0  0  0
   31.7820   48.1950   -4.1490 C   0  0  2  0  0  0  0  0  0  0  0  0
   30.8280   46.4060   -5.3450 C   0  0  0  0  0  0  0  0  0  0  0  0
   29.0810   43.4120   -2.9800 O   0  0  0  0  0  0  0  0  0  0  0  0
   32.2640   48.7510   -2.9970 F   0  0  0  0  0  0  0  0  0  0  0  0
   29.5100   45.7170   -2.7230 C   0  0  0  0  0  0  0  0  0  0  0  0
   30.4880   48.9990   -4.4720 C   0  0  0  0  0  0  0  0  0  0  0  0
   29.4480   46.9190   -5.4410 C   0  0  0  0  0  0  0  0  0  0  0  0
   29.5430   48.3560   -5.4430 N   0  0  0  0  0  0  0  0  0  0  0  0
   28.9220   48.9910   -6.4780 C   0  0  0  0  0  0  0  0  0  0  0  0
   28.7670   48.3010   -7.6650 N   0  0  0  0  0  0  0  0  0  0  0  0
   28.4360   50.2250   -6.4500 C   0  0  0  0  0  0  0  0  0  0  0  0
   28.1470   48.8430   -8.7420 C   0  0  0  0  0  0  0  0  0  0  0  0
   27.7780   50.7620   -7.6590 C   0  0  0  0  0  0  0  0  0  0  0  0
   28.3460   51.2950   -5.5130 C   0  0  0  0  0  0  0  0  0  0  0  0
   27.6470   50.0290   -8.8060 N   0  0  0  0  0  0  0  0  0  0  0  0
   27.3510   51.9810   -7.4810 N   0  0  0  0  0  0  0  0  0  0  0  0
   27.7110   52.2760   -6.1720 C   0  0  0  0  0  0  0  0  0  0  0  0
  1  2  1  0
  2  3  2  0
  2  4  1  0
  5  4  1  6
  5  6  1  0
  5  7  1  0
  6  8  1  0
  7  9  1  1
  7 10  1  0
  7 11  1  0
  8 12  1  1
 10 13  1  1
  8 14  1  0
  9 14  2  0
 10 15  1  0
 11 16  1  0
 15 17  1  0
 16 17  1  0
 17 18  1  0
 18 19  1  0
 18 20  2  0
 19 21  1  0
 20 22  1  0
 20 23  1  0
 21 24  2  0
 22 24  1  0
 22 25  2  0
 23 26  2  0
 25 26  1  0
M  END
