mac-x0212-mac-x0142
     RDKit          3D

 27 30  0  0  0  0  0  0  0  0999 V2000
   31.1520   54.3690   -6.5720 C   0  0  0  0  0  0  0  0  0  0  0  0
   29.6330   54.2400   -5.6540 S   0  0  0  0  0  0  0  0  0  0  0  0
   28.6260   55.0240   -6.3330 O   0  0  0  0  0  0  0  0  0  0  0  0
   29.9450   54.4570   -4.2590 O   0  0  0  0  0  0  0  0  0  0  0  0
   29.2450   52.6290   -5.8220 N   0  0  0  0  0  0  0  0  0  0  0  0
   29.7160   51.6390   -4.8560 C   0  0  2  0  0  0  0  0  0  0  0  0
   30.2300   50.3720   -5.5840 C   0  0  0  0  0  0  0  0  0  0  0  0
   28.5860   51.3920   -3.8990 C   0  0  0  0  0  0  0  0  0  0  0  0
   29.3020   49.1140   -5.5430 C   0  0  1  0  0  0  0  0  0  0  0  0
   28.1680   50.1750   -3.5250 C   0  0  0  0  0  0  0  0  0  0  0  0
   28.8040   48.9140   -4.0500 C   0  0  2  0  0  0  0  0  0  0  0  0
   28.0870   49.3910   -6.4630 C   0  0  0  0  0  0  0  0  0  0  0  0
   29.9770   47.7810   -6.0720 C   0  0  1  0  0  0  0  0  0  0  0  0
   29.8840   48.5330   -3.0360 C   0  0  0  0  0  0  0  0  0  0  0  0
   30.8330   46.9510   -5.1900 N   0  0  0  0  0  0  0  0  0  0  0  0
   29.0140   46.9950   -6.8430 N   0  0  0  0  0  0  0  0  0  0  0  0
   28.3580   49.0360   -7.8540 N   0  0  0  0  0  0  0  0  0  0  0  0
   30.7060   47.6370   -3.1200 O   0  0  0  0  0  0  0  0  0  0  0  0
   29.8610   49.3240   -1.9380 O   0  0  0  0  0  0  0  0  0  0  0  0
   32.2520   47.3830   -5.2210 C   0  0  0  0  0  0  0  0  0  0  0  0
   30.7240   45.4930   -5.3290 C   0  0  0  0  0  0  0  0  0  0  0  0
   28.4590   47.6070   -8.0250 C   0  0  0  0  0  0  0  0  0  0  0  0
   32.0150   44.8210   -4.8940 C   0  0  0  0  0  0  0  0  0  0  0  0
   33.0300   46.8770   -4.0030 C   0  0  0  0  0  0  0  0  0  0  0  0
   32.1260   43.3180   -5.0430 C   0  0  0  0  0  0  0  0  0  0  0  0
   32.9240   44.2170   -5.9440 C   0  0  0  0  0  0  0  0  0  0  0  0
   32.6360   45.4480   -3.6720 C   0  0  0  0  0  0  0  0  0  0  0  0
  1  2  1  0
  2  3  2  0
  2  4  2  0
  2  5  1  0
  6  5  1  6
  6  7  1  0
  6  8  1  0
  9  7  1  1
  8 10  2  0
  9 11  1  0
 10 11  1  0
  9 12  1  0
  9 13  1  0
 11 14  1  1
 13 15  1  1
 13 16  1  0
 12 17  1  0
 14 18  2  0
 14 19  1  0
 15 20  1  0
 15 21  1  0
 16 22  1  0
 17 22  1  0
 23 21  1  0
 20 24  1  0
 23 25  1  0
 23 26  1  0
 25 26  1  0
 23 27  1  0
 24 27  1  0
M  END
