mac-x0182-mac-x0564
     RDKit          3D

 26 30  0  0  0  0  0  0  0  0999 V2000
   35.0070   43.3120   -2.7520 O   0  0  0  0  0  0  0  0  0  0  0  0
   34.8420   44.4810   -3.0640 C   0  0  0  0  0  0  0  0  0  0  0  0
   33.7860   44.9640   -3.7900 N   0  0  0  0  0  0  0  0  0  0  0  0
   35.7820   45.5620   -2.6920 C   0  0  0  0  0  0  0  0  0  0  0  0
   34.0130   46.5840   -4.2050 S   0  0  2  0  0  0  0  0  0  0  0  0
   35.4460   46.7890   -3.2530 C   0  0  0  0  0  0  0  0  0  0  0  0
   36.8990   45.4510   -1.8800 C   0  0  0  0  0  0  0  0  0  0  0  0
   32.8540   47.3390   -3.5340 N   0  0  0  0  0  0  0  0  0  0  0  0
   34.3730   46.5570   -5.6020 O   0  0  0  0  0  0  0  0  0  0  0  0
   36.1760   47.9410   -3.0480 C   0  0  0  0  0  0  0  0  0  0  0  0
   37.6610   46.5990   -1.6510 C   0  0  0  0  0  0  0  0  0  0  0  0
   37.3040   47.8350   -2.2290 C   0  0  0  0  0  0  0  0  0  0  0  0
   31.4640   47.1390   -4.0150 N   0  0  0  0  0  0  0  0  0  0  0  0
   30.6410   48.1600   -4.3820 C   0  0  0  0  0  0  0  0  0  0  0  0
   30.9620   45.8960   -4.4290 C   0  0  0  0  0  0  0  0  0  0  0  0
   29.6880   47.9310   -5.3440 C   0  0  0  0  0  0  0  0  0  0  0  0
   30.0630   45.6140   -5.3290 N   0  0  0  0  0  0  0  0  0  0  0  0
   30.5120   49.5150   -3.9870 C   0  0  0  0  0  0  0  0  0  0  0  0
   29.4770   46.6710   -6.0130 C   0  0  0  0  0  0  0  0  0  0  0  0
   31.1380   50.3920   -3.0770 C   0  0  0  0  0  0  0  0  0  0  0  0
   29.4630   50.0170   -4.7620 C   0  0  0  0  0  0  0  0  0  0  0  0
   28.9610   49.0500   -5.5880 O   0  0  0  0  0  0  0  0  0  0  0  0
   28.8610   46.5290   -7.0600 O   0  0  0  0  0  0  0  0  0  0  0  0
   30.6860   51.7160   -2.9890 C   0  0  0  0  0  0  0  0  0  0  0  0
   28.9940   51.3270   -4.6950 C   0  0  0  0  0  0  0  0  0  0  0  0
   29.6330   52.1750   -3.7830 C   0  0  0  0  0  0  0  0  0  0  0  0
  1  2  2  0
  2  3  1  0
  2  4  1  0
  5  3  1  1
  4  6  2  0
  5  6  1  0
  4  7  1  0
  5  8  2  0
  5  9  2  0
  6 10  1  0
  7 11  2  0
 10 12  2  0
 11 12  1  0
  8 13  1  0
 13 14  1  0
 13 15  1  0
 14 16  2  0
 15 17  2  0
 14 18  1  0
 16 19  1  0
 17 19  1  0
 18 20  2  0
 18 21  1  0
 16 22  1  0
 21 22  1  0
 19 23  2  0
 20 24  1  0
 21 25  2  0
 24 26  2  0
 25 26  1  0
M  END
