mac-x0439-mac-x0346
     RDKit          3D

 27 29  0  0  0  0  0  0  0  0999 V2000
   31.6360   47.0020   -2.2360 Cl  0  0  0  0  0  0  0  0  0  0  0  0
   30.1450   46.1410   -2.3980 C   0  0  0  0  0  0  0  0  0  0  0  0
   30.2100   44.7960   -3.0590 C   0  0  2  0  0  0  0  0  0  0  0  0
   28.9560   46.6270   -1.9570 C   0  0  0  0  0  0  0  0  0  0  0  0
   28.7530   47.9650   -1.2740 C   0  0  0  0  0  0  0  0  0  0  0  0
   31.0810   44.5370   -4.2430 C   0  0  0  0  0  0  0  0  0  0  0  0
   28.8970   44.6130   -3.7960 C   0  0  0  0  0  0  0  0  0  0  0  0
   27.7390   45.8130   -2.1350 C   0  0  0  0  0  0  0  0  0  0  0  0
   27.8670   48.8960   -2.1060 C   0  0  0  0  0  0  0  0  0  0  0  0
   30.3180   44.2640   -5.3130 C   0  0  0  0  0  0  0  0  0  0  0  0
   28.9640   44.3080   -5.0540 N   0  0  0  0  0  0  0  0  0  0  0  0
   27.6650   44.8120   -3.0270 C   0  0  0  0  0  0  0  0  0  0  0  0
   30.9090   43.9570   -6.6400 C   0  0  0  0  0  0  0  0  0  0  0  0
   28.3700   50.3370   -2.0570 C   0  0  0  0  0  0  0  0  0  0  0  0
   30.8930   42.6420   -6.9270 O   0  0  0  0  0  0  0  0  0  0  0  0
   31.3690   44.7710   -7.4260 O   0  0  0  0  0  0  0  0  0  0  0  0
   29.4960   50.4500   -2.9460 O   0  0  0  0  0  0  0  0  0  0  0  0
   29.0830   50.7160   -4.2280 C   0  0  0  0  0  0  0  0  0  0  0  0
   28.9770   52.0290   -4.7210 C   0  0  0  0  0  0  0  0  0  0  0  0
   28.7660   49.6220   -5.0450 C   0  0  0  0  0  0  0  0  0  0  0  0
   29.2930   53.2480   -3.9270 C   0  0  0  0  0  0  0  0  0  0  0  0
   28.3390   49.8280   -6.3570 C   0  0  0  0  0  0  0  0  0  0  0  0
   28.5440   52.2200   -6.0450 C   0  0  0  0  0  0  0  0  0  0  0  0
   30.0760   54.2060   -4.5270 N   0  0  0  0  0  0  0  0  0  0  0  0
   28.8710   53.3970   -2.7820 O   0  0  0  0  0  0  0  0  0  0  0  0
   28.2280   51.1250   -6.8570 C   0  0  0  0  0  0  0  0  0  0  0  0
   29.5330   55.5030   -4.6400 O   0  0  0  0  0  0  0  0  0  0  0  0
  1  2  1  0
  2  3  1  0
  2  4  2  0
  4  5  1  0
  3  6  1  6
  3  7  1  0
  4  8  1  0
  5  9  1  0
  6 10  2  0
  7 11  2  0
 10 11  1  0
  7 12  1  0
  8 12  2  0
 10 13  1  0
  9 14  1  0
 13 15  1  0
 13 16  2  0
 14 17  1  0
 17 18  1  0
 18 19  2  0
 18 20  1  0
 19 21  1  0
 20 22  2  0
 19 23  1  0
 21 24  1  0
 21 25  2  0
 22 26  1  0
 23 26  2  0
 24 27  1  0
M  END
