mac-x0347-mac-x0188
     RDKit          3D

 27 30  0  0  0  0  0  0  0  0999 V2000
   29.8800   44.9670   -5.0340 O   0  0  0  0  0  0  0  0  0  0  0  0
   30.5160   46.2270   -5.1960 C   0  0  0  0  0  0  0  0  0  0  0  0
   30.8980   46.2540   -6.5580 O   0  0  0  0  0  0  0  0  0  0  0  0
   29.5590   47.3300   -4.8160 C   0  0  0  0  0  0  0  0  0  0  0  0
   31.6650   46.4330   -4.2710 C   0  0  0  0  0  0  0  0  0  0  0  0
   29.5550   48.5760   -5.4530 C   0  0  0  0  0  0  0  0  0  0  0  0
   28.6320   47.1510   -3.7880 C   0  0  0  0  0  0  0  0  0  0  0  0
   32.5400   45.4860   -3.7800 C   0  0  0  0  0  0  0  0  0  0  0  0
   32.1310   47.6590   -3.6710 C   0  0  0  0  0  0  0  0  0  0  0  0
   32.6830   44.0260   -3.9560 C   0  0  0  0  0  0  0  0  0  0  0  0
   28.6700   49.5850   -5.0700 C   0  0  0  0  0  0  0  0  0  0  0  0
   27.7520   48.0880   -3.3780 N   0  0  0  0  0  0  0  0  0  0  0  0
   33.4480   46.0750   -2.9640 O   0  0  0  0  0  0  0  0  0  0  0  0
   33.1970   47.4250   -2.8920 N   0  0  0  0  0  0  0  0  0  0  0  0
   31.6240   49.0240   -3.7960 C   0  0  0  0  0  0  0  0  0  0  0  0
   27.7960   49.2760   -4.0280 C   0  0  0  0  0  0  0  0  0  0  0  0
   28.6720   50.8940   -5.7320 C   0  0  0  0  0  0  0  0  0  0  0  0
   30.9550   49.6240   -2.7170 C   0  0  0  0  0  0  0  0  0  0  0  0
   31.7950   49.7550   -4.9810 C   0  0  0  0  0  0  0  0  0  0  0  0
   28.8980   51.0070   -7.1150 C   0  0  0  0  0  0  0  0  0  0  0  0
   28.4520   52.0740   -5.0080 C   0  0  0  0  0  0  0  0  0  0  0  0
   30.4710   50.9280   -2.8220 C   0  0  0  0  0  0  0  0  0  0  0  0
   31.3090   51.0590   -5.0830 C   0  0  0  0  0  0  0  0  0  0  0  0
   28.9040   52.2510   -7.7420 C   0  0  0  0  0  0  0  0  0  0  0  0
   28.4590   53.3210   -5.6320 C   0  0  0  0  0  0  0  0  0  0  0  0
   30.6490   51.6460   -4.0040 C   0  0  0  0  0  0  0  0  0  0  0  0
   28.6860   53.4110   -7.0010 C   0  0  0  0  0  0  0  0  0  0  0  0
  2  1  1  0
  2  3  1  0
  2  4  1  0
  2  5  1  0
  4  6  2  0
  4  7  1  0
  5  8  2  0
  5  9  1  0
  8 10  1  0
  6 11  1  0
  7 12  2  0
  8 13  1  0
  9 14  2  0
 13 14  1  0
  9 15  1  0
 11 16  2  0
 12 16  1  0
 11 17  1  0
 15 18  2  0
 15 19  1  0
 17 20  2  0
 17 21  1  0
 18 22  1  0
 19 23  2  0
 20 24  1  0
 21 25  2  0
 22 26  2  0
 23 26  1  0
 24 27  2  0
 25 27  1  0
M  END
