mac-x0123-mac-x0451
     RDKit          3D

 19 22  0  0  0  0  0  0  0  0999 V2000
   26.6740   52.5940   -5.9990 N   0  0  0  0  0  0  0  0  0  0  0  0
   28.0960   52.8970   -5.8860 C   0  0  1  0  0  0  0  0  0  0  0  0
   28.2990   54.1420   -4.9990 C   0  0  1  0  0  0  0  0  0  0  0  0
   28.7430   51.7130   -5.3320 N   0  0  0  0  0  0  0  0  0  0  0  0
   29.0360   51.7390   -3.8920 C   0  0  2  0  0  0  0  0  0  0  0  0
   29.6980   54.0090   -4.4020 C   0  0  2  0  0  0  0  0  0  0  0  0
   28.3580   55.5360   -5.5710 C   0  0  0  0  0  0  0  0  0  0  0  0
   29.8780   51.0270   -5.9600 C   0  0  2  0  0  0  0  0  0  0  0  0
   29.7330   52.9230   -3.4190 N   0  0  0  0  0  0  0  0  0  0  0  0
   30.0060   55.4380   -3.9090 C   0  0  0  0  0  0  0  0  0  0  0  0
   29.3100   56.2570   -4.9550 C   0  0  0  0  0  0  0  0  0  0  0  0
   29.9670   50.6660   -3.6290 N   0  0  0  0  0  0  0  0  0  0  0  0
   30.8530   50.7440   -4.7890 C   0  0  1  0  0  0  0  0  0  0  0  0
   30.3830   51.8500   -7.0100 N   0  0  0  0  0  0  0  0  0  0  0  0
   29.6130   49.7650   -6.6950 C   0  0  0  0  0  0  0  0  0  0  0  0
   31.4760   49.5450   -4.9260 F   0  0  0  0  0  0  0  0  0  0  0  0
   29.5180   51.5350   -8.0870 C   0  0  2  0  0  0  0  0  0  0  0  0
   29.3160   49.7650   -8.5010 S   0  0  0  0  0  0  0  0  0  0  0  0
   30.1500   52.2020   -9.1850 N   0  0  0  0  0  0  0  0  0  0  0  0
  2  1  1  1
  2  3  1  0
  2  4  1  0
  4  5  1  0
  3  6  1  0
  3  7  1  6
  4  8  1  0
  5  9  1  6
  6  9  1  0
  6 10  1  1
  7 11  2  0
 10 11  1  0
  5 12  1  0
  8 13  1  0
 12 13  1  0
  8 14  1  0
  8 15  1  6
 13 16  1  6
 14 17  1  0
 15 18  2  0
 17 18  1  0
 17 19  1  6
M  END
