mac-x0564-mac-x0319
     RDKit          3D

 18 21  0  0  0  0  0  0  0  0999 V2000
   31.3440   46.4050   -6.9490 N   0  0  0  0  0  0  0  0  0  0  0  0
   32.2280   45.2790   -6.5970 C   0  0  1  0  0  0  0  0  0  0  0  0
   33.5640   45.7620   -6.6540 O   0  0  0  0  0  0  0  0  0  0  0  0
   31.1330   46.8470   -5.5930 C   0  0  1  0  0  0  0  0  0  0  0  0
   31.8020   44.8720   -5.1480 C   0  0  0  0  0  0  0  0  0  0  0  0
   30.6790   48.2500   -5.1880 C   0  0  2  0  0  0  0  0  0  0  0  0
   30.5800   45.6920   -4.9510 N   0  0  0  0  0  0  0  0  0  0  0  0
   30.0440   48.2820   -3.8380 C   0  0  1  0  0  0  0  0  0  0  0  0
   30.0750   45.9530   -3.6140 C   0  0  1  0  0  0  0  0  0  0  0  0
   29.8370   49.1180   -5.9400 O   0  0  0  0  0  0  0  0  0  0  0  0
   30.3130   44.8440   -2.7890 O   0  0  0  0  0  0  0  0  0  0  0  0
   30.6490   47.1730   -3.0630 N   0  0  0  0  0  0  0  0  0  0  0  0
   30.1080   50.2910   -5.1210 C   0  0  2  0  0  0  0  0  0  0  0  0
   30.4460   49.7610   -3.6790 C   0  0  1  0  0  0  0  0  0  0  0  0
   29.8920   50.5910   -2.5480 C   0  0  0  0  0  0  0  0  0  0  0  0
   29.0380   51.3330   -5.1960 C   0  0  0  0  0  0  0  0  0  0  0  0
   29.0260   51.5950   -2.7670 C   0  0  0  0  0  0  0  0  0  0  0  0
   28.5550   51.9320   -4.0950 C   0  0  0  0  0  0  0  0  0  0  0  0
  1  2  1  0
  2  3  1  1
  4  1  1  6
  2  5  1  0
  4  6  1  0
  4  7  1  0
  5  7  1  0
  6  8  1  0
  7  9  1  0
  6 10  1  6
  9 11  1  1
  8 12  1  1
  9 12  1  0
 10 13  1  0
  8 14  1  0
 13 14  1  0
 14 15  1  1
 13 16  1  1
 15 17  2  0
 16 18  2  0
 17 18  1  0
M  END
