mac-x0397-mac-x0212
     RDKit          3D

 19 21  0  0  0  0  0  0  0  0999 V2000
   29.5430   50.9140   -0.4720 Cl  0  0  0  0  0  0  0  0  0  0  0  0
   29.7330   51.0560   -2.1600 C   0  0  0  0  0  0  0  0  0  0  0  0
   29.6580   52.3090   -2.6900 C   0  0  0  0  0  0  0  0  0  0  0  0
   29.9580   49.9160   -2.9070 C   0  0  0  0  0  0  0  0  0  0  0  0
   29.8040   52.4540   -4.0700 C   0  0  0  0  0  0  0  0  0  0  0  0
   30.1140   49.9700   -4.2800 C   0  0  0  0  0  0  0  0  0  0  0  0
   29.4420   53.4440   -1.8840 C   0  0  0  0  0  0  0  0  0  0  0  0
   30.3650   48.5670   -4.7910 C   0  0  0  0  0  0  0  0  0  0  0  0
   29.7350   53.8060   -4.5180 C   0  0  0  0  0  0  0  0  0  0  0  0
   29.3660   54.7130   -2.3130 N   0  0  0  0  0  0  0  0  0  0  0  0
   30.0170   51.2930   -4.9090 C   0  0  0  0  0  0  0  0  0  0  0  0
   29.8940   54.1510   -5.8990 N   0  0  0  0  0  0  0  0  0  0  0  0
   30.1110   51.6360   -6.2820 N   0  0  0  0  0  0  0  0  0  0  0  0
   30.3460   48.1400   -5.9220 O   0  0  0  0  0  0  0  0  0  0  0  0
   30.6650   47.7180   -3.7740 O   0  0  0  0  0  0  0  0  0  0  0  0
   29.5210   54.8530   -3.6350 C   0  0  0  0  0  0  0  0  0  0  0  0
   29.3310   53.0920   -6.7420 S   0  0  2  0  0  0  0  0  0  0  0  0
   29.8680   53.4680   -8.3690 C   0  0  0  0  0  0  0  0  0  0  0  0
   27.9540   52.7570   -6.6460 O   0  0  0  0  0  0  0  0  0  0  0  0
  1  2  1  0
  2  3  2  0
  2  4  1  0
  3  5  1  0
  4  6  2  0
  3  7  1  0
  6  8  1  0
  5  9  1  0
  7 10  2  0
  5 11  2  0
  6 11  1  0
  9 12  1  0
 11 13  1  0
  8 14  2  0
  8 15  1  0
  9 16  2  0
 10 16  1  0
 12 17  2  0
 13 17  1  0
 17 18  1  6
 17 19  2  0
M  END
