mac-x0338-mac-x0188
     RDKit          3D

 17 18  0  0  0  0  0  0  0  0999 V2000
   28.5700   51.1500   -7.3310 N   0  0  0  0  0  0  0  0  0  0  0  0
   28.8840   51.8170   -6.1740 C   0  0  0  0  0  0  0  0  0  0  0  0
   28.9560   53.0480   -6.1860 O   0  0  0  0  0  0  0  0  0  0  0  0
   29.1190   50.9400   -4.8990 C   0  0  1  0  0  0  0  0  0  0  0  0
   29.4600   49.4560   -5.1990 N   0  0  0  0  0  0  0  0  0  0  0  0
   30.1050   51.7430   -4.0190 C   0  0  0  0  0  0  0  0  0  0  0  0
   30.5480   48.7670   -4.3740 C   0  0  1  0  0  0  0  0  0  0  0  0
   30.9010   50.9140   -3.1170 N   0  0  0  0  0  0  0  0  0  0  0  0
   31.5540   49.8540   -3.9050 C   0  0  0  0  0  0  0  0  0  0  0  0
   30.0880   48.1400   -3.1140 N   0  0  0  0  0  0  0  0  0  0  0  0
   31.2150   47.4650   -4.9940 C   0  0  2  0  0  0  0  0  0  0  0  0
   30.4530   46.7600   -6.0810 C   0  0  0  0  0  0  0  0  0  0  0  0
   31.3440   46.4530   -3.8630 C   0  0  2  0  0  0  0  0  0  0  0  0
   31.2070   47.2610   -2.7090 O   0  0  0  0  0  0  0  0  0  0  0  0
   32.6230   45.6180   -3.8430 C   0  0  0  0  0  0  0  0  0  0  0  0
   29.3210   46.3050   -6.0090 O   0  0  0  0  0  0  0  0  0  0  0  0
   31.1610   46.6270   -7.2150 O   0  0  0  0  0  0  0  0  0  0  0  0
  1  2  1  0
  2  3  2  0
  4  2  1  6
  4  5  1  0
  4  6  1  0
  7  5  1  0
  6  8  1  0
  7  9  1  1
  8  9  1  0
  7 10  1  0
  7 11  1  0
 11 12  1  6
 11 13  1  0
 10 14  1  0
 13 14  1  0
 13 15  1  1
 12 16  2  0
 12 17  1  0
M  END
