mac-x0283-mac-x0148
     RDKit          3D

 24 28  0  0  0  0  0  0  0  0999 V2000
   26.6560   52.5150   -4.9100 N   0  0  0  0  0  0  0  0  0  0  0  0
   27.9600   52.6410   -4.6210 C   0  0  0  0  0  0  0  0  0  0  0  0
   28.5060   53.6990   -4.0220 N   0  0  0  0  0  0  0  0  0  0  0  0
   28.9350   51.6660   -4.9110 C   0  0  0  0  0  0  0  0  0  0  0  0
   29.8580   53.4250   -3.9160 O   0  0  0  0  0  0  0  0  0  0  0  0
   30.1230   52.1980   -4.4500 C   0  0  0  0  0  0  0  0  0  0  0  0
   28.8620   50.3320   -5.5580 C   0  0  0  0  0  0  0  0  0  0  0  0
   31.3800   51.5530   -4.5350 C   0  0  0  0  0  0  0  0  0  0  0  0
   30.2720   49.7890   -6.0320 C   0  0  2  0  0  0  0  0  0  0  0  0
   31.4540   50.4290   -5.2710 C   0  0  0  0  0  0  0  0  0  0  0  0
   30.4000   50.2550   -7.5260 C   0  0  0  0  0  0  0  0  0  0  0  0
   30.3220   48.2020   -6.1010 C   0  0  1  0  0  0  0  0  0  0  0  0
   30.2430   47.2570   -4.9710 N   0  0  0  0  0  0  0  0  0  0  0  0
   29.3490   47.7100   -7.0830 N   0  0  0  0  0  0  0  0  0  0  0  0
   29.4880   49.5890   -8.4610 N   0  0  0  0  0  0  0  0  0  0  0  0
   30.2920   47.6290   -3.5380 C   0  0  2  0  0  0  0  0  0  0  0  0
   30.5890   45.8770   -5.2750 C   0  0  0  0  0  0  0  0  0  0  0  0
   29.6610   48.1570   -8.4190 C   0  0  0  0  0  0  0  0  0  0  0  0
   30.4080   49.0840   -3.0700 C   0  0  0  0  0  0  0  0  0  0  0  0
   31.4950   47.0500   -2.7680 C   0  0  2  0  0  0  0  0  0  0  0  0
   31.9750   45.5520   -4.7400 C   0  0  0  0  0  0  0  0  0  0  0  0
   32.5280   48.1270   -3.0340 C   0  0  0  0  0  0  0  0  0  0  0  0
   31.8200   49.3660   -2.9050 O   0  0  0  0  0  0  0  0  0  0  0  0
   31.9870   45.6690   -3.2280 C   0  0  0  0  0  0  0  0  0  0  0  0
  1  2  1  0
  2  3  2  0
  2  4  1  0
  3  5  1  0
  4  6  2  0
  5  6  1  0
  4  7  1  0
  6  8  1  0
  9  7  1  1
  8 10  2  0
  9 10  1  0
  9 11  1  0
  9 12  1  0
 12 13  1  1
 12 14  1  0
 11 15  1  0
 13 16  1  0
 13 17  1  0
 14 18  1  0
 15 18  1  0
 16 19  1  6
 16 20  1  0
 17 21  1  0
 20 22  1  6
 19 23  1  0
 22 23  1  0
 20 24  1  0
 21 24  1  0
M  END
