mac-x0357-mac-x0576
     RDKit          3D

 23 25  0  0  0  0  0  0  0  0999 V2000
   32.0380   43.5840   -5.0410 C   0  0  0  0  0  0  0  0  0  0  0  0
   32.9410   44.6210   -4.4290 C   0  0  0  0  0  0  0  0  0  0  0  0
   33.9970   44.2440   -3.5720 C   0  0  0  0  0  0  0  0  0  0  0  0
   32.7800   46.0080   -4.6830 C   0  0  0  0  0  0  0  0  0  0  0  0
   34.2680   42.9460   -3.2430 O   0  0  0  0  0  0  0  0  0  0  0  0
   31.7550   46.6430   -5.5520 C   0  0  0  0  0  0  0  0  0  0  0  0
   33.6540   46.9380   -4.0880 C   0  0  0  0  0  0  0  0  0  0  0  0
   34.8530   45.1840   -2.9930 C   0  0  0  0  0  0  0  0  0  0  0  0
   31.0090   47.6390   -5.1420 N   0  0  0  0  0  0  0  0  0  0  0  0
   31.7610   46.0960   -6.7910 O   0  0  0  0  0  0  0  0  0  0  0  0
   34.6810   46.5310   -3.2510 C   0  0  0  0  0  0  0  0  0  0  0  0
   30.1830   48.2890   -6.0360 C   0  0  0  0  0  0  0  0  0  0  0  0
   29.8170   47.6570   -7.1900 N   0  0  0  0  0  0  0  0  0  0  0  0
   29.7560   49.5800   -5.8140 C   0  0  0  0  0  0  0  0  0  0  0  0
   29.0270   48.2490   -8.1050 C   0  0  0  0  0  0  0  0  0  0  0  0
   28.9410   50.2130   -6.9370 C   0  0  0  0  0  0  0  0  0  0  0  0
   30.0390   50.3330   -4.6820 N   0  0  0  0  0  0  0  0  0  0  0  0
   28.7300   47.4530   -9.1550 N   0  0  0  0  0  0  0  0  0  0  0  0
   28.5810   49.4570   -8.0240 N   0  0  0  0  0  0  0  0  0  0  0  0
   28.5820   51.4600   -6.9710 N   0  0  0  0  0  0  0  0  0  0  0  0
   29.6710   51.5810   -4.7140 C   0  0  0  0  0  0  0  0  0  0  0  0
   28.9830   52.2170   -5.9000 C   0  0  0  0  0  0  0  0  0  0  0  0
   28.8270   53.4330   -5.8290 O   0  0  0  0  0  0  0  0  0  0  0  0
  1  2  1  0
  2  3  2  0
  2  4  1  0
  3  5  1  0
  4  6  1  0
  4  7  2  0
  3  8  1  0
  6  9  2  3
  6 10  1  0
  7 11  1  0
  8 11  2  0
  9 12  1  0
 12 13  1  0
 12 14  2  0
 13 15  1  0
 14 16  1  0
 14 17  1  0
 15 18  1  0
 15 19  2  0
 16 19  1  0
 16 20  2  0
 17 21  2  0
 20 22  1  0
 21 22  1  0
 22 23  2  0
M  END
