mac-x0333-mac-x0124
     RDKit          3D

 21 24  0  0  0  0  0  0  0  0999 V2000
   31.9110   50.3600   -2.9250 O   0  0  0  0  0  0  0  0  0  0  0  0
   31.0330   51.0990   -3.6680 C   0  0  0  0  0  0  0  0  0  0  0  0
   30.4560   50.5700   -4.8270 C   0  0  0  0  0  0  0  0  0  0  0  0
   30.7360   52.3840   -3.2350 C   0  0  0  0  0  0  0  0  0  0  0  0
   29.8510   53.1110   -4.0000 C   0  0  0  0  0  0  0  0  0  0  0  0
   29.5530   51.3120   -5.5950 C   0  0  0  0  0  0  0  0  0  0  0  0
   28.9550   50.8020   -6.7460 N   0  0  0  0  0  0  0  0  0  0  0  0
   29.2770   52.5950   -5.1410 C   0  0  0  0  0  0  0  0  0  0  0  0
   29.4410   54.3800   -3.7440 O   0  0  0  0  0  0  0  0  0  0  0  0
   28.4330   53.4910   -5.7340 O   0  0  0  0  0  0  0  0  0  0  0  0
   28.7420   54.6720   -4.9680 C   0  0  0  0  0  0  0  0  0  0  0  0
   28.8730   49.4600   -7.1090 C   0  0  0  0  0  0  0  0  0  0  0  0
   28.9180   48.4870   -6.0920 C   0  0  0  0  0  0  0  0  0  0  0  0
   28.7610   49.0300   -8.3920 N   0  0  0  0  0  0  0  0  0  0  0  0
   29.0240   48.4960   -4.6660 C   0  0  0  0  0  0  0  0  0  0  0  0
   28.8520   47.1570   -6.4710 C   0  0  0  0  0  0  0  0  0  0  0  0
   28.7020   47.7020   -8.6220 C   0  0  0  0  0  0  0  0  0  0  0  0
   28.9180   46.3870   -5.3360 N   0  0  0  0  0  0  0  0  0  0  0  0
   29.0220   47.1930   -4.2310 C   0  0  0  0  0  0  0  0  0  0  0  0
   28.7420   46.6980   -7.7310 N   0  0  0  0  0  0  0  0  0  0  0  0
   28.8830   44.9450   -5.3160 C   0  0  0  0  0  0  0  0  0  0  0  0
  1  2  1  0
  2  3  2  0
  2  4  1  0
  4  5  2  0
  3  6  1  0
  6  7  1  0
  5  8  1  0
  6  8  2  0
  5  9  1  0
  8 10  1  0
  9 11  1  0
 10 11  1  0
  7 12  1  0
 12 13  1  0
 12 14  2  0
 13 15  1  0
 13 16  2  0
 14 17  1  0
 16 18  1  0
 15 19  2  0
 18 19  1  0
 16 20  1  0
 17 20  2  0
 18 21  1  0
M  END
