mac-x0387-mac-x0564
     RDKit          3D

 20 23  0  0  0  0  0  0  0  0999 V2000
   28.5310   51.4860   -7.6420 N   0  0  0  0  0  0  0  0  0  0  0  0
   28.4150   50.0550   -7.4880 C   0  0  1  0  0  0  0  0  0  0  0  0
   28.7710   49.3410   -8.6960 N   0  0  0  0  0  0  0  0  0  0  0  0
   29.2040   49.4460   -6.2750 C   0  0  2  0  0  0  0  0  0  0  0  0
   28.8910   47.9330   -6.2440 C   0  0  1  0  0  0  0  0  0  0  0  0
   28.9530   47.9890   -8.7100 C   0  0  0  0  0  0  0  0  0  0  0  0
   28.7290   50.0410   -4.9260 C   0  0  1  0  0  0  0  0  0  0  0  0
   29.0210   47.2670   -7.5940 C   0  0  0  0  0  0  0  0  0  0  0  0
   29.5320   47.1480   -5.0760 C   0  0  2  0  0  0  0  0  0  0  0  0
   29.3410   49.3850   -3.6370 C   0  0  1  0  0  0  0  0  0  0  0  0
   28.7180   51.5660   -4.8870 C   0  0  0  0  0  0  0  0  0  0  0  0
   29.8570   47.8980   -3.7550 C   0  0  2  0  0  0  0  0  0  0  0  0
   30.6740   46.2780   -5.5310 C   0  0  0  0  0  0  0  0  0  0  0  0
   30.2340   50.3120   -2.8290 C   0  0  0  0  0  0  0  0  0  0  0  0
   29.4150   52.2770   -3.9960 C   0  0  0  0  0  0  0  0  0  0  0  0
   30.8810   46.0350   -6.7170 O   0  0  0  0  0  0  0  0  0  0  0  0
   31.2680   47.7320   -3.4030 N   0  0  0  0  0  0  0  0  0  0  0  0
   31.4830   45.7430   -4.5770 N   0  0  0  0  0  0  0  0  0  0  0  0
   30.2450   51.6470   -3.0080 C   0  0  0  0  0  0  0  0  0  0  0  0
   31.5820   46.3340   -3.2840 C   0  0  0  0  0  0  0  0  0  0  0  0
  2  1  1  6
  2  3  1  0
  4  2  1  6
  4  5  1  0
  3  6  1  0
  4  7  1  0
  5  8  1  6
  6  8  2  0
  5  9  1  0
  7 10  1  0
  7 11  1  6
  9 12  1  0
 10 12  1  0
  9 13  1  6
 10 14  1  6
 11 15  2  0
 13 16  2  0
 12 17  1  6
 13 18  1  0
 14 19  2  0
 15 19  1  0
 17 20  1  0
 18 20  1  0
M  END
