mac-x0212-mac-x0348
     RDKit          3D

 28 30  0  0  0  0  0  0  0  0999 V2000
   30.4820   53.6830   -6.3520 C   0  0  0  0  0  0  0  0  0  0  0  0
   29.1430   54.1030   -5.2500 S   0  0  0  0  0  0  0  0  0  0  0  0
   28.3280   55.0860   -5.9290 O   0  0  0  0  0  0  0  0  0  0  0  0
   29.7040   54.3680   -3.9450 O   0  0  0  0  0  0  0  0  0  0  0  0
   28.2250   52.6860   -5.1960 N   0  0  0  0  0  0  0  0  0  0  0  0
   28.8960   51.4440   -5.0370 C   0  0  0  0  0  0  0  0  0  0  0  0
   29.2250   50.6790   -6.1440 C   0  0  0  0  0  0  0  0  0  0  0  0
   29.2330   50.9950   -3.7530 C   0  0  0  0  0  0  0  0  0  0  0  0
   29.8960   49.4760   -5.9800 C   0  0  0  0  0  0  0  0  0  0  0  0
   29.9130   49.7770   -3.5840 C   0  0  0  0  0  0  0  0  0  0  0  0
   30.2520   49.0140   -4.7090 C   0  0  0  0  0  0  0  0  0  0  0  0
   30.9910   47.7420   -4.6890 C   0  0  0  0  0  0  0  0  0  0  0  0
   30.9030   46.5640   -4.0230 C   0  0  0  0  0  0  0  0  0  0  0  0
   32.0210   47.8220   -5.5850 O   0  0  0  0  0  0  0  0  0  0  0  0
   31.9570   45.5410   -4.4170 C   0  0  0  0  0  0  0  0  0  0  0  0
   29.9200   46.1190   -2.9350 C   0  0  2  0  0  0  0  0  0  0  0  0
   32.3900   45.6760   -5.8710 C   0  0  0  0  0  0  0  0  0  0  0  0
   28.4080   46.3490   -2.9980 C   0  0  0  0  0  0  0  0  0  0  0  0
   30.2660   46.5480   -1.4970 C   0  0  2  0  0  0  0  0  0  0  0  0
   31.6990   45.3630   -6.8320 O   0  0  0  0  0  0  0  0  0  0  0  0
   33.6350   46.1930   -6.0120 O   0  0  0  0  0  0  0  0  0  0  0  0
   27.8930   45.9360   -1.6710 N   0  0  0  0  0  0  0  0  0  0  0  0
   28.9730   46.2140   -0.6940 C   0  0  2  0  0  0  0  0  0  0  0  0
   30.7840   47.9560   -1.3410 C   0  0  0  0  0  0  0  0  0  0  0  0
   27.4640   44.5390   -1.6180 C   0  0  0  0  0  0  0  0  0  0  0  0
   30.2450   48.8370   -0.4930 C   0  0  0  0  0  0  0  0  0  0  0  0
   28.5240   47.2970    0.2500 C   0  0  0  0  0  0  0  0  0  0  0  0
   29.1200   48.4960    0.3320 C   0  0  0  0  0  0  0  0  0  0  0  0
  1  2  1  0
  2  3  2  0
  2  4  2  0
  2  5  1  0
  5  6  1  0
  6  7  2  0
  6  8  1  0
  7  9  1  0
  8 10  2  0
  9 11  2  0
 10 11  1  0
 11 12  1  0
 12 13  2  3
 12 14  1  0
 13 15  1  0
 16 13  1  6
 15 17  1  0
 16 18  1  0
 16 19  1  0
 17 20  2  0
 17 21  1  0
 18 22  1  0
 19 23  1  0
 22 23  1  0
 19 24  1  6
 22 25  1  0
 24 26  2  0
 23 27  1  1
 26 28  1  0
 27 28  2  0
M  END
