mac-x0138-mac-x0392
     RDKit          3D

 14 16  0  0  0  0  0  0  0  0999 V2000
   30.7830   47.3610   -4.5120 C   0  0  0  0  0  0  0  0  0  0  0  0
   30.3760   46.8580   -5.9070 C   0  0  1  0  0  0  0  0  0  0  0  0
   29.4300   45.8240   -5.8030 O   0  0  0  0  0  0  0  0  0  0  0  0
   29.6910   48.2530   -4.1040 N   0  0  0  0  0  0  0  0  0  0  0  0
   30.1260   49.5180   -3.5180 C   0  0  0  0  0  0  0  0  0  0  0  0
   29.0240   48.6100   -5.3640 C   0  0  2  0  0  0  0  0  0  0  0  0
   29.8180   48.0760   -6.4660 N   0  0  0  0  0  0  0  0  0  0  0  0
   30.0160   50.5800   -4.5200 N   0  0  0  0  0  0  0  0  0  0  0  0
   28.9780   50.1200   -5.4780 C   0  0  1  0  0  0  0  0  0  0  0  0
   28.9620   48.1230   -7.6110 C   0  0  2  0  0  0  0  0  0  0  0  0
   29.6240   47.6330   -8.7740 N   0  0  0  0  0  0  0  0  0  0  0  0
   29.2260   50.4950   -6.9690 C   0  0  1  0  0  0  0  0  0  0  0  0
   28.7850   49.5140   -7.9460 N   0  0  0  0  0  0  0  0  0  0  0  0
   28.6190   51.7540   -7.3760 N   0  0  0  0  0  0  0  0  0  0  0  0
  1  2  1  0
  2  3  1  1
  1  4  1  0
  4  5  1  0
  6  4  1  1
  2  7  1  0
  6  7  1  0
  5  8  1  0
  6  9  1  0
  9  8  1  1
  7 10  1  0
 10 11  1  6
  9 12  1  0
 10 13  1  0
 12 13  1  0
 12 14  1  6
M  END
