mac-x0379-mac-x0179
     RDKit          3D

 25 27  0  0  0  0  0  0  0  0999 V2000
   28.5610   52.0480   -5.8220 C   0  0  0  0  0  0  0  0  0  0  0  0
   29.1490   51.0170   -4.9260 C   0  0  0  0  0  0  0  0  0  0  0  0
   29.6590   51.2660   -3.7390 N   0  0  0  0  0  0  0  0  0  0  0  0
   29.1950   49.3750   -5.4200 S   0  0  0  0  0  0  0  0  0  0  0  0
   30.1160   50.0900   -3.1790 C   0  0  0  0  0  0  0  0  0  0  0  0
   29.9540   48.9450   -3.9360 C   0  0  0  0  0  0  0  0  0  0  0  0
   30.3120   47.5760   -3.6590 C   0  0  0  0  0  0  0  0  0  0  0  0
   31.4710   47.0740   -3.9100 N   0  0  0  0  0  0  0  0  0  0  0  0
   29.3190   46.8400   -3.1020 O   0  0  0  0  0  0  0  0  0  0  0  0
   31.6530   45.6530   -3.5520 C   0  0  0  0  0  0  0  0  0  0  0  0
   33.0360   45.1350   -3.9890 C   0  0  1  0  0  0  0  0  0  0  0  0
   33.4290   45.5920   -5.3960 C   0  0  0  0  0  0  0  0  0  0  0  0
   34.1260   45.4520   -3.0510 N   0  0  0  0  0  0  0  0  0  0  0  0
   32.7970   44.9120   -6.3820 O   0  0  0  0  0  0  0  0  0  0  0  0
   34.2220   46.4720   -5.7080 O   0  0  0  0  0  0  0  0  0  0  0  0
   34.8010   44.5180   -2.3070 C   0  0  0  0  0  0  0  0  0  0  0  0
   34.3960   46.7110   -2.5860 C   0  0  0  0  0  0  0  0  0  0  0  0
   34.6130   43.3200   -2.1940 O   0  0  0  0  0  0  0  0  0  0  0  0
   33.7960   47.7550   -2.7600 O   0  0  0  0  0  0  0  0  0  0  0  0
   35.8620   45.2450   -1.6150 C   0  0  0  0  0  0  0  0  0  0  0  0
   35.6160   46.5940   -1.7860 C   0  0  0  0  0  0  0  0  0  0  0  0
   36.9510   44.7850   -0.8970 C   0  0  0  0  0  0  0  0  0  0  0  0
   36.4420   47.5640   -1.2520 C   0  0  0  0  0  0  0  0  0  0  0  0
   37.8040   45.7480   -0.3440 C   0  0  0  0  0  0  0  0  0  0  0  0
   37.5510   47.1260   -0.5230 C   0  0  0  0  0  0  0  0  0  0  0  0
  1  2  1  0
  2  3  2  0
  2  4  1  0
  3  5  1  0
  4  6  1  0
  5  6  2  0
  6  7  1  0
  7  8  2  3
  7  9  1  0
  8 10  1  0
 11 10  1  1
 11 12  1  0
 11 13  1  0
 12 14  1  0
 12 15  2  0
 13 16  1  0
 13 17  1  0
 16 18  2  0
 17 19  2  0
 16 20  1  0
 17 21  1  0
 20 21  2  0
 20 22  1  0
 21 23  1  0
 22 24  2  0
 23 25  2  0
 24 25  1  0
M  END
