mac-x0564-mac-x0392
     RDKit          3D

 17 20  0  0  0  0  0  0  0  0999 V2000
   31.5060   46.9280   -5.9390 N   0  0  0  0  0  0  0  0  0  0  0  0
   30.8920   47.9770   -6.6200 C   0  0  0  0  0  0  0  0  0  0  0  0
   31.3040   48.4360   -7.6790 O   0  0  0  0  0  0  0  0  0  0  0  0
   30.7560   46.6530   -4.9300 C   0  0  0  0  0  0  0  0  0  0  0  0
   29.5400   47.4710   -4.7940 C   0  0  2  0  0  0  0  0  0  0  0  0
   30.9930   45.6860   -3.9740 N   0  0  0  0  0  0  0  0  0  0  0  0
   29.6170   48.5080   -5.8900 C   0  0  2  0  0  0  0  0  0  0  0  0
   28.4410   48.5090   -6.7980 N   0  0  0  0  0  0  0  0  0  0  0  0
   29.8650   48.1260   -3.4990 C   0  0  0  0  0  0  0  0  0  0  0  0
   30.5520   46.0320   -2.7860 C   0  0  0  0  0  0  0  0  0  0  0  0
   29.8690   49.8490   -5.1270 C   0  0  1  0  0  0  0  0  0  0  0  0
   29.9130   47.2310   -2.4680 N   0  0  0  0  0  0  0  0  0  0  0  0
   28.9190   51.0230   -5.1750 C   0  0  0  0  0  0  0  0  0  0  0  0
   30.0370   49.4360   -3.6650 C   0  0  0  0  0  0  0  0  0  0  0  0
   30.3430   50.4890   -2.7410 C   0  0  0  0  0  0  0  0  0  0  0  0
   28.8990   51.8880   -4.1380 C   0  0  0  0  0  0  0  0  0  0  0  0
   29.7770   51.6880   -2.9850 C   0  0  0  0  0  0  0  0  0  0  0  0
  1  2  1  0
  2  3  2  0
  1  4  2  0
  5  4  1  6
  4  6  1  0
  2  7  1  0
  5  7  1  0
  7  8  1  6
  5  9  1  0
  6 10  2  0
  7 11  1  0
  9 12  1  0
 10 12  1  0
 11 13  1  1
  9 14  2  0
 11 14  1  0
 14 15  1  0
 13 16  2  0
 15 17  2  0
 16 17  1  0
M  END
