mac-x0412-mac-x0178
     RDKit          3D

 26 28  0  0  0  0  0  0  0  0999 V2000
   29.5290   54.2370   -4.0240 O   0  0  0  0  0  0  0  0  0  0  0  0
   29.0580   53.5090   -4.8950 C   0  0  0  0  0  0  0  0  0  0  0  0
   28.8870   53.9470   -6.1970 N   0  0  0  0  0  0  0  0  0  0  0  0
   28.6180   52.0490   -4.6130 C   0  0  1  0  0  0  0  0  0  0  0  0
   29.1910   51.1620   -5.7100 C   0  0  0  0  0  0  0  0  0  0  0  0
   29.0520   53.0740   -7.1330 C   0  0  0  0  0  0  0  0  0  0  0  0
   28.9600   51.5610   -3.2240 C   0  0  0  0  0  0  0  0  0  0  0  0
   29.4050   51.6530   -6.9390 C   0  0  0  0  0  0  0  0  0  0  0  0
   29.4900   49.7870   -5.3690 C   0  0  0  0  0  0  0  0  0  0  0  0
   29.4170   50.3180   -2.9720 C   0  0  0  0  0  0  0  0  0  0  0  0
   29.7730   49.7790   -1.5980 C   0  0  0  0  0  0  0  0  0  0  0  0
   29.5940   49.3990   -4.0890 C   0  0  0  0  0  0  0  0  0  0  0  0
   28.6400   49.3170   -0.6600 C   0  0  0  0  0  0  0  0  0  0  0  0
   28.1610   47.9390   -0.9070 N   0  0  0  0  0  0  0  0  0  0  0  0
   29.1450   46.7740   -0.8440 S   0  0  2  0  0  0  0  0  0  0  0  0
   28.0500   45.5190   -0.6810 N   0  0  0  0  0  0  0  0  0  0  0  0
   30.0910   46.5030    0.2090 O   0  0  0  0  0  0  0  0  0  0  0  0
   29.9410   46.6240   -2.4140 C   0  0  0  0  0  0  0  0  0  0  0  0
   29.2110   46.1950   -3.5280 C   0  0  0  0  0  0  0  0  0  0  0  0
   31.3000   46.9390   -2.5240 C   0  0  0  0  0  0  0  0  0  0  0  0
   29.8500   46.0800   -4.7650 C   0  0  0  0  0  0  0  0  0  0  0  0
   31.9390   46.8240   -3.7600 C   0  0  0  0  0  0  0  0  0  0  0  0
   31.2100   46.3930   -4.8770 C   0  0  0  0  0  0  0  0  0  0  0  0
   31.8600   46.2590   -6.2030 C   0  0  0  0  0  0  0  0  0  0  0  0
   31.2580   45.9870   -7.2240 O   0  0  0  0  0  0  0  0  0  0  0  0
   33.1930   46.4720   -6.1430 O   0  0  0  0  0  0  0  0  0  0  0  0
  1  2  2  0
  2  3  1  0
  2  4  1  0
  4  5  1  0
  3  6  2  0
  4  7  1  1
  5  8  2  0
  6  8  1  0
  5  9  1  0
  7 10  2  0
 10 11  1  0
  9 12  2  0
 10 12  1  0
 11 13  1  0
 13 14  1  0
 14 15  2  0
 15 16  1  6
 15 17  2  0
 15 18  1  0
 18 19  2  0
 18 20  1  0
 19 21  1  0
 20 22  2  0
 21 23  2  0
 22 23  1  0
 23 24  1  0
 24 25  2  0
 24 26  1  0
M  END
