mac-x0159-mac-x0417
     RDKit          3D

 31 35  0  0  0  0  0  0  0  0999 V2000
   28.7780   51.6000   -6.1950 N   0  0  0  0  0  0  0  0  0  0  0  0
   28.6120   50.3400   -5.4870 C   0  0  1  0  0  0  0  0  0  0  0  0
   28.4290   49.1300   -6.4450 C   0  0  2  0  0  0  0  0  0  0  0  0
   29.7510   50.2720   -4.6170 N   0  0  0  0  0  0  0  0  0  0  0  0
   29.9350   48.9770   -3.9930 C   0  0  0  0  0  0  0  0  0  0  0  0
   29.0410   47.8170   -5.9200 C   0  0  2  0  0  0  0  0  0  0  0  0
   28.9260   49.2400   -7.8360 N   0  0  0  0  0  0  0  0  0  0  0  0
   30.1550   47.9130   -4.9740 N   0  0  0  0  0  0  0  0  0  0  0  0
   29.3980   47.0710   -7.1380 N   0  0  0  0  0  0  0  0  0  0  0  0
   28.9180   47.8570   -8.2660 C   0  0  0  0  0  0  0  0  0  0  0  0
   30.5650   46.6150   -4.3600 C   0  0  1  0  0  0  0  0  0  0  0  0
   31.9800   46.5540   -3.6740 C   0  0  0  0  0  0  0  0  0  0  0  0
   29.5590   45.9270   -3.4220 C   0  0  0  0  0  0  0  0  0  0  0  0
   33.2780   46.0340   -4.3810 C   0  0  2  0  0  0  0  0  0  0  0  0
   28.8680   44.7820   -3.7710 C   0  0  0  0  0  0  0  0  0  0  0  0
   29.2620   46.3920   -2.1330 N   0  0  0  0  0  0  0  0  0  0  0  0
   33.1260   45.3730   -5.7250 C   0  0  0  0  0  0  0  0  0  0  0  0
   28.3790   45.6020   -1.5570 C   0  0  0  0  0  0  0  0  0  0  0  0
   27.8480   44.2740   -2.5010 S   0  0  0  0  0  0  0  0  0  0  0  0
   34.3950   45.4630   -3.5450 C   0  0  0  0  0  0  0  0  0  0  0  0
   27.8430   45.8030   -0.1850 C   0  0  0  0  0  0  0  0  0  0  0  0
   31.8940   44.9950   -6.0910 O   0  0  0  0  0  0  0  0  0  0  0  0
   34.0730   45.1790   -6.4770 O   0  0  0  0  0  0  0  0  0  0  0  0
   34.4610   44.1740   -3.1420 N   0  0  0  0  0  0  0  0  0  0  0  0
   35.5130   46.1840   -3.0800 C   0  0  0  0  0  0  0  0  0  0  0  0
   35.6380   44.0630   -2.4130 O   0  0  0  0  0  0  0  0  0  0  0  0
   36.2640   45.2680   -2.3800 C   0  0  0  0  0  0  0  0  0  0  0  0
   35.9670   47.5090   -3.1780 C   0  0  0  0  0  0  0  0  0  0  0  0
   37.4700   45.5690   -1.7530 C   0  0  0  0  0  0  0  0  0  0  0  0
   37.1700   47.8490   -2.5620 C   0  0  0  0  0  0  0  0  0  0  0  0
   37.9100   46.8970   -1.8630 C   0  0  0  0  0  0  0  0  0  0  0  0
  2  1  1  6
  2  3  1  0
  2  4  1  0
  4  5  1  0
  3  6  1  0
  3  7  1  6
  5  8  1  0
  6  8  1  0
  6  9  1  6
  7 10  1  0
  9 10  1  0
  8 11  1  0
 11 12  1  1
 11 13  1  0
 14 12  1  1
 13 15  2  0
 13 16  1  0
 14 17  1  0
 16 18  2  0
 15 19  1  0
 18 19  1  0
 14 20  1  0
 18 21  1  0
 17 22  1  0
 17 23  2  0
 20 24  2  0
 20 25  1  0
 24 26  1  0
 25 27  2  0
 26 27  1  0
 25 28  1  0
 27 29  1  0
 28 30  2  0
 29 31  2  0
 30 31  1  0
M  END
