mac-x0305-mac-x0576
     RDKit          3D

 15 16  0  0  0  0  0  0  0  0999 V2000
   30.6490   46.6440   -7.1790 O   0  0  0  0  0  0  0  0  0  0  0  0
   30.2210   47.1320   -5.9810 C   0  0  0  0  0  0  0  0  0  0  0  0
   30.0000   46.3520   -5.0670 O   0  0  0  0  0  0  0  0  0  0  0  0
   30.0830   48.7110   -5.9850 C   0  0  2  0  0  0  0  0  0  0  0  0
   29.6990   49.1250   -4.6420 N   0  0  0  0  0  0  0  0  0  0  0  0
   28.9540   49.0360   -6.8700 N   0  0  0  0  0  0  0  0  0  0  0  0
   31.4530   49.2240   -6.4630 C   0  0  0  0  0  0  0  0  0  0  0  0
   29.4870   50.5490   -4.3770 C   0  0  0  0  0  0  0  0  0  0  0  0
   27.6460   49.0630   -6.2430 C   0  0  1  0  0  0  0  0  0  0  0  0
   27.1710   50.3570   -5.5510 C   0  0  1  0  0  0  0  0  0  0  0  0
   28.3570   51.2080   -5.1630 C   0  0  0  0  0  0  0  0  0  0  0  0
   26.7630   49.9810   -6.7860 C   0  0  0  0  0  0  0  0  0  0  0  0
   28.4260   52.4060   -5.4590 O   0  0  0  0  0  0  0  0  0  0  0  0
   26.1960   49.9640   -7.8590 C   0  0  0  0  0  0  0  0  0  0  0  0
   26.1500   51.0010   -6.7040 C   0  0  0  0  0  0  0  0  0  0  0  0
  1  2  1  0
  2  3  2  0
  4  2  1  0
  4  5  1  0
  4  6  1  0
  4  7  1  6
  5  8  1  0
  6  9  1  0
  9 10  1  0
  8 11  1  0
 10 11  1  0
  9 12  1  6
 11 13  2  0
 12 14  2  0
 10 15  1  6
 14 15  1  0
M  END
