mac-x0277-mac-x0116
     RDKit          3D

 29 32  0  0  0  0  0  0  0  0999 V2000
   27.4190   45.5140   -0.5010 Cl  0  0  0  0  0  0  0  0  0  0  0  0
   28.8130   45.4190   -1.5210 C   0  0  0  0  0  0  0  0  0  0  0  0
   30.0080   46.0840   -1.2210 C   0  0  0  0  0  0  0  0  0  0  0  0
   28.7220   44.6450   -2.6820 C   0  0  0  0  0  0  0  0  0  0  0  0
   30.2010   47.0600    0.1980 Cl  0  0  0  0  0  0  0  0  0  0  0  0
   31.1050   45.9700   -2.0860 C   0  0  0  0  0  0  0  0  0  0  0  0
   29.8180   44.5310   -3.5460 C   0  0  0  0  0  0  0  0  0  0  0  0
   31.0210   45.1930   -3.2550 C   0  0  0  0  0  0  0  0  0  0  0  0
   32.2110   45.0750   -4.1830 C   0  0  0  0  0  0  0  0  0  0  0  0
   31.8820   45.4360   -5.6140 C   0  0  0  0  0  0  0  0  0  0  0  0
   32.6330   44.7370   -6.4920 O   0  0  0  0  0  0  0  0  0  0  0  0
   30.9880   46.3080   -5.9140 N   0  0  0  0  0  0  0  0  0  0  0  0
   30.6810   46.6460   -7.2960 C   0  0  0  0  0  0  0  0  0  0  0  0
   30.1630   47.9910   -7.4850 N   0  0  0  0  0  0  0  0  0  0  0  0
   30.0380   48.9550   -6.5180 C   0  0  0  0  0  0  0  0  0  0  0  0
   29.7120   48.5260   -8.6600 C   0  0  0  0  0  0  0  0  0  0  0  0
   30.3640   48.8510   -5.2170 N   0  0  0  0  0  0  0  0  0  0  0  0
   29.5060   50.0530   -7.1710 C   0  0  0  0  0  0  0  0  0  0  0  0
   29.3060   49.7730   -8.5110 N   0  0  0  0  0  0  0  0  0  0  0  0
   30.0970   50.0080   -4.5680 C   0  0  0  0  0  0  0  0  0  0  0  0
   29.2710   51.2110   -6.3930 C   0  0  0  0  0  0  0  0  0  0  0  0
   28.7380   52.3780   -6.9550 N   0  0  0  0  0  0  0  0  0  0  0  0
   29.5830   51.1500   -5.0670 N   0  0  0  0  0  0  0  0  0  0  0  0
   29.2340   53.6280   -6.3850 C   0  0  0  0  0  0  0  0  0  0  0  0
   30.4470   54.1950   -7.0510 C   0  0  0  0  0  0  0  0  0  0  0  0
   31.5070   54.5000   -6.2450 O   0  0  0  0  0  0  0  0  0  0  0  0
   30.7530   54.4950   -8.3640 C   0  0  0  0  0  0  0  0  0  0  0  0
   32.0720   55.0100   -8.3600 C   0  0  0  0  0  0  0  0  0  0  0  0
   32.4870   54.9920   -7.0470 C   0  0  0  0  0  0  0  0  0  0  0  0
  1  2  1  0
  2  3  2  0
  2  4  1  0
  3  5  1  0
  3  6  1  0
  4  7  2  0
  6  8  2  0
  7  8  1  0
  8  9  1  0
  9 10  1  0
 10 11  1  0
 10 12  2  3
 12 13  1  0
 13 14  1  0
 14 15  1  0
 14 16  1  0
 15 17  2  0
 15 18  1  0
 16 19  2  0
 18 19  1  0
 17 20  1  0
 18 21  2  0
 21 22  1  0
 20 23  2  0
 21 23  1  0
 22 24  1  0
 24 25  1  0
 25 26  1  0
 25 27  2  0
 27 28  1  0
 26 29  1  0
 28 29  2  0
M  END
