mac-x0255-mac-x0546
     RDKit          3D

 16 17  0  0  0  0  0  0  0  0999 V2000
   31.3200   45.2560   -7.3410 O   0  0  0  0  0  0  0  0  0  0  0  0
   32.5540   45.4980   -6.8490 C   0  0  0  0  0  0  0  0  0  0  0  0
   33.4430   45.9190   -7.5740 O   0  0  0  0  0  0  0  0  0  0  0  0
   32.7820   45.2350   -5.3620 C   0  0  2  0  0  0  0  0  0  0  0  0
   33.4590   43.9140   -5.0840 C   0  0  0  0  0  0  0  0  0  0  0  0
   31.6060   45.3950   -4.4390 C   0  0  0  0  0  0  0  0  0  0  0  0
   30.5610   44.5280   -4.1840 C   0  0  0  0  0  0  0  0  0  0  0  0
   31.4800   46.8200   -3.5250 S   0  0  0  0  0  0  0  0  0  0  0  0
   29.6400   45.0500   -3.2090 C   0  0  0  0  0  0  0  0  0  0  0  0
   30.0290   46.3200   -2.7540 C   0  0  0  0  0  0  0  0  0  0  0  0
   28.4610   44.4830   -2.6760 C   0  0  0  0  0  0  0  0  0  0  0  0
   29.2870   47.0530   -1.7840 C   0  0  0  0  0  0  0  0  0  0  0  0
   29.7200   48.3040   -1.3810 O   0  0  0  0  0  0  0  0  0  0  0  0
   27.7190   45.1800   -1.7240 C   0  0  0  0  0  0  0  0  0  0  0  0
   28.1270   46.4420   -1.2890 C   0  0  0  0  0  0  0  0  0  0  0  0
   30.9600   48.4670   -0.7020 C   0  0  0  0  0  0  0  0  0  0  0  0
  1  2  1  0
  2  3  2  0
  2  4  1  0
  4  5  1  6
  4  6  1  0
  6  7  2  0
  6  8  1  0
  7  9  1  0
  8 10  1  0
  9 10  2  0
  9 11  1  0
 10 12  1  0
 12 13  1  0
 11 14  2  0
 12 15  2  0
 14 15  1  0
 13 16  1  0
M  END
