mac-x0472-mac-x0590
     RDKit          3D

 27 31  0  0  0  0  0  0  0  0999 V2000
   33.3020   50.3850   -2.3620 O   0  0  0  0  0  0  0  0  0  0  0  0
   32.4520   50.1580   -3.6370 S   0  0  2  0  0  0  0  0  0  0  0  0
   32.0320   48.8420   -2.8300 N   0  0  0  0  0  0  0  0  0  0  0  0
   33.5110   50.3900   -4.7880 C   0  0  0  0  0  0  0  0  0  0  0  0
   30.6710   50.7710   -3.9680 C   0  0  1  0  0  0  0  0  0  0  0  0
   31.2090   47.8500   -3.4680 C   0  0  0  0  0  0  0  0  0  0  0  0
   34.1850   49.4210   -5.5460 C   0  0  0  0  0  0  0  0  0  0  0  0
   33.4160   51.6600   -4.6030 C   0  0  0  0  0  0  0  0  0  0  0  0
   29.8250   51.8550   -4.6340 N   0  0  0  0  0  0  0  0  0  0  0  0
   30.4920   49.5800   -4.7000 N   0  0  0  0  0  0  0  0  0  0  0  0
   35.1800   50.3230   -6.1560 C   0  0  0  0  0  0  0  0  0  0  0  0
   34.3090   52.4550   -5.5100 C   0  0  0  0  0  0  0  0  0  0  0  0
   32.4110   47.0680   -4.0770 C   0  0  2  0  0  0  0  0  0  0  0  0
   30.5960   50.1620   -6.3700 C   0  0  1  0  0  0  0  0  0  0  0  0
   29.6530   51.4430   -6.2180 S   0  0  0  0  0  0  0  0  0  0  0  0
   30.5710   48.0180   -4.4620 C   0  0  0  0  0  0  0  0  0  0  0  0
   35.2390   51.7740   -6.1970 C   0  0  0  0  0  0  0  0  0  0  0  0
   32.4690   47.0230   -5.6690 C   0  0  0  0  0  0  0  0  0  0  0  0
   32.0970   45.5150   -4.0370 C   0  0  0  0  0  0  0  0  0  0  0  0
   28.1690   52.3990   -6.7070 N   0  0  0  0  0  0  0  0  0  0  0  0
   30.6420   49.6450   -7.6280 N   0  0  0  0  0  0  0  0  0  0  0  0
   29.7400   50.9360   -7.9860 C   0  0  0  0  0  0  0  0  0  0  0  0
   30.6120   47.4440   -5.8490 C   0  0  0  0  0  0  0  0  0  0  0  0
   30.6040   48.8090   -6.1110 C   0  0  0  0  0  0  0  0  0  0  0  0
   31.9110   45.0470   -5.4540 C   0  0  0  0  0  0  0  0  0  0  0  0
   31.6390   46.0920   -6.2470 O   0  0  0  0  0  0  0  0  0  0  0  0
   29.3430   49.6380   -8.1000 N   0  0  0  0  0  0  0  0  0  0  0  0
  1  2  2  0
  2  3  2  0
  2  4  1  6
  2  5  1  0
  3  6  1  0
  4  7  2  0
  4  8  1  0
  5  9  1  6
  5 10  1  0
  7 11  1  0
  8 12  2  0
 13  6  1  6
 10 14  1  0
  9 15  1  0
 14 15  1  0
 10 16  1  0
 11 17  2  0
 12 17  1  0
 13 18  1  0
 13 19  1  0
 15 20  1  0
 14 21  1  0
 15 22  2  0
 16 23  1  0
 14 24  1  1
 23 24  2  0
 19 25  1  0
 18 26  1  0
 25 26  1  0
 21 27  1  0
 22 27  1  0
M  END
