mac-x0396-mac-x0451
     RDKit          3D

 20 22  0  0  0  0  0  0  0  0999 V2000
   28.3670   52.6940   -5.0400 N   0  0  0  0  0  0  0  0  0  0  0  0
   29.3990   52.3350   -4.2130 C   0  0  0  0  0  0  0  0  0  0  0  0
   30.1440   51.3340   -4.5930 N   0  0  0  0  0  0  0  0  0  0  0  0
   29.5670   53.1210   -2.9740 C   0  0  0  0  0  0  0  0  0  0  0  0
   29.8960   52.5150   -1.7720 C   0  0  0  0  0  0  0  0  0  0  0  0
   29.3910   54.5060   -3.0040 C   0  0  0  0  0  0  0  0  0  0  0  0
   29.8750   50.6840   -5.8090 C   0  0  0  0  0  0  0  0  0  0  0  0
   30.0580   53.1970   -0.6140 N   0  0  0  0  0  0  0  0  0  0  0  0
   29.5550   55.2300   -1.8250 C   0  0  0  0  0  0  0  0  0  0  0  0
   29.6850   51.4590   -6.9540 C   0  0  0  0  0  0  0  0  0  0  0  0
   29.7900   49.2900   -5.9060 C   0  0  0  0  0  0  0  0  0  0  0  0
   29.9700   48.5250   -4.8150 F   0  0  0  0  0  0  0  0  0  0  0  0
   29.8850   54.5390   -0.6690 C   0  0  0  0  0  0  0  0  0  0  0  0
   29.4110   50.8480   -8.1920 C   0  0  0  0  0  0  0  0  0  0  0  0
   29.5200   48.6510   -7.1190 C   0  0  0  0  0  0  0  0  0  0  0  0
   29.2060   51.5090   -9.3910 N   0  0  0  0  0  0  0  0  0  0  0  0
   29.3320   49.4570   -8.2520 C   0  0  0  0  0  0  0  0  0  0  0  0
   28.9730   50.6450  -10.3440 C   0  0  0  0  0  0  0  0  0  0  0  0
   28.9870   48.9970   -9.8740 S   0  0  0  0  0  0  0  0  0  0  0  0
   28.7370   51.0130  -11.6130 N   0  0  0  0  0  0  0  0  0  0  0  0
  1  2  1  0
  2  3  2  3
  2  4  1  0
  4  5  2  0
  4  6  1  0
  3  7  1  0
  5  8  1  0
  6  9  2  0
  7 10  2  0
  7 11  1  0
 11 12  1  0
  8 13  2  0
  9 13  1  0
 10 14  1  0
 11 15  2  0
 14 16  1  0
 14 17  2  0
 15 17  1  0
 16 18  2  0
 17 19  1  0
 18 19  1  0
 18 20  1  0
M  END
