mac-x0361-mac-x0139
     RDKit          3D

 25 27  0  0  0  0  0  0  0  0999 V2000
   29.0800   53.9600   -5.7100 N   0  0  0  0  0  0  0  0  0  0  0  0
   29.7080   53.4830   -4.5910 C   0  0  0  0  0  0  0  0  0  0  0  0
   30.0440   54.2400   -3.6910 O   0  0  0  0  0  0  0  0  0  0  0  0
   29.9610   52.0200   -4.5260 C   0  0  0  0  0  0  0  0  0  0  0  0
   30.5430   51.3390   -5.6000 C   0  0  0  0  0  0  0  0  0  0  0  0
   29.6100   51.3120   -3.3660 C   0  0  0  0  0  0  0  0  0  0  0  0
   30.7690   49.9630   -5.5200 C   0  0  0  0  0  0  0  0  0  0  0  0
   29.8370   49.9320   -3.2900 C   0  0  0  0  0  0  0  0  0  0  0  0
   30.4160   49.2520   -4.3710 C   0  0  0  0  0  0  0  0  0  0  0  0
   30.6790   47.8930   -4.3970 O   0  0  0  0  0  0  0  0  0  0  0  0
   29.9040   47.1180   -5.3130 N   0  0  0  0  0  0  0  0  0  0  0  0
   30.4040   45.7180   -5.3090 C   0  0  0  0  0  0  0  0  0  0  0  0
   29.4510   47.6590   -6.5580 C   0  0  0  0  0  0  0  0  0  0  0  0
   31.9290   45.6340   -5.3360 C   0  0  0  0  0  0  0  0  0  0  0  0
   28.7970   48.8480   -6.6820 C   0  0  0  0  0  0  0  0  0  0  0  0
   29.7050   46.8870   -7.7140 N   0  0  0  0  0  0  0  0  0  0  0  0
   32.4620   44.8890   -6.5270 C   0  0  0  0  0  0  0  0  0  0  0  0
   28.3870   49.2900   -8.0430 C   0  0  0  0  0  0  0  0  0  0  0  0
   29.3130   47.3180   -8.8710 C   0  0  0  0  0  0  0  0  0  0  0  0
   28.3320   49.9170   -5.8560 C   0  0  0  0  0  0  0  0  0  0  0  0
   31.8190   44.1980   -7.3000 O   0  0  0  0  0  0  0  0  0  0  0  0
   33.7910   45.0410   -6.7020 O   0  0  0  0  0  0  0  0  0  0  0  0
   28.6580   48.4830   -9.0900 N   0  0  0  0  0  0  0  0  0  0  0  0
   27.7950   50.4520   -8.0340 N   0  0  0  0  0  0  0  0  0  0  0  0
   27.7760   50.8050   -6.6940 C   0  0  0  0  0  0  0  0  0  0  0  0
  1  2  1  0
  2  3  2  0
  2  4  1  0
  4  5  2  0
  4  6  1  0
  5  7  1  0
  6  8  2  0
  7  9  2  0
  8  9  1  0
  9 10  1  0
 10 11  1  0
 11 12  1  0
 11 13  1  0
 12 14  1  0
 13 15  2  0
 13 16  1  0
 14 17  1  0
 15 18  1  0
 16 19  2  0
 15 20  1  0
 17 21  2  0
 17 22  1  0
 18 23  1  0
 19 23  1  0
 18 24  2  0
 20 25  2  0
 24 25  1  0
M  END
