mac-x0226-mac-x0131
     RDKit          3D

 27 30  0  0  0  0  0  0  0  0999 V2000
   32.2270   45.4610   -7.1670 O   0  0  0  0  0  0  0  0  0  0  0  0
   33.1860   46.1570   -6.5210 C   0  0  0  0  0  0  0  0  0  0  0  0
   33.8450   46.9960   -7.1210 O   0  0  0  0  0  0  0  0  0  0  0  0
   33.3400   45.8140   -5.1320 C   0  0  0  0  0  0  0  0  0  0  0  0
   32.3780   45.7620   -4.0820 C   0  0  0  0  0  0  0  0  0  0  0  0
   34.5350   45.4500   -4.5440 C   0  0  0  0  0  0  0  0  0  0  0  0
   30.8760   46.0610   -4.1130 C   0  0  0  0  0  0  0  0  0  0  0  0
   32.9830   45.3740   -2.9250 N   0  0  0  0  0  0  0  0  0  0  0  0
   34.3030   45.1940   -3.2230 N   0  0  0  0  0  0  0  0  0  0  0  0
   35.2770   44.7990   -2.2520 C   0  0  0  0  0  0  0  0  0  0  0  0
   30.4440   47.4710   -4.3960 N   0  0  0  0  0  0  0  0  0  0  0  0
   36.2740   45.7060   -1.8620 C   0  0  0  0  0  0  0  0  0  0  0  0
   35.2580   43.5170   -1.6790 C   0  0  0  0  0  0  0  0  0  0  0  0
   30.5810   48.5930   -3.5770 C   0  0  0  0  0  0  0  0  0  0  0  0
   29.8080   47.8600   -5.5680 C   0  0  0  0  0  0  0  0  0  0  0  0
   31.2170   48.5350   -2.2330 C   0  0  0  0  0  0  0  0  0  0  0  0
   37.2350   45.3370   -0.9160 C   0  0  0  0  0  0  0  0  0  0  0  0
   36.2250   43.1540   -0.7310 C   0  0  0  0  0  0  0  0  0  0  0  0
   30.0280   49.6910   -4.2490 C   0  0  0  0  0  0  0  0  0  0  0  0
   29.5400   49.2260   -5.5120 C   0  0  0  0  0  0  0  0  0  0  0  0
   29.4980   47.0490   -6.5970 N   0  0  0  0  0  0  0  0  0  0  0  0
   29.9480   51.0990   -3.7630 C   0  0  0  0  0  0  0  0  0  0  0  0
   37.2110   44.0660   -0.3530 C   0  0  0  0  0  0  0  0  0  0  0  0
   28.8930   49.7930   -6.6320 C   0  0  0  0  0  0  0  0  0  0  0  0
   28.8880   47.7020   -7.5990 C   0  0  0  0  0  0  0  0  0  0  0  0
   28.5490   51.1370   -6.7500 N   0  0  0  0  0  0  0  0  0  0  0  0
   28.5730   49.0060   -7.6760 N   0  0  0  0  0  0  0  0  0  0  0  0
  1  2  1  0
  2  3  2  0
  2  4  1  0
  4  5  1  0
  4  6  2  0
  5  7  1  0
  5  8  2  0
  6  9  1  0
  8  9  1  0
  9 10  1  0
  7 11  1  0
 10 12  2  0
 10 13  1  0
 11 14  1  0
 11 15  1  0
 14 16  1  0
 12 17  1  0
 13 18  2  0
 14 19  2  0
 15 20  2  0
 19 20  1  0
 15 21  1  0
 19 22  1  0
 17 23  2  0
 18 23  1  0
 20 24  1  0
 21 25  2  0
 24 26  1  0
 24 27  2  0
 25 27  1  0
M  END
