mac-x0124-mac-x0396
     RDKit          3D

 19 21  0  0  0  0  0  0  0  0999 V2000
   30.3880   45.6540   -4.7280 C   0  0  0  0  0  0  0  0  0  0  0  0
   30.0430   47.0370   -4.9340 N   0  0  0  0  0  0  0  0  0  0  0  0
   30.1680   48.0350   -4.0010 C   0  0  0  0  0  0  0  0  0  0  0  0
   29.5390   47.5500   -6.1050 C   0  0  0  0  0  0  0  0  0  0  0  0
   29.7340   49.2030   -4.5830 C   0  0  0  0  0  0  0  0  0  0  0  0
   29.3330   48.8960   -5.9180 C   0  0  0  0  0  0  0  0  0  0  0  0
   29.2870   46.8630   -7.2350 N   0  0  0  0  0  0  0  0  0  0  0  0
   28.8160   49.6090   -6.9970 C   0  0  0  0  0  0  0  0  0  0  0  0
   28.7950   47.6550   -8.2080 C   0  0  0  0  0  0  0  0  0  0  0  0
   28.6170   50.9470   -6.7590 N   0  0  0  0  0  0  0  0  0  0  0  0
   28.5480   48.9780   -8.1540 N   0  0  0  0  0  0  0  0  0  0  0  0
   28.5140   51.4140   -5.4850 C   0  0  0  0  0  0  0  0  0  0  0  0
   27.9210   50.7220   -4.6600 O   0  0  0  0  0  0  0  0  0  0  0  0
   29.0880   52.6660   -5.0180 C   0  0  0  0  0  0  0  0  0  0  0  0
   29.6440   52.7740   -3.7540 C   0  0  0  0  0  0  0  0  0  0  0  0
   29.0800   53.7790   -5.8490 C   0  0  0  0  0  0  0  0  0  0  0  0
   30.1860   53.9150   -3.2690 N   0  0  0  0  0  0  0  0  0  0  0  0
   29.6300   54.9630   -5.3790 C   0  0  0  0  0  0  0  0  0  0  0  0
   30.1630   54.9840   -4.1000 C   0  0  0  0  0  0  0  0  0  0  0  0
  1  2  1  0
  2  3  1  0
  2  4  1  0
  3  5  2  0
  4  6  2  0
  5  6  1  0
  4  7  1  0
  6  8  1  0
  7  9  2  0
  8 10  1  0
  8 11  2  0
  9 11  1  0
 10 12  1  0
 12 13  2  0
 12 14  1  0
 14 15  2  0
 14 16  1  0
 15 17  1  0
 16 18  2  0
 17 19  2  0
 18 19  1  0
M  END
