mac-x0568-mac-x0190
     RDKit          3D

 15 16  0  0  0  0  0  0  0  0999 V2000
   29.8510   55.8480   -5.0960 C   0  0  0  0  0  0  0  0  0  0  0  0
   28.7000   56.6490   -5.3130 O   0  0  0  0  0  0  0  0  0  0  0  0
   29.4630   54.3860   -5.0790 C   0  0  0  0  0  0  0  0  0  0  0  0
   30.2330   53.4870   -4.5110 N   0  0  0  0  0  0  0  0  0  0  0  0
   28.2020   53.9380   -5.6870 C   0  0  0  0  0  0  0  0  0  0  0  0
   29.5130   52.2090   -4.7260 C   0  0  1  0  0  0  0  0  0  0  0  0
   28.2580   52.6340   -5.4410 C   0  0  0  0  0  0  0  0  0  0  0  0
   30.3650   51.3110   -5.6490 C   0  0  0  0  0  0  0  0  0  0  0  0
   27.3100   51.5970   -5.7410 C   0  0  0  0  0  0  0  0  0  0  0  0
   29.0560   51.4960   -3.4770 C   0  0  0  0  0  0  0  0  0  0  0  0
   30.6040   49.9090   -5.1290 C   0  0  0  0  0  0  0  0  0  0  0  0
   27.9180   50.7620   -3.5270 C   0  0  0  0  0  0  0  0  0  0  0  0
   27.1530   50.6710   -4.7750 C   0  0  0  0  0  0  0  0  0  0  0  0
   31.0420   49.6600   -4.0100 O   0  0  0  0  0  0  0  0  0  0  0  0
   30.3000   48.8960   -5.9920 N   0  0  0  0  0  0  0  0  0  0  0  0
  1  2  1  0
  1  3  1  0
  3  4  2  0
  3  5  1  0
  4  6  1  0
  5  7  2  0
  6  7  1  0
  6  8  1  6
  7  9  1  0
  6 10  1  0
  8 11  1  0
 10 12  2  0
  9 13  2  0
 12 13  1  0
 11 14  2  0
 11 15  1  0
M  END
