mac-x0379-mac-x0212
     RDKit          3D

 13 13  0  0  0  0  0  0  0  0999 V2000
   28.5540   52.1830   -5.5570 C   0  0  0  0  0  0  0  0  0  0  0  0
   29.5360   53.6510   -5.2760 S   0  0  0  0  0  0  0  0  0  0  0  0
   31.0700   53.4340   -6.1580 C   0  0  0  0  0  0  0  0  0  0  0  0
   29.1770   50.9940   -4.9210 C   0  0  0  0  0  0  0  0  0  0  0  0
   28.8370   54.7410   -5.9380 O   0  0  0  0  0  0  0  0  0  0  0  0
   29.8450   53.7590   -3.8630 O   0  0  0  0  0  0  0  0  0  0  0  0
   29.8470   50.9970   -3.7870 N   0  0  0  0  0  0  0  0  0  0  0  0
   29.0510   49.4430   -5.6770 S   0  0  0  0  0  0  0  0  0  0  0  0
   30.2900   49.7220   -3.4910 C   0  0  0  0  0  0  0  0  0  0  0  0
   29.9530   48.7410   -4.4010 C   0  0  0  0  0  0  0  0  0  0  0  0
   30.2860   47.3380   -4.3300 C   0  0  0  0  0  0  0  0  0  0  0  0
   30.9860   46.8240   -3.4720 O   0  0  0  0  0  0  0  0  0  0  0  0
   29.7360   46.6020   -5.3300 O   0  0  0  0  0  0  0  0  0  0  0  0
  2  1  1  0
  2  3  1  0
  1  4  1  0
  2  5  2  0
  2  6  2  0
  4  7  2  0
  4  8  1  0
  7  9  1  0
  8 10  1  0
  9 10  2  0
 10 11  1  0
 11 12  2  0
 11 13  1  0
M  END
