mac-x0587-mac-x0337
     RDKit          3D

 25 26  0  0  0  0  0  0  0  0999 V2000
   30.1870   46.5530   -4.6950 C   0  0  0  0  0  0  0  0  0  0  0  0
   30.9970   47.7780   -5.0820 C   0  0  2  0  0  0  0  0  0  0  0  0
   32.5350   47.6330   -4.1560 S   0  0  0  0  0  0  0  0  0  0  0  0
   30.2260   49.0840   -4.7750 C   0  0  1  0  0  0  0  0  0  0  0  0
   33.8480   46.9240   -5.1320 C   0  0  0  0  0  0  0  0  0  0  0  0
   30.7150   49.5420   -3.5260 O   0  0  0  0  0  0  0  0  0  0  0  0
   30.3990   50.2930   -5.8710 S   0  0  0  0  0  0  0  0  0  0  0  0
   28.8760   48.6550   -4.4600 N   0  0  0  0  0  0  0  0  0  0  0  0
   33.4780   45.6690   -5.8130 C   0  0  0  0  0  0  0  0  0  0  0  0
   31.0890   50.0640   -7.4500 O   0  0  0  0  0  0  0  0  0  0  0  0
   29.7080   51.7720   -5.6430 N   0  0  0  0  0  0  0  0  0  0  0  0
   28.0610   49.2390   -3.3740 C   0  0  0  0  0  0  0  0  0  0  0  0
   27.8540   48.1950   -5.3430 C   0  0  0  0  0  0  0  0  0  0  0  0
   31.9840   50.7630   -5.4820 C   0  0  0  0  0  0  0  0  0  0  0  0
   33.9720   45.3200   -6.9120 O   0  0  0  0  0  0  0  0  0  0  0  0
   32.5390   44.8440   -5.1950 O   0  0  0  0  0  0  0  0  0  0  0  0
   27.9060   47.1870   -6.0690 O   0  0  0  0  0  0  0  0  0  0  0  0
   26.9340   49.8900   -4.1480 C   0  0  0  0  0  0  0  0  0  0  0  0
   26.7180   49.0630   -5.2950 N   0  0  0  0  0  0  0  0  0  0  0  0
   33.1200   50.0030   -5.7990 C   0  0  0  0  0  0  0  0  0  0  0  0
   32.3240   51.9370   -4.8180 C   0  0  0  0  0  0  0  0  0  0  0  0
   34.4140   50.3500   -5.5060 C   0  0  0  0  0  0  0  0  0  0  0  0
   33.5860   52.3160   -4.5100 C   0  0  0  0  0  0  0  0  0  0  0  0
   34.6340   51.5210   -4.8550 C   0  0  0  0  0  0  0  0  0  0  0  0
   36.0460   51.9360   -4.5190 C   0  0  0  0  0  0  0  0  0  0  0  0
  2  1  1  1
  2  3  1  0
  2  4  1  0
  3  5  1  0
  4  6  1  1
  4  7  1  0
  4  8  1  0
  5  9  1  0
  7 10  2  0
  7 11  1  0
  8 12  1  0
  8 13  1  0
  7 14  1  0
  9 15  2  0
  9 16  1  0
 13 17  2  0
 12 18  1  0
 13 19  1  0
 18 19  1  0
 14 20  2  0
 14 21  1  0
 20 22  1  0
 21 23  2  0
 22 24  2  0
 23 24  1  0
 24 25  1  0
M  END
