mac-x0190-mac-x0411
     RDKit          3D

 27 29  0  0  0  0  0  0  0  0999 V2000
   28.5030   56.8170   -5.5230 O   0  0  0  0  0  0  0  0  0  0  0  0
   29.6580   56.2740   -4.9020 C   0  0  0  0  0  0  0  0  0  0  0  0
   29.5140   54.7950   -4.9340 C   0  0  0  0  0  0  0  0  0  0  0  0
   29.8970   54.0300   -3.8660 N   0  0  0  0  0  0  0  0  0  0  0  0
   29.0370   54.0400   -5.9110 N   0  0  0  0  0  0  0  0  0  0  0  0
   29.6590   52.7210   -4.1710 C   0  0  0  0  0  0  0  0  0  0  0  0
   29.1220   52.7470   -5.4510 C   0  0  0  0  0  0  0  0  0  0  0  0
   29.8660   51.5500   -3.4540 C   0  0  0  0  0  0  0  0  0  0  0  0
   28.7580   51.5470   -6.0760 C   0  0  0  0  0  0  0  0  0  0  0  0
   29.5080   50.3490   -4.0850 C   0  0  0  0  0  0  0  0  0  0  0  0
   28.9580   50.3500   -5.3780 C   0  0  0  0  0  0  0  0  0  0  0  0
   29.7280   49.0450   -3.3580 C   0  0  0  0  0  0  0  0  0  0  0  0
   30.8560   48.2500   -4.0490 C   0  0  0  0  0  0  0  0  0  0  0  0
   32.2360   48.3390   -3.3630 C   0  0  0  0  0  0  0  0  0  0  0  0
   32.9120   46.9640   -3.2860 C   0  0  0  0  0  0  0  0  0  0  0  0
   34.4360   46.8950   -3.2160 C   0  0  0  0  0  0  0  0  0  0  0  0
   35.1370   45.6700   -3.3450 C   0  0  0  0  0  0  0  0  0  0  0  0
   35.1780   48.0800   -3.0130 C   0  0  0  0  0  0  0  0  0  0  0  0
   34.4540   44.4820   -3.5460 O   0  0  0  0  0  0  0  0  0  0  0  0
   36.5740   48.0520   -2.9380 C   0  0  0  0  0  0  0  0  0  0  0  0
   36.5430   45.6610   -3.2650 C   0  0  0  0  0  0  0  0  0  0  0  0
   37.4640   44.2050   -3.4070 Cl  0  0  0  0  0  0  0  0  0  0  0  0
   33.2280   44.5120   -4.2910 C   0  0  0  0  0  0  0  0  0  0  0  0
   37.2540   46.8470   -3.0630 C   0  0  0  0  0  0  0  0  0  0  0  0
   33.3220   45.0640   -5.7160 C   0  0  0  0  0  0  0  0  0  0  0  0
   32.1170   45.1580   -6.3350 O   0  0  0  0  0  0  0  0  0  0  0  0
   34.3510   45.3940   -6.2870 O   0  0  0  0  0  0  0  0  0  0  0  0
  1  2  1  0
  2  3  1  0
  3  4  1  0
  3  5  2  0
  4  6  1  0
  5  7  1  0
  6  7  2  0
  6  8  1  0
  7  9  1  0
  8 10  2  0
  9 11  2  0
 10 11  1  0
 10 12  1  0
 12 13  1  0
 13 14  1  0
 14 15  1  0
 15 16  1  0
 16 17  2  0
 16 18  1  0
 17 19  1  0
 18 20  2  0
 17 21  1  0
 21 22  1  0
 19 23  1  0
 20 24  1  0
 21 24  2  0
 23 25  1  0
 25 26  1  0
 25 27  2  0
M  END
