mac-x0436-mac-x0182
     RDKit          3D

 17 18  0  0  0  0  0  0  0  0999 V2000
   33.6800   45.6920   -6.6290 O   0  0  0  0  0  0  0  0  0  0  0  0
   32.4580   45.3000   -6.2210 C   0  0  0  0  0  0  0  0  0  0  0  0
   31.4620   45.6110   -6.8540 O   0  0  0  0  0  0  0  0  0  0  0  0
   32.4980   44.4710   -4.9630 C   0  0  0  0  0  0  0  0  0  0  0  0
   32.4550   45.3320   -3.7020 C   0  0  0  0  0  0  0  0  0  0  0  0
   33.8030   45.9540   -3.4150 C   0  0  0  0  0  0  0  0  0  0  0  0
   33.9810   47.4240   -3.6010 C   0  0  0  0  0  0  0  0  0  0  0  0
   34.7920   45.1860   -3.0120 N   0  0  0  0  0  0  0  0  0  0  0  0
   33.0240   48.1150   -3.9180 O   0  0  0  0  0  0  0  0  0  0  0  0
   34.6230   43.9190   -2.8500 O   0  0  0  0  0  0  0  0  0  0  0  0
   35.2280   47.9260   -3.4000 N   0  0  0  0  0  0  0  0  0  0  0  0
   36.0950   45.7800   -2.7530 C   0  0  0  0  0  0  0  0  0  0  0  0
   36.2840   47.1450   -2.9560 C   0  0  0  0  0  0  0  0  0  0  0  0
   37.1610   44.9900   -2.3050 C   0  0  0  0  0  0  0  0  0  0  0  0
   38.4050   45.5750   -2.0650 C   0  0  0  0  0  0  0  0  0  0  0  0
   37.5260   47.7320   -2.7190 C   0  0  0  0  0  0  0  0  0  0  0  0
   38.5890   46.9440   -2.2720 C   0  0  0  0  0  0  0  0  0  0  0  0
  1  2  1  0
  2  3  2  0
  2  4  1  0
  4  5  1  0
  5  6  1  0
  6  7  1  0
  6  8  2  0
  7  9  2  0
  8 10  1  0
  7 11  1  0
  8 12  1  0
 11 13  1  0
 12 13  2  0
 12 14  1  0
 14 15  2  0
 13 16  1  0
 15 17  1  0
 16 17  2  0
M  CHG  2   8   1  10  -1
M  END
