mac-x0358-mac-x0161
     RDKit          3D

 23 25  0  0  0  0  0  0  0  0999 V2000
   33.3710   45.1130   -6.6640 O   0  0  0  0  0  0  0  0  0  0  0  0
   33.0220   46.1810   -5.9090 C   0  0  0  0  0  0  0  0  0  0  0  0
   33.5290   47.2700   -6.1410 O   0  0  0  0  0  0  0  0  0  0  0  0
   31.9990   45.8230   -4.8520 C   0  0  0  0  0  0  0  0  0  0  0  0
   32.0340   46.6870   -3.5960 C   0  0  0  0  0  0  0  0  0  0  0  0
   33.2780   46.9140   -2.9510 C   0  0  0  0  0  0  0  0  0  0  0  0
   30.8570   47.2680   -3.0480 C   0  0  0  0  0  0  0  0  0  0  0  0
   34.3810   46.3250   -3.5210 O   0  0  0  0  0  0  0  0  0  0  0  0
   29.4520   47.1030   -3.6350 C   0  0  0  0  0  0  0  0  0  0  0  0
   33.3440   47.7010   -1.7940 C   0  0  0  0  0  0  0  0  0  0  0  0
   30.9660   48.0530   -1.8800 C   0  0  0  0  0  0  0  0  0  0  0  0
   35.6040   46.4020   -2.8050 C   0  0  0  0  0  0  0  0  0  0  0  0
   32.1920   48.2680   -1.2620 C   0  0  0  0  0  0  0  0  0  0  0  0
   28.9040   48.3100   -4.2680 N   0  0  0  0  0  0  0  0  0  0  0  0
   29.2420   49.5740   -3.6340 C   0  0  0  0  0  0  0  0  0  0  0  0
   28.9270   48.4080   -5.7200 C   0  0  2  0  0  0  0  0  0  0  0  0
   28.3370   50.6540   -4.0110 N   0  0  0  0  0  0  0  0  0  0  0  0
   29.0060   49.8330   -6.2980 C   0  0  2  0  0  0  0  0  0  0  0  0
   27.7670   47.8700   -6.4300 N   0  0  0  0  0  0  0  0  0  0  0  0
   28.1230   50.7600   -5.4290 C   0  0  2  0  0  0  0  0  0  0  0  0
   28.4710   49.7080   -7.6770 N   0  0  0  0  0  0  0  0  0  0  0  0
   27.9790   48.3420   -7.7890 C   0  0  0  0  0  0  0  0  0  0  0  0
   28.3550   52.1720   -5.7090 N   0  0  0  0  0  0  0  0  0  0  0  0
  1  2  1  0
  2  3  2  0
  2  4  1  0
  4  5  1  0
  5  6  2  0
  5  7  1  0
  6  8  1  0
  7  9  1  0
  6 10  1  0
  7 11  2  0
  8 12  1  0
 10 13  2  0
 11 13  1  0
  9 14  1  0
 14 15  1  0
 14 16  1  0
 15 17  1  0
 16 18  1  0
 16 19  1  6
 17 20  1  0
 18 20  1  0
 18 21  1  6
 19 22  1  0
 21 22  1  0
 20 23  1  6
M  END
