mac-x0415-mac-x0190
     RDKit          3D

 27 30  0  0  0  0  0  0  0  0999 V2000
   33.4220   46.7920   -6.0950 O   0  0  0  0  0  0  0  0  0  0  0  0
   32.3470   46.0090   -5.8650 C   0  0  0  0  0  0  0  0  0  0  0  0
   31.3930   46.0310   -6.6260 O   0  0  0  0  0  0  0  0  0  0  0  0
   32.5100   45.1690   -4.6270 C   0  0  0  0  0  0  0  0  0  0  0  0
   31.2580   45.0530   -3.8440 C   0  0  0  0  0  0  0  0  0  0  0  0
   30.2190   44.0340   -4.0720 C   0  0  0  0  0  0  0  0  0  0  0  0
   30.7140   45.7390   -2.8300 C   0  0  0  0  0  0  0  0  0  0  0  0
   29.1560   44.0330   -3.3140 N   0  0  0  0  0  0  0  0  0  0  0  0
   29.4290   45.1310   -2.3660 C   0  0  2  0  0  0  0  0  0  0  0  0
   31.1630   46.9180   -2.1260 C   0  0  0  0  0  0  0  0  0  0  0  0
   28.3870   46.1690   -2.1390 C   0  0  0  0  0  0  0  0  0  0  0  0
   30.2060   47.7340   -1.6130 C   0  0  0  0  0  0  0  0  0  0  0  0
   30.5120   48.9050   -0.9320 O   0  0  0  0  0  0  0  0  0  0  0  0
   28.7800   47.4120   -1.7710 C   0  0  0  0  0  0  0  0  0  0  0  0
   31.0510   49.9070   -1.8250 C   0  0  0  0  0  0  0  0  0  0  0  0
   30.0860   51.1020   -1.9660 C   0  0  0  0  0  0  0  0  0  0  0  0
   29.6200   51.3020   -3.3960 C   0  0  0  0  0  0  0  0  0  0  0  0
   29.5510   52.5350   -4.0930 C   0  0  0  0  0  0  0  0  0  0  0  0
   29.2110   50.1760   -4.1340 C   0  0  0  0  0  0  0  0  0  0  0  0
   29.8490   53.8340   -3.7470 N   0  0  0  0  0  0  0  0  0  0  0  0
   29.1150   52.6450   -5.4140 C   0  0  0  0  0  0  0  0  0  0  0  0
   28.7700   50.2640   -5.4550 C   0  0  0  0  0  0  0  0  0  0  0  0
   29.5920   54.6500   -4.8270 C   0  0  0  0  0  0  0  0  0  0  0  0
   29.1480   53.9490   -5.8470 N   0  0  0  0  0  0  0  0  0  0  0  0
   28.7180   51.4950   -6.1100 C   0  0  0  0  0  0  0  0  0  0  0  0
   29.8130   56.1180   -4.7710 C   0  0  0  0  0  0  0  0  0  0  0  0
   28.7030   56.7330   -5.4180 O   0  0  0  0  0  0  0  0  0  0  0  0
  1  2  1  0
  2  3  2  0
  2  4  1  0
  4  5  1  0
  5  6  1  0
  5  7  2  0
  6  8  2  0
  7  9  1  0
  8  9  1  0
  7 10  1  0
  9 11  1  6
 10 12  2  0
 12 13  1  0
 11 14  2  0
 12 14  1  0
 13 15  1  0
 15 16  1  0
 16 17  1  0
 17 18  1  0
 17 19  2  0
 18 20  1  0
 18 21  2  0
 19 22  1  0
 20 23  1  0
 21 24  1  0
 23 24  2  0
 21 25  1  0
 22 25  2  0
 23 26  1  0
 26 27  1  0
M  END
