mac-x0411-mac-x0138
     RDKit          3D

 26 28  0  0  0  0  0  0  0  0999 V2000
   37.2370   44.0700   -2.9960 Cl  0  0  0  0  0  0  0  0  0  0  0  0
   36.4570   45.6080   -3.0770 C   0  0  0  0  0  0  0  0  0  0  0  0
   35.1090   45.7450   -3.4600 C   0  0  0  0  0  0  0  0  0  0  0  0
   37.2260   46.7240   -2.7450 C   0  0  0  0  0  0  0  0  0  0  0  0
   34.3970   44.6050   -3.7730 O   0  0  0  0  0  0  0  0  0  0  0  0
   34.5230   47.0500   -3.5170 C   0  0  0  0  0  0  0  0  0  0  0  0
   36.6640   47.9930   -2.7910 C   0  0  0  0  0  0  0  0  0  0  0  0
   33.0910   47.3900   -3.9370 C   0  0  0  0  0  0  0  0  0  0  0  0
   33.1270   44.7810   -4.4070 C   0  0  0  0  0  0  0  0  0  0  0  0
   35.3350   48.1510   -3.1720 C   0  0  0  0  0  0  0  0  0  0  0  0
   33.3190   45.0380   -5.8850 C   0  0  0  0  0  0  0  0  0  0  0  0
   31.8900   46.9630   -3.0760 C   0  0  0  0  0  0  0  0  0  0  0  0
   32.1700   44.9320   -6.5850 O   0  0  0  0  0  0  0  0  0  0  0  0
   34.3660   45.3190   -6.4500 O   0  0  0  0  0  0  0  0  0  0  0  0
   30.5300   47.0060   -3.8270 C   0  0  0  0  0  0  0  0  0  0  0  0
   30.1090   48.3000   -4.3540 N   0  0  0  0  0  0  0  0  0  0  0  0
   30.0470   49.4780   -3.6630 C   0  0  0  0  0  0  0  0  0  0  0  0
   29.6990   48.5700   -5.6470 C   0  0  0  0  0  0  0  0  0  0  0  0
   29.6320   50.4830   -4.4080 N   0  0  0  0  0  0  0  0  0  0  0  0
   29.4120   49.9240   -5.6550 C   0  0  0  0  0  0  0  0  0  0  0  0
   29.5930   47.7270   -6.6930 N   0  0  0  0  0  0  0  0  0  0  0  0
   28.9700   50.4680   -6.8700 C   0  0  0  0  0  0  0  0  0  0  0  0
   29.1620   48.3480   -7.8050 C   0  0  0  0  0  0  0  0  0  0  0  0
   28.6440   51.8120   -7.0410 N   0  0  0  0  0  0  0  0  0  0  0  0
   29.0170   47.5670   -8.9430 N   0  0  0  0  0  0  0  0  0  0  0  0
   28.8530   49.6490   -7.9420 N   0  0  0  0  0  0  0  0  0  0  0  0
  1  2  1  0
  2  3  2  0
  2  4  1  0
  3  5  1  0
  3  6  1  0
  4  7  2  0
  6  8  1  0
  5  9  1  0
  6 10  2  0
  7 10  1  0
  9 11  1  0
  8 12  1  0
 11 13  1  0
 11 14  2  0
 12 15  1  0
 15 16  1  0
 16 17  1  0
 16 18  1  0
 17 19  2  0
 18 20  2  0
 19 20  1  0
 18 21  1  0
 20 22  1  0
 21 23  2  0
 22 24  1  0
 23 25  1  0
 22 26  2  0
 23 26  1  0
M  END
