mac-x0137-mac-x0576
     RDKit          3D

 19 21  0  0  0  0  0  0  0  0999 V2000
   32.0180   50.0270   -3.6060 F   0  0  0  0  0  0  0  0  0  0  0  0
   31.4120   48.9250   -3.0840 C   0  0  2  0  0  0  0  0  0  0  0  0
   32.3360   47.7260   -3.2660 C   0  0  0  0  0  0  0  0  0  0  0  0
   30.0600   48.6980   -3.7860 C   0  0  0  0  0  0  0  0  0  0  0  0
   30.2170   48.2170   -5.2020 N   0  0  0  0  0  0  0  0  0  0  0  0
   32.4100   47.2480   -4.7200 C   0  0  0  0  0  0  0  0  0  0  0  0
   31.0360   46.9760   -5.3150 C   0  0  0  0  0  0  0  0  0  0  0  0
   29.4120   48.6230   -6.2320 C   0  0  0  0  0  0  0  0  0  0  0  0
   28.9330   47.7680   -7.3900 N   0  0  0  0  0  0  0  0  0  0  0  0
   28.8730   50.0630   -6.3300 C   0  0  0  0  0  0  0  0  0  0  0  0
   29.2310   46.5320   -7.5520 O   0  0  0  0  0  0  0  0  0  0  0  0
   28.0450   48.4050   -8.4320 C   0  0  0  0  0  0  0  0  0  0  0  0
   28.0160   50.4900   -7.4290 C   0  0  0  0  0  0  0  0  0  0  0  0
   28.9840   51.1780   -5.6090 C   0  0  0  0  0  0  0  0  0  0  0  0
   27.6360   47.5980   -9.4670 N   0  0  0  0  0  0  0  0  0  0  0  0
   27.6470   49.6420   -8.4210 N   0  0  0  0  0  0  0  0  0  0  0  0
   27.6310   51.7190   -7.4010 N   0  0  0  0  0  0  0  0  0  0  0  0
   28.2010   52.2350   -6.2710 C   0  0  0  0  0  0  0  0  0  0  0  0
   28.1120   53.3710   -5.8380 O   0  0  0  0  0  0  0  0  0  0  0  0
  2  1  1  6
  2  3  1  0
  2  4  1  0
  4  5  1  0
  3  6  1  0
  5  7  1  0
  6  7  1  0
  5  8  1  0
  8  9  2  0
  8 10  1  0
  9 11  1  0
  9 12  1  0
 10 13  1  0
 10 14  2  0
 12 15  1  0
 12 16  2  0
 13 16  1  0
 13 17  2  0
 14 18  1  0
 17 18  1  0
 18 19  2  0
M  CHG  2   9   1  11  -1
M  END
