mac-x0178
     RDKit          3D

 13 13  0  0  0  0  0  0  0  0999 V2000
   28.4850   45.0350   -0.2570 N   0  0  0  0  0  0  0  0  0  0  0  0
   29.0060   46.5210   -0.7580 S   0  0  2  0  0  0  0  0  0  0  0  0
   29.7340   47.0760    0.2820 O   0  0  0  0  0  0  0  0  0  0  0  0
   27.8530   47.3240   -1.0650 O   0  0  0  0  0  0  0  0  0  0  0  0
   29.9140   46.3580   -2.2740 C   0  0  0  0  0  0  0  0  0  0  0  0
   31.0960   46.9980   -2.3840 C   0  0  0  0  0  0  0  0  0  0  0  0
   31.8060   46.9390   -3.5470 C   0  0  0  0  0  0  0  0  0  0  0  0
   31.2680   46.2050   -4.5860 C   0  0  0  0  0  0  0  0  0  0  0  0
   30.0560   45.5260   -4.4610 C   0  0  0  0  0  0  0  0  0  0  0  0
   29.3430   45.6350   -3.2820 C   0  0  0  0  0  0  0  0  0  0  0  0
   31.9750   46.1170   -5.8880 C   0  0  0  0  0  0  0  0  0  0  0  0
   31.3360   45.8200   -6.9290 O   0  0  0  0  0  0  0  0  0  0  0  0
   33.1560   46.3780   -5.8750 O   0  0  0  0  0  0  0  0  0  0  0  0
  2  1  1  1
  2  3  2  0
  2  4  2  0
  2  5  1  0
  5  6  2  0
  6  7  1  0
  7  8  2  0
  8  9  1  0
  5 10  1  0
  9 10  2  0
  8 11  1  0
 11 12  2  0
 11 13  1  0
M  END
