mac-x0277-mac-x0131
     RDKit          3D

 29 32  0  0  0  0  0  0  0  0999 V2000
   27.8250   47.0990   -1.2850 Cl  0  0  0  0  0  0  0  0  0  0  0  0
   29.0710   46.1150   -1.9660 C   0  0  0  0  0  0  0  0  0  0  0  0
   30.2000   46.6460   -2.6110 C   0  0  0  0  0  0  0  0  0  0  0  0
   28.9080   44.7300   -1.8470 C   0  0  0  0  0  0  0  0  0  0  0  0
   30.4660   48.1300   -2.7950 C   0  0  0  0  0  0  0  0  0  0  0  0
   31.1500   45.7370   -3.1240 C   0  0  0  0  0  0  0  0  0  0  0  0
   29.8620   43.8510   -2.3660 C   0  0  0  0  0  0  0  0  0  0  0  0
   30.9970   44.3460   -3.0120 C   0  0  0  0  0  0  0  0  0  0  0  0
   29.9880   48.7390   -4.0940 C   0  0  0  0  0  0  0  0  0  0  0  0
   32.0470   43.4170   -3.5830 C   0  0  0  0  0  0  0  0  0  0  0  0
   29.1610   49.8520   -4.2880 C   0  0  0  0  0  0  0  0  0  0  0  0
   30.3160   48.2580   -5.3550 N   0  0  0  0  0  0  0  0  0  0  0  0
   31.7950   42.9160   -4.9880 C   0  0  0  0  0  0  0  0  0  0  0  0
   28.5480   50.7160   -3.2420 C   0  0  0  0  0  0  0  0  0  0  0  0
   31.1580   47.1140   -5.6870 C   0  0  0  0  0  0  0  0  0  0  0  0
   28.9930   50.0290   -5.7040 C   0  0  0  0  0  0  0  0  0  0  0  0
   29.7190   49.0280   -6.3240 C   0  0  0  0  0  0  0  0  0  0  0  0
   32.9490   42.6430   -5.6380 O   0  0  0  0  0  0  0  0  0  0  0  0
   30.7290   42.7410   -5.5570 O   0  0  0  0  0  0  0  0  0  0  0  0
   28.3120   50.9200   -6.5520 C   0  0  0  0  0  0  0  0  0  0  0  0
   29.8320   48.8270   -7.6500 N   0  0  0  0  0  0  0  0  0  0  0  0
   32.5350   47.2440   -5.1420 C   0  0  0  0  0  0  0  0  0  0  0  0
   27.5350   51.9850   -6.1170 N   0  0  0  0  0  0  0  0  0  0  0  0
   28.3990   50.7530   -7.8880 N   0  0  0  0  0  0  0  0  0  0  0  0
   29.1410   49.7330   -8.3540 C   0  0  0  0  0  0  0  0  0  0  0  0
   33.6430   46.4190   -5.1060 C   0  0  0  0  0  0  0  0  0  0  0  0
   32.8260   48.4300   -4.5240 O   0  0  0  0  0  0  0  0  0  0  0  0
   34.1130   48.3510   -4.1000 C   0  0  0  0  0  0  0  0  0  0  0  0
   34.6570   47.1360   -4.4330 C   0  0  0  0  0  0  0  0  0  0  0  0
  1  2  1  0
  2  3  2  0
  2  4  1  0
  3  5  1  0
  3  6  1  0
  4  7  2  0
  6  8  2  0
  7  8  1  0
  5  9  1  0
  8 10  1  0
  9 11  2  0
  9 12  1  0
 10 13  1  0
 11 14  1  0
 12 15  1  0
 11 16  1  0
 12 17  1  0
 16 17  2  0
 13 18  1  0
 13 19  2  0
 16 20  1  0
 17 21  1  0
 15 22  1  0
 20 23  1  0
 20 24  2  0
 21 25  2  0
 24 25  1  0
 22 26  2  0
 22 27  1  0
 27 28  1  0
 26 29  1  0
 28 29  2  0
M  END
