mac-x0263-mac-x0328
     RDKit          3D

 24 26  0  0  0  0  0  0  0  0999 V2000
   28.4310   59.6580   -6.5390 O   0  0  0  0  0  0  0  0  0  0  0  0
   27.4030   58.8450   -6.2300 C   0  0  0  0  0  0  0  0  0  0  0  0
   26.2840   59.0730   -6.6750 O   0  0  0  0  0  0  0  0  0  0  0  0
   27.8140   57.7100   -5.3160 C   0  0  0  0  0  0  0  0  0  0  0  0
   28.8910   56.7690   -5.8850 C   0  0  0  0  0  0  0  0  0  0  0  0
   28.3910   55.3560   -5.9300 C   0  0  0  0  0  0  0  0  0  0  0  0
   28.7760   54.2970   -5.0970 N   0  0  0  0  0  0  0  0  0  0  0  0
   27.4890   54.9130   -6.7940 N   0  0  0  0  0  0  0  0  0  0  0  0
   29.6940   54.1710   -4.0500 O   0  0  0  0  0  0  0  0  0  0  0  0
   28.0760   53.1930   -5.4390 C   0  0  0  0  0  0  0  0  0  0  0  0
   27.2950   53.5850   -6.4970 C   0  0  0  0  0  0  0  0  0  0  0  0
   28.0760   51.9010   -4.9070 C   0  0  0  0  0  0  0  0  0  0  0  0
   26.4580   52.6320   -7.0900 C   0  0  0  0  0  0  0  0  0  0  0  0
   29.9230   52.7860   -3.9600 C   0  0  0  0  0  0  0  0  0  0  0  0
   27.2430   50.9700   -5.4980 C   0  0  0  0  0  0  0  0  0  0  0  0
   26.4450   51.3270   -6.5780 C   0  0  0  0  0  0  0  0  0  0  0  0
   30.1190   52.1670   -5.2150 C   0  0  0  0  0  0  0  0  0  0  0  0
   29.9610   51.9760   -2.8110 C   0  0  0  0  0  0  0  0  0  0  0  0
   30.3340   50.7850   -5.3260 C   0  0  0  0  0  0  0  0  0  0  0  0
   30.1780   50.5830   -2.9230 C   0  0  0  0  0  0  0  0  0  0  0  0
   30.3600   49.9860   -4.1830 C   0  0  0  0  0  0  0  0  0  0  0  0
   30.5800   48.5190   -4.3510 C   0  0  0  0  0  0  0  0  0  0  0  0
   31.0330   47.9070   -3.2370 O   0  0  0  0  0  0  0  0  0  0  0  0
   30.3610   47.9310   -5.3970 O   0  0  0  0  0  0  0  0  0  0  0  0
  1  2  1  0
  2  3  2  0
  2  4  1  0
  4  5  1  0
  5  6  1  0
  6  7  1  0
  6  8  2  0
  7  9  1  0
  7 10  1  0
  8 11  1  0
 10 11  2  0
 10 12  1  0
 11 13  1  0
  9 14  1  0
 12 15  2  0
 13 16  2  0
 15 16  1  0
 14 17  2  0
 14 18  1  0
 17 19  1  0
 18 20  2  0
 19 21  2  0
 20 21  1  0
 21 22  1  0
 22 23  1  0
 22 24  2  0
M  END
