mac-x0163-mac-x0392
     RDKit          3D

 20 22  0  0  0  0  0  0  0  0999 V2000
   29.1410   49.1500   -4.0430 Cl  0  0  0  0  0  0  0  0  0  0  0  0
   29.9000   49.5960   -5.6390 C   0  0  2  0  0  0  0  0  0  0  0  0
   28.7630   49.9340   -6.6300 C   0  0  1  0  0  0  0  0  0  0  0  0
   30.7910   48.4840   -6.3090 C   0  0  2  0  0  0  0  0  0  0  0  0
   28.6380   51.3400   -6.9930 N   0  0  0  0  0  0  0  0  0  0  0  0
   29.8870   47.4240   -6.7820 N   0  0  0  0  0  0  0  0  0  0  0  0
   28.8770   49.2610   -7.9110 N   0  0  0  0  0  0  0  0  0  0  0  0
   32.0210   48.0290   -5.5560 N   0  0  0  0  0  0  0  0  0  0  0  0
   29.4860   46.4030   -5.9430 C   0  0  0  0  0  0  0  0  0  0  0  0
   29.0060   47.8050   -7.8630 C   0  0  0  0  0  0  0  0  0  0  0  0
   32.4340   46.6180   -5.8330 C   0  0  0  0  0  0  0  0  0  0  0  0
   32.2660   48.3570   -4.1190 C   0  0  0  0  0  0  0  0  0  0  0  0
   29.0440   46.5080   -4.8080 O   0  0  0  0  0  0  0  0  0  0  0  0
   29.5980   45.1740   -6.4810 O   0  0  0  0  0  0  0  0  0  0  0  0
   32.0070   45.5530   -4.8040 C   0  0  0  0  0  0  0  0  0  0  0  0
   33.7660   48.7280   -3.8760 C   0  0  0  0  0  0  0  0  0  0  0  0
   32.0190   49.9020   -3.8870 C   0  0  0  0  0  0  0  0  0  0  0  0
   31.6150   47.3960   -3.1380 C   0  0  0  0  0  0  0  0  0  0  0  0
   32.1930   46.0050   -3.3570 C   0  0  0  0  0  0  0  0  0  0  0  0
   33.2750   49.8960   -3.0030 C   0  0  0  0  0  0  0  0  0  0  0  0
  2  1  1  1
  2  3  1  0
  2  4  1  0
  3  5  1  6
  4  6  1  0
  3  7  1  0
  4  8  1  1
  6  9  1  0
  6 10  1  0
  7 10  1  0
  8 11  1  0
 12  8  1  0
  9 13  2  0
  9 14  1  0
 11 15  1  0
 12 16  1  0
 12 17  1  0
 12 18  1  0
 15 19  1  0
 18 19  1  0
 16 20  1  0
 17 20  1  0
M  END
