mac-x0576-mac-x0131
     RDKit          3D

 24 27  0  0  0  0  0  0  0  0999 V2000
   29.1430   48.1100   -9.2130 N   0  0  0  0  0  0  0  0  0  0  0  0
   28.7720   48.6450   -7.9220 C   0  0  2  0  0  0  0  0  0  0  0  0
   28.8290   50.1080   -7.9570 N   0  0  0  0  0  0  0  0  0  0  0  0
   29.7450   48.0340   -7.0510 N   0  0  0  0  0  0  0  0  0  0  0  0
   27.4910   50.7450   -7.9950 N   0  0  0  0  0  0  0  0  0  0  0  0
   29.5250   48.4080   -5.6660 C   0  0  2  0  0  0  0  0  0  0  0  0
   29.6480   50.6360   -6.8420 C   0  0  2  0  0  0  0  0  0  0  0  0
   29.3880   49.9790   -5.4590 C   0  0  1  0  0  0  0  0  0  0  0  0
   29.3800   52.0530   -6.8240 N   0  0  0  0  0  0  0  0  0  0  0  0
   30.6710   47.9790   -4.8490 N   0  0  0  0  0  0  0  0  0  0  0  0
   28.6200   52.6350   -5.8500 C   0  0  0  0  0  0  0  0  0  0  0  0
   28.0050   50.3200   -4.9870 N   0  0  0  0  0  0  0  0  0  0  0  0
   30.6750   48.8910   -3.6920 C   0  0  2  0  0  0  0  0  0  0  0  0
   30.4650   50.2590   -4.3790 C   0  0  2  0  0  0  0  0  0  0  0  0
   30.6720   46.5400   -4.5610 C   0  0  0  0  0  0  0  0  0  0  0  0
   28.7190   53.8470   -5.6440 O   0  0  0  0  0  0  0  0  0  0  0  0
   31.9050   48.9320   -2.7770 C   0  0  0  0  0  0  0  0  0  0  0  0
   30.2080   51.3870   -3.3870 C   0  0  0  0  0  0  0  0  0  0  0  0
   27.6610   51.7540   -5.0410 C   0  0  0  0  0  0  0  0  0  0  0  0
   32.0590   46.0020   -4.3970 C   0  0  0  0  0  0  0  0  0  0  0  0
   32.6410   44.7820   -4.6730 C   0  0  0  0  0  0  0  0  0  0  0  0
   32.9870   46.8500   -3.8690 O   0  0  0  0  0  0  0  0  0  0  0  0
   34.1590   46.1680   -3.8090 C   0  0  0  0  0  0  0  0  0  0  0  0
   34.0000   44.8910   -4.2920 C   0  0  0  0  0  0  0  0  0  0  0  0
  2  1  1  6
  2  3  1  0
  2  4  1  0
  3  5  1  0
  6  4  1  6
  3  7  1  0
  6  8  1  0
  7  8  1  0
  7  9  1  1
  6 10  1  0
  9 11  1  0
  8 12  1  1
 10 13  1  0
  8 14  1  0
 13 14  1  0
 10 15  1  0
 11 16  2  0
 13 17  1  6
 14 18  1  1
 11 19  1  0
 12 19  1  0
 15 20  1  0
 20 21  2  0
 20 22  1  0
 22 23  1  0
 21 24  1  0
 23 24  2  0
M  END
