mac-x0346-mac-x0415
     RDKit          3D

 27 29  0  0  0  0  0  0  0  0999 V2000
   29.6320   54.9120   -5.6220 O   0  0  0  0  0  0  0  0  0  0  0  0
   29.3200   54.5660   -4.2830 N   0  0  0  0  0  0  0  0  0  0  0  0
   29.5940   53.2760   -3.8960 C   0  0  0  0  0  0  0  0  0  0  0  0
   30.1540   53.0430   -2.8260 O   0  0  0  0  0  0  0  0  0  0  0  0
   29.1890   52.1450   -4.8020 C   0  0  0  0  0  0  0  0  0  0  0  0
   29.3070   50.7910   -4.4250 C   0  0  0  0  0  0  0  0  0  0  0  0
   28.6730   52.4690   -6.0720 C   0  0  0  0  0  0  0  0  0  0  0  0
   29.8090   50.5010   -3.1820 O   0  0  0  0  0  0  0  0  0  0  0  0
   28.9090   49.7890   -5.3250 C   0  0  0  0  0  0  0  0  0  0  0  0
   28.2800   51.4550   -6.9550 C   0  0  0  0  0  0  0  0  0  0  0  0
   28.9660   49.7210   -2.3180 C   0  0  0  0  0  0  0  0  0  0  0  0
   28.3990   50.1200   -6.5800 C   0  0  0  0  0  0  0  0  0  0  0  0
   29.5260   49.7410   -0.8940 C   0  0  0  0  0  0  0  0  0  0  0  0
   30.5580   48.7400   -0.7880 O   0  0  0  0  0  0  0  0  0  0  0  0
   30.2620   47.5570   -1.4390 C   0  0  0  0  0  0  0  0  0  0  0  0
   29.2810   46.6720   -0.7930 C   0  0  0  0  0  0  0  0  0  0  0  0
   30.8430   47.2100   -2.6100 C   0  0  0  0  0  0  0  0  0  0  0  0
   30.4620   45.9470   -3.1870 C   0  0  0  0  0  0  0  0  0  0  0  0
   28.6990   45.6670   -1.4870 C   0  0  0  0  0  0  0  0  0  0  0  0
   31.1370   45.0870   -3.9500 C   0  0  0  0  0  0  0  0  0  0  0  0
   29.0670   45.4870   -2.9200 C   0  0  2  0  0  0  0  0  0  0  0  0
   32.5040   45.0870   -4.5170 C   0  0  0  0  0  0  0  0  0  0  0  0
   30.1420   44.0130   -4.1030 C   0  0  0  0  0  0  0  0  0  0  0  0
   28.9760   44.1450   -3.5340 N   0  0  0  0  0  0  0  0  0  0  0  0
   32.5280   45.8880   -5.8040 C   0  0  0  0  0  0  0  0  0  0  0  0
   33.6610   46.6080   -5.9400 O   0  0  0  0  0  0  0  0  0  0  0  0
   31.6690   45.9350   -6.6710 O   0  0  0  0  0  0  0  0  0  0  0  0
  1  2  1  0
  2  3  1  0
  3  4  2  0
  3  5  1  0
  5  6  2  0
  5  7  1  0
  6  8  1  0
  6  9  1  0
  7 10  2  0
  8 11  1  0
  9 12  2  0
 10 12  1  0
 11 13  1  0
 13 14  1  0
 14 15  1  0
 15 16  1  0
 15 17  2  0
 17 18  1  0
 16 19  2  0
 18 20  2  0
 18 21  1  0
 21 19  1  1
 20 22  1  0
 20 23  1  0
 21 24  1  0
 23 24  2  0
 22 25  1  0
 25 26  1  0
 25 27  2  0
M  END
