mac-x0373-mac-x0404
     RDKit          3D

 30 33  0  0  0  0  0  0  0  0999 V2000
   31.5180   45.7850   -6.6540 O   0  0  0  0  0  0  0  0  0  0  0  0
   30.7040   46.4270   -5.7660 C   0  0  0  0  0  0  0  0  0  0  0  0
   29.7380   45.9320   -5.2040 O   0  0  0  0  0  0  0  0  0  0  0  0
   32.5750   45.0540   -6.2050 C   0  0  0  0  0  0  0  0  0  0  0  0
   31.1810   47.8860   -5.5980 C   0  0  0  0  0  0  0  0  0  0  0  0
   33.6160   44.8430   -6.8150 O   0  0  0  0  0  0  0  0  0  0  0  0
   32.3470   44.4870   -4.7910 C   0  0  0  0  0  0  0  0  0  0  0  0
   31.0780   44.6170   -4.1520 O   0  0  0  0  0  0  0  0  0  0  0  0
   32.4200   48.0750   -4.7140 C   0  0  0  0  0  0  0  0  0  0  0  0
   30.0920   48.8860   -5.2120 C   0  0  0  0  0  0  0  0  0  0  0  0
   33.5150   47.1940   -4.7450 C   0  0  0  0  0  0  0  0  0  0  0  0
   32.4750   49.1710   -3.8370 C   0  0  0  0  0  0  0  0  0  0  0  0
   29.6650   49.0620   -3.8850 C   0  0  0  0  0  0  0  0  0  0  0  0
   29.4910   49.6660   -6.2140 C   0  0  0  0  0  0  0  0  0  0  0  0
   30.9970   45.5240   -3.1090 C   0  0  0  0  0  0  0  0  0  0  0  0
   34.6250   47.4050   -3.9240 C   0  0  0  0  0  0  0  0  0  0  0  0
   33.5860   49.3790   -3.0190 C   0  0  0  0  0  0  0  0  0  0  0  0
   28.6700   49.9890   -3.5740 C   0  0  0  0  0  0  0  0  0  0  0  0
   28.4960   50.5930   -5.9010 C   0  0  0  0  0  0  0  0  0  0  0  0
   29.7330   45.6670   -2.4920 C   0  0  0  0  0  0  0  0  0  0  0  0
   32.0890   46.2750   -2.6670 C   0  0  0  0  0  0  0  0  0  0  0  0
   34.6600   48.4940   -3.0640 C   0  0  0  0  0  0  0  0  0  0  0  0
   28.0860   50.7540   -4.5800 C   0  0  0  0  0  0  0  0  0  0  0  0
   29.5910   46.5840   -1.4230 C   0  0  0  0  0  0  0  0  0  0  0  0
   31.9390   47.1770   -1.6150 C   0  0  0  0  0  0  0  0  0  0  0  0
   28.5960   44.9300   -2.8950 C   0  0  0  0  0  0  0  0  0  0  0  0
   30.6980   47.3290   -1.0010 C   0  0  0  0  0  0  0  0  0  0  0  0
   28.3450   46.7370   -0.7980 C   0  0  0  0  0  0  0  0  0  0  0  0
   27.3670   45.0940   -2.2600 C   0  0  0  0  0  0  0  0  0  0  0  0
   27.2380   45.9940   -1.2130 C   0  0  0  0  0  0  0  0  0  0  0  0
  1  2  1  0
  2  3  2  0
  1  4  1  0
  2  5  1  0
  4  6  2  0
  4  7  1  0
  7  8  1  0
  5  9  1  0
  5 10  1  0
  9 11  2  0
  9 12  1  0
 10 13  2  0
 10 14  1  0
  8 15  1  0
 11 16  1  0
 12 17  2  0
 13 18  1  0
 14 19  2  0
 15 20  1  0
 15 21  2  0
 16 22  2  0
 17 22  1  0
 18 23  2  0
 19 23  1  0
 20 24  2  0
 21 25  1  0
 20 26  1  0
 24 27  1  0
 25 27  2  0
 24 28  1  0
 26 29  2  0
 28 30  2  0
 29 30  1  0
M  END
