mac-x0398-mac-x0441
     RDKit          3D

 30 32  0  0  0  0  0  0  0  0999 V2000
   28.6420   53.8620   -6.6520 N   0  0  0  0  0  0  0  0  0  0  0  0
   29.0140   52.7500   -5.8840 C   0  0  0  0  0  0  0  0  0  0  0  0
   29.0710   51.4680   -6.4480 C   0  0  0  0  0  0  0  0  0  0  0  0
   29.3380   52.9020   -4.5320 C   0  0  0  0  0  0  0  0  0  0  0  0
   29.7140   51.7940   -3.7580 C   0  0  0  0  0  0  0  0  0  0  0  0
   29.4490   50.3540   -5.6780 C   0  0  0  0  0  0  0  0  0  0  0  0
   30.0200   51.9870   -2.4400 O   0  0  0  0  0  0  0  0  0  0  0  0
   29.7750   50.5080   -4.3210 C   0  0  0  0  0  0  0  0  0  0  0  0
   30.1730   49.3050   -3.5260 C   0  0  0  0  0  0  0  0  0  0  0  0
   30.0030   49.2420   -2.3180 O   0  0  0  0  0  0  0  0  0  0  0  0
   30.7580   48.3390   -4.3080 O   0  0  0  0  0  0  0  0  0  0  0  0
   30.4630   46.9380   -4.0700 C   0  0  0  0  0  0  0  0  0  0  0  0
   31.6290   46.0990   -3.4730 C   0  0  0  0  0  0  0  0  0  0  0  0
   32.9200   45.8600   -4.3130 C   0  0  2  0  0  0  0  0  0  0  0  0
   32.7950   45.2800   -5.7110 C   0  0  0  0  0  0  0  0  0  0  0  0
   34.0840   45.3110   -3.5800 N   0  0  0  0  0  0  0  0  0  0  0  0
   33.9970   45.1520   -6.3290 O   0  0  0  0  0  0  0  0  0  0  0  0
   31.7970   44.9410   -6.3250 O   0  0  0  0  0  0  0  0  0  0  0  0
   34.1840   44.0320   -3.1070 N   0  0  0  0  0  0  0  0  0  0  0  0
   35.1960   46.0350   -3.2960 C   0  0  0  0  0  0  0  0  0  0  0  0
   35.4100   43.9650   -2.5080 C   0  0  0  0  0  0  0  0  0  0  0  0
   36.0670   45.2190   -2.6150 C   0  0  0  0  0  0  0  0  0  0  0  0
   35.4290   47.4550   -3.6570 C   0  0  0  0  0  0  0  0  0  0  0  0
   35.9830   42.7360   -1.8270 C   0  0  0  0  0  0  0  0  0  0  0  0
   37.4030   45.6780   -2.1380 C   0  0  0  0  0  0  0  0  0  0  0  0
   36.5560   48.0130   -2.7810 C   0  0  0  0  0  0  0  0  0  0  0  0
   37.0670   42.2400   -2.4970 F   0  0  0  0  0  0  0  0  0  0  0  0
   36.4350   43.0270   -0.5750 F   0  0  0  0  0  0  0  0  0  0  0  0
   35.1140   41.7010   -1.6900 F   0  0  0  0  0  0  0  0  0  0  0  0
   37.7650   47.0590   -2.7320 C   0  0  0  0  0  0  0  0  0  0  0  0
  1  2  1  0
  2  3  2  0
  2  4  1  0
  4  5  2  0
  3  6  1  0
  5  7  1  0
  5  8  1  0
  6  8  2  0
  8  9  1  0
  9 10  2  0
  9 11  1  0
 11 12  1  0
 12 13  1  0
 14 13  1  1
 14 15  1  0
 14 16  1  0
 15 17  1  0
 15 18  2  0
 16 19  1  0
 16 20  1  0
 19 21  2  0
 20 22  2  0
 21 22  1  0
 20 23  1  0
 21 24  1  0
 22 25  1  0
 23 26  1  0
 24 27  1  0
 24 28  1  0
 24 29  1  0
 25 30  1  0
 26 30  1  0
M  END
