mac-x0417-mac-x0137
     RDKit          3D

 30 34  0  0  0  0  0  0  0  0999 V2000
   32.4830   44.4520   -6.4830 O   0  0  0  0  0  0  0  0  0  0  0  0
   33.7070   44.7920   -6.0090 C   0  0  0  0  0  0  0  0  0  0  0  0
   34.7350   44.4370   -6.5570 O   0  0  0  0  0  0  0  0  0  0  0  0
   33.6550   45.6570   -4.7680 C   0  0  1  0  0  0  0  0  0  0  0  0
   32.2310   45.8640   -4.2760 C   0  0  0  0  0  0  0  0  0  0  0  0
   34.6410   45.2260   -3.7370 C   0  0  0  0  0  0  0  0  0  0  0  0
   34.6640   43.9760   -3.2460 N   0  0  0  0  0  0  0  0  0  0  0  0
   35.6450   46.0360   -3.1620 C   0  0  0  0  0  0  0  0  0  0  0  0
   31.5760   46.9590   -5.1250 C   0  0  1  0  0  0  0  0  0  0  0  0
   35.7130   43.9640   -2.3310 O   0  0  0  0  0  0  0  0  0  0  0  0
   36.2950   45.1960   -2.2880 C   0  0  0  0  0  0  0  0  0  0  0  0
   36.0690   47.3670   -3.2870 C   0  0  0  0  0  0  0  0  0  0  0  0
   30.0550   46.7660   -5.1930 C   0  0  0  0  0  0  0  0  0  0  0  0
   31.9900   48.3530   -4.6390 C   0  0  0  0  0  0  0  0  0  0  0  0
   37.3770   45.5820   -1.4980 C   0  0  0  0  0  0  0  0  0  0  0  0
   37.1520   47.7910   -2.5080 C   0  0  0  0  0  0  0  0  0  0  0  0
   31.1280   48.8680   -3.5000 C   0  0  1  0  0  0  0  0  0  0  0  0
   29.3880   48.0680   -5.0960 N   0  0  0  0  0  0  0  0  0  0  0  0
   31.4620   50.1760   -3.3030 F   0  0  0  0  0  0  0  0  0  0  0  0
   37.7920   46.9140   -1.6330 C   0  0  0  0  0  0  0  0  0  0  0  0
   29.6390   48.7810   -3.8280 C   0  0  0  0  0  0  0  0  0  0  0  0
   28.8580   48.7170   -6.2190 C   0  0  0  0  0  0  0  0  0  0  0  0
   28.7330   48.0130   -7.4050 N   0  0  0  0  0  0  0  0  0  0  0  0
   28.4360   50.0000   -6.2790 C   0  0  0  0  0  0  0  0  0  0  0  0
   28.2240   48.5640   -8.5460 C   0  0  0  0  0  0  0  0  0  0  0  0
   27.8900   50.5350   -7.5540 C   0  0  0  0  0  0  0  0  0  0  0  0
   28.3380   51.1270   -5.4010 C   0  0  0  0  0  0  0  0  0  0  0  0
   27.7990   49.7740   -8.6840 N   0  0  0  0  0  0  0  0  0  0  0  0
   27.5210   51.7840   -7.4580 N   0  0  0  0  0  0  0  0  0  0  0  0
   27.8060   52.1120   -6.1410 C   0  0  0  0  0  0  0  0  0  0  0  0
  1  2  1  0
  2  3  2  0
  2  4  1  0
  4  5  1  1
  4  6  1  0
  6  7  2  0
  6  8  1  0
  9  5  1  1
  7 10  1  0
  8 11  2  0
 10 11  1  0
  8 12  1  0
  9 13  1  0
  9 14  1  0
 11 15  1  0
 12 16  2  0
 14 17  1  0
 13 18  1  0
 17 19  1  6
 15 20  2  0
 16 20  1  0
 17 21  1  0
 18 21  1  0
 18 22  1  0
 22 23  1  0
 22 24  2  0
 23 25  1  0
 24 26  1  0
 24 27  1  0
 25 28  2  0
 26 28  1  0
 26 29  2  0
 27 30  2  0
 29 30  1  0
M  END
