mac-x0588
     RDKit          3D

 16 18  0  0  0  0  0  0  0  0999 V2000
   28.5690   51.6640   -6.3610 N   0  0  0  0  0  0  0  0  0  0  0  0
   29.0540   50.4360   -5.8090 C   0  0  0  0  0  0  0  0  0  0  0  0
   29.0220   49.2350   -6.6090 C   0  0  0  0  0  0  0  0  0  0  0  0
   28.6040   48.9990   -7.9010 N   0  0  0  0  0  0  0  0  0  0  0  0
   28.8730   47.7190   -8.1030 C   0  0  0  0  0  0  0  0  0  0  0  0
   29.3720   47.1670   -7.0180 N   0  0  0  0  0  0  0  0  0  0  0  0
   29.4730   48.1330   -6.0990 C   0  0  0  0  0  0  0  0  0  0  0  0
   29.9200   48.0800   -4.8210 N   0  0  0  0  0  0  0  0  0  0  0  0
   30.4320   46.8000   -4.1820 C   0  0  0  0  0  0  0  0  0  0  0  0
   29.3020   45.9800   -3.6100 C   0  0  2  0  0  0  0  0  0  0  0  0
   28.8360   46.7190   -2.3120 O   0  0  0  0  0  0  0  0  0  0  0  0
   28.2540   45.8500   -1.5010 C   0  0  0  0  0  0  0  0  0  0  0  0
   28.5430   44.4510   -2.0810 C   0  0  0  0  0  0  0  0  0  0  0  0
   29.5820   44.7200   -3.1310 C   0  0  0  0  0  0  0  0  0  0  0  0
   29.8980   49.1960   -4.1200 C   0  0  0  0  0  0  0  0  0  0  0  0
   29.4730   50.3790   -4.6090 N   0  0  0  0  0  0  0  0  0  0  0  0
  1  2  1  0
  2  3  2  0
  3  4  1  0
  4  5  2  0
  5  6  1  0
  3  7  1  0
  6  7  2  0
  7  8  1  0
  8  9  1  0
 10  9  1  1
 10 11  1  0
 11 12  1  0
 12 13  1  0
 10 14  1  0
 13 14  1  0
  8 15  1  0
  2 16  1  0
 15 16  2  0
M  END
