mac-x0301-mac-x0142
     RDKit          3D

 19 22  0  0  0  0  0  0  0  0999 V2000
   28.7990   46.6550   -2.5230 O   0  0  0  0  0  0  0  0  0  0  0  0
   29.6720   47.6390   -2.7920 C   0  0  0  0  0  0  0  0  0  0  0  0
   30.6340   47.8530   -2.0780 O   0  0  0  0  0  0  0  0  0  0  0  0
   29.3160   48.3940   -4.0140 C   0  0  0  0  0  0  0  0  0  0  0  0
   29.7620   48.1240   -5.3130 C   0  0  0  0  0  0  0  0  0  0  0  0
   28.4440   49.4810   -3.8090 C   0  0  0  0  0  0  0  0  0  0  0  0
   29.3180   48.9510   -6.3520 C   0  0  0  0  0  0  0  0  0  0  0  0
   28.0190   50.2880   -4.8740 C   0  0  0  0  0  0  0  0  0  0  0  0
   30.6740   47.0850   -5.9220 C   0  0  1  0  0  0  0  0  0  0  0  0
   28.4610   50.0210   -6.1650 C   0  0  0  0  0  0  0  0  0  0  0  0
   29.8050   48.6130   -7.5890 O   0  0  0  0  0  0  0  0  0  0  0  0
   30.1900   47.2380   -7.3880 C   0  0  0  0  0  0  0  0  0  0  0  0
   32.1620   47.5110   -5.8160 C   0  0  0  0  0  0  0  0  0  0  0  0
   30.4680   45.6340   -5.4530 C   0  0  0  0  0  0  0  0  0  0  0  0
   31.7940   44.9150   -5.3040 C   0  0  0  0  0  0  0  0  0  0  0  0
   32.8390   47.0560   -4.5190 C   0  0  0  0  0  0  0  0  0  0  0  0
   32.4180   44.3310   -6.5540 C   0  0  0  0  0  0  0  0  0  0  0  0
   31.8490   43.4150   -5.5090 C   0  0  0  0  0  0  0  0  0  0  0  0
   32.7170   45.5500   -4.2920 C   0  0  0  0  0  0  0  0  0  0  0  0
  1  2  1  0
  2  3  2  0
  2  4  1  0
  4  5  2  0
  4  6  1  0
  5  7  1  0
  6  8  2  0
  5  9  1  0
  7 10  2  0
  8 10  1  0
  7 11  1  0
  9 12  1  6
 11 12  1  0
  9 13  1  0
  9 14  1  0
 15 14  1  0
 13 16  1  0
 15 17  1  0
 15 18  1  0
 17 18  1  0
 15 19  1  0
 16 19  1  0
M  END
