mac-x0510-mac-x0385
     RDKit          3D

 13 14  0  0  0  0  0  0  0  0999 V2000
   28.8230   53.0540   -5.7750 O   0  0  0  0  0  0  0  0  0  0  0  0
   28.8290   51.8240   -5.8000 C   0  0  0  0  0  0  0  0  0  0  0  0
   29.3200   51.0210   -4.7540 N   0  0  0  0  0  0  0  0  0  0  0  0
   28.3320   51.1630   -6.9000 N   0  0  0  0  0  0  0  0  0  0  0  0
   29.3620   51.6070   -3.4210 C   0  0  0  0  0  0  0  0  0  0  0  0
   28.7770   49.9270   -7.1510 C   0  0  0  0  0  0  0  0  0  0  0  0
   29.5050   49.6160   -4.8230 C   0  0  0  0  0  0  0  0  0  0  0  0
   30.1070   48.9900   -3.9590 O   0  0  0  0  0  0  0  0  0  0  0  0
   28.8780   48.9620   -6.0420 C   0  0  1  0  0  0  0  0  0  0  0  0
   29.1380   49.4550   -8.2880 N   0  0  0  0  0  0  0  0  0  0  0  0
   27.5220   48.3990   -5.6770 C   0  0  0  0  0  0  0  0  0  0  0  0
   29.5200   47.8180   -6.7190 N   0  0  0  0  0  0  0  0  0  0  0  0
   29.5750   48.1880   -7.9660 C   0  0  0  0  0  0  0  0  0  0  0  0
  1  2  2  0
  2  3  1  0
  2  4  1  0
  3  5  1  0
  4  6  1  0
  3  7  1  0
  7  8  2  0
  6  9  1  0
  7  9  1  0
  6 10  2  0
  9 11  1  1
  9 12  1  0
 10 13  1  0
 12 13  2  0
M  END
