mac-x0161-mac-x0204
     RDKit          3D

 22 24  0  0  0  0  0  0  0  0999 V2000
   27.3980   52.0550   -5.2990 N   0  0  0  0  0  0  0  0  0  0  0  0
   28.7020   51.4210   -5.3130 C   0  0  2  0  0  0  0  0  0  0  0  0
   28.8640   50.3260   -6.3730 C   0  0  1  0  0  0  0  0  0  0  0  0
   28.8200   50.8350   -3.9990 N   0  0  0  0  0  0  0  0  0  0  0  0
   30.0140   49.9890   -3.8930 C   0  0  0  0  0  0  0  0  0  0  0  0
   28.8040   48.9880   -5.6730 C   0  0  2  0  0  0  0  0  0  0  0  0
   27.9010   50.1780   -7.4850 N   0  0  0  0  0  0  0  0  0  0  0  0
   29.8550   48.7480   -4.6780 N   0  0  0  0  0  0  0  0  0  0  0  0
   28.9340   48.1300   -6.8530 N   0  0  0  0  0  0  0  0  0  0  0  0
   28.0480   48.7660   -7.8470 C   0  0  0  0  0  0  0  0  0  0  0  0
   29.5600   47.5760   -3.8070 C   0  0  0  0  0  0  0  0  0  0  0  0
   30.7140   46.6190   -3.3490 C   0  0  2  0  0  0  0  0  0  0  0  0
   31.7760   47.1980   -2.3940 C   0  0  2  0  0  0  0  0  0  0  0  0
   31.6290   45.9410   -4.3790 C   0  0  1  0  0  0  0  0  0  0  0  0
   30.9860   45.4130   -5.6540 C   0  0  0  0  0  0  0  0  0  0  0  0
   31.4210   48.4390   -1.8050 O   0  0  0  0  0  0  0  0  0  0  0  0
   32.7340   46.8940   -4.5830 N   0  0  0  0  0  0  0  0  0  0  0  0
   33.1130   47.1820   -3.1970 C   0  0  1  0  0  0  0  0  0  0  0  0
   33.7960   48.4310   -3.1280 O   0  0  0  0  0  0  0  0  0  0  0  0
   31.7700   45.5910   -6.7390 O   0  0  0  0  0  0  0  0  0  0  0  0
   29.8980   44.8690   -5.7800 O   0  0  0  0  0  0  0  0  0  0  0  0
   34.9900   48.3510   -2.3580 C   0  0  0  0  0  0  0  0  0  0  0  0
  2  1  1  1
  2  3  1  0
  2  4  1  0
  4  5  1  0
  3  6  1  0
  3  7  1  6
  5  8  1  0
  6  8  1  0
  6  9  1  6
  7 10  1  0
  9 10  1  0
  8 11  1  0
 12 11  1  6
 12 13  1  0
 12 14  1  0
 14 15  1  6
 13 16  1  6
 14 17  1  0
 13 18  1  0
 17 18  1  0
 18 19  1  6
 15 20  1  0
 15 21  2  0
 19 22  1  0
M  END
