mac-x0354-mac-x0204
     RDKit          3D

 24 26  0  0  0  0  0  0  0  0999 V2000
   35.3110   43.3980   -1.7240 C   0  0  0  0  0  0  0  0  0  0  0  0
   34.5640   43.6530   -2.9350 N   0  0  0  0  0  0  0  0  0  0  0  0
   33.6280   42.7710   -3.3270 N   0  0  0  0  0  0  0  0  0  0  0  0
   34.6980   44.7360   -3.7770 C   0  0  0  0  0  0  0  0  0  0  0  0
   33.1530   43.3060   -4.4510 C   0  0  0  0  0  0  0  0  0  0  0  0
   33.7700   44.5340   -4.7980 C   0  0  0  0  0  0  0  0  0  0  0  0
   35.6560   45.8070   -3.5340 C   0  0  0  0  0  0  0  0  0  0  0  0
   33.4790   45.3600   -5.9560 C   0  0  0  0  0  0  0  0  0  0  0  0
   37.0320   45.5610   -3.6360 C   0  0  0  0  0  0  0  0  0  0  0  0
   35.2110   47.0900   -3.1970 C   0  0  0  0  0  0  0  0  0  0  0  0
   32.3540   45.9870   -6.1050 N   0  0  0  0  0  0  0  0  0  0  0  0
   34.4920   45.4070   -6.8540 O   0  0  0  0  0  0  0  0  0  0  0  0
   37.9490   46.5870   -3.4060 C   0  0  0  0  0  0  0  0  0  0  0  0
   36.1300   48.1160   -2.9660 C   0  0  0  0  0  0  0  0  0  0  0  0
   31.3500   45.9120   -5.1730 C   0  0  0  0  0  0  0  0  0  0  0  0
   37.4980   47.8630   -3.0720 C   0  0  0  0  0  0  0  0  0  0  0  0
   30.3910   45.1470   -5.2560 O   0  0  0  0  0  0  0  0  0  0  0  0
   31.4440   46.8330   -4.0120 C   0  0  0  0  0  0  0  0  0  0  0  0
   30.9760   46.4350   -2.7540 C   0  0  0  0  0  0  0  0  0  0  0  0
   31.9870   48.1090   -4.1260 C   0  0  0  0  0  0  0  0  0  0  0  0
   31.0720   47.3150   -1.6860 C   0  0  0  0  0  0  0  0  0  0  0  0
   32.0910   48.9880   -3.0940 N   0  0  0  0  0  0  0  0  0  0  0  0
   30.6090   46.9050   -0.4710 O   0  0  0  0  0  0  0  0  0  0  0  0
   31.6290   48.5670   -1.8950 C   0  0  0  0  0  0  0  0  0  0  0  0
  1  2  1  0
  2  3  1  0
  2  4  1  0
  3  5  2  0
  4  6  2  0
  5  6  1  0
  4  7  1  0
  6  8  1  0
  7  9  2  0
  7 10  1  0
  8 11  2  3
  8 12  1  0
  9 13  1  0
 10 14  2  0
 11 15  1  0
 13 16  2  0
 14 16  1  0
 15 17  2  0
 15 18  1  0
 18 19  2  0
 18 20  1  0
 19 21  1  0
 20 22  2  0
 21 23  1  0
 21 24  2  0
 22 24  1  0
M  END
