mac-x0271-mac-x0228
     RDKit          3D

 14 15  0  0  0  0  0  0  0  0999 V2000
   30.2690   49.0170   -3.8690 C   0  0  0  0  0  0  0  0  0  0  0  0
   30.1220   48.0740   -4.8310 O   0  0  0  0  0  0  0  0  0  0  0  0
   30.6930   48.6990   -2.7740 O   0  0  0  0  0  0  0  0  0  0  0  0
   29.8650   50.3680   -4.3710 C   0  0  0  0  0  0  0  0  0  0  0  0
   30.0000   51.6070   -3.6930 C   0  0  0  0  0  0  0  0  0  0  0  0
   29.3020   50.3530   -5.6490 C   0  0  0  0  0  0  0  0  0  0  0  0
   29.5630   52.7850   -4.3390 C   0  0  0  0  0  0  0  0  0  0  0  0
   28.8750   51.5250   -6.2690 C   0  0  0  0  0  0  0  0  0  0  0  0
   29.0050   52.7460   -5.6210 C   0  0  0  0  0  0  0  0  0  0  0  0
   29.6960   54.0300   -3.6710 O   0  0  0  0  0  0  0  0  0  0  0  0
   28.5700   53.9790   -6.2600 C   0  0  0  0  0  0  0  0  0  0  0  0
   29.3290   55.2300   -4.2890 C   0  0  0  0  0  0  0  0  0  0  0  0
   29.4820   56.3260   -3.7620 O   0  0  0  0  0  0  0  0  0  0  0  0
   28.7280   55.1380   -5.6300 C   0  0  0  0  0  0  0  0  0  0  0  0
  1  2  1  0
  1  3  2  0
  1  4  1  0
  4  5  2  0
  4  6  1  0
  5  7  1  0
  6  8  2  0
  7  9  2  0
  8  9  1  0
  7 10  1  0
  9 11  1  0
 10 12  1  0
 12 13  2  0
 11 14  2  0
 12 14  1  0
M  END
