mac-x0179-mac-x0385
     RDKit          3D

 27 29  0  0  0  0  0  0  0  0999 V2000
   32.2540   44.7420   -5.8460 O   0  0  0  0  0  0  0  0  0  0  0  0
   32.9300   45.7320   -5.0960 C   0  0  0  0  0  0  0  0  0  0  0  0
   34.2570   45.7200   -5.6240 O   0  0  0  0  0  0  0  0  0  0  0  0
   33.0410   45.4150   -3.5760 C   0  0  0  0  0  0  0  0  0  0  0  0
   32.3380   47.1190   -5.4010 C   0  0  0  0  0  0  0  0  0  0  0  0
   31.2750   47.2360   -6.5000 C   0  0  0  0  0  0  0  0  0  0  0  0
   34.3190   45.6740   -2.9260 N   0  0  0  0  0  0  0  0  0  0  0  0
   29.9190   46.6180   -6.1380 C   0  0  0  0  0  0  0  0  0  0  0  0
   35.0370   44.6850   -2.3040 C   0  0  0  0  0  0  0  0  0  0  0  0
   34.6780   46.8990   -2.4300 C   0  0  0  0  0  0  0  0  0  0  0  0
   34.8120   43.4880   -2.2770 O   0  0  0  0  0  0  0  0  0  0  0  0
   34.1090   47.9720   -2.5190 O   0  0  0  0  0  0  0  0  0  0  0  0
   28.7460   47.5780   -6.3440 C   0  0  0  0  0  0  0  0  0  0  0  0
   36.1630   45.3420   -1.6440 C   0  0  0  0  0  0  0  0  0  0  0  0
   35.9430   46.7030   -1.7210 C   0  0  0  0  0  0  0  0  0  0  0  0
   37.2830   44.8120   -1.0310 C   0  0  0  0  0  0  0  0  0  0  0  0
   36.8290   47.6180   -1.1880 C   0  0  0  0  0  0  0  0  0  0  0  0
   28.7390   48.7240   -5.3700 C   0  0  0  0  0  0  0  0  0  0  0  0
   38.1970   45.7200   -0.4820 C   0  0  0  0  0  0  0  0  0  0  0  0
   37.9720   47.1100   -0.5600 C   0  0  0  0  0  0  0  0  0  0  0  0
   29.0060   49.9510   -5.8520 N   0  0  0  0  0  0  0  0  0  0  0  0
   28.4690   48.4470   -4.0840 N   0  0  0  0  0  0  0  0  0  0  0  0
   29.0010   50.9610   -4.9720 C   0  0  0  0  0  0  0  0  0  0  0  0
   28.4750   49.4920   -3.2410 C   0  0  0  0  0  0  0  0  0  0  0  0
   29.2830   52.2180   -5.5090 N   0  0  0  0  0  0  0  0  0  0  0  0
   28.7370   50.7910   -3.6250 C   0  0  0  0  0  0  0  0  0  0  0  0
   28.7270   51.9120   -2.6400 C   0  0  0  0  0  0  0  0  0  0  0  0
  2  1  1  0
  2  3  1  0
  2  4  1  0
  2  5  1  0
  5  6  1  0
  4  7  1  0
  6  8  1  0
  7  9  1  0
  7 10  1  0
  9 11  2  0
 10 12  2  0
  8 13  1  0
  9 14  1  0
 10 15  1  0
 14 15  2  0
 14 16  1  0
 15 17  1  0
 13 18  1  0
 16 19  2  0
 17 20  2  0
 19 20  1  0
 18 21  2  0
 18 22  1  0
 21 23  1  0
 22 24  2  0
 23 25  1  0
 23 26  2  0
 24 26  1  0
 26 27  1  0
M  END
