mac-x0436-mac-x0303
     RDKit          3D

 31 34  0  0  0  0  0  0  0  0999 V2000
   33.2970   45.4110   -7.3570 O   0  0  0  0  0  0  0  0  0  0  0  0
   32.3940   44.8540   -6.5290 C   0  0  0  0  0  0  0  0  0  0  0  0
   31.2000   45.0390   -6.7140 O   0  0  0  0  0  0  0  0  0  0  0  0
   32.9940   44.0250   -5.4190 C   0  0  0  0  0  0  0  0  0  0  0  0
   32.7820   44.5850   -4.0120 C   0  0  0  0  0  0  0  0  0  0  0  0
   33.9180   45.4710   -3.5500 C   0  0  0  0  0  0  0  0  0  0  0  0
   33.6640   46.9830   -3.4030 C   0  0  0  0  0  0  0  0  0  0  0  0
   35.0800   44.9450   -3.2890 N   0  0  0  0  0  0  0  0  0  0  0  0
   32.4890   47.5250   -3.4040 N   0  0  0  0  0  0  0  0  0  0  0  0
   34.7750   47.7930   -3.2630 N   0  0  0  0  0  0  0  0  0  0  0  0
   36.1220   45.7900   -2.8680 C   0  0  0  0  0  0  0  0  0  0  0  0
   32.2210   48.9430   -3.2670 C   0  0  0  0  0  0  0  0  0  0  0  0
   35.9910   47.1960   -2.8500 C   0  0  0  0  0  0  0  0  0  0  0  0
   37.3210   45.2040   -2.4590 C   0  0  0  0  0  0  0  0  0  0  0  0
   30.6950   49.1230   -3.2010 C   0  0  0  0  0  0  0  0  0  0  0  0
   38.3880   45.9990   -2.0340 C   0  0  0  0  0  0  0  0  0  0  0  0
   37.0640   47.9870   -2.4230 C   0  0  0  0  0  0  0  0  0  0  0  0
   38.2580   47.3860   -2.0170 C   0  0  0  0  0  0  0  0  0  0  0  0
   30.3360   50.5690   -2.9540 C   0  0  0  0  0  0  0  0  0  0  0  0
   29.9720   51.9680   -2.9540 C   0  0  0  0  0  0  0  0  0  0  0  0
   30.3050   50.3090   -4.3820 C   0  0  0  0  0  0  0  0  0  0  0  0
   29.6890   52.8030   -4.0310 C   0  0  0  0  0  0  0  0  0  0  0  0
   30.0200   51.1130   -5.5000 C   0  0  0  0  0  0  0  0  0  0  0  0
   29.3490   54.1300   -4.0920 N   0  0  0  0  0  0  0  0  0  0  0  0
   29.7030   52.4150   -5.3160 C   0  0  0  0  0  0  0  0  0  0  0  0
   29.1790   54.4710   -5.4080 C   0  0  0  0  0  0  0  0  0  0  0  0
   29.3880   53.4260   -6.1890 N   0  0  0  0  0  0  0  0  0  0  0  0
   28.7430   56.1100   -5.8880 S   0  0  0  0  0  0  0  0  0  0  0  0
   29.9500   56.6310   -6.9620 N   0  0  0  0  0  0  0  0  0  0  0  0
   27.5420   56.0300   -6.6820 O   0  0  0  0  0  0  0  0  0  0  0  0
   28.8920   56.9540   -4.7280 O   0  0  0  0  0  0  0  0  0  0  0  0
  1  2  1  0
  2  3  2  0
  2  4  1  0
  4  5  1  0
  5  6  1  0
  6  7  1  0
  6  8  2  0
  7  9  2  3
  7 10  1  0
  8 11  1  0
  9 12  1  0
 10 13  1  0
 11 13  2  0
 11 14  1  0
 12 15  1  0
 14 16  2  0
 13 17  1  0
 16 18  1  0
 17 18  2  0
 15 19  1  0
 19 20  2  0
 19 21  1  0
 20 22  1  0
 21 23  2  0
 22 24  1  0
 22 25  2  0
 23 25  1  0
 24 26  1  0
 25 27  1  0
 26 27  2  0
 26 28  1  0
 28 29  1  0
 28 30  2  0
 28 31  2  0
M  END
