mac-x0375-mac-x0188
     RDKit          3D

 24 27  0  0  0  0  0  0  0  0999 V2000
   31.6790   45.2580   -6.0620 O   0  0  0  0  0  0  0  0  0  0  0  0
   33.0210   45.3700   -5.7950 C   0  0  0  0  0  0  0  0  0  0  0  0
   33.8330   44.9060   -6.5910 O   0  0  0  0  0  0  0  0  0  0  0  0
   30.8150   46.2470   -5.7490 C   0  0  0  0  0  0  0  0  0  0  0  0
   33.4420   46.0750   -4.4950 C   0  0  2  0  0  0  0  0  0  0  0  0
   29.7290   46.3680   -6.3100 O   0  0  0  0  0  0  0  0  0  0  0  0
   31.2680   47.1790   -4.6780 C   0  0  2  0  0  0  0  0  0  0  0  0
   34.2460   45.2740   -3.6230 O   0  0  0  0  0  0  0  0  0  0  0  0
   32.1560   46.4210   -3.7800 C   0  0  2  0  0  0  0  0  0  0  0  0
   30.1690   47.6570   -3.7360 C   0  0  1  0  0  0  0  0  0  0  0  0
   35.5070   45.7800   -3.4290 C   0  0  0  0  0  0  0  0  0  0  0  0
   32.2500   47.2840   -2.6530 O   0  0  0  0  0  0  0  0  0  0  0  0
   30.8680   47.7350   -2.4230 N   0  0  0  0  0  0  0  0  0  0  0  0
   29.4810   48.9680   -4.1120 C   0  0  0  0  0  0  0  0  0  0  0  0
   36.6480   44.9860   -3.5550 C   0  0  0  0  0  0  0  0  0  0  0  0
   35.6200   47.1280   -3.0930 C   0  0  0  0  0  0  0  0  0  0  0  0
   29.1170   49.9100   -3.1290 C   0  0  0  0  0  0  0  0  0  0  0  0
   29.1850   49.2870   -5.4520 C   0  0  0  0  0  0  0  0  0  0  0  0
   37.9070   45.5500   -3.3480 C   0  0  0  0  0  0  0  0  0  0  0  0
   36.8800   47.6890   -2.8840 C   0  0  0  0  0  0  0  0  0  0  0  0
   28.4880   51.1120   -3.4670 C   0  0  0  0  0  0  0  0  0  0  0  0
   28.5540   50.4890   -5.7890 C   0  0  0  0  0  0  0  0  0  0  0  0
   38.0240   46.8990   -3.0110 C   0  0  0  0  0  0  0  0  0  0  0  0
   28.2060   51.4010   -4.7990 C   0  0  0  0  0  0  0  0  0  0  0  0
  1  2  1  0
  2  3  2  0
  1  4  1  0
  2  5  1  0
  4  6  2  0
  7  4  1  6
  5  8  1  1
  5  9  1  0
  7  9  1  0
  7 10  1  0
  8 11  1  0
  9 12  1  1
 10 13  1  0
 12 13  1  0
 10 14  1  6
 11 15  2  0
 11 16  1  0
 14 17  2  0
 14 18  1  0
 15 19  1  0
 16 20  2  0
 17 21  1  0
 18 22  2  0
 19 23  2  0
 20 23  1  0
 21 24  2  0
 22 24  1  0
M  END
