mac-x0302-mac-x0588
     RDKit          3D

 29 32  0  0  0  0  0  0  0  0999 V2000
   31.3270   45.1170   -4.6950 O   0  0  0  0  0  0  0  0  0  0  0  0
   31.0220   46.3110   -5.2690 C   0  0  0  0  0  0  0  0  0  0  0  0
   31.4610   46.5260   -6.3930 O   0  0  0  0  0  0  0  0  0  0  0  0
   30.1220   47.2690   -4.3880 C   0  0  1  0  0  0  0  0  0  0  0  0
   30.9870   48.1650   -3.5910 N   0  0  0  0  0  0  0  0  0  0  0  0
   29.2660   48.2030   -5.2170 N   0  0  0  0  0  0  0  0  0  0  0  0
   29.1840   46.4060   -3.4230 C   0  0  2  0  0  0  0  0  0  0  0  0
   30.6250   49.3540   -2.9930 C   0  0  0  0  0  0  0  0  0  0  0  0
   28.1600   48.8430   -4.4750 C   0  0  0  0  0  0  0  0  0  0  0  0
   28.7610   47.9960   -6.5570 C   0  0  1  0  0  0  0  0  0  0  0  0
   28.8840   46.9880   -2.1280 O   0  0  0  0  0  0  0  0  0  0  0  0
   29.5730   44.9700   -3.0760 C   0  0  0  0  0  0  0  0  0  0  0  0
   30.4360   49.4740   -1.7870 O   0  0  0  0  0  0  0  0  0  0  0  0
   30.4650   50.5660   -3.8590 C   0  0  0  0  0  0  0  0  0  0  0  0
   27.2040   49.5350   -5.3470 N   0  0  0  0  0  0  0  0  0  0  0  0
   28.5870   49.2640   -7.3570 C   0  0  2  0  0  0  0  0  0  0  0  0
   29.4990   47.1290   -7.4760 N   0  0  0  0  0  0  0  0  0  0  0  0
   28.6890   44.6280   -1.8980 C   0  0  0  0  0  0  0  0  0  0  0  0
   28.2910   45.9700   -1.3130 C   0  0  0  0  0  0  0  0  0  0  0  0
   30.0520   51.7610   -3.2460 C   0  0  0  0  0  0  0  0  0  0  0  0
   30.7110   50.5550   -5.2420 C   0  0  0  0  0  0  0  0  0  0  0  0
   27.7260   50.2230   -6.5080 C   0  0  1  0  0  0  0  0  0  0  0  0
   28.0870   48.6680   -8.6060 N   0  0  0  0  0  0  0  0  0  0  0  0
   28.9520   47.5050   -8.7920 C   0  0  0  0  0  0  0  0  0  0  0  0
   26.6160   50.8750   -7.1730 N   0  0  0  0  0  0  0  0  0  0  0  0
   29.8880   52.9140   -4.0110 C   0  0  0  0  0  0  0  0  0  0  0  0
   30.5420   51.7220   -5.9960 C   0  0  0  0  0  0  0  0  0  0  0  0
   29.4880   54.0910   -3.4490 O   0  0  0  0  0  0  0  0  0  0  0  0
   30.1300   52.9030   -5.3800 C   0  0  0  0  0  0  0  0  0  0  0  0
  1  2  1  0
  2  3  2  0
  4  2  1  0
  4  5  1  1
  4  6  1  0
  4  7  1  0
  5  8  1  0
  6  9  1  0
  6 10  1  0
  7 11  1  0
  7 12  1  1
  8 13  2  0
  8 14  1  0
  9 15  1  0
 10 16  1  0
 10 17  1  6
 12 18  1  0
 11 19  1  0
 18 19  1  0
 14 20  2  0
 14 21  1  0
 15 22  1  0
 16 22  1  0
 16 23  1  6
 17 24  1  0
 23 24  1  0
 22 25  1  6
 20 26  1  0
 21 27  2  0
 26 28  1  0
 26 29  2  0
 27 29  1  0
M  END
