mac-x0277-mac-x0344
     RDKit          3D

 20 21  0  0  0  0  0  0  0  0999 V2000
   28.4230   46.3460   -0.1490 Cl  0  0  0  0  0  0  0  0  0  0  0  0
   29.3600   46.0740   -1.5730 C   0  0  0  0  0  0  0  0  0  0  0  0
   30.5630   46.7410   -1.8180 C   0  0  0  0  0  0  0  0  0  0  0  0
   28.8770   45.1500   -2.4990 C   0  0  0  0  0  0  0  0  0  0  0  0
   31.2190   47.8950   -0.7150 Cl  0  0  0  0  0  0  0  0  0  0  0  0
   31.2810   46.4780   -2.9960 C   0  0  0  0  0  0  0  0  0  0  0  0
   29.5930   44.8880   -3.6750 C   0  0  0  0  0  0  0  0  0  0  0  0
   30.8030   45.5480   -3.9380 C   0  0  0  0  0  0  0  0  0  0  0  0
   31.5890   45.2750   -5.2090 C   0  0  1  0  0  0  0  0  0  0  0  0
   33.1390   45.6080   -5.2330 C   0  0  0  0  0  0  0  0  0  0  0  0
   31.3860   43.9080   -5.6460 O   0  0  0  0  0  0  0  0  0  0  0  0
   33.3910   46.8960   -5.7300 O   0  0  0  0  0  0  0  0  0  0  0  0
   33.7490   44.7120   -6.1570 O   0  0  0  0  0  0  0  0  0  0  0  0
   33.8560   45.3790   -4.0050 N   0  0  0  0  0  0  0  0  0  0  0  0
   34.7720   46.2120   -3.3770 C   0  0  0  0  0  0  0  0  0  0  0  0
   35.8080   45.6160   -2.6380 C   0  0  0  0  0  0  0  0  0  0  0  0
   34.7480   47.6080   -3.4220 C   0  0  0  0  0  0  0  0  0  0  0  0
   36.7750   46.3740   -1.9740 C   0  0  0  0  0  0  0  0  0  0  0  0
   35.7130   48.3820   -2.7600 C   0  0  0  0  0  0  0  0  0  0  0  0
   36.7260   47.7640   -2.0380 C   0  0  0  0  0  0  0  0  0  0  0  0
  1  2  1  0
  2  3  2  0
  2  4  1  0
  3  5  1  0
  3  6  1  0
  4  7  2  0
  6  8  2  0
  7  8  1  0
  8  9  1  0
  9 10  1  0
  9 11  1  1
 10 12  1  0
 10 13  1  0
 10 14  1  0
 14 15  1  0
 15 16  2  0
 15 17  1  0
 16 18  1  0
 17 19  2  0
 18 20  2  0
 19 20  1  0
M  END
