mac-x0439-mac-x0365
     RDKit          3D

 23 25  0  0  0  0  0  0  0  0999 V2000
   30.3330   47.6400   -3.2680 N   0  0  0  0  0  0  0  0  0  0  0  0
   30.2100   48.3050   -4.5410 C   0  0  2  0  0  0  0  0  0  0  0  0
   31.4940   48.2220   -5.1300 O   0  0  0  0  0  0  0  0  0  0  0  0
   29.7030   46.4690   -2.8530 C   0  0  0  0  0  0  0  0  0  0  0  0
   30.3070   45.1400   -3.2730 C   0  0  2  0  0  0  0  0  0  0  0  0
   28.5820   46.4000   -2.0940 C   0  0  0  0  0  0  0  0  0  0  0  0
   29.8020   49.7600   -4.4150 C   0  0  0  0  0  0  0  0  0  0  0  0
   30.8920   44.9560   -4.6360 C   0  0  0  0  0  0  0  0  0  0  0  0
   29.1760   44.1430   -3.4570 C   0  0  0  0  0  0  0  0  0  0  0  0
   27.9830   45.1290   -1.6950 C   0  0  0  0  0  0  0  0  0  0  0  0
   29.9290   50.4660   -3.2050 C   0  0  0  0  0  0  0  0  0  0  0  0
   29.2810   50.4350   -5.5370 C   0  0  0  0  0  0  0  0  0  0  0  0
   30.1790   44.0330   -5.3070 C   0  0  0  0  0  0  0  0  0  0  0  0
   29.1180   43.5200   -4.5930 N   0  0  0  0  0  0  0  0  0  0  0  0
   28.2440   43.9790   -2.3370 C   0  0  0  0  0  0  0  0  0  0  0  0
   29.5450   51.8020   -3.1330 C   0  0  0  0  0  0  0  0  0  0  0  0
   28.8980   51.7780   -5.4540 C   0  0  0  0  0  0  0  0  0  0  0  0
   30.4970   43.5970   -6.6990 C   0  0  0  0  0  0  0  0  0  0  0  0
   29.6680   52.4730   -1.9770 F   0  0  0  0  0  0  0  0  0  0  0  0
   29.0330   52.4540   -4.2490 C   0  0  0  0  0  0  0  0  0  0  0  0
   29.6530   42.6340   -7.1400 O   0  0  0  0  0  0  0  0  0  0  0  0
   31.4070   44.0450   -7.3770 O   0  0  0  0  0  0  0  0  0  0  0  0
   28.6540   53.7640   -4.1890 O   0  0  0  0  0  0  0  0  0  0  0  0
  1  2  1  0
  2  3  1  1
  1  4  1  0
  4  5  1  0
  4  6  2  0
  2  7  1  0
  5  8  1  6
  5  9  1  0
  6 10  1  0
  7 11  2  0
  7 12  1  0
  8 13  2  0
  9 14  2  0
 13 14  1  0
  9 15  1  0
 10 15  2  0
 11 16  1  0
 12 17  2  0
 13 18  1  0
 16 19  1  0
 16 20  2  0
 17 20  1  0
 18 21  1  0
 18 22  2  0
 20 23  1  0
M  END
