mac-x0212-mac-x0182
     RDKit          3D

 27 29  0  0  0  0  0  0  0  0999 V2000
   30.8070   53.8270   -6.4000 C   0  0  0  0  0  0  0  0  0  0  0  0
   29.3280   54.2930   -5.5260 S   0  0  0  0  0  0  0  0  0  0  0  0
   28.7520   55.4610   -6.1550 O   0  0  0  0  0  0  0  0  0  0  0  0
   29.6260   54.2740   -4.1110 O   0  0  0  0  0  0  0  0  0  0  0  0
   28.3490   52.9350   -5.8040 N   0  0  0  0  0  0  0  0  0  0  0  0
   28.8710   51.6750   -5.3940 C   0  0  0  0  0  0  0  0  0  0  0  0
   29.1930   50.7080   -6.3470 C   0  0  0  0  0  0  0  0  0  0  0  0
   29.0550   51.4180   -4.0360 C   0  0  0  0  0  0  0  0  0  0  0  0
   29.7020   49.4730   -5.9400 C   0  0  0  0  0  0  0  0  0  0  0  0
   29.5650   50.1840   -3.6250 C   0  0  0  0  0  0  0  0  0  0  0  0
   29.8880   49.2120   -4.5750 C   0  0  0  0  0  0  0  0  0  0  0  0
   30.4250   47.9170   -4.0980 C   0  0  0  0  0  0  0  0  0  0  0  0
   30.0850   46.8350   -4.5400 O   0  0  0  0  0  0  0  0  0  0  0  0
   31.3250   48.1420   -3.1150 O   0  0  0  0  0  0  0  0  0  0  0  0
   32.6690   47.9510   -3.5500 C   0  0  0  0  0  0  0  0  0  0  0  0
   32.9990   46.5570   -3.8490 N   0  0  0  0  0  0  0  0  0  0  0  0
   34.3050   46.2670   -4.5760 S   0  0  2  0  0  0  0  0  0  0  0  0
   34.7020   46.6450   -5.9100 O   0  0  0  0  0  0  0  0  0  0  0  0
   34.3670   44.5890   -4.5400 N   0  0  0  0  0  0  0  0  0  0  0  0
   35.6490   46.4710   -3.4950 C   0  0  0  0  0  0  0  0  0  0  0  0
   35.0060   44.1800   -3.3980 C   0  0  0  0  0  0  0  0  0  0  0  0
   35.9250   45.2390   -2.9160 C   0  0  0  0  0  0  0  0  0  0  0  0
   36.3650   47.6160   -3.2110 C   0  0  0  0  0  0  0  0  0  0  0  0
   34.8520   43.1070   -2.8370 O   0  0  0  0  0  0  0  0  0  0  0  0
   37.4120   47.4920   -2.2930 C   0  0  0  0  0  0  0  0  0  0  0  0
   36.9580   45.1060   -2.0050 C   0  0  0  0  0  0  0  0  0  0  0  0
   37.7060   46.2490   -1.6950 C   0  0  0  0  0  0  0  0  0  0  0  0
  1  2  1  0
  2  3  2  0
  2  4  2  0
  2  5  1  0
  5  6  1  0
  6  7  2  0
  6  8  1  0
  7  9  1  0
  8 10  2  0
  9 11  2  0
 10 11  1  0
 11 12  1  0
 12 13  2  0
 12 14  1  0
 14 15  1  0
 15 16  1  0
 16 17  2  0
 17 18  2  0
 17 19  1  6
 17 20  1  0
 19 21  1  0
 20 22  2  0
 21 22  1  0
 20 23  1  0
 21 24  2  0
 23 25  2  0
 22 26  1  0
 25 27  1  0
 26 27  2  0
M  END
