mac-x0302-mac-x0226
     RDKit          3D

 27 29  0  0  0  0  0  0  0  0999 V2000
   29.5230   45.4410   -5.4480 O   0  0  0  0  0  0  0  0  0  0  0  0
   30.7340   46.0060   -5.3200 C   0  0  0  0  0  0  0  0  0  0  0  0
   31.6280   45.6170   -6.1600 N   0  0  0  0  0  0  0  0  0  0  0  0
   30.8090   47.0030   -4.1660 C   0  0  0  0  0  0  0  0  0  0  0  0
   29.9530   48.1210   -4.5130 N   0  0  0  0  0  0  0  0  0  0  0  0
   32.9000   46.0910   -6.0390 C   0  0  0  0  0  0  0  0  0  0  0  0
   29.8900   49.2670   -3.7410 C   0  0  0  0  0  0  0  0  0  0  0  0
   33.4790   46.9400   -6.7120 O   0  0  0  0  0  0  0  0  0  0  0  0
   33.4970   45.3870   -4.9290 C   0  0  0  0  0  0  0  0  0  0  0  0
   30.1150   49.2560   -2.5320 O   0  0  0  0  0  0  0  0  0  0  0  0
   29.5300   50.5230   -4.4560 C   0  0  0  0  0  0  0  0  0  0  0  0
   33.0280   44.1700   -4.3990 C   0  0  0  0  0  0  0  0  0  0  0  0
   34.5910   45.6880   -4.1470 C   0  0  0  0  0  0  0  0  0  0  0  0
   29.7040   51.7500   -3.8060 C   0  0  0  0  0  0  0  0  0  0  0  0
   29.0230   50.4980   -5.7620 C   0  0  0  0  0  0  0  0  0  0  0  0
   33.7480   43.7320   -3.3760 N   0  0  0  0  0  0  0  0  0  0  0  0
   34.7130   44.6750   -3.2210 N   0  0  0  0  0  0  0  0  0  0  0  0
   29.3700   52.9310   -4.4620 C   0  0  0  0  0  0  0  0  0  0  0  0
   28.6910   51.6910   -6.4100 C   0  0  0  0  0  0  0  0  0  0  0  0
   35.6770   44.5450   -2.2030 C   0  0  0  0  0  0  0  0  0  0  0  0
   29.5580   54.1030   -3.7880 O   0  0  0  0  0  0  0  0  0  0  0  0
   28.8640   52.9140   -5.7620 C   0  0  0  0  0  0  0  0  0  0  0  0
   36.5380   45.6020   -1.8980 C   0  0  0  0  0  0  0  0  0  0  0  0
   35.7660   43.3410   -1.4910 C   0  0  0  0  0  0  0  0  0  0  0  0
   37.4820   45.4530   -0.8820 C   0  0  0  0  0  0  0  0  0  0  0  0
   36.7100   43.1980   -0.4780 C   0  0  0  0  0  0  0  0  0  0  0  0
   37.5680   44.2540   -0.1740 C   0  0  0  0  0  0  0  0  0  0  0  0
  1  2  1  0
  2  3  2  3
  2  4  1  0
  4  5  1  0
  3  6  1  0
  5  7  1  0
  6  8  2  0
  6  9  1  0
  7 10  2  0
  7 11  1  0
  9 12  1  0
  9 13  2  0
 11 14  2  0
 11 15  1  0
 12 16  2  0
 13 17  1  0
 16 17  1  0
 14 18  1  0
 15 19  2  0
 17 20  1  0
 18 21  1  0
 18 22  2  0
 19 22  1  0
 20 23  2  0
 20 24  1  0
 23 25  1  0
 24 26  2  0
 25 27  2  0
 26 27  1  0
M  END
