mac-x0139-mac-x0373
     RDKit          3D

 22 24  0  0  0  0  0  0  0  0999 V2000
   30.4040   47.3770   -4.2530 C   0  0  0  0  0  0  0  0  0  0  0  0
   30.1940   46.8420   -5.6070 N   0  0  0  0  0  0  0  0  0  0  0  0
   30.7130   45.4750   -5.8580 C   0  0  0  0  0  0  0  0  0  0  0  0
   31.8700   47.6330   -3.9490 C   0  0  0  0  0  0  0  0  0  0  0  0
   29.5480   47.5420   -6.6480 C   0  0  0  0  0  0  0  0  0  0  0  0
   32.5950   46.7550   -3.1300 C   0  0  0  0  0  0  0  0  0  0  0  0
   32.5210   48.7560   -4.4840 C   0  0  0  0  0  0  0  0  0  0  0  0
   32.2350   45.4340   -5.9680 C   0  0  0  0  0  0  0  0  0  0  0  0
   29.4140   48.8940   -6.6570 C   0  0  0  0  0  0  0  0  0  0  0  0
   29.0310   46.7730   -7.7100 N   0  0  0  0  0  0  0  0  0  0  0  0
   33.9420   46.9950   -2.8540 C   0  0  0  0  0  0  0  0  0  0  0  0
   33.8680   48.9940   -4.2070 C   0  0  0  0  0  0  0  0  0  0  0  0
   32.6660   44.5380   -7.1000 C   0  0  0  0  0  0  0  0  0  0  0  0
   28.7200   49.5270   -7.8060 C   0  0  0  0  0  0  0  0  0  0  0  0
   28.4350   47.3790   -8.6910 C   0  0  0  0  0  0  0  0  0  0  0  0
   29.7600   50.0120   -5.8370 C   0  0  0  0  0  0  0  0  0  0  0  0
   34.5780   48.1150   -3.3920 C   0  0  0  0  0  0  0  0  0  0  0  0
   31.9270   43.8450   -7.7840 O   0  0  0  0  0  0  0  0  0  0  0  0
   34.0060   44.5660   -7.3040 O   0  0  0  0  0  0  0  0  0  0  0  0
   28.2540   48.7220   -8.7890 N   0  0  0  0  0  0  0  0  0  0  0  0
   28.6580   50.8260   -7.6920 N   0  0  0  0  0  0  0  0  0  0  0  0
   29.2950   51.0890   -6.4890 C   0  0  0  0  0  0  0  0  0  0  0  0
  1  2  1  0
  2  3  1  0
  1  4  1  0
  2  5  1  0
  4  6  2  0
  4  7  1  0
  3  8  1  0
  5  9  2  0
  5 10  1  0
  6 11  1  0
  7 12  2  0
  8 13  1  0
  9 14  1  0
 10 15  2  0
  9 16  1  0
 11 17  2  0
 12 17  1  0
 13 18  2  0
 13 19  1  0
 14 20  1  0
 15 20  1  0
 14 21  2  0
 16 22  2  0
 21 22  1  0
M  END
