mac-x0223-mac-x0224
     RDKit          3D

 22 23  0  0  0  0  0  0  0  0999 V2000
   27.0120   43.7820   -2.2010 C   0  0  0  0  0  0  0  0  0  0  0  0
   27.1520   45.1900   -2.3600 O   0  0  0  0  0  0  0  0  0  0  0  0
   28.4340   45.6620   -2.4070 C   0  0  0  0  0  0  0  0  0  0  0  0
   28.7790   46.5390   -1.3750 C   0  0  0  0  0  0  0  0  0  0  0  0
   29.3890   45.3500   -3.3750 C   0  0  0  0  0  0  0  0  0  0  0  0
   27.8600   46.8730   -0.4170 O   0  0  0  0  0  0  0  0  0  0  0  0
   30.0430   47.0950   -1.2880 C   0  0  0  0  0  0  0  0  0  0  0  0
   30.6760   45.9060   -3.3070 C   0  0  0  0  0  0  0  0  0  0  0  0
   31.7130   45.5700   -4.3630 C   0  0  0  0  0  0  0  0  0  0  0  0
   30.9920   46.7770   -2.2520 C   0  0  0  0  0  0  0  0  0  0  0  0
   31.7560   46.5930   -5.5370 C   0  0  0  0  0  0  0  0  0  0  0  0
   33.0760   46.9010   -5.9520 O   0  0  0  0  0  0  0  0  0  0  0  0
   31.1060   46.0720   -6.6920 O   0  0  0  0  0  0  0  0  0  0  0  0
   31.0560   47.8850   -5.1060 C   0  0  0  0  0  0  0  0  0  0  0  0
   29.9870   48.4160   -5.8680 C   0  0  0  0  0  0  0  0  0  0  0  0
   31.4300   48.5980   -3.9590 C   0  0  0  0  0  0  0  0  0  0  0  0
   32.4510   48.1870   -3.1510 O   0  0  0  0  0  0  0  0  0  0  0  0
   29.3350   49.6010   -5.4870 C   0  0  0  0  0  0  0  0  0  0  0  0
   30.7870   49.7690   -3.5710 C   0  0  0  0  0  0  0  0  0  0  0  0
   27.9990   50.2350   -6.4860 S   0  0  0  0  0  0  0  0  0  0  0  0
   29.7410   50.2710   -4.3350 C   0  0  0  0  0  0  0  0  0  0  0  0
   28.3600   52.0100   -6.3690 C   0  0  0  0  0  0  0  0  0  0  0  0
  1  2  1  0
  2  3  1  0
  3  4  2  0
  3  5  1  0
  4  6  1  0
  4  7  1  0
  5  8  2  0
  8  9  1  0
  7 10  2  0
  8 10  1  0
  9 11  1  0
 11 12  1  0
 11 13  1  0
 11 14  1  0
 14 15  2  0
 14 16  1  0
 16 17  1  0
 15 18  1  0
 16 19  2  0
 18 20  1  0
 18 21  2  0
 19 21  1  0
 20 22  1  0
M  END
