mac-x0348-mac-x0188
     RDKit          3D

 27 30  0  0  0  0  0  0  0  0999 V2000
   28.6810   43.8530   -0.2130 C   0  0  0  0  0  0  0  0  0  0  0  0
   28.9540   44.8680   -1.2030 N   0  0  0  0  0  0  0  0  0  0  0  0
   29.6960   44.6770   -2.3360 C   0  0  0  0  0  0  0  0  0  0  0  0
   28.5050   46.1660   -1.1430 C   0  0  0  0  0  0  0  0  0  0  0  0
   29.7510   45.8650   -3.0520 C   0  0  0  0  0  0  0  0  0  0  0  0
   28.9820   46.8190   -2.2840 C   0  0  0  0  0  0  0  0  0  0  0  0
   27.7180   46.8150   -0.1770 C   0  0  0  0  0  0  0  0  0  0  0  0
   30.4770   46.1180   -4.3800 C   0  0  1  0  0  0  0  0  0  0  0  0
   28.6490   48.1780   -2.4540 C   0  0  0  0  0  0  0  0  0  0  0  0
   27.4090   48.1630   -0.3770 C   0  0  0  0  0  0  0  0  0  0  0  0
   29.6390   46.9260   -5.2450 O   0  0  0  0  0  0  0  0  0  0  0  0
   27.8670   48.8390   -1.5000 C   0  0  0  0  0  0  0  0  0  0  0  0
   31.7350   47.0040   -4.1310 C   0  0  2  0  0  0  0  0  0  0  0  0
   30.7560   44.8130   -5.1710 C   0  0  0  0  0  0  0  0  0  0  0  0
   32.9960   46.2620   -3.7490 C   0  0  0  0  0  0  0  0  0  0  0  0
   31.7510   48.1750   -3.1520 C   0  0  1  0  0  0  0  0  0  0  0  0
   30.7520   44.9990   -6.6720 C   0  0  0  0  0  0  0  0  0  0  0  0
   33.9310   47.2810   -3.3650 O   0  0  0  0  0  0  0  0  0  0  0  0
   33.1910   48.5150   -3.0600 N   0  0  0  0  0  0  0  0  0  0  0  0
   30.9380   49.4260   -3.4540 C   0  0  0  0  0  0  0  0  0  0  0  0
   29.7990   45.2850   -7.3800 O   0  0  0  0  0  0  0  0  0  0  0  0
   31.9700   44.8070   -7.2210 O   0  0  0  0  0  0  0  0  0  0  0  0
   30.6620   50.4030   -2.4850 C   0  0  0  0  0  0  0  0  0  0  0  0
   30.4380   49.6180   -4.7500 C   0  0  0  0  0  0  0  0  0  0  0  0
   29.9070   51.5390   -2.8070 C   0  0  0  0  0  0  0  0  0  0  0  0
   29.6820   50.7530   -5.0710 C   0  0  0  0  0  0  0  0  0  0  0  0
   29.4210   51.7080   -4.1000 C   0  0  0  0  0  0  0  0  0  0  0  0
  1  2  1  0
  2  3  1  0
  2  4  1  0
  3  5  2  0
  4  6  2  0
  5  6  1  0
  4  7  1  0
  5  8  1  0
  6  9  1  0
  7 10  2  0
  8 11  1  6
  9 12  2  0
 10 12  1  0
  8 13  1  0
  8 14  1  0
 13 15  1  1
 13 16  1  0
 14 17  1  0
 15 18  1  0
 16 19  1  0
 18 19  1  0
 16 20  1  6
 17 21  2  0
 17 22  1  0
 20 23  2  0
 20 24  1  0
 23 25  1  0
 24 26  2  0
 25 27  2  0
 26 27  1  0
M  END
