mac-x0123-mac-x0587
     RDKit          3D

 23 25  0  0  0  0  0  0  0  0999 V2000
   28.5480   51.4990   -7.3210 N   0  0  0  0  0  0  0  0  0  0  0  0
   28.9980   52.0690   -6.1540 C   0  0  0  0  0  0  0  0  0  0  0  0
   29.0260   53.3950   -5.9270 C   0  0  0  0  0  0  0  0  0  0  0  0
   29.4640   51.2390   -5.1120 N   0  0  0  0  0  0  0  0  0  0  0  0
   29.9330   51.7600   -3.8910 C   0  0  0  0  0  0  0  0  0  0  0  0
   29.5410   53.8600   -4.6050 C   0  0  0  0  0  0  0  0  0  0  0  0
   28.6450   54.5950   -6.7230 C   0  0  0  0  0  0  0  0  0  0  0  0
   29.5710   49.7490   -5.0380 N   0  0  0  0  0  0  0  0  0  0  0  0
   29.2270   48.9760   -5.9890 O   0  0  0  0  0  0  0  0  0  0  0  0
   29.9680   53.1060   -3.6390 N   0  0  0  0  0  0  0  0  0  0  0  0
   29.4980   55.3560   -4.5380 C   0  0  0  0  0  0  0  0  0  0  0  0
   29.3820   55.7400   -6.0170 C   0  0  0  0  0  0  0  0  0  0  0  0
   30.3040   50.7580   -3.0930 N   0  0  0  0  0  0  0  0  0  0  0  0
   30.0790   49.5380   -3.8020 C   0  0  0  0  0  0  0  0  0  0  0  0
   30.3800   48.2320   -3.2040 C   0  0  0  0  0  0  0  0  0  0  0  0
   30.5040   46.9670   -4.0790 C   0  0  2  0  0  0  0  0  0  0  0  0
   30.5380   48.1620   -1.9940 O   0  0  0  0  0  0  0  0  0  0  0  0
   29.3890   45.9620   -3.7700 C   0  0  0  0  0  0  0  0  0  0  0  0
   32.0940   46.0980   -3.6920 S   0  0  0  0  0  0  0  0  0  0  0  0
   33.2140   46.7070   -5.0000 C   0  0  0  0  0  0  0  0  0  0  0  0
   33.2390   45.8700   -6.2660 C   0  0  0  0  0  0  0  0  0  0  0  0
   34.2550   45.5820   -6.8850 O   0  0  0  0  0  0  0  0  0  0  0  0
   32.0080   45.4530   -6.6820 O   0  0  0  0  0  0  0  0  0  0  0  0
  1  2  1  0
  2  3  2  0
  2  4  1  0
  4  5  1  0
  3  6  1  0
  3  7  1  0
  4  8  1  0
  8  9  1  0
  5 10  1  0
  6 10  2  0
  6 11  1  0
  7 12  1  0
 11 12  1  0
  5 13  2  0
  8 14  2  0
 13 14  1  0
 14 15  1  0
 15 16  1  0
 15 17  2  0
 16 18  1  1
 16 19  1  0
 19 20  1  0
 20 21  1  0
 21 22  2  0
 21 23  1  0
M  CHG  2   8   1   9  -1
M  END
