mac-x0441-mac-x0321
     RDKit          3D

 29 31  0  0  0  0  0  0  0  0999 V2000
   34.2900   44.8010   -6.0740 O   0  0  0  0  0  0  0  0  0  0  0  0
   33.0980   45.0240   -5.4990 C   0  0  0  0  0  0  0  0  0  0  0  0
   32.1580   45.3670   -6.3100 N   0  0  0  0  0  0  0  0  0  0  0  0
   33.0590   44.8330   -4.0090 C   0  0  0  0  0  0  0  0  0  0  0  0
   30.8250   45.6260   -5.7660 C   0  0  0  0  0  0  0  0  0  0  0  0
   34.3690   44.6590   -3.3940 N   0  0  0  0  0  0  0  0  0  0  0  0
   30.4060   47.0640   -6.0800 C   0  0  0  0  0  0  0  0  0  0  0  0
   34.7100   43.4380   -2.9200 N   0  0  0  0  0  0  0  0  0  0  0  0
   35.3550   45.5860   -3.2090 C   0  0  0  0  0  0  0  0  0  0  0  0
   30.3220   47.7930   -4.8430 O   0  0  0  0  0  0  0  0  0  0  0  0
   35.9540   43.5900   -2.4160 C   0  0  0  0  0  0  0  0  0  0  0  0
   36.3940   44.9310   -2.5800 C   0  0  0  0  0  0  0  0  0  0  0  0
   35.3400   47.0230   -3.5960 C   0  0  0  0  0  0  0  0  0  0  0  0
   36.7300   42.4650   -1.7770 C   0  0  0  0  0  0  0  0  0  0  0  0
   29.0970   48.3110   -4.5810 C   0  0  0  0  0  0  0  0  0  0  0  0
   37.6690   45.6000   -2.1990 C   0  0  0  0  0  0  0  0  0  0  0  0
   36.4850   47.7640   -2.8760 C   0  0  0  0  0  0  0  0  0  0  0  0
   37.8120   42.1100   -2.5250 F   0  0  0  0  0  0  0  0  0  0  0  0
   37.1950   42.7510   -0.5310 F   0  0  0  0  0  0  0  0  0  0  0  0
   35.9700   41.3410   -1.6560 F   0  0  0  0  0  0  0  0  0  0  0  0
   28.0710   47.6740   -4.4070 O   0  0  0  0  0  0  0  0  0  0  0  0
   37.8020   46.9680   -2.9000 C   0  0  0  0  0  0  0  0  0  0  0  0
   29.1550   49.7990   -4.5280 C   0  0  0  0  0  0  0  0  0  0  0  0
   28.7720   50.5120   -5.6720 C   0  0  0  0  0  0  0  0  0  0  0  0
   29.5750   50.4930   -3.3850 C   0  0  0  0  0  0  0  0  0  0  0  0
   28.8140   51.9080   -5.6640 C   0  0  0  0  0  0  0  0  0  0  0  0
   29.6130   51.8920   -3.3850 C   0  0  0  0  0  0  0  0  0  0  0  0
   28.3450   52.7860   -7.0680 Cl  0  0  0  0  0  0  0  0  0  0  0  0
   29.2310   52.5980   -4.5260 C   0  0  0  0  0  0  0  0  0  0  0  0
  1  2  1  0
  2  3  2  3
  2  4  1  0
  3  5  1  0
  4  6  1  0
  5  7  1  0
  6  8  1  0
  6  9  1  0
  7 10  1  0
  8 11  2  0
  9 12  2  0
 11 12  1  0
  9 13  1  0
 11 14  1  0
 10 15  1  0
 12 16  1  0
 13 17  1  0
 14 18  1  0
 14 19  1  0
 14 20  1  0
 15 21  2  0
 16 22  1  0
 17 22  1  0
 15 23  1  0
 23 24  2  0
 23 25  1  0
 24 26  1  0
 25 27  2  0
 26 28  1  0
 26 29  2  0
 27 29  1  0
M  END
