mac-x0397-mac-x0411
     RDKit          3D

 26 28  0  0  0  0  0  0  0  0999 V2000
   29.5440   52.4600   -2.3430 Cl  0  0  0  0  0  0  0  0  0  0  0  0
   29.6980   51.3840   -3.6660 C   0  0  0  0  0  0  0  0  0  0  0  0
   29.3380   51.8850   -4.9340 C   0  0  0  0  0  0  0  0  0  0  0  0
   30.1600   50.0790   -3.4890 C   0  0  0  0  0  0  0  0  0  0  0  0
   28.8710   53.1570   -5.2630 N   0  0  0  0  0  0  0  0  0  0  0  0
   29.4580   51.0120   -6.0200 C   0  0  0  0  0  0  0  0  0  0  0  0
   30.2770   49.2260   -4.5880 C   0  0  0  0  0  0  0  0  0  0  0  0
   30.7950   47.8140   -4.3960 C   0  0  0  0  0  0  0  0  0  0  0  0
   28.6490   53.2450   -6.5470 C   0  0  0  0  0  0  0  0  0  0  0  0
   28.9690   51.8290   -7.4530 S   0  0  0  0  0  0  0  0  0  0  0  0
   29.9220   49.6870   -5.8680 C   0  0  0  0  0  0  0  0  0  0  0  0
   28.1980   54.3700   -7.1350 N   0  0  0  0  0  0  0  0  0  0  0  0
   32.3340   47.7150   -4.4390 C   0  0  0  0  0  0  0  0  0  0  0  0
   32.9420   47.1970   -3.1250 C   0  0  0  0  0  0  0  0  0  0  0  0
   34.4560   46.9950   -3.1480 C   0  0  0  0  0  0  0  0  0  0  0  0
   35.0750   45.7250   -3.2970 C   0  0  0  0  0  0  0  0  0  0  0  0
   35.2770   48.1330   -3.0070 C   0  0  0  0  0  0  0  0  0  0  0  0
   34.2830   44.6030   -3.4340 O   0  0  0  0  0  0  0  0  0  0  0  0
   36.6690   48.0250   -3.0090 C   0  0  0  0  0  0  0  0  0  0  0  0
   36.4840   45.6330   -3.2950 C   0  0  0  0  0  0  0  0  0  0  0  0
   37.3230   44.1310   -3.4610 Cl  0  0  0  0  0  0  0  0  0  0  0  0
   33.1620   44.6610   -4.3130 C   0  0  0  0  0  0  0  0  0  0  0  0
   37.2690   46.7810   -3.1500 C   0  0  0  0  0  0  0  0  0  0  0  0
   33.3160   45.0590   -5.7800 C   0  0  0  0  0  0  0  0  0  0  0  0
   32.1450   45.0550   -6.4520 O   0  0  0  0  0  0  0  0  0  0  0  0
   34.3490   45.3610   -6.3570 O   0  0  0  0  0  0  0  0  0  0  0  0
  1  2  1  0
  2  3  2  0
  2  4  1  0
  3  5  1  0
  3  6  1  0
  4  7  2  0
  7  8  1  0
  5  9  2  0
  6 10  1  0
  9 10  1  0
  6 11  2  0
  7 11  1  0
  9 12  1  0
  8 13  1  0
 13 14  1  0
 14 15  1  0
 15 16  2  0
 15 17  1  0
 16 18  1  0
 17 19  2  0
 16 20  1  0
 20 21  1  0
 18 22  1  0
 19 23  1  0
 20 23  2  0
 22 24  1  0
 24 25  1  0
 24 26  2  0
M  END
