mac-x0137-mac-x0564
     RDKit          3D

 25 29  0  0  0  0  0  0  0  0999 V2000
   31.9390   49.6170   -2.5200 F   0  0  0  0  0  0  0  0  0  0  0  0
   31.3420   48.7980   -3.4420 C   0  0  2  0  0  0  0  0  0  0  0  0
   32.4420   47.8950   -3.9900 C   0  0  0  0  0  0  0  0  0  0  0  0
   30.5970   49.6980   -4.5080 C   0  0  1  0  0  0  0  0  0  0  0  0
   30.5130   48.9380   -5.9110 C   0  0  1  0  0  0  0  0  0  0  0  0
   31.9230   46.9100   -5.0200 C   0  0  0  0  0  0  0  0  0  0  0  0
   29.2700   50.0430   -3.8250 C   0  0  0  0  0  0  0  0  0  0  0  0
   31.4700   51.0020   -4.6510 C   0  0  1  0  0  0  0  0  0  0  0  0
   30.6520   47.4070   -5.6580 C   0  0  0  0  0  0  0  0  0  0  0  0
   29.2600   49.1020   -6.8540 C   0  0  0  0  0  0  0  0  0  0  0  0
   29.1750   51.0680   -2.9570 C   0  0  0  0  0  0  0  0  0  0  0  0
   31.4140   51.8720   -3.4150 C   0  0  0  0  0  0  0  0  0  0  0  0
   32.8830   50.7180   -5.1410 C   0  0  0  0  0  0  0  0  0  0  0  0
   31.7510   49.3460   -6.7750 C   0  0  0  0  0  0  0  0  0  0  0  0
   29.7640   46.5980   -5.9590 O   0  0  0  0  0  0  0  0  0  0  0  0
   29.0280   48.0730   -7.7890 N   0  0  0  0  0  0  0  0  0  0  0  0
   28.3580   50.1060   -6.9020 C   0  0  0  0  0  0  0  0  0  0  0  0
   30.3230   51.8860   -2.6360 C   0  0  0  0  0  0  0  0  0  0  0  0
   32.9430   49.6050   -6.0210 O   0  0  0  0  0  0  0  0  0  0  0  0
   27.9810   48.0890   -8.6710 C   0  0  0  0  0  0  0  0  0  0  0  0
   27.2370   50.0460   -7.8980 C   0  0  0  0  0  0  0  0  0  0  0  0
   28.0860   51.3480   -6.2440 C   0  0  0  0  0  0  0  0  0  0  0  0
   27.0850   49.0110   -8.7710 N   0  0  0  0  0  0  0  0  0  0  0  0
   26.4410   51.0780   -7.8330 N   0  0  0  0  0  0  0  0  0  0  0  0
   26.9820   51.8490   -6.8230 C   0  0  0  0  0  0  0  0  0  0  0  0
  2  1  1  1
  2  3  1  0
  2  4  1  0
  4  5  1  0
  3  6  1  0
  4  7  1  1
  4  8  1  0
  5  9  1  0
  6  9  1  0
  5 10  1  6
  7 11  2  0
  8 12  1  1
  8 13  1  0
  5 14  1  0
  9 15  2  0
 10 16  1  0
 10 17  2  0
 11 18  1  0
 12 18  2  0
 13 19  1  0
 14 19  1  0
 16 20  1  0
 17 21  1  0
 17 22  1  0
 20 23  2  0
 21 23  1  0
 21 24  2  0
 22 25  2  0
 24 25  1  0
M  END
