mac-x0255-mac-x0226
     RDKit          3D

 25 28  0  0  0  0  0  0  0  0999 V2000
   31.5990   46.7990   -7.2010 O   0  0  0  0  0  0  0  0  0  0  0  0
   32.2280   45.5280   -7.0730 C   0  0  1  0  0  0  0  0  0  0  0  0
   33.5100   45.6550   -6.2320 C   0  0  0  0  0  0  0  0  0  0  0  0
   31.2160   44.5050   -6.5400 C   0  0  0  0  0  0  0  0  0  0  0  0
   34.4740   46.2740   -6.6970 O   0  0  0  0  0  0  0  0  0  0  0  0
   30.5150   44.9470   -5.2800 C   0  0  0  0  0  0  0  0  0  0  0  0
   33.5730   45.0150   -4.8510 C   0  0  1  0  0  0  0  0  0  0  0  0
   29.9870   44.1520   -4.2860 C   0  0  0  0  0  0  0  0  0  0  0  0
   30.2920   46.6030   -4.9340 S   0  0  0  0  0  0  0  0  0  0  0  0
   33.7430   43.5000   -4.9080 C   0  0  0  0  0  0  0  0  0  0  0  0
   34.7720   45.4860   -4.0380 C   0  0  0  0  0  0  0  0  0  0  0  0
   29.3860   44.8990   -3.2180 C   0  0  0  0  0  0  0  0  0  0  0  0
   29.4860   46.2740   -3.4500 C   0  0  0  0  0  0  0  0  0  0  0  0
   34.5130   43.1190   -3.7200 N   0  0  0  0  0  0  0  0  0  0  0  0
   35.3010   44.2600   -3.4400 N   0  0  0  0  0  0  0  0  0  0  0  0
   28.7470   44.4600   -2.0380 C   0  0  0  0  0  0  0  0  0  0  0  0
   28.9660   47.2110   -2.5360 C   0  0  0  0  0  0  0  0  0  0  0  0
   36.0140   44.3390   -2.2270 C   0  0  0  0  0  0  0  0  0  0  0  0
   28.2310   45.3860   -1.1290 C   0  0  0  0  0  0  0  0  0  0  0  0
   28.3380   46.7500   -1.3760 C   0  0  0  0  0  0  0  0  0  0  0  0
   36.7550   45.4810   -1.8800 C   0  0  0  0  0  0  0  0  0  0  0  0
   36.0180   43.2760   -1.3080 C   0  0  0  0  0  0  0  0  0  0  0  0
   37.4650   45.5560   -0.6720 C   0  0  0  0  0  0  0  0  0  0  0  0
   36.7250   43.3450   -0.1010 C   0  0  0  0  0  0  0  0  0  0  0  0
   37.4500   44.4860    0.2190 C   0  0  0  0  0  0  0  0  0  0  0  0
  2  1  1  1
  2  3  1  0
  2  4  1  0
  3  5  2  0
  4  6  1  0
  7  3  1  6
  6  8  2  0
  6  9  1  0
  7 10  1  0
  7 11  1  0
  8 12  1  0
  9 13  1  0
 12 13  2  0
 10 14  1  0
 11 15  1  0
 14 15  1  0
 12 16  1  0
 13 17  1  0
 15 18  1  0
 16 19  2  0
 17 20  2  0
 19 20  1  0
 18 21  2  0
 18 22  1  0
 21 23  1  0
 22 24  2  0
 23 25  2  0
 24 25  1  0
M  END
