mac-x0305-mac-x0321
     RDKit          3D

 12 12  0  0  0  0  0  0  0  0999 V2000
   30.0770   46.8110   -7.0980 O   0  0  0  0  0  0  0  0  0  0  0  0
   30.6370   47.4140   -5.9160 C   0  0  2  0  0  0  0  0  0  0  0  0
   30.6230   46.5900   -4.6560 N   0  0  0  0  0  0  0  0  0  0  0  0
   29.9360   48.7470   -5.6610 C   0  0  0  0  0  0  0  0  0  0  0  0
   31.5760   45.8060   -4.5770 O   0  0  0  0  0  0  0  0  0  0  0  0
   29.3820   49.4950   -6.6990 C   0  0  0  0  0  0  0  0  0  0  0  0
   29.8790   49.1680   -4.3570 N   0  0  0  0  0  0  0  0  0  0  0  0
   29.4560   49.0480   -7.9890 O   0  0  0  0  0  0  0  0  0  0  0  0
   28.7590   50.7030   -6.3840 C   0  0  0  0  0  0  0  0  0  0  0  0
   29.2660   50.3440   -4.0960 C   0  0  0  0  0  0  0  0  0  0  0  0
   28.0560   51.6730   -7.6280 Cl  0  0  0  0  0  0  0  0  0  0  0  0
   28.6940   51.1420   -5.0680 C   0  0  0  0  0  0  0  0  0  0  0  0
  2  1  1  6
  2  3  1  0
  2  4  1  0
  3  5  2  0
  4  6  2  0
  4  7  1  0
  6  8  1  0
  6  9  1  0
  7 10  2  0
  9 11  1  0
  9 12  2  0
 10 12  1  0
M  END
