mac-x0565-mac-x0404
     RDKit          3D

 26 29  0  0  0  0  0  0  0  0999 V2000
   30.3170   53.7010   -5.1620 O   0  0  0  0  0  0  0  0  0  0  0  0
   30.4460   53.2300   -3.9020 C   0  0  0  0  0  0  0  0  0  0  0  0
   30.7770   53.9160   -2.9500 O   0  0  0  0  0  0  0  0  0  0  0  0
   30.1430   51.7820   -3.7960 C   0  0  0  0  0  0  0  0  0  0  0  0
   29.2600   51.2200   -4.7260 C   0  0  0  0  0  0  0  0  0  0  0  0
   30.7290   50.9940   -2.7850 C   0  0  0  0  0  0  0  0  0  0  0  0
   28.9850   49.8690   -4.6170 C   0  0  0  0  0  0  0  0  0  0  0  0
   30.4330   49.6310   -2.6980 C   0  0  0  0  0  0  0  0  0  0  0  0
   29.5560   49.0810   -3.6260 C   0  0  0  0  0  0  0  0  0  0  0  0
   28.1420   49.1950   -5.4530 O   0  0  0  0  0  0  0  0  0  0  0  0
   29.0740   47.6670   -3.7580 C   0  0  2  0  0  0  0  0  0  0  0  0
   27.9710   47.8940   -4.8280 C   0  0  0  0  0  0  0  0  0  0  0  0
   28.4900   47.1570   -2.4590 C   0  0  0  0  0  0  0  0  0  0  0  0
   30.1880   46.7800   -4.2800 C   0  0  0  0  0  0  0  0  0  0  0  0
   30.4410   45.5460   -3.8150 C   0  0  0  0  0  0  0  0  0  0  0  0
   28.7290   45.9230   -1.9780 C   0  0  0  0  0  0  0  0  0  0  0  0
   31.4890   44.8160   -4.3660 O   0  0  0  0  0  0  0  0  0  0  0  0
   29.6180   44.9070   -2.7000 C   0  0  2  0  0  0  0  0  0  0  0  0
   28.1470   45.4730   -0.7230 C   0  0  0  0  0  0  0  0  0  0  0  0
   32.7520   45.4360   -4.1240 C   0  0  0  0  0  0  0  0  0  0  0  0
   28.7680   44.5270    0.0020 C   0  0  0  0  0  0  0  0  0  0  0  0
   30.4350   44.1040   -1.7070 C   0  0  0  0  0  0  0  0  0  0  0  0
   33.6210   45.3880   -5.3680 C   0  0  0  0  0  0  0  0  0  0  0  0
   30.0160   43.9370   -0.4390 C   0  0  0  0  0  0  0  0  0  0  0  0
   33.2810   44.4150   -6.2370 O   0  0  0  0  0  0  0  0  0  0  0  0
   34.5600   46.1300   -5.6130 O   0  0  0  0  0  0  0  0  0  0  0  0
  1  2  1  0
  2  3  2  0
  2  4  1  0
  4  5  2  0
  4  6  1  0
  5  7  1  0
  6  8  2  0
  7  9  2  0
  8  9  1  0
  7 10  1  0
  9 11  1  0
 10 12  1  0
 11 12  1  6
 11 13  1  0
 11 14  1  0
 14 15  2  0
 13 16  2  0
 15 17  1  0
 15 18  1  0
 16 18  1  0
 16 19  1  0
 17 20  1  0
 19 21  2  0
 18 22  1  1
 20 23  1  0
 21 24  1  0
 22 24  2  0
 23 25  1  0
 23 26  2  0
M  END
