mac-x0564-mac-x0354
     RDKit          3D

 30 34  0  0  0  0  0  0  0  0999 V2000
   29.3630   47.1200   -7.4750 O   0  0  0  0  0  0  0  0  0  0  0  0
   29.8110   47.3130   -6.3470 C   0  0  0  0  0  0  0  0  0  0  0  0
   30.5370   46.3740   -5.6140 N   0  0  0  0  0  0  0  0  0  0  0  0
   29.6720   48.5150   -5.5930 C   0  0  0  0  0  0  0  0  0  0  0  0
   31.5770   45.6350   -6.2960 C   0  0  0  0  0  0  0  0  0  0  0  0
   29.8940   48.5880   -4.2480 C   0  0  0  0  0  0  0  0  0  0  0  0
   30.5760   46.4500   -4.2220 C   0  0  0  0  0  0  0  0  0  0  0  0
   29.3110   49.7210   -6.0950 O   0  0  0  0  0  0  0  0  0  0  0  0
   32.2010   44.7580   -5.3190 N   0  0  0  0  0  0  0  0  0  0  0  0
   30.2800   47.4820   -3.4820 N   0  0  0  0  0  0  0  0  0  0  0  0
   29.3070   50.5790   -5.0270 C   0  0  0  0  0  0  0  0  0  0  0  0
   29.6650   49.9180   -3.8480 C   0  0  0  0  0  0  0  0  0  0  0  0
   33.4760   44.7530   -5.1890 C   0  0  0  0  0  0  0  0  0  0  0  0
   29.7140   50.6500   -2.6490 C   0  0  0  0  0  0  0  0  0  0  0  0
   28.9910   51.9360   -5.0870 C   0  0  0  0  0  0  0  0  0  0  0  0
   34.1970   45.5650   -5.9840 O   0  0  0  0  0  0  0  0  0  0  0  0
   29.4000   52.0180   -2.6850 C   0  0  0  0  0  0  0  0  0  0  0  0
   29.0450   52.6460   -3.8830 C   0  0  0  0  0  0  0  0  0  0  0  0
   34.2310   43.9590   -4.2660 C   0  0  0  0  0  0  0  0  0  0  0  0
   34.0220   42.6080   -3.9260 C   0  0  0  0  0  0  0  0  0  0  0  0
   35.3250   44.3530   -3.5070 C   0  0  0  0  0  0  0  0  0  0  0  0
   35.6800   43.2340   -2.7860 N   0  0  0  0  0  0  0  0  0  0  0  0
   34.8980   42.1630   -3.0290 N   0  0  0  0  0  0  0  0  0  0  0  0
   36.0210   45.6340   -3.4160 C   0  0  0  0  0  0  0  0  0  0  0  0
   36.7640   43.1100   -1.8390 C   0  0  0  0  0  0  0  0  0  0  0  0
   37.4160   45.6790   -3.5440 C   0  0  0  0  0  0  0  0  0  0  0  0
   35.3150   46.8240   -3.2020 C   0  0  0  0  0  0  0  0  0  0  0  0
   38.0930   46.8960   -3.4580 C   0  0  0  0  0  0  0  0  0  0  0  0
   35.9950   48.0410   -3.1160 C   0  0  0  0  0  0  0  0  0  0  0  0
   37.3830   48.0760   -3.2440 C   0  0  0  0  0  0  0  0  0  0  0  0
  1  2  2  0
  2  3  1  0
  2  4  1  0
  3  5  1  0
  4  6  2  0
  3  7  1  0
  4  8  1  0
  5  9  1  0
  6 10  1  0
  7 10  2  0
  8 11  1  0
  6 12  1  0
 11 12  2  0
  9 13  2  3
 12 14  1  0
 11 15  1  0
 13 16  1  0
 14 17  2  0
 15 18  2  0
 17 18  1  0
 13 19  1  0
 19 20  1  0
 19 21  2  0
 21 22  1  0
 20 23  2  0
 22 23  1  0
 21 24  1  0
 22 25  1  0
 24 26  2  0
 24 27  1  0
 26 28  1  0
 27 29  2  0
 28 30  2  0
 29 30  1  0
M  END
