mac-x0204-mac-x0510
     RDKit          3D

 21 23  0  0  0  0  0  0  0  0999 V2000
   30.2510   45.1810   -5.7120 O   0  0  0  0  0  0  0  0  0  0  0  0
   29.6580   45.8510   -4.7090 C   0  0  0  0  0  0  0  0  0  0  0  0
   28.4530   45.8320   -4.5440 O   0  0  0  0  0  0  0  0  0  0  0  0
   30.6310   46.5650   -3.8750 C   0  0  0  0  0  0  0  0  0  0  0  0
   30.5220   47.8950   -3.4120 C   0  0  0  0  0  0  0  0  0  0  0  0
   31.7610   45.8280   -3.5180 C   0  0  0  0  0  0  0  0  0  0  0  0
   29.4380   48.7680   -3.6840 N   0  0  0  0  0  0  0  0  0  0  0  0
   31.5760   48.3810   -2.6110 C   0  0  0  0  0  0  0  0  0  0  0  0
   32.7740   46.2970   -2.7520 N   0  0  0  0  0  0  0  0  0  0  0  0
   31.5170   49.6610   -2.1290 O   0  0  0  0  0  0  0  0  0  0  0  0
   32.6580   47.5630   -2.3150 C   0  0  0  0  0  0  0  0  0  0  0  0
   29.1570   49.3520   -4.8190 C   0  0  0  0  0  0  0  0  0  0  0  0
   29.7490   49.3410   -6.1270 C   0  0  0  0  0  0  0  0  0  0  0  0
   28.0550   50.1850   -4.7990 N   0  0  0  0  0  0  0  0  0  0  0  0
   27.9280   51.3350   -5.5540 C   0  0  0  0  0  0  0  0  0  0  0  0
   29.4580   50.3220   -7.0420 C   0  0  0  0  0  0  0  0  0  0  0  0
   30.6210   48.5290   -6.7930 N   0  0  0  0  0  0  0  0  0  0  0  0
   27.2540   52.2930   -5.1720 O   0  0  0  0  0  0  0  0  0  0  0  0
   28.6010   51.3430   -6.7450 N   0  0  0  0  0  0  0  0  0  0  0  0
   30.0970   50.1580   -8.2210 N   0  0  0  0  0  0  0  0  0  0  0  0
   30.8010   49.0580   -8.0460 C   0  0  0  0  0  0  0  0  0  0  0  0
  1  2  1  0
  2  3  2  0
  2  4  1  0
  4  5  2  0
  4  6  1  0
  5  7  1  0
  5  8  1  0
  6  9  2  0
  8 10  1  0
  8 11  2  0
  9 11  1  0
  7 12  2  3
 12 13  1  0
 12 14  1  0
 14 15  1  0
 13 16  2  0
 13 17  1  0
 15 18  2  0
 15 19  1  0
 16 19  1  0
 16 20  1  0
 17 21  1  0
 20 21  2  0
M  END
