mac-x0472-mac-x0226
     RDKit          3D

 31 34  0  0  0  0  0  0  0  0999 V2000
   29.7110   50.5960   -3.5470 O   0  0  0  0  0  0  0  0  0  0  0  0
   30.6990   49.6030   -3.9000 S   0  0  0  0  0  0  0  0  0  0  0  0
   31.1580   48.6380   -2.9240 O   0  0  0  0  0  0  0  0  0  0  0  0
   30.2490   48.7640   -5.3200 N   0  0  0  0  0  0  0  0  0  0  0  0
   32.1230   50.5020   -4.4930 C   0  0  0  0  0  0  0  0  0  0  0  0
   31.3540   47.9380   -5.9080 C   0  0  0  0  0  0  0  0  0  0  0  0
   29.5600   49.6690   -6.2560 C   0  0  0  0  0  0  0  0  0  0  0  0
   33.3030   49.7970   -4.7660 C   0  0  0  0  0  0  0  0  0  0  0  0
   32.0610   51.8850   -4.6840 C   0  0  0  0  0  0  0  0  0  0  0  0
   30.7850   46.6820   -6.5790 C   0  0  0  0  0  0  0  0  0  0  0  0
   29.1650   49.2730   -7.4500 N   0  0  0  0  0  0  0  0  0  0  0  0
   29.2000   51.3120   -5.9130 S   0  0  0  0  0  0  0  0  0  0  0  0
   34.4220   50.4840   -5.2340 C   0  0  0  0  0  0  0  0  0  0  0  0
   33.1860   52.5640   -5.1520 C   0  0  0  0  0  0  0  0  0  0  0  0
   31.7790   45.6390   -6.7060 O   0  0  0  0  0  0  0  0  0  0  0  0
   28.4950   51.4030   -7.4710 C   0  0  0  0  0  0  0  0  0  0  0  0
   28.5430   50.2820   -8.1600 N   0  0  0  0  0  0  0  0  0  0  0  0
   34.3650   51.8640   -5.4260 C   0  0  0  0  0  0  0  0  0  0  0  0
   33.0590   45.9530   -6.3400 C   0  0  0  0  0  0  0  0  0  0  0  0
   33.7800   46.7300   -6.9560 O   0  0  0  0  0  0  0  0  0  0  0  0
   33.4720   45.2600   -5.1400 C   0  0  0  0  0  0  0  0  0  0  0  0
   32.8630   44.1840   -4.4730 C   0  0  0  0  0  0  0  0  0  0  0  0
   34.5950   45.5230   -4.3760 C   0  0  0  0  0  0  0  0  0  0  0  0
   33.5330   43.7960   -3.3880 N   0  0  0  0  0  0  0  0  0  0  0  0
   34.6060   44.6280   -3.3290 N   0  0  0  0  0  0  0  0  0  0  0  0
   35.5640   44.5110   -2.2820 C   0  0  0  0  0  0  0  0  0  0  0  0
   36.4000   45.6000   -1.9910 C   0  0  0  0  0  0  0  0  0  0  0  0
   35.6860   43.3300   -1.5400 C   0  0  0  0  0  0  0  0  0  0  0  0
   37.3460   45.5020   -0.9660 C   0  0  0  0  0  0  0  0  0  0  0  0
   36.6370   43.2400   -0.5170 C   0  0  0  0  0  0  0  0  0  0  0  0
   37.4640   44.3260   -0.2330 C   0  0  0  0  0  0  0  0  0  0  0  0
  1  2  2  0
  2  3  2  0
  2  4  1  0
  2  5  1  0
  4  6  1  0
  4  7  1  0
  5  8  2  0
  5  9  1  0
  6 10  1  0
  7 11  2  0
  7 12  1  0
  8 13  1  0
  9 14  2  0
 10 15  1  0
 12 16  1  0
 11 17  1  0
 16 17  2  0
 13 18  2  0
 14 18  1  0
 15 19  1  0
 19 20  2  0
 19 21  1  0
 21 22  1  0
 21 23  2  0
 22 24  2  0
 23 25  1  0
 24 25  1  0
 25 26  1  0
 26 27  2  0
 26 28  1  0
 27 29  1  0
 28 30  2  0
 29 31  2  0
 30 31  1  0
M  END
