mac-x0402-mac-x0567
     RDKit          3D

 16 18  0  0  0  0  0  0  0  0999 V2000
   30.1540   47.6610   -4.1580 Cl  0  0  0  0  0  0  0  0  0  0  0  0
   30.4230   49.3270   -4.8090 C   0  0  2  0  0  0  0  0  0  0  0  0
   30.1620   50.2640   -3.6310 C   0  0  0  0  0  0  0  0  0  0  0  0
   29.6140   49.6810   -6.1240 C   0  0  1  0  0  0  0  0  0  0  0  0
   29.3710   51.1730   -6.1920 C   0  0  0  0  0  0  0  0  0  0  0  0
   29.6870   51.5150   -3.8020 C   0  0  0  0  0  0  0  0  0  0  0  0
   30.0040   48.9500   -7.4350 C   0  0  1  0  0  0  0  0  0  0  0  0
   28.1680   49.2010   -6.1450 C   0  0  0  0  0  0  0  0  0  0  0  0
   30.0240   47.5030   -7.5210 N   0  0  0  0  0  0  0  0  0  0  0  0
   29.4020   52.0140   -5.1050 C   0  0  0  0  0  0  0  0  0  0  0  0
   29.0020   52.0700   -7.5870 S   0  0  0  0  0  0  0  0  0  0  0  0
   28.9380   49.3740   -8.3450 N   0  0  0  0  0  0  0  0  0  0  0  0
   27.7590   49.5680   -7.5170 N   0  0  0  0  0  0  0  0  0  0  0  0
   28.9050   53.4930   -6.6270 C   0  0  0  0  0  0  0  0  0  0  0  0
   29.1390   53.3350   -5.3420 N   0  0  0  0  0  0  0  0  0  0  0  0
   28.6070   54.6760   -7.1900 N   0  0  0  0  0  0  0  0  0  0  0  0
  2  1  1  1
  2  3  1  0
  2  4  1  0
  4  5  1  0
  3  6  2  0
  4  7  1  0
  4  8  1  1
  7  9  1  1
  5 10  2  0
  6 10  1  0
  5 11  1  0
  7 12  1  0
  8 13  1  0
 12 13  1  0
 11 14  1  0
 10 15  1  0
 14 15  2  0
 14 16  1  0
M  END
