mac-x0228-mac-x0375
     RDKit          3D

 25 27  0  0  0  0  0  0  0  0999 V2000
   29.1040   48.0600   -5.8370 O   0  0  0  0  0  0  0  0  0  0  0  0
   29.9790   48.4600   -4.8910 C   0  0  0  0  0  0  0  0  0  0  0  0
   30.8590   47.6830   -4.3700 N   0  0  0  0  0  0  0  0  0  0  0  0
   29.8430   49.8780   -4.5000 C   0  0  0  0  0  0  0  0  0  0  0  0
   30.9120   46.2970   -4.8320 C   0  0  0  0  0  0  0  0  0  0  0  0
   29.5770   50.8270   -5.4980 C   0  0  0  0  0  0  0  0  0  0  0  0
   29.9780   50.2670   -3.1500 C   0  0  0  0  0  0  0  0  0  0  0  0
   31.9450   45.4660   -4.0600 C   0  0  0  0  0  0  0  0  0  0  0  0
   29.4530   52.1530   -5.1150 C   0  0  0  0  0  0  0  0  0  0  0  0
   29.8470   51.6130   -2.7880 C   0  0  0  0  0  0  0  0  0  0  0  0
   33.2770   45.1750   -4.7860 C   0  0  2  0  0  0  0  0  0  0  0  0
   29.5860   52.5290   -3.7880 C   0  0  0  0  0  0  0  0  0  0  0  0
   29.1790   53.3510   -5.9400 C   0  0  0  0  0  0  0  0  0  0  0  0
   33.0830   44.0740   -5.8350 C   0  0  0  0  0  0  0  0  0  0  0  0
   34.3240   44.8100   -3.8840 O   0  0  0  0  0  0  0  0  0  0  0  0
   29.4360   53.8750   -3.5820 O   0  0  0  0  0  0  0  0  0  0  0  0
   29.5350   54.4330   -4.9130 C   0  0  0  0  0  0  0  0  0  0  0  0
   32.4120   42.9890   -5.3890 O   0  0  0  0  0  0  0  0  0  0  0  0
   33.4690   44.1000   -6.9970 O   0  0  0  0  0  0  0  0  0  0  0  0
   35.2920   45.7130   -3.5360 C   0  0  0  0  0  0  0  0  0  0  0  0
   36.6720   45.5230   -3.6020 C   0  0  0  0  0  0  0  0  0  0  0  0
   34.7980   46.9370   -3.0680 C   0  0  0  0  0  0  0  0  0  0  0  0
   37.5450   46.5450   -3.2070 C   0  0  0  0  0  0  0  0  0  0  0  0
   35.6670   47.9560   -2.6740 C   0  0  0  0  0  0  0  0  0  0  0  0
   37.0420   47.7590   -2.7450 C   0  0  0  0  0  0  0  0  0  0  0  0
  1  2  1  0
  2  3  2  3
  2  4  1  0
  3  5  1  0
  4  6  2  0
  4  7  1  0
  5  8  1  0
  6  9  1  0
  7 10  2  0
 11  8  1  1
  9 12  2  0
 10 12  1  0
  9 13  1  0
 11 14  1  0
 11 15  1  0
 12 16  1  0
 13 17  1  0
 16 17  1  0
 14 18  1  0
 14 19  2  0
 15 20  1  0
 20 21  2  0
 20 22  1  0
 21 23  1  0
 22 24  2  0
 23 25  2  0
 24 25  1  0
M  END
