mac-x0576-mac-x0283
     RDKit          3D

 15 17  0  0  0  0  0  0  0  0999 V2000
   29.0680   47.5170   -9.0260 N   0  0  0  0  0  0  0  0  0  0  0  0
   29.2060   48.3240   -7.9470 C   0  0  0  0  0  0  0  0  0  0  0  0
   29.0260   49.5980   -8.0470 N   0  0  0  0  0  0  0  0  0  0  0  0
   29.5360   47.7240   -6.7690 N   0  0  0  0  0  0  0  0  0  0  0  0
   29.6410   48.3920   -5.5690 C   0  0  0  0  0  0  0  0  0  0  0  0
   29.1850   50.3890   -6.8950 C   0  0  0  0  0  0  0  0  0  0  0  0
   29.8460   47.7810   -4.5270 O   0  0  0  0  0  0  0  0  0  0  0  0
   29.4900   49.8650   -5.6370 C   0  0  0  0  0  0  0  0  0  0  0  0
   29.0210   51.7210   -7.1060 N   0  0  0  0  0  0  0  0  0  0  0  0
   29.1890   52.4720   -5.9800 C   0  0  0  0  0  0  0  0  0  0  0  0
   29.6610   50.5950   -4.4910 N   0  0  0  0  0  0  0  0  0  0  0  0
   29.4950   51.9180   -4.7420 C   0  0  0  0  0  0  0  0  0  0  0  0
   29.1190   53.8540   -5.7350 C   0  0  0  0  0  0  0  0  0  0  0  0
   29.3620   54.1610   -4.4540 N   0  0  0  0  0  0  0  0  0  0  0  0
   29.5980   52.9360   -3.8250 O   0  0  0  0  0  0  0  0  0  0  0  0
  1  2  1  0
  2  3  2  0
  2  4  1  0
  4  5  1  0
  3  6  1  0
  5  7  2  0
  5  8  1  0
  6  8  2  0
  6  9  1  0
  9 10  2  0
  8 11  1  0
 10 12  1  0
 11 12  2  0
 10 13  1  0
 13 14  2  0
 12 15  1  0
 14 15  1  0
M  END
