mac-x0328-mac-x0284
     RDKit          3D

 13 13  0  0  0  0  0  0  0  0999 V2000
   31.1270   47.6150   -3.1740 O   0  0  0  0  0  0  0  0  0  0  0  0
   30.0220   47.9220   -4.0270 C   0  0  2  0  0  0  0  0  0  0  0  0
   30.1370   47.0990   -5.3230 C   0  0  0  0  0  0  0  0  0  0  0  0
   29.8700   49.4340   -4.1230 C   0  0  0  0  0  0  0  0  0  0  0  0
   29.7590   47.3270   -6.4560 O   0  0  0  0  0  0  0  0  0  0  0  0
   30.7690   45.9270   -5.0550 O   0  0  0  0  0  0  0  0  0  0  0  0
   29.2750   50.0570   -5.2310 C   0  0  0  0  0  0  0  0  0  0  0  0
   30.3240   50.2490   -3.0740 C   0  0  0  0  0  0  0  0  0  0  0  0
   29.1280   51.4570   -5.2930 C   0  0  0  0  0  0  0  0  0  0  0  0
   30.1870   51.6350   -3.1230 C   0  0  0  0  0  0  0  0  0  0  0  0
   28.4750   52.0450   -6.4920 C   0  0  0  0  0  0  0  0  0  0  0  0
   29.5920   52.2340   -4.2240 C   0  0  0  0  0  0  0  0  0  0  0  0
   29.4910   53.5990   -4.1900 O   0  0  0  0  0  0  0  0  0  0  0  0
  2  1  1  1
  2  3  1  0
  2  4  1  0
  3  5  2  0
  3  6  1  0
  4  7  2  0
  4  8  1  0
  7  9  1  0
  8 10  2  0
  9 11  1  0
  9 12  2  0
 10 12  1  0
 12 13  1  0
M  END
