mac-x0439-mac-x0138
     RDKit          3D

 25 28  0  0  0  0  0  0  0  0999 V2000
   30.8850   46.9570   -1.3850 Cl  0  0  0  0  0  0  0  0  0  0  0  0
   29.6150   45.9080   -1.8840 C   0  0  0  0  0  0  0  0  0  0  0  0
   29.2390   45.8250   -3.3300 C   0  0  1  0  0  0  0  0  0  0  0  0
   28.9560   45.1700   -0.9750 C   0  0  0  0  0  0  0  0  0  0  0  0
   30.2340   45.8320   -4.4500 C   0  0  0  0  0  0  0  0  0  0  0  0
   28.7310   44.4130   -3.5800 C   0  0  0  0  0  0  0  0  0  0  0  0
   27.8750   44.2790   -1.3810 C   0  0  0  0  0  0  0  0  0  0  0  0
   31.1290   47.0070   -4.6910 C   0  0  0  0  0  0  0  0  0  0  0  0
   30.1480   44.6650   -5.1310 C   0  0  0  0  0  0  0  0  0  0  0  0
   29.2230   43.7780   -4.6010 N   0  0  0  0  0  0  0  0  0  0  0  0
   27.7230   43.8770   -2.6530 C   0  0  0  0  0  0  0  0  0  0  0  0
   30.9310   44.2390   -6.3430 C   0  0  0  0  0  0  0  0  0  0  0  0
   30.4520   48.2860   -4.9110 N   0  0  0  0  0  0  0  0  0  0  0  0
   30.5500   42.9930   -6.7160 O   0  0  0  0  0  0  0  0  0  0  0  0
   31.7770   44.8900   -6.9260 O   0  0  0  0  0  0  0  0  0  0  0  0
   30.3160   49.3180   -4.0150 C   0  0  0  0  0  0  0  0  0  0  0  0
   29.8450   48.6620   -6.0670 C   0  0  0  0  0  0  0  0  0  0  0  0
   29.6590   50.3380   -4.5420 N   0  0  0  0  0  0  0  0  0  0  0  0
   29.3650   49.9330   -5.8290 C   0  0  0  0  0  0  0  0  0  0  0  0
   29.7410   47.9530   -7.1950 N   0  0  0  0  0  0  0  0  0  0  0  0
   28.6980   50.5430   -6.9010 C   0  0  0  0  0  0  0  0  0  0  0  0
   29.0880   48.6180   -8.1490 C   0  0  0  0  0  0  0  0  0  0  0  0
   28.1580   51.8200   -6.8350 N   0  0  0  0  0  0  0  0  0  0  0  0
   28.9280   47.9590   -9.3550 N   0  0  0  0  0  0  0  0  0  0  0  0
   28.5730   49.8540   -8.0610 N   0  0  0  0  0  0  0  0  0  0  0  0
  1  2  1  0
  3  2  1  1
  2  4  2  0
  3  5  1  0
  3  6  1  0
  4  7  1  0
  5  8  1  0
  5  9  2  0
  6 10  2  0
  9 10  1  0
  6 11  1  0
  7 11  2  0
  9 12  1  0
  8 13  1  0
 12 14  1  0
 12 15  2  0
 13 16  1  0
 13 17  1  0
 16 18  2  0
 17 19  2  0
 18 19  1  0
 17 20  1  0
 19 21  1  0
 20 22  2  0
 21 23  1  0
 22 24  1  0
 21 25  2  0
 22 25  1  0
M  END
