mac-x0231-mac-x0263
     RDKit          3D

 32 35  0  0  0  0  0  0  0  0999 V2000
   34.2780   45.4870   -6.5960 O   0  0  0  0  0  0  0  0  0  0  0  0
   33.0270   45.0660   -6.2950 C   0  0  0  0  0  0  0  0  0  0  0  0
   32.0660   45.3500   -7.0030 O   0  0  0  0  0  0  0  0  0  0  0  0
   32.9340   44.2350   -5.0410 C   0  0  0  0  0  0  0  0  0  0  0  0
   31.6520   44.4730   -4.2770 C   0  0  0  0  0  0  0  0  0  0  0  0
   31.4430   45.7490   -3.5510 C   0  0  0  0  0  0  0  0  0  0  0  0
   30.7600   43.5190   -4.3210 N   0  0  0  0  0  0  0  0  0  0  0  0
   30.2180   45.9270   -2.9210 C   0  0  0  0  0  0  0  0  0  0  0  0
   29.5850   43.7120   -3.6640 N   0  0  0  0  0  0  0  0  0  0  0  0
   32.4040   46.7680   -3.4790 C   0  0  0  0  0  0  0  0  0  0  0  0
   29.2100   44.8490   -2.9850 C   0  0  0  0  0  0  0  0  0  0  0  0
   29.9290   47.1110   -2.2370 C   0  0  0  0  0  0  0  0  0  0  0  0
   32.1170   47.9550   -2.7940 C   0  0  0  0  0  0  0  0  0  0  0  0
   28.1060   44.9610   -2.4580 O   0  0  0  0  0  0  0  0  0  0  0  0
   30.8730   48.1440   -2.1740 C   0  0  0  0  0  0  0  0  0  0  0  0
   30.5280   49.4270   -1.4530 C   0  0  0  0  0  0  0  0  0  0  0  0
   30.0680   50.5860   -2.3800 C   0  0  0  0  0  0  0  0  0  0  0  0
   28.8050   50.3610   -3.2590 C   0  0  0  0  0  0  0  0  0  0  0  0
   28.5580   51.4330   -4.3150 C   0  0  0  0  0  0  0  0  0  0  0  0
   28.7520   52.7820   -3.9650 C   0  0  0  0  0  0  0  0  0  0  0  0
   28.1490   51.1110   -5.6290 C   0  0  0  0  0  0  0  0  0  0  0  0
   28.5360   53.7490   -4.9480 C   0  0  0  0  0  0  0  0  0  0  0  0
   27.9360   52.1110   -6.5990 C   0  0  0  0  0  0  0  0  0  0  0  0
   28.6430   55.1160   -4.9260 N   0  0  0  0  0  0  0  0  0  0  0  0
   28.1390   53.4540   -6.2440 C   0  0  0  0  0  0  0  0  0  0  0  0
   28.3200   55.5950   -6.1710 C   0  0  0  0  0  0  0  0  0  0  0  0
   28.0110   54.6060   -6.9860 N   0  0  0  0  0  0  0  0  0  0  0  0
   28.3360   57.0500   -6.5000 C   0  0  0  0  0  0  0  0  0  0  0  0
   27.1720   57.7740   -5.8340 C   0  0  0  0  0  0  0  0  0  0  0  0
   26.9340   59.1630   -6.3620 C   0  0  0  0  0  0  0  0  0  0  0  0
   28.0490   59.9070   -6.4620 O   0  0  0  0  0  0  0  0  0  0  0  0
   25.8490   59.6220   -6.6800 O   0  0  0  0  0  0  0  0  0  0  0  0
  1  2  1  0
  2  3  2  0
  2  4  1  0
  4  5  1  0
  5  6  1  0
  5  7  2  0
  6  8  2  0
  7  9  1  0
  6 10  1  0
  8 11  1  0
  9 11  1  0
  8 12  1  0
 10 13  2  0
 11 14  2  0
 12 15  2  0
 13 15  1  0
 15 16  1  0
 16 17  1  0
 17 18  1  0
 18 19  1  0
 19 20  2  0
 19 21  1  0
 20 22  1  0
 21 23  2  0
 22 24  1  0
 22 25  2  0
 23 25  1  0
 24 26  1  0
 25 27  1  0
 26 27  2  0
 26 28  1  0
 28 29  1  0
 29 30  1  0
 30 31  1  0
 30 32  2  0
M  END
