mac-x0437-mac-x0398
     RDKit          3D

 27 29  0  0  0  0  0  0  0  0999 V2000
   31.7280   45.1360   -6.7860 O   0  0  0  0  0  0  0  0  0  0  0  0
   32.9150   44.8810   -6.2050 C   0  0  0  0  0  0  0  0  0  0  0  0
   33.9580   45.1580   -6.7730 O   0  0  0  0  0  0  0  0  0  0  0  0
   32.7780   44.2600   -4.8390 C   0  0  0  0  0  0  0  0  0  0  0  0
   32.5820   45.3650   -3.7940 C   0  0  2  0  0  0  0  0  0  0  0  0
   31.4850   46.3260   -4.3350 C   0  0  0  0  0  0  0  0  0  0  0  0
   33.8690   46.0030   -3.4900 N   0  0  0  0  0  0  0  0  0  0  0  0
   30.8970   47.3290   -3.3410 C   0  0  0  0  0  0  0  0  0  0  0  0
   34.0700   47.3530   -3.6100 C   0  0  0  0  0  0  0  0  0  0  0  0
   35.0580   45.4430   -3.0610 C   0  0  0  0  0  0  0  0  0  0  0  0
   30.1120   48.3350   -4.0090 O   0  0  0  0  0  0  0  0  0  0  0  0
   35.2930   47.7030   -3.2960 N   0  0  0  0  0  0  0  0  0  0  0  0
   35.9240   46.5380   -2.9540 C   0  0  0  0  0  0  0  0  0  0  0  0
   35.4900   44.1410   -2.7570 C   0  0  0  0  0  0  0  0  0  0  0  0
   30.0070   49.5210   -3.3450 C   0  0  0  0  0  0  0  0  0  0  0  0
   37.2490   46.3500   -2.5400 C   0  0  0  0  0  0  0  0  0  0  0  0
   36.8180   43.9740   -2.3450 C   0  0  0  0  0  0  0  0  0  0  0  0
   30.1850   49.6290   -2.1460 O   0  0  0  0  0  0  0  0  0  0  0  0
   37.6880   45.0600   -2.2380 C   0  0  0  0  0  0  0  0  0  0  0  0
   29.6540   50.6510   -4.2640 C   0  0  0  0  0  0  0  0  0  0  0  0
   29.6340   51.9600   -3.7680 C   0  0  0  0  0  0  0  0  0  0  0  0
   29.3380   50.4540   -5.6210 C   0  0  0  0  0  0  0  0  0  0  0  0
   29.9340   52.2050   -2.4570 O   0  0  0  0  0  0  0  0  0  0  0  0
   29.3100   53.0440   -4.5940 C   0  0  0  0  0  0  0  0  0  0  0  0
   29.0130   51.5440   -6.4460 C   0  0  0  0  0  0  0  0  0  0  0  0
   28.9980   52.8440   -5.9370 C   0  0  0  0  0  0  0  0  0  0  0  0
   28.6730   53.9340   -6.7600 N   0  0  0  0  0  0  0  0  0  0  0  0
  1  2  1  0
  2  3  2  0
  2  4  1  0
  5  4  1  6
  5  6  1  0
  5  7  1  0
  6  8  1  0
  7  9  1  0
  7 10  1  0
  8 11  1  0
  9 12  2  0
 10 13  2  0
 12 13  1  0
 10 14  1  0
 11 15  1  0
 13 16  1  0
 14 17  2  0
 15 18  2  0
 16 19  2  0
 17 19  1  0
 15 20  1  0
 20 21  2  0
 20 22  1  0
 21 23  1  0
 21 24  1  0
 22 25  2  0
 24 26  2  0
 25 26  1  0
 26 27  1  0
M  END
