mac-x0555-mac-x0439
     RDKit          3D

 26 29  0  0  0  0  0  0  0  0999 V2000
   28.7810   55.4580   -6.9200 N   0  0  0  0  0  0  0  0  0  0  0  0
   29.1230   54.5190   -5.9430 C   0  0  0  0  0  0  0  0  0  0  0  0
   29.6520   54.9040   -4.7200 C   0  0  0  0  0  0  0  0  0  0  0  0
   28.9480   53.1490   -6.1510 C   0  0  0  0  0  0  0  0  0  0  0  0
   29.3100   52.2260   -5.1500 C   0  0  0  0  0  0  0  0  0  0  0  0
   30.0080   54.0560   -3.7370 N   0  0  0  0  0  0  0  0  0  0  0  0
   29.8410   52.7490   -3.9580 C   0  0  0  0  0  0  0  0  0  0  0  0
   29.1630   50.8290   -5.2990 C   0  0  0  0  0  0  0  0  0  0  0  0
   30.2140   51.8820   -2.9640 C   0  0  0  0  0  0  0  0  0  0  0  0
   29.5550   49.9670   -4.2650 C   0  0  0  0  0  0  0  0  0  0  0  0
   30.0920   50.5060   -3.0840 C   0  0  0  0  0  0  0  0  0  0  0  0
   30.5660   49.6910   -1.9120 C   0  0  0  0  0  0  0  0  0  0  0  0
   29.7250   48.4750   -1.5910 C   0  0  0  0  0  0  0  0  0  0  0  0
   30.4580   47.1810   -1.9350 C   0  0  0  0  0  0  0  0  0  0  0  0
   29.5300   46.0260   -2.1470 C   0  0  0  0  0  0  0  0  0  0  0  0
   29.1390   45.7040   -3.5640 C   0  0  1  0  0  0  0  0  0  0  0  0
   28.9980   45.2730   -1.1640 C   0  0  0  0  0  0  0  0  0  0  0  0
   30.0610   45.7780   -4.7360 C   0  0  0  0  0  0  0  0  0  0  0  0
   28.8300   44.2290   -3.6880 C   0  0  0  0  0  0  0  0  0  0  0  0
   28.0810   44.1810   -1.4470 C   0  0  0  0  0  0  0  0  0  0  0  0
   30.1070   44.5750   -5.3400 C   0  0  0  0  0  0  0  0  0  0  0  0
   29.3590   43.6090   -4.6990 N   0  0  0  0  0  0  0  0  0  0  0  0
   27.9600   43.6330   -2.6670 C   0  0  0  0  0  0  0  0  0  0  0  0
   30.8860   44.2850   -6.5830 C   0  0  0  0  0  0  0  0  0  0  0  0
   30.7310   43.0120   -7.0190 O   0  0  0  0  0  0  0  0  0  0  0  0
   31.5850   45.0970   -7.1680 O   0  0  0  0  0  0  0  0  0  0  0  0
  1  2  1  0
  2  3  2  0
  2  4  1  0
  4  5  2  0
  3  6  1  0
  5  7  1  0
  6  7  2  0
  5  8  1  0
  7  9  1  0
  8 10  2  0
  9 11  2  0
 10 11  1  0
 11 12  1  0
 12 13  1  0
 13 14  1  0
 14 15  1  0
 15 16  1  0
 15 17  2  0
 16 18  1  6
 16 19  1  0
 17 20  1  0
 18 21  2  0
 19 22  2  0
 21 22  1  0
 19 23  1  0
 20 23  2  0
 21 24  1  0
 24 25  1  0
 24 26  2  0
M  END
