mac-x0385-mac-x0159
     RDKit          3D

 19 21  0  0  0  0  0  0  0  0999 V2000
   29.2770   51.4760   -2.9070 C   0  0  0  0  0  0  0  0  0  0  0  0
   28.9570   50.1990   -3.6940 C   0  0  2  0  0  0  0  0  0  0  0  0
   30.1480   49.2300   -3.6440 C   0  0  0  0  0  0  0  0  0  0  0  0
   28.4540   50.4710   -5.1350 C   0  0  1  0  0  0  0  0  0  0  0  0
   28.6250   51.8540   -5.5790 N   0  0  0  0  0  0  0  0  0  0  0  0
   28.9860   49.5520   -6.1380 N   0  0  0  0  0  0  0  0  0  0  0  0
   30.0920   48.1190   -4.5990 N   0  0  0  0  0  0  0  0  0  0  0  0
   30.6010   46.8220   -4.1400 C   0  0  0  0  0  0  0  0  0  0  0  0
   29.1780   48.1940   -5.7150 C   0  0  1  0  0  0  0  0  0  0  0  0
   28.4330   49.4220   -7.4910 N   0  0  0  0  0  0  0  0  0  0  0  0
   27.8440   47.4650   -5.6850 C   0  0  0  0  0  0  0  0  0  0  0  0
   29.6400   45.9920   -3.3360 C   0  0  0  0  0  0  0  0  0  0  0  0
   29.8830   47.6670   -6.8700 N   0  0  0  0  0  0  0  0  0  0  0  0
   29.1180   48.2140   -7.9910 C   0  0  0  0  0  0  0  0  0  0  0  0
   29.0430   44.8140   -3.7500 C   0  0  0  0  0  0  0  0  0  0  0  0
   29.2800   46.3860   -2.0520 N   0  0  0  0  0  0  0  0  0  0  0  0
   28.4370   45.5290   -1.5250 C   0  0  0  0  0  0  0  0  0  0  0  0
   28.0220   44.1970   -2.5240 S   0  0  0  0  0  0  0  0  0  0  0  0
   27.8540   45.6530   -0.1640 C   0  0  0  0  0  0  0  0  0  0  0  0
  2  1  1  6
  2  3  1  0
  2  4  1  0
  4  5  1  6
  4  6  1  0
  3  7  1  0
  7  8  1  0
  6  9  1  0
  7  9  1  0
  6 10  1  0
  9 11  1  1
  8 12  1  0
  9 13  1  0
 10 14  1  0
 13 14  1  0
 12 15  2  0
 12 16  1  0
 16 17  2  0
 15 18  1  0
 17 18  1  0
 17 19  1  0
M  END
