mac-x0380-mac-x0588
     RDKit          3D

 29 33  0  0  0  0  0  0  0  0999 V2000
   28.5760   50.2840   -2.1610 C   0  0  0  0  0  0  0  0  0  0  0  0
   28.9370   49.0610   -2.3440 N   0  0  0  0  0  0  0  0  0  0  0  0
   29.0010   48.0640   -1.2800 C   0  0  0  0  0  0  0  0  0  0  0  0
   28.4740   51.3050   -3.2100 C   0  0  0  0  0  0  0  0  0  0  0  0
   28.3890   52.6660   -2.9330 C   0  0  0  0  0  0  0  0  0  0  0  0
   28.4640   50.8520   -4.5030 C   0  0  0  0  0  0  0  0  0  0  0  0
   28.2900   53.5760   -4.0010 C   0  0  0  0  0  0  0  0  0  0  0  0
   28.3700   51.7210   -5.5730 C   0  0  0  0  0  0  0  0  0  0  0  0
   28.5280   46.7590   -1.7630 N   0  0  0  0  0  0  0  0  0  0  0  0
   28.2780   53.1040   -5.3280 C   0  0  0  0  0  0  0  0  0  0  0  0
   28.1850   55.3090   -3.6240 S   0  0  0  0  0  0  0  0  0  0  0  0
   28.3830   51.1500   -6.8450 N   0  0  0  0  0  0  0  0  0  0  0  0
   29.2850   46.3270   -2.9540 C   0  0  0  0  0  0  0  0  0  0  0  0
   28.7190   45.6830   -0.7860 C   0  0  0  0  0  0  0  0  0  0  0  0
   28.1810   53.9650   -6.4390 N   0  0  0  0  0  0  0  0  0  0  0  0
   28.8550   55.9680   -5.1700 C   0  0  0  0  0  0  0  0  0  0  0  0
   28.9310   49.8070   -6.6120 C   0  0  2  0  0  0  0  0  0  0  0  0
   29.2890   44.8020   -2.9600 C   0  0  0  0  0  0  0  0  0  0  0  0
   28.7490   44.3950   -1.5940 C   0  0  0  0  0  0  0  0  0  0  0  0
   28.2780   55.3210   -6.4040 C   0  0  0  0  0  0  0  0  0  0  0  0
   30.3330   49.7780   -6.1770 N   0  0  0  0  0  0  0  0  0  0  0  0
   28.7420   48.7460   -7.7030 C   0  0  2  0  0  0  0  0  0  0  0  0
   27.8960   55.9960   -7.3650 O   0  0  0  0  0  0  0  0  0  0  0  0
   30.6420   48.5080   -5.5580 C   0  0  0  0  0  0  0  0  0  0  0  0
   29.1020   47.4520   -6.9960 C   0  0  2  0  0  0  0  0  0  0  0  0
   29.5080   48.6310   -8.9420 N   0  0  0  0  0  0  0  0  0  0  0  0
   30.4800   47.4610   -6.5600 N   0  0  0  0  0  0  0  0  0  0  0  0
   28.9140   46.4900   -8.0530 N   0  0  0  0  0  0  0  0  0  0  0  0
   29.4310   47.1920   -9.2340 C   0  0  0  0  0  0  0  0  0  0  0  0
  1  2  2  3
  2  3  1  0
  1  4  1  0
  4  5  2  0
  4  6  1  0
  5  7  1  0
  6  8  2  0
  3  9  1  0
  7 10  2  0
  8 10  1  0
  7 11  1  0
  8 12  1  0
  9 13  1  0
  9 14  1  0
 10 15  1  0
 11 16  1  0
 17 12  1  6
 13 18  1  0
 14 19  1  0
 18 19  1  0
 15 20  1  0
 16 20  1  0
 17 21  1  0
 17 22  1  0
 20 23  2  0
 21 24  1  0
 22 25  1  0
 22 26  1  6
 24 27  1  0
 25 27  1  6
 25 28  1  0
 26 29  1  0
 28 29  1  0
M  END
