mac-x0338-mac-x0433
     RDKit          3D

 12 12  0  0  0  0  0  0  0  0999 V2000
   28.9570   51.9780   -7.8010 N   0  0  0  0  0  0  0  0  0  0  0  0
   28.8160   52.5670   -6.5780 C   0  0  0  0  0  0  0  0  0  0  0  0
   28.3580   53.6950   -6.4490 O   0  0  0  0  0  0  0  0  0  0  0  0
   29.2680   51.7160   -5.4270 C   0  0  0  0  0  0  0  0  0  0  0  0
   29.2220   50.2980   -5.5650 N   0  0  0  0  0  0  0  0  0  0  0  0
   29.7130   52.3050   -4.2750 C   0  0  0  0  0  0  0  0  0  0  0  0
   28.2560   49.6590   -6.4590 C   0  0  0  0  0  0  0  0  0  0  0  0
   29.7850   53.8000   -4.0660 C   0  0  0  0  0  0  0  0  0  0  0  0
   29.9000   49.5510   -4.5980 C   0  0  0  0  0  0  0  0  0  0  0  0
   30.1310   51.4650   -3.2140 N   0  0  0  0  0  0  0  0  0  0  0  0
   30.0890   51.9170   -1.8960 N   0  0  0  0  0  0  0  0  0  0  0  0
   30.3390   50.1160   -3.4600 C   0  0  0  0  0  0  0  0  0  0  0  0
  1  2  1  0
  2  3  2  0
  2  4  1  0
  4  5  1  0
  4  6  2  0
  5  7  1  0
  6  8  1  0
  5  9  1  0
  6 10  1  0
 10 11  1  0
  9 12  2  0
 10 12  1  0
M  END
