mac-x0555-mac-x0116
     RDKit          3D

 22 25  0  0  0  0  0  0  0  0999 V2000
   33.0070   54.3780   -4.6290 N   0  0  0  0  0  0  0  0  0  0  0  0
   31.7890   53.7230   -4.4150 C   0  0  0  0  0  0  0  0  0  0  0  0
   30.8740   54.1490   -3.4540 C   0  0  0  0  0  0  0  0  0  0  0  0
   31.4370   52.6000   -5.1660 C   0  0  0  0  0  0  0  0  0  0  0  0
   30.2120   51.9450   -4.9480 C   0  0  0  0  0  0  0  0  0  0  0  0
   29.6840   53.5560   -3.2040 N   0  0  0  0  0  0  0  0  0  0  0  0
   29.3790   52.4740   -3.9550 C   0  0  0  0  0  0  0  0  0  0  0  0
   29.7290   50.7080   -5.7140 C   0  0  2  0  0  0  0  0  0  0  0  0
   28.0860   51.8540   -3.6670 C   0  0  0  0  0  0  0  0  0  0  0  0
   28.1380   50.7890   -5.9210 C   0  0  2  0  0  0  0  0  0  0  0  0
   30.1240   49.4500   -4.8900 C   0  0  0  0  0  0  0  0  0  0  0  0
   30.4160   50.4640   -7.0080 N   0  0  0  0  0  0  0  0  0  0  0  0
   27.5920   51.7960   -6.8740 N   0  0  0  0  0  0  0  0  0  0  0  0
   27.4930   51.0650   -4.5770 C   0  0  0  0  0  0  0  0  0  0  0  0
   30.9350   48.6010   -5.7950 N   0  0  0  0  0  0  0  0  0  0  0  0
   30.5430   49.0330   -7.1210 C   0  0  0  0  0  0  0  0  0  0  0  0
   28.3080   51.8860   -8.1550 C   0  0  0  0  0  0  0  0  0  0  0  0
   29.1760   53.0990   -8.1440 C   0  0  0  0  0  0  0  0  0  0  0  0
   29.9650   53.3050   -9.2400 O   0  0  0  0  0  0  0  0  0  0  0  0
   29.3710   54.1120   -7.2270 C   0  0  0  0  0  0  0  0  0  0  0  0
   30.3310   54.9840   -7.7920 C   0  0  0  0  0  0  0  0  0  0  0  0
   30.6620   54.4490   -9.0150 C   0  0  0  0  0  0  0  0  0  0  0  0
  1  2  1  0
  2  3  2  0
  2  4  1  0
  4  5  2  0
  3  6  1  0
  5  7  1  0
  6  7  2  0
  5  8  1  0
  7  9  1  0
  8 10  1  0
  8 11  1  1
  8 12  1  0
 10 13  1  6
  9 14  2  0
 10 14  1  0
 11 15  1  0
 12 16  1  0
 15 16  1  0
 13 17  1  0
 17 18  1  0
 18 19  1  0
 18 20  2  0
 20 21  1  0
 19 22  1  0
 21 22  2  0
M  END
