mac-x0321-mac-x0373
     RDKit          3D

 18 19  0  0  0  0  0  0  0  0999 V2000
   28.4870   52.0550   -6.9660 Cl  0  0  0  0  0  0  0  0  0  0  0  0
   29.1030   51.3260   -5.5310 C   0  0  0  0  0  0  0  0  0  0  0  0
   29.5880   50.0100   -5.5690 C   0  0  0  0  0  0  0  0  0  0  0  0
   29.1090   52.0540   -4.3470 C   0  0  0  0  0  0  0  0  0  0  0  0
   30.0970   49.3960   -4.4040 C   0  0  0  0  0  0  0  0  0  0  0  0
   29.6050   51.4660   -3.1850 C   0  0  0  0  0  0  0  0  0  0  0  0
   30.6500   47.9490   -4.3920 C   0  0  2  0  0  0  0  0  0  0  0  0
   30.0910   50.1590   -3.2140 C   0  0  0  0  0  0  0  0  0  0  0  0
   30.2540   47.0590   -5.6110 C   0  0  0  0  0  0  0  0  0  0  0  0
   30.0960   47.2790   -3.2410 O   0  0  0  0  0  0  0  0  0  0  0  0
   32.1470   47.8960   -4.0880 C   0  0  0  0  0  0  0  0  0  0  0  0
   31.1320   47.0330   -6.6430 O   0  0  0  0  0  0  0  0  0  0  0  0
   29.2380   46.3750   -5.7020 O   0  0  0  0  0  0  0  0  0  0  0  0
   32.7600   46.7820   -3.4900 C   0  0  0  0  0  0  0  0  0  0  0  0
   32.9470   49.0010   -4.4130 C   0  0  0  0  0  0  0  0  0  0  0  0
   34.1320   46.7800   -3.2260 C   0  0  0  0  0  0  0  0  0  0  0  0
   34.3170   48.9990   -4.1510 C   0  0  0  0  0  0  0  0  0  0  0  0
   34.9080   47.8880   -3.5560 C   0  0  0  0  0  0  0  0  0  0  0  0
  1  2  1  0
  2  3  2  0
  2  4  1  0
  3  5  1  0
  4  6  2  0
  5  7  1  0
  5  8  2  0
  6  8  1  0
  7  9  1  0
  7 10  1  1
  7 11  1  0
  9 12  1  0
  9 13  2  0
 11 14  2  0
 11 15  1  0
 14 16  1  0
 15 17  2  0
 16 18  2  0
 17 18  1  0
M  END
