mac-x0437-mac-x0137
     RDKit          3D

 31 35  0  0  0  0  0  0  0  0999 V2000
   31.7710   44.6870   -6.7070 O   0  0  0  0  0  0  0  0  0  0  0  0
   32.9810   44.5880   -6.1080 C   0  0  0  0  0  0  0  0  0  0  0  0
   34.0170   44.7880   -6.7230 O   0  0  0  0  0  0  0  0  0  0  0  0
   32.9000   44.2450   -4.6310 C   0  0  0  0  0  0  0  0  0  0  0  0
   33.1420   45.5280   -3.8350 C   0  0  1  0  0  0  0  0  0  0  0  0
   32.0530   46.0130   -2.8790 C   0  0  0  0  0  0  0  0  0  0  0  0
   34.4210   46.0010   -3.4530 N   0  0  0  0  0  0  0  0  0  0  0  0
   34.6530   47.3510   -3.5470 C   0  0  0  0  0  0  0  0  0  0  0  0
   35.5430   45.4030   -2.9900 C   0  0  0  0  0  0  0  0  0  0  0  0
   31.0760   46.9080   -3.6160 C   0  0  1  0  0  0  0  0  0  0  0  0
   35.8550   47.6690   -3.1770 N   0  0  0  0  0  0  0  0  0  0  0  0
   36.4220   46.4790   -2.8320 C   0  0  0  0  0  0  0  0  0  0  0  0
   35.9220   44.0960   -2.6870 C   0  0  0  0  0  0  0  0  0  0  0  0
   30.7530   48.3480   -3.2840 C   0  0  1  0  0  0  0  0  0  0  0  0
   31.5530   46.9690   -5.0700 C   0  0  0  0  0  0  0  0  0  0  0  0
   31.7520   49.2070   -3.5980 F   0  0  0  0  0  0  0  0  0  0  0  0
   37.7160   46.2530   -2.3650 C   0  0  0  0  0  0  0  0  0  0  0  0
   37.2230   43.8890   -2.2190 C   0  0  0  0  0  0  0  0  0  0  0  0
   29.4920   48.6600   -4.0970 C   0  0  0  0  0  0  0  0  0  0  0  0
   30.3060   47.0480   -5.8890 C   0  0  0  0  0  0  0  0  0  0  0  0
   38.1070   44.9520   -2.0620 C   0  0  0  0  0  0  0  0  0  0  0  0
   29.6220   48.2970   -5.5570 N   0  0  0  0  0  0  0  0  0  0  0  0
   28.9130   48.9440   -6.5380 C   0  0  0  0  0  0  0  0  0  0  0  0
   28.6700   48.2660   -7.7190 N   0  0  0  0  0  0  0  0  0  0  0  0
   28.4250   50.1820   -6.4770 C   0  0  0  0  0  0  0  0  0  0  0  0
   27.9910   48.8120   -8.7570 C   0  0  0  0  0  0  0  0  0  0  0  0
   27.6860   50.7220   -7.6460 C   0  0  0  0  0  0  0  0  0  0  0  0
   28.3840   51.2700   -5.5490 C   0  0  0  0  0  0  0  0  0  0  0  0
   27.4880   49.9960   -8.7830 N   0  0  0  0  0  0  0  0  0  0  0  0
   27.2670   51.9390   -7.4480 N   0  0  0  0  0  0  0  0  0  0  0  0
   27.7050   52.2430   -6.1700 C   0  0  0  0  0  0  0  0  0  0  0  0
  1  2  1  0
  2  3  2  0
  2  4  1  0
  5  4  1  1
  5  6  1  0
  5  7  1  0
  7  8  1  0
  7  9  1  0
 10  6  1  1
  8 11  2  0
  9 12  2  0
 11 12  1  0
  9 13  1  0
 10 14  1  0
 10 15  1  0
 14 16  1  6
 12 17  1  0
 13 18  2  0
 14 19  1  0
 15 20  1  0
 17 21  2  0
 18 21  1  0
 19 22  1  0
 20 22  1  0
 22 23  1  0
 23 24  1  0
 23 25  2  0
 24 26  1  0
 25 27  1  0
 25 28  1  0
 26 29  2  0
 27 29  1  0
 27 30  2  0
 28 31  2  0
 30 31  1  0
M  END
