mac-x0124-mac-x0565
     RDKit          3D

 18 20  0  0  0  0  0  0  0  0999 V2000
   30.0870   46.3510   -4.4260 C   0  0  0  0  0  0  0  0  0  0  0  0
   29.8160   47.7330   -4.7700 N   0  0  0  0  0  0  0  0  0  0  0  0
   29.9690   48.7980   -3.9070 C   0  0  0  0  0  0  0  0  0  0  0  0
   29.3740   48.1610   -5.9860 C   0  0  0  0  0  0  0  0  0  0  0  0
   29.6070   49.9750   -4.6050 C   0  0  0  0  0  0  0  0  0  0  0  0
   29.2250   49.5470   -5.9470 C   0  0  0  0  0  0  0  0  0  0  0  0
   29.1330   47.3390   -7.0250 N   0  0  0  0  0  0  0  0  0  0  0  0
   30.3990   48.7960   -2.5680 C   0  0  0  0  0  0  0  0  0  0  0  0
   28.7690   50.1200   -7.1560 C   0  0  0  0  0  0  0  0  0  0  0  0
   28.7120   48.0090   -8.1020 C   0  0  0  0  0  0  0  0  0  0  0  0
   29.7030   51.2020   -3.8630 C   0  0  0  0  0  0  0  0  0  0  0  0
   30.4770   50.0030   -1.8890 C   0  0  0  0  0  0  0  0  0  0  0  0
   28.5380   51.4670   -7.3810 N   0  0  0  0  0  0  0  0  0  0  0  0
   29.3730   52.5310   -4.4150 C   0  0  0  0  0  0  0  0  0  0  0  0
   28.5220   49.3270   -8.2210 N   0  0  0  0  0  0  0  0  0  0  0  0
   30.1350   51.1860   -2.5220 C   0  0  0  0  0  0  0  0  0  0  0  0
   28.1460   52.5700   -4.9660 O   0  0  0  0  0  0  0  0  0  0  0  0
   30.0880   53.5170   -4.3910 O   0  0  0  0  0  0  0  0  0  0  0  0
  1  2  1  0
  2  3  1  0
  2  4  1  0
  3  5  2  0
  4  6  2  0
  5  6  1  0
  4  7  1  0
  3  8  1  0
  6  9  1  0
  7 10  2  0
  5 11  1  0
  8 12  2  0
  9 13  1  0
 11 14  1  0
  9 15  2  0
 10 15  1  0
 11 16  2  0
 12 16  1  0
 14 17  1  0
 14 18  2  0
M  END
