mac-x0255-mac-x0354
     RDKit          3D

 25 28  0  0  0  0  0  0  0  0999 V2000
   31.8160   43.9020   -6.9790 O   0  0  0  0  0  0  0  0  0  0  0  0
   32.5500   45.0050   -6.7250 C   0  0  0  0  0  0  0  0  0  0  0  0
   32.9050   45.6950   -7.6760 O   0  0  0  0  0  0  0  0  0  0  0  0
   32.8690   45.2920   -5.2570 C   0  0  1  0  0  0  0  0  0  0  0  0
   31.6410   45.5910   -4.4130 C   0  0  0  0  0  0  0  0  0  0  0  0
   33.8060   44.3050   -4.5960 C   0  0  0  0  0  0  0  0  0  0  0  0
   30.6510   44.6940   -4.0540 C   0  0  0  0  0  0  0  0  0  0  0  0
   31.3080   47.1420   -3.7690 S   0  0  0  0  0  0  0  0  0  0  0  0
   33.6530   42.8950   -4.6140 C   0  0  0  0  0  0  0  0  0  0  0  0
   34.9690   44.5030   -3.8570 C   0  0  0  0  0  0  0  0  0  0  0  0
   29.6140   45.2690   -3.2480 C   0  0  0  0  0  0  0  0  0  0  0  0
   29.8540   46.6230   -3.0130 C   0  0  0  0  0  0  0  0  0  0  0  0
   35.4050   43.2460   -3.5020 N   0  0  0  0  0  0  0  0  0  0  0  0
   34.6170   42.2540   -3.9540 N   0  0  0  0  0  0  0  0  0  0  0  0
   35.6670   45.7250   -3.4770 C   0  0  0  0  0  0  0  0  0  0  0  0
   36.5780   42.9190   -2.7240 C   0  0  0  0  0  0  0  0  0  0  0  0
   28.4500   44.6880   -2.6900 C   0  0  0  0  0  0  0  0  0  0  0  0
   28.9710   47.4050   -2.2430 C   0  0  0  0  0  0  0  0  0  0  0  0
   37.0490   45.8350   -3.6640 C   0  0  0  0  0  0  0  0  0  0  0  0
   34.9590   46.7960   -2.9230 C   0  0  0  0  0  0  0  0  0  0  0  0
   27.5700   45.4590   -1.9260 C   0  0  0  0  0  0  0  0  0  0  0  0
   27.8300   46.8050   -1.7050 C   0  0  0  0  0  0  0  0  0  0  0  0
   37.7160   47.0050   -3.3010 C   0  0  0  0  0  0  0  0  0  0  0  0
   35.6270   47.9660   -2.5600 C   0  0  0  0  0  0  0  0  0  0  0  0
   37.0050   48.0700   -2.7500 C   0  0  0  0  0  0  0  0  0  0  0  0
  1  2  1  0
  2  3  2  0
  4  2  1  6
  4  5  1  0
  4  6  1  0
  5  7  2  0
  5  8  1  0
  6  9  1  0
  6 10  2  0
  7 11  1  0
  8 12  1  0
 11 12  2  0
 10 13  1  0
  9 14  2  0
 13 14  1  0
 10 15  1  0
 13 16  1  0
 11 17  1  0
 12 18  1  0
 15 19  2  0
 15 20  1  0
 17 21  2  0
 18 22  2  0
 21 22  1  0
 19 23  1  0
 20 24  2  0
 23 25  2  0
 24 25  1  0
M  END
