mac-x0190-mac-x0587
     RDKit          3D

 21 22  0  0  0  0  0  0  0  0999 V2000
   28.5800   56.5120   -5.5190 O   0  0  0  0  0  0  0  0  0  0  0  0
   29.5590   55.8480   -4.7330 C   0  0  0  0  0  0  0  0  0  0  0  0
   29.4770   54.3340   -4.8550 C   0  0  0  0  0  0  0  0  0  0  0  0
   29.9240   53.5620   -3.7760 N   0  0  0  0  0  0  0  0  0  0  0  0
   29.0250   53.6690   -5.8950 N   0  0  0  0  0  0  0  0  0  0  0  0
   29.7490   52.3370   -4.1860 C   0  0  0  0  0  0  0  0  0  0  0  0
   29.1840   52.3510   -5.5290 C   0  0  0  0  0  0  0  0  0  0  0  0
   30.0370   51.0470   -3.5360 C   0  0  0  0  0  0  0  0  0  0  0  0
   28.9160   51.2190   -6.1900 C   0  0  0  0  0  0  0  0  0  0  0  0
   29.7940   49.8650   -4.1770 C   0  0  0  0  0  0  0  0  0  0  0  0
   29.2070   49.8950   -5.5580 C   0  0  0  0  0  0  0  0  0  0  0  0
   30.1640   48.5700   -3.4210 C   0  0  0  0  0  0  0  0  0  0  0  0
   28.9780   48.8500   -6.1880 O   0  0  0  0  0  0  0  0  0  0  0  0
   30.3840   47.1860   -4.1220 C   0  0  2  0  0  0  0  0  0  0  0  0
   30.3030   48.6430   -2.1980 O   0  0  0  0  0  0  0  0  0  0  0  0
   29.2840   46.1900   -3.7340 C   0  0  0  0  0  0  0  0  0  0  0  0
   32.0230   46.4590   -3.6260 S   0  0  0  0  0  0  0  0  0  0  0  0
   33.1260   46.8670   -5.0170 C   0  0  0  0  0  0  0  0  0  0  0  0
   33.1440   45.9200   -6.1970 C   0  0  0  0  0  0  0  0  0  0  0  0
   34.1900   45.5970   -6.7490 O   0  0  0  0  0  0  0  0  0  0  0  0
   31.9610   45.4470   -6.6330 O   0  0  0  0  0  0  0  0  0  0  0  0
  1  2  1  0
  2  3  1  0
  3  4  1  0
  3  5  2  0
  4  6  2  0
  5  7  1  0
  6  7  1  0
  6  8  1  0
  7  9  2  0
  8 10  2  0
  9 11  1  0
 10 11  1  0
 10 12  1  0
 11 13  2  0
 12 14  1  0
 12 15  2  0
 14 16  1  1
 14 17  1  0
 17 18  1  0
 18 19  1  0
 19 20  2  0
 19 21  1  0
M  END
