mac-x0358-mac-x0116
     RDKit          3D

 29 32  0  0  0  0  0  0  0  0999 V2000
   31.5530   44.2080   -6.4120 O   0  0  0  0  0  0  0  0  0  0  0  0
   32.3360   45.2390   -5.8210 C   0  0  0  0  0  0  0  0  0  0  0  0
   33.4400   45.3720   -6.7020 O   0  0  0  0  0  0  0  0  0  0  0  0
   32.8540   44.7730   -4.4380 C   0  0  0  0  0  0  0  0  0  0  0  0
   31.5690   46.5700   -5.8170 C   0  0  0  0  0  0  0  0  0  0  0  0
   30.2980   46.5620   -6.6730 C   0  0  0  0  0  0  0  0  0  0  0  0
   32.5920   45.7380   -3.2950 C   0  0  0  0  0  0  0  0  0  0  0  0
   33.5600   46.6290   -2.8300 C   0  0  0  0  0  0  0  0  0  0  0  0
   31.3300   45.7450   -2.6740 C   0  0  0  0  0  0  0  0  0  0  0  0
   29.8840   47.9060   -7.0240 N   0  0  0  0  0  0  0  0  0  0  0  0
   34.7940   46.6420   -3.4180 O   0  0  0  0  0  0  0  0  0  0  0  0
   33.2870   47.5070   -1.7770 C   0  0  0  0  0  0  0  0  0  0  0  0
   31.0520   46.6190   -1.6220 C   0  0  0  0  0  0  0  0  0  0  0  0
   29.6190   48.9220   -6.1480 C   0  0  0  0  0  0  0  0  0  0  0  0
   29.6910   48.3870   -8.2900 C   0  0  0  0  0  0  0  0  0  0  0  0
   32.0300   47.5010   -1.1720 C   0  0  0  0  0  0  0  0  0  0  0  0
   29.6800   48.8910   -4.8090 N   0  0  0  0  0  0  0  0  0  0  0  0
   29.2720   49.9980   -6.9460 C   0  0  0  0  0  0  0  0  0  0  0  0
   29.3200   49.6520   -8.2850 N   0  0  0  0  0  0  0  0  0  0  0  0
   29.3520   50.0850   -4.2850 C   0  0  0  0  0  0  0  0  0  0  0  0
   28.9480   51.2040   -6.2910 C   0  0  0  0  0  0  0  0  0  0  0  0
   28.5910   52.3490   -7.0070 N   0  0  0  0  0  0  0  0  0  0  0  0
   28.9980   51.2150   -4.9320 N   0  0  0  0  0  0  0  0  0  0  0  0
   29.1230   53.6120   -6.5040 C   0  0  0  0  0  0  0  0  0  0  0  0
   30.4510   54.0450   -7.0450 C   0  0  0  0  0  0  0  0  0  0  0  0
   31.5090   53.9400   -6.1840 O   0  0  0  0  0  0  0  0  0  0  0  0
   30.8870   54.5490   -8.2550 C   0  0  0  0  0  0  0  0  0  0  0  0
   32.2790   54.7600   -8.1270 C   0  0  0  0  0  0  0  0  0  0  0  0
   32.6040   54.3750   -6.8540 C   0  0  0  0  0  0  0  0  0  0  0  0
  2  1  1  0
  2  3  1  0
  2  4  1  0
  2  5  1  0
  5  6  1  0
  4  7  1  0
  7  8  2  0
  7  9  1  0
  6 10  1  0
  8 11  1  0
  8 12  1  0
  9 13  2  0
 10 14  1  0
 10 15  1  0
 12 16  2  0
 13 16  1  0
 14 17  2  0
 14 18  1  0
 15 19  2  0
 18 19  1  0
 17 20  1  0
 18 21  2  0
 21 22  1  0
 20 23  2  0
 21 23  1  0
 22 24  1  0
 24 25  1  0
 25 26  1  0
 25 27  2  0
 27 28  1  0
 26 29  1  0
 28 29  2  0
M  END
