mac-x0303-mac-x0148
     RDKit          3D

 27 31  0  0  0  0  0  0  0  0999 V2000
   30.5280   56.2660   -6.6980 N   0  0  0  0  0  0  0  0  0  0  0  0
   29.2640   55.8700   -5.6540 S   0  0  0  0  0  0  0  0  0  0  0  0
   28.0290   56.0420   -6.3810 O   0  0  0  0  0  0  0  0  0  0  0  0
   29.5060   56.4890   -4.3740 O   0  0  0  0  0  0  0  0  0  0  0  0
   29.3900   54.1260   -5.3780 C   0  0  0  0  0  0  0  0  0  0  0  0
   29.0090   53.5200   -4.2000 N   0  0  0  0  0  0  0  0  0  0  0  0
   29.8490   53.2420   -6.2610 N   0  0  0  0  0  0  0  0  0  0  0  0
   29.2430   52.1830   -4.3630 C   0  0  0  0  0  0  0  0  0  0  0  0
   29.7560   52.0350   -5.6220 C   0  0  0  0  0  0  0  0  0  0  0  0
   28.9960   51.1680   -3.4320 C   0  0  0  0  0  0  0  0  0  0  0  0
   30.1350   50.6880   -6.1470 C   0  0  0  0  0  0  0  0  0  0  0  0
   28.9910   49.9160   -3.9500 C   0  0  0  0  0  0  0  0  0  0  0  0
   29.2540   49.5770   -5.4600 C   0  0  1  0  0  0  0  0  0  0  0  0
   27.9080   49.6040   -6.2360 C   0  0  0  0  0  0  0  0  0  0  0  0
   29.7350   48.0580   -5.6190 C   0  0  2  0  0  0  0  0  0  0  0  0
   31.0200   47.6390   -5.0350 N   0  0  0  0  0  0  0  0  0  0  0  0
   29.7280   47.5880   -7.0070 N   0  0  0  0  0  0  0  0  0  0  0  0
   28.0710   49.1420   -7.6200 N   0  0  0  0  0  0  0  0  0  0  0  0
   31.0150   47.2610   -3.6140 C   0  0  2  0  0  0  0  0  0  0  0  0
   31.8310   46.7290   -5.8690 C   0  0  0  0  0  0  0  0  0  0  0  0
   28.4520   47.7500   -7.6580 C   0  0  0  0  0  0  0  0  0  0  0  0
   30.4900   48.2400   -2.5680 C   0  0  0  0  0  0  0  0  0  0  0  0
   32.4420   47.1350   -3.1080 C   0  0  1  0  0  0  0  0  0  0  0  0
   33.2240   46.3800   -5.3120 C   0  0  0  0  0  0  0  0  0  0  0  0
   32.2400   47.0130   -1.6220 C   0  0  0  0  0  0  0  0  0  0  0  0
   31.1580   47.9150   -1.3250 O   0  0  0  0  0  0  0  0  0  0  0  0
   33.1890   46.0390   -3.8250 C   0  0  0  0  0  0  0  0  0  0  0  0
  2  1  1  0
  2  3  2  0
  2  4  2  0
  2  5  1  0
  5  6  1  0
  5  7  2  0
  6  8  1  0
  7  9  1  0
  8  9  2  0
  8 10  1  0
  9 11  1  0
 10 12  2  0
 13 11  1  6
 13 12  1  0
 13 14  1  0
 13 15  1  0
 15 16  1  6
 15 17  1  0
 14 18  1  0
 16 19  1  0
 16 20  1  0
 17 21  1  0
 18 21  1  0
 19 22  1  1
 19 23  1  0
 20 24  1  0
 23 25  1  1
 22 26  1  0
 25 26  1  0
 23 27  1  0
 24 27  1  0
M  END
