mac-x0178-mac-x0357
     RDKit          3D

 22 23  0  0  0  0  0  0  0  0999 V2000
   28.4110   44.8520   -0.1530 N   0  0  0  0  0  0  0  0  0  0  0  0
   28.8200   46.4450   -0.5950 S   0  0  0  0  0  0  0  0  0  0  0  0
   29.7500   47.0370    0.4240 O   0  0  0  0  0  0  0  0  0  0  0  0
   27.6080   47.3040   -0.7700 O   0  0  0  0  0  0  0  0  0  0  0  0
   29.6770   46.3860   -2.1270 C   0  0  0  0  0  0  0  0  0  0  0  0
   29.2350   45.6300   -3.1680 C   0  0  0  0  0  0  0  0  0  0  0  0
   30.7970   47.1360   -2.2130 C   0  0  0  0  0  0  0  0  0  0  0  0
   29.9110   45.6200   -4.3220 C   0  0  0  0  0  0  0  0  0  0  0  0
   31.4500   47.0960   -3.3990 C   0  0  0  0  0  0  0  0  0  0  0  0
   31.0640   46.3580   -4.5030 C   0  0  0  0  0  0  0  0  0  0  0  0
   31.9150   46.3470   -5.9580 S   0  0  0  0  0  0  0  0  0  0  0  0
   31.3020   44.9210   -6.7190 O   0  0  0  0  0  0  0  0  0  0  0  0
   32.9660   46.7130   -6.7620 O   0  0  0  0  0  0  0  0  0  0  0  0
   31.1260   47.4460   -6.3340 O   0  0  0  0  0  0  0  0  0  0  0  0
   33.1520   45.8710   -4.8210 C   0  0  0  0  0  0  0  0  0  0  0  0
   33.2490   44.5610   -4.4450 C   0  0  0  0  0  0  0  0  0  0  0  0
   34.0070   46.8140   -4.3090 C   0  0  0  0  0  0  0  0  0  0  0  0
   32.3680   43.4620   -4.9410 C   0  0  0  0  0  0  0  0  0  0  0  0
   34.9960   46.5320   -3.4060 C   0  0  0  0  0  0  0  0  0  0  0  0
   34.2400   44.2510   -3.5360 C   0  0  0  0  0  0  0  0  0  0  0  0
   34.4450   42.9700   -3.0800 O   0  0  0  0  0  0  0  0  0  0  0  0
   35.0970   45.2450   -3.0330 C   0  0  0  0  0  0  0  0  0  0  0  0
  2  1  1  0
  2  3  2  0
  2  4  2  0
  2  5  1  0
  5  6  2  0
  5  7  1  0
  6  8  1  0
  7  9  2  0
  8 10  2  0
  9 10  1  0
 10 11  1  0
 11 12  2  0
 11 13  1  0
 11 14  1  0
 11 15  1  0
 15 16  2  0
 15 17  1  0
 16 18  1  0
 17 19  2  0
 16 20  1  0
 20 21  1  0
 19 22  1  0
 20 22  2  0
M  END
