mac-x0361-mac-x0360
     RDKit          3D

 21 22  0  0  0  0  0  0  0  0999 V2000
   28.0830   55.0960   -4.5930 N   0  0  0  0  0  0  0  0  0  0  0  0
   28.8940   54.4840   -3.6760 C   0  0  0  0  0  0  0  0  0  0  0  0
   29.3590   55.0990   -2.7310 O   0  0  0  0  0  0  0  0  0  0  0  0
   29.1880   53.0540   -3.8980 C   0  0  0  0  0  0  0  0  0  0  0  0
   28.6200   52.3880   -4.9760 C   0  0  0  0  0  0  0  0  0  0  0  0
   30.0480   52.3770   -3.0160 C   0  0  0  0  0  0  0  0  0  0  0  0
   28.9080   51.0600   -5.1840 C   0  0  0  0  0  0  0  0  0  0  0  0
   30.3410   51.0280   -3.2300 C   0  0  0  0  0  0  0  0  0  0  0  0
   29.7650   50.3940   -4.3230 C   0  0  0  0  0  0  0  0  0  0  0  0
   30.0330   49.1120   -4.6030 O   0  0  0  0  0  0  0  0  0  0  0  0
   30.5390   49.1230   -6.1530 S   0  0  0  0  0  0  0  0  0  0  0  0
   29.4090   49.4210   -7.0080 O   0  0  0  0  0  0  0  0  0  0  0  0
   31.3640   47.9680   -6.3990 O   0  0  0  0  0  0  0  0  0  0  0  0
   31.6100   50.5640   -6.1580 C   0  0  0  0  0  0  0  0  0  0  0  0
   32.8840   50.4670   -5.5950 C   0  0  0  0  0  0  0  0  0  0  0  0
   31.1710   51.7800   -6.7220 C   0  0  0  0  0  0  0  0  0  0  0  0
   33.7190   51.5830   -5.5950 C   0  0  0  0  0  0  0  0  0  0  0  0
   32.0290   52.8850   -6.7070 C   0  0  0  0  0  0  0  0  0  0  0  0
   31.5300   54.3880   -7.3850 Cl  0  0  0  0  0  0  0  0  0  0  0  0
   35.2890   51.4640   -4.9040 Cl  0  0  0  0  0  0  0  0  0  0  0  0
   33.3010   52.7920   -6.1450 C   0  0  0  0  0  0  0  0  0  0  0  0
  1  2  1  0
  2  3  2  0
  2  4  1  0
  4  5  2  0
  4  6  1  0
  5  7  1  0
  6  8  2  0
  7  9  2  0
  8  9  1  0
  9 10  1  0
 11 10  1  0
 11 12  2  0
 11 13  2  0
 11 14  1  0
 14 15  2  0
 14 16  1  0
 15 17  1  0
 16 18  2  0
 18 19  1  0
 17 20  1  0
 17 21  2  0
 18 21  1  0
M  END
