mac-x0277-mac-x0451
     RDKit          3D

 24 26  0  0  0  0  0  0  0  0999 V2000
   27.8150   46.9770   -0.7020 Cl  0  0  0  0  0  0  0  0  0  0  0  0
   29.0170   46.4410   -1.8230 C   0  0  0  0  0  0  0  0  0  0  0  0
   30.3530   46.8470   -1.7400 C   0  0  0  0  0  0  0  0  0  0  0  0
   28.6220   45.5710   -2.8400 C   0  0  0  0  0  0  0  0  0  0  0  0
   30.9160   47.9220   -0.5090 Cl  0  0  0  0  0  0  0  0  0  0  0  0
   31.2900   46.3810   -2.6750 C   0  0  0  0  0  0  0  0  0  0  0  0
   29.5570   45.1070   -3.7710 C   0  0  0  0  0  0  0  0  0  0  0  0
   30.9000   45.5060   -3.7000 C   0  0  0  0  0  0  0  0  0  0  0  0
   31.8920   44.9830   -4.7200 C   0  0  0  0  0  0  0  0  0  0  0  0
   32.5860   46.0930   -5.4750 C   0  0  0  0  0  0  0  0  0  0  0  0
   33.8560   46.3380   -5.0950 O   0  0  0  0  0  0  0  0  0  0  0  0
   31.9990   46.7450   -6.4120 N   0  0  0  0  0  0  0  0  0  0  0  0
   30.6170   46.4030   -6.7500 C   0  0  0  0  0  0  0  0  0  0  0  0
   29.5930   46.9900   -5.9200 O   0  0  0  0  0  0  0  0  0  0  0  0
   29.5270   48.3580   -5.9570 C   0  0  0  0  0  0  0  0  0  0  0  0
   29.7630   49.0090   -4.7470 C   0  0  0  0  0  0  0  0  0  0  0  0
   29.2410   49.0910   -7.1140 C   0  0  0  0  0  0  0  0  0  0  0  0
   29.2000   50.4920   -7.0180 C   0  0  0  0  0  0  0  0  0  0  0  0
   29.7190   50.4080   -4.6670 C   0  0  0  0  0  0  0  0  0  0  0  0
   29.4340   51.1640   -5.8170 C   0  0  0  0  0  0  0  0  0  0  0  0
   28.8800   51.6520   -8.2500 S   0  0  0  0  0  0  0  0  0  0  0  0
   29.0750   52.9170   -7.1120 C   0  0  0  0  0  0  0  0  0  0  0  0
   29.3580   52.5460   -5.8900 N   0  0  0  0  0  0  0  0  0  0  0  0
   28.9400   54.2050   -7.4710 N   0  0  0  0  0  0  0  0  0  0  0  0
  1  2  1  0
  2  3  2  0
  2  4  1  0
  3  5  1  0
  3  6  1  0
  4  7  2  0
  6  8  2  0
  7  8  1  0
  8  9  1  0
  9 10  1  0
 10 11  1  0
 10 12  2  3
 12 13  1  0
 13 14  1  0
 14 15  1  0
 15 16  2  0
 15 17  1  0
 17 18  2  0
 16 19  1  0
 18 20  1  0
 19 20  2  0
 18 21  1  0
 21 22  1  0
 20 23  1  0
 22 23  2  0
 22 24  1  0
M  END
