mac-x0301-mac-x0277
     RDKit          3D

 23 25  0  0  0  0  0  0  0  0999 V2000
   31.3030   46.2530   -4.7700 N   0  0  0  0  0  0  0  0  0  0  0  0
   31.5600   47.6070   -4.7530 C   0  0  0  0  0  0  0  0  0  0  0  0
   32.6330   48.0970   -4.4300 O   0  0  0  0  0  0  0  0  0  0  0  0
   31.9520   45.3980   -5.6500 C   0  0  0  0  0  0  0  0  0  0  0  0
   30.3750   45.9060   -3.7520 C   0  0  0  0  0  0  0  0  0  0  0  0
   33.3010   45.5240   -5.6370 O   0  0  0  0  0  0  0  0  0  0  0  0
   31.4630   44.5900   -6.4220 O   0  0  0  0  0  0  0  0  0  0  0  0
   30.4260   48.4960   -5.1060 C   0  0  0  0  0  0  0  0  0  0  0  0
   30.3660   46.7770   -2.6590 C   0  0  0  0  0  0  0  0  0  0  0  0
   29.4890   44.8260   -3.7500 C   0  0  0  0  0  0  0  0  0  0  0  0
   29.7870   48.4050   -6.3320 C   0  0  0  0  0  0  0  0  0  0  0  0
   29.9810   49.4620   -4.1890 C   0  0  0  0  0  0  0  0  0  0  0  0
   29.5070   46.6060   -1.5910 C   0  0  0  0  0  0  0  0  0  0  0  0
   28.6120   44.6440   -2.6690 C   0  0  0  0  0  0  0  0  0  0  0  0
   29.6070   47.7620   -0.3110 Cl  0  0  0  0  0  0  0  0  0  0  0  0
   28.7450   49.2470   -6.6410 C   0  0  0  0  0  0  0  0  0  0  0  0
   28.9150   50.3110   -4.5160 C   0  0  0  0  0  0  0  0  0  0  0  0
   30.0520   47.5490   -7.3570 O   0  0  0  0  0  0  0  0  0  0  0  0
   28.6210   45.5400   -1.5920 C   0  0  0  0  0  0  0  0  0  0  0  0
   27.5170   45.2790   -0.2950 Cl  0  0  0  0  0  0  0  0  0  0  0  0
   28.2860   50.2070   -5.7590 C   0  0  0  0  0  0  0  0  0  0  0  0
   28.2430   49.0170   -7.8870 O   0  0  0  0  0  0  0  0  0  0  0  0
   28.9350   47.8020   -8.2250 C   0  0  0  0  0  0  0  0  0  0  0  0
  1  2  1  0
  2  3  2  0
  1  4  1  0
  1  5  1  0
  4  6  1  0
  4  7  2  0
  2  8  1  0
  5  9  2  0
  5 10  1  0
  8 11  1  0
  8 12  2  0
  9 13  1  0
 10 14  2  0
 13 15  1  0
 11 16  2  0
 12 17  1  0
 11 18  1  0
 13 19  2  0
 14 19  1  0
 19 20  1  0
 16 21  1  0
 17 21  2  0
 16 22  1  0
 18 23  1  0
 22 23  1  0
M  END
