mac-x0116-mac-x0392
     RDKit          3D

 20 22  0  0  0  0  0  0  0  0999 V2000
   29.7130   52.6860   -7.3550 C   0  0  0  0  0  0  0  0  0  0  0  0
   29.4630   51.8750   -6.1710 N   0  0  0  0  0  0  0  0  0  0  0  0
   29.5160   50.4820   -6.1630 C   0  0  0  0  0  0  0  0  0  0  0  0
   30.7900   53.7090   -7.1920 C   0  0  0  0  0  0  0  0  0  0  0  0
   31.3670   53.8200   -5.9580 O   0  0  0  0  0  0  0  0  0  0  0  0
   31.3630   54.6160   -8.0600 C   0  0  0  0  0  0  0  0  0  0  0  0
   32.3410   55.3180   -7.3200 C   0  0  0  0  0  0  0  0  0  0  0  0
   32.3060   54.7970   -6.0470 C   0  0  0  0  0  0  0  0  0  0  0  0
   30.1470   49.8180   -5.1030 N   0  0  0  0  0  0  0  0  0  0  0  0
   28.9480   49.8080   -7.1900 C   0  0  0  0  0  0  0  0  0  0  0  0
   30.1880   48.5030   -5.1160 C   0  0  0  0  0  0  0  0  0  0  0  0
   29.0060   48.3460   -7.1810 C   0  0  0  0  0  0  0  0  0  0  0  0
   28.2830   50.1980   -8.3220 N   0  0  0  0  0  0  0  0  0  0  0  0
   30.8940   47.8390   -3.9350 C   0  0  0  0  0  0  0  0  0  0  0  0
   29.6330   47.7320   -6.1320 N   0  0  0  0  0  0  0  0  0  0  0  0
   28.4070   47.9000   -8.2490 N   0  0  0  0  0  0  0  0  0  0  0  0
   27.9960   49.0630   -8.8940 C   0  0  0  0  0  0  0  0  0  0  0  0
   29.9260   46.3530   -6.2460 N   0  0  0  0  0  0  0  0  0  0  0  0
   31.7690   48.3650   -3.2770 O   0  0  0  0  0  0  0  0  0  0  0  0
   30.4390   46.6010   -3.7020 O   0  0  0  0  0  0  0  0  0  0  0  0
  1  2  1  0
  2  3  1  0
  1  4  1  0
  4  5  1  0
  4  6  2  0
  6  7  1  0
  5  8  1  0
  7  8  2  0
  3  9  1  0
  3 10  2  0
  9 11  2  0
 10 12  1  0
 10 13  1  0
 11 14  1  0
 11 15  1  0
 12 15  1  0
 12 16  2  0
 13 17  2  0
 16 17  1  0
 15 18  1  0
 14 19  2  0
 14 20  1  0
M  END
