mac-x0284-mac-x0437
     RDKit          3D

 26 28  0  0  0  0  0  0  0  0999 V2000
   28.5840   51.6950   -5.8700 C   0  0  0  0  0  0  0  0  0  0  0  0
   29.0060   50.5750   -4.9640 C   0  0  0  0  0  0  0  0  0  0  0  0
   29.2220   50.8000   -3.6020 C   0  0  0  0  0  0  0  0  0  0  0  0
   29.1870   49.2830   -5.4810 C   0  0  0  0  0  0  0  0  0  0  0  0
   29.5810   48.2130   -4.6540 C   0  0  0  0  0  0  0  0  0  0  0  0
   29.6110   49.7550   -2.7670 C   0  0  0  0  0  0  0  0  0  0  0  0
   29.7510   46.8710   -5.2970 C   0  0  0  0  0  0  0  0  0  0  0  0
   29.7890   48.4700   -3.2900 C   0  0  0  0  0  0  0  0  0  0  0  0
   30.1730   47.4650   -2.4380 O   0  0  0  0  0  0  0  0  0  0  0  0
   30.4380   46.7060   -6.3720 N   0  0  0  0  0  0  0  0  0  0  0  0
   29.1360   45.8430   -4.6770 O   0  0  0  0  0  0  0  0  0  0  0  0
   30.5260   45.3400   -6.8990 C   0  0  0  0  0  0  0  0  0  0  0  0
   31.3820   44.4590   -6.1560 O   0  0  0  0  0  0  0  0  0  0  0  0
   32.7110   44.6570   -6.3520 C   0  0  0  0  0  0  0  0  0  0  0  0
   33.2350   45.0700   -7.3780 O   0  0  0  0  0  0  0  0  0  0  0  0
   33.4650   44.2890   -5.0950 C   0  0  0  0  0  0  0  0  0  0  0  0
   33.1970   45.2640   -3.9560 C   0  0  0  0  0  0  0  0  0  0  0  0
   34.3890   45.9570   -3.5060 N   0  0  0  0  0  0  0  0  0  0  0  0
   34.5570   47.3160   -3.4970 C   0  0  0  0  0  0  0  0  0  0  0  0
   35.5380   45.3850   -3.0200 C   0  0  0  0  0  0  0  0  0  0  0  0
   35.7370   47.6580   -3.0400 N   0  0  0  0  0  0  0  0  0  0  0  0
   36.3630   46.4720   -2.7380 C   0  0  0  0  0  0  0  0  0  0  0  0
   35.9360   44.0580   -2.8030 C   0  0  0  0  0  0  0  0  0  0  0  0
   37.6430   46.2470   -2.2160 C   0  0  0  0  0  0  0  0  0  0  0  0
   37.2190   43.8550   -2.2810 C   0  0  0  0  0  0  0  0  0  0  0  0
   38.0620   44.9320   -1.9920 C   0  0  0  0  0  0  0  0  0  0  0  0
  1  2  1  0
  2  3  2  0
  2  4  1  0
  4  5  2  0
  3  6  1  0
  5  7  1  0
  5  8  1  0
  6  8  2  0
  8  9  1  0
  7 10  2  3
  7 11  1  0
 10 12  1  0
 12 13  1  0
 13 14  1  0
 14 15  2  0
 14 16  1  0
 16 17  1  0
 17 18  1  0
 18 19  1  0
 18 20  1  0
 19 21  2  0
 20 22  2  0
 21 22  1  0
 20 23  1  0
 22 24  1  0
 23 25  2  0
 24 26  2  0
 25 26  1  0
M  END
