mac-x0375-mac-x0344
     RDKit          3D

 12 12  0  0  0  0  0  0  0  0999 V2000
   31.4530   45.2620   -6.5370 O   0  0  0  0  0  0  0  0  0  0  0  0
   32.4820   44.6730   -5.7790 C   0  0  0  0  0  0  0  0  0  0  0  0
   33.4120   44.0810   -6.6420 O   0  0  0  0  0  0  0  0  0  0  0  0
   33.1420   45.7560   -4.8970 C   0  0  0  0  0  0  0  0  0  0  0  0
   31.9050   43.6450   -5.0050 O   0  0  0  0  0  0  0  0  0  0  0  0
   34.1660   45.1490   -4.0890 O   0  0  0  0  0  0  0  0  0  0  0  0
   35.1600   45.9640   -3.6260 C   0  0  0  0  0  0  0  0  0  0  0  0
   36.5250   45.6710   -3.6140 C   0  0  0  0  0  0  0  0  0  0  0  0
   34.7260   47.1950   -3.1270 C   0  0  0  0  0  0  0  0  0  0  0  0
   37.4390   46.5980   -3.1080 C   0  0  0  0  0  0  0  0  0  0  0  0
   35.6390   48.1230   -2.6210 C   0  0  0  0  0  0  0  0  0  0  0  0
   37.0000   47.8220   -2.6100 C   0  0  0  0  0  0  0  0  0  0  0  0
  2  1  1  0
  2  3  1  0
  2  4  1  0
  2  5  1  0
  4  6  1  0
  6  7  1  0
  7  8  2  0
  7  9  1  0
  8 10  1  0
  9 11  2  0
 10 12  2  0
 11 12  1  0
M  END
