mac-x0439-mac-x0303
     RDKit          3D

 28 31  0  0  0  0  0  0  0  0999 V2000
   28.3100   47.8910   -2.5260 Cl  0  0  0  0  0  0  0  0  0  0  0  0
   28.7850   46.2460   -2.3160 C   0  0  0  0  0  0  0  0  0  0  0  0
   29.9810   45.7020   -3.0420 C   0  0  2  0  0  0  0  0  0  0  0  0
   28.0720   45.4570   -1.4870 C   0  0  0  0  0  0  0  0  0  0  0  0
   30.3380   46.0110   -4.4760 C   0  0  0  0  0  0  0  0  0  0  0  0
   29.6890   44.2270   -3.2740 C   0  0  0  0  0  0  0  0  0  0  0  0
   28.4380   44.0670   -1.2780 C   0  0  0  0  0  0  0  0  0  0  0  0
   30.7310   47.3840   -4.9450 C   0  0  0  0  0  0  0  0  0  0  0  0
   30.2470   44.8730   -5.2070 C   0  0  0  0  0  0  0  0  0  0  0  0
   29.8490   43.7770   -4.4770 N   0  0  0  0  0  0  0  0  0  0  0  0
   29.2380   43.4140   -2.1350 C   0  0  0  0  0  0  0  0  0  0  0  0
   30.5210   44.7140   -6.6630 C   0  0  0  0  0  0  0  0  0  0  0  0
   29.5300   48.2110   -5.4190 C   0  0  0  0  0  0  0  0  0  0  0  0
   29.8160   43.7100   -7.2240 O   0  0  0  0  0  0  0  0  0  0  0  0
   31.2890   45.3810   -7.3390 O   0  0  0  0  0  0  0  0  0  0  0  0
   29.6330   49.6550   -4.9920 C   0  0  0  0  0  0  0  0  0  0  0  0
   30.0860   49.9870   -3.7030 C   0  0  0  0  0  0  0  0  0  0  0  0
   29.2710   50.6770   -5.8900 C   0  0  0  0  0  0  0  0  0  0  0  0
   29.3710   52.0170   -5.4800 C   0  0  0  0  0  0  0  0  0  0  0  0
   30.1920   51.3180   -3.2770 C   0  0  0  0  0  0  0  0  0  0  0  0
   29.8240   52.3030   -4.1960 C   0  0  0  0  0  0  0  0  0  0  0  0
   29.0780   53.1690   -6.1690 N   0  0  0  0  0  0  0  0  0  0  0  0
   29.3470   54.1510   -5.3230 C   0  0  0  0  0  0  0  0  0  0  0  0
   29.7980   53.6700   -4.1230 N   0  0  0  0  0  0  0  0  0  0  0  0
   29.1650   55.8750   -5.6480 S   0  0  0  0  0  0  0  0  0  0  0  0
   30.4170   56.2950   -6.6940 N   0  0  0  0  0  0  0  0  0  0  0  0
   27.9250   55.9860   -6.3770 O   0  0  0  0  0  0  0  0  0  0  0  0
   29.3870   56.5180   -4.3740 O   0  0  0  0  0  0  0  0  0  0  0  0
  1  2  1  0
  3  2  1  6
  2  4  2  0
  3  5  1  0
  3  6  1  0
  4  7  1  0
  5  8  1  0
  5  9  2  0
  6 10  2  0
  9 10  1  0
  6 11  1  0
  7 11  2  0
  9 12  1  0
  8 13  1  0
 12 14  1  0
 12 15  2  0
 13 16  1  0
 16 17  2  0
 16 18  1  0
 18 19  2  0
 17 20  1  0
 19 21  1  0
 20 21  2  0
 19 22  1  0
 22 23  2  0
 21 24  1  0
 23 24  1  0
 23 25  1  0
 25 26  1  0
 25 27  2  0
 25 28  2  0
M  END
