mac-x0348-mac-x0396
     RDKit          3D

 26 28  0  0  0  0  0  0  0  0999 V2000
   27.6470   44.1880   -0.7750 C   0  0  0  0  0  0  0  0  0  0  0  0
   28.4320   45.1470   -1.5210 N   0  0  0  0  0  0  0  0  0  0  0  0
   28.7150   45.0500   -2.8580 C   0  0  0  0  0  0  0  0  0  0  0  0
   28.9990   46.2830   -0.9930 C   0  0  0  0  0  0  0  0  0  0  0  0
   29.4830   46.1410   -3.2250 C   0  0  0  0  0  0  0  0  0  0  0  0
   29.6680   46.9290   -2.0400 C   0  0  0  0  0  0  0  0  0  0  0  0
   28.9870   46.8050    0.3120 C   0  0  0  0  0  0  0  0  0  0  0  0
   30.0280   46.4550   -4.6070 C   0  0  2  0  0  0  0  0  0  0  0  0
   30.3440   48.1360   -1.7670 C   0  0  0  0  0  0  0  0  0  0  0  0
   29.6660   48.0020    0.5530 C   0  0  0  0  0  0  0  0  0  0  0  0
   31.5630   46.5900   -4.5760 C   0  0  0  0  0  0  0  0  0  0  0  0
   29.3520   47.7190   -5.1980 C   0  0  0  0  0  0  0  0  0  0  0  0
   30.3370   48.6610   -0.4720 C   0  0  0  0  0  0  0  0  0  0  0  0
   32.2210   45.9460   -5.7740 C   0  0  0  0  0  0  0  0  0  0  0  0
   30.2430   48.5860   -6.1000 C   0  0  0  0  0  0  0  0  0  0  0  0
   31.6070   45.3460   -6.6440 O   0  0  0  0  0  0  0  0  0  0  0  0
   33.5650   46.0810   -5.8160 O   0  0  0  0  0  0  0  0  0  0  0  0
   30.3510   49.9190   -5.5090 N   0  0  0  0  0  0  0  0  0  0  0  0
   29.4470   50.8180   -5.7190 C   0  0  0  0  0  0  0  0  0  0  0  0
   28.3930   50.4650   -6.5160 N   0  0  0  0  0  0  0  0  0  0  0  0
   29.4610   52.1890   -5.1680 C   0  0  0  0  0  0  0  0  0  0  0  0
   29.7880   52.4060   -3.8370 C   0  0  0  0  0  0  0  0  0  0  0  0
   29.1480   53.2830   -5.9700 C   0  0  0  0  0  0  0  0  0  0  0  0
   29.8210   53.6370   -3.2660 N   0  0  0  0  0  0  0  0  0  0  0  0
   29.1750   54.5570   -5.4080 C   0  0  0  0  0  0  0  0  0  0  0  0
   29.5130   54.6830   -4.0670 C   0  0  0  0  0  0  0  0  0  0  0  0
  1  2  1  0
  2  3  1  0
  2  4  1  0
  3  5  2  0
  4  6  2  0
  5  6  1  0
  4  7  1  0
  5  8  1  0
  6  9  1  0
  7 10  2  0
  8 11  1  1
  8 12  1  0
  9 13  2  0
 10 13  1  0
 11 14  1  0
 12 15  1  0
 14 16  2  0
 14 17  1  0
 15 18  1  0
 18 19  2  3
 19 20  1  0
 19 21  1  0
 21 22  2  0
 21 23  1  0
 22 24  1  0
 23 25  2  0
 24 26  2  0
 25 26  1  0
M  END
