mac-x0565-mac-x0436
     RDKit          3D

 28 31  0  0  0  0  0  0  0  0999 V2000
   27.8130   52.9240   -4.6360 O   0  0  0  0  0  0  0  0  0  0  0  0
   28.5050   52.7550   -3.4910 C   0  0  0  0  0  0  0  0  0  0  0  0
   28.4000   53.4850   -2.5220 O   0  0  0  0  0  0  0  0  0  0  0  0
   29.4150   51.5860   -3.5280 C   0  0  0  0  0  0  0  0  0  0  0  0
   29.5380   50.8860   -4.7320 C   0  0  0  0  0  0  0  0  0  0  0  0
   30.1430   51.1860   -2.3850 C   0  0  0  0  0  0  0  0  0  0  0  0
   30.3940   49.8060   -4.7510 C   0  0  0  0  0  0  0  0  0  0  0  0
   31.0040   50.0830   -2.4430 C   0  0  0  0  0  0  0  0  0  0  0  0
   31.1210   49.3970   -3.6430 C   0  0  0  0  0  0  0  0  0  0  0  0
   30.6310   49.0180   -5.8360 O   0  0  0  0  0  0  0  0  0  0  0  0
   31.9330   48.2650   -3.9290 N   0  0  0  0  0  0  0  0  0  0  0  0
   31.2940   47.8840   -5.2230 C   0  0  0  0  0  0  0  0  0  0  0  0
   33.2720   48.6030   -3.9850 N   0  0  0  0  0  0  0  0  0  0  0  0
   34.1920   47.6760   -3.8400 C   0  0  0  0  0  0  0  0  0  0  0  0
   33.8210   46.1960   -3.6100 C   0  0  0  0  0  0  0  0  0  0  0  0
   35.5380   47.9350   -3.8680 N   0  0  0  0  0  0  0  0  0  0  0  0
   32.4620   45.6830   -4.0490 C   0  0  0  0  0  0  0  0  0  0  0  0
   36.3870   47.1570   -3.0790 C   0  0  0  0  0  0  0  0  0  0  0  0
   34.6790   45.3740   -3.0500 N   0  0  0  0  0  0  0  0  0  0  0  0
   32.4860   44.2210   -4.4870 C   0  0  0  0  0  0  0  0  0  0  0  0
   35.9470   45.8800   -2.6740 C   0  0  0  0  0  0  0  0  0  0  0  0
   37.6460   47.6210   -2.6910 C   0  0  0  0  0  0  0  0  0  0  0  0
   32.1280   44.0540   -5.9470 C   0  0  0  0  0  0  0  0  0  0  0  0
   36.7820   45.0880   -1.8850 C   0  0  0  0  0  0  0  0  0  0  0  0
   38.4710   46.8190   -1.9010 C   0  0  0  0  0  0  0  0  0  0  0  0
   33.1890   43.9240   -6.7640 O   0  0  0  0  0  0  0  0  0  0  0  0
   30.9750   44.0360   -6.3650 O   0  0  0  0  0  0  0  0  0  0  0  0
   38.0410   45.5550   -1.4990 C   0  0  0  0  0  0  0  0  0  0  0  0
  1  2  1  0
  2  3  2  0
  2  4  1  0
  4  5  2  0
  4  6  1  0
  5  7  1  0
  6  8  2  0
  7  9  2  0
  8  9  1  0
  7 10  1  0
  9 11  1  0
 10 12  1  0
 11 12  1  0
 11 13  1  0
 13 14  2  3
 14 15  1  0
 14 16  1  0
 15 17  1  0
 16 18  1  0
 15 19  2  0
 17 20  1  0
 18 21  2  0
 19 21  1  0
 18 22  1  0
 20 23  1  0
 21 24  1  0
 22 25  2  0
 23 26  1  0
 23 27  2  0
 24 28  2  0
 25 28  1  0
M  END
