mac-x0277-mac-x0360
     RDKit          3D

 26 27  0  0  0  0  0  0  0  0999 V2000
   27.5660   46.2050   -0.7190 Cl  0  0  0  0  0  0  0  0  0  0  0  0
   28.8670   45.8710   -1.8060 C   0  0  0  0  0  0  0  0  0  0  0  0
   30.0610   46.5880   -1.7840 C   0  0  0  0  0  0  0  0  0  0  0  0
   28.6910   44.8390   -2.7330 C   0  0  0  0  0  0  0  0  0  0  0  0
   30.3530   47.8750   -0.6680 Cl  0  0  0  0  0  0  0  0  0  0  0  0
   31.0830   46.2730   -2.6930 C   0  0  0  0  0  0  0  0  0  0  0  0
   29.7080   44.5220   -3.6390 C   0  0  0  0  0  0  0  0  0  0  0  0
   30.9140   45.2390   -3.6270 C   0  0  0  0  0  0  0  0  0  0  0  0
   32.0140   44.9020   -4.6090 C   0  0  0  0  0  0  0  0  0  0  0  0
   32.1680   45.9420   -5.6950 C   0  0  0  0  0  0  0  0  0  0  0  0
   33.4290   46.3570   -5.9460 O   0  0  0  0  0  0  0  0  0  0  0  0
   31.1450   46.3890   -6.3280 N   0  0  0  0  0  0  0  0  0  0  0  0
   31.3480   47.4100   -7.3650 C   0  0  0  0  0  0  0  0  0  0  0  0
   31.4990   48.8120   -6.7550 C   0  0  0  0  0  0  0  0  0  0  0  0
   30.3690   49.1330   -5.8640 N   0  0  0  0  0  0  0  0  0  0  0  0
   29.7350   50.6710   -5.8280 S   0  0  0  0  0  0  0  0  0  0  0  0
   29.0910   50.9000   -4.5520 O   0  0  0  0  0  0  0  0  0  0  0  0
   29.0160   50.8330   -7.0720 O   0  0  0  0  0  0  0  0  0  0  0  0
   31.1870   51.6860   -5.9110 C   0  0  0  0  0  0  0  0  0  0  0  0
   32.4160   51.1840   -5.4690 C   0  0  0  0  0  0  0  0  0  0  0  0
   31.0840   52.9850   -6.4180 C   0  0  0  0  0  0  0  0  0  0  0  0
   33.5460   51.9980   -5.5450 C   0  0  0  0  0  0  0  0  0  0  0  0
   32.2220   53.7790   -6.4830 C   0  0  0  0  0  0  0  0  0  0  0  0
   32.1090   55.3780   -7.1050 Cl  0  0  0  0  0  0  0  0  0  0  0  0
   35.0700   51.4010   -5.0140 Cl  0  0  0  0  0  0  0  0  0  0  0  0
   33.4580   53.2950   -6.0500 C   0  0  0  0  0  0  0  0  0  0  0  0
  1  2  1  0
  2  3  2  0
  2  4  1  0
  3  5  1  0
  3  6  1  0
  4  7  2  0
  6  8  2  0
  7  8  1  0
  8  9  1  0
  9 10  1  0
 10 11  1  0
 10 12  2  3
 12 13  1  0
 13 14  1  0
 14 15  1  0
 16 15  1  0
 16 17  2  0
 16 18  2  0
 16 19  1  0
 19 20  2  0
 19 21  1  0
 20 22  1  0
 21 23  2  0
 23 24  1  0
 22 25  1  0
 22 26  2  0
 23 26  1  0
M  END
