mac-x0433-mac-x0212
     RDKit          3D

 22 23  0  0  0  0  0  0  0  0999 V2000
   26.8900   50.0720   -5.3390 C   0  0  0  0  0  0  0  0  0  0  0  0
   27.6500   51.1390   -4.6400 C   0  0  0  0  0  0  0  0  0  0  0  0
   28.3170   52.1220   -5.3550 C   0  0  0  0  0  0  0  0  0  0  0  0
   27.6820   51.1400   -3.3030 N   0  0  0  0  0  0  0  0  0  0  0  0
   28.3570   52.0770   -2.6420 C   0  0  0  0  0  0  0  0  0  0  0  0
   28.9880   53.0510   -4.6480 C   0  0  0  0  0  0  0  0  0  0  0  0
   29.8040   54.2360   -5.6360 S   0  0  0  0  0  0  0  0  0  0  0  0
   28.3950   52.0740   -1.2300 N   0  0  0  0  0  0  0  0  0  0  0  0
   29.0170   53.0470   -3.3450 N   0  0  0  0  0  0  0  0  0  0  0  0
   29.1430   54.5090   -7.1350 C   0  0  0  0  0  0  0  0  0  0  0  0
   29.0220   55.2410   -4.9720 O   0  0  0  0  0  0  0  0  0  0  0  0
   31.0780   55.0260   -5.0920 O   0  0  0  0  0  0  0  0  0  0  0  0
   30.8230   53.0500   -6.0160 N   0  0  0  0  0  0  0  0  0  0  0  0
   30.8190   51.6450   -5.5960 C   0  0  0  0  0  0  0  0  0  0  0  0
   30.4990   50.6750   -6.5250 C   0  0  0  0  0  0  0  0  0  0  0  0
   31.1200   51.2770   -4.3270 C   0  0  0  0  0  0  0  0  0  0  0  0
   30.4940   49.3440   -6.1550 C   0  0  0  0  0  0  0  0  0  0  0  0
   31.1080   49.9420   -3.9780 C   0  0  0  0  0  0  0  0  0  0  0  0
   30.7990   48.9320   -4.8610 C   0  0  0  0  0  0  0  0  0  0  0  0
   30.7940   47.5280   -4.4840 C   0  0  0  0  0  0  0  0  0  0  0  0
   30.6830   46.6640   -5.3790 O   0  0  0  0  0  0  0  0  0  0  0  0
   30.9110   47.1140   -3.1730 O   0  0  0  0  0  0  0  0  0  0  0  0
  1  2  1  0
  2  3  2  0
  2  4  1  0
  4  5  2  0
  3  6  1  0
  6  7  1  0
  5  8  1  0
  5  9  1  0
  6  9  2  0
  7 10  1  0
  7 11  2  0
  7 12  1  0
  7 13  1  0
 13 14  1  0
 14 15  2  0
 14 16  1  0
 15 17  1  0
 16 18  2  0
 17 19  2  0
 18 19  1  0
 19 20  1  0
 20 21  2  0
 20 22  1  0
M  END
