mac-x0159-mac-x0565
     RDKit          3D

 23 27  0  0  0  0  0  0  0  0999 V2000
   29.0200   51.8790   -5.9120 N   0  0  0  0  0  0  0  0  0  0  0  0
   29.2670   52.5310   -4.6790 C   0  0  0  0  0  0  0  0  0  0  0  0
   29.0760   53.7010   -4.3800 O   0  0  0  0  0  0  0  0  0  0  0  0
   29.6580   50.5760   -5.8170 C   0  0  1  0  0  0  0  0  0  0  0  0
   29.2300   50.2690   -4.4840 N   0  0  0  0  0  0  0  0  0  0  0  0
   29.4270   49.4890   -6.8940 C   0  0  1  0  0  0  0  0  0  0  0  0
   29.8420   51.4100   -3.8340 C   0  0  2  0  0  0  0  0  0  0  0  0
   29.5360   48.9520   -3.9360 C   0  0  1  0  0  0  0  0  0  0  0  0
   30.0070   48.1730   -6.3430 C   0  0  1  0  0  0  0  0  0  0  0  0
   28.0500   49.1460   -7.2780 N   0  0  0  0  0  0  0  0  0  0  0  0
   29.8190   51.4270   -2.3240 C   0  0  0  0  0  0  0  0  0  0  0  0
   30.1180   48.0120   -4.8900 N   0  0  0  0  0  0  0  0  0  0  0  0
   29.2140   47.1480   -7.0110 N   0  0  0  0  0  0  0  0  0  0  0  0
   28.2550   47.8260   -7.8580 C   0  0  0  0  0  0  0  0  0  0  0  0
   30.2230   49.0000   -2.5880 C   0  0  0  0  0  0  0  0  0  0  0  0
   30.3520   50.1160   -1.8420 C   0  0  0  0  0  0  0  0  0  0  0  0
   30.6310   46.7540   -4.3730 C   0  0  0  0  0  0  0  0  0  0  0  0
   29.6770   45.9450   -3.5180 C   0  0  0  0  0  0  0  0  0  0  0  0
   29.0450   44.7620   -3.8510 C   0  0  0  0  0  0  0  0  0  0  0  0
   29.3620   46.4040   -2.2330 N   0  0  0  0  0  0  0  0  0  0  0  0
   28.5230   45.5800   -1.6410 C   0  0  0  0  0  0  0  0  0  0  0  0
   28.0560   44.2150   -2.5660 S   0  0  0  0  0  0  0  0  0  0  0  0
   27.9840   45.7630   -0.2670 C   0  0  0  0  0  0  0  0  0  0  0  0
  1  2  1  0
  2  3  2  0
  4  1  1  6
  4  5  1  0
  4  6  1  0
  2  7  1  0
  5  7  1  0
  5  8  1  0
  6  9  1  0
  6 10  1  1
  7 11  1  1
  8 12  1  0
  9 12  1  0
  9 13  1  1
 10 14  1  0
 13 14  1  0
  8 15  1  1
 11 16  1  0
 15 16  2  0
 12 17  1  0
 17 18  1  0
 18 19  2  0
 18 20  1  0
 20 21  2  0
 19 22  1  0
 21 22  1  0
 21 23  1  0
M  END
