mac-x0228-mac-x0576
     RDKit          3D

 19 21  0  0  0  0  0  0  0  0999 V2000
   30.4740   47.3530   -4.8450 O   0  0  0  0  0  0  0  0  0  0  0  0
   30.8240   48.2530   -3.9160 C   0  0  0  0  0  0  0  0  0  0  0  0
   31.3700   47.8810   -2.8880 O   0  0  0  0  0  0  0  0  0  0  0  0
   30.4840   49.6990   -4.2620 C   0  0  1  0  0  0  0  0  0  0  0  0
   29.7450   49.9950   -5.6410 C   0  0  2  0  0  0  0  0  0  0  0  0
   29.8110   50.3190   -3.0240 C   0  0  0  0  0  0  0  0  0  0  0  0
   29.2820   51.4840   -5.6490 C   0  0  1  0  0  0  0  0  0  0  0  0
   29.4780   51.7820   -3.2300 C   0  0  0  0  0  0  0  0  0  0  0  0
   28.5370   49.0010   -5.7970 C   0  0  0  0  0  0  0  0  0  0  0  0
   30.6670   49.7470   -6.8640 C   0  0  0  0  0  0  0  0  0  0  0  0
   28.8870   52.4470   -2.3820 O   0  0  0  0  0  0  0  0  0  0  0  0
   29.9420   52.3360   -4.5680 C   0  0  2  0  0  0  0  0  0  0  0  0
   29.4910   52.3660   -6.8630 C   0  0  0  0  0  0  0  0  0  0  0  0
   28.5730   48.1850   -7.0160 N   0  0  0  0  0  0  0  0  0  0  0  0
   29.9170   49.7910   -8.1090 N   0  0  0  0  0  0  0  0  0  0  0  0
   29.6430   53.6890   -4.8940 O   0  0  0  0  0  0  0  0  0  0  0  0
   29.2410   53.7450   -6.2730 C   0  0  0  0  0  0  0  0  0  0  0  0
   28.7580   48.9720   -8.1870 C   0  0  1  0  0  0  0  0  0  0  0  0
   29.0390   48.0290   -9.2110 N   0  0  0  0  0  0  0  0  0  0  0  0
  1  2  1  0
  2  3  2  0
  4  2  1  1
  4  5  1  0
  4  6  1  0
  5  7  1  0
  6  8  1  0
  5  9  1  6
  5 10  1  0
  8 11  2  0
  7 12  1  0
  8 12  1  0
  7 13  1  6
  9 14  1  0
 10 15  1  0
 12 16  1  6
 13 17  1  0
 16 17  1  0
 14 18  1  0
 15 18  1  0
 18 19  1  6
M  END
