mac-x0451-mac-x0348
     RDKit          3D

 25 28  0  0  0  0  0  0  0  0999 V2000
   28.7140   53.6970   -7.9700 N   0  0  0  0  0  0  0  0  0  0  0  0
   29.0080   52.5720   -7.2850 C   0  0  0  0  0  0  0  0  0  0  0  0
   29.2300   52.5620   -5.9970 N   0  0  0  0  0  0  0  0  0  0  0  0
   29.1160   51.0400   -8.0550 S   0  0  0  0  0  0  0  0  0  0  0  0
   29.5080   51.2690   -5.5650 C   0  0  0  0  0  0  0  0  0  0  0  0
   29.4960   50.2830   -6.5470 C   0  0  0  0  0  0  0  0  0  0  0  0
   29.7950   50.8830   -4.2460 C   0  0  0  0  0  0  0  0  0  0  0  0
   29.7690   48.9160   -6.2380 C   0  0  0  0  0  0  0  0  0  0  0  0
   30.0660   49.5360   -3.9360 C   0  0  0  0  0  0  0  0  0  0  0  0
   30.0670   48.5170   -4.9030 C   0  0  0  0  0  0  0  0  0  0  0  0
   30.3640   47.1370   -4.5990 N   0  0  0  0  0  0  0  0  0  0  0  0
   31.8050   46.8010   -4.7780 C   0  0  0  0  0  0  0  0  0  0  0  0
   29.9090   46.3470   -3.3770 C   0  0  2  0  0  0  0  0  0  0  0  0
   32.2070   46.3000   -6.1520 C   0  0  0  0  0  0  0  0  0  0  0  0
   28.5270   45.6390   -3.2380 C   0  0  0  0  0  0  0  0  0  0  0  0
   30.0950   46.9620   -1.9730 C   0  0  2  0  0  0  0  0  0  0  0  0
   31.4670   45.8450   -7.0080 O   0  0  0  0  0  0  0  0  0  0  0  0
   33.5350   46.4000   -6.3740 O   0  0  0  0  0  0  0  0  0  0  0  0
   28.4500   45.3840   -1.7690 N   0  0  0  0  0  0  0  0  0  0  0  0
   28.7190   46.7410   -1.2990 C   0  0  1  0  0  0  0  0  0  0  0  0
   30.6560   48.3190   -1.6660 C   0  0  0  0  0  0  0  0  0  0  0  0
   27.1690   44.8240   -1.3480 C   0  0  0  0  0  0  0  0  0  0  0  0
   30.4170   48.8340   -0.4440 C   0  0  0  0  0  0  0  0  0  0  0  0
   28.8260   47.0750    0.1650 C   0  0  0  0  0  0  0  0  0  0  0  0
   29.6420   48.0810    0.5390 C   0  0  0  0  0  0  0  0  0  0  0  0
  1  2  1  0
  2  3  2  0
  2  4  1  0
  3  5  1  0
  4  6  1  0
  5  6  2  0
  5  7  1  0
  6  8  1  0
  7  9  2  0
  8 10  2  0
  9 10  1  0
 10 11  1  0
 11 12  1  0
 13 11  1  6
 12 14  1  0
 13 15  1  0
 13 16  1  0
 14 17  2  0
 14 18  1  0
 15 19  1  0
 16 20  1  0
 19 20  1  0
 16 21  1  6
 19 22  1  0
 21 23  2  0
 20 24  1  1
 23 25  1  0
 24 25  2  0
M  END
