mac-x0161-mac-x0178
     RDKit          3D

 31 34  0  0  0  0  0  0  0  0999 V2000
   28.2870   52.5450   -6.0840 N   0  0  0  0  0  0  0  0  0  0  0  0
   27.9390   51.5280   -5.1070 C   0  0  1  0  0  0  0  0  0  0  0  0
   27.7780   50.1450   -5.7690 C   0  0  2  0  0  0  0  0  0  0  0  0
   29.0060   51.5810   -4.1260 N   0  0  0  0  0  0  0  0  0  0  0  0
   29.3570   50.3810   -3.3570 C   0  0  0  0  0  0  0  0  0  0  0  0
   29.0050   49.3650   -5.4810 C   0  0  1  0  0  0  0  0  0  0  0  0
   27.7130   50.0260   -7.2450 N   0  0  0  0  0  0  0  0  0  0  0  0
   29.2810   49.1220   -4.0820 N   0  0  0  0  0  0  0  0  0  0  0  0
   28.7720   48.1420   -6.2710 N   0  0  0  0  0  0  0  0  0  0  0  0
   28.1830   48.6650   -7.5140 C   0  0  0  0  0  0  0  0  0  0  0  0
   30.3960   48.1940   -3.8920 C   0  0  1  0  0  0  0  0  0  0  0  0
   31.8520   48.3740   -3.7060 C   0  0  0  0  0  0  0  0  0  0  0  0
   30.1860   46.7470   -3.6180 C   0  0  0  0  0  0  0  0  0  0  0  0
   32.7500   48.6510   -2.7180 C   0  0  0  0  0  0  0  0  0  0  0  0
   32.5220   48.1730   -4.8810 O   0  0  0  0  0  0  0  0  0  0  0  0
   29.5830   45.9410   -2.6210 C   0  0  0  0  0  0  0  0  0  0  0  0
   30.8120   46.1550   -4.7010 C   0  0  0  0  0  0  0  0  0  0  0  0
   28.7450   46.4890   -1.1230 S   0  0  0  0  0  0  0  0  0  0  0  0
   33.8710   48.3040   -4.6830 N   0  0  0  0  0  0  0  0  0  0  0  0
   33.9860   48.5850   -3.3890 C   0  0  0  0  0  0  0  0  0  0  0  0
   29.6540   44.5420   -2.8230 C   0  0  0  0  0  0  0  0  0  0  0  0
   30.8900   44.8270   -4.8950 C   0  0  0  0  0  0  0  0  0  0  0  0
   35.1880   48.7710   -2.8230 O   0  0  0  0  0  0  0  0  0  0  0  0
   28.3170   45.0510   -0.3870 N   0  0  0  0  0  0  0  0  0  0  0  0
   29.7240   47.0630   -0.2200 O   0  0  0  0  0  0  0  0  0  0  0  0
   27.5460   47.2190   -1.4450 O   0  0  0  0  0  0  0  0  0  0  0  0
   31.6020   44.3630   -6.1050 C   0  0  0  0  0  0  0  0  0  0  0  0
   30.3030   43.9880   -3.9520 C   0  0  0  0  0  0  0  0  0  0  0  0
   35.4750   47.8470   -1.7850 C   0  0  0  0  0  0  0  0  0  0  0  0
   31.0960   43.8870   -7.0960 O   0  0  0  0  0  0  0  0  0  0  0  0
   32.9350   44.5580   -6.0200 O   0  0  0  0  0  0  0  0  0  0  0  0
  2  1  1  6
  2  3  1  0
  2  4  1  0
  4  5  1  0
  3  6  1  0
  3  7  1  6
  5  8  1  0
  6  8  1  0
  6  9  1  6
  7 10  1  0
  9 10  1  0
  8 11  1  0
 11 12  1  1
 11 13  1  0
 12 14  2  0
 12 15  1  0
 13 16  2  0
 13 17  1  0
 16 18  1  0
 15 19  1  0
 14 20  1  0
 19 20  2  0
 16 21  1  0
 17 22  2  0
 20 23  1  0
 18 24  1  0
 18 25  2  0
 18 26  2  0
 22 27  1  0
 21 28  2  0
 22 28  1  0
 23 29  1  0
 27 30  2  0
 27 31  1  0
M  END
