mac-x0394-mac-x0283
     RDKit          3D

 21 23  0  0  0  0  0  0  0  0999 V2000
   24.0140   49.7970   -3.7380 Cl  0  0  0  0  0  0  0  0  0  0  0  0
   25.0120   51.1230   -4.1960 C   0  0  0  0  0  0  0  0  0  0  0  0
   25.0790   52.2450   -3.3770 C   0  0  0  0  0  0  0  0  0  0  0  0
   25.7410   51.0600   -5.3830 C   0  0  0  0  0  0  0  0  0  0  0  0
   26.5580   52.1310   -5.7750 C   0  0  0  0  0  0  0  0  0  0  0  0
   25.8860   53.3130   -3.7570 C   0  0  0  0  0  0  0  0  0  0  0  0
   25.9650   54.7060   -2.7440 Cl  0  0  0  0  0  0  0  0  0  0  0  0
   27.3360   52.0350   -7.0720 C   0  0  0  0  0  0  0  0  0  0  0  0
   26.6250   53.2650   -4.9460 C   0  0  0  0  0  0  0  0  0  0  0  0
   27.7650   53.3680   -7.6430 C   0  0  0  0  0  0  0  0  0  0  0  0
   28.9840   53.7390   -7.1400 O   0  0  0  0  0  0  0  0  0  0  0  0
   27.0850   53.9860   -8.4520 O   0  0  0  0  0  0  0  0  0  0  0  0
   29.3360   53.2950   -5.9200 C   0  0  0  0  0  0  0  0  0  0  0  0
   29.6950   54.2260   -5.0260 N   0  0  0  0  0  0  0  0  0  0  0  0
   29.3930   51.9830   -5.4040 C   0  0  0  0  0  0  0  0  0  0  0  0
   29.9980   53.5090   -3.8720 O   0  0  0  0  0  0  0  0  0  0  0  0
   29.8150   52.1770   -4.1030 C   0  0  0  0  0  0  0  0  0  0  0  0
   29.1500   50.6690   -5.8480 C   0  0  0  0  0  0  0  0  0  0  0  0
   30.0150   51.1480   -3.1880 C   0  0  0  0  0  0  0  0  0  0  0  0
   29.3410   49.6130   -4.9540 C   0  0  0  0  0  0  0  0  0  0  0  0
   29.7660   49.8510   -3.6460 C   0  0  0  0  0  0  0  0  0  0  0  0
  1  2  1  0
  2  3  2  0
  2  4  1  0
  4  5  2  0
  3  6  1  0
  6  7  1  0
  5  8  1  0
  5  9  1  0
  6  9  2  0
  8 10  1  0
 10 11  1  0
 10 12  2  0
 11 13  1  0
 13 14  2  0
 13 15  1  0
 14 16  1  0
 15 17  2  0
 16 17  1  0
 15 18  1  0
 17 19  1  0
 18 20  2  0
 19 21  2  0
 20 21  1  0
M  END
