mac-x0373-mac-x0451
     RDKit          3D

 21 23  0  0  0  0  0  0  0  0999 V2000
   31.3680   45.9720   -6.9150 O   0  0  0  0  0  0  0  0  0  0  0  0
   30.5450   46.4100   -5.9270 C   0  0  0  0  0  0  0  0  0  0  0  0
   29.6270   45.7120   -5.5260 O   0  0  0  0  0  0  0  0  0  0  0  0
   30.9050   47.8150   -5.4330 C   0  0  2  0  0  0  0  0  0  0  0  0
   32.1400   47.8670   -4.5330 C   0  0  0  0  0  0  0  0  0  0  0  0
   29.6240   48.5670   -4.9470 C   0  0  1  0  0  0  0  0  0  0  0  0
   32.5370   46.7940   -3.7200 C   0  0  0  0  0  0  0  0  0  0  0  0
   32.9200   49.0360   -4.5170 C   0  0  0  0  0  0  0  0  0  0  0  0
   29.7620   49.4450   -3.7150 C   0  0  0  0  0  0  0  0  0  0  0  0
   28.9530   49.2770   -6.1590 C   0  0  0  0  0  0  0  0  0  0  0  0
   33.6800   46.8880   -2.9210 C   0  0  0  0  0  0  0  0  0  0  0  0
   34.0610   49.1280   -3.7180 C   0  0  0  0  0  0  0  0  0  0  0  0
   29.2020   50.6580   -3.6110 C   0  0  0  0  0  0  0  0  0  0  0  0
   28.9260   50.8140   -6.0880 C   0  0  1  0  0  0  0  0  0  0  0  0
   34.4410   48.0530   -2.9190 C   0  0  0  0  0  0  0  0  0  0  0  0
   28.3910   51.2610   -4.7150 C   0  0  0  0  0  0  0  0  0  0  0  0
   30.3140   51.4280   -6.3400 C   0  0  0  0  0  0  0  0  0  0  0  0
   27.9740   51.5410   -7.4830 S   0  0  0  0  0  0  0  0  0  0  0  0
   29.1600   52.8600   -7.7530 C   0  0  2  0  0  0  0  0  0  0  0  0
   30.1160   52.8360   -6.6830 N   0  0  0  0  0  0  0  0  0  0  0  0
   28.5220   54.1340   -7.6780 N   0  0  0  0  0  0  0  0  0  0  0  0
  1  2  1  0
  2  3  2  0
  4  2  1  1
  4  5  1  0
  4  6  1  0
  5  7  2  0
  5  8  1  0
  6  9  1  1
  6 10  1  0
  7 11  1  0
  8 12  2  0
  9 13  2  0
 14 10  1  1
 11 15  2  0
 12 15  1  0
 13 16  1  0
 14 16  1  0
 14 17  1  0
 14 18  1  0
 18 19  1  0
 17 20  1  0
 19 20  1  0
 19 21  1  1
M  END
