mac-x0206-mac-x0398
     RDKit          3D

 12 12  0  0  0  0  0  0  0  0999 V2000
   30.2530   50.0290   -6.1140 N   0  0  0  0  0  0  0  0  0  0  0  0
   30.1780   50.8090   -4.8520 C   0  0  2  0  0  0  0  0  0  0  0  0
   29.4060   49.9930   -3.7770 C   0  0  0  0  0  0  0  0  0  0  0  0
   29.6250   52.2130   -5.0870 C   0  0  0  0  0  0  0  0  0  0  0  0
   29.4140   50.2370   -2.5750 O   0  0  0  0  0  0  0  0  0  0  0  0
   28.6940   48.9480   -4.2690 O   0  0  0  0  0  0  0  0  0  0  0  0
   30.2090   53.3310   -4.4700 C   0  0  0  0  0  0  0  0  0  0  0  0
   28.5200   52.4410   -5.9240 C   0  0  0  0  0  0  0  0  0  0  0  0
   31.2940   53.1330   -3.6460 O   0  0  0  0  0  0  0  0  0  0  0  0
   29.7210   54.6230   -4.6700 C   0  0  0  0  0  0  0  0  0  0  0  0
   28.0260   53.7300   -6.1310 C   0  0  0  0  0  0  0  0  0  0  0  0
   28.6250   54.8200   -5.5050 C   0  0  0  0  0  0  0  0  0  0  0  0
  2  1  1  6
  2  3  1  0
  2  4  1  0
  3  5  2  0
  3  6  1  0
  4  7  2  0
  4  8  1  0
  7  9  1  0
  7 10  1  0
  8 11  2  0
 10 12  2  0
 11 12  1  0
M  END
