mac-x0179-mac-x0302
     RDKit          3D

 28 30  0  0  0  0  0  0  0  0999 V2000
   31.2340   45.9860   -5.1930 C   0  0  0  0  0  0  0  0  0  0  0  0
   32.6730   45.8280   -4.6500 C   0  0  0  0  0  0  0  0  0  0  0  0
   33.6820   46.0330   -5.3460 O   0  0  0  0  0  0  0  0  0  0  0  0
   30.6310   44.7030   -5.2290 O   0  0  0  0  0  0  0  0  0  0  0  0
   31.0750   46.4790   -6.5050 O   0  0  0  0  0  0  0  0  0  0  0  0
   30.5050   46.9170   -4.1730 C   0  0  0  0  0  0  0  0  0  0  0  0
   32.8220   45.3930   -3.2020 C   0  0  0  0  0  0  0  0  0  0  0  0
   30.1370   48.2290   -4.6950 N   0  0  0  0  0  0  0  0  0  0  0  0
   29.8680   49.2790   -3.8410 C   0  0  0  0  0  0  0  0  0  0  0  0
   34.0590   45.6710   -2.5360 N   0  0  0  0  0  0  0  0  0  0  0  0
   29.9100   49.1650   -2.6180 O   0  0  0  0  0  0  0  0  0  0  0  0
   34.8310   44.7190   -1.9530 C   0  0  0  0  0  0  0  0  0  0  0  0
   34.5950   46.9220   -2.4070 C   0  0  0  0  0  0  0  0  0  0  0  0
   29.5200   50.5730   -4.4800 C   0  0  0  0  0  0  0  0  0  0  0  0
   34.6050   43.5300   -1.8360 O   0  0  0  0  0  0  0  0  0  0  0  0
   34.1290   47.9910   -2.7470 O   0  0  0  0  0  0  0  0  0  0  0  0
   36.0330   45.3940   -1.4810 C   0  0  0  0  0  0  0  0  0  0  0  0
   35.8920   46.7440   -1.7590 C   0  0  0  0  0  0  0  0  0  0  0  0
   29.6970   51.7940   -3.8200 C   0  0  0  0  0  0  0  0  0  0  0  0
   29.0050   50.5460   -5.7840 C   0  0  0  0  0  0  0  0  0  0  0  0
   37.1570   44.8890   -0.8640 C   0  0  0  0  0  0  0  0  0  0  0  0
   36.8680   47.6650   -1.4350 C   0  0  0  0  0  0  0  0  0  0  0  0
   29.3550   52.9720   -4.4730 C   0  0  0  0  0  0  0  0  0  0  0  0
   28.6660   51.7380   -6.4250 C   0  0  0  0  0  0  0  0  0  0  0  0
   29.5100   54.1870   -3.8720 O   0  0  0  0  0  0  0  0  0  0  0  0
   38.1620   45.8010   -0.5240 C   0  0  0  0  0  0  0  0  0  0  0  0
   38.0170   47.1760   -0.8090 C   0  0  0  0  0  0  0  0  0  0  0  0
   28.8410   52.9550   -5.7680 C   0  0  0  0  0  0  0  0  0  0  0  0
  1  2  1  0
  2  3  2  0
  1  4  1  0
  1  5  1  0
  1  6  1  0
  2  7  1  0
  6  8  1  0
  8  9  1  0
  7 10  1  0
  9 11  2  0
 10 12  1  0
 10 13  1  0
  9 14  1  0
 12 15  2  0
 13 16  2  0
 12 17  1  0
 13 18  1  0
 17 18  2  0
 14 19  2  0
 14 20  1  0
 17 21  1  0
 18 22  1  0
 19 23  1  0
 20 24  2  0
 23 25  1  0
 21 26  2  0
 22 27  2  0
 26 27  1  0
 23 28  2  0
 24 28  1  0
M  END
