mac-x0415-mac-x0138
     RDKit          3D

 26 29  0  0  0  0  0  0  0  0999 V2000
   33.6990   45.7650   -6.2620 O   0  0  0  0  0  0  0  0  0  0  0  0
   32.6160   45.0600   -5.8650 C   0  0  0  0  0  0  0  0  0  0  0  0
   31.7880   44.6820   -6.6790 O   0  0  0  0  0  0  0  0  0  0  0  0
   32.5850   44.8280   -4.3760 C   0  0  0  0  0  0  0  0  0  0  0  0
   31.1870   44.8190   -3.8750 C   0  0  0  0  0  0  0  0  0  0  0  0
   30.3390   43.6180   -3.9400 C   0  0  0  0  0  0  0  0  0  0  0  0
   30.3590   45.6920   -3.2880 C   0  0  0  0  0  0  0  0  0  0  0  0
   29.1310   43.6770   -3.4600 N   0  0  0  0  0  0  0  0  0  0  0  0
   29.0240   45.0680   -2.9920 C   0  0  1  0  0  0  0  0  0  0  0  0
   30.4870   47.0820   -2.8710 C   0  0  0  0  0  0  0  0  0  0  0  0
   31.2300   48.0550   -3.7520 C   0  0  0  0  0  0  0  0  0  0  0  0
   28.7590   45.2180   -1.5310 C   0  0  0  0  0  0  0  0  0  0  0  0
   29.9040   47.3820   -1.6740 C   0  0  0  0  0  0  0  0  0  0  0  0
   29.9160   49.0730   -0.8610 Br  0  0  0  0  0  0  0  0  0  0  0  0
   29.1940   46.3390   -0.9150 C   0  0  0  0  0  0  0  0  0  0  0  0
   30.4640   49.1090   -4.4200 N   0  0  0  0  0  0  0  0  0  0  0  0
   30.2210   50.3250   -3.8310 C   0  0  0  0  0  0  0  0  0  0  0  0
   29.8690   49.1380   -5.6610 C   0  0  0  0  0  0  0  0  0  0  0  0
   29.5190   51.1260   -4.6020 N   0  0  0  0  0  0  0  0  0  0  0  0
   29.2940   50.3970   -5.7470 C   0  0  0  0  0  0  0  0  0  0  0  0
   29.8270   48.1890   -6.6090 N   0  0  0  0  0  0  0  0  0  0  0  0
   28.6130   50.6930   -6.9370 C   0  0  0  0  0  0  0  0  0  0  0  0
   29.1540   48.5710   -7.7030 C   0  0  0  0  0  0  0  0  0  0  0  0
   27.9890   51.9180   -7.1650 N   0  0  0  0  0  0  0  0  0  0  0  0
   29.0630   47.6500   -8.7290 N   0  0  0  0  0  0  0  0  0  0  0  0
   28.5580   49.7560   -7.9080 N   0  0  0  0  0  0  0  0  0  0  0  0
  1  2  1  0
  2  3  2  0
  2  4  1  0
  4  5  1  0
  5  6  1  0
  5  7  2  0
  6  8  2  0
  7  9  1  0
  8  9  1  0
  7 10  1  0
 10 11  1  0
  9 12  1  1
 10 13  2  0
 13 14  1  0
 12 15  2  0
 13 15  1  0
 11 16  1  0
 16 17  1  0
 16 18  1  0
 17 19  2  0
 18 20  2  0
 19 20  1  0
 18 21  1  0
 20 22  1  0
 21 23  2  0
 22 24  1  0
 23 25  1  0
 22 26  2  0
 23 26  1  0
M  END
