mac-x0404-mac-x0371
     RDKit          3D

 23 25  0  0  0  0  0  0  0  0999 V2000
   32.2820   44.2050   -6.5820 O   0  0  0  0  0  0  0  0  0  0  0  0
   32.8740   45.4120   -6.0980 C   0  0  2  0  0  0  0  0  0  0  0  0
   34.3710   45.4960   -6.0180 N   0  0  0  0  0  0  0  0  0  0  0  0
   32.2440   45.8660   -4.7490 C   0  0  2  0  0  0  0  0  0  0  0  0
   32.6480   45.2030   -3.5290 O   0  0  0  0  0  0  0  0  0  0  0  0
   34.8020   46.5310   -6.5370 O   0  0  0  0  0  0  0  0  0  0  0  0
   30.7960   45.5290   -4.6470 C   0  0  0  0  0  0  0  0  0  0  0  0
   31.8750   45.8980   -2.6120 C   0  0  0  0  0  0  0  0  0  0  0  0
   29.8790   46.4850   -4.2040 C   0  0  0  0  0  0  0  0  0  0  0  0
   30.3530   44.2390   -4.9740 C   0  0  0  0  0  0  0  0  0  0  0  0
   30.3630   48.0930   -3.7800 Cl  0  0  0  0  0  0  0  0  0  0  0  0
   30.5830   45.5020   -2.1100 C   0  0  0  0  0  0  0  0  0  0  0  0
   32.4610   47.0870   -2.2040 C   0  0  0  0  0  0  0  0  0  0  0  0
   28.5370   46.1490   -4.0850 C   0  0  0  0  0  0  0  0  0  0  0  0
   29.0150   43.9070   -4.8560 C   0  0  0  0  0  0  0  0  0  0  0  0
   29.9440   46.3820   -1.1960 C   0  0  0  0  0  0  0  0  0  0  0  0
   31.8180   47.9220   -1.3090 C   0  0  0  0  0  0  0  0  0  0  0  0
   29.8840   44.3160   -2.4490 C   0  0  0  0  0  0  0  0  0  0  0  0
   28.1050   44.8620   -4.4090 C   0  0  0  0  0  0  0  0  0  0  0  0
   30.5690   47.5710   -0.8110 C   0  0  0  0  0  0  0  0  0  0  0  0
   28.6770   46.0720   -0.6680 C   0  0  0  0  0  0  0  0  0  0  0  0
   28.6200   44.0230   -1.9140 C   0  0  0  0  0  0  0  0  0  0  0  0
   28.0180   44.9000   -1.0260 C   0  0  0  0  0  0  0  0  0  0  0  0
  2  1  1  1
  2  3  1  0
  2  4  1  0
  4  5  1  1
  3  6  2  0
  4  7  1  0
  5  8  1  0
  7  9  2  0
  7 10  1  0
  9 11  1  0
  8 12  1  0
  8 13  2  0
  9 14  1  0
 10 15  2  0
 12 16  2  0
 13 17  1  0
 12 18  1  0
 14 19  2  0
 15 19  1  0
 16 20  1  0
 17 20  2  0
 16 21  1  0
 18 22  2  0
 21 23  2  0
 22 23  1  0
M  END
