mac-x0190-mac-x0565
     RDKit          3D

 23 26  0  0  0  0  0  0  0  0999 V2000
   29.1130   56.6700   -5.4950 O   0  0  0  0  0  0  0  0  0  0  0  0
   30.0850   55.6960   -5.1130 C   0  0  0  0  0  0  0  0  0  0  0  0
   29.4630   54.3730   -5.4010 C   0  0  0  0  0  0  0  0  0  0  0  0
   29.4590   53.2770   -4.5490 N   0  0  0  0  0  0  0  0  0  0  0  0
   28.8330   54.0840   -6.5240 N   0  0  0  0  0  0  0  0  0  0  0  0
   30.0360   53.1300   -3.2230 C   0  0  0  0  0  0  0  0  0  0  0  0
   28.7840   52.2620   -5.1690 C   0  0  0  0  0  0  0  0  0  0  0  0
   28.4140   52.7850   -6.3920 C   0  0  0  0  0  0  0  0  0  0  0  0
   29.1460   53.6420   -2.2580 O   0  0  0  0  0  0  0  0  0  0  0  0
   31.2260   53.8790   -3.0680 O   0  0  0  0  0  0  0  0  0  0  0  0
   28.4680   50.9490   -4.7820 C   0  0  0  0  0  0  0  0  0  0  0  0
   27.7020   51.9770   -7.2850 C   0  0  0  0  0  0  0  0  0  0  0  0
   30.2260   51.6240   -2.9980 C   0  0  0  0  0  0  0  0  0  0  0  0
   27.7640   50.1590   -5.6780 C   0  0  0  0  0  0  0  0  0  0  0  0
   27.3840   50.6620   -6.9150 C   0  0  0  0  0  0  0  0  0  0  0  0
   30.5320   50.7570   -4.0790 C   0  0  0  0  0  0  0  0  0  0  0  0
   30.0910   51.0550   -1.7060 C   0  0  0  0  0  0  0  0  0  0  0  0
   30.6740   49.4040   -3.8350 C   0  0  0  0  0  0  0  0  0  0  0  0
   30.2470   49.6790   -1.4910 C   0  0  0  0  0  0  0  0  0  0  0  0
   30.5360   48.8820   -2.5750 C   0  0  0  0  0  0  0  0  0  0  0  0
   30.9560   48.4400   -4.7580 O   0  0  0  0  0  0  0  0  0  0  0  0
   30.7140   47.5340   -2.5600 O   0  0  0  0  0  0  0  0  0  0  0  0
   30.6770   47.2640   -3.9750 C   0  0  0  0  0  0  0  0  0  0  0  0
  1  2  1  0
  2  3  1  0
  3  4  1  0
  3  5  2  0
  4  6  1  0
  4  7  1  0
  5  8  1  0
  7  8  2  0
  6  9  1  0
  6 10  1  0
  7 11  1  0
  8 12  1  0
  6 13  1  0
 11 14  2  0
 12 15  2  0
 14 15  1  0
 13 16  2  0
 13 17  1  0
 16 18  1  0
 17 19  2  0
 18 20  2  0
 19 20  1  0
 18 21  1  0
 20 22  1  0
 21 23  1  0
 22 23  1  0
M  END
