mac-x0305-mac-x0397
     RDKit          3D

 16 17  0  0  0  0  0  0  0  0999 V2000
   31.1560   47.6230   -7.1690 O   0  0  0  0  0  0  0  0  0  0  0  0
   30.2780   47.2930   -6.1880 C   0  0  0  0  0  0  0  0  0  0  0  0
   30.1480   46.1360   -5.8150 O   0  0  0  0  0  0  0  0  0  0  0  0
   29.4940   48.4910   -5.6280 C   0  0  2  0  0  0  0  0  0  0  0  0
   29.6450   49.7210   -6.5430 C   0  0  1  0  0  0  0  0  0  0  0  0
   29.9890   48.8730   -4.2900 N   0  0  0  0  0  0  0  0  0  0  0  0
   29.0160   49.4530   -7.8150 O   0  0  0  0  0  0  0  0  0  0  0  0
   28.9800   50.9730   -5.9030 C   0  0  1  0  0  0  0  0  0  0  0  0
   29.0860   49.7930   -3.6170 C   0  0  1  0  0  0  0  0  0  0  0  0
   30.1290   50.7780   -2.5660 Cl  0  0  0  0  0  0  0  0  0  0  0  0
   28.2570   50.6790   -4.5550 C   0  0  0  0  0  0  0  0  0  0  0  0
   29.9460   52.1730   -5.7970 C   0  0  0  0  0  0  0  0  0  0  0  0
   27.7120   51.6610   -7.0590 S   0  0  0  0  0  0  0  0  0  0  0  0
   28.1850   53.3710   -6.7640 C   0  0  1  0  0  0  0  0  0  0  0  0
   29.1280   53.3870   -5.6800 N   0  0  0  0  0  0  0  0  0  0  0  0
   28.9120   53.8870   -7.8760 N   0  0  0  0  0  0  0  0  0  0  0  0
  1  2  1  0
  2  3  2  0
  4  2  1  6
  4  5  1  0
  4  6  1  0
  5  7  1  6
  5  8  1  0
  6  9  1  0
  9 10  1  1
  8 11  1  1
  9 11  1  0
  8 12  1  0
  8 13  1  0
 13 14  1  0
 12 15  1  0
 14 15  1  0
 14 16  1  6
M  END
