mac-x0522-mac-x0344
     RDKit          3D

 28 30  0  0  0  0  0  0  0  0999 V2000
   38.3640   41.8860    0.0010 O   0  0  0  0  0  0  0  0  0  0  0  0
   38.7320   40.8220   -0.4970 C   0  0  0  0  0  0  0  0  0  0  0  0
   39.2970   40.8050   -1.7470 N   0  0  0  0  0  0  0  0  0  0  0  0
   38.5440   39.5880    0.2980 C   0  0  0  0  0  0  0  0  0  0  0  0
   39.4400   41.7910   -2.6910 C   0  0  0  0  0  0  0  0  0  0  0  0
   39.3590   38.4700    0.0890 C   0  0  0  0  0  0  0  0  0  0  0  0
   37.5330   39.5570    1.2660 C   0  0  0  0  0  0  0  0  0  0  0  0
   39.9520   41.5240   -3.8720 N   0  0  0  0  0  0  0  0  0  0  0  0
   38.9810   43.4110   -2.4390 S   0  0  0  0  0  0  0  0  0  0  0  0
   39.1610   37.3170    0.8540 C   0  0  0  0  0  0  0  0  0  0  0  0
   37.3400   38.4010    2.0260 C   0  0  0  0  0  0  0  0  0  0  0  0
   39.5000   43.8120   -4.0230 C   0  0  0  0  0  0  0  0  0  0  0  0
   39.9880   42.6750   -4.6350 C   0  0  0  0  0  0  0  0  0  0  0  0
   38.1520   37.2860    1.8190 C   0  0  0  0  0  0  0  0  0  0  0  0
   39.3920   45.2060   -4.5590 C   0  0  0  0  0  0  0  0  0  0  0  0
   39.2520   46.2630   -3.4540 C   0  0  0  0  0  0  0  0  0  0  0  0
   37.8350   46.7550   -3.2520 C   0  0  0  0  0  0  0  0  0  0  0  0
   36.7410   45.9960   -3.7030 C   0  0  0  0  0  0  0  0  0  0  0  0
   37.6020   47.9770   -2.6090 C   0  0  0  0  0  0  0  0  0  0  0  0
   35.4300   46.4470   -3.5170 C   0  0  0  0  0  0  0  0  0  0  0  0
   36.2990   48.4320   -2.4210 C   0  0  0  0  0  0  0  0  0  0  0  0
   34.2900   45.7400   -3.9430 N   0  0  0  0  0  0  0  0  0  0  0  0
   35.2210   47.6730   -2.8730 C   0  0  0  0  0  0  0  0  0  0  0  0
   33.7080   45.7420   -5.1920 C   0  0  0  0  0  0  0  0  0  0  0  0
   32.3580   44.9990   -5.2260 C   0  0  0  0  0  0  0  0  0  0  0  0
   34.0900   46.2310   -6.2490 O   0  0  0  0  0  0  0  0  0  0  0  0
   32.3130   44.0260   -4.2980 O   0  0  0  0  0  0  0  0  0  0  0  0
   31.4740   45.2890   -6.0110 O   0  0  0  0  0  0  0  0  0  0  0  0
  1  2  2  0
  2  3  1  0
  2  4  1  0
  3  5  1  0
  4  6  2  0
  4  7  1  0
  5  8  2  0
  5  9  1  0
  6 10  1  0
  7 11  2  0
  9 12  1  0
  8 13  1  0
 12 13  2  0
 10 14  2  0
 11 14  1  0
 12 15  1  0
 15 16  1  0
 16 17  1  0
 17 18  2  0
 17 19  1  0
 18 20  1  0
 19 21  2  0
 20 22  1  0
 20 23  2  0
 21 23  1  0
 22 24  1  0
 24 25  1  0
 24 26  2  0
 25 27  1  0
 25 28  2  0
M  END
