mac-x0453-mac-x0344
     RDKit          3D

 23 24  0  0  0  0  0  0  0  0999 V2000
   29.5000   54.7780   -6.9100 N   0  0  0  0  0  0  0  0  0  0  0  0
   29.9480   53.5340   -6.2740 C   0  0  0  0  0  0  0  0  0  0  0  0
   28.8070   52.5260   -6.0660 C   0  0  0  0  0  0  0  0  0  0  0  0
   29.2540   51.2810   -5.3730 C   0  0  0  0  0  0  0  0  0  0  0  0
   29.5250   50.0390   -5.9150 C   0  0  0  0  0  0  0  0  0  0  0  0
   29.4550   51.2550   -4.0130 N   0  0  0  0  0  0  0  0  0  0  0  0
   29.8960   49.2570   -4.8550 N   0  0  0  0  0  0  0  0  0  0  0  0
   29.8390   50.0300   -3.7320 C   0  0  0  0  0  0  0  0  0  0  0  0
   30.2860   47.8560   -4.8950 C   0  0  0  0  0  0  0  0  0  0  0  0
   29.3110   46.9580   -5.6580 C   0  0  0  0  0  0  0  0  0  0  0  0
   30.0010   45.6570   -6.0680 C   0  0  0  0  0  0  0  0  0  0  0  0
   31.4430   45.8830   -6.1260 N   0  0  0  0  0  0  0  0  0  0  0  0
   32.2280   45.4090   -5.2290 C   0  0  0  0  0  0  0  0  0  0  0  0
   31.6880   44.6740   -4.2490 O   0  0  0  0  0  0  0  0  0  0  0  0
   33.7500   45.5730   -5.0970 C   0  0  0  0  0  0  0  0  0  0  0  0
   34.4210   45.7400   -6.1000 O   0  0  0  0  0  0  0  0  0  0  0  0
   34.1770   45.5190   -3.7850 N   0  0  0  0  0  0  0  0  0  0  0  0
   35.2620   46.2210   -3.2270 C   0  0  0  0  0  0  0  0  0  0  0  0
   36.2290   45.4770   -2.5440 C   0  0  0  0  0  0  0  0  0  0  0  0
   35.4240   47.6040   -3.3200 C   0  0  0  0  0  0  0  0  0  0  0  0
   37.3350   46.1050   -1.9650 C   0  0  0  0  0  0  0  0  0  0  0  0
   36.5310   48.2340   -2.7410 C   0  0  0  0  0  0  0  0  0  0  0  0
   37.4860   47.4860   -2.0650 C   0  0  0  0  0  0  0  0  0  0  0  0
  1  2  1  0
  2  3  1  0
  3  4  1  0
  4  5  2  0
  4  6  1  0
  5  7  1  0
  6  8  2  0
  7  8  1  0
  7  9  1  0
  9 10  1  0
 10 11  1  0
 11 12  1  0
 12 13  2  3
 13 14  1  0
 13 15  1  0
 15 16  2  0
 15 17  1  0
 17 18  1  0
 18 19  2  0
 18 20  1  0
 19 21  1  0
 20 22  2  0
 21 23  2  0
 22 23  1  0
M  END
