mac-x0439-mac-x0451
     RDKit          3D

 24 27  0  0  0  0  0  0  0  0999 V2000
   29.1180   48.4560   -2.7680 Cl  0  0  0  0  0  0  0  0  0  0  0  0
   28.9850   46.7510   -2.5930 C   0  0  0  0  0  0  0  0  0  0  0  0
   30.0370   45.8480   -3.1830 C   0  0  2  0  0  0  0  0  0  0  0  0
   27.9410   46.2270   -1.9210 C   0  0  0  0  0  0  0  0  0  0  0  0
   30.6430   46.0510   -4.5400 C   0  0  0  0  0  0  0  0  0  0  0  0
   29.2870   44.5720   -3.5690 C   0  0  0  0  0  0  0  0  0  0  0  0
   27.8040   44.7910   -1.7500 C   0  0  0  0  0  0  0  0  0  0  0  0
   31.4780   47.1060   -4.8420 O   0  0  0  0  0  0  0  0  0  0  0  0
   30.2660   45.0590   -5.3710 C   0  0  0  0  0  0  0  0  0  0  0  0
   29.4210   44.1320   -4.7840 N   0  0  0  0  0  0  0  0  0  0  0  0
   28.4530   43.9250   -2.5430 C   0  0  0  0  0  0  0  0  0  0  0  0
   30.6710   44.8910   -6.7950 C   0  0  0  0  0  0  0  0  0  0  0  0
   30.9310   48.3440   -5.1240 C   0  0  0  0  0  0  0  0  0  0  0  0
   29.5670   44.6590   -7.5520 O   0  0  0  0  0  0  0  0  0  0  0  0
   31.8030   44.9440   -7.2420 O   0  0  0  0  0  0  0  0  0  0  0  0
   31.2950   49.3940   -4.2880 C   0  0  0  0  0  0  0  0  0  0  0  0
   30.0520   48.5480   -6.1980 C   0  0  0  0  0  0  0  0  0  0  0  0
   29.5540   49.8490   -6.4000 C   0  0  0  0  0  0  0  0  0  0  0  0
   30.7900   50.6810   -4.5030 C   0  0  0  0  0  0  0  0  0  0  0  0
   29.9050   50.9180   -5.5760 C   0  0  0  0  0  0  0  0  0  0  0  0
   28.4730   50.4210   -7.6160 S   0  0  0  0  0  0  0  0  0  0  0  0
   28.5650   52.0000   -6.9550 C   0  0  0  0  0  0  0  0  0  0  0  0
   29.3340   52.1360   -5.9050 N   0  0  0  0  0  0  0  0  0  0  0  0
   27.8820   53.0240   -7.4990 N   0  0  0  0  0  0  0  0  0  0  0  0
  1  2  1  0
  3  2  1  6
  2  4  2  0
  3  5  1  0
  3  6  1  0
  4  7  1  0
  5  8  1  0
  5  9  2  0
  6 10  2  0
  9 10  1  0
  6 11  1  0
  7 11  2  0
  9 12  1  0
  8 13  1  0
 12 14  1  0
 12 15  2  0
 13 16  2  0
 13 17  1  0
 17 18  2  0
 16 19  1  0
 18 20  1  0
 19 20  2  0
 18 21  1  0
 21 22  1  0
 20 23  1  0
 22 23  2  0
 22 24  1  0
M  END
