mac-x0510-mac-x0182
     RDKit          3D

 25 28  0  0  0  0  0  0  0  0999 V2000
   28.8790   53.1700   -5.7580 O   0  0  0  0  0  0  0  0  0  0  0  0
   28.8990   51.9460   -5.8700 C   0  0  0  0  0  0  0  0  0  0  0  0
   29.0960   51.1260   -4.7800 N   0  0  0  0  0  0  0  0  0  0  0  0
   28.7300   51.3200   -7.0780 N   0  0  0  0  0  0  0  0  0  0  0  0
   28.8140   49.9600   -7.1610 C   0  0  0  0  0  0  0  0  0  0  0  0
   29.4930   49.8040   -4.8320 C   0  0  0  0  0  0  0  0  0  0  0  0
   30.0670   49.3480   -3.7860 N   0  0  0  0  0  0  0  0  0  0  0  0
   29.1820   49.1960   -6.0850 C   0  0  0  0  0  0  0  0  0  0  0  0
   28.5560   49.2310   -8.2710 N   0  0  0  0  0  0  0  0  0  0  0  0
   30.5760   47.9870   -3.6420 C   0  0  0  0  0  0  0  0  0  0  0  0
   29.1450   47.9180   -6.5670 N   0  0  0  0  0  0  0  0  0  0  0  0
   28.7640   47.9900   -7.8860 C   0  0  0  0  0  0  0  0  0  0  0  0
   31.7690   47.7420   -4.5920 C   0  0  0  0  0  0  0  0  0  0  0  0
   33.0530   47.5590   -3.8740 N   0  0  0  0  0  0  0  0  0  0  0  0
   34.1170   46.6600   -4.4930 S   0  0  2  0  0  0  0  0  0  0  0  0
   34.4860   46.6030   -5.8900 O   0  0  0  0  0  0  0  0  0  0  0  0
   33.6210   45.1050   -4.0950 N   0  0  0  0  0  0  0  0  0  0  0  0
   35.5520   46.6360   -3.5270 C   0  0  0  0  0  0  0  0  0  0  0  0
   34.5080   44.5020   -3.2330 C   0  0  0  0  0  0  0  0  0  0  0  0
   35.6440   45.4030   -2.8970 C   0  0  0  0  0  0  0  0  0  0  0  0
   36.4920   47.6390   -3.3670 C   0  0  0  0  0  0  0  0  0  0  0  0
   34.3960   43.3720   -2.7860 O   0  0  0  0  0  0  0  0  0  0  0  0
   37.5710   47.3630   -2.5240 C   0  0  0  0  0  0  0  0  0  0  0  0
   36.7120   45.1220   -2.0580 C   0  0  0  0  0  0  0  0  0  0  0  0
   37.6830   46.1180   -1.8770 C   0  0  0  0  0  0  0  0  0  0  0  0
  1  2  2  0
  2  3  1  0
  2  4  1  0
  4  5  1  0
  3  6  1  0
  6  7  2  3
  5  8  2  0
  6  8  1  0
  5  9  1  0
  7 10  1  0
  8 11  1  0
  9 12  2  0
 11 12  1  0
 10 13  1  0
 13 14  1  0
 14 15  2  0
 15 16  2  0
 15 17  1  1
 15 18  1  0
 17 19  1  0
 18 20  2  0
 19 20  1  0
 18 21  1  0
 19 22  2  0
 21 23  2  0
 20 24  1  0
 23 25  1  0
 24 25  2  0
M  END
