mac-x0360-mac-x0115
     RDKit          3D

 28 30  0  0  0  0  0  0  0  0999 V2000
   32.2450   55.2750   -7.0780 Cl  0  0  0  0  0  0  0  0  0  0  0  0
   32.3050   53.6850   -6.4210 C   0  0  0  0  0  0  0  0  0  0  0  0
   33.5330   53.0870   -6.1470 C   0  0  0  0  0  0  0  0  0  0  0  0
   31.1210   53.0090   -6.1700 C   0  0  0  0  0  0  0  0  0  0  0  0
   31.1620   51.7190   -5.6370 C   0  0  0  0  0  0  0  0  0  0  0  0
   33.5660   51.7960   -5.6140 C   0  0  0  0  0  0  0  0  0  0  0  0
   35.0870   51.0690   -5.2750 Cl  0  0  0  0  0  0  0  0  0  0  0  0
   29.6010   50.9450   -5.3430 S   0  0  0  0  0  0  0  0  0  0  0  0
   32.3840   51.0970   -5.3530 C   0  0  0  0  0  0  0  0  0  0  0  0
   29.2710   51.0110   -3.9390 O   0  0  0  0  0  0  0  0  0  0  0  0
   28.6960   51.4880   -6.3340 O   0  0  0  0  0  0  0  0  0  0  0  0
   29.6070   49.2640   -5.8170 C   0  0  0  0  0  0  0  0  0  0  0  0
   28.7000   48.9390   -6.6800 N   0  0  0  0  0  0  0  0  0  0  0  0
   30.5410   48.2230   -5.3430 C   0  0  0  0  0  0  0  0  0  0  0  0
   28.9440   47.5200   -6.8940 C   0  0  2  0  0  0  0  0  0  0  0  0
   30.1110   47.1630   -6.0530 C   0  0  0  0  0  0  0  0  0  0  0  0
   30.5530   45.8440   -6.1380 N   0  0  0  0  0  0  0  0  0  0  0  0
   29.2340   47.1480   -8.3200 C   0  0  0  0  0  0  0  0  0  0  0  0
   31.2790   45.2080   -5.0030 C   0  0  0  0  0  0  0  0  0  0  0  0
   28.9790   47.8290   -9.3080 O   0  0  0  0  0  0  0  0  0  0  0  0
   30.2960   45.1490   -7.3400 C   0  0  0  0  0  0  0  0  0  0  0  0
   29.8380   45.9110   -8.4050 N   0  0  0  0  0  0  0  0  0  0  0  0
   30.3390   44.3870   -4.1120 C   0  0  0  0  0  0  0  0  0  0  0  0
   30.4890   43.5100   -7.6210 S   0  0  0  0  0  0  0  0  0  0  0  0
   29.8310   45.2500   -3.0920 O   0  0  0  0  0  0  0  0  0  0  0  0
   28.8810   44.6510   -2.2090 C   0  0  0  0  0  0  0  0  0  0  0  0
   27.9550   45.7700   -1.7470 C   0  0  0  0  0  0  0  0  0  0  0  0
   28.0860   43.5650   -2.9260 C   0  0  0  0  0  0  0  0  0  0  0  0
  1  2  1  0
  2  3  2  0
  2  4  1  0
  4  5  2  0
  3  6  1  0
  6  7  1  0
  8  5  1  0
  5  9  1  0
  6  9  2  0
  8 10  2  0
  8 11  2  0
  8 12  1  0
 12 13  2  0
 12 14  1  0
 15 13  1  6
 14 16  2  0
 15 16  1  0
 16 17  1  0
 15 18  1  0
 17 19  1  0
 18 20  2  0
 17 21  1  0
 18 22  1  0
 21 22  1  0
 19 23  1  0
 21 24  2  0
 23 25  1  0
 25 26  1  0
 26 27  1  0
 26 28  1  0
M  END
