mac-x0344-mac-x0572
     RDKit          3D

 28 30  0  0  0  0  0  0  0  0999 V2000
   31.6830   44.5240   -4.2920 O   0  0  0  0  0  0  0  0  0  0  0  0
   32.1760   45.5070   -5.0620 C   0  0  0  0  0  0  0  0  0  0  0  0
   31.4800   46.3040   -5.7990 N   0  0  0  0  0  0  0  0  0  0  0  0
   33.7000   45.6120   -4.9860 C   0  0  0  0  0  0  0  0  0  0  0  0
   34.2990   45.7360   -6.0450 O   0  0  0  0  0  0  0  0  0  0  0  0
   34.1720   45.5450   -3.6930 N   0  0  0  0  0  0  0  0  0  0  0  0
   30.0270   46.1110   -5.7880 C   0  0  0  0  0  0  0  0  0  0  0  0
   29.3100   47.4460   -6.0030 C   0  0  0  0  0  0  0  0  0  0  0  0
   35.3140   46.1580   -3.1560 C   0  0  0  0  0  0  0  0  0  0  0  0
   29.6760   48.4850   -4.9360 C   0  0  0  0  0  0  0  0  0  0  0  0
   36.3310   45.4580   -2.5030 C   0  0  0  0  0  0  0  0  0  0  0  0
   35.4260   47.5490   -3.2880 C   0  0  0  0  0  0  0  0  0  0  0  0
   37.4410   46.1360   -1.9900 C   0  0  0  0  0  0  0  0  0  0  0  0
   36.5360   48.2270   -2.7760 C   0  0  0  0  0  0  0  0  0  0  0  0
   29.1510   49.8640   -5.2710 C   0  0  0  0  0  0  0  0  0  0  0  0
   37.5430   47.5180   -2.1270 C   0  0  0  0  0  0  0  0  0  0  0  0
   28.4020   50.0300   -6.5050 C   0  0  0  0  0  0  0  0  0  0  0  0
   29.3540   50.9290   -4.4700 C   0  0  0  0  0  0  0  0  0  0  0  0
   28.8320   52.3050   -4.7970 C   0  0  1  0  0  0  0  0  0  0  0  0
   28.0930   51.2290   -7.0120 C   0  0  0  0  0  0  0  0  0  0  0  0
   29.7400   53.4250   -4.3290 C   0  0  0  0  0  0  0  0  0  0  0  0
   28.5340   52.4430   -6.2810 C   0  0  0  0  0  0  0  0  0  0  0  0
   30.5610   53.2980   -3.4190 O   0  0  0  0  0  0  0  0  0  0  0  0
   29.5850   54.7320   -5.0430 C   0  0  0  0  0  0  0  0  0  0  0  0
   28.6460   53.5580   -6.9410 N   0  0  0  0  0  0  0  0  0  0  0  0
   29.9940   55.8730   -4.3820 O   0  0  0  0  0  0  0  0  0  0  0  0
   29.0540   54.6990   -6.2840 C   0  0  0  0  0  0  0  0  0  0  0  0
   28.8440   55.9450   -7.1120 C   0  0  0  0  0  0  0  0  0  0  0  0
  1  2  1  0
  2  3  2  3
  2  4  1  0
  4  5  2  0
  4  6  1  0
  3  7  1  0
  7  8  1  0
  6  9  1  0
  8 10  1  0
  9 11  2  0
  9 12  1  0
 11 13  1  0
 12 14  2  0
 10 15  1  0
 13 16  2  0
 14 16  1  0
 15 17  1  0
 15 18  2  0
 19 18  1  6
 17 20  2  0
 19 21  1  0
 19 22  1  0
 20 22  1  0
 21 23  2  0
 21 24  1  0
 22 25  2  0
 24 26  1  0
 24 27  2  0
 25 27  1  0
 27 28  1  0
M  END
