mac-x0451-mac-x0301
     RDKit          3D

 17 19  0  0  0  0  0  0  0  0999 V2000
   28.6300   53.9010   -7.9570 N   0  0  0  0  0  0  0  0  0  0  0  0
   28.9400   52.7640   -7.3160 C   0  0  0  0  0  0  0  0  0  0  0  0
   29.3210   52.7280   -6.0580 N   0  0  0  0  0  0  0  0  0  0  0  0
   28.8610   51.2340   -8.1070 S   0  0  0  0  0  0  0  0  0  0  0  0
   29.5640   51.4310   -5.7090 C   0  0  0  0  0  0  0  0  0  0  0  0
   29.3750   50.4630   -6.6740 C   0  0  0  0  0  0  0  0  0  0  0  0
   29.9950   51.0760   -4.4050 C   0  0  0  0  0  0  0  0  0  0  0  0
   29.6030   48.9900   -6.4470 C   0  0  2  0  0  0  0  0  0  0  0  0
   30.5090   49.8530   -4.1690 C   0  0  0  0  0  0  0  0  0  0  0  0
   30.6470   48.8040   -5.2780 C   0  0  1  0  0  0  0  0  0  0  0  0
   30.2050   48.5570   -7.7000 O   0  0  0  0  0  0  0  0  0  0  0  0
   28.3650   48.1030   -6.3170 C   0  0  0  0  0  0  0  0  0  0  0  0
   30.6440   47.4150   -4.6220 C   0  0  0  0  0  0  0  0  0  0  0  0
   28.5950   47.0110   -7.2100 O   0  0  0  0  0  0  0  0  0  0  0  0
   29.2990   47.6230   -8.2710 C   0  0  0  0  0  0  0  0  0  0  0  0
   30.3160   46.3530   -5.3920 O   0  0  0  0  0  0  0  0  0  0  0  0
   30.9350   47.2460   -3.4400 O   0  0  0  0  0  0  0  0  0  0  0  0
  1  2  1  0
  2  3  2  0
  2  4  1  0
  3  5  1  0
  4  6  1  0
  5  6  2  0
  5  7  1  0
  6  8  1  0
  7  9  2  0
  8 10  1  0
  9 10  1  0
  8 11  1  0
  8 12  1  1
 10 13  1  1
 12 14  1  0
 11 15  1  0
 14 15  1  0
 13 16  1  0
 13 17  2  0
M  END
