mac-x0568-mac-x0337
     RDKit          3D

 18 19  0  0  0  0  0  0  0  0999 V2000
   28.9370   56.1510   -5.0000 C   0  0  0  0  0  0  0  0  0  0  0  0
   29.1620   54.6780   -4.9900 C   0  0  0  0  0  0  0  0  0  0  0  0
   28.9720   53.9960   -6.1540 C   0  0  0  0  0  0  0  0  0  0  0  0
   29.5350   54.0310   -3.8970 N   0  0  0  0  0  0  0  0  0  0  0  0
   29.7280   52.7300   -3.9370 C   0  0  0  0  0  0  0  0  0  0  0  0
   29.1790   52.6550   -6.1550 C   0  0  0  0  0  0  0  0  0  0  0  0
   29.5790   51.8970   -5.0430 C   0  0  0  0  0  0  0  0  0  0  0  0
   29.8240   50.3140   -5.0910 S   0  0  0  0  0  0  0  0  0  0  0  0
   29.2220   49.9850   -3.7230 O   0  0  0  0  0  0  0  0  0  0  0  0
   30.2780   48.9470   -5.1730 N   0  0  0  0  0  0  0  0  0  0  0  0
   29.0450   50.1560   -6.5510 N   0  0  0  0  0  0  0  0  0  0  0  0
   31.5810   50.7850   -5.2600 C   0  0  0  0  0  0  0  0  0  0  0  0
   32.5030   49.8470   -4.9950 C   0  0  0  0  0  0  0  0  0  0  0  0
   31.9320   52.0480   -5.6400 C   0  0  0  0  0  0  0  0  0  0  0  0
   33.8430   50.2110   -5.1190 C   0  0  0  0  0  0  0  0  0  0  0  0
   33.2540   52.4100   -5.7620 C   0  0  0  0  0  0  0  0  0  0  0  0
   34.2270   51.4920   -5.5020 C   0  0  0  0  0  0  0  0  0  0  0  0
   35.6900   51.8040   -5.6090 C   0  0  0  0  0  0  0  0  0  0  0  0
  1  2  1  0
  2  3  2  0
  2  4  1  0
  4  5  2  0
  3  6  1  0
  5  7  1  0
  6  7  2  0
  7  8  1  0
  8  9  2  0
  8 10  1  0
  8 11  1  0
  8 12  1  0
 12 13  2  0
 12 14  1  0
 13 15  1  0
 14 16  2  0
 15 17  2  0
 16 17  1  0
 17 18  1  0
M  END
