mac-x0116-mac-x0379
     RDKit          3D

 19 21  0  0  0  0  0  0  0  0999 V2000
   29.4240   53.2660   -6.2260 C   0  0  0  0  0  0  0  0  0  0  0  0
   29.0290   51.9800   -6.7810 N   0  0  0  0  0  0  0  0  0  0  0  0
   29.2760   50.7620   -6.1630 C   0  0  0  0  0  0  0  0  0  0  0  0
   30.6560   53.8480   -6.8300 C   0  0  0  0  0  0  0  0  0  0  0  0
   31.8210   53.6840   -6.1330 O   0  0  0  0  0  0  0  0  0  0  0  0
   30.8970   54.5520   -7.9940 C   0  0  0  0  0  0  0  0  0  0  0  0
   32.2860   54.8330   -8.0100 C   0  0  0  0  0  0  0  0  0  0  0  0
   32.8000   54.2860   -6.8590 C   0  0  0  0  0  0  0  0  0  0  0  0
   29.5130   50.6820   -4.8010 N   0  0  0  0  0  0  0  0  0  0  0  0
   29.2830   49.6400   -6.9060 C   0  0  0  0  0  0  0  0  0  0  0  0
   29.7430   49.5200   -4.2650 C   0  0  0  0  0  0  0  0  0  0  0  0
   29.5420   48.3720   -6.2560 C   0  0  0  0  0  0  0  0  0  0  0  0
   29.0880   49.3880   -8.2380 N   0  0  0  0  0  0  0  0  0  0  0  0
   29.7750   48.3160   -4.9250 N   0  0  0  0  0  0  0  0  0  0  0  0
   29.5030   47.4090   -7.1330 N   0  0  0  0  0  0  0  0  0  0  0  0
   29.2240   48.0960   -8.3190 C   0  0  0  0  0  0  0  0  0  0  0  0
   30.1250   47.1590   -4.2350 C   0  0  0  0  0  0  0  0  0  0  0  0
   30.8990   47.1220   -3.2860 O   0  0  0  0  0  0  0  0  0  0  0  0
   29.5480   46.0090   -4.6730 O   0  0  0  0  0  0  0  0  0  0  0  0
  1  2  1  0
  2  3  1  0
  1  4  1  0
  4  5  1  0
  4  6  2  0
  6  7  1  0
  5  8  1  0
  7  8  2  0
  3  9  1  0
  3 10  2  0
  9 11  2  0
 10 12  1  0
 10 13  1  0
 11 14  1  0
 12 14  1  0
 12 15  2  0
 13 16  2  0
 15 16  1  0
 14 17  1  0
 17 18  2  0
 17 19  1  0
M  END
