mac-x0576-mac-x0344
     RDKit          3D

 27 29  0  0  0  0  0  0  0  0999 V2000
   28.7720   48.1750   -9.4390 N   0  0  0  0  0  0  0  0  0  0  0  0
   29.4690   48.6740   -8.2880 C   0  0  1  0  0  0  0  0  0  0  0  0
   29.1690   50.0850   -8.3720 N   0  0  0  0  0  0  0  0  0  0  0  0
   29.2270   48.0070   -7.0510 N   0  0  0  0  0  0  0  0  0  0  0  0
   29.6730   48.5790   -5.8750 C   0  0  0  0  0  0  0  0  0  0  0  0
   28.8280   50.5640   -7.0400 C   0  0  1  0  0  0  0  0  0  0  0  0
   30.0050   47.9740   -4.7890 N   0  0  0  0  0  0  0  0  0  0  0  0
   29.7850   50.1160   -5.9050 C   0  0  1  0  0  0  0  0  0  0  0  0
   28.7880   51.9890   -7.0900 N   0  0  0  0  0  0  0  0  0  0  0  0
   29.9250   46.5110   -4.7460 C   0  0  0  0  0  0  0  0  0  0  0  0
   28.5910   52.6930   -5.9170 C   0  0  0  0  0  0  0  0  0  0  0  0
   29.5110   50.7410   -4.5960 N   0  0  0  0  0  0  0  0  0  0  0  0
   27.8130   53.6400   -5.8750 O   0  0  0  0  0  0  0  0  0  0  0  0
   31.1570   45.9300   -5.4560 C   0  0  0  0  0  0  0  0  0  0  0  0
   29.4050   52.2100   -4.6870 C   0  0  0  0  0  0  0  0  0  0  0  0
   31.3320   44.5210   -5.0720 N   0  0  0  0  0  0  0  0  0  0  0  0
   32.5320   44.1770   -4.7440 C   0  0  0  0  0  0  0  0  0  0  0  0
   32.9020   42.9460   -4.3650 O   0  0  0  0  0  0  0  0  0  0  0  0
   33.7000   45.1670   -4.7590 C   0  0  0  0  0  0  0  0  0  0  0  0
   34.1160   45.5270   -5.8520 O   0  0  0  0  0  0  0  0  0  0  0  0
   34.1100   45.5030   -3.4870 N   0  0  0  0  0  0  0  0  0  0  0  0
   35.2550   46.2150   -3.1000 C   0  0  0  0  0  0  0  0  0  0  0  0
   36.2750   45.4940   -2.4650 C   0  0  0  0  0  0  0  0  0  0  0  0
   35.4280   47.5860   -3.3120 C   0  0  0  0  0  0  0  0  0  0  0  0
   37.4450   46.1310   -2.0490 C   0  0  0  0  0  0  0  0  0  0  0  0
   36.6000   48.2230   -2.8960 C   0  0  0  0  0  0  0  0  0  0  0  0
   37.6090   47.4980   -2.2640 C   0  0  0  0  0  0  0  0  0  0  0  0
  2  1  1  6
  2  3  1  0
  2  4  1  0
  4  5  1  0
  6  3  1  6
  5  7  2  3
  5  8  1  0
  6  8  1  0
  6  9  1  0
  7 10  1  0
  9 11  1  0
  8 12  1  1
 11 13  2  0
 10 14  1  0
 11 15  1  0
 12 15  1  0
 14 16  1  0
 16 17  2  3
 17 18  1  0
 17 19  1  0
 19 20  2  0
 19 21  1  0
 21 22  1  0
 22 23  2  0
 22 24  1  0
 23 25  1  0
 24 26  2  0
 25 27  2  0
 26 27  1  0
M  END
