mac-x0137-mac-x0451
     RDKit          3D

 23 26  0  0  0  0  0  0  0  0999 V2000
   30.9310   47.6140   -2.9510 F   0  0  0  0  0  0  0  0  0  0  0  0
   30.2730   46.6040   -3.5910 C   0  0  2  0  0  0  0  0  0  0  0  0
   31.3060   45.7620   -4.3380 C   0  0  0  0  0  0  0  0  0  0  0  0
   29.1740   47.1770   -4.5020 C   0  0  0  0  0  0  0  0  0  0  0  0
   29.7590   47.8610   -5.6730 N   0  0  0  0  0  0  0  0  0  0  0  0
   31.8440   46.5150   -5.5520 C   0  0  0  0  0  0  0  0  0  0  0  0
   30.7100   47.0340   -6.4400 C   0  0  0  0  0  0  0  0  0  0  0  0
   28.7860   48.4200   -6.5150 C   0  0  0  0  0  0  0  0  0  0  0  0
   28.0030   47.5930   -7.2420 N   0  0  0  0  0  0  0  0  0  0  0  0
   28.6230   49.7850   -6.6090 C   0  0  0  0  0  0  0  0  0  0  0  0
   27.0770   48.1540   -8.0430 C   0  0  0  0  0  0  0  0  0  0  0  0
   27.6370   50.2480   -7.4670 C   0  0  0  0  0  0  0  0  0  0  0  0
   29.3150   50.9510   -5.9520 C   0  0  1  0  0  0  0  0  0  0  0  0
   26.8420   49.4600   -8.2010 N   0  0  0  0  0  0  0  0  0  0  0  0
   27.5580   51.6880   -7.4810 N   0  0  0  0  0  0  0  0  0  0  0  0
   28.2330   52.0500   -6.2170 C   0  0  0  0  0  0  0  0  0  0  0  0
   29.4900   50.7590   -4.4440 C   0  0  0  0  0  0  0  0  0  0  0  0
   30.6310   51.3530   -6.6020 C   0  0  0  0  0  0  0  0  0  0  0  0
   27.8670   52.3530   -8.6860 N   0  0  0  0  0  0  0  0  0  0  0  0
   30.5270   51.2770   -3.7630 C   0  0  0  0  0  0  0  0  0  0  0  0
   31.6590   51.8670   -5.9030 C   0  0  0  0  0  0  0  0  0  0  0  0
   31.6130   52.0930   -4.4190 C   0  0  2  0  0  0  0  0  0  0  0  0
   32.8160   51.7820   -3.8610 F   0  0  0  0  0  0  0  0  0  0  0  0
  2  1  1  6
  2  3  1  0
  2  4  1  0
  4  5  1  0
  3  6  1  0
  5  7  1  0
  6  7  1  0
  5  8  1  0
  8  9  2  0
  8 10  1  0
  9 11  1  0
 10 12  2  0
 10 13  1  0
 11 14  2  0
 12 14  1  0
 12 15  1  0
 13 16  1  1
 15 16  1  0
 13 17  1  0
 13 18  1  0
 15 19  1  0
 17 20  2  0
 18 21  2  0
 20 22  1  0
 21 22  1  0
 22 23  1  1
M  END
