mac-x0402-mac-x0375
     RDKit          3D

 25 27  0  0  0  0  0  0  0  0999 V2000
   30.0400   48.0590   -2.7320 Cl  0  0  0  0  0  0  0  0  0  0  0  0
   29.7790   49.5100   -3.6410 C   0  0  0  0  0  0  0  0  0  0  0  0
   29.5840   50.6770   -2.9060 C   0  0  0  0  0  0  0  0  0  0  0  0
   29.7670   49.5060   -5.0590 C   0  0  0  0  0  0  0  0  0  0  0  0
   29.9790   48.2390   -5.8590 C   0  0  0  0  0  0  0  0  0  0  0  0
   29.5420   50.7650   -5.6780 C   0  0  0  0  0  0  0  0  0  0  0  0
   29.3670   51.8950   -3.5480 C   0  0  0  0  0  0  0  0  0  0  0  0
   31.4300   47.7450   -5.7850 C   0  0  0  0  0  0  0  0  0  0  0  0
   29.3440   51.9440   -4.9550 C   0  0  0  0  0  0  0  0  0  0  0  0
   29.4540   51.1650   -7.3620 S   0  0  0  0  0  0  0  0  0  0  0  0
   31.8310   46.9790   -7.0440 C   0  0  0  0  0  0  0  0  0  0  0  0
   29.1730   52.8050   -6.9780 C   0  0  0  0  0  0  0  0  0  0  0  0
   29.1370   53.0890   -5.7040 N   0  0  0  0  0  0  0  0  0  0  0  0
   29.0030   53.7310   -7.9370 N   0  0  0  0  0  0  0  0  0  0  0  0
   31.7400   45.5740   -6.7810 O   0  0  0  0  0  0  0  0  0  0  0  0
   32.9280   44.9400   -6.5750 C   0  0  0  0  0  0  0  0  0  0  0  0
   33.6680   44.5260   -7.4610 O   0  0  0  0  0  0  0  0  0  0  0  0
   33.2350   44.8040   -5.0850 C   0  0  0  0  0  0  0  0  0  0  0  0
   34.6050   44.7570   -4.7060 O   0  0  0  0  0  0  0  0  0  0  0  0
   35.1510   45.8550   -4.0960 C   0  0  0  0  0  0  0  0  0  0  0  0
   36.4250   45.6380   -3.5570 C   0  0  0  0  0  0  0  0  0  0  0  0
   34.5680   47.1190   -3.9720 C   0  0  0  0  0  0  0  0  0  0  0  0
   37.1080   46.6650   -2.9050 C   0  0  0  0  0  0  0  0  0  0  0  0
   35.2530   48.1480   -3.3180 C   0  0  0  0  0  0  0  0  0  0  0  0
   36.5220   47.9210   -2.7840 C   0  0  0  0  0  0  0  0  0  0  0  0
  1  2  1  0
  2  3  2  0
  2  4  1  0
  4  5  1  0
  4  6  2  0
  3  7  1  0
  5  8  1  0
  6  9  1  0
  7  9  2  0
  6 10  1  0
  8 11  1  0
 10 12  1  0
  9 13  1  0
 12 13  2  0
 12 14  1  0
 11 15  1  0
 15 16  1  0
 16 17  2  0
 16 18  1  0
 18 19  1  0
 19 20  1  0
 20 21  2  0
 20 22  1  0
 21 23  1  0
 22 24  2  0
 23 25  2  0
 24 25  1  0
M  END
