mac-x0206-mac-x0204
     RDKit          3D

 21 22  0  0  0  0  0  0  0  0999 V2000
   29.1720   49.7700   -5.9720 N   0  0  0  0  0  0  0  0  0  0  0  0
   29.2050   50.5160   -4.8220 C   0  0  0  0  0  0  0  0  0  0  0  0
   29.1920   49.9850   -3.6260 N   0  0  0  0  0  0  0  0  0  0  0  0
   29.2290   52.0260   -5.0470 C   0  0  0  0  0  0  0  0  0  0  0  0
   29.1080   48.4900   -3.4660 C   0  0  0  0  0  0  0  0  0  0  0  0
   29.7520   52.9840   -4.1540 C   0  0  0  0  0  0  0  0  0  0  0  0
   28.6730   52.4840   -6.2580 C   0  0  0  0  0  0  0  0  0  0  0  0
   30.3060   52.6090   -2.9660 O   0  0  0  0  0  0  0  0  0  0  0  0
   29.7140   54.3510   -4.4700 C   0  0  0  0  0  0  0  0  0  0  0  0
   28.6380   53.8500   -6.5670 C   0  0  0  0  0  0  0  0  0  0  0  0
   30.4570   47.8640   -3.1530 C   0  0  0  0  0  0  0  0  0  0  0  0
   29.1570   54.7810   -5.6750 C   0  0  0  0  0  0  0  0  0  0  0  0
   31.1690   47.0290   -4.0530 C   0  0  0  0  0  0  0  0  0  0  0  0
   31.0500   48.1160   -1.9110 C   0  0  0  0  0  0  0  0  0  0  0  0
   30.7530   46.5620   -5.4010 C   0  0  0  0  0  0  0  0  0  0  0  0
   30.3900   48.8750   -0.9910 O   0  0  0  0  0  0  0  0  0  0  0  0
   32.3000   47.6000   -1.6140 C   0  0  0  0  0  0  0  0  0  0  0  0
   32.4200   46.5650   -3.6550 C   0  0  0  0  0  0  0  0  0  0  0  0
   31.6590   46.6590   -6.3880 O   0  0  0  0  0  0  0  0  0  0  0  0
   29.6380   46.0840   -5.5850 O   0  0  0  0  0  0  0  0  0  0  0  0
   33.0030   46.8400   -2.4650 N   0  0  0  0  0  0  0  0  0  0  0  0
  1  2  1  0
  2  3  2  3
  2  4  1  0
  3  5  1  0
  4  6  2  0
  4  7  1  0
  6  8  1  0
  6  9  1  0
  7 10  2  0
  5 11  1  0
  9 12  2  0
 10 12  1  0
 11 13  2  0
 11 14  1  0
 13 15  1  0
 14 16  1  0
 14 17  2  0
 13 18  1  0
 15 19  1  0
 15 20  2  0
 17 21  1  0
 18 21  2  0
M  END
