mac-x0397-mac-x0387
     RDKit          3D

 17 19  0  0  0  0  0  0  0  0999 V2000
   29.2980   52.3830   -2.4380 Cl  0  0  0  0  0  0  0  0  0  0  0  0
   30.0000   51.3570   -3.7200 C   0  0  2  0  0  0  0  0  0  0  0  0
   29.6380   51.9170   -5.0670 C   0  0  0  0  0  0  0  0  0  0  0  0
   29.4640   49.9530   -3.5540 C   0  0  0  0  0  0  0  0  0  0  0  0
   29.6630   53.2800   -5.3300 N   0  0  0  0  0  0  0  0  0  0  0  0
   29.2540   51.1190   -6.1340 C   0  0  0  0  0  0  0  0  0  0  0  0
   29.0870   49.1660   -4.5840 C   0  0  0  0  0  0  0  0  0  0  0  0
   29.3030   53.4990   -6.5710 C   0  0  0  0  0  0  0  0  0  0  0  0
   28.9180   52.0990   -7.4920 S   0  0  0  0  0  0  0  0  0  0  0  0
   29.1530   49.5910   -6.0710 C   0  0  1  0  0  0  0  0  0  0  0  0
   29.2340   54.7270   -7.1070 N   0  0  0  0  0  0  0  0  0  0  0  0
   27.8320   49.0770   -6.8520 C   0  0  1  0  0  0  0  0  0  0  0  0
   30.3980   48.9110   -6.6500 C   0  0  0  0  0  0  0  0  0  0  0  0
   26.7040   49.9980   -6.8460 N   0  0  0  0  0  0  0  0  0  0  0  0
   30.3460   48.1090   -7.7260 C   0  0  0  0  0  0  0  0  0  0  0  0
   28.0550   48.8270   -8.2690 N   0  0  0  0  0  0  0  0  0  0  0  0
   29.0780   47.8050   -8.4610 C   0  0  0  0  0  0  0  0  0  0  0  0
  2  1  1  1
  2  3  1  0
  2  4  1  0
  3  5  1  0
  3  6  2  0
  4  7  2  0
  5  8  2  0
  6  9  1  0
  8  9  1  0
  6 10  1  0
 10  7  1  1
  8 11  1  0
 10 12  1  0
 10 13  1  0
 12 14  1  6
 13 15  2  0
 12 16  1  0
 15 17  1  0
 16 17  1  0
M  END
