mac-x0301-mac-x0590
     RDKit          3D

 19 21  0  0  0  0  0  0  0  0999 V2000
   29.3810   46.0830   -3.8310 O   0  0  0  0  0  0  0  0  0  0  0  0
   30.3410   46.9360   -4.2400 C   0  0  0  0  0  0  0  0  0  0  0  0
   31.5920   46.6880   -4.1580 N   0  0  0  0  0  0  0  0  0  0  0  0
   29.7610   48.1860   -4.7900 C   0  0  0  0  0  0  0  0  0  0  0  0
   32.1040   45.4420   -3.6110 C   0  0  0  0  0  0  0  0  0  0  0  0
   29.3210   48.2740   -6.1020 C   0  0  0  0  0  0  0  0  0  0  0  0
   29.6360   49.3380   -3.9940 C   0  0  0  0  0  0  0  0  0  0  0  0
   28.7830   49.4460   -6.6010 C   0  0  0  0  0  0  0  0  0  0  0  0
   29.0890   50.5270   -4.5090 C   0  0  0  0  0  0  0  0  0  0  0  0
   29.3390   47.2980   -7.0550 O   0  0  0  0  0  0  0  0  0  0  0  0
   33.4600   45.1110   -4.2220 C   0  0  2  0  0  0  0  0  0  0  0  0
   28.6510   50.5970   -5.8350 C   0  0  0  0  0  0  0  0  0  0  0  0
   28.4080   49.3390   -7.9110 O   0  0  0  0  0  0  0  0  0  0  0  0
   28.7840   47.9800   -8.1910 C   0  0  0  0  0  0  0  0  0  0  0  0
   33.5450   45.2530   -5.7350 C   0  0  0  0  0  0  0  0  0  0  0  0
   33.9420   43.6890   -4.0240 C   0  0  0  0  0  0  0  0  0  0  0  0
   28.1060   51.7720   -6.3570 N   0  0  0  0  0  0  0  0  0  0  0  0
   33.3170   42.9910   -5.2150 C   0  0  0  0  0  0  0  0  0  0  0  0
   33.2870   43.9450   -6.2860 O   0  0  0  0  0  0  0  0  0  0  0  0
  1  2  1  0
  2  3  2  3
  2  4  1  0
  3  5  1  0
  4  6  1  0
  4  7  2  0
  6  8  2  0
  7  9  1  0
  6 10  1  0
 11  5  1  6
  8 12  1  0
  9 12  2  0
  8 13  1  0
 10 14  1  0
 13 14  1  0
 11 15  1  0
 11 16  1  0
 12 17  1  0
 16 18  1  0
 15 19  1  0
 18 19  1  0
M  END
