mac-x0397-mac-x0415
     RDKit          3D

 27 30  0  0  0  0  0  0  0  0999 V2000
   30.3850   52.9730   -2.6540 Cl  0  0  0  0  0  0  0  0  0  0  0  0
   30.0590   51.6180   -3.6620 C   0  0  0  0  0  0  0  0  0  0  0  0
   29.4180   51.9370   -4.8840 C   0  0  0  0  0  0  0  0  0  0  0  0
   30.3960   50.2970   -3.3190 C   0  0  0  0  0  0  0  0  0  0  0  0
   29.0340   53.1940   -5.3520 N   0  0  0  0  0  0  0  0  0  0  0  0
   29.1230   50.8820   -5.7520 C   0  0  0  0  0  0  0  0  0  0  0  0
   30.0750   49.2780   -4.2260 C   0  0  0  0  0  0  0  0  0  0  0  0
   31.0860   49.9480   -2.0180 C   0  0  0  0  0  0  0  0  0  0  0  0
   28.4710   53.0950   -6.5270 C   0  0  0  0  0  0  0  0  0  0  0  0
   28.3540   51.5070   -7.1620 S   0  0  0  0  0  0  0  0  0  0  0  0
   29.4390   49.5480   -5.4450 C   0  0  0  0  0  0  0  0  0  0  0  0
   30.1480   49.7420   -0.8180 C   0  0  0  0  0  0  0  0  0  0  0  0
   28.0080   54.1590   -7.2070 N   0  0  0  0  0  0  0  0  0  0  0  0
   30.1860   48.3910   -0.3330 O   0  0  0  0  0  0  0  0  0  0  0  0
   29.9760   47.4540   -1.3230 C   0  0  0  0  0  0  0  0  0  0  0  0
   28.6170   47.3100   -1.8660 C   0  0  0  0  0  0  0  0  0  0  0  0
   30.9780   46.6830   -1.7920 C   0  0  0  0  0  0  0  0  0  0  0  0
   30.6390   45.7390   -2.8150 C   0  0  0  0  0  0  0  0  0  0  0  0
   28.2630   46.1840   -2.5330 C   0  0  0  0  0  0  0  0  0  0  0  0
   31.3080   45.3060   -3.8810 C   0  0  0  0  0  0  0  0  0  0  0  0
   29.2880   45.1090   -2.6920 C   0  0  1  0  0  0  0  0  0  0  0  0
   32.6470   45.6020   -4.4300 C   0  0  0  0  0  0  0  0  0  0  0  0
   30.3250   44.3800   -4.4620 C   0  0  0  0  0  0  0  0  0  0  0  0
   29.1720   44.2220   -3.8660 N   0  0  0  0  0  0  0  0  0  0  0  0
   32.5640   45.6850   -5.9350 C   0  0  0  0  0  0  0  0  0  0  0  0
   33.6230   46.3300   -6.4750 O   0  0  0  0  0  0  0  0  0  0  0  0
   31.6760   45.2410   -6.6490 O   0  0  0  0  0  0  0  0  0  0  0  0
  1  2  1  0
  2  3  2  0
  2  4  1  0
  3  5  1  0
  3  6  1  0
  4  7  2  0
  4  8  1  0
  5  9  2  0
  6 10  1  0
  9 10  1  0
  6 11  2  0
  7 11  1  0
  8 12  1  0
  9 13  1  0
 12 14  1  0
 14 15  1  0
 15 16  1  0
 15 17  2  0
 17 18  1  0
 16 19  2  0
 18 20  2  0
 18 21  1  0
 21 19  1  6
 20 22  1  0
 20 23  1  0
 21 24  1  0
 23 24  2  0
 22 25  1  0
 25 26  1  0
 25 27  2  0
M  END
