mac-x0305-mac-x0404
     RDKit          3D

 24 26  0  0  0  0  0  0  0  0999 V2000
   31.7710   47.0360   -6.6960 O   0  0  0  0  0  0  0  0  0  0  0  0
   30.4240   47.0490   -6.5090 C   0  0  0  0  0  0  0  0  0  0  0  0
   29.6750   46.0880   -6.4780 O   0  0  0  0  0  0  0  0  0  0  0  0
   32.5960   46.6090   -5.6920 C   0  0  0  0  0  0  0  0  0  0  0  0
   33.6560   47.1130   -5.3460 O   0  0  0  0  0  0  0  0  0  0  0  0
   31.9940   45.3570   -5.0410 C   0  0  0  0  0  0  0  0  0  0  0  0
   29.9850   48.4870   -6.3490 C   0  0  0  0  0  0  0  0  0  0  0  0
   30.6980   45.5240   -4.4570 O   0  0  0  0  0  0  0  0  0  0  0  0
   29.0020   49.0510   -7.1710 C   0  0  0  0  0  0  0  0  0  0  0  0
   30.5990   49.2060   -5.3560 N   0  0  0  0  0  0  0  0  0  0  0  0
   28.3840   48.3480   -8.1620 O   0  0  0  0  0  0  0  0  0  0  0  0
   28.6430   50.3840   -6.9660 C   0  0  0  0  0  0  0  0  0  0  0  0
   30.2250   50.4920   -5.1870 C   0  0  0  0  0  0  0  0  0  0  0  0
   30.7570   45.8770   -3.1240 C   0  0  0  0  0  0  0  0  0  0  0  0
   29.2630   51.1170   -5.9580 C   0  0  0  0  0  0  0  0  0  0  0  0
   29.7080   45.5130   -2.2470 C   0  0  0  0  0  0  0  0  0  0  0  0
   31.8650   46.5960   -2.6700 C   0  0  0  0  0  0  0  0  0  0  0  0
   29.8040   45.8980   -0.8880 C   0  0  0  0  0  0  0  0  0  0  0  0
   31.9470   46.9670   -1.3320 C   0  0  0  0  0  0  0  0  0  0  0  0
   28.5720   44.7870   -2.6620 C   0  0  0  0  0  0  0  0  0  0  0  0
   30.9250   46.6210   -0.4480 C   0  0  0  0  0  0  0  0  0  0  0  0
   28.7750   45.5510    0.0040 C   0  0  0  0  0  0  0  0  0  0  0  0
   27.5590   44.4500   -1.7630 C   0  0  0  0  0  0  0  0  0  0  0  0
   27.6610   44.8330   -0.4310 C   0  0  0  0  0  0  0  0  0  0  0  0
  1  2  1  0
  2  3  2  0
  1  4  1  0
  4  5  2  0
  4  6  1  0
  2  7  1  0
  6  8  1  0
  7  9  2  0
  7 10  1  0
  9 11  1  0
  9 12  1  0
 10 13  2  0
  8 14  1  0
 12 15  2  0
 13 15  1  0
 14 16  1  0
 14 17  2  0
 16 18  2  0
 17 19  1  0
 16 20  1  0
 18 21  1  0
 19 21  2  0
 18 22  1  0
 20 23  2  0
 22 24  2  0
 23 24  1  0
M  END
