mac-x0333-mac-x0496
     RDKit          3D

 22 24  0  0  0  0  0  0  0  0999 V2000
   29.1140   49.0310   -4.5220 N   0  0  0  0  0  0  0  0  0  0  0  0
   28.9120   48.4450   -3.3920 C   0  0  0  0  0  0  0  0  0  0  0  0
   29.0030   49.0470   -2.1940 O   0  0  0  0  0  0  0  0  0  0  0  0
   29.4570   50.3900   -4.5170 C   0  0  0  0  0  0  0  0  0  0  0  0
   30.5090   50.8450   -3.7090 C   0  0  0  0  0  0  0  0  0  0  0  0
   28.7490   51.3040   -5.3250 C   0  0  0  0  0  0  0  0  0  0  0  0
   30.8160   52.1910   -3.7330 C   0  0  0  0  0  0  0  0  0  0  0  0
   29.0870   52.6680   -5.3270 C   0  0  0  0  0  0  0  0  0  0  0  0
   28.3290   53.6000   -6.1820 C   0  0  0  0  0  0  0  0  0  0  0  0
   30.1290   53.0870   -4.5190 C   0  0  0  0  0  0  0  0  0  0  0  0
   31.8020   52.7880   -3.0090 O   0  0  0  0  0  0  0  0  0  0  0  0
   27.7740   54.7390   -5.6490 N   0  0  0  0  0  0  0  0  0  0  0  0
   28.1980   53.3480   -7.3780 O   0  0  0  0  0  0  0  0  0  0  0  0
   30.6070   54.3540   -4.3800 O   0  0  0  0  0  0  0  0  0  0  0  0
   31.5510   54.1760   -3.3060 C   0  0  0  0  0  0  0  0  0  0  0  0
   28.4150   56.0430   -5.5470 C   0  0  0  0  0  0  0  0  0  0  0  0
   27.3870   57.1040   -5.4190 C   0  0  0  0  0  0  0  0  0  0  0  0
   27.4890   57.9300   -4.3340 O   0  0  0  0  0  0  0  0  0  0  0  0
   26.3660   57.3900   -6.2010 N   0  0  0  0  0  0  0  0  0  0  0  0
   25.8020   58.4600   -5.5540 C   0  0  0  0  0  0  0  0  0  0  0  0
   26.4280   58.8340   -4.4290 N   0  0  0  0  0  0  0  0  0  0  0  0
   24.6000   59.1470   -6.0610 C   0  0  0  0  0  0  0  0  0  0  0  0
  1  2  2  3
  2  3  1  0
  1  4  1  0
  4  5  2  0
  4  6  1  0
  5  7  1  0
  6  8  2  0
  8  9  1  0
  7 10  2  0
  8 10  1  0
  7 11  1  0
  9 12  1  0
  9 13  2  0
 10 14  1  0
 11 15  1  0
 14 15  1  0
 12 16  1  0
 16 17  1  0
 17 18  1  0
 17 19  2  0
 19 20  1  0
 18 21  1  0
 20 21  2  0
 20 22  1  0
M  END
