mac-x0283-mac-x0206
     RDKit          3D

 14 15  0  0  0  0  0  0  0  0999 V2000
   28.9700   54.6920   -6.1090 N   0  0  0  0  0  0  0  0  0  0  0  0
   29.1420   53.4630   -5.5640 C   0  0  0  0  0  0  0  0  0  0  0  0
   29.6820   53.3120   -4.3030 N   0  0  0  0  0  0  0  0  0  0  0  0
   28.8780   52.1950   -6.0160 C   0  0  0  0  0  0  0  0  0  0  0  0
   30.0790   54.4050   -3.5240 O   0  0  0  0  0  0  0  0  0  0  0  0
   29.7750   51.9840   -3.9250 C   0  0  0  0  0  0  0  0  0  0  0  0
   29.2720   51.2660   -4.9980 C   0  0  0  0  0  0  0  0  0  0  0  0
   28.3250   51.8580   -7.2500 C   0  0  0  0  0  0  0  0  0  0  0  0
   30.3090   51.6060   -2.6450 C   0  0  0  0  0  0  0  0  0  0  0  0
   29.1450   49.8800   -5.1150 C   0  0  0  0  0  0  0  0  0  0  0  0
   28.1940   50.4580   -7.3770 C   0  0  0  0  0  0  0  0  0  0  0  0
   30.9940   50.4290   -2.5790 N   0  0  0  0  0  0  0  0  0  0  0  0
   30.1740   52.2930   -1.6340 O   0  0  0  0  0  0  0  0  0  0  0  0
   28.5840   49.5180   -6.3630 C   0  0  0  0  0  0  0  0  0  0  0  0
  1  2  1  0
  2  3  1  0
  2  4  2  0
  3  5  1  0
  3  6  1  0
  4  7  1  0
  6  7  2  0
  4  8  1  0
  6  9  1  0
  7 10  1  0
  8 11  2  0
  9 12  1  0
  9 13  2  0
 10 14  2  0
 11 14  1  0
M  END
