mac-x0226-mac-x0231
     RDKit          3D

 26 29  0  0  0  0  0  0  0  0999 V2000
   33.0750   47.0610   -6.0800 O   0  0  0  0  0  0  0  0  0  0  0  0
   33.0560   45.6400   -6.1300 C   0  0  0  0  0  0  0  0  0  0  0  0
   33.7700   45.3700   -7.3220 O   0  0  0  0  0  0  0  0  0  0  0  0
   31.5990   45.2080   -6.2740 C   0  0  0  0  0  0  0  0  0  0  0  0
   33.7010   45.0120   -4.9450 C   0  0  0  0  0  0  0  0  0  0  0  0
   33.3880   43.7520   -4.4000 C   0  0  0  0  0  0  0  0  0  0  0  0
   34.7100   45.4790   -4.1250 C   0  0  0  0  0  0  0  0  0  0  0  0
   30.8610   45.0210   -4.9490 C   0  0  0  0  0  0  0  0  0  0  0  0
   34.1220   43.4450   -3.3400 N   0  0  0  0  0  0  0  0  0  0  0  0
   34.9390   44.5130   -3.1680 N   0  0  0  0  0  0  0  0  0  0  0  0
   31.0840   45.9240   -3.7720 C   0  0  0  0  0  0  0  0  0  0  0  0
   30.0110   44.0300   -4.9150 N   0  0  0  0  0  0  0  0  0  0  0  0
   35.8730   44.5280   -2.1060 C   0  0  0  0  0  0  0  0  0  0  0  0
   30.1810   45.7980   -2.7170 C   0  0  0  0  0  0  0  0  0  0  0  0
   29.3130   43.8350   -3.7700 N   0  0  0  0  0  0  0  0  0  0  0  0
   32.1170   46.8670   -3.6590 C   0  0  0  0  0  0  0  0  0  0  0  0
   36.6440   45.6600   -1.8250 C   0  0  0  0  0  0  0  0  0  0  0  0
   36.0200   43.3740   -1.3230 C   0  0  0  0  0  0  0  0  0  0  0  0
   29.1010   44.8080   -2.8290 C   0  0  0  0  0  0  0  0  0  0  0  0
   30.2900   46.5970   -1.5710 C   0  0  0  0  0  0  0  0  0  0  0  0
   32.2320   47.6620   -2.5130 C   0  0  0  0  0  0  0  0  0  0  0  0
   28.0930   44.8570   -2.1330 O   0  0  0  0  0  0  0  0  0  0  0  0
   37.5550   45.6330   -0.7660 C   0  0  0  0  0  0  0  0  0  0  0  0
   36.9330   43.3530   -0.2700 C   0  0  0  0  0  0  0  0  0  0  0  0
   31.3190   47.5320   -1.4720 C   0  0  0  0  0  0  0  0  0  0  0  0
   37.6990   44.4830    0.0090 C   0  0  0  0  0  0  0  0  0  0  0  0
  2  1  1  0
  2  3  1  0
  2  4  1  0
  2  5  1  0
  5  6  1  0
  5  7  2  0
  4  8  1  0
  6  9  2  0
  7 10  1  0
  9 10  1  0
  8 11  1  0
  8 12  2  0
 10 13  1  0
 11 14  2  0
 12 15  1  0
 11 16  1  0
 13 17  2  0
 13 18  1  0
 14 19  1  0
 15 19  1  0
 14 20  1  0
 16 21  2  0
 19 22  2  0
 17 23  1  0
 18 24  2  0
 20 25  2  0
 21 25  1  0
 23 26  2  0
 24 26  1  0
M  END
