mac-x0567-mac-x0375
     RDKit          3D

 23 25  0  0  0  0  0  0  0  0999 V2000
   29.6360   46.5470   -6.3240 N   0  0  0  0  0  0  0  0  0  0  0  0
   29.7080   47.8830   -6.5470 C   0  0  0  0  0  0  0  0  0  0  0  0
   30.2350   48.4310   -7.6880 N   0  0  0  0  0  0  0  0  0  0  0  0
   29.3270   48.9600   -5.7950 C   0  0  0  0  0  0  0  0  0  0  0  0
   30.7970   47.7050   -8.8130 C   0  0  0  0  0  0  0  0  0  0  0  0
   30.2100   49.7910   -7.7200 N   0  0  0  0  0  0  0  0  0  0  0  0
   29.6500   50.1460   -6.5480 C   0  0  0  0  0  0  0  0  0  0  0  0
   28.7380   48.9090   -4.5340 C   0  0  0  0  0  0  0  0  0  0  0  0
   32.0620   46.9220   -8.4530 C   0  0  0  0  0  0  0  0  0  0  0  0
   29.3730   51.4220   -6.0300 C   0  0  0  0  0  0  0  0  0  0  0  0
   28.4750   50.2000   -4.0390 C   0  0  0  0  0  0  0  0  0  0  0  0
   31.8340   46.0260   -7.3440 O   0  0  0  0  0  0  0  0  0  0  0  0
   28.7760   51.4030   -4.7500 C   0  0  0  0  0  0  0  0  0  0  0  0
   32.9500   45.5090   -6.7270 C   0  0  0  0  0  0  0  0  0  0  0  0
   33.8970   45.0070   -7.3160 O   0  0  0  0  0  0  0  0  0  0  0  0
   32.8160   45.6640   -5.2110 C   0  0  0  0  0  0  0  0  0  0  0  0
   33.8470   45.0680   -4.4250 O   0  0  0  0  0  0  0  0  0  0  0  0
   34.8500   45.8620   -3.9250 C   0  0  0  0  0  0  0  0  0  0  0  0
   36.2040   45.5340   -3.8690 C   0  0  0  0  0  0  0  0  0  0  0  0
   34.4300   47.1060   -3.4380 C   0  0  0  0  0  0  0  0  0  0  0  0
   37.1270   46.4390   -3.3320 C   0  0  0  0  0  0  0  0  0  0  0  0
   35.3520   48.0080   -2.9030 C   0  0  0  0  0  0  0  0  0  0  0  0
   36.7020   47.6760   -2.8500 C   0  0  0  0  0  0  0  0  0  0  0  0
  1  2  1  0
  2  3  1  0
  2  4  2  0
  3  5  1  0
  3  6  1  0
  4  7  1  0
  6  7  2  0
  4  8  1  0
  5  9  1  0
  7 10  1  0
  8 11  2  0
  9 12  1  0
 10 13  2  0
 11 13  1  0
 12 14  1  0
 14 15  2  0
 14 16  1  0
 16 17  1  0
 17 18  1  0
 18 19  2  0
 18 20  1  0
 19 21  1  0
 20 22  2  0
 21 23  2  0
 22 23  1  0
M  END
