mac-x0190-mac-x0206
     RDKit          3D

 15 16  0  0  0  0  0  0  0  0999 V2000
   28.3200   55.9070   -5.7290 O   0  0  0  0  0  0  0  0  0  0  0  0
   28.1510   54.5420   -5.3210 C   0  0  0  0  0  0  0  0  0  0  0  0
   29.2980   54.0750   -4.3870 C   0  0  1  0  0  0  0  0  0  0  0  0
   29.1600   52.7190   -3.8380 N   0  0  0  0  0  0  0  0  0  0  0  0
   30.5880   54.0230   -5.2020 N   0  0  0  0  0  0  0  0  0  0  0  0
   27.9530   52.2310   -3.4430 C   0  0  0  0  0  0  0  0  0  0  0  0
   31.6890   54.3850   -4.3170 O   0  0  0  0  0  0  0  0  0  0  0  0
   30.4010   52.0330   -4.0810 C   0  0  2  0  0  0  0  0  0  0  0  0
   30.7170   52.5880   -5.4860 C   0  0  1  0  0  0  0  0  0  0  0  0
   27.3130   51.4130   -4.3110 N   0  0  0  0  0  0  0  0  0  0  0  0
   27.4230   52.4870   -2.3660 O   0  0  0  0  0  0  0  0  0  0  0  0
   30.4760   50.5330   -4.1080 C   0  0  0  0  0  0  0  0  0  0  0  0
   29.8290   51.9450   -6.5110 C   0  0  0  0  0  0  0  0  0  0  0  0
   30.0440   49.8940   -5.2130 C   0  0  0  0  0  0  0  0  0  0  0  0
   29.5230   50.6420   -6.3530 C   0  0  0  0  0  0  0  0  0  0  0  0
  1  2  1  0
  3  2  1  6
  3  4  1  0
  3  5  1  0
  4  6  1  0
  5  7  1  0
  4  8  1  0
  5  9  1  0
  8  9  1  0
  6 10  1  0
  6 11  2  0
  8 12  1  6
  9 13  1  6
 12 14  2  0
 13 15  2  0
 14 15  1  0
M  END
