mac-x0271-mac-x0138
     RDKit          3D

 24 27  0  0  0  0  0  0  0  0999 V2000
   32.3840   51.8920   -2.7360 O   0  0  0  0  0  0  0  0  0  0  0  0
   31.3560   52.3400   -3.5150 C   0  0  0  0  0  0  0  0  0  0  0  0
   30.5770   51.4690   -4.2790 C   0  0  0  0  0  0  0  0  0  0  0  0
   31.1090   53.6990   -3.5260 C   0  0  0  0  0  0  0  0  0  0  0  0
   30.0720   54.1810   -4.3140 C   0  0  0  0  0  0  0  0  0  0  0  0
   29.5200   51.9360   -5.0850 C   0  0  0  0  0  0  0  0  0  0  0  0
   28.7340   51.0520   -5.8610 N   0  0  0  0  0  0  0  0  0  0  0  0
   29.2690   53.3340   -5.0960 C   0  0  0  0  0  0  0  0  0  0  0  0
   29.8710   55.5830   -4.2870 O   0  0  0  0  0  0  0  0  0  0  0  0
   28.2120   53.9730   -5.8850 C   0  0  0  0  0  0  0  0  0  0  0  0
   28.7880   56.1660   -4.9240 C   0  0  0  0  0  0  0  0  0  0  0  0
   28.9540   49.7700   -6.3980 C   0  0  0  0  0  0  0  0  0  0  0  0
   28.4910   57.3470   -4.7790 O   0  0  0  0  0  0  0  0  0  0  0  0
   27.9960   55.2910   -5.7980 C   0  0  0  0  0  0  0  0  0  0  0  0
   28.7820   48.6360   -5.5820 C   0  0  0  0  0  0  0  0  0  0  0  0
   29.3300   49.5490   -7.6900 N   0  0  0  0  0  0  0  0  0  0  0  0
   28.4140   48.4980   -4.2580 N   0  0  0  0  0  0  0  0  0  0  0  0
   29.0130   47.4020   -6.1620 C   0  0  0  0  0  0  0  0  0  0  0  0
   29.5200   48.2910   -8.1300 C   0  0  0  0  0  0  0  0  0  0  0  0
   29.8980   48.1590   -9.4530 N   0  0  0  0  0  0  0  0  0  0  0  0
   28.7800   46.4980   -5.1650 N   0  0  0  0  0  0  0  0  0  0  0  0
   28.4260   47.1990   -4.0430 C   0  0  0  0  0  0  0  0  0  0  0  0
   29.3830   47.1570   -7.4250 N   0  0  0  0  0  0  0  0  0  0  0  0
   28.8920   45.0720   -5.2890 C   0  0  0  0  0  0  0  0  0  0  0  0
  1  2  1  0
  2  3  2  0
  2  4  1  0
  4  5  2  0
  3  6  1  0
  6  7  1  0
  5  8  1  0
  6  8  2  0
  5  9  1  0
  8 10  1  0
  9 11  1  0
  7 12  1  0
 11 13  2  0
 10 14  2  0
 11 14  1  0
 12 15  1  0
 12 16  2  0
 15 17  1  0
 15 18  2  0
 16 19  1  0
 19 20  1  0
 18 21  1  0
 17 22  2  0
 21 22  1  0
 18 23  1  0
 19 23  2  0
 21 24  1  0
M  END
