mac-x0380-mac-x0231
     RDKit          3D

 30 33  0  0  0  0  0  0  0  0999 V2000
   28.2690   48.9440   -3.1320 O   0  0  0  0  0  0  0  0  0  0  0  0
   29.1230   49.9860   -3.1050 C   0  0  0  0  0  0  0  0  0  0  0  0
   30.1190   50.0580   -2.2990 N   0  0  0  0  0  0  0  0  0  0  0  0
   28.8120   51.0400   -4.0890 C   0  0  0  0  0  0  0  0  0  0  0  0
   30.2880   48.9240   -1.3960 C   0  0  0  0  0  0  0  0  0  0  0  0
   28.8220   52.3750   -3.6760 C   0  0  0  0  0  0  0  0  0  0  0  0
   28.5110   50.7130   -5.4150 C   0  0  0  0  0  0  0  0  0  0  0  0
   28.5300   53.3940   -4.5900 C   0  0  0  0  0  0  0  0  0  0  0  0
   28.2190   51.7290   -6.3290 C   0  0  0  0  0  0  0  0  0  0  0  0
   30.7350   47.7130   -2.1820 C   0  0  0  0  0  0  0  0  0  0  0  0
   28.2270   53.0680   -5.9200 C   0  0  0  0  0  0  0  0  0  0  0  0
   28.5550   55.0810   -4.0220 S   0  0  0  0  0  0  0  0  0  0  0  0
   29.9350   46.5640   -2.2340 C   0  0  0  0  0  0  0  0  0  0  0  0
   31.9550   47.7230   -2.8690 C   0  0  0  0  0  0  0  0  0  0  0  0
   27.9280   54.0460   -6.8760 N   0  0  0  0  0  0  0  0  0  0  0  0
   28.9640   55.8930   -5.5800 C   0  0  0  0  0  0  0  0  0  0  0  0
   30.3560   45.4460   -2.9670 C   0  0  0  0  0  0  0  0  0  0  0  0
   32.3730   46.6040   -3.6010 C   0  0  0  0  0  0  0  0  0  0  0  0
   28.1600   55.3900   -6.7560 C   0  0  0  0  0  0  0  0  0  0  0  0
   31.5710   45.4580   -3.6530 C   0  0  0  0  0  0  0  0  0  0  0  0
   29.5140   44.2380   -3.0220 C   0  0  0  0  0  0  0  0  0  0  0  0
   27.7070   56.1560   -7.6090 O   0  0  0  0  0  0  0  0  0  0  0  0
   28.5050   44.1190   -2.3360 O   0  0  0  0  0  0  0  0  0  0  0  0
   31.9350   44.2280   -4.4060 C   0  0  0  0  0  0  0  0  0  0  0  0
   29.9340   43.2580   -3.8880 N   0  0  0  0  0  0  0  0  0  0  0  0
   33.2790   44.1190   -5.1050 C   0  0  0  0  0  0  0  0  0  0  0  0
   31.1440   43.1980   -4.5040 N   0  0  0  0  0  0  0  0  0  0  0  0
   33.2470   44.4110   -6.5820 C   0  0  0  0  0  0  0  0  0  0  0  0
   34.3850   44.9950   -7.0290 O   0  0  0  0  0  0  0  0  0  0  0  0
   32.3160   44.1630   -7.3330 O   0  0  0  0  0  0  0  0  0  0  0  0
  1  2  1  0
  2  3  2  3
  2  4  1  0
  3  5  1  0
  4  6  2  0
  4  7  1  0
  6  8  1  0
  7  9  2  0
  5 10  1  0
  8 11  2  0
  9 11  1  0
  8 12  1  0
 10 13  2  0
 10 14  1  0
 11 15  1  0
 12 16  1  0
 13 17  1  0
 14 18  2  0
 15 19  1  0
 16 19  1  0
 17 20  2  0
 18 20  1  0
 17 21  1  0
 19 22  2  0
 21 23  2  0
 20 24  1  0
 21 25  1  0
 24 26  1  0
 24 27  2  0
 25 27  1  0
 26 28  1  0
 28 29  1  0
 28 30  2  0
M  END
