mac-x0255-mac-x0333
     RDKit          3D

 24 27  0  0  0  0  0  0  0  0999 V2000
   31.4730   44.6810   -7.0160 O   0  0  0  0  0  0  0  0  0  0  0  0
   32.4960   45.5390   -6.8150 C   0  0  0  0  0  0  0  0  0  0  0  0
   32.9800   46.1300   -7.7660 O   0  0  0  0  0  0  0  0  0  0  0  0
   32.9030   45.6300   -5.3620 C   0  0  0  0  0  0  0  0  0  0  0  0
   31.7430   45.5590   -4.3980 C   0  0  0  0  0  0  0  0  0  0  0  0
   30.5900   46.3390   -4.3070 C   0  0  0  0  0  0  0  0  0  0  0  0
   31.7880   44.3540   -3.1920 S   0  0  0  0  0  0  0  0  0  0  0  0
   30.2620   47.4890   -5.2280 C   0  0  0  0  0  0  0  0  0  0  0  0
   29.7400   45.9100   -3.2080 C   0  0  0  0  0  0  0  0  0  0  0  0
   30.2870   44.8330   -2.5190 C   0  0  0  0  0  0  0  0  0  0  0  0
   29.2160   48.3370   -4.7400 O   0  0  0  0  0  0  0  0  0  0  0  0
   28.4890   46.4010   -2.7470 C   0  0  0  0  0  0  0  0  0  0  0  0
   29.6410   44.2510   -1.4120 C   0  0  0  0  0  0  0  0  0  0  0  0
   27.8420   45.8290   -1.6500 C   0  0  0  0  0  0  0  0  0  0  0  0
   28.4160   44.7610   -0.9880 C   0  0  0  0  0  0  0  0  0  0  0  0
   29.2950   49.6870   -4.9280 C   0  0  0  0  0  0  0  0  0  0  0  0
   29.6630   50.6340   -3.9710 C   0  0  0  0  0  0  0  0  0  0  0  0
   28.9580   50.0970   -6.2330 C   0  0  0  0  0  0  0  0  0  0  0  0
   29.6790   51.9610   -4.3570 C   0  0  0  0  0  0  0  0  0  0  0  0
   28.9820   51.4460   -6.5970 C   0  0  0  0  0  0  0  0  0  0  0  0
   29.3470   52.3560   -5.6320 C   0  0  0  0  0  0  0  0  0  0  0  0
   30.0070   53.0160   -3.5610 O   0  0  0  0  0  0  0  0  0  0  0  0
   29.4260   53.7020   -5.7990 O   0  0  0  0  0  0  0  0  0  0  0  0
   29.8070   54.1160   -4.4690 C   0  0  0  0  0  0  0  0  0  0  0  0
  1  2  1  0
  2  3  2  0
  2  4  1  0
  4  5  1  0
  5  6  2  0
  5  7  1  0
  6  8  1  0
  6  9  1  0
  7 10  1  0
  9 10  2  0
  8 11  1  0
  9 12  1  0
 10 13  1  0
 12 14  2  0
 13 15  2  0
 14 15  1  0
 11 16  1  0
 16 17  2  0
 16 18  1  0
 17 19  1  0
 18 20  2  0
 19 21  2  0
 20 21  1  0
 19 22  1  0
 21 23  1  0
 22 24  1  0
 23 24  1  0
M  END
