mac-x0142-mac-x0441
     RDKit          3D

 34 39  0  0  0  0  0  0  0  0999 V2000
   34.9150   44.8990   -7.3770 O   0  0  0  0  0  0  0  0  0  0  0  0
   33.9710   44.6390   -6.4420 C   0  0  0  0  0  0  0  0  0  0  0  0
   33.2990   43.6230   -6.5420 O   0  0  0  0  0  0  0  0  0  0  0  0
   33.8900   45.7120   -5.3630 C   0  0  1  0  0  0  0  0  0  0  0  0
   32.4200   46.1250   -5.0930 C   0  0  1  0  0  0  0  0  0  0  0  0
   34.7060   45.3080   -4.2150 N   0  0  0  0  0  0  0  0  0  0  0  0
   31.4720   45.1620   -4.3650 C   0  0  0  0  0  0  0  0  0  0  0  0
   32.3420   47.4580   -4.2970 C   0  0  0  0  0  0  0  0  0  0  0  0
   34.6990   43.9900   -3.8670 N   0  0  0  0  0  0  0  0  0  0  0  0
   35.5140   46.0460   -3.3880 C   0  0  0  0  0  0  0  0  0  0  0  0
   31.8860   44.6230   -3.0020 C   0  0  0  0  0  0  0  0  0  0  0  0
   31.7180   43.6780   -4.1540 C   0  0  0  0  0  0  0  0  0  0  0  0
   30.9960   47.6550   -3.5870 C   0  0  0  0  0  0  0  0  0  0  0  0
   30.0160   45.6070   -4.5250 C   0  0  0  0  0  0  0  0  0  0  0  0
   35.5170   43.8920   -2.7970 C   0  0  0  0  0  0  0  0  0  0  0  0
   36.0460   45.1650   -2.4690 C   0  0  0  0  0  0  0  0  0  0  0  0
   35.7970   47.5110   -3.4290 C   0  0  0  0  0  0  0  0  0  0  0  0
   35.8050   42.5940   -2.0770 C   0  0  0  0  0  0  0  0  0  0  0  0
   29.9080   47.0790   -4.3850 N   0  0  0  0  0  0  0  0  0  0  0  0
   36.9830   45.5740   -1.3860 C   0  0  0  0  0  0  0  0  0  0  0  0
   36.5350   47.9580   -2.1500 C   0  0  0  0  0  0  0  0  0  0  0  0
   36.7910   41.8530   -2.6510 F   0  0  0  0  0  0  0  0  0  0  0  0
   36.1940   42.8110   -0.7890 F   0  0  0  0  0  0  0  0  0  0  0  0
   34.7060   41.7940   -2.0060 F   0  0  0  0  0  0  0  0  0  0  0  0
   29.2830   47.8170   -5.4010 C   0  0  0  0  0  0  0  0  0  0  0  0
   37.6010   46.9480   -1.6960 C   0  0  0  0  0  0  0  0  0  0  0  0
   28.8340   47.2110   -6.5620 N   0  0  0  0  0  0  0  0  0  0  0  0
   29.0670   49.1470   -5.3390 C   0  0  0  0  0  0  0  0  0  0  0  0
   28.2260   47.9080   -7.5690 C   0  0  0  0  0  0  0  0  0  0  0  0
   28.4000   49.8430   -6.4680 C   0  0  0  0  0  0  0  0  0  0  0  0
   29.3170   50.2050   -4.4110 C   0  0  0  0  0  0  0  0  0  0  0  0
   27.9860   49.1770   -7.5850 N   0  0  0  0  0  0  0  0  0  0  0  0
   28.2680   51.1240   -6.2520 N   0  0  0  0  0  0  0  0  0  0  0  0
   28.8320   51.3120   -4.9980 C   0  0  0  0  0  0  0  0  0  0  0  0
  1  2  1  0
  2  3  2  0
  4  2  1  6
  4  5  1  0
  4  6  1  0
  5  7  1  0
  5  8  1  1
  6  9  1  0
  6 10  1  0
  7 11  1  0
  7 12  1  0
 11 12  1  0
  8 13  1  0
  7 14  1  0
  9 15  2  0
 10 16  2  0
 15 16  1  0
 10 17  1  0
 15 18  1  0
 13 19  1  0
 14 19  1  0
 16 20  1  0
 17 21  1  0
 18 22  1  0
 18 23  1  0
 18 24  1  0
 19 25  1  0
 20 26  1  0
 21 26  1  0
 25 27  1  0
 25 28  2  0
 27 29  1  0
 28 30  1  0
 28 31  1  0
 29 32  2  0
 30 32  1  0
 30 33  2  0
 31 34  2  0
 33 34  1  0
M  END
