mac-x0138-mac-x0115
     RDKit          3D

 25 28  0  0  0  0  0  0  0  0999 V2000
   30.1830   47.4860   -3.7370 C   0  0  0  0  0  0  0  0  0  0  0  0
   29.2510   48.5830   -3.9430 N   0  0  0  0  0  0  0  0  0  0  0  0
   29.7540   49.8400   -3.3620 C   0  0  0  0  0  0  0  0  0  0  0  0
   28.9370   48.8790   -5.3540 C   0  0  1  0  0  0  0  0  0  0  0  0
   29.7000   50.8530   -4.4230 N   0  0  0  0  0  0  0  0  0  0  0  0
   29.8820   50.0380   -5.6390 C   0  0  2  0  0  0  0  0  0  0  0  0
   29.0450   47.8310   -6.4880 C   0  0  1  0  0  0  0  0  0  0  0  0
   29.5920   50.7190   -7.0080 C   0  0  2  0  0  0  0  0  0  0  0  0
   28.5500   48.6260   -7.7190 C   0  0  1  0  0  0  0  0  0  0  0  0
   30.4450   47.1600   -6.5740 C   0  0  0  0  0  0  0  0  0  0  0  0
   27.9890   46.7250   -6.4780 C   0  0  0  0  0  0  0  0  0  0  0  0
   28.4260   51.5760   -6.9580 N   0  0  0  0  0  0  0  0  0  0  0  0
   29.3120   49.8180   -8.1100 N   0  0  0  0  0  0  0  0  0  0  0  0
   30.5830   45.6840   -6.5120 N   0  0  0  0  0  0  0  0  0  0  0  0
   27.9950   46.3040   -7.9520 C   0  0  1  0  0  0  0  0  0  0  0  0
   28.2930   47.5710   -8.7850 C   0  0  0  0  0  0  0  0  0  0  0  0
   31.1880   45.1440   -5.2590 C   0  0  0  0  0  0  0  0  0  0  0  0
   30.0130   44.8310   -7.4360 C   0  0  0  0  0  0  0  0  0  0  0  0
   28.9690   45.2580   -8.1970 N   0  0  0  0  0  0  0  0  0  0  0  0
   30.1810   44.3580   -4.4030 C   0  0  0  0  0  0  0  0  0  0  0  0
   30.4730   43.2480   -7.7630 S   0  0  0  0  0  0  0  0  0  0  0  0
   30.1390   44.8860   -3.0710 O   0  0  0  0  0  0  0  0  0  0  0  0
   29.0200   44.4620   -2.2850 C   0  0  0  0  0  0  0  0  0  0  0  0
   28.2080   45.7080   -1.9550 C   0  0  0  0  0  0  0  0  0  0  0  0
   28.1480   43.4510   -3.0270 C   0  0  0  0  0  0  0  0  0  0  0  0
  1  2  1  0
  2  3  1  0
  4  2  1  1
  3  5  1  0
  4  6  1  0
  6  5  1  1
  4  7  1  0
  6  8  1  0
  7  9  1  0
  7 10  1  6
  7 11  1  0
  8 12  1  1
  8 13  1  0
  9 13  1  0
 10 14  1  0
 11 15  1  0
  9 16  1  6
 15 16  1  6
 14 17  1  0
 14 18  1  0
 15 19  1  0
 18 19  1  0
 17 20  1  0
 18 21  2  0
 20 22  1  0
 22 23  1  0
 23 24  1  0
 23 25  1  0
M  END
