mac-x0179-mac-x0568
     RDKit          3D

 28 30  0  0  0  0  0  0  0  0999 V2000
   32.4680   44.9640   -6.4090 O   0  0  0  0  0  0  0  0  0  0  0  0
   33.4600   45.2940   -5.5510 C   0  0  0  0  0  0  0  0  0  0  0  0
   34.5760   45.5340   -5.9860 O   0  0  0  0  0  0  0  0  0  0  0  0
   32.9830   45.3060   -4.1060 C   0  0  0  0  0  0  0  0  0  0  0  0
   34.0290   45.7690   -3.2050 N   0  0  0  0  0  0  0  0  0  0  0  0
   34.6800   44.8340   -2.4270 C   0  0  0  0  0  0  0  0  0  0  0  0
   34.2550   47.0240   -2.6830 C   0  0  0  0  0  0  0  0  0  0  0  0
   34.4710   43.6360   -2.3270 O   0  0  0  0  0  0  0  0  0  0  0  0
   33.6680   48.1600   -2.7770 N   0  0  0  0  0  0  0  0  0  0  0  0
   35.7190   45.5470   -1.6980 C   0  0  0  0  0  0  0  0  0  0  0  0
   35.4610   46.8950   -1.8540 C   0  0  0  0  0  0  0  0  0  0  0  0
   32.4790   48.5000   -3.5340 C   0  0  0  0  0  0  0  0  0  0  0  0
   36.7920   45.0810   -0.9650 C   0  0  0  0  0  0  0  0  0  0  0  0
   36.2710   47.8560   -1.2810 C   0  0  0  0  0  0  0  0  0  0  0  0
   31.2660   47.7450   -2.9920 C   0  0  0  0  0  0  0  0  0  0  0  0
   37.6270   46.0360   -0.3750 C   0  0  0  0  0  0  0  0  0  0  0  0
   37.3670   47.4150   -0.5330 C   0  0  0  0  0  0  0  0  0  0  0  0
   30.2500   48.6540   -2.3020 C   0  0  0  0  0  0  0  0  0  0  0  0
   30.1740   49.9460   -2.9670 N   0  0  0  0  0  0  0  0  0  0  0  0
   29.6460   50.1330   -4.1240 C   0  0  0  0  0  0  0  0  0  0  0  0
   29.0740   49.1660   -4.9170 N   0  0  0  0  0  0  0  0  0  0  0  0
   29.6650   51.5410   -4.6380 C   0  0  0  0  0  0  0  0  0  0  0  0
   29.9950   52.6040   -3.8090 C   0  0  0  0  0  0  0  0  0  0  0  0
   29.3530   51.8280   -5.9650 C   0  0  0  0  0  0  0  0  0  0  0  0
   30.0320   53.9010   -4.2110 N   0  0  0  0  0  0  0  0  0  0  0  0
   29.3820   53.1530   -6.4070 C   0  0  0  0  0  0  0  0  0  0  0  0
   29.7250   54.1570   -5.5050 C   0  0  0  0  0  0  0  0  0  0  0  0
   29.7650   55.5890   -5.9510 C   0  0  0  0  0  0  0  0  0  0  0  0
  1  2  1  0
  2  3  2  0
  2  4  1  0
  4  5  1  0
  5  6  1  0
  5  7  1  0
  6  8  2  0
  7  9  2  3
  6 10  1  0
  7 11  1  0
 10 11  2  0
  9 12  1  0
 10 13  1  0
 11 14  1  0
 12 15  1  0
 13 16  2  0
 14 17  2  0
 16 17  1  0
 15 18  1  0
 18 19  1  0
 19 20  2  3
 20 21  1  0
 20 22  1  0
 22 23  2  0
 22 24  1  0
 23 25  1  0
 24 26  2  0
 25 27  2  0
 26 27  1  0
 27 28  1  0
M  END
