mac-x0345-mac-x0379
     RDKit          3D

 18 19  0  0  0  0  0  0  0  0999 V2000
   29.1390   55.8090   -4.8520 C   0  0  0  0  0  0  0  0  0  0  0  0
   29.1880   54.3570   -4.4750 C   0  0  0  0  0  0  0  0  0  0  0  0
   29.4060   54.1140   -3.1520 N   0  0  0  0  0  0  0  0  0  0  0  0
   29.0240   53.3310   -5.4190 C   0  0  0  0  0  0  0  0  0  0  0  0
   28.7270   53.7470   -7.2520 Br  0  0  0  0  0  0  0  0  0  0  0  0
   29.0890   52.0020   -4.9720 C   0  0  0  0  0  0  0  0  0  0  0  0
   29.4640   52.8420   -2.7410 C   0  0  0  0  0  0  0  0  0  0  0  0
   29.6860   52.6270   -1.3850 N   0  0  0  0  0  0  0  0  0  0  0  0
   28.9370   50.7970   -5.8680 C   0  0  0  0  0  0  0  0  0  0  0  0
   29.3130   51.7730   -3.6040 C   0  0  0  0  0  0  0  0  0  0  0  0
   29.5570   49.5620   -5.2800 C   0  0  0  0  0  0  0  0  0  0  0  0
   30.6870   49.5510   -4.6060 N   0  0  0  0  0  0  0  0  0  0  0  0
   28.7950   48.0290   -5.4570 S   0  0  0  0  0  0  0  0  0  0  0  0
   30.9770   48.2650   -4.2000 C   0  0  0  0  0  0  0  0  0  0  0  0
   30.0660   47.3010   -4.5680 C   0  0  0  0  0  0  0  0  0  0  0  0
   30.1360   45.8960   -4.2740 C   0  0  0  0  0  0  0  0  0  0  0  0
   30.6860   45.3750   -3.3130 O   0  0  0  0  0  0  0  0  0  0  0  0
   29.5090   45.1220   -5.1860 O   0  0  0  0  0  0  0  0  0  0  0  0
  1  2  1  0
  2  3  2  0
  2  4  1  0
  4  5  1  0
  4  6  2  0
  3  7  1  0
  7  8  1  0
  6  9  1  0
  6 10  1  0
  7 10  2  0
  9 11  1  0
 11 12  2  0
 11 13  1  0
 12 14  1  0
 13 15  1  0
 14 15  2  0
 15 16  1  0
 16 17  2  0
 16 18  1  0
M  END
