mac-x0337-mac-x0380
     RDKit          3D

 24 26  0  0  0  0  0  0  0  0999 V2000
   33.9920   53.5610   -5.2130 C   0  0  0  0  0  0  0  0  0  0  0  0
   33.1480   52.3500   -5.2880 C   0  0  0  0  0  0  0  0  0  0  0  0
   32.2200   52.1740   -6.2850 C   0  0  0  0  0  0  0  0  0  0  0  0
   33.2820   51.3480   -4.3300 C   0  0  0  0  0  0  0  0  0  0  0  0
   32.4970   50.1920   -4.3740 C   0  0  0  0  0  0  0  0  0  0  0  0
   31.4450   51.0300   -6.3270 C   0  0  0  0  0  0  0  0  0  0  0  0
   31.6090   50.0820   -5.3750 C   0  0  0  0  0  0  0  0  0  0  0  0
   30.6130   48.6510   -5.4630 S   0  0  0  0  0  0  0  0  0  0  0  0
   29.4860   49.4230   -4.6070 C   0  0  0  0  0  0  0  0  0  0  0  0
   30.7400   47.4880   -4.4560 O   0  0  0  0  0  0  0  0  0  0  0  0
   29.6400   48.5460   -6.8420 N   0  0  0  0  0  0  0  0  0  0  0  0
   28.2500   48.7060   -4.5900 O   0  0  0  0  0  0  0  0  0  0  0  0
   29.7840   49.5010   -3.2200 O   0  0  0  0  0  0  0  0  0  0  0  0
   29.0620   50.8100   -4.9770 C   0  0  0  0  0  0  0  0  0  0  0  0
   29.5590   51.9500   -4.3840 C   0  0  0  0  0  0  0  0  0  0  0  0
   28.1150   51.0670   -5.9670 C   0  0  0  0  0  0  0  0  0  0  0  0
   29.1630   53.2270   -4.7350 C   0  0  0  0  0  0  0  0  0  0  0  0
   27.7050   52.2960   -6.3350 C   0  0  0  0  0  0  0  0  0  0  0  0
   28.2240   53.4260   -5.7200 C   0  0  0  0  0  0  0  0  0  0  0  0
   29.8780   54.6490   -3.9010 S   0  0  0  0  0  0  0  0  0  0  0  0
   27.7650   54.7090   -6.1380 N   0  0  0  0  0  0  0  0  0  0  0  0
   29.7020   56.0230   -5.1050 C   0  0  0  0  0  0  0  0  0  0  0  0
   28.3570   55.9320   -5.7440 C   0  0  0  0  0  0  0  0  0  0  0  0
   27.7570   57.0430   -5.9200 O   0  0  0  0  0  0  0  0  0  0  0  0
  1  2  1  0
  2  3  2  0
  2  4  1  0
  4  5  2  0
  3  6  1  0
  5  7  1  0
  6  7  2  0
  7  8  1  0
  8  9  1  0
  8 10  2  0
  8 11  1  0
  9 12  1  0
  9 13  1  0
  9 14  1  0
 14 15  2  0
 14 16  1  0
 15 17  1  0
 16 18  2  0
 17 19  2  0
 18 19  1  0
 17 20  1  0
 19 21  1  0
 20 22  1  0
 21 23  1  0
 22 23  1  0
 23 24  2  0
M  END
