mac-x0496-mac-x0223
     RDKit          3D

 32 34  0  0  0  0  0  0  0  0999 V2000
   24.5720   58.4960   -6.1400 C   0  0  0  0  0  0  0  0  0  0  0  0
   25.9110   58.2850   -5.5550 C   0  0  0  0  0  0  0  0  0  0  0  0
   26.2820   58.8250   -4.3860 N   0  0  0  0  0  0  0  0  0  0  0  0
   26.8650   57.5210   -6.1680 N   0  0  0  0  0  0  0  0  0  0  0  0
   27.5940   58.3690   -4.2260 O   0  0  0  0  0  0  0  0  0  0  0  0
   27.8730   57.6010   -5.3200 C   0  0  0  0  0  0  0  0  0  0  0  0
   29.2310   56.9980   -5.3730 C   0  0  0  0  0  0  0  0  0  0  0  0
   29.1470   55.5760   -5.6600 N   0  0  0  0  0  0  0  0  0  0  0  0
   29.1720   54.6600   -4.6300 C   0  0  0  0  0  0  0  0  0  0  0  0
   29.3830   54.9530   -3.4600 O   0  0  0  0  0  0  0  0  0  0  0  0
   28.9280   53.2420   -5.0000 C   0  0  0  0  0  0  0  0  0  0  0  0
   28.3290   52.9650   -6.2400 C   0  0  0  0  0  0  0  0  0  0  0  0
   29.2840   52.1970   -4.1450 C   0  0  0  0  0  0  0  0  0  0  0  0
   28.0860   51.6470   -6.6260 C   0  0  0  0  0  0  0  0  0  0  0  0
   29.0380   50.8810   -4.5400 C   0  0  0  0  0  0  0  0  0  0  0  0
   29.4100   49.7640   -3.6660 C   0  0  0  0  0  0  0  0  0  0  0  0
   28.4400   50.6050   -5.7770 C   0  0  0  0  0  0  0  0  0  0  0  0
   29.1080   48.5980   -4.0920 N   0  0  0  0  0  0  0  0  0  0  0  0
   30.0540   50.0640   -2.5190 O   0  0  0  0  0  0  0  0  0  0  0  0
   29.4150   47.3870   -3.4740 C   0  0  0  0  0  0  0  0  0  0  0  0
   28.6830   46.7510   -2.4670 C   0  0  0  0  0  0  0  0  0  0  0  0
   30.5580   46.7850   -3.9640 C   0  0  0  0  0  0  0  0  0  0  0  0
   27.5410   47.3210   -1.9460 O   0  0  0  0  0  0  0  0  0  0  0  0
   29.1020   45.5050   -1.9760 C   0  0  0  0  0  0  0  0  0  0  0  0
   30.9960   45.5610   -3.4940 C   0  0  0  0  0  0  0  0  0  0  0  0
   28.2910   44.9740   -1.0110 O   0  0  0  0  0  0  0  0  0  0  0  0
   32.2510   44.9860   -4.1040 C   0  0  0  0  0  0  0  0  0  0  0  0
   30.2600   44.9130   -2.4920 C   0  0  0  0  0  0  0  0  0  0  0  0
   27.4950   43.8680   -1.4270 C   0  0  0  0  0  0  0  0  0  0  0  0
   32.5970   45.6710   -5.4130 C   0  0  0  0  0  0  0  0  0  0  0  0
   33.5980   46.3160   -5.6840 O   0  0  0  0  0  0  0  0  0  0  0  0
   31.6360   45.5170   -6.3500 O   0  0  0  0  0  0  0  0  0  0  0  0
  1  2  1  0
  2  3  2  0
  2  4  1  0
  3  5  1  0
  4  6  2  0
  5  6  1  0
  6  7  1  0
  7  8  1  0
  8  9  1  0
  9 10  2  0
  9 11  1  0
 11 12  2  0
 11 13  1  0
 12 14  1  0
 13 15  2  0
 15 16  1  0
 14 17  2  0
 15 17  1  0
 16 18  2  3
 16 19  1  0
 18 20  1  0
 20 21  2  0
 20 22  1  0
 21 23  1  0
 21 24  1  0
 22 25  2  0
 24 26  1  0
 25 27  1  0
 24 28  2  0
 25 28  1  0
 26 29  1  0
 27 30  1  0
 30 31  2  0
 30 32  1  0
M  END
