mac-x0555-mac-x0142
     RDKit          3D

 24 28  0  0  0  0  0  0  0  0999 V2000
   27.3630   55.4420   -6.1830 N   0  0  0  0  0  0  0  0  0  0  0  0
   28.1410   54.4730   -5.5430 C   0  0  0  0  0  0  0  0  0  0  0  0
   29.0830   54.7980   -4.5650 C   0  0  0  0  0  0  0  0  0  0  0  0
   28.0070   53.1250   -5.8600 C   0  0  0  0  0  0  0  0  0  0  0  0
   28.7940   52.1660   -5.2110 C   0  0  0  0  0  0  0  0  0  0  0  0
   29.8630   53.9050   -3.9140 N   0  0  0  0  0  0  0  0  0  0  0  0
   29.7030   52.6100   -4.2490 C   0  0  0  0  0  0  0  0  0  0  0  0
   28.6760   50.6970   -5.5280 C   0  0  0  0  0  0  0  0  0  0  0  0
   30.5440   51.6490   -3.5440 C   0  0  0  0  0  0  0  0  0  0  0  0
   29.9700   49.8530   -5.2430 C   0  0  2  0  0  0  0  0  0  0  0  0
   30.6770   50.3860   -3.9850 C   0  0  0  0  0  0  0  0  0  0  0  0
   30.9120   50.0580   -6.4660 C   0  0  0  0  0  0  0  0  0  0  0  0
   29.5770   48.2970   -5.2310 C   0  0  2  0  0  0  0  0  0  0  0  0
   30.5970   47.2780   -4.8560 N   0  0  0  0  0  0  0  0  0  0  0  0
   29.0630   47.9160   -6.5540 N   0  0  0  0  0  0  0  0  0  0  0  0
   30.4680   49.4100   -7.7070 N   0  0  0  0  0  0  0  0  0  0  0  0
   31.5810   47.6660   -3.8280 C   0  0  0  0  0  0  0  0  0  0  0  0
   29.9750   45.9630   -4.5720 C   0  0  0  0  0  0  0  0  0  0  0  0
   30.0920   48.0180   -7.5590 C   0  0  0  0  0  0  0  0  0  0  0  0
   31.0260   44.9010   -4.3270 C   0  0  0  0  0  0  0  0  0  0  0  0
   32.6480   46.6120   -3.5250 C   0  0  0  0  0  0  0  0  0  0  0  0
   30.6520   43.4420   -4.4940 C   0  0  0  0  0  0  0  0  0  0  0  0
   31.5340   44.1010   -5.5120 C   0  0  0  0  0  0  0  0  0  0  0  0
   32.0000   45.2620   -3.2310 C   0  0  0  0  0  0  0  0  0  0  0  0
  1  2  1  0
  2  3  2  0
  2  4  1  0
  4  5  2  0
  3  6  1  0
  5  7  1  0
  6  7  2  0
  5  8  1  0
  7  9  1  0
 10  8  1  6
  9 11  2  0
 10 11  1  0
 10 12  1  0
 10 13  1  0
 13 14  1  6
 13 15  1  0
 12 16  1  0
 14 17  1  0
 14 18  1  0
 15 19  1  0
 16 19  1  0
 20 18  1  0
 17 21  1  0
 20 22  1  0
 20 23  1  0
 22 23  1  0
 20 24  1  0
 21 24  1  0
M  END
