mac-x0131-mac-x0357
     RDKit          3D

 22 24  0  0  0  0  0  0  0  0999 V2000
   31.3000   48.2150   -2.9500 C   0  0  0  0  0  0  0  0  0  0  0  0
   30.5250   48.5680   -4.1840 C   0  0  0  0  0  0  0  0  0  0  0  0
   29.7590   49.7080   -4.3940 C   0  0  0  0  0  0  0  0  0  0  0  0
   30.4790   47.7540   -5.3300 N   0  0  0  0  0  0  0  0  0  0  0  0
   29.5450   50.8250   -3.4310 C   0  0  0  0  0  0  0  0  0  0  0  0
   31.1300   46.5010   -5.5230 C   0  0  0  0  0  0  0  0  0  0  0  0
   29.2130   49.6140   -5.7060 C   0  0  0  0  0  0  0  0  0  0  0  0
   29.6610   48.4220   -6.2580 C   0  0  0  0  0  0  0  0  0  0  0  0
   30.6520   45.5350   -6.3430 C   0  0  0  0  0  0  0  0  0  0  0  0
   28.3760   50.4100   -6.5110 C   0  0  0  0  0  0  0  0  0  0  0  0
   29.3520   47.9800   -7.4960 N   0  0  0  0  0  0  0  0  0  0  0  0
   32.3580   46.2060   -4.8270 C   0  0  0  0  0  0  0  0  0  0  0  0
   27.8410   51.6310   -6.1150 N   0  0  0  0  0  0  0  0  0  0  0  0
   31.2040   44.2990   -6.5920 O   0  0  0  0  0  0  0  0  0  0  0  0
   28.0540   49.9920   -7.7460 N   0  0  0  0  0  0  0  0  0  0  0  0
   28.5520   48.8190   -8.1650 C   0  0  0  0  0  0  0  0  0  0  0  0
   32.7310   45.0660   -4.1020 C   0  0  0  0  0  0  0  0  0  0  0  0
   33.4140   47.1010   -4.7890 O   0  0  0  0  0  0  0  0  0  0  0  0
   31.9130   43.8450   -3.8740 C   0  0  0  0  0  0  0  0  0  0  0  0
   34.4170   46.5500   -4.0670 C   0  0  0  0  0  0  0  0  0  0  0  0
   34.0450   45.3130   -3.6300 C   0  0  0  0  0  0  0  0  0  0  0  0
   34.8380   44.5280   -2.8870 O   0  0  0  0  0  0  0  0  0  0  0  0
  1  2  1  0
  2  3  2  0
  2  4  1  0
  3  5  1  0
  4  6  1  0
  3  7  1  0
  4  8  1  0
  7  8  2  0
  6  9  2  3
  7 10  1  0
  8 11  1  0
  6 12  1  0
 10 13  1  0
  9 14  1  0
 10 15  2  0
 11 16  2  0
 15 16  1  0
 12 17  2  0
 12 18  1  0
 17 19  1  0
 18 20  1  0
 17 21  1  0
 20 21  2  0
 21 22  1  0
M  END
