mac-x0564-mac-x0404
     RDKit          3D

 28 32  0  0  0  0  0  0  0  0999 V2000
   30.8940   45.9770   -5.5180 N   0  0  0  0  0  0  0  0  0  0  0  0
   31.7690   44.9850   -5.8630 C   0  0  0  0  0  0  0  0  0  0  0  0
   32.2420   44.8610   -6.9940 O   0  0  0  0  0  0  0  0  0  0  0  0
   31.3690   47.1380   -5.2040 C   0  0  0  0  0  0  0  0  0  0  0  0
   32.1250   44.0120   -4.7240 C   0  0  0  0  0  0  0  0  0  0  0  0
   30.6700   48.3250   -4.7850 C   0  0  0  0  0  0  0  0  0  0  0  0
   32.7510   47.2960   -5.2610 N   0  0  0  0  0  0  0  0  0  0  0  0
   31.1430   43.7900   -3.7160 O   0  0  0  0  0  0  0  0  0  0  0  0
   31.2930   49.4350   -4.2770 C   0  0  0  0  0  0  0  0  0  0  0  0
   33.2660   48.3800   -4.7600 C   0  0  0  0  0  0  0  0  0  0  0  0
   29.3240   48.5180   -4.8270 O   0  0  0  0  0  0  0  0  0  0  0  0
   32.6330   49.4460   -4.1550 N   0  0  0  0  0  0  0  0  0  0  0  0
   29.1020   49.7690   -4.3330 C   0  0  0  0  0  0  0  0  0  0  0  0
   30.3040   50.3880   -3.9740 C   0  0  0  0  0  0  0  0  0  0  0  0
   30.9450   44.7340   -2.7350 C   0  0  0  0  0  0  0  0  0  0  0  0
   30.2600   51.6910   -3.4440 C   0  0  0  0  0  0  0  0  0  0  0  0
   27.8510   50.3710   -4.1970 C   0  0  0  0  0  0  0  0  0  0  0  0
   29.5960   45.1040   -2.4790 C   0  0  0  0  0  0  0  0  0  0  0  0
   31.9780   45.3270   -2.0040 C   0  0  0  0  0  0  0  0  0  0  0  0
   29.0110   52.3160   -3.2990 C   0  0  0  0  0  0  0  0  0  0  0  0
   27.8320   51.6640   -3.6690 C   0  0  0  0  0  0  0  0  0  0  0  0
   29.3200   46.0750   -1.4820 C   0  0  0  0  0  0  0  0  0  0  0  0
   31.6950   46.2800   -1.0260 C   0  0  0  0  0  0  0  0  0  0  0  0
   28.5010   44.5470   -3.1760 C   0  0  0  0  0  0  0  0  0  0  0  0
   30.3780   46.6500   -0.7690 C   0  0  0  0  0  0  0  0  0  0  0  0
   27.9940   46.4500   -1.2190 C   0  0  0  0  0  0  0  0  0  0  0  0
   27.1870   44.9310   -2.9030 C   0  0  0  0  0  0  0  0  0  0  0  0
   26.9330   45.8830   -1.9230 C   0  0  0  0  0  0  0  0  0  0  0  0
  1  2  1  0
  2  3  2  0
  1  4  2  3
  2  5  1  0
  4  6  1  0
  4  7  1  0
  5  8  1  0
  6  9  2  0
  7 10  2  0
  6 11  1  0
  9 12  1  0
 10 12  1  0
 11 13  1  0
  9 14  1  0
 13 14  2  0
  8 15  1  0
 14 16  1  0
 13 17  1  0
 15 18  1  0
 15 19  2  0
 16 20  2  0
 17 21  2  0
 20 21  1  0
 18 22  2  0
 19 23  1  0
 18 24  1  0
 22 25  1  0
 23 25  2  0
 22 26  1  0
 24 27  2  0
 26 28  2  0
 27 28  1  0
M  END
