mac-x0437-mac-x0212
     RDKit          3D

 29 31  0  0  0  0  0  0  0  0999 V2000
   31.7030   44.5790   -6.9570 O   0  0  0  0  0  0  0  0  0  0  0  0
   32.3240   45.0480   -5.7770 C   0  0  0  0  0  0  0  0  0  0  0  0
   33.3320   45.9640   -6.1960 O   0  0  0  0  0  0  0  0  0  0  0  0
   32.9690   43.9630   -4.9430 C   0  0  0  0  0  0  0  0  0  0  0  0
   31.3110   45.7370   -4.8310 C   0  0  0  0  0  0  0  0  0  0  0  0
   33.1310   44.4150   -3.4900 C   0  0  0  0  0  0  0  0  0  0  0  0
   30.8160   46.9680   -5.3540 N   0  0  0  0  0  0  0  0  0  0  0  0
   30.5110   47.8710   -4.5210 C   0  0  0  0  0  0  0  0  0  0  0  0
   34.1280   45.4370   -3.3130 N   0  0  0  0  0  0  0  0  0  0  0  0
   30.6750   47.6490   -3.2040 O   0  0  0  0  0  0  0  0  0  0  0  0
   33.9970   46.7950   -3.4990 C   0  0  0  0  0  0  0  0  0  0  0  0
   35.3960   45.1830   -2.9270 C   0  0  0  0  0  0  0  0  0  0  0  0
   29.9690   49.1830   -4.7730 C   0  0  0  0  0  0  0  0  0  0  0  0
   35.1310   47.4260   -3.2510 N   0  0  0  0  0  0  0  0  0  0  0  0
   36.0090   46.4270   -2.8940 C   0  0  0  0  0  0  0  0  0  0  0  0
   36.0420   43.9930   -2.6120 C   0  0  0  0  0  0  0  0  0  0  0  0
   29.7220   49.5270   -6.0970 C   0  0  0  0  0  0  0  0  0  0  0  0
   29.7040   50.0600   -3.7270 C   0  0  0  0  0  0  0  0  0  0  0  0
   37.3590   46.5010   -2.5260 C   0  0  0  0  0  0  0  0  0  0  0  0
   37.3820   44.0830   -2.2470 C   0  0  0  0  0  0  0  0  0  0  0  0
   29.1970   50.7760   -6.3860 C   0  0  0  0  0  0  0  0  0  0  0  0
   29.1760   51.3160   -4.0240 C   0  0  0  0  0  0  0  0  0  0  0  0
   38.0330   45.3170   -2.2050 C   0  0  0  0  0  0  0  0  0  0  0  0
   28.9250   51.6640   -5.3560 C   0  0  0  0  0  0  0  0  0  0  0  0
   28.3910   52.9440   -5.6300 N   0  0  0  0  0  0  0  0  0  0  0  0
   29.3530   54.3010   -5.4280 S   0  0  0  0  0  0  0  0  0  0  0  0
   30.7750   53.9380   -6.4420 C   0  0  0  0  0  0  0  0  0  0  0  0
   28.6770   55.4570   -5.9700 O   0  0  0  0  0  0  0  0  0  0  0  0
   29.7840   54.2590   -4.0480 O   0  0  0  0  0  0  0  0  0  0  0  0
  2  1  1  0
  2  3  1  0
  2  4  1  0
  2  5  1  0
  4  6  1  0
  5  7  1  0
  7  8  2  3
  6  9  1  0
  8 10  1  0
  9 11  1  0
  9 12  1  0
  8 13  1  0
 11 14  2  0
 12 15  2  0
 14 15  1  0
 12 16  1  0
 13 17  2  0
 13 18  1  0
 15 19  1  0
 16 20  2  0
 17 21  1  0
 18 22  2  0
 19 23  2  0
 20 23  1  0
 21 24  2  0
 22 24  1  0
 24 25  1  0
 26 25  1  0
 26 27  1  0
 26 28  2  0
 26 29  2  0
M  END
