mac-x0137-mac-x0345
     RDKit          3D

 25 28  0  0  0  0  0  0  0  0999 V2000
   31.2990   47.6420   -3.7400 F   0  0  0  0  0  0  0  0  0  0  0  0
   31.3830   46.4000   -4.3080 C   0  0  2  0  0  0  0  0  0  0  0  0
   32.7100   46.3260   -5.0630 C   0  0  0  0  0  0  0  0  0  0  0  0
   30.1390   46.1930   -5.1940 C   0  0  0  0  0  0  0  0  0  0  0  0
   30.2340   46.7220   -6.5710 N   0  0  0  0  0  0  0  0  0  0  0  0
   32.6720   47.1880   -6.3160 C   0  0  0  0  0  0  0  0  0  0  0  0
   31.5450   46.7250   -7.2410 C   0  0  0  0  0  0  0  0  0  0  0  0
   29.3790   47.7870   -6.8930 C   0  0  0  0  0  0  0  0  0  0  0  0
   28.3060   47.5750   -7.7010 N   0  0  0  0  0  0  0  0  0  0  0  0
   29.5730   49.0990   -6.4140 C   0  0  0  0  0  0  0  0  0  0  0  0
   27.4910   48.6050   -8.0030 C   0  0  0  0  0  0  0  0  0  0  0  0
   28.6530   50.0690   -6.8030 C   0  0  0  0  0  0  0  0  0  0  0  0
   30.5290   49.7460   -5.5750 C   0  0  0  0  0  0  0  0  0  0  0  0
   27.5850   49.8790   -7.6010 N   0  0  0  0  0  0  0  0  0  0  0  0
   29.0370   51.2560   -6.2180 N   0  0  0  0  0  0  0  0  0  0  0  0
   30.1740   51.0700   -5.4740 C   0  0  0  0  0  0  0  0  0  0  0  0
   28.3710   52.4870   -6.3520 O   0  0  0  0  0  0  0  0  0  0  0  0
   28.3240   53.0770   -5.1150 C   0  0  0  0  0  0  0  0  0  0  0  0
   28.8070   54.3550   -4.8430 C   0  0  0  0  0  0  0  0  0  0  0  0
   27.7610   52.3430   -4.0750 C   0  0  0  0  0  0  0  0  0  0  0  0
   29.4290   55.2170   -5.8960 C   0  0  0  0  0  0  0  0  0  0  0  0
   27.6960   52.8990   -2.8020 C   0  0  0  0  0  0  0  0  0  0  0  0
   28.7420   54.8980   -3.5970 N   0  0  0  0  0  0  0  0  0  0  0  0
   28.1970   54.1790   -2.6020 C   0  0  0  0  0  0  0  0  0  0  0  0
   28.1440   54.7610   -1.3320 N   0  0  0  0  0  0  0  0  0  0  0  0
  2  1  1  6
  2  3  1  0
  2  4  1  0
  4  5  1  0
  3  6  1  0
  5  7  1  0
  6  7  1  0
  5  8  1  0
  8  9  2  0
  8 10  1  0
  9 11  1  0
 10 12  2  0
 10 13  1  0
 11 14  2  0
 12 14  1  0
 12 15  1  0
 13 16  2  0
 15 16  1  0
 15 17  1  0
 17 18  1  0
 18 19  2  0
 18 20  1  0
 19 21  1  0
 20 22  2  0
 19 23  1  0
 22 24  1  0
 23 24  2  0
 24 25  1  0
M  END
