mac-x0348-mac-x0373
     RDKit          3D

 29 32  0  0  0  0  0  0  0  0999 V2000
   27.3230   43.9570   -1.1660 C   0  0  0  0  0  0  0  0  0  0  0  0
   28.2610   44.9580   -1.6220 N   0  0  0  0  0  0  0  0  0  0  0  0
   28.7280   45.0610   -2.9030 C   0  0  0  0  0  0  0  0  0  0  0  0
   28.8150   45.9440   -0.8360 C   0  0  0  0  0  0  0  0  0  0  0  0
   29.6070   46.1310   -2.9820 C   0  0  0  0  0  0  0  0  0  0  0  0
   29.6630   46.6960   -1.6540 C   0  0  0  0  0  0  0  0  0  0  0  0
   28.6330   46.2300    0.5290 C   0  0  0  0  0  0  0  0  0  0  0  0
   30.3440   46.5880   -4.2380 C   0  0  1  0  0  0  0  0  0  0  0  0
   30.3530   47.7800   -1.0570 C   0  0  0  0  0  0  0  0  0  0  0  0
   29.3300   47.3060    1.0800 C   0  0  0  0  0  0  0  0  0  0  0  0
   31.4760   45.5930   -4.6320 C   0  0  0  0  0  0  0  0  0  0  0  0
   29.4350   46.6260   -5.3780 O   0  0  0  0  0  0  0  0  0  0  0  0
   30.8950   48.0790   -4.0910 C   0  0  0  0  0  0  0  0  0  0  0  0
   30.1800   48.0740    0.2980 C   0  0  0  0  0  0  0  0  0  0  0  0
   31.4580   45.2300   -6.1030 C   0  0  0  0  0  0  0  0  0  0  0  0
   32.4060   48.2830   -3.9690 C   0  0  0  0  0  0  0  0  0  0  0  0
   30.1670   49.2260   -4.8140 C   0  0  0  0  0  0  0  0  0  0  0  0
   30.4340   45.1560   -6.7700 O   0  0  0  0  0  0  0  0  0  0  0  0
   32.6710   44.9820   -6.6430 O   0  0  0  0  0  0  0  0  0  0  0  0
   33.1840   47.5660   -3.0490 C   0  0  0  0  0  0  0  0  0  0  0  0
   33.0530   49.2190   -4.7960 C   0  0  0  0  0  0  0  0  0  0  0  0
   29.5840   50.2360   -4.0220 C   0  0  0  0  0  0  0  0  0  0  0  0
   30.0440   49.3360   -6.2040 C   0  0  0  0  0  0  0  0  0  0  0  0
   34.5610   47.7730   -2.9570 C   0  0  0  0  0  0  0  0  0  0  0  0
   34.4320   49.4260   -4.7030 C   0  0  0  0  0  0  0  0  0  0  0  0
   28.9070   51.3100   -4.6010 C   0  0  0  0  0  0  0  0  0  0  0  0
   29.3660   50.4140   -6.7860 C   0  0  0  0  0  0  0  0  0  0  0  0
   35.1840   48.7020   -3.7830 C   0  0  0  0  0  0  0  0  0  0  0  0
   28.7980   51.4010   -5.9820 C   0  0  0  0  0  0  0  0  0  0  0  0
  1  2  1  0
  2  3  1  0
  2  4  1  0
  3  5  2  0
  4  6  2  0
  5  6  1  0
  4  7  1  0
  5  8  1  0
  6  9  1  0
  7 10  2  0
  8 11  1  0
  8 12  1  6
  8 13  1  0
  9 14  2  0
 10 14  1  0
 11 15  1  0
 13 16  1  0
 13 17  1  0
 15 18  2  0
 15 19  1  0
 16 20  2  0
 16 21  1  0
 17 22  2  0
 17 23  1  0
 20 24  1  0
 21 25  2  0
 22 26  1  0
 23 27  2  0
 24 28  2  0
 25 28  1  0
 26 29  2  0
 27 29  1  0
M  END
