mac-x0472-mac-x0392
     RDKit          3D

 17 18  0  0  0  0  0  0  0  0999 V2000
   29.7480   50.3230   -3.4900 O   0  0  0  0  0  0  0  0  0  0  0  0
   30.7590   49.4290   -4.0120 S   0  0  0  0  0  0  0  0  0  0  0  0
   31.2880   48.3660   -3.1720 O   0  0  0  0  0  0  0  0  0  0  0  0
   30.1970   48.6560   -5.4440 N   0  0  0  0  0  0  0  0  0  0  0  0
   32.1560   50.3670   -4.5830 C   0  0  0  0  0  0  0  0  0  0  0  0
   29.9900   47.2170   -5.1680 O   0  0  0  0  0  0  0  0  0  0  0  0
   29.1640   49.3430   -6.2660 C   0  0  2  0  0  0  0  0  0  0  0  0
   33.3050   49.6830   -4.9960 C   0  0  0  0  0  0  0  0  0  0  0  0
   32.1110   51.7660   -4.6240 C   0  0  0  0  0  0  0  0  0  0  0  0
   29.4060   49.2090   -7.7080 N   0  0  0  0  0  0  0  0  0  0  0  0
   29.1910   51.1560   -5.7170 S   0  0  0  0  0  0  0  0  0  0  0  0
   34.4120   50.3990   -5.4520 C   0  0  0  0  0  0  0  0  0  0  0  0
   33.2240   52.4780   -5.0810 C   0  0  0  0  0  0  0  0  0  0  0  0
   29.1170   47.8750   -8.1600 N   0  0  0  0  0  0  0  0  0  0  0  0
   28.5880   51.2020   -7.4420 C   0  0  0  0  0  0  0  0  0  0  0  0
   28.4800   50.0710   -8.1650 N   0  0  0  0  0  0  0  0  0  0  0  0
   34.3690   51.7920   -5.4920 C   0  0  0  0  0  0  0  0  0  0  0  0
  1  2  2  0
  2  3  2  0
  2  4  1  0
  2  5  1  0
  4  6  1  0
  7  4  1  1
  5  8  2  0
  5  9  1  0
  7 10  1  0
  7 11  1  0
  8 12  1  0
  9 13  2  0
 10 14  1  0
 11 15  2  0
 10 16  1  0
 15 16  1  0
 12 17  2  0
 13 17  1  0
M  END
