mac-x0404-mac-x0472
     RDKit          3D

 30 33  0  0  0  0  0  0  0  0999 V2000
   32.0800   43.8840   -6.8800 O   0  0  0  0  0  0  0  0  0  0  0  0
   33.0370   44.3000   -6.0240 C   0  0  0  0  0  0  0  0  0  0  0  0
   34.1790   44.4730   -6.4270 O   0  0  0  0  0  0  0  0  0  0  0  0
   32.5640   44.5140   -4.5980 C   0  0  0  0  0  0  0  0  0  0  0  0
   31.1790   44.8400   -4.5420 O   0  0  0  0  0  0  0  0  0  0  0  0
   30.7770   45.7870   -3.6280 C   0  0  0  0  0  0  0  0  0  0  0  0
   29.7570   45.3920   -2.7180 C   0  0  0  0  0  0  0  0  0  0  0  0
   31.3070   47.0790   -3.5570 C   0  0  0  0  0  0  0  0  0  0  0  0
   29.2940   46.3170   -1.7530 C   0  0  0  0  0  0  0  0  0  0  0  0
   30.8410   47.9760   -2.6020 C   0  0  0  0  0  0  0  0  0  0  0  0
   29.1760   44.1040   -2.7320 C   0  0  0  0  0  0  0  0  0  0  0  0
   31.4020   49.3260   -2.5350 N   0  0  0  0  0  0  0  0  0  0  0  0
   29.8440   47.6050   -1.7050 C   0  0  0  0  0  0  0  0  0  0  0  0
   28.2870   45.9430   -0.8460 C   0  0  0  0  0  0  0  0  0  0  0  0
   28.1760   43.7460   -1.8260 C   0  0  0  0  0  0  0  0  0  0  0  0
   30.8400   50.4160   -3.4600 S   0  0  2  0  0  0  0  0  0  0  0  0
   27.7320   44.6650   -0.8840 C   0  0  0  0  0  0  0  0  0  0  0  0
   30.0690   51.5720   -3.0540 O   0  0  0  0  0  0  0  0  0  0  0  0
   29.8490   49.5880   -4.5350 N   0  0  0  0  0  0  0  0  0  0  0  0
   32.2200   51.0100   -4.4190 C   0  0  0  0  0  0  0  0  0  0  0  0
   29.4220   50.1420   -5.6970 C   0  0  0  0  0  0  0  0  0  0  0  0
   33.2190   50.1100   -4.8090 C   0  0  0  0  0  0  0  0  0  0  0  0
   32.2940   52.3590   -4.7730 C   0  0  0  0  0  0  0  0  0  0  0  0
   28.6450   49.4740   -6.5360 N   0  0  0  0  0  0  0  0  0  0  0  0
   29.7890   51.7310   -6.2760 S   0  0  0  0  0  0  0  0  0  0  0  0
   34.2990   50.5700   -5.5600 C   0  0  0  0  0  0  0  0  0  0  0  0
   33.3790   52.8100   -5.5250 C   0  0  0  0  0  0  0  0  0  0  0  0
   28.8410   51.3870   -7.6550 C   0  0  0  0  0  0  0  0  0  0  0  0
   28.3080   50.1880   -7.6680 N   0  0  0  0  0  0  0  0  0  0  0  0
   34.3790   51.9160   -5.9180 C   0  0  0  0  0  0  0  0  0  0  0  0
  1  2  1  0
  2  3  2  0
  2  4  1  0
  4  5  1  0
  5  6  1  0
  6  7  2  0
  6  8  1  0
  7  9  1  0
  8 10  2  0
  7 11  1  0
 10 12  1  0
  9 13  2  0
 10 13  1  0
  9 14  1  0
 11 15  2  0
 12 16  2  0
 14 17  2  0
 15 17  1  0
 16 18  2  0
 16 19  1  6
 16 20  1  0
 19 21  1  0
 20 22  2  0
 20 23  1  0
 21 24  2  0
 21 25  1  0
 22 26  1  0
 23 27  2  0
 25 28  1  0
 24 29  1  0
 28 29  2  0
 26 30  2  0
 27 30  1  0
M  END
