mac-x0555-mac-x0572
     RDKit          3D

 12 13  0  0  0  0  0  0  0  0999 V2000
   29.1310   55.5410   -6.8150 N   0  0  0  0  0  0  0  0  0  0  0  0
   29.2990   54.4910   -5.8850 C   0  0  0  0  0  0  0  0  0  0  0  0
   29.7200   54.7560   -4.5810 C   0  0  0  0  0  0  0  0  0  0  0  0
   29.0590   53.1650   -6.2060 C   0  0  0  0  0  0  0  0  0  0  0  0
   29.9640   56.0640   -4.2410 O   0  0  0  0  0  0  0  0  0  0  0  0
   29.2450   52.1670   -5.2310 C   0  0  0  0  0  0  0  0  0  0  0  0
   29.9120   53.8430   -3.6160 N   0  0  0  0  0  0  0  0  0  0  0  0
   29.6760   52.5590   -3.9400 C   0  0  0  0  0  0  0  0  0  0  0  0
   29.0140   50.8090   -5.5140 C   0  0  0  0  0  0  0  0  0  0  0  0
   29.8590   51.5730   -2.9820 C   0  0  0  0  0  0  0  0  0  0  0  0
   29.2060   49.8400   -4.5310 C   0  0  0  0  0  0  0  0  0  0  0  0
   29.6300   50.2230   -3.2630 C   0  0  0  0  0  0  0  0  0  0  0  0
  1  2  1  0
  2  3  2  0
  2  4  1  0
  3  5  1  0
  4  6  2  0
  3  7  1  0
  6  8  1  0
  7  8  2  0
  6  9  1  0
  8 10  1  0
  9 11  2  0
 10 12  2  0
 11 12  1  0
M  END
