mac-x0404-mac-x0358
     RDKit          3D

 16 17  0  0  0  0  0  0  0  0999 V2000
   31.9630   45.4070   -6.9760 O   0  0  0  0  0  0  0  0  0  0  0  0
   33.0030   45.2350   -6.1350 C   0  0  0  0  0  0  0  0  0  0  0  0
   34.1520   45.3650   -6.5310 O   0  0  0  0  0  0  0  0  0  0  0  0
   32.5680   44.8760   -4.7250 C   0  0  0  0  0  0  0  0  0  0  0  0
   31.2120   45.3080   -4.5360 O   0  0  0  0  0  0  0  0  0  0  0  0
   31.0160   45.9780   -3.3440 C   0  0  0  0  0  0  0  0  0  0  0  0
   29.8690   45.7030   -2.5600 C   0  0  0  0  0  0  0  0  0  0  0  0
   31.9560   46.9300   -2.9220 C   0  0  0  0  0  0  0  0  0  0  0  0
   33.0800   47.2310   -3.6420 O   0  0  0  0  0  0  0  0  0  0  0  0
   29.6930   46.4100   -1.3480 C   0  0  0  0  0  0  0  0  0  0  0  0
   31.7750   47.6160   -1.7320 C   0  0  0  0  0  0  0  0  0  0  0  0
   28.8910   44.7560   -2.9320 C   0  0  0  0  0  0  0  0  0  0  0  0
   30.6510   47.3580   -0.9500 C   0  0  0  0  0  0  0  0  0  0  0  0
   28.5640   46.1580   -0.5530 C   0  0  0  0  0  0  0  0  0  0  0  0
   27.7730   44.5180   -2.1280 C   0  0  0  0  0  0  0  0  0  0  0  0
   27.6100   45.2190   -0.9400 C   0  0  0  0  0  0  0  0  0  0  0  0
  1  2  1  0
  2  3  2  0
  2  4  1  0
  4  5  1  0
  5  6  1  0
  6  7  2  0
  6  8  1  0
  8  9  1  0
  7 10  1  0
  8 11  2  0
  7 12  1  0
 10 13  2  0
 11 13  1  0
 10 14  1  0
 12 15  2  0
 14 16  2  0
 15 16  1  0
M  END
