mac-x0148-mac-x0451
     RDKit          3D

 23 27  0  0  0  0  0  0  0  0999 V2000
   29.3980   50.2150   -3.9220 F   0  0  0  0  0  0  0  0  0  0  0  0
   29.3980   50.1710   -5.2600 C   0  0  0  0  0  0  0  0  0  0  0  0
   29.7220   49.0360   -6.0710 C   0  0  0  0  0  0  0  0  0  0  0  0
   29.0780   51.2350   -6.0670 C   0  0  0  0  0  0  0  0  0  0  0  0
   29.5830   49.4610   -7.3980 C   0  0  0  0  0  0  0  0  0  0  0  0
   30.1170   47.6960   -5.8670 C   0  0  0  0  0  0  0  0  0  0  0  0
   29.2040   50.7600   -7.3340 N   0  0  0  0  0  0  0  0  0  0  0  0
   28.6960   52.5410   -5.9550 N   0  0  0  0  0  0  0  0  0  0  0  0
   30.2990   47.1220   -4.5980 N   0  0  0  0  0  0  0  0  0  0  0  0
   30.3270   46.9340   -6.9780 N   0  0  0  0  0  0  0  0  0  0  0  0
   29.7860   48.7270   -8.5060 N   0  0  0  0  0  0  0  0  0  0  0  0
   28.5410   53.0290   -7.1500 C   0  0  0  0  0  0  0  0  0  0  0  0
   28.8500   51.9320   -8.5010 S   0  0  0  0  0  0  0  0  0  0  0  0
   28.1640   54.2950   -7.4470 N   0  0  0  0  0  0  0  0  0  0  0  0
   31.1700   47.9070   -3.6850 C   0  0  1  0  0  0  0  0  0  0  0  0
   30.5220   45.6750   -4.6030 C   0  0  0  0  0  0  0  0  0  0  0  0
   30.1560   47.4740   -8.2000 C   0  0  0  0  0  0  0  0  0  0  0  0
   30.6800   47.9860   -2.2290 C   0  0  0  0  0  0  0  0  0  0  0  0
   32.5620   47.2920   -3.5500 C   0  0  1  0  0  0  0  0  0  0  0  0
   31.9380   45.3630   -5.0990 C   0  0  0  0  0  0  0  0  0  0  0  0
   32.5020   46.5640   -2.2190 C   0  0  0  0  0  0  0  0  0  0  0  0
   31.6680   47.3670   -1.3830 O   0  0  0  0  0  0  0  0  0  0  0  0
   32.9830   46.4170   -4.7230 C   0  0  0  0  0  0  0  0  0  0  0  0
  1  2  1  0
  2  3  1  0
  2  4  2  0
  3  5  2  0
  3  6  1  0
  4  7  1  0
  5  7  1  0
  4  8  1  0
  6  9  1  0
  6 10  2  0
  5 11  1  0
  8 12  2  0
  7 13  1  0
 12 13  1  0
 12 14  1  0
  9 15  1  0
  9 16  1  0
 10 17  1  0
 11 17  2  0
 15 18  1  1
 15 19  1  0
 16 20  1  0
 19 21  1  1
 18 22  1  0
 21 22  1  0
 19 23  1  0
 20 23  1  0
M  END
