mac-x0226-mac-x0123
     RDKit          3D

 30 34  0  0  0  0  0  0  0  0999 V2000
   31.8730   45.7630   -6.7420 O   0  0  0  0  0  0  0  0  0  0  0  0
   32.8140   46.4520   -5.9350 C   0  0  0  0  0  0  0  0  0  0  0  0
   33.8420   46.8670   -6.8220 O   0  0  0  0  0  0  0  0  0  0  0  0
   32.1080   47.7010   -5.3530 C   0  0  0  0  0  0  0  0  0  0  0  0
   33.3670   45.5530   -4.8720 C   0  0  0  0  0  0  0  0  0  0  0  0
   30.7600   47.4150   -4.6590 C   0  0  0  0  0  0  0  0  0  0  0  0
   32.8990   44.2880   -4.4630 C   0  0  0  0  0  0  0  0  0  0  0  0
   34.4540   45.7700   -4.0560 C   0  0  0  0  0  0  0  0  0  0  0  0
   30.4550   48.3760   -3.4950 C   0  0  0  0  0  0  0  0  0  0  0  0
   33.6260   43.7600   -3.4750 N   0  0  0  0  0  0  0  0  0  0  0  0
   34.5880   44.6860   -3.2260 N   0  0  0  0  0  0  0  0  0  0  0  0
   35.5690   44.4970   -2.2210 C   0  0  0  0  0  0  0  0  0  0  0  0
   30.1410   49.7740   -3.9260 C   0  0  0  0  0  0  0  0  0  0  0  0
   36.4430   45.5560   -1.9290 C   0  0  0  0  0  0  0  0  0  0  0  0
   35.6830   43.2920   -1.5190 C   0  0  0  0  0  0  0  0  0  0  0  0
   30.4020   50.8750   -3.1530 N   0  0  0  0  0  0  0  0  0  0  0  0
   29.5810   50.0320   -5.1110 N   0  0  0  0  0  0  0  0  0  0  0  0
   37.4190   45.4120   -0.9450 C   0  0  0  0  0  0  0  0  0  0  0  0
   36.6660   43.1580   -0.5340 C   0  0  0  0  0  0  0  0  0  0  0  0
   29.4860   51.3870   -5.0990 N   0  0  0  0  0  0  0  0  0  0  0  0
   29.9940   51.8910   -3.8910 C   0  0  0  0  0  0  0  0  0  0  0  0
   37.5300   44.2120   -0.2470 C   0  0  0  0  0  0  0  0  0  0  0  0
   28.9700   52.2370   -6.1120 C   0  0  0  0  0  0  0  0  0  0  0  0
   30.0220   53.2360   -3.6160 N   0  0  0  0  0  0  0  0  0  0  0  0
   28.4810   51.6600   -7.2750 N   0  0  0  0  0  0  0  0  0  0  0  0
   29.5510   53.9950   -4.5590 C   0  0  0  0  0  0  0  0  0  0  0  0
   28.9950   53.5510   -5.8680 C   0  0  0  0  0  0  0  0  0  0  0  0
   28.5770   54.7560   -6.6340 C   0  0  0  0  0  0  0  0  0  0  0  0
   29.4950   55.4900   -4.4760 C   0  0  0  0  0  0  0  0  0  0  0  0
   29.3670   55.8770   -5.9530 C   0  0  0  0  0  0  0  0  0  0  0  0
  2  1  1  0
  2  3  1  0
  2  4  1  0
  2  5  1  0
  4  6  1  0
  5  7  1  0
  5  8  2  0
  6  9  1  0
  7 10  2  0
  8 11  1  0
 10 11  1  0
 11 12  1  0
  9 13  1  0
 12 14  2  0
 12 15  1  0
 13 16  1  0
 13 17  2  0
 14 18  1  0
 15 19  2  0
 17 20  1  0
 16 21  2  0
 20 21  1  0
 18 22  2  0
 19 22  1  0
 20 23  1  0
 21 24  1  0
 23 25  1  0
 24 26  2  0
 23 27  2  0
 26 27  1  0
 27 28  1  0
 26 29  1  0
 28 30  1  0
 29 30  1  0
M  END
