mac-x0341-mac-x0159
     RDKit          3D

 23 26  0  0  0  0  0  0  0  0999 V2000
   28.7070   54.7190   -6.6360 N   0  0  0  0  0  0  0  0  0  0  0  0
   28.9000   53.4630   -6.1440 C   0  0  0  0  0  0  0  0  0  0  0  0
   28.5710   52.4710   -6.9600 N   0  0  0  0  0  0  0  0  0  0  0  0
   29.3700   53.2630   -4.9620 N   0  0  0  0  0  0  0  0  0  0  0  0
   29.5870   51.9980   -4.4140 C   0  0  0  0  0  0  0  0  0  0  0  0
   28.7750   51.2520   -6.5870 C   0  0  0  0  0  0  0  0  0  0  0  0
   29.9510   51.9010   -3.2560 O   0  0  0  0  0  0  0  0  0  0  0  0
   29.3590   50.7940   -5.3030 C   0  0  0  0  0  0  0  0  0  0  0  0
   28.3750   50.2880   -7.5930 C   0  0  0  0  0  0  0  0  0  0  0  0
   27.7650   50.8520   -8.6740 N   0  0  0  0  0  0  0  0  0  0  0  0
   28.6330   49.0300   -7.3900 C   0  0  0  0  0  0  0  0  0  0  0  0
   29.6200   49.4060   -5.0720 C   0  0  0  0  0  0  0  0  0  0  0  0
   30.2150   48.5730   -3.8860 C   0  0  0  0  0  0  0  0  0  0  0  0
   29.2770   48.5180   -6.1990 C   0  0  0  0  0  0  0  0  0  0  0  0
   28.3690   48.0030   -8.2320 N   0  0  0  0  0  0  0  0  0  0  0  0
   29.5410   47.2440   -3.4180 C   0  0  0  0  0  0  0  0  0  0  0  0
   29.4520   47.2440   -6.3780 N   0  0  0  0  0  0  0  0  0  0  0  0
   28.8830   46.9930   -7.6150 C   0  0  0  0  0  0  0  0  0  0  0  0
   29.3120   46.0390   -4.1050 C   0  0  0  0  0  0  0  0  0  0  0  0
   29.0800   47.1850   -2.0990 N   0  0  0  0  0  0  0  0  0  0  0  0
   28.5360   46.0160   -1.8100 C   0  0  0  0  0  0  0  0  0  0  0  0
   28.5290   44.8810   -3.0940 S   0  0  0  0  0  0  0  0  0  0  0  0
   27.9600   45.6590   -0.4830 C   0  0  0  0  0  0  0  0  0  0  0  0
  1  2  1  0
  2  3  1  0
  2  4  2  0
  4  5  1  0
  3  6  2  0
  5  7  2  0
  5  8  1  0
  6  8  1  0
  6  9  1  0
  9 10  1  0
  9 11  2  0
  8 12  2  0
 12 13  1  0
 11 14  1  0
 12 14  1  0
 11 15  1  0
 13 16  1  0
 14 17  2  0
 15 18  2  0
 17 18  1  0
 16 19  2  0
 16 20  1  0
 20 21  2  0
 19 22  1  0
 21 22  1  0
 21 23  1  0
M  END
