mac-x0415-mac-x0396
     RDKit          3D

 26 28  0  0  0  0  0  0  0  0999 V2000
   33.6600   46.5690   -5.9770 O   0  0  0  0  0  0  0  0  0  0  0  0
   32.4590   46.0120   -5.7290 C   0  0  0  0  0  0  0  0  0  0  0  0
   31.3820   46.2360   -6.3860 N   0  0  0  0  0  0  0  0  0  0  0  0
   32.4740   45.0600   -4.5560 C   0  0  0  0  0  0  0  0  0  0  0  0
   31.3270   47.1620   -7.5100 C   0  0  0  0  0  0  0  0  0  0  0  0
   31.1170   45.0460   -3.9670 C   0  0  0  0  0  0  0  0  0  0  0  0
   30.4960   48.4100   -7.1930 C   0  0  0  0  0  0  0  0  0  0  0  0
   30.1390   43.9580   -4.1210 C   0  0  0  0  0  0  0  0  0  0  0  0
   30.4340   45.8870   -3.1890 C   0  0  0  0  0  0  0  0  0  0  0  0
   29.6770   48.3790   -5.8940 C   0  0  0  0  0  0  0  0  0  0  0  0
   28.9750   44.0710   -3.5400 N   0  0  0  0  0  0  0  0  0  0  0  0
   29.0490   45.4040   -2.9210 C   0  0  1  0  0  0  0  0  0  0  0  0
   30.8090   47.1460   -2.6030 C   0  0  0  0  0  0  0  0  0  0  0  0
   29.8240   49.6740   -5.2100 N   0  0  0  0  0  0  0  0  0  0  0  0
   28.7050   45.5510   -1.4770 C   0  0  0  0  0  0  0  0  0  0  0  0
   30.2410   47.4680   -1.4150 C   0  0  0  0  0  0  0  0  0  0  0  0
   30.6320   49.0590   -0.5220 Br  0  0  0  0  0  0  0  0  0  0  0  0
   29.3060   50.7400   -5.7230 C   0  0  0  0  0  0  0  0  0  0  0  0
   29.2850   46.5510   -0.7790 C   0  0  0  0  0  0  0  0  0  0  0  0
   28.6210   50.5950   -6.8970 N   0  0  0  0  0  0  0  0  0  0  0  0
   29.4050   52.1020   -5.1590 C   0  0  0  0  0  0  0  0  0  0  0  0
   29.7850   52.2840   -3.8370 C   0  0  0  0  0  0  0  0  0  0  0  0
   29.1260   53.2150   -5.9410 C   0  0  0  0  0  0  0  0  0  0  0  0
   29.9010   53.5090   -3.2650 N   0  0  0  0  0  0  0  0  0  0  0  0
   29.2380   54.4820   -5.3750 C   0  0  0  0  0  0  0  0  0  0  0  0
   29.6260   54.5770   -4.0460 C   0  0  0  0  0  0  0  0  0  0  0  0
  1  2  1  0
  2  3  2  3
  2  4  1  0
  3  5  1  0
  4  6  1  0
  5  7  1  0
  6  8  1  0
  6  9  2  0
  7 10  1  0
  8 11  2  0
  9 12  1  0
 11 12  1  0
  9 13  1  0
 10 14  1  0
 12 15  1  1
 13 16  2  0
 16 17  1  0
 14 18  2  3
 15 19  2  0
 16 19  1  0
 18 20  1  0
 18 21  1  0
 21 22  2  0
 21 23  1  0
 22 24  1  0
 23 25  2  0
 24 26  2  0
 25 26  1  0
M  END
