mac-x0441-mac-x0277
     RDKit          3D

 25 27  0  0  0  0  0  0  0  0999 V2000
   34.1440   45.5670   -6.1270 O   0  0  0  0  0  0  0  0  0  0  0  0
   32.8520   45.3490   -5.7740 C   0  0  0  0  0  0  0  0  0  0  0  0
   31.9840   45.5530   -6.6100 O   0  0  0  0  0  0  0  0  0  0  0  0
   32.6780   44.8560   -4.3490 C   0  0  1  0  0  0  0  0  0  0  0  0
   33.9660   44.8060   -3.6050 N   0  0  0  0  0  0  0  0  0  0  0  0
   31.4400   45.3230   -3.5350 C   0  0  0  0  0  0  0  0  0  0  0  0
   34.2840   43.6090   -3.0450 N   0  0  0  0  0  0  0  0  0  0  0  0
   34.9510   45.7480   -3.3580 C   0  0  0  0  0  0  0  0  0  0  0  0
   31.4020   46.4670   -2.7140 C   0  0  0  0  0  0  0  0  0  0  0  0
   30.2510   44.5530   -3.6110 C   0  0  0  0  0  0  0  0  0  0  0  0
   35.4750   43.7770   -2.4420 C   0  0  0  0  0  0  0  0  0  0  0  0
   35.9320   45.1070   -2.6130 C   0  0  0  0  0  0  0  0  0  0  0  0
   35.0180   47.1760   -3.7800 C   0  0  0  0  0  0  0  0  0  0  0  0
   30.2380   46.8180   -2.0050 C   0  0  0  0  0  0  0  0  0  0  0  0
   29.0920   44.9050   -2.9020 C   0  0  0  0  0  0  0  0  0  0  0  0
   36.1750   42.6650   -1.7060 C   0  0  0  0  0  0  0  0  0  0  0  0
   30.3050   48.2410   -1.0260 Cl  0  0  0  0  0  0  0  0  0  0  0  0
   37.1830   45.7670   -2.1360 C   0  0  0  0  0  0  0  0  0  0  0  0
   36.1070   47.9180   -2.9740 C   0  0  0  0  0  0  0  0  0  0  0  0
   29.0840   46.0420   -2.0950 C   0  0  0  0  0  0  0  0  0  0  0  0
   37.2690   42.1840   -2.3550 F   0  0  0  0  0  0  0  0  0  0  0  0
   36.5910   43.0570   -0.4700 F   0  0  0  0  0  0  0  0  0  0  0  0
   35.3480   41.6000   -1.5090 F   0  0  0  0  0  0  0  0  0  0  0  0
   27.6330   46.4310   -1.2390 Cl  0  0  0  0  0  0  0  0  0  0  0  0
   37.4100   47.1080   -2.8570 C   0  0  0  0  0  0  0  0  0  0  0  0
  1  2  1  0
  2  3  2  0
  4  2  1  6
  4  5  1  0
  4  6  1  0
  5  7  1  0
  5  8  1  0
  6  9  2  0
  6 10  1  0
  7 11  2  0
  8 12  2  0
 11 12  1  0
  8 13  1  0
  9 14  1  0
 10 15  2  0
 11 16  1  0
 14 17  1  0
 12 18  1  0
 13 19  1  0
 14 20  2  0
 15 20  1  0
 16 21  1  0
 16 22  1  0
 16 23  1  0
 20 24  1  0
 18 25  1  0
 19 25  1  0
M  END
