mac-x0373-mac-x0223
     RDKit          3D

 27 29  0  0  0  0  0  0  0  0999 V2000
   29.2830   47.1660   -5.5790 O   0  0  0  0  0  0  0  0  0  0  0  0
   30.7730   46.7140   -5.0520 S   0  0  0  0  0  0  0  0  0  0  0  0
   30.7060   46.6320   -7.0680 O   0  0  0  0  0  0  0  0  0  0  0  0
   31.1010   48.2040   -4.6260 C   0  0  0  0  0  0  0  0  0  0  0  0
   30.2630   45.3510   -4.5010 C   0  0  0  0  0  0  0  0  0  0  0  0
   32.1040   46.3000   -5.4590 O   0  0  0  0  0  0  0  0  0  0  0  0
   32.5660   48.5040   -4.4570 C   0  0  0  0  0  0  0  0  0  0  0  0
   30.5580   49.4260   -5.2770 C   0  0  0  0  0  0  0  0  0  0  0  0
   29.7590   45.3420   -3.1000 C   0  0  0  0  0  0  0  0  0  0  0  0
   33.3510   47.7560   -3.5980 C   0  0  0  0  0  0  0  0  0  0  0  0
   33.2000   49.5350   -5.1450 C   0  0  0  0  0  0  0  0  0  0  0  0
   30.0730   50.4840   -4.5270 C   0  0  0  0  0  0  0  0  0  0  0  0
   30.4930   49.6060   -6.6500 C   0  0  0  0  0  0  0  0  0  0  0  0
   30.3780   46.0740   -2.0970 C   0  0  0  0  0  0  0  0  0  0  0  0
   28.6550   44.6110   -2.7110 C   0  0  0  0  0  0  0  0  0  0  0  0
   34.6930   47.9790   -3.3970 C   0  0  0  0  0  0  0  0  0  0  0  0
   34.5530   49.7800   -4.9590 C   0  0  0  0  0  0  0  0  0  0  0  0
   29.5660   51.6270   -5.1080 C   0  0  0  0  0  0  0  0  0  0  0  0
   29.9950   50.7330   -7.2590 C   0  0  0  0  0  0  0  0  0  0  0  0
   28.1530   44.5680   -1.4320 C   0  0  0  0  0  0  0  0  0  0  0  0
   29.9050   46.0570   -0.8070 C   0  0  0  0  0  0  0  0  0  0  0  0
   27.0340   43.8030   -1.1390 O   0  0  0  0  0  0  0  0  0  0  0  0
   35.3040   49.0170   -4.0950 C   0  0  0  0  0  0  0  0  0  0  0  0
   29.5220   51.7640   -6.4780 C   0  0  0  0  0  0  0  0  0  0  0  0
   28.8030   45.3140   -0.4670 C   0  0  0  0  0  0  0  0  0  0  0  0
   26.7400   42.6590   -1.9190 C   0  0  0  0  0  0  0  0  0  0  0  0
   28.3290   45.3000    0.8310 O   0  0  0  0  0  0  0  0  0  0  0  0
  1  2  1  0
  2  3  2  0
  2  4  1  0
  2  5  1  0
  2  6  1  0
  4  7  1  0
  4  8  1  0
  5  9  1  0
  7 10  2  0
  7 11  1  0
  8 12  2  0
  8 13  1  0
  9 14  2  0
  9 15  1  0
 10 16  1  0
 11 17  2  0
 12 18  1  0
 13 19  2  0
 15 20  2  0
 14 21  1  0
 20 22  1  0
 16 23  2  0
 17 23  1  0
 18 24  2  0
 19 24  1  0
 20 25  1  0
 21 25  2  0
 22 26  1  0
 25 27  1  0
M  END
