mac-x0360-mac-x0411
     RDKit          3D

 27 28  0  0  0  0  0  0  0  0999 V2000
   31.9900   55.2690   -7.0270 Cl  0  0  0  0  0  0  0  0  0  0  0  0
   32.1720   53.6700   -6.4170 C   0  0  0  0  0  0  0  0  0  0  0  0
   33.4470   53.1870   -6.1250 C   0  0  0  0  0  0  0  0  0  0  0  0
   31.0480   52.8730   -6.2210 C   0  0  0  0  0  0  0  0  0  0  0  0
   31.2050   51.5740   -5.7260 C   0  0  0  0  0  0  0  0  0  0  0  0
   33.5910   51.8920   -5.6330 C   0  0  0  0  0  0  0  0  0  0  0  0
   35.1660   51.2940   -5.2760 Cl  0  0  0  0  0  0  0  0  0  0  0  0
   29.7590   50.5730   -5.4830 S   0  0  0  0  0  0  0  0  0  0  0  0
   32.4800   51.0790   -5.4300 C   0  0  0  0  0  0  0  0  0  0  0  0
   30.3090   49.2090   -4.6760 N   0  0  0  0  0  0  0  0  0  0  0  0
   28.8810   51.2850   -4.5800 O   0  0  0  0  0  0  0  0  0  0  0  0
   29.2930   50.1410   -6.7810 O   0  0  0  0  0  0  0  0  0  0  0  0
   31.4960   48.4560   -5.1060 C   0  0  0  0  0  0  0  0  0  0  0  0
   32.6010   48.5510   -4.0420 C   0  0  0  0  0  0  0  0  0  0  0  0
   32.9890   47.1940   -3.4300 C   0  0  0  0  0  0  0  0  0  0  0  0
   34.4890   46.9830   -3.2950 C   0  0  0  0  0  0  0  0  0  0  0  0
   35.1340   45.7170   -3.3900 C   0  0  0  0  0  0  0  0  0  0  0  0
   35.2980   48.1130   -3.0610 C   0  0  0  0  0  0  0  0  0  0  0  0
   34.4420   44.5410   -3.6150 O   0  0  0  0  0  0  0  0  0  0  0  0
   36.6820   48.0130   -2.9240 C   0  0  0  0  0  0  0  0  0  0  0  0
   36.5320   45.6320   -3.2490 C   0  0  0  0  0  0  0  0  0  0  0  0
   37.3490   44.1110   -3.3550 Cl  0  0  0  0  0  0  0  0  0  0  0  0
   33.1690   44.6790   -4.2580 C   0  0  0  0  0  0  0  0  0  0  0  0
   37.3020   46.7680   -3.0170 C   0  0  0  0  0  0  0  0  0  0  0  0
   33.2840   45.0590   -5.7290 C   0  0  0  0  0  0  0  0  0  0  0  0
   32.1150   45.0650   -6.4040 O   0  0  0  0  0  0  0  0  0  0  0  0
   34.3440   45.3380   -6.2740 O   0  0  0  0  0  0  0  0  0  0  0  0
  1  2  1  0
  2  3  2  0
  2  4  1  0
  4  5  2  0
  3  6  1  0
  6  7  1  0
  5  8  1  0
  5  9  1  0
  6  9  2  0
  8 10  1  0
  8 11  2  0
  8 12  2  0
 10 13  1  0
 13 14  1  0
 14 15  1  0
 15 16  1  0
 16 17  2  0
 16 18  1  0
 17 19  1  0
 18 20  2  0
 17 21  1  0
 21 22  1  0
 19 23  1  0
 20 24  1  0
 21 24  2  0
 23 25  1  0
 25 26  1  0
 25 27  2  0
M  END
