mac-x0472-mac-x0344
     RDKit          3D

 29 31  0  0  0  0  0  0  0  0999 V2000
   29.7430   50.6890   -3.5730 O   0  0  0  0  0  0  0  0  0  0  0  0
   30.6940   49.6740   -3.9500 S   0  0  1  0  0  0  0  0  0  0  0  0
   31.1890   48.5610   -3.0320 N   0  0  0  0  0  0  0  0  0  0  0  0
   29.9630   48.9210   -5.2910 N   0  0  0  0  0  0  0  0  0  0  0  0
   32.1380   50.5030   -4.5850 C   0  0  0  0  0  0  0  0  0  0  0  0
   32.5300   47.9840   -3.2480 C   0  0  0  0  0  0  0  0  0  0  0  0
   29.4100   49.7380   -6.2240 C   0  0  0  0  0  0  0  0  0  0  0  0
   33.2100   49.7660   -5.1080 C   0  0  0  0  0  0  0  0  0  0  0  0
   32.1830   51.8990   -4.5530 C   0  0  0  0  0  0  0  0  0  0  0  0
   32.3940   46.4780   -3.3140 C   0  0  0  0  0  0  0  0  0  0  0  0
   29.1670   49.3720   -7.4730 N   0  0  0  0  0  0  0  0  0  0  0  0
   28.9470   51.3770   -5.9080 S   0  0  0  0  0  0  0  0  0  0  0  0
   34.3270   50.4360   -5.5950 C   0  0  0  0  0  0  0  0  0  0  0  0
   33.3050   52.5610   -5.0440 C   0  0  0  0  0  0  0  0  0  0  0  0
   33.1700   45.8280   -4.4530 C   0  0  1  0  0  0  0  0  0  0  0  0
   28.4340   51.4760   -7.5370 C   0  0  0  0  0  0  0  0  0  0  0  0
   28.6010   50.3740   -8.2390 N   0  0  0  0  0  0  0  0  0  0  0  0
   34.3770   51.8300   -5.5650 C   0  0  0  0  0  0  0  0  0  0  0  0
   32.2500   44.8460   -5.2410 C   0  0  0  0  0  0  0  0  0  0  0  0
   33.5890   46.8060   -5.4150 O   0  0  0  0  0  0  0  0  0  0  0  0
   34.4280   45.2810   -3.9800 N   0  0  0  0  0  0  0  0  0  0  0  0
   31.7770   43.8010   -4.5380 O   0  0  0  0  0  0  0  0  0  0  0  0
   31.9350   44.9860   -6.4200 O   0  0  0  0  0  0  0  0  0  0  0  0
   35.4290   46.0050   -3.3350 C   0  0  0  0  0  0  0  0  0  0  0  0
   36.4160   45.4310   -2.5350 C   0  0  0  0  0  0  0  0  0  0  0  0
   35.4680   47.4080   -3.4890 C   0  0  0  0  0  0  0  0  0  0  0  0
   37.4020   46.2060   -1.9130 C   0  0  0  0  0  0  0  0  0  0  0  0
   36.4510   48.1910   -2.8710 C   0  0  0  0  0  0  0  0  0  0  0  0
   37.4200   47.5860   -2.0810 C   0  0  0  0  0  0  0  0  0  0  0  0
  1  2  2  0
  2  3  2  0
  2  4  1  6
  2  5  1  0
  3  6  1  0
  4  7  1  0
  5  8  2  0
  5  9  1  0
  6 10  1  0
  7 11  2  0
  7 12  1  0
  8 13  1  0
  9 14  2  0
 10 15  1  0
 12 16  1  0
 11 17  1  0
 16 17  2  0
 13 18  2  0
 14 18  1  0
 15 19  1  0
 15 20  1  6
 15 21  1  0
 19 22  1  0
 19 23  2  0
 21 24  1  0
 24 25  2  0
 24 26  1  0
 25 27  1  0
 26 28  2  0
 27 29  2  0
 28 29  1  0
M  END
