mac-x0206-mac-x0588
     RDKit          3D

 27 30  0  0  0  0  0  0  0  0999 V2000
   31.3840   52.6160   -4.2000 N   0  0  0  0  0  0  0  0  0  0  0  0
   29.9360   52.7200   -3.9950 C   0  0  2  0  0  0  0  0  0  0  0  0
   29.8740   53.0960   -2.6220 O   0  0  0  0  0  0  0  0  0  0  0  0
   29.1970   51.3230   -4.1140 C   0  0  0  0  0  0  0  0  0  0  0  0
   29.2900   53.7990   -4.8780 C   0  0  0  0  0  0  0  0  0  0  0  0
   29.1100   50.6010   -5.4090 N   0  0  0  0  0  0  0  0  0  0  0  0
   29.5910   55.1650   -4.7290 C   0  0  0  0  0  0  0  0  0  0  0  0
   28.3590   53.4630   -5.8840 C   0  0  0  0  0  0  0  0  0  0  0  0
   30.4900   55.5490   -3.7650 O   0  0  0  0  0  0  0  0  0  0  0  0
   29.0060   56.1490   -5.5340 C   0  0  0  0  0  0  0  0  0  0  0  0
   27.7680   54.4410   -6.6920 C   0  0  0  0  0  0  0  0  0  0  0  0
   30.1300   49.5710   -5.6140 C   0  0  1  0  0  0  0  0  0  0  0  0
   28.0910   55.7800   -6.5180 C   0  0  0  0  0  0  0  0  0  0  0  0
   30.1440   48.6740   -4.4770 N   0  0  0  0  0  0  0  0  0  0  0  0
   29.8150   48.7180   -6.8670 C   0  0  1  0  0  0  0  0  0  0  0  0
   28.9640   47.8290   -4.4290 C   0  0  0  0  0  0  0  0  0  0  0  0
   29.9590   47.2370   -6.5150 C   0  0  1  0  0  0  0  0  0  0  0  0
   28.4780   48.7220   -7.4820 N   0  0  0  0  0  0  0  0  0  0  0  0
   28.9930   46.8210   -5.5010 N   0  0  0  0  0  0  0  0  0  0  0  0
   29.6830   46.7100   -7.8420 N   0  0  0  0  0  0  0  0  0  0  0  0
   28.5150   47.4830   -8.2720 C   0  0  0  0  0  0  0  0  0  0  0  0
   29.2470   45.4620   -4.9790 C   0  0  0  0  0  0  0  0  0  0  0  0
   29.1640   45.2720   -3.4440 C   0  0  1  0  0  0  0  0  0  0  0  0
   27.7980   45.5170   -3.0240 O   0  0  0  0  0  0  0  0  0  0  0  0
   29.4820   43.8580   -2.9770 C   0  0  0  0  0  0  0  0  0  0  0  0
   28.6690   43.7400   -1.7110 C   0  0  0  0  0  0  0  0  0  0  0  0
   27.4230   44.5220   -2.0620 C   0  0  0  0  0  0  0  0  0  0  0  0
  2  1  1  6
  2  3  1  0
  2  4  1  0
  2  5  1  0
  4  6  1  0
  5  7  2  0
  5  8  1  0
  7  9  1  0
  7 10  1  0
  8 11  2  0
 12  6  1  1
 10 13  2  0
 11 13  1  0
 12 14  1  0
 12 15  1  0
 14 16  1  0
 15 17  1  0
 15 18  1  1
 16 19  1  0
 17 19  1  0
 17 20  1  6
 18 21  1  0
 20 21  1  0
 19 22  1  0
 23 22  1  6
 23 24  1  0
 23 25  1  0
 25 26  1  0
 24 27  1  0
 26 27  1  0
M  END
