mac-x0412-mac-x0161
     RDKit          3D

 24 27  0  0  0  0  0  0  0  0999 V2000
   29.7860   54.4460   -4.0510 O   0  0  0  0  0  0  0  0  0  0  0  0
   29.2520   53.8200   -4.9640 C   0  0  0  0  0  0  0  0  0  0  0  0
   29.0400   54.3970   -6.2020 N   0  0  0  0  0  0  0  0  0  0  0  0
   28.7360   52.3890   -4.9240 C   0  0  1  0  0  0  0  0  0  0  0  0
   29.2750   51.6130   -6.1270 C   0  0  2  0  0  0  0  0  0  0  0  0
   28.6090   53.6840   -7.2990 C   0  0  0  0  0  0  0  0  0  0  0  0
   28.8970   51.6400   -3.6270 C   0  0  1  0  0  0  0  0  0  0  0  0
   27.6310   50.9440   -3.4740 N   0  0  0  0  0  0  0  0  0  0  0  0
   28.6970   52.3410   -7.3250 C   0  0  0  0  0  0  0  0  0  0  0  0
   29.1590   50.0230   -6.0080 C   0  0  2  0  0  0  0  0  0  0  0  0
   30.0340   50.6100   -3.6120 C   0  0  0  0  0  0  0  0  0  0  0  0
   30.0670   49.6100   -4.7900 C   0  0  1  0  0  0  0  0  0  0  0  0
   29.5570   49.4260   -7.3130 N   0  0  0  0  0  0  0  0  0  0  0  0
   27.7630   49.4170   -5.8360 C   0  0  0  0  0  0  0  0  0  0  0  0
   30.0910   48.1680   -4.2220 C   0  0  0  0  0  0  0  0  0  0  0  0
   27.9220   48.0760   -6.4130 N   0  0  0  0  0  0  0  0  0  0  0  0
   28.6410   48.3420   -7.6330 C   0  0  0  0  0  0  0  0  0  0  0  0
   31.4660   47.6730   -4.0830 C   0  0  0  0  0  0  0  0  0  0  0  0
   32.4450   47.7650   -3.1280 C   0  0  0  0  0  0  0  0  0  0  0  0
   31.9340   46.9590   -5.1410 O   0  0  0  0  0  0  0  0  0  0  0  0
   33.2390   46.5760   -4.8990 N   0  0  0  0  0  0  0  0  0  0  0  0
   33.5200   47.0730   -3.6920 C   0  0  0  0  0  0  0  0  0  0  0  0
   34.7290   46.9070   -3.1150 O   0  0  0  0  0  0  0  0  0  0  0  0
   35.0890   47.9470   -2.2150 C   0  0  0  0  0  0  0  0  0  0  0  0
  1  2  2  0
  2  3  1  0
  4  2  1  1
  4  5  1  0
  3  6  1  0
  4  7  1  0
  7  8  1  6
  5  9  1  6
  6  9  2  0
  5 10  1  0
  7 11  1  0
 10 12  1  0
 11 12  1  0
 10 13  1  0
 10 14  1  1
 12 15  1  1
 14 16  1  0
 13 17  1  0
 16 17  1  0
 15 18  1  0
 18 19  2  0
 18 20  1  0
 20 21  1  0
 19 22  1  0
 21 22  2  0
 22 23  1  0
 23 24  1  0
M  END
