mac-x0305-mac-x0396
     RDKit          3D

 18 19  0  0  0  0  0  0  0  0999 V2000
   30.7980   46.5550   -7.3630 O   0  0  0  0  0  0  0  0  0  0  0  0
   30.2610   46.5280   -6.1140 C   0  0  0  0  0  0  0  0  0  0  0  0
   30.2610   45.5020   -5.4530 O   0  0  0  0  0  0  0  0  0  0  0  0
   29.6820   47.8320   -5.6300 C   0  0  0  0  0  0  0  0  0  0  0  0
   29.4030   48.8980   -6.4790 C   0  0  0  0  0  0  0  0  0  0  0  0
   29.4440   47.9080   -4.2940 N   0  0  0  0  0  0  0  0  0  0  0  0
   29.6330   48.8550   -7.8380 O   0  0  0  0  0  0  0  0  0  0  0  0
   28.8640   50.0890   -5.9640 C   0  0  0  0  0  0  0  0  0  0  0  0
   28.9260   49.0590   -3.8130 C   0  0  0  0  0  0  0  0  0  0  0  0
   28.6230   50.1620   -4.5960 C   0  0  0  0  0  0  0  0  0  0  0  0
   28.6060   51.1340   -6.8920 N   0  0  0  0  0  0  0  0  0  0  0  0
   29.6150   52.2010   -7.0040 C   0  0  0  0  0  0  0  0  0  0  0  0
   29.5800   53.1530   -5.8410 C   0  0  0  0  0  0  0  0  0  0  0  0
   30.7150   53.3790   -5.0680 C   0  0  0  0  0  0  0  0  0  0  0  0
   28.4190   53.8480   -5.4830 C   0  0  0  0  0  0  0  0  0  0  0  0
   30.7640   54.2200   -4.0100 N   0  0  0  0  0  0  0  0  0  0  0  0
   28.4370   54.7170   -4.4000 C   0  0  0  0  0  0  0  0  0  0  0  0
   29.6220   54.8680   -3.7010 C   0  0  0  0  0  0  0  0  0  0  0  0
  1  2  1  0
  2  3  2  0
  2  4  1  0
  4  5  2  0
  4  6  1  0
  5  7  1  0
  5  8  1  0
  6  9  2  0
  8 10  2  0
  9 10  1  0
  8 11  1  0
 11 12  1  0
 12 13  1  0
 13 14  2  0
 13 15  1  0
 14 16  1  0
 15 17  2  0
 16 18  2  0
 17 18  1  0
M  END
