mac-x0319-mac-x0341
     RDKit          3D

 25 27  0  0  0  0  0  0  0  0999 V2000
   34.0290   45.6410   -6.9070 O   0  0  0  0  0  0  0  0  0  0  0  0
   32.8660   45.9680   -6.3090 C   0  0  0  0  0  0  0  0  0  0  0  0
   31.7770   45.9890   -6.9930 N   0  0  0  0  0  0  0  0  0  0  0  0
   32.8600   45.0880   -5.0890 C   0  0  0  0  0  0  0  0  0  0  0  0
   30.9780   47.2050   -7.2040 C   0  0  0  0  0  0  0  0  0  0  0  0
   31.6820   45.4020   -4.2100 C   0  0  0  0  0  0  0  0  0  0  0  0
   29.8010   47.3550   -6.2110 C   0  0  0  0  0  0  0  0  0  0  0  0
   30.5890   44.5270   -4.1420 C   0  0  0  0  0  0  0  0  0  0  0  0
   31.6630   46.5780   -3.4530 C   0  0  0  0  0  0  0  0  0  0  0  0
   29.5040   44.8340   -3.3300 C   0  0  0  0  0  0  0  0  0  0  0  0
   30.5700   46.8790   -2.6400 C   0  0  0  0  0  0  0  0  0  0  0  0
   29.8110   48.6950   -5.4950 C   0  0  0  0  0  0  0  0  0  0  0  0
   28.4280   43.9990   -3.2480 O   0  0  0  0  0  0  0  0  0  0  0  0
   29.4880   46.0050   -2.5800 C   0  0  0  0  0  0  0  0  0  0  0  0
   29.3030   48.9330   -6.8340 C   0  0  0  0  0  0  0  0  0  0  0  0
   29.7410   50.0540   -5.0030 C   0  0  0  0  0  0  0  0  0  0  0  0
   29.3330   51.2530   -5.6010 C   0  0  0  0  0  0  0  0  0  0  0  0
   28.8750   50.1000   -7.4880 C   0  0  0  0  0  0  0  0  0  0  0  0
   29.3760   52.5290   -4.8650 C   0  0  0  0  0  0  0  0  0  0  0  0
   28.8860   51.3030   -6.8730 C   0  0  0  0  0  0  0  0  0  0  0  0
   29.6700   52.5910   -3.6750 O   0  0  0  0  0  0  0  0  0  0  0  0
   29.0710   53.6480   -5.6030 N   0  0  0  0  0  0  0  0  0  0  0  0
   28.4690   52.4780   -7.5290 N   0  0  0  0  0  0  0  0  0  0  0  0
   28.5830   53.5920   -6.8770 C   0  0  0  0  0  0  0  0  0  0  0  0
   28.2150   54.7710   -7.4410 N   0  0  0  0  0  0  0  0  0  0  0  0
  1  2  1  0
  2  3  2  3
  2  4  1  0
  3  5  1  0
  4  6  1  0
  5  7  1  0
  6  8  2  0
  6  9  1  0
  8 10  1  0
  9 11  2  0
  7 12  1  0
 10 13  1  0
 10 14  2  0
 11 14  1  0
 12 15  2  0
 12 16  1  0
 16 17  2  0
 15 18  1  0
 17 19  1  0
 17 20  1  0
 18 20  2  0
 19 21  2  0
 19 22  1  0
 20 23  1  0
 22 24  1  0
 23 24  2  0
 24 25  1  0
M  END
