mac-x0178-mac-x0283
     RDKit          3D

 26 28  0  0  0  0  0  0  0  0999 V2000
   28.3360   45.1940   -0.3490 N   0  0  0  0  0  0  0  0  0  0  0  0
   29.0560   46.6430   -0.7820 S   0  0  2  0  0  0  0  0  0  0  0  0
   29.9680   46.8910    0.3080 O   0  0  0  0  0  0  0  0  0  0  0  0
   27.8260   47.4670   -1.1420 N   0  0  0  0  0  0  0  0  0  0  0  0
   29.9450   46.4500   -2.2840 C   0  0  0  0  0  0  0  0  0  0  0  0
   27.1080   47.1310   -2.3880 C   0  0  0  0  0  0  0  0  0  0  0  0
   29.4090   45.6600   -3.3030 C   0  0  0  0  0  0  0  0  0  0  0  0
   31.1690   47.0990   -2.4370 C   0  0  0  0  0  0  0  0  0  0  0  0
   27.6760   47.8280   -3.6440 C   0  0  0  0  0  0  0  0  0  0  0  0
   30.1100   45.5260   -4.5020 C   0  0  0  0  0  0  0  0  0  0  0  0
   31.8690   46.9620   -3.6390 C   0  0  0  0  0  0  0  0  0  0  0  0
   29.0350   48.5540   -3.5290 C   0  0  0  0  0  0  0  0  0  0  0  0
   31.3360   46.1760   -4.6720 C   0  0  0  0  0  0  0  0  0  0  0  0
   32.0330   46.0090   -5.9690 C   0  0  0  0  0  0  0  0  0  0  0  0
   29.0840   49.9110   -4.1980 C   0  0  0  0  0  0  0  0  0  0  0  0
   31.5160   45.6600   -7.0150 O   0  0  0  0  0  0  0  0  0  0  0  0
   33.3450   46.2910   -5.8940 O   0  0  0  0  0  0  0  0  0  0  0  0
   29.4600   51.0490   -3.4640 C   0  0  0  0  0  0  0  0  0  0  0  0
   28.7420   50.0360   -5.5580 C   0  0  0  0  0  0  0  0  0  0  0  0
   29.4550   52.2660   -4.1420 C   0  0  0  0  0  0  0  0  0  0  0  0
   28.7510   51.2790   -6.2100 C   0  0  0  0  0  0  0  0  0  0  0  0
   29.7750   53.4790   -3.6180 O   0  0  0  0  0  0  0  0  0  0  0  0
   29.1130   52.4180   -5.4720 C   0  0  0  0  0  0  0  0  0  0  0  0
   29.2450   53.8130   -5.6980 C   0  0  0  0  0  0  0  0  0  0  0  0
   29.6420   54.4540   -4.5960 N   0  0  0  0  0  0  0  0  0  0  0  0
   29.0000   54.4130   -6.8740 N   0  0  0  0  0  0  0  0  0  0  0  0
  2  1  1  1
  2  3  2  0
  2  4  2  0
  2  5  1  0
  4  6  1  0
  5  7  2  0
  5  8  1  0
  6  9  1  0
  7 10  1  0
  8 11  2  0
  9 12  1  0
 10 13  2  0
 11 13  1  0
 13 14  1  0
 12 15  1  0
 14 16  2  0
 14 17  1  0
 15 18  2  0
 15 19  1  0
 18 20  1  0
 19 21  2  0
 20 22  1  0
 20 23  2  0
 21 23  1  0
 23 24  1  0
 22 25  1  0
 24 25  2  0
 24 26  1  0
M  END
