mac-x0303-mac-x0182
     RDKit          3D

 27 30  0  0  0  0  0  0  0  0999 V2000
   30.2610   56.3590   -6.6460 N   0  0  0  0  0  0  0  0  0  0  0  0
   29.0120   55.9030   -5.5950 S   0  0  0  0  0  0  0  0  0  0  0  0
   27.8020   56.0530   -6.3640 O   0  0  0  0  0  0  0  0  0  0  0  0
   29.2750   56.6130   -4.3680 O   0  0  0  0  0  0  0  0  0  0  0  0
   29.2530   54.1770   -5.3060 C   0  0  0  0  0  0  0  0  0  0  0  0
   29.6920   53.6800   -4.1000 N   0  0  0  0  0  0  0  0  0  0  0  0
   29.0660   53.1940   -6.1650 N   0  0  0  0  0  0  0  0  0  0  0  0
   29.8030   52.3080   -4.2200 C   0  0  0  0  0  0  0  0  0  0  0  0
   29.4150   52.0630   -5.4780 C   0  0  0  0  0  0  0  0  0  0  0  0
   30.2150   51.3180   -3.3210 C   0  0  0  0  0  0  0  0  0  0  0  0
   29.4470   50.7540   -5.8270 C   0  0  0  0  0  0  0  0  0  0  0  0
   30.3390   49.8740   -3.5180 C   0  0  0  0  0  0  0  0  0  0  0  0
   29.8800   49.7920   -4.8950 C   0  0  0  0  0  0  0  0  0  0  0  0
   30.3880   48.4010   -3.9610 C   0  0  0  0  0  0  0  0  0  0  0  0
   31.5560   47.5620   -3.3300 C   0  0  0  0  0  0  0  0  0  0  0  0
   32.9220   47.8790   -3.8740 N   0  0  0  0  0  0  0  0  0  0  0  0
   33.8910   46.8020   -4.4350 S   0  0  2  0  0  0  0  0  0  0  0  0
   34.2310   46.5650   -5.8180 O   0  0  0  0  0  0  0  0  0  0  0  0
   33.3370   45.3130   -3.8630 N   0  0  0  0  0  0  0  0  0  0  0  0
   35.3760   46.7500   -3.5170 C   0  0  0  0  0  0  0  0  0  0  0  0
   34.3340   44.6160   -3.2130 C   0  0  0  0  0  0  0  0  0  0  0  0
   35.4870   45.5010   -2.9090 C   0  0  0  0  0  0  0  0  0  0  0  0
   36.3360   47.7360   -3.3700 C   0  0  0  0  0  0  0  0  0  0  0  0
   34.3030   43.4300   -2.9110 O   0  0  0  0  0  0  0  0  0  0  0  0
   37.4480   47.4350   -2.5760 C   0  0  0  0  0  0  0  0  0  0  0  0
   36.5890   45.1950   -2.1180 C   0  0  0  0  0  0  0  0  0  0  0  0
   37.5750   46.1750   -1.9540 C   0  0  0  0  0  0  0  0  0  0  0  0
  2  1  1  0
  2  3  2  0
  2  4  2  0
  2  5  1  0
  5  6  1  0
  5  7  2  0
  6  8  1  0
  7  9  1  0
  8  9  2  0
  8 10  1  0
  9 11  1  0
 10 12  2  0
 11 13  2  0
 12 13  1  0
 12 14  1  0
 14 15  1  0
 15 16  1  0
 16 17  2  0
 17 18  2  0
 17 19  1  1
 17 20  1  0
 19 21  1  0
 20 22  2  0
 21 22  1  0
 20 23  1  0
 21 24  2  0
 23 25  2  0
 22 26  1  0
 25 27  1  0
 26 27  2  0
M  END
