mac-x0565-mac-x0204
     RDKit          3D

 16 17  0  0  0  0  0  0  0  0999 V2000
   28.8410   53.1210   -5.3900 O   0  0  0  0  0  0  0  0  0  0  0  0
   29.4410   53.0130   -4.1900 C   0  0  0  0  0  0  0  0  0  0  0  0
   29.6870   53.9960   -3.5160 O   0  0  0  0  0  0  0  0  0  0  0  0
   29.7490   51.6100   -3.8170 C   0  0  0  0  0  0  0  0  0  0  0  0
   29.5050   50.6050   -4.7660 C   0  0  0  0  0  0  0  0  0  0  0  0
   30.2740   51.2720   -2.5480 C   0  0  0  0  0  0  0  0  0  0  0  0
   29.7970   49.3010   -4.4090 C   0  0  0  0  0  0  0  0  0  0  0  0
   30.5580   49.9400   -2.2200 C   0  0  0  0  0  0  0  0  0  0  0  0
   30.3100   48.9630   -3.1670 C   0  0  0  0  0  0  0  0  0  0  0  0
   29.6230   48.2010   -5.2090 O   0  0  0  0  0  0  0  0  0  0  0  0
   30.5140   47.5730   -3.0570 N   0  0  0  0  0  0  0  0  0  0  0  0
   29.7770   47.1080   -4.2660 C   0  0  2  0  0  0  0  0  0  0  0  0
   30.5060   45.9140   -4.9200 C   0  0  0  0  0  0  0  0  0  0  0  0
   30.1310   46.9420   -1.8680 O   0  0  0  0  0  0  0  0  0  0  0  0
   31.5210   46.2780   -5.7410 O   0  0  0  0  0  0  0  0  0  0  0  0
   30.2650   44.7210   -4.7760 O   0  0  0  0  0  0  0  0  0  0  0  0
  1  2  1  0
  2  3  2  0
  2  4  1  0
  4  5  2  0
  4  6  1  0
  5  7  1  0
  6  8  2  0
  7  9  2  0
  8  9  1  0
  7 10  1  0
  9 11  1  0
 10 12  1  0
 11 12  1  0
 12 13  1  6
 11 14  1  0
 13 15  1  0
 13 16  2  0
M  END
