mac-x0190-mac-x0179
     RDKit          3D

 29 32  0  0  0  0  0  0  0  0999 V2000
   28.4870   56.7180   -5.5150 O   0  0  0  0  0  0  0  0  0  0  0  0
   29.6880   56.1760   -4.9830 C   0  0  0  0  0  0  0  0  0  0  0  0
   29.5510   54.6970   -4.9750 C   0  0  0  0  0  0  0  0  0  0  0  0
   29.6780   53.9830   -3.8150 N   0  0  0  0  0  0  0  0  0  0  0  0
   29.3080   53.8960   -5.9990 N   0  0  0  0  0  0  0  0  0  0  0  0
   29.5150   52.6540   -4.1030 C   0  0  0  0  0  0  0  0  0  0  0  0
   29.2860   52.6220   -5.4730 C   0  0  0  0  0  0  0  0  0  0  0  0
   29.5500   51.5180   -3.3050 C   0  0  0  0  0  0  0  0  0  0  0  0
   29.0790   51.3750   -6.1020 C   0  0  0  0  0  0  0  0  0  0  0  0
   29.3450   50.2890   -3.9410 C   0  0  0  0  0  0  0  0  0  0  0  0
   29.1140   50.1970   -5.3230 C   0  0  0  0  0  0  0  0  0  0  0  0
   28.9110   48.8330   -5.9530 C   0  0  0  0  0  0  0  0  0  0  0  0
   30.2250   48.0640   -6.2210 C   0  0  0  0  0  0  0  0  0  0  0  0
   30.8370   47.3580   -5.0000 C   0  0  0  0  0  0  0  0  0  0  0  0
   31.5630   46.1840   -5.4240 O   0  0  0  0  0  0  0  0  0  0  0  0
   32.7770   45.9790   -4.8210 C   0  0  0  0  0  0  0  0  0  0  0  0
   33.8580   46.0980   -5.3890 O   0  0  0  0  0  0  0  0  0  0  0  0
   32.6610   45.5760   -3.3530 C   0  0  0  0  0  0  0  0  0  0  0  0
   33.8910   45.7870   -2.6050 N   0  0  0  0  0  0  0  0  0  0  0  0
   34.6450   44.7840   -2.0600 C   0  0  0  0  0  0  0  0  0  0  0  0
   34.4880   47.0070   -2.4620 C   0  0  0  0  0  0  0  0  0  0  0  0
   34.3920   43.5970   -1.9760 O   0  0  0  0  0  0  0  0  0  0  0  0
   34.0730   48.1000   -2.7880 O   0  0  0  0  0  0  0  0  0  0  0  0
   35.8750   45.4110   -1.5660 C   0  0  0  0  0  0  0  0  0  0  0  0
   35.7790   46.7680   -1.8130 C   0  0  0  0  0  0  0  0  0  0  0  0
   36.9850   44.8580   -0.9550 C   0  0  0  0  0  0  0  0  0  0  0  0
   36.7850   47.6520   -1.4670 C   0  0  0  0  0  0  0  0  0  0  0  0
   38.0180   45.7320   -0.5950 C   0  0  0  0  0  0  0  0  0  0  0  0
   37.9190   47.1150   -0.8480 C   0  0  0  0  0  0  0  0  0  0  0  0
  1  2  1  0
  2  3  1  0
  3  4  1  0
  3  5  2  0
  4  6  1  0
  5  7  1  0
  6  7  2  0
  6  8  1  0
  7  9  1  0
  8 10  2  0
  9 11  2  0
 10 11  1  0
 11 12  1  0
 12 13  1  0
 13 14  1  0
 14 15  1  0
 15 16  1  0
 16 17  2  0
 16 18  1  0
 18 19  1  0
 19 20  1  0
 19 21  1  0
 20 22  2  0
 21 23  2  0
 20 24  1  0
 21 25  1  0
 24 25  2  0
 24 26  1  0
 25 27  1  0
 26 28  2  0
 27 29  2  0
 28 29  1  0
M  END
