mac-x0333-mac-x0255
     RDKit          3D

 25 28  0  0  0  0  0  0  0  0999 V2000
   31.2060   49.8800   -2.7930 O   0  0  0  0  0  0  0  0  0  0  0  0
   30.4230   50.6960   -3.5590 C   0  0  0  0  0  0  0  0  0  0  0  0
   29.3500   50.1340   -4.2880 C   0  0  0  0  0  0  0  0  0  0  0  0
   30.7010   52.0660   -3.6050 C   0  0  0  0  0  0  0  0  0  0  0  0
   29.0470   48.6510   -4.2440 C   0  0  0  0  0  0  0  0  0  0  0  0
   29.8870   52.8500   -4.3900 C   0  0  0  0  0  0  0  0  0  0  0  0
   28.5460   50.9750   -5.0760 C   0  0  0  0  0  0  0  0  0  0  0  0
   28.9220   48.0810   -2.8240 C   0  0  0  0  0  0  0  0  0  0  0  0
   28.8380   52.3230   -5.1060 C   0  0  0  0  0  0  0  0  0  0  0  0
   30.0010   54.1960   -4.5580 O   0  0  0  0  0  0  0  0  0  0  0  0
   28.1640   53.2690   -5.8130 O   0  0  0  0  0  0  0  0  0  0  0  0
   28.9710   54.4330   -5.5370 C   0  0  0  0  0  0  0  0  0  0  0  0
   28.8080   46.5680   -2.7750 C   0  0  0  0  0  0  0  0  0  0  0  0
   29.6930   45.6780   -3.4440 C   0  0  0  0  0  0  0  0  0  0  0  0
   27.7640   45.9940   -2.0220 C   0  0  0  0  0  0  0  0  0  0  0  0
   29.5420   44.2880   -3.3650 C   0  0  0  0  0  0  0  0  0  0  0  0
   31.0570   46.0750   -4.4330 S   0  0  0  0  0  0  0  0  0  0  0  0
   27.5980   44.6190   -1.9320 C   0  0  0  0  0  0  0  0  0  0  0  0
   31.4360   44.4470   -4.7520 C   0  0  0  0  0  0  0  0  0  0  0  0
   30.5510   43.6000   -4.1220 C   0  0  0  0  0  0  0  0  0  0  0  0
   28.4780   43.7660   -2.5960 C   0  0  0  0  0  0  0  0  0  0  0  0
   32.6090   44.0920   -5.6170 C   0  0  0  0  0  0  0  0  0  0  0  0
   32.7500   45.0360   -6.7900 C   0  0  0  0  0  0  0  0  0  0  0  0
   31.9880   44.6500   -7.8390 O   0  0  0  0  0  0  0  0  0  0  0  0
   33.4360   46.0390   -6.8850 O   0  0  0  0  0  0  0  0  0  0  0  0
  1  2  1  0
  2  3  2  0
  2  4  1  0
  3  5  1  0
  4  6  2  0
  3  7  1  0
  5  8  1  0
  6  9  1  0
  7  9  2  0
  6 10  1  0
  9 11  1  0
 10 12  1  0
 11 12  1  0
  8 13  1  0
 13 14  1  0
 13 15  2  0
 14 16  2  0
 14 17  1  0
 15 18  1  0
 17 19  1  0
 16 20  1  0
 19 20  2  0
 16 21  1  0
 18 21  2  0
 19 22  1  0
 22 23  1  0
 23 24  1  0
 23 25  2  0
M  END
