mac-x0306-mac-x0282
     RDKit          3D

 16 18  0  0  0  0  0  0  0  0999 V2000
   29.6570   55.4920   -5.0820 C   0  0  0  0  0  0  0  0  0  0  0  0
   29.0930   55.2300   -6.3060 C   0  0  0  0  0  0  0  0  0  0  0  0
   28.6860   53.9260   -6.2410 N   0  0  0  0  0  0  0  0  0  0  0  0
   29.5990   54.3820   -4.2820 N   0  0  0  0  0  0  0  0  0  0  0  0
   29.0070   53.4340   -4.9940 C   0  0  0  0  0  0  0  0  0  0  0  0
   28.7150   52.0220   -4.5030 C   0  0  2  0  0  0  0  0  0  0  0  0
   29.6230   51.4970   -3.4210 C   0  0  0  0  0  0  0  0  0  0  0  0
   28.4100   50.9670   -5.6220 C   0  0  0  0  0  0  0  0  0  0  0  0
   30.4220   50.4610   -3.6340 C   0  0  0  0  0  0  0  0  0  0  0  0
   29.4070   49.7820   -5.8280 C   0  0  1  0  0  0  0  0  0  0  0  0
   30.4870   49.8150   -4.8320 N   0  0  0  0  0  0  0  0  0  0  0  0
   28.8370   48.3790   -5.6120 C   0  0  0  0  0  0  0  0  0  0  0  0
   29.9630   49.8380   -7.2910 C   0  0  0  0  0  0  0  0  0  0  0  0
   28.6980   47.4700   -6.6050 C   0  0  0  0  0  0  0  0  0  0  0  0
   29.0970   49.1750   -8.3010 N   0  0  0  0  0  0  0  0  0  0  0  0
   29.0720   47.7440   -8.0260 C   0  0  0  0  0  0  0  0  0  0  0  0
  1  2  2  0
  2  3  1  0
  1  4  1  0
  3  5  1  0
  4  5  2  0
  6  5  1  6
  6  7  1  0
  6  8  1  0
  7  9  2  0
 10  8  1  1
  9 11  1  0
 10 11  1  0
 10 12  1  0
 10 13  1  0
 12 14  2  0
 13 15  1  0
 14 16  1  0
 15 16  1  0
M  END
