mac-x0441-mac-x0348
     RDKit          3D

 28 31  0  0  0  0  0  0  0  0999 V2000
   33.1370   45.8560   -6.7750 O   0  0  0  0  0  0  0  0  0  0  0  0
   32.9620   44.7160   -6.0760 C   0  0  0  0  0  0  0  0  0  0  0  0
   33.1750   43.6480   -6.6360 O   0  0  0  0  0  0  0  0  0  0  0  0
   32.5050   44.8870   -4.6390 C   0  0  2  0  0  0  0  0  0  0  0  0
   31.6530   46.1470   -4.4020 C   0  0  0  0  0  0  0  0  0  0  0  0
   33.6530   44.7980   -3.7340 N   0  0  0  0  0  0  0  0  0  0  0  0
   34.0390   43.5790   -3.2760 N   0  0  0  0  0  0  0  0  0  0  0  0
   34.4440   45.8090   -3.2490 C   0  0  0  0  0  0  0  0  0  0  0  0
   30.7460   46.0360   -3.2110 C   0  0  0  0  0  0  0  0  0  0  0  0
   35.1030   43.8180   -2.4770 C   0  0  0  0  0  0  0  0  0  0  0  0
   35.3860   45.2090   -2.4370 C   0  0  0  0  0  0  0  0  0  0  0  0
   34.3330   47.2710   -3.5230 C   0  0  0  0  0  0  0  0  0  0  0  0
   29.7550   45.0920   -3.0340 C   0  0  0  0  0  0  0  0  0  0  0  0
   30.7330   46.8760   -2.0480 C   0  0  0  0  0  0  0  0  0  0  0  0
   35.8550   42.7320   -1.7500 C   0  0  0  0  0  0  0  0  0  0  0  0
   36.4370   45.9770   -1.7200 C   0  0  0  0  0  0  0  0  0  0  0  0
   35.2930   48.0700   -2.6140 C   0  0  0  0  0  0  0  0  0  0  0  0
   29.1490   45.3210   -1.8290 N   0  0  0  0  0  0  0  0  0  0  0  0
   29.7260   46.4050   -1.2040 C   0  0  0  0  0  0  0  0  0  0  0  0
   31.4890   47.9970   -1.6370 C   0  0  0  0  0  0  0  0  0  0  0  0
   36.9110   42.2730   -2.4800 F   0  0  0  0  0  0  0  0  0  0  0  0
   36.3610   43.1200   -0.5480 F   0  0  0  0  0  0  0  0  0  0  0  0
   35.0690   41.6430   -1.5060 F   0  0  0  0  0  0  0  0  0  0  0  0
   28.0610   44.5360   -1.2910 C   0  0  0  0  0  0  0  0  0  0  0  0
   36.6370   47.3530   -2.3800 C   0  0  0  0  0  0  0  0  0  0  0  0
   31.2170   48.6060   -0.4060 C   0  0  0  0  0  0  0  0  0  0  0  0
   29.4430   47.0070    0.0340 C   0  0  0  0  0  0  0  0  0  0  0  0
   30.2060   48.1140    0.4150 C   0  0  0  0  0  0  0  0  0  0  0  0
  1  2  1  0
  2  3  2  0
  2  4  1  0
  4  5  1  6
  4  6  1  0
  6  7  1  0
  6  8  1  0
  5  9  1  0
  7 10  2  0
  8 11  2  0
 10 11  1  0
  8 12  1  0
  9 13  2  0
  9 14  1  0
 10 15  1  0
 11 16  1  0
 12 17  1  0
 13 18  1  0
 14 19  2  0
 18 19  1  0
 14 20  1  0
 15 21  1  0
 15 22  1  0
 15 23  1  0
 18 24  1  0
 16 25  1  0
 17 25  1  0
 20 26  2  0
 19 27  1  0
 26 28  1  0
 27 28  2  0
M  END
