mac-x0373-mac-x0137
     RDKit          3D

 32 36  0  0  0  0  0  0  0  0999 V2000
   31.1010   45.7840   -5.1840 O   0  0  0  0  0  0  0  0  0  0  0  0
   30.2030   46.6430   -4.6560 C   0  0  0  0  0  0  0  0  0  0  0  0
   29.0710   46.2130   -4.4550 O   0  0  0  0  0  0  0  0  0  0  0  0
   30.7220   48.1080   -4.3530 C   0  0  0  0  0  0  0  0  0  0  0  0
   31.9660   47.9040   -3.4190 C   0  0  0  0  0  0  0  0  0  0  0  0
   29.6350   49.0780   -3.8030 C   0  0  0  0  0  0  0  0  0  0  0  0
   31.1800   48.7410   -5.7370 C   0  0  1  0  0  0  0  0  0  0  0  0
   32.3760   46.6040   -3.0350 C   0  0  0  0  0  0  0  0  0  0  0  0
   32.7260   48.9800   -2.9340 C   0  0  0  0  0  0  0  0  0  0  0  0
   29.8550   49.8940   -2.6780 C   0  0  0  0  0  0  0  0  0  0  0  0
   28.3780   49.1800   -4.4310 C   0  0  0  0  0  0  0  0  0  0  0  0
   32.7040   48.9630   -5.9020 C   0  0  2  0  0  0  0  0  0  0  0  0
   30.5840   48.2590   -7.0280 N   0  0  0  0  0  0  0  0  0  0  0  0
   32.9400   50.2410   -6.3120 F   0  0  0  0  0  0  0  0  0  0  0  0
   33.4900   46.4030   -2.2160 C   0  0  0  0  0  0  0  0  0  0  0  0
   33.8390   48.7770   -2.1150 C   0  0  0  0  0  0  0  0  0  0  0  0
   28.8730   50.7680   -2.2100 C   0  0  0  0  0  0  0  0  0  0  0  0
   27.3960   50.0550   -3.9630 C   0  0  0  0  0  0  0  0  0  0  0  0
   31.0880   46.9120   -7.4250 C   0  0  0  0  0  0  0  0  0  0  0  0
   33.3270   48.0050   -6.9210 C   0  0  0  0  0  0  0  0  0  0  0  0
   29.4400   48.7580   -7.6740 C   0  0  0  0  0  0  0  0  0  0  0  0
   34.2200   47.4910   -1.7550 C   0  0  0  0  0  0  0  0  0  0  0  0
   27.6440   50.8480   -2.8520 C   0  0  0  0  0  0  0  0  0  0  0  0
   32.5560   46.6930   -7.0200 C   0  0  0  0  0  0  0  0  0  0  0  0
   28.8210   48.0960   -8.7180 N   0  0  0  0  0  0  0  0  0  0  0  0
   28.8570   49.9300   -7.3250 C   0  0  0  0  0  0  0  0  0  0  0  0
   27.7080   48.5910   -9.3430 C   0  0  0  0  0  0  0  0  0  0  0  0
   27.6530   50.4090   -8.0490 C   0  0  0  0  0  0  0  0  0  0  0  0
   29.0790   50.9640   -6.3590 C   0  0  0  0  0  0  0  0  0  0  0  0
   27.0980   49.6950   -9.0700 N   0  0  0  0  0  0  0  0  0  0  0  0
   27.2190   51.5560   -7.5980 N   0  0  0  0  0  0  0  0  0  0  0  0
   28.1050   51.8650   -6.5720 C   0  0  0  0  0  0  0  0  0  0  0  0
  1  2  1  0
  2  3  2  0
  4  2  1  0
  4  5  1  0
  4  6  1  0
  7  4  1  1
  5  8  2  0
  5  9  1  0
  6 10  2  0
  6 11  1  0
  7 12  1  0
  7 13  1  0
 12 14  1  6
  8 15  1  0
  9 16  2  0
 10 17  1  0
 11 18  2  0
 13 19  1  0
 12 20  1  0
 13 21  1  0
 15 22  2  0
 16 22  1  0
 17 23  2  0
 18 23  1  0
 19 24  1  0
 20 24  1  0
 21 25  1  0
 21 26  2  0
 25 27  1  0
 26 28  1  0
 26 29  1  0
 27 30  2  0
 28 30  1  0
 28 31  2  0
 29 32  2  0
 31 32  1  0
M  END
