mac-x0303-mac-x0358
     RDKit          3D

 25 27  0  0  0  0  0  0  0  0999 V2000
   30.3700   56.2450   -6.8070 N   0  0  0  0  0  0  0  0  0  0  0  0
   29.0700   55.9440   -5.7570 S   0  0  0  0  0  0  0  0  0  0  0  0
   27.8910   56.0380   -6.5780 O   0  0  0  0  0  0  0  0  0  0  0  0
   29.3190   56.7830   -4.6100 O   0  0  0  0  0  0  0  0  0  0  0  0
   29.2250   54.2680   -5.2300 C   0  0  0  0  0  0  0  0  0  0  0  0
   29.6750   53.9630   -3.9700 N   0  0  0  0  0  0  0  0  0  0  0  0
   28.9560   53.1670   -5.9120 N   0  0  0  0  0  0  0  0  0  0  0  0
   29.7000   52.6040   -3.8370 C   0  0  0  0  0  0  0  0  0  0  0  0
   29.2470   52.1280   -5.0600 C   0  0  0  0  0  0  0  0  0  0  0  0
   30.0740   51.7840   -2.7720 C   0  0  0  0  0  0  0  0  0  0  0  0
   29.1520   50.7430   -5.2540 C   0  0  0  0  0  0  0  0  0  0  0  0
   29.9860   50.3960   -2.9620 C   0  0  0  0  0  0  0  0  0  0  0  0
   29.5240   49.8900   -4.2020 C   0  0  0  0  0  0  0  0  0  0  0  0
   30.3950   49.4460   -1.8420 C   0  0  0  0  0  0  0  0  0  0  0  0
   31.0740   48.2420   -2.4320 C   0  0  0  0  0  0  0  0  0  0  0  0
   32.4490   48.2400   -2.7140 C   0  0  0  0  0  0  0  0  0  0  0  0
   30.3120   47.1110   -2.7260 C   0  0  0  0  0  0  0  0  0  0  0  0
   33.0310   47.1210   -3.3030 C   0  0  0  0  0  0  0  0  0  0  0  0
   30.9000   45.9960   -3.3140 C   0  0  0  0  0  0  0  0  0  0  0  0
   34.3680   47.1030   -3.5960 O   0  0  0  0  0  0  0  0  0  0  0  0
   32.2620   45.9960   -3.6180 C   0  0  0  0  0  0  0  0  0  0  0  0
   32.8820   44.8080   -4.2890 C   0  0  0  0  0  0  0  0  0  0  0  0
   33.0160   45.0590   -5.7760 C   0  0  0  0  0  0  0  0  0  0  0  0
   31.8750   44.7890   -6.4530 O   0  0  0  0  0  0  0  0  0  0  0  0
   33.9890   45.4640   -6.3920 O   0  0  0  0  0  0  0  0  0  0  0  0
  2  1  1  0
  2  3  2  0
  2  4  2  0
  2  5  1  0
  5  6  1  0
  5  7  2  0
  6  8  1  0
  7  9  1  0
  8  9  2  0
  8 10  1  0
  9 11  1  0
 10 12  2  0
 11 13  2  0
 12 13  1  0
 12 14  1  0
 14 15  1  0
 15 16  2  0
 15 17  1  0
 16 18  1  0
 17 19  2  0
 18 20  1  0
 18 21  2  0
 19 21  1  0
 21 22  1  0
 22 23  1  0
 23 24  1  0
 23 25  2  0
M  END
