mac-x0404-mac-x0453
     RDKit          3D

 24 26  0  0  0  0  0  0  0  0999 V2000
   32.3100   43.8930   -6.6000 O   0  0  0  0  0  0  0  0  0  0  0  0
   33.1420   44.4400   -5.6780 C   0  0  0  0  0  0  0  0  0  0  0  0
   34.3140   44.6940   -5.9220 O   0  0  0  0  0  0  0  0  0  0  0  0
   32.4770   44.6980   -4.3350 C   0  0  0  0  0  0  0  0  0  0  0  0
   31.0890   45.0000   -4.5630 O   0  0  0  0  0  0  0  0  0  0  0  0
   30.6360   45.9040   -3.6270 C   0  0  0  0  0  0  0  0  0  0  0  0
   29.7630   45.4800   -2.6010 C   0  0  0  0  0  0  0  0  0  0  0  0
   31.0610   47.2330   -3.7190 C   0  0  0  0  0  0  0  0  0  0  0  0
   29.3220   46.4390   -1.6590 C   0  0  0  0  0  0  0  0  0  0  0  0
   30.6250   48.1820   -2.7870 C   0  0  0  0  0  0  0  0  0  0  0  0
   29.3120   44.1500   -2.4730 C   0  0  0  0  0  0  0  0  0  0  0  0
   31.0840   49.6210   -2.8830 C   0  0  0  0  0  0  0  0  0  0  0  0
   29.7570   47.7730   -1.7630 C   0  0  0  0  0  0  0  0  0  0  0  0
   28.4520   46.0450   -0.6270 C   0  0  0  0  0  0  0  0  0  0  0  0
   28.4480   43.7760   -1.4410 C   0  0  0  0  0  0  0  0  0  0  0  0
   28.0190   44.7230   -0.5200 C   0  0  0  0  0  0  0  0  0  0  0  0
   30.4430   50.3880   -3.9960 C   0  0  0  0  0  0  0  0  0  0  0  0
   30.2720   49.8740   -5.2570 N   0  0  0  0  0  0  0  0  0  0  0  0
   29.9700   51.6180   -3.9300 N   0  0  0  0  0  0  0  0  0  0  0  0
   29.4810   51.9040   -5.1810 C   0  0  0  0  0  0  0  0  0  0  0  0
   29.6600   50.8280   -6.0220 C   0  0  0  0  0  0  0  0  0  0  0  0
   28.8640   53.2280   -5.4730 C   0  0  0  0  0  0  0  0  0  0  0  0
   29.7840   54.1170   -6.3170 C   0  0  0  0  0  0  0  0  0  0  0  0
   29.1040   55.3150   -6.8230 N   0  0  0  0  0  0  0  0  0  0  0  0
  1  2  1  0
  2  3  2  0
  2  4  1  0
  4  5  1  0
  5  6  1  0
  6  7  2  0
  6  8  1  0
  7  9  1  0
  8 10  2  0
  7 11  1  0
 10 12  1  0
  9 13  2  0
 10 13  1  0
  9 14  1  0
 11 15  2  0
 14 16  2  0
 15 16  1  0
 12 17  1  0
 17 18  1  0
 17 19  2  0
 19 20  1  0
 18 21  1  0
 20 21  2  0
 20 22  1  0
 22 23  1  0
 23 24  1  0
M  END
