mac-x0305-mac-x0161
     RDKit          3D

 22 24  0  0  0  0  0  0  0  0999 V2000
   30.7960   46.3610   -8.1590 O   0  0  0  0  0  0  0  0  0  0  0  0
   29.6990   46.4880   -7.3870 C   0  0  0  0  0  0  0  0  0  0  0  0
   29.3930   45.6080   -6.5900 O   0  0  0  0  0  0  0  0  0  0  0  0
   28.9280   47.7820   -7.6290 C   0  0  2  0  0  0  0  0  0  0  0  0
   29.5120   48.9990   -6.8330 C   0  0  1  0  0  0  0  0  0  0  0  0
   27.4750   47.5110   -7.3200 N   0  0  0  0  0  0  0  0  0  0  0  0
   29.8180   50.0250   -7.8000 O   0  0  0  0  0  0  0  0  0  0  0  0
   28.3650   49.5010   -5.9330 C   0  0  1  0  0  0  0  0  0  0  0  0
   30.6170   48.9520   -5.8680 N   0  0  0  0  0  0  0  0  0  0  0  0
   26.6350   48.6810   -7.4380 C   0  0  0  0  0  0  0  0  0  0  0  0
   30.5210   47.8790   -4.8640 C   0  0  0  0  0  0  0  0  0  0  0  0
   29.0410   50.6140   -5.0930 C   0  0  1  0  0  0  0  0  0  0  0  0
   30.5500   50.2950   -5.2400 C   0  0  0  0  0  0  0  0  0  0  0  0
   27.2020   49.8480   -6.7730 N   0  0  0  0  0  0  0  0  0  0  0  0
   28.6390   51.9800   -5.4600 N   0  0  0  0  0  0  0  0  0  0  0  0
   31.7880   47.7570   -4.0830 C   0  0  0  0  0  0  0  0  0  0  0  0
   32.1250   47.9530   -2.7660 C   0  0  0  0  0  0  0  0  0  0  0  0
   32.8970   47.3670   -4.7760 O   0  0  0  0  0  0  0  0  0  0  0  0
   33.9840   47.3030   -3.9140 N   0  0  0  0  0  0  0  0  0  0  0  0
   33.4980   47.6560   -2.7220 C   0  0  0  0  0  0  0  0  0  0  0  0
   34.2760   47.7070   -1.6180 O   0  0  0  0  0  0  0  0  0  0  0  0
   35.3990   48.5750   -1.7230 C   0  0  0  0  0  0  0  0  0  0  0  0
  1  2  1  0
  2  3  2  0
  4  2  1  1
  4  5  1  0
  4  6  1  0
  5  7  1  6
  5  8  1  0
  5  9  1  0
  6 10  1  0
  9 11  1  0
  8 12  1  0
  9 13  1  0
 12 13  1  0
  8 14  1  6
 10 14  1  0
 12 15  1  6
 11 16  1  0
 16 17  2  0
 16 18  1  0
 18 19  1  0
 17 20  1  0
 19 20  2  0
 20 21  1  0
 21 22  1  0
M  END
