mac-x0394-mac-x0190
     RDKit          3D

 22 24  0  0  0  0  0  0  0  0999 V2000
   23.5520   49.7390   -5.2950 Cl  0  0  0  0  0  0  0  0  0  0  0  0
   24.5980   50.9810   -4.7270 C   0  0  0  0  0  0  0  0  0  0  0  0
   24.0530   52.1530   -4.2100 C   0  0  0  0  0  0  0  0  0  0  0  0
   25.9820   50.7990   -4.7880 C   0  0  0  0  0  0  0  0  0  0  0  0
   26.8420   51.8040   -4.3250 C   0  0  0  0  0  0  0  0  0  0  0  0
   24.9050   53.1530   -3.7510 C   0  0  0  0  0  0  0  0  0  0  0  0
   24.2500   54.6080   -3.1050 Cl  0  0  0  0  0  0  0  0  0  0  0  0
   26.2860   52.9830   -3.8060 C   0  0  0  0  0  0  0  0  0  0  0  0
   28.2910   51.6570   -4.3500 C   0  0  0  0  0  0  0  0  0  0  0  0
   29.1620   52.6190   -4.9080 C   0  0  0  0  0  0  0  0  0  0  0  0
   28.8950   50.5170   -3.7880 C   0  0  0  0  0  0  0  0  0  0  0  0
   30.5490   52.4640   -4.8890 C   0  0  0  0  0  0  0  0  0  0  0  0
   28.9970   53.8310   -5.5470 N   0  0  0  0  0  0  0  0  0  0  0  0
   30.2760   50.3440   -3.7710 C   0  0  0  0  0  0  0  0  0  0  0  0
   30.2260   54.3460   -5.8610 C   0  0  0  0  0  0  0  0  0  0  0  0
   31.1890   53.5310   -5.4740 N   0  0  0  0  0  0  0  0  0  0  0  0
   31.1140   51.3160   -4.3180 C   0  0  0  0  0  0  0  0  0  0  0  0
   27.7780   54.4440   -5.8370 O   0  0  0  0  0  0  0  0  0  0  0  0
   30.4080   55.6510   -6.5470 C   0  0  0  0  0  0  0  0  0  0  0  0
   27.1800   53.8620   -6.9150 C   0  0  0  0  0  0  0  0  0  0  0  0
   29.8890   56.6730   -5.6960 O   0  0  0  0  0  0  0  0  0  0  0  0
   27.3770   54.1040   -8.0980 O   0  0  0  0  0  0  0  0  0  0  0  0
  1  2  1  0
  2  3  2  0
  2  4  1  0
  4  5  2  0
  3  6  1  0
  6  7  1  0
  5  8  1  0
  6  8  2  0
  5  9  1  0
  9 10  1  0
  9 11  2  0
 10 12  2  0
 10 13  1  0
 11 14  1  0
 13 15  1  0
 12 16  1  0
 15 16  2  0
 12 17  1  0
 14 17  2  0
 13 18  1  0
 15 19  1  0
 18 20  1  0
 19 21  1  0
 20 22  2  0
M  END
