mac-x0397-mac-x0138
     RDKit          3D

 19 21  0  0  0  0  0  0  0  0999 V2000
   30.7130   51.8810   -2.6290 Cl  0  0  0  0  0  0  0  0  0  0  0  0
   29.1800   51.6390   -3.5160 C   0  0  1  0  0  0  0  0  0  0  0  0
   29.2610   52.2480   -4.8830 C   0  0  0  0  0  0  0  0  0  0  0  0
   28.8720   50.1350   -3.5940 C   0  0  0  0  0  0  0  0  0  0  0  0
   29.2360   53.6240   -5.0590 N   0  0  0  0  0  0  0  0  0  0  0  0
   29.3630   51.5060   -6.0530 C   0  0  0  0  0  0  0  0  0  0  0  0
   29.7100   49.3990   -4.6780 C   0  0  1  0  0  0  0  0  0  0  0  0
   29.5190   47.8840   -4.4970 C   0  0  0  0  0  0  0  0  0  0  0  0
   29.3180   53.9200   -6.3300 C   0  0  0  0  0  0  0  0  0  0  0  0
   29.4280   52.5770   -7.3890 S   0  0  0  0  0  0  0  0  0  0  0  0
   29.4120   49.9750   -6.1460 C   0  0  1  0  0  0  0  0  0  0  0  0
   29.3150   55.1810   -6.7910 N   0  0  0  0  0  0  0  0  0  0  0  0
   28.1740   49.3480   -6.8790 C   0  0  2  0  0  0  0  0  0  0  0  0
   30.5890   49.5960   -7.1030 C   0  0  0  0  0  0  0  0  0  0  0  0
   26.8820   49.5280   -6.2440 N   0  0  0  0  0  0  0  0  0  0  0  0
   28.3170   47.9220   -7.0330 N   0  0  0  0  0  0  0  0  0  0  0  0
   30.6900   48.1570   -7.3280 N   0  0  0  0  0  0  0  0  0  0  0  0
   29.4960   47.4710   -7.7020 C   0  0  2  0  0  0  0  0  0  0  0  0
   29.3020   47.5920   -9.1080 N   0  0  0  0  0  0  0  0  0  0  0  0
  2  1  1  6
  2  3  1  0
  2  4  1  0
  3  5  1  0
  3  6  2  0
  4  7  1  0
  7  8  1  6
  5  9  2  0
  6 10  1  0
  9 10  1  0
  6 11  1  0
  7 11  1  0
  9 12  1  0
 11 13  1  0
 11 14  1  6
 13 15  1  1
 13 16  1  0
 14 17  1  0
 16 18  1  0
 17 18  1  0
 18 19  1  6
M  END
