mac-x0188-mac-x0341
     RDKit          3D

 22 24  0  0  0  0  0  0  0  0999 V2000
   32.2430   44.6030   -4.0510 C   0  0  0  0  0  0  0  0  0  0  0  0
   31.8490   46.0060   -3.8200 C   0  0  0  0  0  0  0  0  0  0  0  0
   32.2750   46.5560   -2.6610 O   0  0  0  0  0  0  0  0  0  0  0  0
   31.1170   46.9320   -4.5380 C   0  0  0  0  0  0  0  0  0  0  0  0
   30.5180   46.6640   -5.8230 C   0  0  0  0  0  0  0  0  0  0  0  0
   31.8390   47.8560   -2.5800 N   0  0  0  0  0  0  0  0  0  0  0  0
   31.1410   48.0970   -3.7020 C   0  0  0  0  0  0  0  0  0  0  0  0
   29.3620   46.3090   -6.0100 O   0  0  0  0  0  0  0  0  0  0  0  0
   31.3360   46.8160   -6.8830 O   0  0  0  0  0  0  0  0  0  0  0  0
   30.5270   49.4670   -3.9000 C   0  0  2  0  0  0  0  0  0  0  0  0
   29.4860   49.7540   -2.8410 C   0  0  0  0  0  0  0  0  0  0  0  0
   29.9700   49.6800   -5.3270 C   0  0  0  0  0  0  0  0  0  0  0  0
   28.3360   50.3930   -3.0890 C   0  0  0  0  0  0  0  0  0  0  0  0
   29.1000   50.9630   -5.4770 C   0  0  1  0  0  0  0  0  0  0  0  0
   27.9380   50.8970   -4.4500 C   0  0  0  0  0  0  0  0  0  0  0  0
   29.9600   52.2050   -5.2290 C   0  0  0  0  0  0  0  0  0  0  0  0
   28.5920   51.1010   -6.9330 C   0  0  0  0  0  0  0  0  0  0  0  0
   31.0340   52.2050   -4.6350 O   0  0  0  0  0  0  0  0  0  0  0  0
   29.4520   53.3720   -5.7240 N   0  0  0  0  0  0  0  0  0  0  0  0
   28.1520   52.4370   -7.3730 N   0  0  0  0  0  0  0  0  0  0  0  0
   29.0560   53.4860   -7.0610 C   0  0  1  0  0  0  0  0  0  0  0  0
   28.2650   54.6660   -7.1250 N   0  0  0  0  0  0  0  0  0  0  0  0
  1  2  1  0
  2  3  1  0
  2  4  2  0
  4  5  1  0
  3  6  1  0
  4  7  1  0
  6  7  2  0
  5  8  2  0
  5  9  1  0
 10  7  1  6
 10 11  1  0
 10 12  1  0
 11 13  2  0
 14 12  1  6
 13 15  1  0
 14 15  1  0
 14 16  1  0
 14 17  1  0
 16 18  2  0
 16 19  1  0
 17 20  1  0
 19 21  1  0
 20 21  1  0
 21 22  1  1
M  END
