mac-x0124-mac-x0380
     RDKit          3D

 24 27  0  0  0  0  0  0  0  0999 V2000
   30.8670   45.6090   -5.6670 C   0  0  0  0  0  0  0  0  0  0  0  0
   30.4240   46.9820   -5.7140 N   0  0  0  0  0  0  0  0  0  0  0  0
   30.7370   47.9510   -4.7980 C   0  0  0  0  0  0  0  0  0  0  0  0
   29.6210   47.5080   -6.6960 C   0  0  0  0  0  0  0  0  0  0  0  0
   30.1240   49.1170   -5.1960 C   0  0  0  0  0  0  0  0  0  0  0  0
   29.4070   48.8480   -6.4040 C   0  0  0  0  0  0  0  0  0  0  0  0
   29.1310   46.8370   -7.7500 N   0  0  0  0  0  0  0  0  0  0  0  0
   28.5940   49.5820   -7.2940 C   0  0  0  0  0  0  0  0  0  0  0  0
   28.3770   47.6240   -8.5330 C   0  0  0  0  0  0  0  0  0  0  0  0
   28.3330   50.9390   -7.0390 N   0  0  0  0  0  0  0  0  0  0  0  0
   28.0840   48.9310   -8.3700 N   0  0  0  0  0  0  0  0  0  0  0  0
   28.3020   51.5390   -5.7650 C   0  0  0  0  0  0  0  0  0  0  0  0
   28.3390   52.9470   -5.5940 C   0  0  0  0  0  0  0  0  0  0  0  0
   28.2380   50.7310   -4.6290 C   0  0  0  0  0  0  0  0  0  0  0  0
   28.2190   51.2780   -3.3560 C   0  0  0  0  0  0  0  0  0  0  0  0
   28.3180   53.5010   -4.2950 C   0  0  0  0  0  0  0  0  0  0  0  0
   28.3990   53.7730   -6.7360 N   0  0  0  0  0  0  0  0  0  0  0  0
   28.1570   50.3680   -2.1950 C   0  0  0  0  0  0  0  0  0  0  0  0
   28.2590   52.6560   -3.1820 C   0  0  0  0  0  0  0  0  0  0  0  0
   28.4710   55.1350   -6.7360 C   0  0  0  0  0  0  0  0  0  0  0  0
   28.3640   55.2550   -3.9850 S   0  0  0  0  0  0  0  0  0  0  0  0
   29.1520   50.0740   -1.5440 O   0  0  0  0  0  0  0  0  0  0  0  0
   28.0360   55.7730   -7.6960 O   0  0  0  0  0  0  0  0  0  0  0  0
   29.0880   55.8130   -5.5380 C   0  0  0  0  0  0  0  0  0  0  0  0
  1  2  1  0
  2  3  1  0
  2  4  1  0
  3  5  2  0
  4  6  2  0
  5  6  1  0
  4  7  1  0
  6  8  1  0
  7  9  2  0
  8 10  1  0
  8 11  2  0
  9 11  1  0
 10 12  1  0
 12 13  1  0
 12 14  2  0
 14 15  1  0
 13 16  2  0
 13 17  1  0
 15 18  1  0
 15 19  2  0
 16 19  1  0
 17 20  1  0
 16 21  1  0
 18 22  2  0
 20 23  2  0
 20 24  1  0
 21 24  1  0
M  END
