mac-x0284-mac-x0116
     RDKit          3D

 21 23  0  0  0  0  0  0  0  0999 V2000
   29.1450   51.5640   -6.3040 C   0  0  0  0  0  0  0  0  0  0  0  0
   29.3530   53.0470   -5.9170 C   0  0  0  0  0  0  0  0  0  0  0  0
   30.5480   53.6250   -6.5970 C   0  0  0  0  0  0  0  0  0  0  0  0
   29.0590   50.4550   -5.2070 C   0  0  1  0  0  0  0  0  0  0  0  0
   29.2590   48.9790   -5.7760 C   0  0  2  0  0  0  0  0  0  0  0  0
   29.7410   50.7700   -3.8930 C   0  0  0  0  0  0  0  0  0  0  0  0
   29.5910   47.9630   -4.6290 C   0  0  1  0  0  0  0  0  0  0  0  0
   30.4610   49.8780   -3.2050 C   0  0  0  0  0  0  0  0  0  0  0  0
   31.7560   53.3120   -6.0460 O   0  0  0  0  0  0  0  0  0  0  0  0
   30.7390   54.4420   -7.7010 C   0  0  0  0  0  0  0  0  0  0  0  0
   30.3710   48.8440   -6.7650 N   0  0  0  0  0  0  0  0  0  0  0  0
   28.0590   48.5880   -6.6460 C   0  0  0  0  0  0  0  0  0  0  0  0
   30.0130   46.5980   -5.1440 C   0  0  0  0  0  0  0  0  0  0  0  0
   30.6770   48.4740   -3.6670 C   0  0  1  0  0  0  0  0  0  0  0  0
   32.1380   54.6300   -7.8210 C   0  0  0  0  0  0  0  0  0  0  0  0
   32.7120   53.9230   -6.7910 C   0  0  0  0  0  0  0  0  0  0  0  0
   28.4720   48.9670   -7.9950 N   0  0  0  0  0  0  0  0  0  0  0  0
   29.7970   48.4230   -8.0330 C   0  0  0  0  0  0  0  0  0  0  0  0
   30.7400   47.6570   -2.4970 O   0  0  0  0  0  0  0  0  0  0  0  0
   29.8360   46.1770   -6.2770 O   0  0  0  0  0  0  0  0  0  0  0  0
   30.6380   45.8110   -4.2490 O   0  0  0  0  0  0  0  0  0  0  0  0
  1  2  1  0
  2  3  1  0
  4  1  1  6
  4  5  1  0
  4  6  1  0
  5  7  1  0
  6  8  2  0
  3  9  1  0
  3 10  2  0
  5 11  1  0
  5 12  1  6
  7 13  1  6
  7 14  1  0
  8 14  1  0
 10 15  1  0
  9 16  1  0
 15 16  2  0
 12 17  1  0
 11 18  1  0
 17 18  1  0
 14 19  1  1
 13 20  2  0
 13 21  1  0
M  END
