mac-x0115-mac-x0358
     RDKit          3D

 27 29  0  0  0  0  0  0  0  0999 V2000
   28.2430   45.4680   -2.0710 C   0  0  0  0  0  0  0  0  0  0  0  0
   29.0870   44.2820   -2.5460 C   0  0  0  0  0  0  0  0  0  0  0  0
   28.2950   42.9970   -2.3610 C   0  0  0  0  0  0  0  0  0  0  0  0
   29.3660   44.3700   -3.9490 O   0  0  0  0  0  0  0  0  0  0  0  0
   30.7440   44.1760   -4.3440 C   0  0  0  0  0  0  0  0  0  0  0  0
   31.3930   45.5220   -4.8840 C   0  0  1  0  0  0  0  0  0  0  0  0
   32.6440   45.0400   -5.7100 C   0  0  0  0  0  0  0  0  0  0  0  0
   30.4470   46.1610   -5.9490 N   0  0  0  0  0  0  0  0  0  0  0  0
   31.7190   46.4010   -3.6490 C   0  0  0  0  0  0  0  0  0  0  0  0
   32.3160   44.1900   -6.7180 O   0  0  0  0  0  0  0  0  0  0  0  0
   33.8260   45.3260   -5.5880 O   0  0  0  0  0  0  0  0  0  0  0  0
   30.1170   45.5190   -7.1910 C   0  0  0  0  0  0  0  0  0  0  0  0
   30.0900   47.5030   -5.8650 C   0  0  0  0  0  0  0  0  0  0  0  0
   32.9950   46.9260   -3.3300 C   0  0  0  0  0  0  0  0  0  0  0  0
   30.6870   46.7200   -2.7450 C   0  0  0  0  0  0  0  0  0  0  0  0
   30.1440   43.8870   -7.5940 S   0  0  0  0  0  0  0  0  0  0  0  0
   34.0790   46.6850   -4.1300 O   0  0  0  0  0  0  0  0  0  0  0  0
   29.7100   46.3580   -8.2200 N   0  0  0  0  0  0  0  0  0  0  0  0
   28.9330   48.0010   -6.6570 C   0  0  2  0  0  0  0  0  0  0  0  0
   30.6420   48.4820   -5.1500 C   0  0  0  0  0  0  0  0  0  0  0  0
   33.2100   47.7110   -2.1910 C   0  0  0  0  0  0  0  0  0  0  0  0
   30.8960   47.4990   -1.6090 C   0  0  0  0  0  0  0  0  0  0  0  0
   29.1680   47.6190   -8.1020 C   0  0  0  0  0  0  0  0  0  0  0  0
   28.8690   49.4570   -6.3800 N   0  0  0  0  0  0  0  0  0  0  0  0
   29.8330   49.6350   -5.5260 C   0  0  0  0  0  0  0  0  0  0  0  0
   32.1560   47.9980   -1.3280 C   0  0  0  0  0  0  0  0  0  0  0  0
   28.9250   48.3040   -9.0920 O   0  0  0  0  0  0  0  0  0  0  0  0
  1  2  1  0
  2  3  1  0
  2  4  1  0
  4  5  1  0
  6  5  1  1
  6  7  1  0
  6  8  1  0
  6  9  1  0
  7 10  1  0
  7 11  2  0
  8 12  1  0
  8 13  1  0
  9 14  2  0
  9 15  1  0
 12 16  2  0
 14 17  1  0
 12 18  1  0
 13 19  1  0
 13 20  2  0
 14 21  1  0
 15 22  2  0
 18 23  1  0
 19 23  1  0
 19 24  1  6
 20 25  1  0
 24 25  2  0
 21 26  2  0
 22 26  1  0
 23 27  2  0
M  END
