mac-x0333-mac-x0380
     RDKit          3D

 13 14  0  0  0  0  0  0  0  0999 V2000
   30.0160   48.7020   -4.2870 O   0  0  0  0  0  0  0  0  0  0  0  0
   29.3360   48.3750   -3.1300 C   0  0  0  0  0  0  0  0  0  0  0  0
   29.5190   48.7950   -1.9990 O   0  0  0  0  0  0  0  0  0  0  0  0
   29.7090   49.9920   -4.7230 C   0  0  0  0  0  0  0  0  0  0  0  0
   30.0090   51.0810   -3.8950 C   0  0  0  0  0  0  0  0  0  0  0  0
   29.1080   50.1620   -5.9850 C   0  0  0  0  0  0  0  0  0  0  0  0
   29.6920   52.3380   -4.3620 C   0  0  0  0  0  0  0  0  0  0  0  0
   28.7950   51.4430   -6.4410 C   0  0  0  0  0  0  0  0  0  0  0  0
   29.1010   52.5030   -5.6030 C   0  0  0  0  0  0  0  0  0  0  0  0
   29.9240   53.4980   -3.6690 O   0  0  0  0  0  0  0  0  0  0  0  0
   28.9160   53.9260   -5.7580 C   0  0  0  0  0  0  0  0  0  0  0  0
   29.6620   54.5620   -4.6170 C   0  0  0  0  0  0  0  0  0  0  0  0
   28.2780   54.4790   -6.6380 O   0  0  0  0  0  0  0  0  0  0  0  0
  1  2  1  0
  2  3  2  0
  1  4  1  0
  4  5  2  0
  4  6  1  0
  5  7  1  0
  6  8  2  0
  7  9  2  0
  8  9  1  0
  7 10  1  0
  9 11  1  0
 10 12  1  0
 11 12  1  0
 11 13  2  0
M  END
