mac-x0404-mac-x0193
     RDKit          3D

 25 27  0  0  0  0  0  0  0  0999 V2000
   31.7530   45.8470   -6.3660 O   0  0  0  0  0  0  0  0  0  0  0  0
   32.9410   45.6070   -5.7580 C   0  0  0  0  0  0  0  0  0  0  0  0
   33.9300   46.2330   -6.1130 O   0  0  0  0  0  0  0  0  0  0  0  0
   32.8860   44.5180   -4.6550 C   0  0  2  0  0  0  0  0  0  0  0  0
   31.5810   44.5120   -4.0300 O   0  0  0  0  0  0  0  0  0  0  0  0
   33.9510   44.7600   -3.6590 N   0  0  0  0  0  0  0  0  0  0  0  0
   34.6320   43.7080   -3.0600 C   0  0  0  0  0  0  0  0  0  0  0  0
   31.2450   45.5460   -3.1650 C   0  0  0  0  0  0  0  0  0  0  0  0
   34.1840   42.5740   -2.9810 O   0  0  0  0  0  0  0  0  0  0  0  0
   35.8730   44.0650   -2.5520 N   0  0  0  0  0  0  0  0  0  0  0  0
   29.9990   45.4680   -2.4860 C   0  0  0  0  0  0  0  0  0  0  0  0
   32.1010   46.6320   -2.9630 C   0  0  0  0  0  0  0  0  0  0  0  0
   29.6430   46.5100   -1.5970 C   0  0  0  0  0  0  0  0  0  0  0  0
   31.7370   47.6530   -2.0850 C   0  0  0  0  0  0  0  0  0  0  0  0
   29.0950   44.3960   -2.6560 C   0  0  0  0  0  0  0  0  0  0  0  0
   36.7270   43.0770   -1.8670 C   0  0  0  0  0  0  0  0  0  0  0  0
   30.5170   47.5880   -1.4080 C   0  0  0  0  0  0  0  0  0  0  0  0
   28.4170   46.4530   -0.9110 C   0  0  0  0  0  0  0  0  0  0  0  0
   27.8820   44.3550   -1.9690 C   0  0  0  0  0  0  0  0  0  0  0  0
   37.8720   42.5860   -2.7670 C   0  0  0  0  0  0  0  0  0  0  0  0
   37.2900   43.6190   -0.5430 C   0  0  0  0  0  0  0  0  0  0  0  0
   27.5420   45.3810   -1.0970 C   0  0  0  0  0  0  0  0  0  0  0  0
   38.7770   41.5720   -2.0660 C   0  0  0  0  0  0  0  0  0  0  0  0
   38.2140   42.6210    0.1680 C   0  0  0  0  0  0  0  0  0  0  0  0
   39.3250   42.1150   -0.7480 C   0  0  0  0  0  0  0  0  0  0  0  0
  1  2  1  0
  2  3  2  0
  2  4  1  0
  4  5  1  0
  4  6  1  1
  6  7  1  0
  5  8  1  0
  7  9  2  0
  7 10  1  0
  8 11  1  0
  8 12  2  0
 11 13  2  0
 12 14  1  0
 11 15  1  0
 10 16  1  0
 13 17  1  0
 14 17  2  0
 13 18  1  0
 15 19  2  0
 16 20  1  0
 16 21  1  0
 18 22  2  0
 19 22  1  0
 20 23  1  0
 21 24  1  0
 23 25  1  0
 24 25  1  0
M  END
