mac-x0441-mac-x0228
     RDKit          3D

 31 34  0  0  0  0  0  0  0  0999 V2000
   33.9930   45.3150   -6.1230 O   0  0  0  0  0  0  0  0  0  0  0  0
   33.0720   44.4880   -5.5620 C   0  0  0  0  0  0  0  0  0  0  0  0
   32.4310   43.6970   -6.2420 O   0  0  0  0  0  0  0  0  0  0  0  0
   32.9270   44.6450   -4.0580 C   0  0  2  0  0  0  0  0  0  0  0  0
   32.1180   45.8740   -3.6130 C   0  0  0  0  0  0  0  0  0  0  0  0
   34.2260   44.5280   -3.3980 N   0  0  0  0  0  0  0  0  0  0  0  0
   31.4770   46.6350   -4.7780 C   0  0  0  0  0  0  0  0  0  0  0  0
   34.5370   43.3300   -2.8490 N   0  0  0  0  0  0  0  0  0  0  0  0
   35.2220   45.4490   -3.2270 C   0  0  0  0  0  0  0  0  0  0  0  0
   31.3650   48.0430   -4.3920 N   0  0  0  0  0  0  0  0  0  0  0  0
   35.7680   43.4880   -2.3110 C   0  0  0  0  0  0  0  0  0  0  0  0
   36.2290   44.8120   -2.5310 C   0  0  0  0  0  0  0  0  0  0  0  0
   35.2520   46.8700   -3.6830 C   0  0  0  0  0  0  0  0  0  0  0  0
   36.4890   42.3730   -1.5940 C   0  0  0  0  0  0  0  0  0  0  0  0
   30.3080   48.7020   -4.6990 C   0  0  0  0  0  0  0  0  0  0  0  0
   37.5040   45.4830   -2.1390 C   0  0  0  0  0  0  0  0  0  0  0  0
   36.3710   47.6280   -2.9420 C   0  0  0  0  0  0  0  0  0  0  0  0
   37.5730   41.9300   -2.2890 F   0  0  0  0  0  0  0  0  0  0  0  0
   36.9530   42.7740   -0.3770 F   0  0  0  0  0  0  0  0  0  0  0  0
   35.7060   41.2840   -1.3750 F   0  0  0  0  0  0  0  0  0  0  0  0
   29.3420   48.0550   -5.3690 O   0  0  0  0  0  0  0  0  0  0  0  0
   37.6780   46.8210   -2.8820 C   0  0  0  0  0  0  0  0  0  0  0  0
   29.9220   50.0970   -4.4520 C   0  0  0  0  0  0  0  0  0  0  0  0
   29.7190   50.9700   -5.5290 C   0  0  0  0  0  0  0  0  0  0  0  0
   29.7630   50.5400   -3.1230 C   0  0  0  0  0  0  0  0  0  0  0  0
   29.3580   52.2770   -5.2460 C   0  0  0  0  0  0  0  0  0  0  0  0
   29.3970   51.8630   -2.8610 C   0  0  0  0  0  0  0  0  0  0  0  0
   29.2030   52.7040   -3.9360 C   0  0  0  0  0  0  0  0  0  0  0  0
   29.0820   53.4030   -6.1640 C   0  0  0  0  0  0  0  0  0  0  0  0
   28.8440   54.0230   -3.8320 O   0  0  0  0  0  0  0  0  0  0  0  0
   29.1030   54.5520   -5.1540 C   0  0  0  0  0  0  0  0  0  0  0  0
  1  2  1  0
  2  3  2  0
  2  4  1  0
  4  5  1  6
  4  6  1  0
  5  7  1  0
  6  8  1  0
  6  9  1  0
  7 10  1  0
  8 11  2  0
  9 12  2  0
 11 12  1  0
  9 13  1  0
 11 14  1  0
 10 15  2  3
 12 16  1  0
 13 17  1  0
 14 18  1  0
 14 19  1  0
 14 20  1  0
 15 21  1  0
 16 22  1  0
 17 22  1  0
 15 23  1  0
 23 24  2  0
 23 25  1  0
 24 26  1  0
 25 27  2  0
 26 28  2  0
 27 28  1  0
 26 29  1  0
 28 30  1  0
 29 31  1  0
 30 31  1  0
M  END
