mac-x0321-mac-x0328
     RDKit          3D

 11 11  0  0  0  0  0  0  0  0999 V2000
   28.5540   52.2460   -6.8990 Cl  0  0  0  0  0  0  0  0  0  0  0  0
   29.1590   51.4890   -5.4700 C   0  0  0  0  0  0  0  0  0  0  0  0
   29.5060   50.1360   -5.5050 C   0  0  0  0  0  0  0  0  0  0  0  0
   29.3040   52.2220   -4.2830 C   0  0  0  0  0  0  0  0  0  0  0  0
   28.9850   53.5510   -4.1940 O   0  0  0  0  0  0  0  0  0  0  0  0
   30.0000   49.5160   -4.3460 C   0  0  0  0  0  0  0  0  0  0  0  0
   29.7880   51.6120   -3.1340 C   0  0  0  0  0  0  0  0  0  0  0  0
   30.3920   48.0860   -4.3170 C   0  0  0  0  0  0  0  0  0  0  0  0
   30.1380   50.2580   -3.1650 C   0  0  0  0  0  0  0  0  0  0  0  0
   30.0880   47.4300   -5.4510 O   0  0  0  0  0  0  0  0  0  0  0  0
   30.9390   47.5210   -3.3890 O   0  0  0  0  0  0  0  0  0  0  0  0
  1  2  1  0
  2  3  2  0
  2  4  1  0
  4  5  1  0
  3  6  1  0
  4  7  2  0
  6  8  1  0
  6  9  2  0
  7  9  1  0
  8 10  1  0
  8 11  2  0
M  END
