mac-x0182-mac-x0588
     RDKit          3D

 29 33  0  0  0  0  0  0  0  0999 V2000
   34.4170   43.3470   -2.7500 O   0  0  0  0  0  0  0  0  0  0  0  0
   34.5240   44.4630   -3.2360 C   0  0  0  0  0  0  0  0  0  0  0  0
   33.6760   45.0350   -4.1390 N   0  0  0  0  0  0  0  0  0  0  0  0
   35.6370   45.3880   -2.8970 C   0  0  0  0  0  0  0  0  0  0  0  0
   34.0930   46.6090   -4.5180 S   0  0  2  0  0  0  0  0  0  0  0  0
   35.5270   46.6190   -3.5360 C   0  0  0  0  0  0  0  0  0  0  0  0
   36.7060   45.1340   -2.0500 C   0  0  0  0  0  0  0  0  0  0  0  0
   33.0130   47.4890   -3.8820 N   0  0  0  0  0  0  0  0  0  0  0  0
   34.5000   46.5830   -5.9040 O   0  0  0  0  0  0  0  0  0  0  0  0
   36.4460   47.6390   -3.3730 C   0  0  0  0  0  0  0  0  0  0  0  0
   37.6560   46.1480   -1.8650 C   0  0  0  0  0  0  0  0  0  0  0  0
   31.7800   46.8680   -3.3090 C   0  0  0  0  0  0  0  0  0  0  0  0
   37.5260   47.3890   -2.5210 C   0  0  0  0  0  0  0  0  0  0  0  0
   30.5260   46.8180   -4.2680 C   0  0  2  0  0  0  0  0  0  0  0  0
   30.2410   48.1390   -4.9040 N   0  0  0  0  0  0  0  0  0  0  0  0
   29.3140   46.1150   -3.5660 C   0  0  2  0  0  0  0  0  0  0  0  0
   30.0440   49.2660   -3.9890 C   0  0  0  0  0  0  0  0  0  0  0  0
   29.2390   48.1490   -5.9490 C   0  0  1  0  0  0  0  0  0  0  0  0
   28.9150   46.7680   -2.3460 O   0  0  0  0  0  0  0  0  0  0  0  0
   29.5860   44.6770   -3.1430 C   0  0  0  0  0  0  0  0  0  0  0  0
   29.1110   50.2570   -4.5340 N   0  0  0  0  0  0  0  0  0  0  0  0
   29.4570   49.3570   -6.8340 C   0  0  2  0  0  0  0  0  0  0  0  0
   29.3970   47.1030   -6.9490 N   0  0  0  0  0  0  0  0  0  0  0  0
   28.5570   44.4300   -2.0660 C   0  0  0  0  0  0  0  0  0  0  0  0
   28.2850   45.8050   -1.4870 C   0  0  0  0  0  0  0  0  0  0  0  0
   29.3840   50.5990   -5.9240 C   0  0  1  0  0  0  0  0  0  0  0  0
   28.4720   49.0870   -7.8930 N   0  0  0  0  0  0  0  0  0  0  0  0
   28.7290   47.6610   -8.1370 C   0  0  0  0  0  0  0  0  0  0  0  0
   28.3360   51.5290   -6.3080 N   0  0  0  0  0  0  0  0  0  0  0  0
  1  2  2  0
  2  3  1  0
  2  4  1  0
  5  3  1  1
  4  6  2  0
  5  6  1  0
  4  7  1  0
  5  8  2  0
  5  9  2  0
  6 10  1  0
  7 11  2  0
  8 12  1  0
 10 13  2  0
 11 13  1  0
 14 12  1  1
 14 15  1  0
 14 16  1  0
 15 17  1  0
 15 18  1  0
 16 19  1  0
 16 20  1  1
 17 21  1  0
 18 22  1  0
 18 23  1  6
 20 24  1  0
 19 25  1  0
 24 25  1  0
 21 26  1  0
 22 26  1  0
 22 27  1  6
 23 28  1  0
 27 28  1  0
 26 29  1  6
M  END
