mac-x0182-mac-x0567
     RDKit          3D

 24 27  0  0  0  0  0  0  0  0999 V2000
   34.4010   43.3840   -2.5250 O   0  0  0  0  0  0  0  0  0  0  0  0
   34.6310   44.4010   -3.1600 C   0  0  0  0  0  0  0  0  0  0  0  0
   33.9440   44.8160   -4.2760 N   0  0  0  0  0  0  0  0  0  0  0  0
   35.7080   45.3560   -2.8020 C   0  0  0  0  0  0  0  0  0  0  0  0
   34.3850   46.3830   -4.7090 S   0  0  2  0  0  0  0  0  0  0  0  0
   35.6940   46.5030   -3.5810 C   0  0  0  0  0  0  0  0  0  0  0  0
   36.6660   45.1940   -1.8090 C   0  0  0  0  0  0  0  0  0  0  0  0
   33.1990   47.2100   -4.2210 N   0  0  0  0  0  0  0  0  0  0  0  0
   34.9160   46.2790   -6.0440 O   0  0  0  0  0  0  0  0  0  0  0  0
   36.5990   47.5300   -3.4280 C   0  0  0  0  0  0  0  0  0  0  0  0
   37.6000   46.2210   -1.6300 C   0  0  0  0  0  0  0  0  0  0  0  0
   32.3770   47.9170   -5.2250 C   0  0  0  0  0  0  0  0  0  0  0  0
   37.5680   47.3790   -2.4330 C   0  0  0  0  0  0  0  0  0  0  0  0
   30.8850   47.7050   -4.9310 C   0  0  0  0  0  0  0  0  0  0  0  0
   30.0660   48.9420   -5.1920 C   0  0  0  0  0  0  0  0  0  0  0  0
   29.3900   49.3280   -6.3650 C   0  0  0  0  0  0  0  0  0  0  0  0
   29.8900   49.9180   -4.1710 C   0  0  0  0  0  0  0  0  0  0  0  0
   29.3190   48.6570   -7.5640 C   0  0  0  0  0  0  0  0  0  0  0  0
   28.6140   50.5450   -6.5420 C   0  0  0  0  0  0  0  0  0  0  0  0
   29.1360   51.1200   -4.3130 C   0  0  0  0  0  0  0  0  0  0  0  0
   29.8170   47.4870   -8.0350 N   0  0  0  0  0  0  0  0  0  0  0  0
   28.5460   49.4590   -8.3620 N   0  0  0  0  0  0  0  0  0  0  0  0
   28.1100   50.5900   -7.7850 N   0  0  0  0  0  0  0  0  0  0  0  0
   28.4710   51.4780   -5.5020 C   0  0  0  0  0  0  0  0  0  0  0  0
  1  2  2  0
  2  3  1  0
  2  4  1  0
  5  3  1  1
  4  6  2  0
  5  6  1  0
  4  7  1  0
  5  8  2  0
  5  9  2  0
  6 10  1  0
  7 11  2  0
  8 12  1  0
 10 13  2  0
 11 13  1  0
 12 14  1  0
 14 15  1  0
 15 16  1  0
 15 17  2  0
 16 18  2  0
 16 19  1  0
 17 20  1  0
 18 21  1  0
 18 22  1  0
 19 23  2  0
 22 23  1  0
 19 24  1  0
 20 24  2  0
M  END
