mac-x0302-mac-x0224
     RDKit          3D

 22 23  0  0  0  0  0  0  0  0999 V2000
   30.7420   44.9800   -3.8310 O   0  0  0  0  0  0  0  0  0  0  0  0
   30.8000   46.0080   -4.7020 C   0  0  0  0  0  0  0  0  0  0  0  0
   30.7950   45.7800   -5.9070 O   0  0  0  0  0  0  0  0  0  0  0  0
   30.8810   47.4050   -4.0600 C   0  0  2  0  0  0  0  0  0  0  0  0
   29.8510   47.6660   -3.0720 N   0  0  0  0  0  0  0  0  0  0  0  0
   30.5260   48.4700   -5.0080 C   0  0  0  0  0  0  0  0  0  0  0  0
   29.6460   48.9720   -2.6150 C   0  0  0  0  0  0  0  0  0  0  0  0
   29.7510   48.1700   -6.1170 C   0  0  0  0  0  0  0  0  0  0  0  0
   30.9550   49.7750   -4.7740 C   0  0  0  0  0  0  0  0  0  0  0  0
   29.8780   49.2680   -1.4520 O   0  0  0  0  0  0  0  0  0  0  0  0
   29.1410   50.0770   -3.5280 C   0  0  0  0  0  0  0  0  0  0  0  0
   29.3920   49.1740   -6.9970 C   0  0  0  0  0  0  0  0  0  0  0  0
   30.5940   50.7850   -5.6580 C   0  0  0  0  0  0  0  0  0  0  0  0
   29.5500   51.3940   -3.2230 C   0  0  0  0  0  0  0  0  0  0  0  0
   28.2980   49.8760   -4.6390 C   0  0  0  0  0  0  0  0  0  0  0  0
   29.8050   50.4810   -6.7730 C   0  0  0  0  0  0  0  0  0  0  0  0
   29.2830   51.7070   -7.9520 S   0  0  0  0  0  0  0  0  0  0  0  0
   29.1230   52.4690   -4.0080 C   0  0  0  0  0  0  0  0  0  0  0  0
   27.8780   50.9690   -5.4180 C   0  0  0  0  0  0  0  0  0  0  0  0
   29.5030   53.7530   -3.7330 O   0  0  0  0  0  0  0  0  0  0  0  0
   29.5910   53.2420   -7.0420 C   0  0  0  0  0  0  0  0  0  0  0  0
   28.2900   52.2620   -5.1000 C   0  0  0  0  0  0  0  0  0  0  0  0
  1  2  1  0
  2  3  2  0
  2  4  1  0
  4  5  1  1
  4  6  1  0
  5  7  1  0
  6  8  2  0
  6  9  1  0
  7 10  2  0
  7 11  1  0
  8 12  1  0
  9 13  2  0
 11 14  2  0
 11 15  1  0
 12 16  2  0
 13 16  1  0
 16 17  1  0
 14 18  1  0
 15 19  2  0
 18 20  1  0
 17 21  1  0
 18 22  2  0
 19 22  1  0
M  END
