mac-x0284-mac-x0441
     RDKit          3D

 29 31  0  0  0  0  0  0  0  0999 V2000
   28.4420   51.4580   -5.8150 C   0  0  0  0  0  0  0  0  0  0  0  0
   29.0740   50.4220   -4.9320 C   0  0  0  0  0  0  0  0  0  0  0  0
   29.4760   50.7550   -3.6370 C   0  0  0  0  0  0  0  0  0  0  0  0
   29.2670   49.1130   -5.3920 C   0  0  0  0  0  0  0  0  0  0  0  0
   29.8570   48.1380   -4.5670 C   0  0  0  0  0  0  0  0  0  0  0  0
   30.0620   49.7920   -2.8130 C   0  0  0  0  0  0  0  0  0  0  0  0
   30.0120   46.7860   -5.1560 C   0  0  0  0  0  0  0  0  0  0  0  0
   30.2530   48.4910   -3.2710 C   0  0  0  0  0  0  0  0  0  0  0  0
   30.8340   47.6510   -2.3650 O   0  0  0  0  0  0  0  0  0  0  0  0
   29.5800   46.4600   -6.2510 O   0  0  0  0  0  0  0  0  0  0  0  0
   30.6950   45.9750   -4.3080 O   0  0  0  0  0  0  0  0  0  0  0  0
   32.0890   46.3120   -4.1340 C   0  0  0  0  0  0  0  0  0  0  0  0
   32.9380   45.0910   -4.4650 C   0  0  1  0  0  0  0  0  0  0  0  0
   33.2270   45.0250   -5.9550 C   0  0  0  0  0  0  0  0  0  0  0  0
   34.1650   44.9400   -3.6880 N   0  0  0  0  0  0  0  0  0  0  0  0
   34.5000   45.3280   -6.3130 O   0  0  0  0  0  0  0  0  0  0  0  0
   32.3870   44.7290   -6.7970 O   0  0  0  0  0  0  0  0  0  0  0  0
   34.3900   43.7080   -3.1540 N   0  0  0  0  0  0  0  0  0  0  0  0
   35.1620   45.8210   -3.3790 C   0  0  0  0  0  0  0  0  0  0  0  0
   35.5610   43.8110   -2.4900 C   0  0  0  0  0  0  0  0  0  0  0  0
   36.0790   45.1250   -2.6090 C   0  0  0  0  0  0  0  0  0  0  0  0
   35.2910   47.2560   -3.7650 C   0  0  0  0  0  0  0  0  0  0  0  0
   36.1930   42.6570   -1.7390 C   0  0  0  0  0  0  0  0  0  0  0  0
   37.3260   45.7340   -2.0660 C   0  0  0  0  0  0  0  0  0  0  0  0
   36.3580   47.9440   -2.8900 C   0  0  0  0  0  0  0  0  0  0  0  0
   37.2870   42.1720   -2.3860 F   0  0  0  0  0  0  0  0  0  0  0  0
   36.6110   43.0320   -0.4980 F   0  0  0  0  0  0  0  0  0  0  0  0
   35.3430   41.6110   -1.5600 F   0  0  0  0  0  0  0  0  0  0  0  0
   37.6260   47.0840   -2.7400 C   0  0  0  0  0  0  0  0  0  0  0  0
  1  2  1  0
  2  3  2  0
  2  4  1  0
  4  5  2  0
  3  6  1  0
  5  7  1  0
  5  8  1  0
  6  8  2  0
  8  9  1  0
  7 10  2  0
  7 11  1  0
 11 12  1  0
 13 12  1  6
 13 14  1  0
 13 15  1  0
 14 16  1  0
 14 17  2  0
 15 18  1  0
 15 19  1  0
 18 20  2  0
 19 21  2  0
 20 21  1  0
 19 22  1  0
 20 23  1  0
 21 24  1  0
 22 25  1  0
 23 26  1  0
 23 27  1  0
 23 28  1  0
 24 29  1  0
 25 29  1  0
M  END
