mac-x0204-mac-x0365
     RDKit          3D

 20 21  0  0  0  0  0  0  0  0999 V2000
   31.5110   47.2990   -6.0860 O   0  0  0  0  0  0  0  0  0  0  0  0
   30.5880   47.0140   -5.0440 C   0  0  0  0  0  0  0  0  0  0  0  0
   30.1730   45.6760   -5.2680 O   0  0  0  0  0  0  0  0  0  0  0  0
   29.3530   47.9540   -5.1130 C   0  0  0  0  0  0  0  0  0  0  0  0
   31.3040   47.1630   -3.7290 C   0  0  0  0  0  0  0  0  0  0  0  0
   28.2480   47.4400   -5.2580 O   0  0  0  0  0  0  0  0  0  0  0  0
   30.6120   47.0810   -2.5130 C   0  0  0  0  0  0  0  0  0  0  0  0
   32.6790   47.3930   -3.6650 C   0  0  0  0  0  0  0  0  0  0  0  0
   29.4390   49.4500   -4.9960 C   0  0  0  0  0  0  0  0  0  0  0  0
   31.2970   47.2280   -1.3190 C   0  0  0  0  0  0  0  0  0  0  0  0
   33.3710   47.5400   -2.5120 N   0  0  0  0  0  0  0  0  0  0  0  0
   29.6550   50.0090   -3.7240 C   0  0  0  0  0  0  0  0  0  0  0  0
   29.3060   50.3090   -6.0970 C   0  0  0  0  0  0  0  0  0  0  0  0
   30.6600   47.1560   -0.1180 O   0  0  0  0  0  0  0  0  0  0  0  0
   32.6630   47.4540   -1.3610 C   0  0  0  0  0  0  0  0  0  0  0  0
   29.7320   51.3940   -3.5710 C   0  0  0  0  0  0  0  0  0  0  0  0
   29.3820   51.6990   -5.9340 C   0  0  0  0  0  0  0  0  0  0  0  0
   29.9390   51.9100   -2.3500 F   0  0  0  0  0  0  0  0  0  0  0  0
   29.5950   52.2370   -4.6680 C   0  0  0  0  0  0  0  0  0  0  0  0
   29.6700   53.5860   -4.4830 O   0  0  0  0  0  0  0  0  0  0  0  0
  2  1  1  0
  2  3  1  0
  2  4  1  0
  2  5  1  0
  4  6  2  0
  5  7  2  0
  5  8  1  0
  4  9  1  0
  7 10  1  0
  8 11  2  0
  9 12  2  0
  9 13  1  0
 10 14  1  0
 10 15  2  0
 11 15  1  0
 12 16  1  0
 13 17  2  0
 16 18  1  0
 16 19  2  0
 17 19  1  0
 19 20  1  0
M  END
