mac-x0301-mac-x0546
     RDKit          3D

 28 31  0  0  0  0  0  0  0  0999 V2000
   31.7270   47.5270   -6.7000 O   0  0  0  0  0  0  0  0  0  0  0  0
   31.3650   47.8570   -5.4460 C   0  0  0  0  0  0  0  0  0  0  0  0
   32.0120   47.5130   -4.3990 N   0  0  0  0  0  0  0  0  0  0  0  0
   30.1250   48.6640   -5.4330 C   0  0  0  0  0  0  0  0  0  0  0  0
   33.2230   46.7070   -4.4550 C   0  0  0  0  0  0  0  0  0  0  0  0
   29.3370   48.7960   -6.5670 C   0  0  0  0  0  0  0  0  0  0  0  0
   29.7010   49.3260   -4.2670 C   0  0  0  0  0  0  0  0  0  0  0  0
   32.9800   45.3110   -3.8460 C   0  0  2  0  0  0  0  0  0  0  0  0
   28.1800   49.5480   -6.5460 C   0  0  0  0  0  0  0  0  0  0  0  0
   28.5190   50.0910   -4.2570 C   0  0  0  0  0  0  0  0  0  0  0  0
   29.5460   48.2500   -7.7960 O   0  0  0  0  0  0  0  0  0  0  0  0
   33.6970   44.2840   -4.7170 C   0  0  0  0  0  0  0  0  0  0  0  0
   27.7460   50.2050   -5.4130 C   0  0  0  0  0  0  0  0  0  0  0  0
   27.5390   49.5580   -7.7490 O   0  0  0  0  0  0  0  0  0  0  0  0
   28.3330   48.6040   -8.4810 C   0  0  0  0  0  0  0  0  0  0  0  0
   31.5480   44.9640   -3.4940 C   0  0  0  0  0  0  0  0  0  0  0  0
   33.3040   43.1450   -4.9260 O   0  0  0  0  0  0  0  0  0  0  0  0
   34.8450   44.7030   -5.2810 O   0  0  0  0  0  0  0  0  0  0  0  0
   30.9550   45.3170   -2.1610 C   0  0  1  0  0  0  0  0  0  0  0  0
   30.6110   44.3290   -4.2190 C   0  0  0  0  0  0  0  0  0  0  0  0
   30.7670   46.7330   -1.7180 C   0  0  0  0  0  0  0  0  0  0  0  0
   29.5770   44.7410   -2.4360 C   0  0  0  0  0  0  0  0  0  0  0  0
   29.3960   44.1820   -3.5910 N   0  0  0  0  0  0  0  0  0  0  0  0
   29.6570   47.0650   -1.0160 C   0  0  0  0  0  0  0  0  0  0  0  0
   28.5740   44.8810   -1.3720 C   0  0  0  0  0  0  0  0  0  0  0  0
   29.3140   48.3030   -0.5230 O   0  0  0  0  0  0  0  0  0  0  0  0
   28.6570   46.0450   -0.7030 C   0  0  0  0  0  0  0  0  0  0  0  0
   30.2880   49.3390   -0.6030 C   0  0  0  0  0  0  0  0  0  0  0  0
  1  2  1  0
  2  3  2  3
  2  4  1  0
  3  5  1  0
  4  6  1  0
  4  7  2  0
  8  5  1  6
  6  9  2  0
  7 10  1  0
  6 11  1  0
  8 12  1  0
  9 13  1  0
 10 13  2  0
  9 14  1  0
 11 15  1  0
 14 15  1  0
  8 16  1  0
 12 17  2  0
 12 18  1  0
 16 19  1  0
 16 20  2  0
 19 21  1  6
 19 22  1  0
 20 23  1  0
 22 23  2  0
 21 24  2  0
 22 25  1  0
 24 26  1  0
 24 27  1  0
 25 27  2  0
 26 28  1  0
M  END
