mac-x0354-mac-x0375
     RDKit          3D

 17 19  0  0  0  0  0  0  0  0999 V2000
   35.9060   42.9090   -1.9510 C   0  0  0  0  0  0  0  0  0  0  0  0
   34.9860   43.2790   -3.0040 N   0  0  0  0  0  0  0  0  0  0  0  0
   34.1020   42.3420   -3.4050 N   0  0  0  0  0  0  0  0  0  0  0  0
   34.8730   44.4810   -3.6810 C   0  0  0  0  0  0  0  0  0  0  0  0
   33.4020   42.9500   -4.3590 C   0  0  0  0  0  0  0  0  0  0  0  0
   33.8300   44.2730   -4.5750 C   0  0  0  0  0  0  0  0  0  0  0  0
   35.6790   45.7000   -3.4880 C   0  0  0  0  0  0  0  0  0  0  0  0
   33.2980   45.2610   -5.5460 C   0  0  0  0  0  0  0  0  0  0  0  0
   36.9410   45.5800   -2.8590 C   0  0  0  0  0  0  0  0  0  0  0  0
   35.2790   46.9910   -3.8910 C   0  0  0  0  0  0  0  0  0  0  0  0
   32.0870   44.7840   -6.1170 O   0  0  0  0  0  0  0  0  0  0  0  0
   34.1620   45.4750   -6.6500 O   0  0  0  0  0  0  0  0  0  0  0  0
   33.0170   46.5740   -4.7770 C   0  0  0  0  0  0  0  0  0  0  0  0
   34.1380   47.4130   -4.5130 O   0  0  0  0  0  0  0  0  0  0  0  0
   37.7740   46.6790   -2.6330 C   0  0  0  0  0  0  0  0  0  0  0  0
   36.1320   48.0880   -3.6550 C   0  0  0  0  0  0  0  0  0  0  0  0
   37.3680   47.9390   -3.0340 C   0  0  0  0  0  0  0  0  0  0  0  0
  1  2  1  0
  2  3  1  0
  2  4  1  0
  3  5  2  0
  4  6  2  0
  5  6  1  0
  4  7  1  0
  6  8  1  0
  7  9  2  0
  7 10  1  0
  8 11  1  0
  8 12  1  0
  8 13  1  0
 10 14  1  0
 13 14  1  0
  9 15  1  0
 10 16  2  0
 15 17  2  0
 16 17  1  0
M  END
