mac-x0116-mac-x0338
     RDKit          3D

 17 19  0  0  0  0  0  0  0  0999 V2000
   29.2240   53.4350   -6.4160 C   0  0  0  0  0  0  0  0  0  0  0  0
   28.8150   52.0900   -6.8660 N   0  0  0  0  0  0  0  0  0  0  0  0
   28.1930   52.0110   -8.1390 N   0  0  0  0  0  0  0  0  0  0  0  0
   30.5710   53.8730   -6.8900 C   0  0  0  0  0  0  0  0  0  0  0  0
   31.6510   53.4340   -6.1720 O   0  0  0  0  0  0  0  0  0  0  0  0
   30.9940   54.6560   -7.9390 C   0  0  0  0  0  0  0  0  0  0  0  0
   29.2140   50.9060   -6.2190 C   0  0  0  0  0  0  0  0  0  0  0  0
   32.4060   54.7020   -7.8630 C   0  0  0  0  0  0  0  0  0  0  0  0
   32.7580   53.9430   -6.7710 C   0  0  0  0  0  0  0  0  0  0  0  0
   29.5880   50.9060   -4.8770 N   0  0  0  0  0  0  0  0  0  0  0  0
   29.2710   49.6920   -6.8150 C   0  0  0  0  0  0  0  0  0  0  0  0
   29.9870   49.7780   -4.2220 C   0  0  0  0  0  0  0  0  0  0  0  0
   29.7040   48.5250   -6.0400 C   0  0  0  0  0  0  0  0  0  0  0  0
   28.9970   49.2420   -8.0860 N   0  0  0  0  0  0  0  0  0  0  0  0
   30.0660   48.5900   -4.7290 N   0  0  0  0  0  0  0  0  0  0  0  0
   29.6830   47.4660   -6.7880 N   0  0  0  0  0  0  0  0  0  0  0  0
   29.2500   47.9630   -8.0070 C   0  0  0  0  0  0  0  0  0  0  0  0
  1  2  1  0
  2  3  1  0
  1  4  1  0
  4  5  1  0
  4  6  2  0
  2  7  1  0
  6  8  1  0
  5  9  1  0
  8  9  2  0
  7 10  1  0
  7 11  2  0
 10 12  1  0
 11 13  1  0
 11 14  1  0
 12 15  2  0
 13 15  1  0
 13 16  2  0
 14 17  2  0
 16 17  1  0
M  END
