mac-x0396-mac-x0206
     RDKit          3D

 10 10  0  0  0  0  0  0  0  0999 V2000
   29.3200   50.4230   -6.6560 N   0  0  0  0  0  0  0  0  0  0  0  0
   29.3630   50.6340   -5.2450 C   0  0  0  0  0  0  0  0  0  0  0  0
   28.2260   50.0280   -4.7060 O   0  0  0  0  0  0  0  0  0  0  0  0
   30.4570   49.9270   -4.7330 O   0  0  0  0  0  0  0  0  0  0  0  0
   29.4390   52.0980   -4.8840 C   0  0  0  0  0  0  0  0  0  0  0  0
   29.8280   52.5300   -3.6190 C   0  0  0  0  0  0  0  0  0  0  0  0
   29.1190   53.1010   -5.8150 C   0  0  0  0  0  0  0  0  0  0  0  0
   29.9130   53.8300   -3.2400 N   0  0  0  0  0  0  0  0  0  0  0  0
   29.2000   54.4460   -5.4590 C   0  0  0  0  0  0  0  0  0  0  0  0
   29.5970   54.7570   -4.1700 C   0  0  0  0  0  0  0  0  0  0  0  0
  1  2  1  0
  2  3  1  0
  2  4  1  0
  2  5  1  0
  5  6  2  0
  5  7  1  0
  6  8  1  0
  7  9  2  0
  8 10  2  0
  9 10  1  0
M  END
