mac-x0148-mac-x0347
     RDKit          3D

 26 30  0  0  0  0  0  0  0  0999 V2000
   34.5760   46.7890   -6.2790 O   0  0  0  0  0  0  0  0  0  0  0  0
   33.7710   47.4830   -7.1040 C   0  0  0  0  0  0  0  0  0  0  0  0
   33.7020   47.1900   -8.2870 O   0  0  0  0  0  0  0  0  0  0  0  0
   33.0080   48.5960   -6.4300 C   0  0  1  0  0  0  0  0  0  0  0  0
   31.5090   48.5130   -6.7630 C   0  0  0  0  0  0  0  0  0  0  0  0
   33.2900   48.6000   -4.9280 C   0  0  0  0  0  0  0  0  0  0  0  0
   30.5410   49.1470   -5.7130 C   0  0  2  0  0  0  0  0  0  0  0  0
   32.4750   49.5610   -4.1880 N   0  0  0  0  0  0  0  0  0  0  0  0
   29.1630   48.5360   -5.7560 C   0  0  0  0  0  0  0  0  0  0  0  0
   30.1750   50.6020   -6.1630 C   0  0  0  0  0  0  0  0  0  0  0  0
   31.0680   49.1810   -4.2580 C   0  0  0  0  0  0  0  0  0  0  0  0
   28.3130   49.3640   -6.4700 C   0  0  0  0  0  0  0  0  0  0  0  0
   28.6160   47.3650   -5.2500 C   0  0  0  0  0  0  0  0  0  0  0  0
   28.9530   50.5300   -6.9550 N   0  0  0  0  0  0  0  0  0  0  0  0
   29.3780   46.4380   -4.5160 N   0  0  0  0  0  0  0  0  0  0  0  0
   27.3140   47.0920   -5.4650 N   0  0  0  0  0  0  0  0  0  0  0  0
   27.0300   49.1230   -6.7000 N   0  0  0  0  0  0  0  0  0  0  0  0
   29.4340   46.5620   -3.0390 C   0  0  2  0  0  0  0  0  0  0  0  0
   30.6770   46.1130   -5.1580 C   0  0  0  0  0  0  0  0  0  0  0  0
   26.5930   47.9760   -6.1730 C   0  0  0  0  0  0  0  0  0  0  0  0
   28.9840   47.8020   -2.2790 C   0  0  0  0  0  0  0  0  0  0  0  0
   30.8530   46.4370   -2.5220 C   0  0  1  0  0  0  0  0  0  0  0  0
   31.3460   44.9160   -4.4650 C   0  0  0  0  0  0  0  0  0  0  0  0
   30.6360   46.6830   -1.0440 C   0  0  0  0  0  0  0  0  0  0  0  0
   29.5870   47.6720   -0.9610 O   0  0  0  0  0  0  0  0  0  0  0  0
   31.4880   45.1220   -2.9440 C   0  0  0  0  0  0  0  0  0  0  0  0
  1  2  1  0
  2  3  2  0
  4  2  1  6
  4  5  1  0
  4  6  1  0
  7  5  1  6
  6  8  1  0
  7  9  1  0
  7 10  1  0
  7 11  1  0
  8 11  1  0
  9 12  2  0
  9 13  1  0
 10 14  1  0
 12 14  1  0
 13 15  1  0
 13 16  2  0
 12 17  1  0
 15 18  1  0
 15 19  1  0
 16 20  1  0
 17 20  2  0
 18 21  1  6
 18 22  1  0
 19 23  1  0
 22 24  1  1
 21 25  1  0
 24 25  1  0
 22 26  1  0
 23 26  1  0
M  END
