mac-x0277-mac-x0385
     RDKit          3D

 22 23  0  0  0  0  0  0  0  0999 V2000
   27.9430   45.9960   -0.3480 Cl  0  0  0  0  0  0  0  0  0  0  0  0
   29.0370   45.6200   -1.6300 C   0  0  0  0  0  0  0  0  0  0  0  0
   30.3720   46.0500   -1.6310 C   0  0  0  0  0  0  0  0  0  0  0  0
   28.5560   44.8600   -2.6950 C   0  0  0  0  0  0  0  0  0  0  0  0
   31.0370   46.9950   -0.3440 Cl  0  0  0  0  0  0  0  0  0  0  0  0
   31.2160   45.7140   -2.7020 C   0  0  0  0  0  0  0  0  0  0  0  0
   29.3960   44.5250   -3.7580 C   0  0  0  0  0  0  0  0  0  0  0  0
   30.7330   44.9480   -3.7750 C   0  0  0  0  0  0  0  0  0  0  0  0
   31.6230   44.5700   -4.9390 C   0  0  0  0  0  0  0  0  0  0  0  0
   32.2670   45.7800   -5.5810 C   0  0  0  0  0  0  0  0  0  0  0  0
   33.6090   45.8200   -5.4900 O   0  0  0  0  0  0  0  0  0  0  0  0
   31.5800   46.6930   -6.1710 N   0  0  0  0  0  0  0  0  0  0  0  0
   30.1180   46.5380   -6.2010 C   0  0  0  0  0  0  0  0  0  0  0  0
   29.4740   47.8030   -6.7760 C   0  0  0  0  0  0  0  0  0  0  0  0
   29.3520   48.9570   -5.8110 C   0  0  0  0  0  0  0  0  0  0  0  0
   28.4180   49.9060   -6.0240 N   0  0  0  0  0  0  0  0  0  0  0  0
   30.2040   48.9700   -4.7690 N   0  0  0  0  0  0  0  0  0  0  0  0
   28.3380   50.9140   -5.1450 C   0  0  0  0  0  0  0  0  0  0  0  0
   30.0910   49.9950   -3.9100 C   0  0  0  0  0  0  0  0  0  0  0  0
   27.3580   51.8860   -5.3980 N   0  0  0  0  0  0  0  0  0  0  0  0
   29.1700   51.0110   -4.0410 C   0  0  0  0  0  0  0  0  0  0  0  0
   29.1030   52.1210   -3.0430 C   0  0  0  0  0  0  0  0  0  0  0  0
  1  2  1  0
  2  3  2  0
  2  4  1  0
  3  5  1  0
  3  6  1  0
  4  7  2  0
  6  8  2  0
  7  8  1  0
  8  9  1  0
  9 10  1  0
 10 11  1  0
 10 12  2  3
 12 13  1  0
 13 14  1  0
 14 15  1  0
 15 16  2  0
 15 17  1  0
 16 18  1  0
 17 19  2  0
 18 20  1  0
 18 21  2  0
 19 21  1  0
 21 22  1  0
M  END
