mac-x0333-mac-x0338
     RDKit          3D

 13 14  0  0  0  0  0  0  0  0999 V2000
   29.7410   48.5170   -4.1280 O   0  0  0  0  0  0  0  0  0  0  0  0
   29.6380   49.8510   -4.4000 C   0  0  0  0  0  0  0  0  0  0  0  0
   29.1050   50.2170   -5.6440 C   0  0  0  0  0  0  0  0  0  0  0  0
   30.0480   50.8080   -3.4760 C   0  0  0  0  0  0  0  0  0  0  0  0
   29.9070   52.1330   -3.8380 C   0  0  0  0  0  0  0  0  0  0  0  0
   28.9730   51.5750   -5.9860 C   0  0  0  0  0  0  0  0  0  0  0  0
   28.4110   51.9840   -7.2960 C   0  0  0  0  0  0  0  0  0  0  0  0
   29.3850   52.5170   -5.0560 C   0  0  0  0  0  0  0  0  0  0  0  0
   30.2570   53.1920   -3.0570 O   0  0  0  0  0  0  0  0  0  0  0  0
   28.4490   51.0530   -8.3010 N   0  0  0  0  0  0  0  0  0  0  0  0
   27.9300   53.0910   -7.4960 O   0  0  0  0  0  0  0  0  0  0  0  0
   29.3490   53.8740   -5.1760 O   0  0  0  0  0  0  0  0  0  0  0  0
   29.9430   54.2920   -3.9350 C   0  0  0  0  0  0  0  0  0  0  0  0
  1  2  1  0
  2  3  2  0
  2  4  1  0
  4  5  2  0
  3  6  1  0
  6  7  1  0
  5  8  1  0
  6  8  2  0
  5  9  1  0
  7 10  1  0
  7 11  2  0
  8 12  1  0
  9 13  1  0
 12 13  1  0
M  END
