mac-x0301-mac-x0206
     RDKit          3D

 21 23  0  0  0  0  0  0  0  0999 V2000
   30.2800   45.4440   -4.8710 O   0  0  0  0  0  0  0  0  0  0  0  0
   30.5890   46.6050   -4.2530 C   0  0  0  0  0  0  0  0  0  0  0  0
   31.2750   46.6710   -3.2490 O   0  0  0  0  0  0  0  0  0  0  0  0
   30.0090   47.7800   -4.9280 C   0  0  0  0  0  0  0  0  0  0  0  0
   29.5810   47.7390   -6.2460 C   0  0  0  0  0  0  0  0  0  0  0  0
   29.8770   48.9870   -4.2360 C   0  0  0  0  0  0  0  0  0  0  0  0
   29.0420   48.8510   -6.8560 C   0  0  0  0  0  0  0  0  0  0  0  0
   29.3260   50.1090   -4.8790 C   0  0  0  0  0  0  0  0  0  0  0  0
   29.6190   46.6780   -7.0960 O   0  0  0  0  0  0  0  0  0  0  0  0
   28.9010   50.0460   -6.2040 C   0  0  0  0  0  0  0  0  0  0  0  0
   28.6800   48.6280   -8.1460 O   0  0  0  0  0  0  0  0  0  0  0  0
   29.0360   47.2410   -8.2900 C   0  0  0  0  0  0  0  0  0  0  0  0
   29.2240   51.3410   -4.1000 C   0  0  0  0  0  0  0  0  0  0  0  0
   29.1770   51.2430   -2.8790 O   0  0  0  0  0  0  0  0  0  0  0  0
   29.1950   52.6750   -4.7350 C   0  0  0  0  0  0  0  0  0  0  0  0
   29.8400   53.7610   -4.1550 C   0  0  0  0  0  0  0  0  0  0  0  0
   28.5030   52.8410   -5.9430 C   0  0  0  0  0  0  0  0  0  0  0  0
   30.5150   53.5970   -2.9780 O   0  0  0  0  0  0  0  0  0  0  0  0
   29.8040   55.0110   -4.7650 C   0  0  0  0  0  0  0  0  0  0  0  0
   28.4650   54.0910   -6.5570 C   0  0  0  0  0  0  0  0  0  0  0  0
   29.1140   55.1760   -5.9700 C   0  0  0  0  0  0  0  0  0  0  0  0
  1  2  1  0
  2  3  2  0
  2  4  1  0
  4  5  2  0
  4  6  1  0
  5  7  1  0
  6  8  2  0
  5  9  1  0
  7 10  2  0
  8 10  1  0
  7 11  1  0
  9 12  1  0
 11 12  1  0
  8 13  1  0
 13 14  2  0
 13 15  1  0
 15 16  2  0
 15 17  1  0
 16 18  1  0
 16 19  1  0
 17 20  2  0
 19 21  2  0
 20 21  1  0
M  END
