mac-x0303-mac-x0568
     RDKit          3D

 16 17  0  0  0  0  0  0  0  0999 V2000
   30.6000   55.5690   -6.9490 N   0  0  0  0  0  0  0  0  0  0  0  0
   29.2500   55.3710   -5.9370 S   0  0  0  0  0  0  0  0  0  0  0  0
   28.1040   55.4410   -6.8050 O   0  0  0  0  0  0  0  0  0  0  0  0
   29.4250   56.3490   -4.8810 O   0  0  0  0  0  0  0  0  0  0  0  0
   29.2890   53.7650   -5.1460 C   0  0  0  0  0  0  0  0  0  0  0  0
   29.1850   53.7160   -3.8120 N   0  0  0  0  0  0  0  0  0  0  0  0
   29.4170   52.4130   -5.6180 N   0  0  0  0  0  0  0  0  0  0  0  0
   29.5760   51.5240   -6.6770 C   0  0  0  0  0  0  0  0  0  0  0  0
   29.2390   52.3930   -3.4720 C   0  0  0  0  0  0  0  0  0  0  0  0
   29.3710   51.6220   -4.5690 C   0  0  0  0  0  0  0  0  0  0  0  0
   30.5990   50.8540   -6.6720 O   0  0  0  0  0  0  0  0  0  0  0  0
   28.5760   51.3170   -7.5580 N   0  0  0  0  0  0  0  0  0  0  0  0
   29.1820   51.7390   -2.2450 C   0  0  0  0  0  0  0  0  0  0  0  0
   29.4490   50.2330   -4.5920 C   0  0  0  0  0  0  0  0  0  0  0  0
   29.2600   50.3320   -2.2210 C   0  0  0  0  0  0  0  0  0  0  0  0
   29.3900   49.5910   -3.3860 C   0  0  0  0  0  0  0  0  0  0  0  0
  2  1  1  0
  2  3  2  0
  2  4  2  0
  2  5  1  0
  5  6  2  0
  5  7  1  0
  7  8  1  0
  6  9  1  0
  7 10  1  0
  9 10  2  0
  8 11  2  0
  8 12  1  0
  9 13  1  0
 10 14  1  0
 13 15  2  0
 14 16  2  0
 15 16  1  0
M  END
