mac-x0436-mac-x0412
     RDKit          3D

 29 32  0  0  0  0  0  0  0  0999 V2000
   33.5280   45.5990   -7.0310 O   0  0  0  0  0  0  0  0  0  0  0  0
   32.4940   45.0620   -6.3540 C   0  0  0  0  0  0  0  0  0  0  0  0
   31.3450   45.2960   -6.6900 O   0  0  0  0  0  0  0  0  0  0  0  0
   32.9350   44.1920   -5.2100 C   0  0  0  0  0  0  0  0  0  0  0  0
   32.7300   44.8660   -3.8610 C   0  0  0  0  0  0  0  0  0  0  0  0
   33.9680   45.6520   -3.4680 C   0  0  0  0  0  0  0  0  0  0  0  0
   33.8630   47.1850   -3.3890 C   0  0  0  0  0  0  0  0  0  0  0  0
   35.0740   45.0160   -3.2090 N   0  0  0  0  0  0  0  0  0  0  0  0
   32.6610   47.6210   -3.5000 N   0  0  0  0  0  0  0  0  0  0  0  0
   35.0410   47.8740   -3.2090 N   0  0  0  0  0  0  0  0  0  0  0  0
   36.2070   45.7700   -2.8520 C   0  0  0  0  0  0  0  0  0  0  0  0
   32.3090   49.0280   -3.4460 C   0  0  0  0  0  0  0  0  0  0  0  0
   36.2090   47.1820   -2.8480 C   0  0  0  0  0  0  0  0  0  0  0  0
   37.3670   45.0800   -2.4920 C   0  0  0  0  0  0  0  0  0  0  0  0
   30.7770   49.1350   -3.3330 C   0  0  0  0  0  0  0  0  0  0  0  0
   38.5210   45.7730   -2.1320 C   0  0  0  0  0  0  0  0  0  0  0  0
   37.3720   47.8700   -2.4870 C   0  0  0  0  0  0  0  0  0  0  0  0
   38.5260   47.1660   -2.1300 C   0  0  0  0  0  0  0  0  0  0  0  0
   29.9840   49.6100   -4.5380 C   0  0  0  0  0  0  0  0  0  0  0  0
   29.2910   50.2600   -5.5440 C   0  0  0  0  0  0  0  0  0  0  0  0
   30.3630   50.7790   -3.6850 C   0  0  0  0  0  0  0  0  0  0  0  0
   28.9820   51.6670   -5.7630 C   0  0  0  0  0  0  0  0  0  0  0  0
   29.9050   52.0360   -3.6540 C   0  0  0  0  0  0  0  0  0  0  0  0
   28.8610   52.5270   -4.5610 C   0  0  1  0  0  0  0  0  0  0  0  0
   28.8110   52.1620   -6.9960 C   0  0  0  0  0  0  0  0  0  0  0  0
   29.0200   54.0320   -4.8990 C   0  0  0  0  0  0  0  0  0  0  0  0
   28.4960   53.5970   -7.0870 C   0  0  0  0  0  0  0  0  0  0  0  0
   29.5200   54.8170   -4.0960 O   0  0  0  0  0  0  0  0  0  0  0  0
   28.5840   54.4660   -6.1390 N   0  0  0  0  0  0  0  0  0  0  0  0
  1  2  1  0
  2  3  2  0
  2  4  1  0
  4  5  1  0
  5  6  1  0
  6  7  1  0
  6  8  2  0
  7  9  2  3
  7 10  1  0
  8 11  1  0
  9 12  1  0
 10 13  1  0
 11 13  2  0
 11 14  1  0
 12 15  1  0
 14 16  2  0
 13 17  1  0
 16 18  1  0
 17 18  2  0
 15 19  1  0
 19 20  2  0
 19 21  1  0
 20 22  1  0
 21 23  2  0
 22 24  1  0
 24 23  1  1
 22 25  2  0
 24 26  1  0
 25 27  1  0
 26 28  2  0
 26 29  1  0
 27 29  2  0
M  END
