mac-x0115-mac-x0360
     RDKit          3D

 28 30  0  0  0  0  0  0  0  0999 V2000
   27.9200   45.7510   -1.7000 C   0  0  0  0  0  0  0  0  0  0  0  0
   28.8750   44.6710   -2.1980 C   0  0  0  0  0  0  0  0  0  0  0  0
   28.1110   43.5830   -2.9450 C   0  0  0  0  0  0  0  0  0  0  0  0
   29.8120   45.2590   -3.1060 O   0  0  0  0  0  0  0  0  0  0  0  0
   30.3550   44.3990   -4.1030 C   0  0  0  0  0  0  0  0  0  0  0  0
   31.2830   45.2050   -5.0180 C   0  0  0  0  0  0  0  0  0  0  0  0
   30.5550   45.8420   -6.1400 N   0  0  0  0  0  0  0  0  0  0  0  0
   30.2960   45.1450   -7.3440 C   0  0  0  0  0  0  0  0  0  0  0  0
   30.1130   47.1580   -6.0560 C   0  0  0  0  0  0  0  0  0  0  0  0
   30.4860   43.5110   -7.6290 S   0  0  0  0  0  0  0  0  0  0  0  0
   29.8330   45.9080   -8.4070 N   0  0  0  0  0  0  0  0  0  0  0  0
   28.9410   47.5160   -6.8940 C   0  0  2  0  0  0  0  0  0  0  0  0
   30.5460   48.2190   -5.3490 C   0  0  0  0  0  0  0  0  0  0  0  0
   29.2320   47.1460   -8.3220 C   0  0  0  0  0  0  0  0  0  0  0  0
   28.7000   48.9360   -6.6780 N   0  0  0  0  0  0  0  0  0  0  0  0
   29.6070   49.2620   -5.8190 C   0  0  0  0  0  0  0  0  0  0  0  0
   28.9790   47.8310   -9.3080 O   0  0  0  0  0  0  0  0  0  0  0  0
   29.6070   50.9420   -5.3440 S   0  0  0  0  0  0  0  0  0  0  0  0
   29.2760   51.0090   -3.9370 O   0  0  0  0  0  0  0  0  0  0  0  0
   28.6910   51.4680   -6.3330 O   0  0  0  0  0  0  0  0  0  0  0  0
   31.1650   51.7190   -5.6350 C   0  0  0  0  0  0  0  0  0  0  0  0
   32.3880   51.0970   -5.3510 C   0  0  0  0  0  0  0  0  0  0  0  0
   31.1240   53.0080   -6.1690 C   0  0  0  0  0  0  0  0  0  0  0  0
   33.5670   51.7990   -5.6130 C   0  0  0  0  0  0  0  0  0  0  0  0
   32.3050   53.6830   -6.4200 C   0  0  0  0  0  0  0  0  0  0  0  0
   32.2430   55.2750   -7.0750 Cl  0  0  0  0  0  0  0  0  0  0  0  0
   35.0920   51.0730   -5.2740 Cl  0  0  0  0  0  0  0  0  0  0  0  0
   33.5350   53.0890   -6.1470 C   0  0  0  0  0  0  0  0  0  0  0  0
  1  2  1  0
  2  3  1  0
  2  4  1  0
  4  5  1  0
  5  6  1  0
  6  7  1  0
  7  8  1  0
  7  9  1  0
  8 10  2  0
  8 11  1  0
  9 12  1  0
  9 13  2  0
 11 14  1  0
 12 14  1  0
 12 15  1  6
 13 16  1  0
 15 16  2  0
 14 17  2  0
 18 16  1  0
 18 19  2  0
 18 20  2  0
 18 21  1  0
 21 22  2  0
 21 23  1  0
 22 24  1  0
 23 25  2  0
 25 26  1  0
 24 27  1  0
 24 28  2  0
 25 28  1  0
M  END
