mac-x0347-mac-x0546
     RDKit          3D

 29 32  0  0  0  0  0  0  0  0999 V2000
   30.0020   45.8870   -6.4330 O   0  0  0  0  0  0  0  0  0  0  0  0
   30.6300   46.7370   -5.6010 C   0  0  0  0  0  0  0  0  0  0  0  0
   31.8420   46.5710   -5.2070 N   0  0  0  0  0  0  0  0  0  0  0  0
   29.8160   47.8800   -5.1690 C   0  0  0  0  0  0  0  0  0  0  0  0
   32.5570   45.3940   -5.6860 C   0  0  2  0  0  0  0  0  0  0  0  0
   30.0050   49.1380   -5.7410 C   0  0  0  0  0  0  0  0  0  0  0  0
   28.8430   47.7390   -4.1880 C   0  0  0  0  0  0  0  0  0  0  0  0
   32.9400   44.4430   -4.5260 C   0  0  0  0  0  0  0  0  0  0  0  0
   33.7460   45.7690   -6.3710 O   0  0  0  0  0  0  0  0  0  0  0  0
   29.2240   50.2250   -5.3290 C   0  0  0  0  0  0  0  0  0  0  0  0
   28.0650   48.7580   -3.7590 N   0  0  0  0  0  0  0  0  0  0  0  0
   28.2740   49.9670   -4.3360 C   0  0  0  0  0  0  0  0  0  0  0  0
   29.3890   51.5660   -5.9060 C   0  0  0  0  0  0  0  0  0  0  0  0
   31.8400   44.1060   -3.5610 C   0  0  0  0  0  0  0  0  0  0  0  0
   28.6560   51.9590   -7.0380 C   0  0  0  0  0  0  0  0  0  0  0  0
   30.2850   52.4920   -5.3460 C   0  0  0  0  0  0  0  0  0  0  0  0
   30.8930   45.1090   -2.9800 C   0  0  2  0  0  0  0  0  0  0  0  0
   31.5340   42.8890   -3.0830 C   0  0  0  0  0  0  0  0  0  0  0  0
   28.8110   53.2340   -7.5900 C   0  0  0  0  0  0  0  0  0  0  0  0
   30.4410   53.7670   -5.8980 C   0  0  0  0  0  0  0  0  0  0  0  0
   31.3750   46.1800   -2.0550 C   0  0  0  0  0  0  0  0  0  0  0  0
   30.1190   44.1140   -2.1340 C   0  0  0  0  0  0  0  0  0  0  0  0
   30.4810   42.8680   -2.2060 N   0  0  0  0  0  0  0  0  0  0  0  0
   29.7050   54.1370   -7.0190 C   0  0  0  0  0  0  0  0  0  0  0  0
   30.6130   46.5280   -0.9910 C   0  0  0  0  0  0  0  0  0  0  0  0
   29.0380   44.6590   -1.3010 C   0  0  0  0  0  0  0  0  0  0  0  0
   30.8890   47.4800   -0.0400 O   0  0  0  0  0  0  0  0  0  0  0  0
   29.3350   45.8530   -0.7600 C   0  0  0  0  0  0  0  0  0  0  0  0
   30.9340   48.8360   -0.4720 C   0  0  0  0  0  0  0  0  0  0  0  0
  1  2  1  0
  2  3  2  3
  2  4  1  0
  3  5  1  0
  4  6  2  0
  4  7  1  0
  5  8  1  0
  5  9  1  1
  6 10  1  0
  7 11  2  0
 10 12  2  0
 11 12  1  0
 10 13  1  0
  8 14  1  0
 13 15  2  0
 13 16  1  0
 14 17  1  0
 14 18  2  0
 15 19  1  0
 16 20  2  0
 17 21  1  1
 17 22  1  0
 18 23  1  0
 22 23  2  0
 19 24  2  0
 20 24  1  0
 21 25  2  0
 22 26  1  0
 25 27  1  0
 25 28  1  0
 26 28  2  0
 27 29  1  0
M  END
