mac-x0380-mac-x0404
     RDKit          3D

 29 32  0  0  0  0  0  0  0  0999 V2000
   29.8730   48.9600   -5.6320 O   0  0  0  0  0  0  0  0  0  0  0  0
   29.3990   49.5890   -4.5390 C   0  0  0  0  0  0  0  0  0  0  0  0
   29.4940   49.1180   -3.3370 N   0  0  0  0  0  0  0  0  0  0  0  0
   28.7650   50.8800   -4.8950 C   0  0  0  0  0  0  0  0  0  0  0  0
   29.1740   52.0480   -4.2400 C   0  0  0  0  0  0  0  0  0  0  0  0
   27.7710   50.9530   -5.8770 C   0  0  0  0  0  0  0  0  0  0  0  0
   30.1310   47.8770   -3.1740 C   0  0  0  0  0  0  0  0  0  0  0  0
   28.5950   53.2810   -4.5640 C   0  0  0  0  0  0  0  0  0  0  0  0
   27.1920   52.1810   -6.2040 C   0  0  0  0  0  0  0  0  0  0  0  0
   29.4830   46.7400   -2.6360 C   0  0  0  0  0  0  0  0  0  0  0  0
   31.4630   47.8000   -3.5780 C   0  0  0  0  0  0  0  0  0  0  0  0
   27.6030   53.3440   -5.5480 C   0  0  0  0  0  0  0  0  0  0  0  0
   29.1350   54.7480   -3.7150 S   0  0  0  0  0  0  0  0  0  0  0  0
   30.2110   45.5200   -2.5180 C   0  0  0  0  0  0  0  0  0  0  0  0
   32.1770   46.6120   -3.4650 C   0  0  0  0  0  0  0  0  0  0  0  0
   28.1370   46.7690   -2.2110 C   0  0  0  0  0  0  0  0  0  0  0  0
   27.0010   54.5570   -5.9020 N   0  0  0  0  0  0  0  0  0  0  0  0
   28.8910   55.9380   -5.0520 C   0  0  0  0  0  0  0  0  0  0  0  0
   31.5690   45.4720   -2.9440 C   0  0  0  0  0  0  0  0  0  0  0  0
   27.5090   45.6410   -1.6820 C   0  0  0  0  0  0  0  0  0  0  0  0
   29.5480   44.3960   -1.9820 C   0  0  0  0  0  0  0  0  0  0  0  0
   32.2110   44.2620   -2.8090 O   0  0  0  0  0  0  0  0  0  0  0  0
   27.5760   55.7940   -5.7900 C   0  0  0  0  0  0  0  0  0  0  0  0
   28.2140   44.4510   -1.5670 C   0  0  0  0  0  0  0  0  0  0  0  0
   27.0090   56.7660   -6.2910 O   0  0  0  0  0  0  0  0  0  0  0  0
   32.2750   43.3960   -3.9350 C   0  0  0  0  0  0  0  0  0  0  0  0
   33.2500   43.7870   -5.0380 C   0  0  0  0  0  0  0  0  0  0  0  0
   32.7080   43.7660   -6.2740 O   0  0  0  0  0  0  0  0  0  0  0  0
   34.4230   44.0930   -4.8830 O   0  0  0  0  0  0  0  0  0  0  0  0
  1  2  1  0
  2  3  2  3
  2  4  1  0
  4  5  2  0
  4  6  1  0
  3  7  1  0
  5  8  1  0
  6  9  2  0
  7 10  1  0
  7 11  2  0
  8 12  2  0
  9 12  1  0
  8 13  1  0
 10 14  2  0
 11 15  1  0
 10 16  1  0
 12 17  1  0
 13 18  1  0
 14 19  1  0
 15 19  2  0
 16 20  2  0
 14 21  1  0
 19 22  1  0
 17 23  1  0
 18 23  1  0
 20 24  1  0
 21 24  2  0
 23 25  2  0
 22 26  1  0
 26 27  1  0
 27 28  1  0
 27 29  2  0
M  END
