mac-x0385-mac-x0305
     RDKit          3D

 12 12  0  0  0  0  0  0  0  0999 V2000
   29.4590   51.7510   -2.8620 C   0  0  0  0  0  0  0  0  0  0  0  0
   29.0090   50.5190   -3.6520 C   0  0  2  0  0  0  0  0  0  0  0  0
   29.7550   49.2710   -3.1810 C   0  0  0  0  0  0  0  0  0  0  0  0
   29.0780   50.6850   -5.1920 C   0  0  2  0  0  0  0  0  0  0  0  0
   28.0890   51.6160   -5.7040 N   0  0  0  0  0  0  0  0  0  0  0  0
   28.8270   49.4150   -5.8980 N   0  0  0  0  0  0  0  0  0  0  0  0
   29.5400   48.1150   -4.0450 N   0  0  0  0  0  0  0  0  0  0  0  0
   28.8800   49.5530   -7.3490 O   0  0  0  0  0  0  0  0  0  0  0  0
   29.7880   48.4010   -5.4520 C   0  0  1  0  0  0  0  0  0  0  0  0
   29.9040   47.0790   -6.2620 C   0  0  0  0  0  0  0  0  0  0  0  0
   30.2510   47.2290   -7.5640 O   0  0  0  0  0  0  0  0  0  0  0  0
   29.7390   45.9770   -5.7560 O   0  0  0  0  0  0  0  0  0  0  0  0
  2  1  1  1
  2  3  1  0
  2  4  1  0
  4  5  1  6
  4  6  1  0
  3  7  1  0
  6  8  1  0
  6  9  1  0
  7  9  1  0
  9 10  1  6
 10 11  1  0
 10 12  2  0
M  END
