mac-x0433-mac-x0404
     RDKit          3D

 26 28  0  0  0  0  0  0  0  0999 V2000
   28.0930   51.2900   -6.6560 C   0  0  0  0  0  0  0  0  0  0  0  0
   28.6040   51.9560   -5.4150 C   0  0  0  0  0  0  0  0  0  0  0  0
   29.0060   53.2730   -5.4430 C   0  0  0  0  0  0  0  0  0  0  0  0
   28.6490   51.2160   -4.2900 N   0  0  0  0  0  0  0  0  0  0  0  0
   29.1040   51.8040   -3.1760 C   0  0  0  0  0  0  0  0  0  0  0  0
   29.4600   53.7990   -4.2530 C   0  0  0  0  0  0  0  0  0  0  0  0
   29.9190   55.2250   -4.1830 C   0  0  0  0  0  0  0  0  0  0  0  0
   29.1790   51.0980   -1.9780 N   0  0  0  0  0  0  0  0  0  0  0  0
   29.5140   53.0780   -3.1160 N   0  0  0  0  0  0  0  0  0  0  0  0
   30.4680   50.4720   -1.7090 C   0  0  0  0  0  0  0  0  0  0  0  0
   30.3010   49.1440   -0.9540 C   0  0  0  0  0  0  0  0  0  0  0  0
   30.5490   47.9440   -1.8550 C   0  0  0  0  0  0  0  0  0  0  0  0
   29.7350   46.7740   -1.8140 C   0  0  0  0  0  0  0  0  0  0  0  0
   31.6260   48.0180   -2.7520 C   0  0  0  0  0  0  0  0  0  0  0  0
   30.0320   45.6970   -2.6920 C   0  0  0  0  0  0  0  0  0  0  0  0
   31.9140   46.9640   -3.6100 C   0  0  0  0  0  0  0  0  0  0  0  0
   28.6350   46.6270   -0.9380 C   0  0  0  0  0  0  0  0  0  0  0  0
   31.1250   45.8140   -3.5800 C   0  0  0  0  0  0  0  0  0  0  0  0
   27.8540   45.4680   -0.9200 C   0  0  0  0  0  0  0  0  0  0  0  0
   29.2280   44.5370   -2.6560 C   0  0  0  0  0  0  0  0  0  0  0  0
   31.4150   44.7740   -4.4350 O   0  0  0  0  0  0  0  0  0  0  0  0
   28.1510   44.4220   -1.7810 C   0  0  0  0  0  0  0  0  0  0  0  0
   32.7520   44.2730   -4.2620 C   0  0  0  0  0  0  0  0  0  0  0  0
   33.3520   43.9380   -5.6190 C   0  0  0  0  0  0  0  0  0  0  0  0
   32.4430   43.4640   -6.5100 O   0  0  0  0  0  0  0  0  0  0  0  0
   34.5350   44.0780   -5.9000 O   0  0  0  0  0  0  0  0  0  0  0  0
  1  2  1  0
  2  3  2  0
  2  4  1  0
  4  5  2  0
  3  6  1  0
  6  7  1  0
  5  8  1  0
  5  9  1  0
  6  9  2  0
  8 10  1  0
 10 11  1  0
 11 12  1  0
 12 13  1  0
 12 14  2  0
 13 15  2  0
 14 16  1  0
 13 17  1  0
 15 18  1  0
 16 18  2  0
 17 19  2  0
 15 20  1  0
 18 21  1  0
 19 22  1  0
 20 22  2  0
 21 23  1  0
 23 24  1  0
 24 25  1  0
 24 26  2  0
M  END
