mac-x0411-mac-x0179
     RDKit          3D

 18 19  0  0  0  0  0  0  0  0999 V2000
   35.8840   43.7490   -3.2120 Cl  0  0  0  0  0  0  0  0  0  0  0  0
   36.1920   45.3710   -3.9190 C   0  0  1  0  0  0  0  0  0  0  0  0
   34.8740   46.1450   -4.1280 C   0  0  1  0  0  0  0  0  0  0  0  0
   37.2170   46.1270   -3.0570 C   0  0  0  0  0  0  0  0  0  0  0  0
   33.9060   45.2610   -4.7500 O   0  0  0  0  0  0  0  0  0  0  0  0
   34.3180   46.6630   -2.7770 C   0  0  2  0  0  0  0  0  0  0  0  0
   36.6440   46.7030   -1.7220 C   0  0  2  0  0  0  0  0  0  0  0  0
   32.8570   47.6730   -3.0360 Cl  0  0  0  0  0  0  0  0  0  0  0  0
   33.0310   45.9430   -5.6710 C   0  0  0  0  0  0  0  0  0  0  0  0
   35.3330   47.4830   -1.9760 C   0  0  0  0  0  0  0  0  0  0  0  0
   37.6820   47.6680   -1.1550 C   0  0  0  0  0  0  0  0  0  0  0  0
   36.3700   45.5550   -0.6860 C   0  0  0  0  0  0  0  0  0  0  0  0
   32.8110   45.0670   -6.9010 C   0  0  0  0  0  0  0  0  0  0  0  0
   38.5890   47.2890   -0.2400 C   0  0  0  0  0  0  0  0  0  0  0  0
   37.5940   45.1060    0.0620 C   0  0  0  0  0  0  0  0  0  0  0  0
   31.7040   44.2880   -6.7910 O   0  0  0  0  0  0  0  0  0  0  0  0
   33.5370   45.0560   -7.8840 O   0  0  0  0  0  0  0  0  0  0  0  0
   38.6250   45.9380    0.2620 C   0  0  0  0  0  0  0  0  0  0  0  0
  2  1  1  1
  2  3  1  0
  2  4  1  0
  3  5  1  1
  3  6  1  0
  7  4  1  6
  6  8  1  6
  5  9  1  0
  6 10  1  0
  7 10  1  0
  7 11  1  0
  7 12  1  0
  9 13  1  0
 11 14  2  0
 12 15  1  0
 13 16  1  0
 13 17  2  0
 14 18  1  0
 15 18  2  0
M  END
