mac-x0137-mac-x0301
     RDKit          3D

 23 26  0  0  0  0  0  0  0  0999 V2000
   33.0940   50.2840   -4.5760 F   0  0  0  0  0  0  0  0  0  0  0  0
   32.6860   49.1110   -4.0170 C   0  0  2  0  0  0  0  0  0  0  0  0
   33.5740   47.9970   -4.5380 C   0  0  0  0  0  0  0  0  0  0  0  0
   31.2130   48.8610   -4.3690 C   0  0  0  0  0  0  0  0  0  0  0  0
   30.9810   48.6510   -5.8200 N   0  0  0  0  0  0  0  0  0  0  0  0
   33.3050   47.7740   -6.0160 C   0  0  0  0  0  0  0  0  0  0  0  0
   31.8150   47.5320   -6.2890 C   0  0  0  0  0  0  0  0  0  0  0  0
   29.5340   48.6160   -6.2290 C   0  0  2  0  0  0  0  0  0  0  0  0
   29.6170   48.5700   -7.7320 N   0  0  0  0  0  0  0  0  0  0  0  0
   28.5820   49.8410   -5.8240 C   0  0  2  0  0  0  0  0  0  0  0  0
   28.9610   47.1820   -5.8520 C   0  0  0  0  0  0  0  0  0  0  0  0
   28.3440   48.4110   -8.4290 C   0  0  0  0  0  0  0  0  0  0  0  0
   28.0480   50.4060   -7.2060 C   0  0  1  0  0  0  0  0  0  0  0  0
   29.0660   51.1850   -5.2720 C   0  0  0  0  0  0  0  0  0  0  0  0
   28.0230   47.0250   -4.6460 C   0  0  1  0  0  0  0  0  0  0  0  0
   27.4340   49.4600   -4.8700 C   0  0  0  0  0  0  0  0  0  0  0  0
   28.7140   46.4860   -3.3990 C   0  0  0  0  0  0  0  0  0  0  0  0
   27.3680   49.4100   -8.0040 N   0  0  0  0  0  0  0  0  0  0  0  0
   27.5030   51.7110   -6.8210 N   0  0  0  0  0  0  0  0  0  0  0  0
   28.4040   52.1850   -5.8830 C   0  0  0  0  0  0  0  0  0  0  0  0
   27.1990   48.2390   -4.3620 C   0  0  0  0  0  0  0  0  0  0  0  0
   29.1130   45.2050   -3.5520 O   0  0  0  0  0  0  0  0  0  0  0  0
   28.9190   47.0590   -2.3400 O   0  0  0  0  0  0  0  0  0  0  0  0
  2  1  1  6
  2  3  1  0
  2  4  1  0
  4  5  1  0
  3  6  1  0
  5  7  1  0
  6  7  1  0
  8  5  1  1
  8  9  1  0
  8 10  1  0
  8 11  1  0
  9 12  1  0
 10 13  1  0
 10 14  1  1
 11 15  1  0
 10 16  1  0
 15 17  1  1
 12 18  1  0
 13 18  1  1
 13 19  1  0
 14 20  2  0
 19 20  1  0
 15 21  1  0
 16 21  2  0
 17 22  1  0
 17 23  2  0
M  END
