mac-x0178-mac-x0387
     RDKit          3D

 25 27  0  0  0  0  0  0  0  0999 V2000
   28.4400   44.9750   -0.1880 N   0  0  0  0  0  0  0  0  0  0  0  0
   28.8670   46.5480   -0.5990 S   0  0  0  0  0  0  0  0  0  0  0  0
   29.7840   47.0020    0.4170 O   0  0  0  0  0  0  0  0  0  0  0  0
   27.6570   47.2680   -0.9240 O   0  0  0  0  0  0  0  0  0  0  0  0
   29.7770   46.3140   -2.0980 C   0  0  0  0  0  0  0  0  0  0  0  0
   29.1820   45.6590   -3.1760 C   0  0  0  0  0  0  0  0  0  0  0  0
   31.0790   46.7970   -2.1700 C   0  0  0  0  0  0  0  0  0  0  0  0
   29.9060   45.4860   -4.3560 C   0  0  0  0  0  0  0  0  0  0  0  0
   31.7950   46.6200   -3.3480 C   0  0  0  0  0  0  0  0  0  0  0  0
   31.2200   45.9690   -4.4500 C   0  0  0  0  0  0  0  0  0  0  0  0
   32.0230   45.8150   -5.7220 C   0  0  0  0  0  0  0  0  0  0  0  0
   31.4190   44.9830   -6.6980 O   0  0  0  0  0  0  0  0  0  0  0  0
   33.3390   45.3330   -5.4930 O   0  0  0  0  0  0  0  0  0  0  0  0
   32.1830   47.2090   -6.2940 C   0  0  0  0  0  0  0  0  0  0  0  0
   31.1010   48.1750   -5.8360 C   0  0  0  0  0  0  0  0  0  0  0  0
   30.0620   48.5250   -6.7130 C   0  0  0  0  0  0  0  0  0  0  0  0
   31.1630   48.7250   -4.5400 C   0  0  0  0  0  0  0  0  0  0  0  0
   29.1030   49.4620   -6.2980 C   0  0  0  0  0  0  0  0  0  0  0  0
   29.9410   47.9840   -8.0050 C   0  0  0  0  0  0  0  0  0  0  0  0
   30.2050   49.6370   -4.1210 C   0  0  0  0  0  0  0  0  0  0  0  0
   28.1050   49.8090   -7.2250 C   0  0  0  0  0  0  0  0  0  0  0  0
   28.9140   48.3830   -8.8250 C   0  0  0  0  0  0  0  0  0  0  0  0
   29.1920   50.0060   -4.9940 C   0  0  0  0  0  0  0  0  0  0  0  0
   27.1260   50.7530   -6.9220 N   0  0  0  0  0  0  0  0  0  0  0  0
   27.9960   49.2900   -8.4630 N   0  0  0  0  0  0  0  0  0  0  0  0
  2  1  1  0
  2  3  2  0
  2  4  2  0
  2  5  1  0
  5  6  2  0
  5  7  1  0
  6  8  1  0
  7  9  2  0
  8 10  2  0
  9 10  1  0
 10 11  1  0
 11 12  1  0
 11 13  1  0
 11 14  1  0
 14 15  1  0
 15 16  1  0
 15 17  2  0
 16 18  2  0
 16 19  1  0
 17 20  1  0
 18 21  1  0
 19 22  2  0
 18 23  1  0
 20 23  2  0
 21 24  1  0
 21 25  2  0
 22 25  1  0
M  END
