mac-x0412-mac-x0411
     RDKit          3D

 26 28  0  0  0  0  0  0  0  0999 V2000
   29.6180   54.5390   -4.0280 O   0  0  0  0  0  0  0  0  0  0  0  0
   29.0270   53.7780   -4.7900 C   0  0  0  0  0  0  0  0  0  0  0  0
   28.4140   54.2390   -5.9440 N   0  0  0  0  0  0  0  0  0  0  0  0
   28.9220   52.2530   -4.5240 C   0  0  1  0  0  0  0  0  0  0  0  0
   29.2110   51.5090   -5.8160 C   0  0  0  0  0  0  0  0  0  0  0  0
   28.3900   53.4380   -6.9550 C   0  0  0  0  0  0  0  0  0  0  0  0
   29.7950   51.7820   -3.3830 C   0  0  0  0  0  0  0  0  0  0  0  0
   28.9550   52.0790   -7.0030 C   0  0  0  0  0  0  0  0  0  0  0  0
   29.7730   50.1710   -5.7140 C   0  0  0  0  0  0  0  0  0  0  0  0
   30.4590   50.6150   -3.4270 C   0  0  0  0  0  0  0  0  0  0  0  0
   30.3670   49.7400   -4.5830 C   0  0  0  0  0  0  0  0  0  0  0  0
   30.9580   48.3550   -4.4620 C   0  0  0  0  0  0  0  0  0  0  0  0
   32.4760   48.3110   -4.2230 C   0  0  0  0  0  0  0  0  0  0  0  0
   32.9410   47.4460   -3.0480 C   0  0  0  0  0  0  0  0  0  0  0  0
   34.4330   47.1970   -2.9990 C   0  0  0  0  0  0  0  0  0  0  0  0
   35.0220   45.9870   -3.4300 C   0  0  0  0  0  0  0  0  0  0  0  0
   35.2650   48.2160   -2.5010 C   0  0  0  0  0  0  0  0  0  0  0  0
   34.1980   44.9990   -3.9180 O   0  0  0  0  0  0  0  0  0  0  0  0
   36.6460   48.0450   -2.4300 C   0  0  0  0  0  0  0  0  0  0  0  0
   36.4190   45.8260   -3.3520 C   0  0  0  0  0  0  0  0  0  0  0  0
   37.2170   44.3770   -3.8580 Cl  0  0  0  0  0  0  0  0  0  0  0  0
   33.4150   45.4100   -5.0450 C   0  0  0  0  0  0  0  0  0  0  0  0
   37.2230   46.8510   -2.8550 C   0  0  0  0  0  0  0  0  0  0  0  0
   33.1610   44.3070   -6.0590 C   0  0  0  0  0  0  0  0  0  0  0  0
   31.9700   43.6880   -5.9290 O   0  0  0  0  0  0  0  0  0  0  0  0
   33.9330   43.9640   -6.9450 O   0  0  0  0  0  0  0  0  0  0  0  0
  1  2  2  0
  2  3  1  0
  2  4  1  0
  4  5  1  0
  3  6  2  0
  4  7  1  1
  5  8  2  0
  6  8  1  0
  5  9  1  0
  7 10  2  0
  9 11  2  0
 10 11  1  0
 11 12  1  0
 12 13  1  0
 13 14  1  0
 14 15  1  0
 15 16  2  0
 15 17  1  0
 16 18  1  0
 17 19  2  0
 16 20  1  0
 20 21  1  0
 18 22  1  0
 19 23  1  0
 20 23  2  0
 22 24  1  0
 24 25  1  0
 24 26  2  0
M  END
