mac-x0226-mac-x0392
     RDKit          3D

 26 28  0  0  0  0  0  0  0  0999 V2000
   32.8510   45.1640   -7.3340 O   0  0  0  0  0  0  0  0  0  0  0  0
   33.0910   46.0540   -6.2700 C   0  0  0  0  0  0  0  0  0  0  0  0
   34.0470   46.9780   -6.7590 O   0  0  0  0  0  0  0  0  0  0  0  0
   31.7520   46.7270   -6.0330 C   0  0  0  0  0  0  0  0  0  0  0  0
   33.5680   45.3150   -5.0660 C   0  0  0  0  0  0  0  0  0  0  0  0
   30.5920   45.7350   -6.0540 C   0  0  0  0  0  0  0  0  0  0  0  0
   32.9870   44.1700   -4.4780 C   0  0  0  0  0  0  0  0  0  0  0  0
   34.6580   45.5700   -4.2620 C   0  0  0  0  0  0  0  0  0  0  0  0
   29.5030   46.2720   -5.3160 O   0  0  0  0  0  0  0  0  0  0  0  0
   33.6490   43.7430   -3.4070 N   0  0  0  0  0  0  0  0  0  0  0  0
   34.6840   44.6140   -3.2770 N   0  0  0  0  0  0  0  0  0  0  0  0
   29.8200   47.4630   -4.7590 C   0  0  0  0  0  0  0  0  0  0  0  0
   35.6240   44.4800   -2.2280 C   0  0  0  0  0  0  0  0  0  0  0  0
   30.3070   47.6150   -3.6470 O   0  0  0  0  0  0  0  0  0  0  0  0
   36.4630   45.5620   -1.9300 C   0  0  0  0  0  0  0  0  0  0  0  0
   35.7270   43.2960   -1.4900 C   0  0  0  0  0  0  0  0  0  0  0  0
   29.5130   48.6000   -5.6630 C   0  0  0  0  0  0  0  0  0  0  0  0
   37.3990   45.4600   -0.9040 C   0  0  0  0  0  0  0  0  0  0  0  0
   36.6660   43.2020   -0.4640 C   0  0  0  0  0  0  0  0  0  0  0  0
   29.3030   48.5030   -7.0550 C   0  0  0  0  0  0  0  0  0  0  0  0
   29.4370   49.8410   -5.0290 C   0  0  0  0  0  0  0  0  0  0  0  0
   29.3570   47.3100   -7.7970 N   0  0  0  0  0  0  0  0  0  0  0  0
   37.5000   44.2790   -0.1700 C   0  0  0  0  0  0  0  0  0  0  0  0
   29.1530   50.9580   -5.7830 C   0  0  0  0  0  0  0  0  0  0  0  0
   29.0250   49.7060   -7.7060 C   0  0  0  0  0  0  0  0  0  0  0  0
   28.9450   50.9190   -7.1120 N   0  0  0  0  0  0  0  0  0  0  0  0
  2  1  1  0
  2  3  1  0
  2  4  1  0
  2  5  1  0
  4  6  1  0
  5  7  1  0
  5  8  2  0
  6  9  1  0
  7 10  2  0
  8 11  1  0
 10 11  1  0
  9 12  1  0
 11 13  1  0
 12 14  2  0
 13 15  2  0
 13 16  1  0
 12 17  1  0
 15 18  1  0
 16 19  2  0
 17 20  2  0
 17 21  1  0
 20 22  1  0
 18 23  2  0
 19 23  1  0
 21 24  2  0
 20 25  1  0
 24 26  1  0
 25 26  2  0
M  END
