mac-x0178-mac-x0371
     RDKit          3D

 17 18  0  0  0  0  0  0  0  0999 V2000
   28.7230   44.6820   -0.2180 N   0  0  0  0  0  0  0  0  0  0  0  0
   29.2270   46.2090   -0.6720 S   0  0  0  0  0  0  0  0  0  0  0  0
   30.1020   46.6540    0.3860 O   0  0  0  0  0  0  0  0  0  0  0  0
   28.0300   46.9320   -1.0310 O   0  0  0  0  0  0  0  0  0  0  0  0
   30.2090   45.8960   -2.1610 C   0  0  1  0  0  0  0  0  0  0  0  0
   29.3410   45.3590   -3.3070 C   0  0  0  0  0  0  0  0  0  0  0  0
   30.9380   47.1960   -2.5590 C   0  0  0  0  0  0  0  0  0  0  0  0
   30.1030   45.1690   -4.6300 C   0  0  2  0  0  0  0  0  0  0  0  0
   31.7260   47.0580   -3.8660 C   0  0  1  0  0  0  0  0  0  0  0  0
   31.1990   43.7630   -4.4480 Cl  0  0  0  0  0  0  0  0  0  0  0  0
   32.2700   48.7340   -4.3240 Cl  0  0  0  0  0  0  0  0  0  0  0  0
   32.9910   46.1920   -3.8300 C   0  0  0  0  0  0  0  0  0  0  0  0
   30.8770   46.4290   -5.0020 C   0  0  1  0  0  0  0  0  0  0  0  0
   31.9530   46.3530   -6.0500 C   0  0  0  0  0  0  0  0  0  0  0  0
   33.2640   46.1040   -5.3120 C   0  0  0  0  0  0  0  0  0  0  0  0
   31.8490   46.4610   -7.2520 O   0  0  0  0  0  0  0  0  0  0  0  0
   34.3310   45.8790   -5.8480 O   0  0  0  0  0  0  0  0  0  0  0  0
  2  1  1  0
  2  3  2  0
  2  4  2  0
  5  2  1  1
  5  6  1  0
  5  7  1  0
  6  8  1  0
  7  9  1  0
  8 10  1  1
  9 11  1  6
  9 12  1  0
  8 13  1  0
  9 13  1  0
 13 14  1  6
 12 15  1  0
 14 15  1  0
 14 16  2  0
 15 17  2  0
M  END
