mac-x0302-mac-x0179
     RDKit          3D

 28 30  0  0  0  0  0  0  0  0999 V2000
   30.5250   44.6390   -5.0090 O   0  0  0  0  0  0  0  0  0  0  0  0
   31.1220   45.9320   -5.0680 C   0  0  0  0  0  0  0  0  0  0  0  0
   31.0350   46.3720   -6.4110 O   0  0  0  0  0  0  0  0  0  0  0  0
   30.2710   46.8780   -4.1900 C   0  0  0  0  0  0  0  0  0  0  0  0
   32.5750   45.8380   -4.5380 C   0  0  0  0  0  0  0  0  0  0  0  0
   30.2700   48.2600   -4.6370 N   0  0  0  0  0  0  0  0  0  0  0  0
   33.5550   46.0050   -5.2850 O   0  0  0  0  0  0  0  0  0  0  0  0
   32.6880   45.5240   -3.0580 C   0  0  0  0  0  0  0  0  0  0  0  0
   29.8930   49.3010   -3.8210 C   0  0  0  0  0  0  0  0  0  0  0  0
   34.0620   45.7070   -2.6600 N   0  0  0  0  0  0  0  0  0  0  0  0
   29.8680   49.2160   -2.5960 O   0  0  0  0  0  0  0  0  0  0  0  0
   29.5140   50.5630   -4.5080 C   0  0  0  0  0  0  0  0  0  0  0  0
   34.7940   44.7410   -2.0380 C   0  0  0  0  0  0  0  0  0  0  0  0
   34.5990   46.9490   -2.4620 C   0  0  0  0  0  0  0  0  0  0  0  0
   34.5460   43.5580   -1.9030 O   0  0  0  0  0  0  0  0  0  0  0  0
   34.1240   48.0260   -2.7700 O   0  0  0  0  0  0  0  0  0  0  0  0
   29.6990   51.7740   -3.8270 C   0  0  0  0  0  0  0  0  0  0  0  0
   28.9840   50.5590   -5.8040 C   0  0  0  0  0  0  0  0  0  0  0  0
   36.0000   45.3960   -1.5340 C   0  0  0  0  0  0  0  0  0  0  0  0
   35.8790   46.7510   -1.7960 C   0  0  0  0  0  0  0  0  0  0  0  0
   29.3520   52.9680   -4.4560 C   0  0  0  0  0  0  0  0  0  0  0  0
   28.6410   51.7660   -6.4220 C   0  0  0  0  0  0  0  0  0  0  0  0
   37.1090   44.8760   -0.9030 C   0  0  0  0  0  0  0  0  0  0  0  0
   36.8570   47.6580   -1.4430 C   0  0  0  0  0  0  0  0  0  0  0  0
   29.5160   54.1670   -3.8340 O   0  0  0  0  0  0  0  0  0  0  0  0
   28.8260   52.9700   -5.7450 C   0  0  0  0  0  0  0  0  0  0  0  0
   38.1160   45.7730   -0.5350 C   0  0  0  0  0  0  0  0  0  0  0  0
   37.9940   47.1540   -0.8020 C   0  0  0  0  0  0  0  0  0  0  0  0
  2  1  1  0
  2  3  1  0
  2  4  1  0
  2  5  1  0
  4  6  1  0
  5  7  2  0
  5  8  1  0
  6  9  1  0
  8 10  1  0
  9 11  2  0
  9 12  1  0
 10 13  1  0
 10 14  1  0
 13 15  2  0
 14 16  2  0
 12 17  2  0
 12 18  1  0
 13 19  1  0
 14 20  1  0
 19 20  2  0
 17 21  1  0
 18 22  2  0
 19 23  1  0
 20 24  1  0
 21 25  1  0
 21 26  2  0
 22 26  1  0
 23 27  2  0
 24 28  2  0
 27 28  1  0
M  END
