mac-x0555-mac-x0124
     RDKit          3D

 22 25  0  0  0  0  0  0  0  0999 V2000
   29.7100   56.4450   -6.2920 N   0  0  0  0  0  0  0  0  0  0  0  0
   29.6320   55.3570   -5.4200 C   0  0  0  0  0  0  0  0  0  0  0  0
   29.5240   55.5100   -4.0420 C   0  0  0  0  0  0  0  0  0  0  0  0
   29.6590   54.0490   -5.8970 C   0  0  0  0  0  0  0  0  0  0  0  0
   29.5790   52.9640   -5.0120 C   0  0  0  0  0  0  0  0  0  0  0  0
   29.4440   54.4920   -3.1490 N   0  0  0  0  0  0  0  0  0  0  0  0
   29.4720   53.2380   -3.6330 C   0  0  0  0  0  0  0  0  0  0  0  0
   29.6030   51.6340   -5.4700 C   0  0  0  0  0  0  0  0  0  0  0  0
   29.3920   52.1680   -2.7540 C   0  0  0  0  0  0  0  0  0  0  0  0
   29.5220   50.5690   -4.5680 C   0  0  0  0  0  0  0  0  0  0  0  0
   29.4160   50.8430   -3.2050 C   0  0  0  0  0  0  0  0  0  0  0  0
   29.5470   49.1960   -5.0380 C   0  0  0  0  0  0  0  0  0  0  0  0
   30.1410   48.1770   -4.3130 C   0  0  0  0  0  0  0  0  0  0  0  0
   29.0190   48.6140   -6.2380 C   0  0  0  0  0  0  0  0  0  0  0  0
   29.9960   47.0130   -5.0200 N   0  0  0  0  0  0  0  0  0  0  0  0
   29.3200   47.2560   -6.1860 C   0  0  0  0  0  0  0  0  0  0  0  0
   28.3200   49.0500   -7.3770 C   0  0  0  0  0  0  0  0  0  0  0  0
   30.4770   45.7150   -4.6110 C   0  0  0  0  0  0  0  0  0  0  0  0
   27.9310   50.3630   -7.6060 N   0  0  0  0  0  0  0  0  0  0  0  0
   27.9910   48.1520   -8.3280 N   0  0  0  0  0  0  0  0  0  0  0  0
   29.0110   46.3290   -7.1090 N   0  0  0  0  0  0  0  0  0  0  0  0
   28.3480   46.8660   -8.1440 C   0  0  0  0  0  0  0  0  0  0  0  0
  1  2  1  0
  2  3  2  0
  2  4  1  0
  4  5  2  0
  3  6  1  0
  5  7  1  0
  6  7  2  0
  5  8  1  0
  7  9  1  0
  8 10  2  0
  9 11  2  0
 10 11  1  0
 10 12  1  0
 12 13  2  0
 12 14  1  0
 13 15  1  0
 14 16  2  0
 15 16  1  0
 14 17  1  0
 15 18  1  0
 17 19  1  0
 17 20  2  0
 16 21  1  0
 20 22  1  0
 21 22  2  0
M  END
