mac-x0385-mac-x0206
     RDKit          3D

 16 17  0  0  0  0  0  0  0  0999 V2000
   28.8910   51.4270   -2.1650 C   0  0  0  0  0  0  0  0  0  0  0  0
   28.7560   50.3250   -3.2210 C   0  0  2  0  0  0  0  0  0  0  0  0
   30.0040   49.4290   -3.2030 C   0  0  0  0  0  0  0  0  0  0  0  0
   28.4310   50.7980   -4.6760 C   0  0  2  0  0  0  0  0  0  0  0  0
   28.5390   49.7020   -5.7030 N   0  0  0  0  0  0  0  0  0  0  0  0
   29.8390   48.3070   -4.1060 N   0  0  0  0  0  0  0  0  0  0  0  0
   28.8800   52.2220   -5.0650 C   0  0  0  0  0  0  0  0  0  0  0  0
   29.6680   48.7570   -5.4870 C   0  0  1  0  0  0  0  0  0  0  0  0
   29.8850   52.9910   -4.4450 C   0  0  0  0  0  0  0  0  0  0  0  0
   28.2160   52.8330   -6.1570 C   0  0  0  0  0  0  0  0  0  0  0  0
   28.5470   50.1970   -7.0770 N   0  0  0  0  0  0  0  0  0  0  0  0
   29.4560   47.5400   -6.3960 C   0  0  0  0  0  0  0  0  0  0  0  0
   30.6170   52.5510   -3.3810 O   0  0  0  0  0  0  0  0  0  0  0  0
   30.2040   54.2780   -4.8810 C   0  0  0  0  0  0  0  0  0  0  0  0
   28.5350   54.1210   -6.5970 C   0  0  0  0  0  0  0  0  0  0  0  0
   29.5320   54.8460   -5.9560 C   0  0  0  0  0  0  0  0  0  0  0  0
  2  1  1  1
  2  3  1  0
  2  4  1  0
  4  5  1  0
  3  6  1  0
  4  7  1  6
  5  8  1  0
  6  8  1  0
  7  9  2  0
  7 10  1  0
  5 11  1  0
  8 12  1  6
  9 13  1  0
  9 14  1  0
 10 15  2  0
 14 16  2  0
 15 16  1  0
M  END
