mac-x0436-mac-x0357
     RDKit          3D

 18 19  0  0  0  0  0  0  0  0999 V2000
   32.7690   46.0460   -7.5640 O   0  0  0  0  0  0  0  0  0  0  0  0
   32.2790   45.5490   -6.3530 C   0  0  0  0  0  0  0  0  0  0  0  0
   31.8790   44.2260   -6.5940 O   0  0  0  0  0  0  0  0  0  0  0  0
   33.3510   45.6380   -5.2570 C   0  0  0  0  0  0  0  0  0  0  0  0
   31.1420   46.2800   -5.9780 O   0  0  0  0  0  0  0  0  0  0  0  0
   32.7980   45.4040   -3.8380 C   0  0  0  0  0  0  0  0  0  0  0  0
   33.5720   46.1200   -2.7010 C   0  0  2  0  0  0  0  0  0  0  0  0
   33.8800   47.5950   -3.0560 C   0  0  0  0  0  0  0  0  0  0  0  0
   34.8080   45.3920   -2.3040 N   0  0  0  0  0  0  0  0  0  0  0  0
   33.0180   48.4240   -3.3480 O   0  0  0  0  0  0  0  0  0  0  0  0
   34.4960   43.9670   -2.2660 O   0  0  0  0  0  0  0  0  0  0  0  0
   35.1890   47.9920   -3.0360 N   0  0  0  0  0  0  0  0  0  0  0  0
   35.9280   45.5790   -3.2640 C   0  0  1  0  0  0  0  0  0  0  0  0
   36.2800   47.1040   -3.3970 C   0  0  2  0  0  0  0  0  0  0  0  0
   37.1670   44.7370   -3.0020 C   0  0  0  0  0  0  0  0  0  0  0  0
   38.2840   45.2610   -2.4710 C   0  0  0  0  0  0  0  0  0  0  0  0
   37.4430   47.5330   -2.5420 C   0  0  0  0  0  0  0  0  0  0  0  0
   38.3680   46.6580   -2.1200 C   0  0  0  0  0  0  0  0  0  0  0  0
  2  1  1  0
  2  3  1  0
  2  4  1  0
  2  5  1  0
  4  6  1  0
  7  6  1  6
  7  8  1  0
  7  9  1  0
  8 10  2  0
  9 11  1  0
  8 12  1  0
  9 13  1  0
 12 14  1  0
 13 14  1  0
 13 15  1  1
 15 16  2  0
 14 17  1  1
 16 18  1  0
 17 18  2  0
M  END
