mac-x0412-mac-x0142
     RDKit          3D

 24 28  0  0  0  0  0  0  0  0999 V2000
   29.8070   54.3360   -4.0140 O   0  0  0  0  0  0  0  0  0  0  0  0
   29.3500   53.5590   -4.8510 C   0  0  0  0  0  0  0  0  0  0  0  0
   29.0680   53.9570   -6.1310 N   0  0  0  0  0  0  0  0  0  0  0  0
   29.0410   52.0970   -4.5430 C   0  0  1  0  0  0  0  0  0  0  0  0
   28.8020   51.1840   -5.7890 C   0  0  1  0  0  0  0  0  0  0  0  0
   29.3770   53.1650   -7.1970 C   0  0  0  0  0  0  0  0  0  0  0  0
   30.0560   51.5040   -3.5760 C   0  0  0  0  0  0  0  0  0  0  0  0
   29.2820   51.8260   -7.0920 C   0  0  0  0  0  0  0  0  0  0  0  0
   28.9100   49.5820   -5.5200 C   0  0  1  0  0  0  0  0  0  0  0  0
   29.4970   50.2120   -3.1210 C   0  0  0  0  0  0  0  0  0  0  0  0
   28.9630   49.3480   -3.9900 C   0  0  0  0  0  0  0  0  0  0  0  0
   27.6680   48.9570   -6.1890 C   0  0  0  0  0  0  0  0  0  0  0  0
   30.0740   48.5610   -5.9690 C   0  0  1  0  0  0  0  0  0  0  0  0
   30.7120   47.5840   -5.0220 N   0  0  0  0  0  0  0  0  0  0  0  0
   29.5600   47.5900   -6.9660 N   0  0  0  0  0  0  0  0  0  0  0  0
   27.7500   48.9410   -7.6590 N   0  0  0  0  0  0  0  0  0  0  0  0
   31.3060   48.1420   -3.7950 C   0  0  0  0  0  0  0  0  0  0  0  0
   30.3560   46.1800   -4.8870 C   0  0  0  0  0  0  0  0  0  0  0  0
   28.8350   48.1080   -8.1010 C   0  0  0  0  0  0  0  0  0  0  0  0
   31.6220   45.4010   -4.5360 C   0  0  0  0  0  0  0  0  0  0  0  0
   32.5720   47.4030   -3.3410 C   0  0  0  0  0  0  0  0  0  0  0  0
   31.6630   43.9110   -4.8410 C   0  0  0  0  0  0  0  0  0  0  0  0
   32.4620   44.8570   -5.6810 C   0  0  0  0  0  0  0  0  0  0  0  0
   32.3700   45.8910   -3.3070 C   0  0  0  0  0  0  0  0  0  0  0  0
  1  2  2  0
  2  3  1  0
  2  4  1  0
  4  5  1  0
  3  6  1  0
  4  7  1  6
  5  8  1  6
  6  8  2  0
  5  9  1  0
  7 10  1  0
  9 11  1  1
 10 11  2  0
  9 12  1  0
  9 13  1  0
 13 14  1  1
 13 15  1  0
 12 16  1  0
 14 17  1  0
 14 18  1  0
 15 19  1  0
 16 19  1  0
 20 18  1  0
 17 21  1  0
 20 22  1  0
 20 23  1  0
 22 23  1  0
 20 24  1  0
 21 24  1  0
M  END
