mac-x0271-mac-x0379
     RDKit          3D

 16 17  0  0  0  0  0  0  0  0999 V2000
   30.5950   49.7110   -2.4210 O   0  0  0  0  0  0  0  0  0  0  0  0
   30.1190   50.5210   -3.4070 C   0  0  0  0  0  0  0  0  0  0  0  0
   29.6880   50.0070   -4.6310 C   0  0  0  0  0  0  0  0  0  0  0  0
   30.0990   51.8800   -3.0980 C   0  0  0  0  0  0  0  0  0  0  0  0
   29.8060   48.4640   -4.7490 C   0  0  0  0  0  0  0  0  0  0  0  0
   29.6370   52.7920   -4.0310 C   0  0  0  0  0  0  0  0  0  0  0  0
   29.2000   50.9860   -5.6020 C   0  0  0  0  0  0  0  0  0  0  0  0
   28.7090   50.5840   -6.9440 C   0  0  0  0  0  0  0  0  0  0  0  0
   30.4290   47.7190   -3.9880 O   0  0  0  0  0  0  0  0  0  0  0  0
   29.1580   47.8790   -5.7810 O   0  0  0  0  0  0  0  0  0  0  0  0
   29.1840   52.3870   -5.2830 C   0  0  0  0  0  0  0  0  0  0  0  0
   29.6550   54.1540   -3.6310 O   0  0  0  0  0  0  0  0  0  0  0  0
   28.7200   53.4690   -6.1790 C   0  0  0  0  0  0  0  0  0  0  0  0
   29.2530   55.1740   -4.4750 C   0  0  0  0  0  0  0  0  0  0  0  0
   29.2960   56.3600   -4.1540 O   0  0  0  0  0  0  0  0  0  0  0  0
   28.7590   54.7590   -5.7950 C   0  0  0  0  0  0  0  0  0  0  0  0
  1  2  1  0
  2  3  2  0
  2  4  1  0
  3  5  1  0
  4  6  2  0
  3  7  1  0
  7  8  1  0
  5  9  2  0
  5 10  1  0
  6 11  1  0
  7 11  2  0
  6 12  1  0
 11 13  1  0
 12 14  1  0
 14 15  2  0
 13 16  2  0
 14 16  1  0
M  END
