mac-x0358-mac-x0472
     RDKit          3D

 26 28  0  0  0  0  0  0  0  0999 V2000
   31.8900   44.6440   -6.5040 O   0  0  0  0  0  0  0  0  0  0  0  0
   33.0370   44.8550   -5.8160 C   0  0  0  0  0  0  0  0  0  0  0  0
   33.9950   45.3280   -6.4030 O   0  0  0  0  0  0  0  0  0  0  0  0
   32.9290   44.4850   -4.3450 C   0  0  0  0  0  0  0  0  0  0  0  0
   32.4140   45.7170   -3.7060 C   0  0  0  0  0  0  0  0  0  0  0  0
   33.2890   46.7750   -3.4590 C   0  0  0  0  0  0  0  0  0  0  0  0
   31.0610   45.8190   -3.3930 C   0  0  0  0  0  0  0  0  0  0  0  0
   34.6140   46.6340   -3.7580 O   0  0  0  0  0  0  0  0  0  0  0  0
   32.8150   47.9510   -2.9440 C   0  0  0  0  0  0  0  0  0  0  0  0
   30.5830   47.0000   -2.8770 C   0  0  0  0  0  0  0  0  0  0  0  0
   31.4640   48.0410   -2.6880 C   0  0  0  0  0  0  0  0  0  0  0  0
   30.9480   49.2770   -2.2540 N   0  0  0  0  0  0  0  0  0  0  0  0
   30.5870   50.1460   -3.4930 S   0  0  2  0  0  0  0  0  0  0  0  0
   29.6880   51.2650   -3.4300 O   0  0  0  0  0  0  0  0  0  0  0  0
   29.8350   49.1950   -4.6930 N   0  0  0  0  0  0  0  0  0  0  0  0
   32.0680   50.7300   -4.2960 C   0  0  0  0  0  0  0  0  0  0  0  0
   29.3660   49.8170   -5.8190 C   0  0  0  0  0  0  0  0  0  0  0  0
   33.0280   49.8390   -4.8040 C   0  0  0  0  0  0  0  0  0  0  0  0
   32.2510   52.1070   -4.4160 C   0  0  0  0  0  0  0  0  0  0  0  0
   29.2360   49.2380   -7.0090 N   0  0  0  0  0  0  0  0  0  0  0  0
   28.8690   51.4730   -5.8580 S   0  0  0  0  0  0  0  0  0  0  0  0
   34.1710   50.3430   -5.4280 C   0  0  0  0  0  0  0  0  0  0  0  0
   33.3950   52.6010   -5.0420 C   0  0  0  0  0  0  0  0  0  0  0  0
   28.5050   51.2870   -7.5140 C   0  0  0  0  0  0  0  0  0  0  0  0
   28.7400   50.0850   -7.9880 N   0  0  0  0  0  0  0  0  0  0  0  0
   34.3550   51.7190   -5.5460 C   0  0  0  0  0  0  0  0  0  0  0  0
  1  2  1  0
  2  3  2  0
  2  4  1  0
  4  5  1  0
  5  6  2  0
  5  7  1  0
  6  8  1  0
  6  9  1  0
  7 10  2  0
  9 11  2  0
 10 11  1  0
 11 12  1  0
 12 13  2  0
 13 14  2  0
 13 15  1  6
 13 16  1  0
 15 17  1  0
 16 18  2  0
 16 19  1  0
 17 20  2  0
 17 21  1  0
 18 22  1  0
 19 23  2  0
 21 24  1  0
 20 25  1  0
 24 25  2  0
 22 26  2  0
 23 26  1  0
M  END
