mac-x0385-mac-x0436
     RDKit          3D

 27 29  0  0  0  0  0  0  0  0999 V2000
   29.6060   51.5430   -2.6800 C   0  0  0  0  0  0  0  0  0  0  0  0
   29.3350   50.4720   -3.6830 C   0  0  0  0  0  0  0  0  0  0  0  0
   29.6210   49.1480   -3.4150 C   0  0  0  0  0  0  0  0  0  0  0  0
   28.7880   50.7180   -4.9320 C   0  0  0  0  0  0  0  0  0  0  0  0
   28.4520   52.0180   -5.3300 N   0  0  0  0  0  0  0  0  0  0  0  0
   28.5510   49.7450   -5.8180 N   0  0  0  0  0  0  0  0  0  0  0  0
   29.3980   48.1400   -4.2750 N   0  0  0  0  0  0  0  0  0  0  0  0
   28.8620   48.4870   -5.4590 C   0  0  0  0  0  0  0  0  0  0  0  0
   28.5860   47.3920   -6.4510 C   0  0  0  0  0  0  0  0  0  0  0  0
   29.7830   46.9760   -7.3010 C   0  0  0  0  0  0  0  0  0  0  0  0
   30.4240   45.6620   -6.8570 C   0  0  0  0  0  0  0  0  0  0  0  0
   31.8580   45.7790   -7.0530 N   0  0  0  0  0  0  0  0  0  0  0  0
   32.6710   45.2820   -6.2030 C   0  0  0  0  0  0  0  0  0  0  0  0
   33.9610   45.4650   -6.4940 O   0  0  0  0  0  0  0  0  0  0  0  0
   32.4240   44.5220   -4.9280 C   0  0  0  0  0  0  0  0  0  0  0  0
   32.4910   45.3870   -3.6740 C   0  0  0  0  0  0  0  0  0  0  0  0
   33.8540   45.9890   -3.4020 C   0  0  0  0  0  0  0  0  0  0  0  0
   34.0110   47.4940   -3.6240 C   0  0  0  0  0  0  0  0  0  0  0  0
   34.8320   45.2250   -3.0030 N   0  0  0  0  0  0  0  0  0  0  0  0
   33.0620   48.1790   -3.9690 O   0  0  0  0  0  0  0  0  0  0  0  0
   35.2640   48.0040   -3.4080 N   0  0  0  0  0  0  0  0  0  0  0  0
   36.0870   45.8240   -2.7750 C   0  0  0  0  0  0  0  0  0  0  0  0
   36.3120   47.1950   -2.9730 C   0  0  0  0  0  0  0  0  0  0  0  0
   37.1430   45.0250   -2.3370 C   0  0  0  0  0  0  0  0  0  0  0  0
   38.4040   45.5840   -2.1010 C   0  0  0  0  0  0  0  0  0  0  0  0
   37.5670   47.7600   -2.7390 C   0  0  0  0  0  0  0  0  0  0  0  0
   38.6110   46.9490   -2.3030 C   0  0  0  0  0  0  0  0  0  0  0  0
  1  2  1  0
  2  3  2  0
  2  4  1  0
  4  5  1  0
  4  6  2  0
  3  7  1  0
  6  8  1  0
  7  8  2  0
  8  9  1  0
  9 10  1  0
 10 11  1  0
 11 12  1  0
 12 13  2  3
 13 14  1  0
 13 15  1  0
 15 16  1  0
 16 17  1  0
 17 18  1  0
 17 19  2  0
 18 20  2  0
 18 21  1  0
 19 22  1  0
 21 23  1  0
 22 23  2  0
 22 24  1  0
 24 25  2  0
 23 26  1  0
 25 27  1  0
 26 27  2  0
M  END
