mac-x0496-mac-x0159
     RDKit          3D

 35 39  0  0  0  0  0  0  0  0999 V2000
   24.3610   58.5230   -6.0120 C   0  0  0  0  0  0  0  0  0  0  0  0
   25.7590   58.3560   -5.5780 C   0  0  0  0  0  0  0  0  0  0  0  0
   26.2140   58.8300   -4.4100 N   0  0  0  0  0  0  0  0  0  0  0  0
   26.6900   57.7040   -6.3430 N   0  0  0  0  0  0  0  0  0  0  0  0
   27.5610   58.4530   -4.4150 O   0  0  0  0  0  0  0  0  0  0  0  0
   27.7680   57.7910   -5.5900 C   0  0  0  0  0  0  0  0  0  0  0  0
   29.1330   57.2770   -5.8540 C   0  0  0  0  0  0  0  0  0  0  0  0
   29.0880   55.8310   -5.8220 N   0  0  0  0  0  0  0  0  0  0  0  0
   29.4090   55.1460   -4.6810 C   0  0  0  0  0  0  0  0  0  0  0  0
   29.9620   55.6680   -3.7220 O   0  0  0  0  0  0  0  0  0  0  0  0
   29.0590   53.7050   -4.6380 C   0  0  0  0  0  0  0  0  0  0  0  0
   28.9640   52.9150   -5.7990 C   0  0  0  0  0  0  0  0  0  0  0  0
   28.8240   53.1470   -3.3790 C   0  0  0  0  0  0  0  0  0  0  0  0
   28.6430   51.5680   -5.6940 C   0  0  0  0  0  0  0  0  0  0  0  0
   28.4980   51.8020   -3.2650 C   0  0  0  0  0  0  0  0  0  0  0  0
   28.2440   51.1550   -1.9360 C   0  0  0  0  0  0  0  0  0  0  0  0
   28.4090   51.0460   -4.4210 C   0  0  0  0  0  0  0  0  0  0  0  0
   28.5220   50.6270   -6.6740 N   0  0  0  0  0  0  0  0  0  0  0  0
   29.4260   50.5340   -1.4450 O   0  0  0  0  0  0  0  0  0  0  0  0
   28.9910   49.2970   -6.3020 C   0  0  2  0  0  0  0  0  0  0  0  0
   29.7110   49.1990   -5.0320 N   0  0  0  0  0  0  0  0  0  0  0  0
   29.8160   48.6090   -7.3990 C   0  0  1  0  0  0  0  0  0  0  0  0
   30.6230   48.0840   -4.9900 C   0  0  0  0  0  0  0  0  0  0  0  0
   29.9130   47.1180   -7.0330 C   0  0  1  0  0  0  0  0  0  0  0  0
   29.3350   48.5710   -8.7920 N   0  0  0  0  0  0  0  0  0  0  0  0
   29.9700   46.9290   -5.5840 N   0  0  0  0  0  0  0  0  0  0  0  0
   28.7280   46.5830   -7.6820 N   0  0  0  0  0  0  0  0  0  0  0  0
   28.3150   47.5330   -8.7090 C   0  0  0  0  0  0  0  0  0  0  0  0
   28.6510   46.7360   -4.9530 C   0  0  0  0  0  0  0  0  0  0  0  0
   28.7210   45.8190   -3.7590 C   0  0  0  0  0  0  0  0  0  0  0  0
   29.0370   44.4730   -3.7790 C   0  0  0  0  0  0  0  0  0  0  0  0
   28.4420   46.3200   -2.4870 N   0  0  0  0  0  0  0  0  0  0  0  0
   28.5480   45.3700   -1.5870 C   0  0  0  0  0  0  0  0  0  0  0  0
   28.9840   43.8260   -2.1950 S   0  0  0  0  0  0  0  0  0  0  0  0
   28.3130   45.5680   -0.1320 C   0  0  0  0  0  0  0  0  0  0  0  0
  1  2  1  0
  2  3  2  0
  2  4  1  0
  3  5  1  0
  4  6  2  0
  5  6  1  0
  6  7  1  0
  7  8  1  0
  8  9  1  0
  9 10  2  0
  9 11  1  0
 11 12  2  0
 11 13  1  0
 12 14  1  0
 13 15  2  0
 15 16  1  0
 14 17  2  0
 15 17  1  0
 14 18  1  0
 16 19  1  0
 20 18  1  6
 20 21  1  0
 20 22  1  0
 21 23  1  0
 22 24  1  0
 22 25  1  6
 23 26  1  0
 24 26  1  0
 24 27  1  1
 25 28  1  0
 27 28  1  0
 26 29  1  0
 29 30  1  0
 30 31  2  0
 30 32  1  0
 32 33  2  0
 31 34  1  0
 33 34  1  0
 33 35  1  0
M  END
