mac-x0333-mac-x0398
     RDKit          3D

 14 15  0  0  0  0  0  0  0  0999 V2000
   30.2060   48.9850   -4.0310 O   0  0  0  0  0  0  0  0  0  0  0  0
   29.5270   48.6410   -2.8780 C   0  0  0  0  0  0  0  0  0  0  0  0
   29.8480   47.8380   -2.0170 O   0  0  0  0  0  0  0  0  0  0  0  0
   29.8720   50.2630   -4.4840 C   0  0  0  0  0  0  0  0  0  0  0  0
   30.1020   51.3820   -3.6790 C   0  0  0  0  0  0  0  0  0  0  0  0
   29.3010   50.3930   -5.7630 C   0  0  0  0  0  0  0  0  0  0  0  0
   30.6560   51.2630   -2.4400 O   0  0  0  0  0  0  0  0  0  0  0  0
   29.7510   52.6150   -4.1800 C   0  0  0  0  0  0  0  0  0  0  0  0
   28.9500   51.6580   -6.2560 C   0  0  0  0  0  0  0  0  0  0  0  0
   28.3800   51.8180   -7.5240 N   0  0  0  0  0  0  0  0  0  0  0  0
   29.1940   52.7490   -5.4300 C   0  0  0  0  0  0  0  0  0  0  0  0
   29.9020   53.8080   -3.5410 O   0  0  0  0  0  0  0  0  0  0  0  0
   28.9230   54.0530   -5.7300 O   0  0  0  0  0  0  0  0  0  0  0  0
   29.5030   54.7170   -4.5900 C   0  0  0  0  0  0  0  0  0  0  0  0
  1  2  1  0
  2  3  2  0
  1  4  1  0
  4  5  2  0
  4  6  1  0
  5  7  1  0
  5  8  1  0
  6  9  2  0
  9 10  1  0
  8 11  2  0
  9 11  1  0
  8 12  1  0
 11 13  1  0
 12 14  1  0
 13 14  1  0
M  END
