mac-x0510-mac-x0587
     RDKit          3D

 20 21  0  0  0  0  0  0  0  0999 V2000
   28.8360   52.8360   -5.3740 O   0  0  0  0  0  0  0  0  0  0  0  0
   28.9110   51.6360   -5.6250 C   0  0  0  0  0  0  0  0  0  0  0  0
   29.2350   50.6940   -4.6870 N   0  0  0  0  0  0  0  0  0  0  0  0
   28.6830   51.1560   -6.8720 N   0  0  0  0  0  0  0  0  0  0  0  0
   29.3110   49.9770   -7.3830 C   0  0  1  0  0  0  0  0  0  0  0  0
   29.9970   49.4800   -5.0270 C   0  0  1  0  0  0  0  0  0  0  0  0
   30.1450   48.4780   -3.8430 C   0  0  0  0  0  0  0  0  0  0  0  0
   29.5140   48.8540   -6.3420 C   0  0  2  0  0  0  0  0  0  0  0  0
   28.3720   49.4010   -8.3460 N   0  0  0  0  0  0  0  0  0  0  0  0
   30.3680   46.9640   -4.1350 C   0  0  2  0  0  0  0  0  0  0  0  0
   30.1050   48.8820   -2.6670 O   0  0  0  0  0  0  0  0  0  0  0  0
   30.4270   47.8820   -6.8140 O   0  0  0  0  0  0  0  0  0  0  0  0
   28.2090   48.2200   -6.3510 N   0  0  0  0  0  0  0  0  0  0  0  0
   28.0170   48.1010   -7.7880 C   0  0  0  0  0  0  0  0  0  0  0  0
   29.3420   46.1180   -3.3800 C   0  0  0  0  0  0  0  0  0  0  0  0
   32.0570   46.3640   -3.6150 S   0  0  0  0  0  0  0  0  0  0  0  0
   33.1040   46.8940   -5.0190 C   0  0  0  0  0  0  0  0  0  0  0  0
   33.2080   45.8640   -6.1260 C   0  0  0  0  0  0  0  0  0  0  0  0
   34.2620   45.5650   -6.6720 O   0  0  0  0  0  0  0  0  0  0  0  0
   32.0400   45.2910   -6.4920 O   0  0  0  0  0  0  0  0  0  0  0  0
  1  2  2  0
  2  3  1  0
  2  4  1  0
  5  4  1  1
  3  6  1  0
  6  7  1  1
  5  8  1  0
  6  8  1  0
  5  9  1  0
  7 10  1  0
  7 11  2  0
  8 12  1  6
  8 13  1  0
  9 14  1  0
 13 14  1  0
 10 15  1  1
 10 16  1  0
 16 17  1  0
 17 18  1  0
 18 19  2  0
 18 20  1  0
M  END
