mac-x1493-mac-x0231
     RDKit          3D

 28 31  0  0  0  0  0  0  0  0999 V2000
   31.4120   49.3940   -4.5910 O   0  0  0  0  0  0  0  0  0  0  0  0
   30.4060   49.5390   -3.7130 C   0  0  0  0  0  0  0  0  0  0  0  0
   30.2000   48.5600   -2.8990 N   0  0  0  0  0  0  0  0  0  0  0  0
   29.7810   50.8410   -3.9180 C   0  0  0  0  0  0  0  0  0  0  0  0
   29.3960   51.2430   -5.1940 C   0  0  0  0  0  0  0  0  0  0  0  0
   29.5630   51.7030   -2.8620 C   0  0  0  0  0  0  0  0  0  0  0  0
   31.0820   47.4810   -3.0520 C   0  0  0  0  0  0  0  0  0  0  0  0
   28.8070   52.4990   -5.3700 C   0  0  0  0  0  0  0  0  0  0  0  0
   28.9960   52.9240   -2.9940 N   0  0  0  0  0  0  0  0  0  0  0  0
   30.7660   46.1950   -3.5430 C   0  0  0  0  0  0  0  0  0  0  0  0
   32.4040   47.7590   -2.6760 C   0  0  0  0  0  0  0  0  0  0  0  0
   28.6260   53.3150   -4.2310 C   0  0  0  0  0  0  0  0  0  0  0  0
   28.4060   52.9500   -6.6370 C   0  0  0  0  0  0  0  0  0  0  0  0
   31.7840   45.2330   -3.6580 C   0  0  0  0  0  0  0  0  0  0  0  0
   29.4050   45.7770   -3.9600 C   0  0  0  0  0  0  0  0  0  0  0  0
   33.4060   46.8020   -2.7810 C   0  0  0  0  0  0  0  0  0  0  0  0
   28.4780   46.5430   -4.1940 O   0  0  0  0  0  0  0  0  0  0  0  0
   28.0440   54.5630   -4.4070 C   0  0  0  0  0  0  0  0  0  0  0  0
   27.8240   54.2080   -6.7840 C   0  0  0  0  0  0  0  0  0  0  0  0
   31.4170   43.8950   -4.2030 C   0  0  0  0  0  0  0  0  0  0  0  0
   29.2200   44.4200   -4.0690 N   0  0  0  0  0  0  0  0  0  0  0  0
   33.0970   45.5410   -3.2740 C   0  0  0  0  0  0  0  0  0  0  0  0
   32.4980   42.9080   -4.5870 C   0  0  0  0  0  0  0  0  0  0  0  0
   27.6430   55.0160   -5.6680 C   0  0  0  0  0  0  0  0  0  0  0  0
   30.1850   43.5260   -4.3880 N   0  0  0  0  0  0  0  0  0  0  0  0
   33.1030   43.1920   -5.9320 C   0  0  0  0  0  0  0  0  0  0  0  0
   34.4470   43.2950   -5.8840 O   0  0  0  0  0  0  0  0  0  0  0  0
   32.5180   43.3290   -6.9960 O   0  0  0  0  0  0  0  0  0  0  0  0
  1  2  1  0
  2  3  2  3
  2  4  1  0
  4  5  2  0
  4  6  1  0
  3  7  1  0
  5  8  1  0
  6  9  2  0
  7 10  1  0
  7 11  2  0
  8 12  2  0
  9 12  1  0
  8 13  1  0
 10 14  2  0
 10 15  1  0
 11 16  1  0
 15 17  2  0
 12 18  1  0
 13 19  2  0
 14 20  1  0
 15 21  1  0
 14 22  1  0
 16 22  2  0
 20 23  1  0
 18 24  2  0
 19 24  1  0
 20 25  2  0
 21 25  1  0
 23 26  1  0
 26 27  1  0
 26 28  2  0
M  END
