mac-x0148-mac-x0394
     RDKit          3D

 30 34  0  0  0  0  0  0  0  0999 V2000
   23.5140   50.3830   -4.2540 Cl  0  0  0  0  0  0  0  0  0  0  0  0
   24.7150   51.6040   -4.4300 C   0  0  0  0  0  0  0  0  0  0  0  0
   24.6000   52.7860   -3.7020 C   0  0  0  0  0  0  0  0  0  0  0  0
   25.7950   51.4010   -5.2990 C   0  0  0  0  0  0  0  0  0  0  0  0
   26.7850   52.3900   -5.4540 C   0  0  0  0  0  0  0  0  0  0  0  0
   25.5720   53.7690   -3.8480 C   0  0  0  0  0  0  0  0  0  0  0  0
   25.4420   55.2340   -2.9540 Cl  0  0  0  0  0  0  0  0  0  0  0  0
   27.9920   52.2360   -6.3840 C   0  0  2  0  0  0  0  0  0  0  0  0
   26.6540   53.5810   -4.7100 C   0  0  0  0  0  0  0  0  0  0  0  0
   27.6690   52.0620   -7.8640 C   0  0  0  0  0  0  0  0  0  0  0  0
   28.9350   51.2310   -5.8530 N   0  0  0  0  0  0  0  0  0  0  0  0
   28.4060   52.8790   -8.6580 O   0  0  0  0  0  0  0  0  0  0  0  0
   26.8580   51.3120   -8.3850 O   0  0  0  0  0  0  0  0  0  0  0  0
   28.9930   49.8970   -6.2190 C   0  0  0  0  0  0  0  0  0  0  0  0
   29.8990   51.4730   -4.9070 C   0  0  0  0  0  0  0  0  0  0  0  0
   28.1890   49.3160   -7.1270 N   0  0  0  0  0  0  0  0  0  0  0  0
   30.0130   49.2750   -5.4950 C   0  0  0  0  0  0  0  0  0  0  0  0
   30.5720   50.2940   -4.6710 C   0  0  0  0  0  0  0  0  0  0  0  0
   28.4700   48.0170   -7.2790 C   0  0  0  0  0  0  0  0  0  0  0  0
   30.2340   47.8880   -5.7310 C   0  0  0  0  0  0  0  0  0  0  0  0
   31.1840   47.0700   -5.1300 N   0  0  0  0  0  0  0  0  0  0  0  0
   29.4140   47.2990   -6.6520 N   0  0  0  0  0  0  0  0  0  0  0  0
   30.9220   46.2890   -3.9160 C   0  0  2  0  0  0  0  0  0  0  0  0
   32.2480   46.5900   -6.0120 C   0  0  0  0  0  0  0  0  0  0  0  0
   30.1550   47.0800   -2.8470 C   0  0  0  0  0  0  0  0  0  0  0  0
   32.1820   45.9080   -3.1270 C   0  0  2  0  0  0  0  0  0  0  0  0
   33.5390   46.4490   -5.2180 C   0  0  0  0  0  0  0  0  0  0  0  0
   32.4150   47.1740   -2.3310 C   0  0  0  0  0  0  0  0  0  0  0  0
   31.1190   47.6170   -1.9160 O   0  0  0  0  0  0  0  0  0  0  0  0
   33.3880   45.5390   -4.0030 C   0  0  0  0  0  0  0  0  0  0  0  0
  1  2  1  0
  2  3  2  0
  2  4  1  0
  4  5  2  0
  3  6  1  0
  6  7  1  0
  5  8  1  0
  5  9  1  0
  6  9  2  0
  8 10  1  6
  8 11  1  0
 10 12  1  0
 10 13  2  0
 11 14  1  0
 11 15  1  0
 14 16  2  0
 14 17  1  0
 15 18  2  0
 17 18  1  0
 16 19  1  0
 17 20  2  0
 20 21  1  0
 19 22  2  0
 20 22  1  0
 21 23  1  0
 21 24  1  0
 23 25  1  1
 23 26  1  0
 24 27  1  0
 26 28  1  6
 25 29  1  0
 28 29  1  0
 26 30  1  0
 27 30  1  0
M  END
