mac-x0178-mac-x0567
     RDKit          3D

 24 26  0  0  0  0  0  0  0  0999 V2000
   28.5530   44.9860   -0.3380 N   0  0  0  0  0  0  0  0  0  0  0  0
   28.9780   46.5820   -0.6740 S   0  0  0  0  0  0  0  0  0  0  0  0
   29.8930   47.0250    0.3490 O   0  0  0  0  0  0  0  0  0  0  0  0
   27.7330   47.2640   -0.9450 O   0  0  0  0  0  0  0  0  0  0  0  0
   29.8620   46.4260   -2.2040 C   0  0  0  0  0  0  0  0  0  0  0  0
   29.3370   45.6330   -3.2250 C   0  0  0  0  0  0  0  0  0  0  0  0
   31.0770   47.1050   -2.3700 C   0  0  0  0  0  0  0  0  0  0  0  0
   30.0310   45.5180   -4.4300 C   0  0  0  0  0  0  0  0  0  0  0  0
   31.7710   46.9890   -3.5780 C   0  0  0  0  0  0  0  0  0  0  0  0
   31.2430   46.1980   -4.6040 C   0  0  0  0  0  0  0  0  0  0  0  0
   31.9560   46.0770   -5.8790 C   0  0  0  0  0  0  0  0  0  0  0  0
   31.5340   46.0730   -7.0840 N   0  0  0  0  0  0  0  0  0  0  0  0
   33.2740   45.9560   -5.6720 O   0  0  0  0  0  0  0  0  0  0  0  0
   30.0960   46.2260   -7.3030 C   0  0  0  0  0  0  0  0  0  0  0  0
   29.7110   47.3430   -8.1500 N   0  0  0  0  0  0  0  0  0  0  0  0
   29.3400   48.5620   -7.6560 C   0  0  0  0  0  0  0  0  0  0  0  0
   28.7270   49.5070   -8.4440 N   0  0  0  0  0  0  0  0  0  0  0  0
   29.4280   49.1770   -6.4230 C   0  0  0  0  0  0  0  0  0  0  0  0
   28.4180   50.6620   -7.8250 N   0  0  0  0  0  0  0  0  0  0  0  0
   28.8420   50.4900   -6.5610 C   0  0  0  0  0  0  0  0  0  0  0  0
   29.9760   48.6400   -5.2590 C   0  0  0  0  0  0  0  0  0  0  0  0
   28.7790   51.3720   -5.4670 C   0  0  0  0  0  0  0  0  0  0  0  0
   29.8990   49.5470   -4.1800 C   0  0  0  0  0  0  0  0  0  0  0  0
   29.3290   50.8510   -4.2750 C   0  0  0  0  0  0  0  0  0  0  0  0
  2  1  1  0
  2  3  2  0
  2  4  2  0
  2  5  1  0
  5  6  2  0
  5  7  1  0
  6  8  1  0
  7  9  2  0
  8 10  2  0
  9 10  1  0
 10 11  1  0
 11 12  2  3
 11 13  1  0
 12 14  1  0
 14 15  1  0
 15 16  1  0
 16 17  1  0
 16 18  2  0
 17 19  1  0
 18 20  1  0
 19 20  2  0
 18 21  1  0
 20 22  1  0
 21 23  2  0
 22 24  2  0
 23 24  1  0
M  END
