mac-x0132-mac-x0357
     RDKit          3D

 24 26  0  0  0  0  0  0  0  0999 V2000
   28.3680   52.5120   -7.2220 N   0  0  0  0  0  0  0  0  0  0  0  0
   28.8710   52.9470   -5.9890 C   0  0  0  0  0  0  0  0  0  0  0  0
   29.0270   54.2720   -5.8720 N   0  0  0  0  0  0  0  0  0  0  0  0
   29.1810   52.0410   -4.9660 C   0  0  0  0  0  0  0  0  0  0  0  0
   29.6760   52.6130   -3.7910 C   0  0  0  0  0  0  0  0  0  0  0  0
   29.5080   54.6980   -4.6980 C   0  0  0  0  0  0  0  0  0  0  0  0
   29.0230   50.6370   -5.0570 C   0  0  0  0  0  0  0  0  0  0  0  0
   29.8420   53.9340   -3.6480 N   0  0  0  0  0  0  0  0  0  0  0  0
   30.0040   51.7680   -2.7350 C   0  0  0  0  0  0  0  0  0  0  0  0
   29.3520   49.8000   -3.9860 C   0  0  0  0  0  0  0  0  0  0  0  0
   29.1690   48.3060   -4.0980 C   0  0  0  0  0  0  0  0  0  0  0  0
   29.8500   50.3800   -2.8200 C   0  0  0  0  0  0  0  0  0  0  0  0
   30.4810   47.5280   -4.1560 C   0  0  0  0  0  0  0  0  0  0  0  0
   30.6380   46.9050   -5.4710 N   0  0  0  0  0  0  0  0  0  0  0  0
   31.6680   46.1930   -5.6870 C   0  0  0  0  0  0  0  0  0  0  0  0
   31.7970   45.6320   -6.8980 O   0  0  0  0  0  0  0  0  0  0  0  0
   32.7910   45.8570   -4.8100 C   0  0  0  0  0  0  0  0  0  0  0  0
   33.0690   44.5260   -4.4390 C   0  0  0  0  0  0  0  0  0  0  0  0
   33.5790   46.9230   -4.3490 C   0  0  0  0  0  0  0  0  0  0  0  0
   32.2230   43.3870   -4.9340 C   0  0  0  0  0  0  0  0  0  0  0  0
   34.6590   46.6780   -3.5080 C   0  0  0  0  0  0  0  0  0  0  0  0
   34.1620   44.3130   -3.5920 C   0  0  0  0  0  0  0  0  0  0  0  0
   34.5320   43.0670   -3.1610 O   0  0  0  0  0  0  0  0  0  0  0  0
   34.9500   45.3670   -3.1280 C   0  0  0  0  0  0  0  0  0  0  0  0
  1  2  1  0
  2  3  2  0
  2  4  1  0
  4  5  2  0
  3  6  1  0
  4  7  1  0
  5  8  1  0
  6  8  2  0
  5  9  1  0
  7 10  2  0
 10 11  1  0
  9 12  2  0
 10 12  1  0
 11 13  1  0
 13 14  1  0
 14 15  2  3
 15 16  1  0
 15 17  1  0
 17 18  2  0
 17 19  1  0
 18 20  1  0
 19 21  2  0
 18 22  1  0
 22 23  1  0
 21 24  1  0
 22 24  2  0
M  END
