mac-x0357-mac-x0283
     RDKit          3D

 23 25  0  0  0  0  0  0  0  0999 V2000
   32.2230   43.3660   -4.8340 C   0  0  0  0  0  0  0  0  0  0  0  0
   33.1220   44.4910   -4.4000 C   0  0  0  0  0  0  0  0  0  0  0  0
   34.2820   44.2280   -3.6540 C   0  0  0  0  0  0  0  0  0  0  0  0
   32.8430   45.8370   -4.7110 C   0  0  0  0  0  0  0  0  0  0  0  0
   34.5770   42.9350   -3.3280 O   0  0  0  0  0  0  0  0  0  0  0  0
   31.6490   46.2610   -5.4650 C   0  0  0  0  0  0  0  0  0  0  0  0
   33.7070   46.8620   -4.2890 C   0  0  0  0  0  0  0  0  0  0  0  0
   35.1380   45.2470   -3.2330 C   0  0  0  0  0  0  0  0  0  0  0  0
   30.7740   46.9440   -4.8520 N   0  0  0  0  0  0  0  0  0  0  0  0
   31.6300   45.8620   -6.7560 O   0  0  0  0  0  0  0  0  0  0  0  0
   34.8500   46.5700   -3.5540 C   0  0  0  0  0  0  0  0  0  0  0  0
   29.5410   47.4810   -5.3660 C   0  0  0  0  0  0  0  0  0  0  0  0
   29.0480   48.4370   -4.2720 C   0  0  0  0  0  0  0  0  0  0  0  0
   29.0850   49.8840   -4.6900 C   0  0  0  0  0  0  0  0  0  0  0  0
   29.4770   50.9020   -3.7930 C   0  0  0  0  0  0  0  0  0  0  0  0
   28.7140   50.1990   -6.0000 C   0  0  0  0  0  0  0  0  0  0  0  0
   29.4560   52.2050   -4.2920 C   0  0  0  0  0  0  0  0  0  0  0  0
   28.7070   51.5120   -6.4650 C   0  0  0  0  0  0  0  0  0  0  0  0
   29.7820   53.3460   -3.6220 O   0  0  0  0  0  0  0  0  0  0  0  0
   29.0840   52.5340   -5.5820 C   0  0  0  0  0  0  0  0  0  0  0  0
   29.2050   53.9380   -5.6310 C   0  0  0  0  0  0  0  0  0  0  0  0
   29.6220   54.4390   -4.4650 N   0  0  0  0  0  0  0  0  0  0  0  0
   28.9280   54.6720   -6.7300 N   0  0  0  0  0  0  0  0  0  0  0  0
  1  2  1  0
  2  3  2  0
  2  4  1  0
  3  5  1  0
  4  6  1  0
  4  7  2  0
  3  8  1  0
  6  9  2  3
  6 10  1  0
  7 11  1  0
  8 11  2  0
  9 12  1  0
 12 13  1  0
 13 14  1  0
 14 15  2  0
 14 16  1  0
 15 17  1  0
 16 18  2  0
 17 19  1  0
 17 20  2  0
 18 20  1  0
 20 21  1  0
 19 22  1  0
 21 22  2  0
 21 23  1  0
M  END
