mac-x0380-mac-x0263
     RDKit          3D

 18 19  0  0  0  0  0  0  0  0999 V2000
   29.4790   48.1980   -4.6930 O   0  0  0  0  0  0  0  0  0  0  0  0
   29.3540   49.2840   -3.9110 C   0  0  0  0  0  0  0  0  0  0  0  0
   29.5900   49.2290   -2.7190 O   0  0  0  0  0  0  0  0  0  0  0  0
   28.9180   50.4940   -4.6580 C   0  0  0  0  0  0  0  0  0  0  0  0
   29.0110   51.7340   -4.0180 C   0  0  0  0  0  0  0  0  0  0  0  0
   28.4260   50.4330   -5.9670 C   0  0  0  0  0  0  0  0  0  0  0  0
   28.6190   52.9060   -4.6770 C   0  0  0  0  0  0  0  0  0  0  0  0
   28.0330   51.6080   -6.6280 C   0  0  0  0  0  0  0  0  0  0  0  0
   28.1230   52.8620   -5.9960 C   0  0  0  0  0  0  0  0  0  0  0  0
   28.7700   54.4470   -3.7960 S   0  0  0  0  0  0  0  0  0  0  0  0
   27.7170   54.0280   -6.7090 N   0  0  0  0  0  0  0  0  0  0  0  0
   29.0860   55.4880   -5.2330 C   0  0  0  0  0  0  0  0  0  0  0  0
   27.9720   55.3240   -6.2670 C   0  0  0  0  0  0  0  0  0  0  0  0
   27.3800   56.4320   -6.6150 N   0  0  0  0  0  0  0  0  0  0  0  0
   27.7920   57.7070   -5.9990 C   0  0  0  0  0  0  0  0  0  0  0  0
   27.0550   58.9450   -6.4750 C   0  0  0  0  0  0  0  0  0  0  0  0
   27.8650   60.0000   -6.6670 O   0  0  0  0  0  0  0  0  0  0  0  0
   25.8490   59.0340   -6.6690 O   0  0  0  0  0  0  0  0  0  0  0  0
  1  2  1  0
  2  3  2  0
  2  4  1  0
  4  5  2  0
  4  6  1  0
  5  7  1  0
  6  8  2  0
  7  9  2  0
  8  9  1  0
  7 10  1  0
  9 11  1  0
 10 12  1  0
 11 13  1  0
 12 13  1  0
 13 14  2  3
 14 15  1  0
 15 16  1  0
 16 17  1  0
 16 18  2  0
M  END
