mac-x0380-mac-x0132
     RDKit          3D

 15 16  0  0  0  0  0  0  0  0999 V2000
   29.5240   48.0910   -4.4110 O   0  0  0  0  0  0  0  0  0  0  0  0
   29.3710   49.2080   -3.6810 C   0  0  0  0  0  0  0  0  0  0  0  0
   29.5370   49.2020   -2.4780 O   0  0  0  0  0  0  0  0  0  0  0  0
   28.9910   50.3840   -4.5050 C   0  0  0  0  0  0  0  0  0  0  0  0
   29.0300   51.6530   -3.9180 C   0  0  0  0  0  0  0  0  0  0  0  0
   28.6000   50.2580   -5.8410 C   0  0  0  0  0  0  0  0  0  0  0  0
   28.6830   52.7920   -4.6540 C   0  0  0  0  0  0  0  0  0  0  0  0
   28.2530   51.3920   -6.5770 C   0  0  0  0  0  0  0  0  0  0  0  0
   28.2890   52.6740   -5.9990 C   0  0  0  0  0  0  0  0  0  0  0  0
   28.7610   54.3690   -3.8270 S   0  0  0  0  0  0  0  0  0  0  0  0
   27.9310   53.8170   -6.7760 N   0  0  0  0  0  0  0  0  0  0  0  0
   29.1370   55.3850   -5.2620 C   0  0  0  0  0  0  0  0  0  0  0  0
   27.5830   53.6050   -8.1410 N   0  0  0  0  0  0  0  0  0  0  0  0
   28.1820   55.1450   -6.4080 C   0  0  0  0  0  0  0  0  0  0  0  0
   27.6450   56.0950   -6.9950 O   0  0  0  0  0  0  0  0  0  0  0  0
  1  2  1  0
  2  3  2  0
  2  4  1  0
  4  5  2  0
  4  6  1  0
  5  7  1  0
  6  8  2  0
  7  9  2  0
  8  9  1  0
  7 10  1  0
  9 11  1  0
 10 12  1  0
 11 13  1  0
 11 14  1  0
 12 14  1  0
 14 15  2  0
M  END
