mac-x0148-mac-x0301
     RDKit          3D

 21 24  0  0  0  0  0  0  0  0999 V2000
   28.9720   49.1240   -2.5650 O   0  0  0  0  0  0  0  0  0  0  0  0
   29.9330   49.5050   -3.4250 C   0  0  0  0  0  0  0  0  0  0  0  0
   31.0490   49.8080   -3.0360 O   0  0  0  0  0  0  0  0  0  0  0  0
   29.4720   49.5240   -4.8010 C   0  0  0  0  0  0  0  0  0  0  0  0
   29.6030   48.5860   -5.8900 C   0  0  0  0  0  0  0  0  0  0  0  0
   28.7760   50.5650   -5.2860 C   0  0  0  0  0  0  0  0  0  0  0  0
   28.8700   49.3040   -6.9800 C   0  0  0  0  0  0  0  0  0  0  0  0
   30.1380   47.3650   -6.1770 C   0  0  0  0  0  0  0  0  0  0  0  0
   28.3940   50.4600   -6.6120 N   0  0  0  0  0  0  0  0  0  0  0  0
   30.8610   46.5310   -5.3100 N   0  0  0  0  0  0  0  0  0  0  0  0
   29.9430   46.9190   -7.4710 N   0  0  0  0  0  0  0  0  0  0  0  0
   28.7260   48.7890   -8.2360 N   0  0  0  0  0  0  0  0  0  0  0  0
   31.2110   46.9270   -3.9300 C   0  0  1  0  0  0  0  0  0  0  0  0
   31.8560   45.6090   -5.9320 C   0  0  0  0  0  0  0  0  0  0  0  0
   29.2660   47.6350   -8.4110 C   0  0  0  0  0  0  0  0  0  0  0  0
   30.2640   46.5030   -2.8120 C   0  0  0  0  0  0  0  0  0  0  0  0
   32.4450   46.1730   -3.4840 C   0  0  2  0  0  0  0  0  0  0  0  0
   33.2890   46.1550   -5.8100 C   0  0  0  0  0  0  0  0  0  0  0  0
   32.4650   46.5170   -2.0190 C   0  0  0  0  0  0  0  0  0  0  0  0
   31.0860   46.3800   -1.6180 O   0  0  0  0  0  0  0  0  0  0  0  0
   33.6330   46.5240   -4.3590 C   0  0  0  0  0  0  0  0  0  0  0  0
  1  2  1  0
  2  3  2  0
  2  4  1  0
  4  5  1  0
  4  6  2  0
  5  7  1  0
  5  8  2  0
  6  9  1  0
  7  9  2  0
  8 10  1  0
  8 11  1  0
  7 12  1  0
 10 13  1  0
 10 14  1  0
 11 15  1  0
 12 15  2  0
 13 16  1  1
 13 17  1  0
 14 18  1  0
 17 19  1  1
 16 20  1  0
 19 20  1  0
 17 21  1  0
 18 21  1  0
M  END
