mac-x0179-mac-x0333
     RDKit          3D

 27 30  0  0  0  0  0  0  0  0999 V2000
   31.7800   45.6040   -5.6460 O   0  0  0  0  0  0  0  0  0  0  0  0
   32.8750   45.7860   -4.8790 C   0  0  0  0  0  0  0  0  0  0  0  0
   33.9540   45.9770   -5.4270 O   0  0  0  0  0  0  0  0  0  0  0  0
   32.6330   45.7270   -3.3610 C   0  0  2  0  0  0  0  0  0  0  0  0
   31.5440   46.7400   -2.9390 C   0  0  0  0  0  0  0  0  0  0  0  0
   33.8980   45.9040   -2.6330 N   0  0  0  0  0  0  0  0  0  0  0  0
   31.3120   47.8710   -3.9510 C   0  0  0  0  0  0  0  0  0  0  0  0
   34.6020   44.8710   -2.0660 C   0  0  0  0  0  0  0  0  0  0  0  0
   34.5200   47.1050   -2.4270 C   0  0  0  0  0  0  0  0  0  0  0  0
   34.3080   43.6930   -1.9710 O   0  0  0  0  0  0  0  0  0  0  0  0
   34.1410   48.2260   -2.7020 O   0  0  0  0  0  0  0  0  0  0  0  0
   30.0540   48.4930   -3.6620 O   0  0  0  0  0  0  0  0  0  0  0  0
   35.8530   45.4470   -1.5620 C   0  0  0  0  0  0  0  0  0  0  0  0
   35.8000   46.8120   -1.7850 C   0  0  0  0  0  0  0  0  0  0  0  0
   36.9450   44.8490   -0.9620 C   0  0  0  0  0  0  0  0  0  0  0  0
   36.8350   47.6540   -1.4210 C   0  0  0  0  0  0  0  0  0  0  0  0
   29.7510   49.6610   -4.3190 C   0  0  0  0  0  0  0  0  0  0  0  0
   38.0050   45.6810   -0.5840 C   0  0  0  0  0  0  0  0  0  0  0  0
   37.9500   47.0730   -0.8120 C   0  0  0  0  0  0  0  0  0  0  0  0
   29.9920   50.8260   -3.5770 C   0  0  0  0  0  0  0  0  0  0  0  0
   29.2410   49.7600   -5.6290 C   0  0  0  0  0  0  0  0  0  0  0  0
   29.7150   52.0460   -4.1650 C   0  0  0  0  0  0  0  0  0  0  0  0
   28.9690   51.0110   -6.2010 C   0  0  0  0  0  0  0  0  0  0  0  0
   29.2160   52.1340   -5.4420 C   0  0  0  0  0  0  0  0  0  0  0  0
   29.8880   53.2690   -3.5950 O   0  0  0  0  0  0  0  0  0  0  0  0
   29.0160   53.4250   -5.8290 O   0  0  0  0  0  0  0  0  0  0  0  0
   29.6190   54.1270   -4.7220 C   0  0  0  0  0  0  0  0  0  0  0  0
  1  2  1  0
  2  3  2  0
  2  4  1  0
  4  5  1  1
  4  6  1  0
  5  7  1  0
  6  8  1  0
  6  9  1  0
  8 10  2  0
  9 11  2  0
  7 12  1  0
  8 13  1  0
  9 14  1  0
 13 14  2  0
 13 15  1  0
 14 16  1  0
 12 17  1  0
 15 18  2  0
 16 19  2  0
 18 19  1  0
 17 20  2  0
 17 21  1  0
 20 22  1  0
 21 23  2  0
 22 24  2  0
 23 24  1  0
 22 25  1  0
 24 26  1  0
 25 27  1  0
 26 27  1  0
M  END
