mac-x0354-mac-x0509
     RDKit          3D

 25 28  0  0  0  0  0  0  0  0999 V2000
   34.9010   44.1290   -1.7060 C   0  0  0  0  0  0  0  0  0  0  0  0
   34.1700   44.1460   -2.9540 N   0  0  0  0  0  0  0  0  0  0  0  0
   33.3500   43.1200   -3.2420 N   0  0  0  0  0  0  0  0  0  0  0  0
   34.2060   45.1210   -3.9370 C   0  0  0  0  0  0  0  0  0  0  0  0
   32.8520   43.4420   -4.4350 C   0  0  0  0  0  0  0  0  0  0  0  0
   33.3430   44.6740   -4.9280 C   0  0  0  0  0  0  0  0  0  0  0  0
   35.0280   46.3220   -3.8460 C   0  0  0  0  0  0  0  0  0  0  0  0
   32.9850   45.2730   -6.1930 C   0  0  0  0  0  0  0  0  0  0  0  0
   36.3520   46.1730   -3.5150 C   0  0  0  0  0  0  0  0  0  0  0  0
   34.5310   47.6120   -4.0810 C   0  0  0  0  0  0  0  0  0  0  0  0
   31.8570   45.2930   -6.6610 O   0  0  0  0  0  0  0  0  0  0  0  0
   33.9950   45.8480   -6.8870 O   0  0  0  0  0  0  0  0  0  0  0  0
   37.2010   47.2630   -3.4170 C   0  0  0  0  0  0  0  0  0  0  0  0
   35.3830   48.7240   -3.9810 C   0  0  0  0  0  0  0  0  0  0  0  0
   38.5020   46.9700   -3.0740 N   0  0  0  0  0  0  0  0  0  0  0  0
   36.7300   48.5470   -3.6470 C   0  0  0  0  0  0  0  0  0  0  0  0
   38.8480   45.8420   -3.5770 C   0  0  0  0  0  0  0  0  0  0  0  0
   40.1680   45.1710   -3.2490 C   0  0  0  0  0  0  0  0  0  0  0  0
   38.2020   44.9550   -4.4090 N   0  0  0  0  0  0  0  0  0  0  0  0
   39.5190   43.8280   -2.9700 C   0  0  0  0  0  0  0  0  0  0  0  0
   38.3310   43.7660   -3.7210 C   0  0  0  0  0  0  0  0  0  0  0  0
   39.9020   42.7810   -2.1620 C   0  0  0  0  0  0  0  0  0  0  0  0
   37.5090   42.6650   -3.6920 C   0  0  0  0  0  0  0  0  0  0  0  0
   39.0730   41.6570   -2.1220 C   0  0  0  0  0  0  0  0  0  0  0  0
   37.8920   41.5970   -2.8790 C   0  0  0  0  0  0  0  0  0  0  0  0
  1  2  1  0
  2  3  1  0
  2  4  1  0
  3  5  2  0
  4  6  2  0
  5  6  1  0
  4  7  1  0
  6  8  1  0
  7  9  2  0
  7 10  1  0
  8 11  2  0
  8 12  1  0
  9 13  1  0
 10 14  2  0
 13 15  1  0
 13 16  2  0
 14 16  1  0
 15 17  2  3
 17 18  1  0
 17 19  1  0
 18 20  1  0
 19 21  1  0
 20 21  2  0
 20 22  1  0
 21 23  1  0
 22 24  2  0
 23 25  2  0
 24 25  1  0
M  END
