mac-x0357-mac-x0302
     RDKit          3D

 22 23  0  0  0  0  0  0  0  0999 V2000
   32.3140   43.3140   -4.9210 C   0  0  0  0  0  0  0  0  0  0  0  0
   33.1170   44.4920   -4.4430 C   0  0  0  0  0  0  0  0  0  0  0  0
   34.1760   44.3210   -3.5430 C   0  0  0  0  0  0  0  0  0  0  0  0
   32.8300   45.8020   -4.8820 C   0  0  0  0  0  0  0  0  0  0  0  0
   34.4680   43.0580   -3.1060 O   0  0  0  0  0  0  0  0  0  0  0  0
   31.7250   46.0550   -5.8320 C   0  0  0  0  0  0  0  0  0  0  0  0
   33.5880   46.8950   -4.4280 C   0  0  0  0  0  0  0  0  0  0  0  0
   34.9340   45.4020   -3.0860 C   0  0  0  0  0  0  0  0  0  0  0  0
   30.6500   46.6540   -5.5140 N   0  0  0  0  0  0  0  0  0  0  0  0
   31.9670   45.5850   -7.0690 O   0  0  0  0  0  0  0  0  0  0  0  0
   34.6390   46.6920   -3.5300 C   0  0  0  0  0  0  0  0  0  0  0  0
   30.4980   47.1210   -4.1600 C   0  0  0  0  0  0  0  0  0  0  0  0
   29.5760   48.1960   -4.2690 N   0  0  0  0  0  0  0  0  0  0  0  0
   29.7630   49.3720   -3.6000 C   0  0  0  0  0  0  0  0  0  0  0  0
   30.1410   49.4450   -2.4410 O   0  0  0  0  0  0  0  0  0  0  0  0
   29.4630   50.6000   -4.3750 C   0  0  0  0  0  0  0  0  0  0  0  0
   29.6470   51.8430   -3.7600 C   0  0  0  0  0  0  0  0  0  0  0  0
   29.0030   50.5310   -5.6980 C   0  0  0  0  0  0  0  0  0  0  0  0
   29.3670   52.9990   -4.4770 C   0  0  0  0  0  0  0  0  0  0  0  0
   28.7260   51.7010   -6.4060 C   0  0  0  0  0  0  0  0  0  0  0  0
   29.5330   54.2300   -3.9130 O   0  0  0  0  0  0  0  0  0  0  0  0
   28.9100   52.9430   -5.7890 C   0  0  0  0  0  0  0  0  0  0  0  0
  1  2  1  0
  2  3  2  0
  2  4  1  0
  3  5  1  0
  4  6  1  0
  4  7  2  0
  3  8  1  0
  6  9  2  3
  6 10  1  0
  7 11  1  0
  8 11  2  0
  9 12  1  0
 12 13  1  0
 13 14  1  0
 14 15  2  0
 14 16  1  0
 16 17  2  0
 16 18  1  0
 17 19  1  0
 18 20  2  0
 19 21  1  0
 19 22  2  0
 20 22  1  0
M  END
