mac-x0587-mac-x0472
     RDKit          3D

 22 23  0  0  0  0  0  0  0  0999 V2000
   29.6630   46.4890   -3.8960 C   0  0  0  0  0  0  0  0  0  0  0  0
   30.9250   47.2370   -4.2710 C   0  0  2  0  0  0  0  0  0  0  0  0
   32.4190   46.3020   -3.8240 S   0  0  0  0  0  0  0  0  0  0  0  0
   30.8090   48.8270   -3.6930 S   0  0  0  0  0  0  0  0  0  0  0  0
   33.7160   46.4290   -5.1240 C   0  0  0  0  0  0  0  0  0  0  0  0
   29.9060   49.2800   -2.4620 O   0  0  0  0  0  0  0  0  0  0  0  0
   31.7080   48.6040   -2.6420 O   0  0  0  0  0  0  0  0  0  0  0  0
   29.6710   49.4030   -4.6280 N   0  0  0  0  0  0  0  0  0  0  0  0
   32.0180   49.9410   -4.3980 C   0  0  0  0  0  0  0  0  0  0  0  0
   33.4790   45.3120   -6.0780 C   0  0  0  0  0  0  0  0  0  0  0  0
   28.9450   50.6670   -4.5910 C   0  0  0  0  0  0  0  0  0  0  0  0
   29.2530   48.9060   -5.9280 C   0  0  0  0  0  0  0  0  0  0  0  0
   32.9430   49.5680   -5.2960 C   0  0  0  0  0  0  0  0  0  0  0  0
   31.9400   51.2130   -3.9560 C   0  0  0  0  0  0  0  0  0  0  0  0
   34.3820   45.0300   -6.8930 O   0  0  0  0  0  0  0  0  0  0  0  0
   32.3060   44.5840   -6.0900 O   0  0  0  0  0  0  0  0  0  0  0  0
   29.2360   47.6700   -6.2810 O   0  0  0  0  0  0  0  0  0  0  0  0
   28.9530   51.1580   -5.9790 C   0  0  0  0  0  0  0  0  0  0  0  0
   28.8550   49.9730   -6.7530 N   0  0  0  0  0  0  0  0  0  0  0  0
   33.8510   50.4630   -5.8030 C   0  0  0  0  0  0  0  0  0  0  0  0
   32.8410   52.1320   -4.4510 C   0  0  0  0  0  0  0  0  0  0  0  0
   33.7960   51.7670   -5.3710 C   0  0  0  0  0  0  0  0  0  0  0  0
  2  1  1  1
  2  3  1  0
  2  4  1  0
  3  5  1  0
  4  6  2  0
  4  7  1  0
  4  8  1  0
  4  9  1  0
  5 10  1  0
  8 11  1  0
  8 12  1  0
  9 13  2  0
  9 14  1  0
 10 15  2  0
 10 16  1  0
 12 17  2  0
 11 18  1  0
 12 19  1  0
 18 19  1  0
 13 20  1  0
 14 21  2  0
 20 22  2  0
 21 22  1  0
M  END
