mac-x0161-mac-x0546
     RDKit          3D

 33 37  0  0  0  0  0  0  0  0999 V2000
   28.1700   52.5750   -6.4000 N   0  0  0  0  0  0  0  0  0  0  0  0
   27.8160   51.4690   -5.5410 C   0  0  1  0  0  0  0  0  0  0  0  0
   27.7280   50.1070   -6.2730 C   0  0  2  0  0  0  0  0  0  0  0  0
   28.8340   51.4970   -4.5070 N   0  0  0  0  0  0  0  0  0  0  0  0
   28.8470   50.2740   -3.7170 C   0  0  0  0  0  0  0  0  0  0  0  0
   28.9940   49.3370   -5.9430 C   0  0  1  0  0  0  0  0  0  0  0  0
   27.6960   50.0030   -7.7380 N   0  0  0  0  0  0  0  0  0  0  0  0
   29.0860   49.0850   -4.5220 N   0  0  0  0  0  0  0  0  0  0  0  0
   28.7470   48.1300   -6.7220 N   0  0  0  0  0  0  0  0  0  0  0  0
   28.2720   48.6780   -7.9940 C   0  0  0  0  0  0  0  0  0  0  0  0
   30.2410   48.2690   -4.1320 C   0  0  0  0  0  0  0  0  0  0  0  0
   31.7010   48.7940   -4.1170 C   0  0  1  0  0  0  0  0  0  0  0  0
   32.5760   48.5230   -2.9130 C   0  0  0  0  0  0  0  0  0  0  0  0
   32.4900   48.3150   -5.1910 O   0  0  0  0  0  0  0  0  0  0  0  0
   33.0270   47.0560   -4.7060 N   0  0  0  0  0  0  0  0  0  0  0  0
   33.2580   47.2000   -3.2640 C   0  0  1  0  0  0  0  0  0  0  0  0
   34.6560   47.2540   -3.0140 O   0  0  0  0  0  0  0  0  0  0  0  0
   32.1300   45.9700   -5.1670 C   0  0  1  0  0  0  0  0  0  0  0  0
   34.9890   47.8950   -1.7920 C   0  0  0  0  0  0  0  0  0  0  0  0
   32.8490   44.9620   -6.0860 C   0  0  0  0  0  0  0  0  0  0  0  0
   31.2110   45.2910   -4.1630 C   0  0  0  0  0  0  0  0  0  0  0  0
   32.3710   44.0180   -6.6930 O   0  0  0  0  0  0  0  0  0  0  0  0
   34.1750   45.2190   -6.2120 O   0  0  0  0  0  0  0  0  0  0  0  0
   31.0940   45.5180   -2.6770 C   0  0  1  0  0  0  0  0  0  0  0  0
   30.3240   44.3380   -4.5080 C   0  0  0  0  0  0  0  0  0  0  0  0
   30.6570   46.8190   -2.0750 C   0  0  0  0  0  0  0  0  0  0  0  0
   29.9460   44.5370   -2.4610 C   0  0  0  0  0  0  0  0  0  0  0  0
   29.5460   43.8600   -3.4860 N   0  0  0  0  0  0  0  0  0  0  0  0
   29.8250   46.8320   -1.0170 C   0  0  0  0  0  0  0  0  0  0  0  0
   29.3690   44.4290   -1.1100 C   0  0  0  0  0  0  0  0  0  0  0  0
   29.4030   48.0020   -0.4220 O   0  0  0  0  0  0  0  0  0  0  0  0
   29.3300   45.5940   -0.4390 C   0  0  0  0  0  0  0  0  0  0  0  0
   30.4860   48.9250   -0.2880 C   0  0  0  0  0  0  0  0  0  0  0  0
  2  1  1  6
  2  3  1  0
  2  4  1  0
  4  5  1  0
  3  6  1  0
  3  7  1  6
  5  8  1  0
  6  8  1  0
  6  9  1  6
  7 10  1  0
  9 10  1  0
  8 11  1  0
 12 11  1  1
 12 13  1  0
 12 14  1  0
 14 15  1  0
 13 16  1  0
 15 16  1  0
 16 17  1  6
 15 18  1  0
 17 19  1  0
 18 20  1  1
 18 21  1  0
 20 22  2  0
 20 23  1  0
 21 24  1  0
 21 25  2  0
 24 26  1  6
 24 27  1  0
 25 28  1  0
 27 28  2  0
 26 29  2  0
 27 30  1  0
 29 31  1  0
 29 32  1  0
 30 32  2  0
 31 33  1  0
M  END
