mac-x0436-mac-x0193
     RDKit          3D

 26 28  0  0  0  0  0  0  0  0999 V2000
   33.2830   44.9530   -7.2440 O   0  0  0  0  0  0  0  0  0  0  0  0
   32.6410   44.6500   -6.0960 C   0  0  0  0  0  0  0  0  0  0  0  0
   31.4300   44.4690   -6.0940 O   0  0  0  0  0  0  0  0  0  0  0  0
   33.5810   44.5760   -4.8860 C   0  0  1  0  0  0  0  0  0  0  0  0
   33.1620   45.6000   -3.8350 C   0  0  0  0  0  0  0  0  0  0  0  0
   33.5220   43.2090   -4.3360 N   0  0  0  0  0  0  0  0  0  0  0  0
   34.1270   42.9090   -3.1270 C   0  0  0  0  0  0  0  0  0  0  0  0
   34.3850   46.3530   -3.3820 C   0  0  0  0  0  0  0  0  0  0  0  0
   33.5300   42.4560   -2.1610 O   0  0  0  0  0  0  0  0  0  0  0  0
   35.4770   43.1740   -3.1500 N   0  0  0  0  0  0  0  0  0  0  0  0
   34.2900   47.8750   -3.2380 C   0  0  0  0  0  0  0  0  0  0  0  0
   35.4710   45.6850   -3.1380 N   0  0  0  0  0  0  0  0  0  0  0  0
   33.2260   48.4570   -3.3820 O   0  0  0  0  0  0  0  0  0  0  0  0
   35.4720   48.5110   -2.9440 N   0  0  0  0  0  0  0  0  0  0  0  0
   36.6100   46.3920   -2.7280 C   0  0  0  0  0  0  0  0  0  0  0  0
   36.4240   42.4540   -2.2950 C   0  0  0  0  0  0  0  0  0  0  0  0
   36.6280   47.7890   -2.6280 C   0  0  0  0  0  0  0  0  0  0  0  0
   37.7630   45.6720   -2.4110 C   0  0  0  0  0  0  0  0  0  0  0  0
   37.7610   42.2520   -3.0190 C   0  0  0  0  0  0  0  0  0  0  0  0
   36.6020   43.1720   -0.9370 C   0  0  0  0  0  0  0  0  0  0  0  0
   38.9200   46.3350   -2.0000 C   0  0  0  0  0  0  0  0  0  0  0  0
   37.7820   48.4600   -2.2170 C   0  0  0  0  0  0  0  0  0  0  0  0
   38.8590   41.6890   -2.1140 C   0  0  0  0  0  0  0  0  0  0  0  0
   37.7300   42.6230   -0.0600 C   0  0  0  0  0  0  0  0  0  0  0  0
   38.9280   47.7250   -1.9040 C   0  0  0  0  0  0  0  0  0  0  0  0
   39.0430   42.4690   -0.8130 C   0  0  0  0  0  0  0  0  0  0  0  0
  1  2  1  0
  2  3  2  0
  2  4  1  0
  4  5  1  1
  4  6  1  0
  6  7  1  0
  5  8  1  0
  7  9  2  0
  7 10  1  0
  8 11  1  0
  8 12  2  0
 11 13  2  0
 11 14  1  0
 12 15  1  0
 10 16  1  0
 14 17  1  0
 15 17  2  0
 15 18  1  0
 16 19  1  0
 16 20  1  0
 18 21  2  0
 17 22  1  0
 19 23  1  0
 20 24  1  0
 21 25  1  0
 22 25  2  0
 23 26  1  0
 24 26  1  0
M  END
