mac-x0510-mac-x0404
     RDKit          3D

 27 30  0  0  0  0  0  0  0  0999 V2000
   29.5700   53.6150   -6.3020 O   0  0  0  0  0  0  0  0  0  0  0  0
   29.3220   52.4320   -6.0830 C   0  0  0  0  0  0  0  0  0  0  0  0
   29.4610   51.9030   -4.8090 N   0  0  0  0  0  0  0  0  0  0  0  0
   28.8990   51.5760   -7.0680 N   0  0  0  0  0  0  0  0  0  0  0  0
   28.4780   50.3210   -6.7520 C   0  0  0  0  0  0  0  0  0  0  0  0
   29.0040   50.6720   -4.3860 C   0  0  0  0  0  0  0  0  0  0  0  0
   28.9920   50.2380   -3.1750 N   0  0  0  0  0  0  0  0  0  0  0  0
   28.5220   49.8710   -5.4620 C   0  0  0  0  0  0  0  0  0  0  0  0
   27.9840   49.3950   -7.6100 N   0  0  0  0  0  0  0  0  0  0  0  0
   28.4840   48.9130   -2.8090 C   0  0  0  0  0  0  0  0  0  0  0  0
   28.0310   48.6000   -5.5220 N   0  0  0  0  0  0  0  0  0  0  0  0
   27.7210   48.3580   -6.8380 C   0  0  0  0  0  0  0  0  0  0  0  0
   29.4890   47.7850   -2.9450 C   0  0  0  0  0  0  0  0  0  0  0  0
   29.2190   46.4590   -2.5090 C   0  0  0  0  0  0  0  0  0  0  0  0
   30.7320   48.0770   -3.5300 C   0  0  0  0  0  0  0  0  0  0  0  0
   30.2140   45.4540   -2.6760 C   0  0  0  0  0  0  0  0  0  0  0  0
   31.7020   47.0950   -3.6920 C   0  0  0  0  0  0  0  0  0  0  0  0
   27.9920   46.0840   -1.9100 C   0  0  0  0  0  0  0  0  0  0  0  0
   31.4580   45.7890   -3.2740 C   0  0  0  0  0  0  0  0  0  0  0  0
   27.7400   44.7790   -1.4870 C   0  0  0  0  0  0  0  0  0  0  0  0
   29.9300   44.1420   -2.2380 C   0  0  0  0  0  0  0  0  0  0  0  0
   32.3710   44.7650   -3.4050 O   0  0  0  0  0  0  0  0  0  0  0  0
   28.7100   43.8050   -1.6500 C   0  0  0  0  0  0  0  0  0  0  0  0
   32.3520   43.9830   -4.5910 C   0  0  0  0  0  0  0  0  0  0  0  0
   33.4570   44.2680   -5.6040 C   0  0  0  0  0  0  0  0  0  0  0  0
   32.9860   44.3230   -6.8700 O   0  0  0  0  0  0  0  0  0  0  0  0
   34.6460   44.4420   -5.3920 O   0  0  0  0  0  0  0  0  0  0  0  0
  1  2  2  0
  2  3  1  0
  2  4  1  0
  4  5  1  0
  3  6  1  0
  6  7  2  3
  5  8  2  0
  6  8  1  0
  5  9  1  0
  7 10  1  0
  8 11  1  0
  9 12  2  0
 11 12  1  0
 10 13  1  0
 13 14  1  0
 13 15  2  0
 14 16  2  0
 15 17  1  0
 14 18  1  0
 16 19  1  0
 17 19  2  0
 18 20  2  0
 16 21  1  0
 19 22  1  0
 20 23  1  0
 21 23  2  0
 22 24  1  0
 24 25  1  0
 25 26  1  0
 25 27  2  0
M  END
