mac-x0441-mac-x0231
     RDKit          3D

 28 31  0  0  0  0  0  0  0  0999 V2000
   34.5490   44.9100   -6.7710 O   0  0  0  0  0  0  0  0  0  0  0  0
   33.3200   45.1010   -6.2430 C   0  0  0  0  0  0  0  0  0  0  0  0
   32.5020   45.7620   -6.8670 O   0  0  0  0  0  0  0  0  0  0  0  0
   33.1170   44.4370   -4.8990 C   0  0  1  0  0  0  0  0  0  0  0  0
   34.2640   44.5140   -4.0040 N   0  0  0  0  0  0  0  0  0  0  0  0
   31.7200   44.8000   -4.3050 C   0  0  2  0  0  0  0  0  0  0  0  0
   34.6460   43.3550   -3.4050 N   0  0  0  0  0  0  0  0  0  0  0  0
   35.0650   45.5690   -3.6270 C   0  0  0  0  0  0  0  0  0  0  0  0
   31.6120   46.1300   -3.5030 C   0  0  1  0  0  0  0  0  0  0  0  0
   31.1180   43.7320   -3.4730 N   0  0  0  0  0  0  0  0  0  0  0  0
   35.7050   43.6700   -2.6340 C   0  0  0  0  0  0  0  0  0  0  0  0
   35.9990   45.0520   -2.7490 C   0  0  0  0  0  0  0  0  0  0  0  0
   34.9890   47.0000   -4.0480 C   0  0  0  0  0  0  0  0  0  0  0  0
   30.1000   46.4440   -3.2690 C   0  0  1  0  0  0  0  0  0  0  0  0
   29.7570   43.9710   -3.2030 N   0  0  0  0  0  0  0  0  0  0  0  0
   32.3900   46.2140   -2.1970 C   0  0  0  0  0  0  0  0  0  0  0  0
   36.4370   42.6590   -1.7870 C   0  0  0  0  0  0  0  0  0  0  0  0
   37.0670   45.8700   -2.1040 C   0  0  0  0  0  0  0  0  0  0  0  0
   35.9090   47.8710   -3.1660 C   0  0  0  0  0  0  0  0  0  0  0  0
   29.2680   45.2150   -2.8590 C   0  0  0  0  0  0  0  0  0  0  0  0
   29.8980   47.5540   -2.2550 C   0  0  0  0  0  0  0  0  0  0  0  0
   31.9890   47.0010   -1.1850 C   0  0  0  0  0  0  0  0  0  0  0  0
   37.5700   42.2130   -2.3960 F   0  0  0  0  0  0  0  0  0  0  0  0
   36.8070   43.1300   -0.5660 F   0  0  0  0  0  0  0  0  0  0  0  0
   35.6730   41.5540   -1.5540 F   0  0  0  0  0  0  0  0  0  0  0  0
   28.1950   45.2950   -2.2510 O   0  0  0  0  0  0  0  0  0  0  0  0
   37.2580   47.1970   -2.8610 C   0  0  0  0  0  0  0  0  0  0  0  0
   30.7940   47.7990   -1.2910 C   0  0  0  0  0  0  0  0  0  0  0  0
  1  2  1  0
  2  3  2  0
  4  2  1  6
  4  5  1  0
  4  6  1  0
  5  7  1  0
  5  8  1  0
  6  9  1  0
  6 10  1  1
  7 11  2  0
  8 12  2  0
 11 12  1  0
  8 13  1  0
  9 14  1  0
 10 15  1  0
  9 16  1  1
 11 17  1  0
 12 18  1  0
 13 19  1  0
 14 20  1  0
 15 20  1  0
 14 21  1  1
 16 22  2  0
 17 23  1  0
 17 24  1  0
 17 25  1  0
 20 26  2  0
 18 27  1  0
 19 27  1  0
 21 28  2  0
 22 28  1  0
M  END
