mac-x0188-mac-x0148
     RDKit          3D

 24 27  0  0  0  0  0  0  0  0999 V2000
   30.0150   43.7100   -3.7050 C   0  0  0  0  0  0  0  0  0  0  0  0
   29.5750   45.0220   -3.0420 C   0  0  2  0  0  0  0  0  0  0  0  0
   28.8290   45.8990   -4.0530 C   0  0  0  0  0  0  0  0  0  0  0  0
   30.7630   45.7360   -2.4000 C   0  0  0  0  0  0  0  0  0  0  0  0
   29.6940   46.8670   -4.9110 C   0  0  2  0  0  0  0  0  0  0  0  0
   30.7230   47.2760   -2.5250 C   0  0  1  0  0  0  0  0  0  0  0  0
   30.5350   45.9450   -5.8780 C   0  0  0  0  0  0  0  0  0  0  0  0
   31.9840   47.9010   -2.0620 N   0  0  0  0  0  0  0  0  0  0  0  0
   30.6420   47.7910   -4.0050 C   0  0  2  0  0  0  0  0  0  0  0  0
   28.8260   47.6660   -5.8490 N   0  0  0  0  0  0  0  0  0  0  0  0
   30.0830   44.9800   -6.4930 O   0  0  0  0  0  0  0  0  0  0  0  0
   31.8390   46.2380   -6.0330 O   0  0  0  0  0  0  0  0  0  0  0  0
   31.8360   49.1660   -1.3980 N   0  0  0  0  0  0  0  0  0  0  0  0
   30.3890   49.3780   -4.0570 C   0  0  2  0  0  0  0  0  0  0  0  0
   32.8540   47.9110   -3.2440 C   0  0  0  0  0  0  0  0  0  0  0  0
   32.0560   47.6520   -4.4140 O   0  0  0  0  0  0  0  0  0  0  0  0
   29.0330   47.6770   -7.2690 C   0  0  0  0  0  0  0  0  0  0  0  0
   29.4650   49.9150   -2.9600 C   0  0  0  0  0  0  0  0  0  0  0  0
   30.1730   50.0940   -5.4380 C   0  0  2  0  0  0  0  0  0  0  0  0
   29.6350   48.9300   -7.6330 N   0  0  0  0  0  0  0  0  0  0  0  0
   28.3030   50.5210   -3.2460 C   0  0  0  0  0  0  0  0  0  0  0  0
   28.7140   50.5050   -5.6340 C   0  0  0  0  0  0  0  0  0  0  0  0
   30.6730   49.3980   -6.7230 C   0  0  0  0  0  0  0  0  0  0  0  0
   27.8710   50.6960   -4.6090 C   0  0  0  0  0  0  0  0  0  0  0  0
  2  1  1  6
  2  3  1  0
  2  4  1  0
  3  5  1  0
  6  4  1  6
  5  7  1  6
  6  8  1  0
  5  9  1  0
  6  9  1  0
  5 10  1  0
  7 11  2  0
  7 12  1  0
  8 13  1  0
  9 14  1  0
  8 15  1  0
  9 16  1  6
 15 16  1  0
 10 17  1  0
 14 18  1  1
 14 19  1  0
 17 20  1  0
 18 21  2  0
 19 22  1  6
 19 23  1  0
 20 23  1  0
 21 24  1  0
 22 24  2  0
M  END
