mac-x0115-mac-x0411
     RDKit          3D

 29 31  0  0  0  0  0  0  0  0999 V2000
   28.2780   45.7760   -2.4510 C   0  0  0  0  0  0  0  0  0  0  0  0
   28.8050   44.3570   -2.2760 C   0  0  0  0  0  0  0  0  0  0  0  0
   27.8810   43.3580   -2.9680 C   0  0  0  0  0  0  0  0  0  0  0  0
   30.1170   44.3210   -2.8440 O   0  0  0  0  0  0  0  0  0  0  0  0
   30.1580   44.1780   -4.2660 C   0  0  0  0  0  0  0  0  0  0  0  0
   31.0500   45.2810   -4.8830 C   0  0  1  0  0  0  0  0  0  0  0  0
   32.4970   44.8150   -5.1760 C   0  0  0  0  0  0  0  0  0  0  0  0
   30.3730   45.9720   -6.0420 N   0  0  0  0  0  0  0  0  0  0  0  0
   32.8170   44.2750   -6.2410 O   0  0  0  0  0  0  0  0  0  0  0  0
   33.5260   45.0590   -4.0660 C   0  0  0  0  0  0  0  0  0  0  0  0
   30.1390   45.3130   -7.2730 C   0  0  0  0  0  0  0  0  0  0  0  0
   29.9870   47.3070   -5.9460 C   0  0  0  0  0  0  0  0  0  0  0  0
   30.4130   43.6990   -7.6490 S   0  0  0  0  0  0  0  0  0  0  0  0
   34.7790   45.4640   -4.6230 O   0  0  0  0  0  0  0  0  0  0  0  0
   29.6180   46.0990   -8.2930 N   0  0  0  0  0  0  0  0  0  0  0  0
   28.8190   47.7600   -6.7550 C   0  0  2  0  0  0  0  0  0  0  0  0
   30.4880   48.3120   -5.2340 C   0  0  0  0  0  0  0  0  0  0  0  0
   29.1020   47.3830   -8.1930 C   0  0  0  0  0  0  0  0  0  0  0  0
   28.6720   49.2080   -6.4760 N   0  0  0  0  0  0  0  0  0  0  0  0
   29.6220   49.4290   -5.6210 C   0  0  0  0  0  0  0  0  0  0  0  0
   35.5500   46.1740   -3.7310 C   0  0  0  0  0  0  0  0  0  0  0  0
   28.9190   48.0770   -9.1840 O   0  0  0  0  0  0  0  0  0  0  0  0
   35.2070   47.4880   -3.3840 C   0  0  0  0  0  0  0  0  0  0  0  0
   36.6920   45.5890   -3.1590 C   0  0  0  0  0  0  0  0  0  0  0  0
   37.1750   43.9740   -3.5410 Cl  0  0  0  0  0  0  0  0  0  0  0  0
   33.8200   48.2780   -4.0420 Cl  0  0  0  0  0  0  0  0  0  0  0  0
   35.9940   48.2050   -2.4800 C   0  0  0  0  0  0  0  0  0  0  0  0
   37.4750   46.3130   -2.2550 C   0  0  0  0  0  0  0  0  0  0  0  0
   37.1260   47.6190   -1.9160 C   0  0  0  0  0  0  0  0  0  0  0  0
  1  2  1  0
  2  3  1  0
  2  4  1  0
  4  5  1  0
  6  5  1  6
  6  7  1  0
  6  8  1  0
  7  9  2  0
  7 10  1  0
  8 11  1  0
  8 12  1  0
 11 13  2  0
 10 14  1  0
 11 15  1  0
 12 16  1  0
 12 17  2  0
 15 18  1  0
 16 18  1  0
 16 19  1  6
 17 20  1  0
 19 20  2  0
 14 21  1  0
 18 22  2  0
 21 23  2  0
 21 24  1  0
 24 25  1  0
 23 26  1  0
 23 27  1  0
 24 28  2  0
 27 29  2  0
 28 29  1  0
M  END
