mac-x0510-mac-x0433
     RDKit          3D

 20 22  0  0  0  0  0  0  0  0999 V2000
   31.9950   51.2990   -8.5640 O   0  0  0  0  0  0  0  0  0  0  0  0
   31.3160   50.4910   -7.9300 C   0  0  0  0  0  0  0  0  0  0  0  0
   31.7960   49.2420   -7.6010 N   0  0  0  0  0  0  0  0  0  0  0  0
   30.0350   50.8050   -7.5220 N   0  0  0  0  0  0  0  0  0  0  0  0
   29.4130   49.9620   -6.6390 C   0  0  0  0  0  0  0  0  0  0  0  0
   31.1240   48.2460   -6.9050 C   0  0  0  0  0  0  0  0  0  0  0  0
   31.5600   47.1000   -6.8320 O   0  0  0  0  0  0  0  0  0  0  0  0
   29.8930   48.7170   -6.3040 C   0  0  0  0  0  0  0  0  0  0  0  0
   28.2600   50.1240   -5.9270 N   0  0  0  0  0  0  0  0  0  0  0  0
   27.3560   51.2610   -5.9110 C   0  0  0  0  0  0  0  0  0  0  0  0
   29.0590   48.1080   -5.4010 N   0  0  0  0  0  0  0  0  0  0  0  0
   28.0890   48.9740   -5.1940 C   0  0  0  0  0  0  0  0  0  0  0  0
   27.6710   52.2320   -4.8000 C   0  0  0  0  0  0  0  0  0  0  0  0
   27.4210   51.8200   -3.5340 N   0  0  0  0  0  0  0  0  0  0  0  0
   28.1890   53.4850   -5.0700 C   0  0  0  0  0  0  0  0  0  0  0  0
   27.6950   52.6740   -2.5460 C   0  0  0  0  0  0  0  0  0  0  0  0
   28.4400   54.2980   -3.9810 C   0  0  0  0  0  0  0  0  0  0  0  0
   28.9980   55.6730   -4.1720 C   0  0  0  0  0  0  0  0  0  0  0  0
   27.4430   52.2640   -1.2540 N   0  0  0  0  0  0  0  0  0  0  0  0
   28.1960   53.9000   -2.7140 N   0  0  0  0  0  0  0  0  0  0  0  0
  1  2  2  0
  2  3  1  0
  2  4  1  0
  4  5  1  0
  3  6  1  0
  6  7  2  0
  5  8  2  0
  6  8  1  0
  5  9  1  0
  9 10  1  0
  8 11  1  0
  9 12  1  0
 11 12  2  0
 10 13  1  0
 13 14  2  0
 13 15  1  0
 14 16  1  0
 15 17  2  0
 17 18  1  0
 16 19  1  0
 16 20  2  0
 17 20  1  0
M  END
