mac-x0131-mac-x0394
     RDKit          3D

 29 32  0  0  0  0  0  0  0  0999 V2000
   30.7380   48.8310   -2.1600 C   0  0  0  0  0  0  0  0  0  0  0  0
   30.1530   48.9310   -3.5280 C   0  0  0  0  0  0  0  0  0  0  0  0
   29.5690   50.0190   -4.1630 C   0  0  0  0  0  0  0  0  0  0  0  0
   30.1160   47.8620   -4.4030 N   0  0  0  0  0  0  0  0  0  0  0  0
   29.3990   51.3820   -3.5810 C   0  0  0  0  0  0  0  0  0  0  0  0
   30.6090   46.5120   -4.1470 C   0  0  0  0  0  0  0  0  0  0  0  0
   29.1610   49.5900   -5.4720 C   0  0  0  0  0  0  0  0  0  0  0  0
   29.5270   48.2530   -5.5830 C   0  0  0  0  0  0  0  0  0  0  0  0
   28.5170   50.1730   -6.5840 C   0  0  0  0  0  0  0  0  0  0  0  0
   29.3420   47.4570   -6.6520 N   0  0  0  0  0  0  0  0  0  0  0  0
   32.0200   46.3030   -4.5400 C   0  0  0  0  0  0  0  0  0  0  0  0
   28.0660   51.5460   -6.5470 N   0  0  0  0  0  0  0  0  0  0  0  0
   28.3220   49.3860   -7.6930 N   0  0  0  0  0  0  0  0  0  0  0  0
   28.7410   48.1010   -7.6610 C   0  0  0  0  0  0  0  0  0  0  0  0
   32.6970   45.2980   -5.2110 C   0  0  0  0  0  0  0  0  0  0  0  0
   32.8940   47.2910   -4.1850 O   0  0  0  0  0  0  0  0  0  0  0  0
   28.1910   52.4110   -7.6340 C   0  0  0  0  0  0  0  0  0  0  0  0
   34.1190   46.9150   -4.6280 C   0  0  0  0  0  0  0  0  0  0  0  0
   34.0490   45.6950   -5.2660 C   0  0  0  0  0  0  0  0  0  0  0  0
   27.0640   51.8390   -5.5210 C   0  0  0  0  0  0  0  0  0  0  0  0
   29.2960   53.1950   -7.6310 O   0  0  0  0  0  0  0  0  0  0  0  0
   27.4140   52.5560   -8.5700 O   0  0  0  0  0  0  0  0  0  0  0  0
   27.0900   53.0230   -4.7540 C   0  0  0  0  0  0  0  0  0  0  0  0
   26.0080   50.9400   -5.2500 C   0  0  0  0  0  0  0  0  0  0  0  0
   26.1120   53.2840   -3.7750 C   0  0  0  0  0  0  0  0  0  0  0  0
   25.0410   51.2120   -4.2720 C   0  0  0  0  0  0  0  0  0  0  0  0
   23.7720   50.0850   -3.9810 Cl  0  0  0  0  0  0  0  0  0  0  0  0
   26.1710   54.7400   -2.8580 Cl  0  0  0  0  0  0  0  0  0  0  0  0
   25.0880   52.3810   -3.5330 C   0  0  0  0  0  0  0  0  0  0  0  0
  1  2  1  0
  2  3  2  0
  2  4  1  0
  3  5  1  0
  4  6  1  0
  3  7  1  0
  4  8  1  0
  7  8  2  0
  7  9  1  0
  8 10  1  0
  6 11  1  0
  9 12  1  0
  9 13  2  0
 10 14  2  0
 13 14  1  0
 11 15  2  0
 11 16  1  0
 12 17  1  0
 16 18  1  0
 15 19  1  0
 18 19  2  0
 12 20  1  0
 17 21  1  0
 17 22  2  0
 20 23  2  0
 20 24  1  0
 23 25  1  0
 24 26  2  0
 26 27  1  0
 25 28  1  0
 25 29  2  0
 26 29  1  0
M  END
