mac-x0453-mac-x0224
     RDKit          3D

 13 13  0  0  0  0  0  0  0  0999 V2000
   29.5670   54.5130   -6.4810 N   0  0  0  0  0  0  0  0  0  0  0  0
   29.6260   53.3480   -5.5730 C   0  0  0  0  0  0  0  0  0  0  0  0
   29.4020   51.9820   -6.2710 C   0  0  2  0  0  0  0  0  0  0  0  0
   27.6740   51.8170   -6.8380 S   0  0  0  0  0  0  0  0  0  0  0  0
   29.7290   50.6900   -5.5630 C   0  0  0  0  0  0  0  0  0  0  0  0
   29.8270   49.4540   -6.1680 C   0  0  0  0  0  0  0  0  0  0  0  0
   29.9790   50.5520   -4.2020 N   0  0  0  0  0  0  0  0  0  0  0  0
   30.1430   48.5140   -5.2050 N   0  0  0  0  0  0  0  0  0  0  0  0
   30.2210   49.2470   -4.0360 C   0  0  0  0  0  0  0  0  0  0  0  0
   30.5100   48.7070   -2.8580 O   0  0  0  0  0  0  0  0  0  0  0  0
   30.3420   47.1020   -5.3810 C   0  0  0  0  0  0  0  0  0  0  0  0
   30.1660   46.5440   -6.4550 O   0  0  0  0  0  0  0  0  0  0  0  0
   30.7470   46.4300   -4.2690 O   0  0  0  0  0  0  0  0  0  0  0  0
  1  2  1  0
  3  2  1  1
  3  4  1  0
  3  5  1  0
  5  6  2  0
  5  7  1  0
  6  8  1  0
  7  9  2  0
  8  9  1  0
  9 10  1  0
  8 11  1  0
 11 12  2  0
 11 13  1  0
M  END
