mac-x0417-mac-x0306
     RDKit          3D

 27 30  0  0  0  0  0  0  0  0999 V2000
   31.8540   45.2380   -6.1890 O   0  0  0  0  0  0  0  0  0  0  0  0
   33.0990   45.4150   -5.7020 C   0  0  0  0  0  0  0  0  0  0  0  0
   34.0630   45.1490   -6.4010 O   0  0  0  0  0  0  0  0  0  0  0  0
   33.1250   45.9620   -4.2900 C   0  0  1  0  0  0  0  0  0  0  0  0
   31.7120   46.0840   -3.6600 C   0  0  0  0  0  0  0  0  0  0  0  0
   34.2750   45.3990   -3.4900 C   0  0  0  0  0  0  0  0  0  0  0  0
   31.1920   47.5230   -3.3970 C   0  0  0  0  0  0  0  0  0  0  0  0
   34.3760   44.1170   -3.0800 N   0  0  0  0  0  0  0  0  0  0  0  0
   35.4020   46.1450   -3.0750 C   0  0  0  0  0  0  0  0  0  0  0  0
   29.8200   47.8960   -3.9890 C   0  0  0  0  0  0  0  0  0  0  0  0
   35.5830   44.0290   -2.3950 O   0  0  0  0  0  0  0  0  0  0  0  0
   36.1940   45.2470   -2.3960 C   0  0  0  0  0  0  0  0  0  0  0  0
   35.8330   47.4760   -3.2030 C   0  0  0  0  0  0  0  0  0  0  0  0
   37.4200   45.5700   -1.8160 C   0  0  0  0  0  0  0  0  0  0  0  0
   37.0560   47.8380   -2.6340 C   0  0  0  0  0  0  0  0  0  0  0  0
   29.7270   49.3570   -4.2710 N   0  0  0  0  0  0  0  0  0  0  0  0
   37.8360   46.9030   -1.9540 C   0  0  0  0  0  0  0  0  0  0  0  0
   29.7880   50.2960   -3.2390 C   0  0  0  0  0  0  0  0  0  0  0  0
   29.1370   49.8190   -5.4500 C   0  0  0  0  0  0  0  0  0  0  0  0
   29.8730   51.6170   -3.4840 C   0  0  0  0  0  0  0  0  0  0  0  0
   29.1860   51.1130   -5.8150 C   0  0  0  0  0  0  0  0  0  0  0  0
   29.9120   52.1050   -4.9230 C   0  0  0  0  0  0  0  0  0  0  0  0
   29.5240   53.5570   -5.1110 C   0  0  0  0  0  0  0  0  0  0  0  0
   28.9230   54.0150   -6.2650 N   0  0  0  0  0  0  0  0  0  0  0  0
   29.6990   54.5510   -4.2600 N   0  0  0  0  0  0  0  0  0  0  0  0
   29.2050   55.6670   -4.8790 C   0  0  0  0  0  0  0  0  0  0  0  0
   28.7170   55.3590   -6.1250 C   0  0  0  0  0  0  0  0  0  0  0  0
  1  2  1  0
  2  3  2  0
  2  4  1  0
  4  5  1  1
  4  6  1  0
  5  7  1  0
  6  8  2  0
  6  9  1  0
  7 10  1  0
  8 11  1  0
  9 12  2  0
 11 12  1  0
  9 13  1  0
 12 14  1  0
 13 15  2  0
 10 16  1  0
 14 17  2  0
 15 17  1  0
 16 18  1  0
 16 19  1  0
 18 20  2  0
 19 21  2  0
 20 22  1  0
 21 22  1  0
 22 23  1  0
 23 24  1  0
 23 25  2  0
 25 26  1  0
 24 27  1  0
 26 27  2  0
M  END
