mac-x0387-mac-x0213
     RDKit          3D

 24 27  0  0  0  0  0  0  0  0999 V2000
   27.7290   51.1730   -7.5220 N   0  0  0  0  0  0  0  0  0  0  0  0
   28.4520   49.9760   -7.4810 C   0  0  0  0  0  0  0  0  0  0  0  0
   28.4940   49.3100   -8.6460 N   0  0  0  0  0  0  0  0  0  0  0  0
   29.0760   49.5350   -6.2960 C   0  0  0  0  0  0  0  0  0  0  0  0
   29.7910   48.3180   -6.3420 C   0  0  0  0  0  0  0  0  0  0  0  0
   29.1830   48.1520   -8.6660 C   0  0  0  0  0  0  0  0  0  0  0  0
   29.0110   50.2610   -5.0840 C   0  0  0  0  0  0  0  0  0  0  0  0
   29.8480   47.6040   -7.5710 C   0  0  0  0  0  0  0  0  0  0  0  0
   30.4130   47.8870   -5.1440 C   0  0  0  0  0  0  0  0  0  0  0  0
   29.6360   49.8070   -3.9260 C   0  0  0  0  0  0  0  0  0  0  0  0
   30.5870   46.2990   -7.7460 C   0  0  0  0  0  0  0  0  0  0  0  0
   30.3360   48.6220   -3.9580 C   0  0  0  0  0  0  0  0  0  0  0  0
   30.6590   45.6370   -6.4570 N   0  0  0  0  0  0  0  0  0  0  0  0
   31.6940   45.8440   -5.7250 C   0  0  0  0  0  0  0  0  0  0  0  0
   32.7330   46.6150   -6.1050 O   0  0  0  0  0  0  0  0  0  0  0  0
   31.7930   45.2350   -4.3560 C   0  0  0  0  0  0  0  0  0  0  0  0
   31.8720   46.3130   -3.2480 C   0  0  0  0  0  0  0  0  0  0  0  0
   30.5650   44.3460   -4.0720 C   0  0  0  0  0  0  0  0  0  0  0  0
   30.5170   46.2370   -2.6000 C   0  0  0  0  0  0  0  0  0  0  0  0
   29.7940   45.1390   -3.0620 C   0  0  0  0  0  0  0  0  0  0  0  0
   29.9780   47.1000   -1.6530 C   0  0  0  0  0  0  0  0  0  0  0  0
   28.5150   44.8760   -2.5900 C   0  0  0  0  0  0  0  0  0  0  0  0
   28.6900   46.8400   -1.1740 C   0  0  0  0  0  0  0  0  0  0  0  0
   27.9660   45.7360   -1.6400 C   0  0  0  0  0  0  0  0  0  0  0  0
  1  2  1  0
  2  3  2  0
  2  4  1  0
  4  5  2  0
  3  6  1  0
  4  7  1  0
  5  8  1  0
  6  8  2  0
  5  9  1  0
  7 10  2  0
  8 11  1  0
  9 12  2  0
 10 12  1  0
 11 13  1  0
 13 14  2  3
 14 15  1  0
 14 16  1  0
 16 17  1  0
 16 18  1  0
 17 19  1  0
 18 20  1  0
 19 20  2  0
 19 21  1  0
 20 22  1  0
 21 23  2  0
 22 24  2  0
 23 24  1  0
M  END
