mac-x0337-mac-x0396
     RDKit          3D

 16 17  0  0  0  0  0  0  0  0999 V2000
   35.8210   51.8780   -5.5390 C   0  0  0  0  0  0  0  0  0  0  0  0
   34.3720   51.5100   -5.4500 C   0  0  0  0  0  0  0  0  0  0  0  0
   33.3940   52.5000   -5.5830 C   0  0  0  0  0  0  0  0  0  0  0  0
   33.9790   50.1770   -5.2330 C   0  0  0  0  0  0  0  0  0  0  0  0
   32.6270   49.8330   -5.1470 C   0  0  0  0  0  0  0  0  0  0  0  0
   32.0520   52.1690   -5.4990 C   0  0  0  0  0  0  0  0  0  0  0  0
   31.6740   50.8410   -5.2810 C   0  0  0  0  0  0  0  0  0  0  0  0
   29.9350   50.5380   -5.1800 S   0  0  0  0  0  0  0  0  0  0  0  0
   29.6850   49.6990   -4.0200 O   0  0  0  0  0  0  0  0  0  0  0  0
   29.4200   50.1930   -6.4940 O   0  0  0  0  0  0  0  0  0  0  0  0
   29.4760   52.1870   -4.8110 C   0  0  0  0  0  0  0  0  0  0  0  0
   29.6220   52.6140   -3.5080 C   0  0  0  0  0  0  0  0  0  0  0  0
   28.9960   53.0660   -5.7760 C   0  0  0  0  0  0  0  0  0  0  0  0
   29.3220   53.8680   -3.1080 N   0  0  0  0  0  0  0  0  0  0  0  0
   28.6810   54.3630   -5.3880 C   0  0  0  0  0  0  0  0  0  0  0  0
   28.8610   54.7140   -4.0560 C   0  0  0  0  0  0  0  0  0  0  0  0
  1  2  1  0
  2  3  2  0
  2  4  1  0
  4  5  2  0
  3  6  1  0
  5  7  1  0
  6  7  2  0
  8  7  1  0
  8  9  2  0
  8 10  2  0
  8 11  1  0
 11 12  2  0
 11 13  1  0
 12 14  1  0
 13 15  2  0
 14 16  2  0
 15 16  1  0
M  END
