mac-x0228-mac-x0546
     RDKit          3D

 27 30  0  0  0  0  0  0  0  0999 V2000
   29.1010   47.9330   -4.2340 O   0  0  0  0  0  0  0  0  0  0  0  0
   30.1320   48.6060   -3.6810 C   0  0  0  0  0  0  0  0  0  0  0  0
   30.9790   48.0520   -2.8730 N   0  0  0  0  0  0  0  0  0  0  0  0
   30.1040   50.0170   -3.9910 C   0  0  0  0  0  0  0  0  0  0  0  0
   29.8560   50.5680   -5.2500 C   0  0  0  0  0  0  0  0  0  0  0  0
   30.3120   50.8130   -2.8620 C   0  0  0  0  0  0  0  0  0  0  0  0
   30.3430   46.8980   -2.6530 C   0  0  0  0  0  0  0  0  0  0  0  0
   29.8140   51.9550   -5.3100 C   0  0  0  0  0  0  0  0  0  0  0  0
   30.2700   52.1800   -2.9440 C   0  0  0  0  0  0  0  0  0  0  0  0
   29.4950   46.9540   -1.5940 C   0  0  0  0  0  0  0  0  0  0  0  0
   30.4090   45.6870   -3.5210 C   0  0  2  0  0  0  0  0  0  0  0  0
   29.3250   48.0180   -0.7200 O   0  0  0  0  0  0  0  0  0  0  0  0
   30.0160   52.7290   -4.1680 C   0  0  0  0  0  0  0  0  0  0  0  0
   29.5660   52.8520   -6.4570 C   0  0  0  0  0  0  0  0  0  0  0  0
   29.8080   44.4920   -2.7950 C   0  0  0  0  0  0  0  0  0  0  0  0
   28.5910   45.8570   -1.2980 C   0  0  0  0  0  0  0  0  0  0  0  0
   31.6270   44.9690   -4.0120 C   0  0  0  0  0  0  0  0  0  0  0  0
   30.4640   48.7880   -0.3150 C   0  0  0  0  0  0  0  0  0  0  0  0
   32.8080   45.5960   -4.6800 C   0  0  0  0  0  0  0  0  0  0  0  0
   29.9380   54.0720   -4.3660 O   0  0  0  0  0  0  0  0  0  0  0  0
   29.6910   54.2210   -5.7800 C   0  0  0  0  0  0  0  0  0  0  0  0
   28.6760   44.6540   -1.8740 C   0  0  0  0  0  0  0  0  0  0  0  0
   30.3660   43.3500   -3.0260 N   0  0  0  0  0  0  0  0  0  0  0  0
   31.4830   43.6660   -3.7520 C   0  0  0  0  0  0  0  0  0  0  0  0
   32.6390   45.9920   -6.1240 C   0  0  0  0  0  0  0  0  0  0  0  0
   31.6760   45.8500   -6.8510 O   0  0  0  0  0  0  0  0  0  0  0  0
   33.7630   46.5790   -6.5940 O   0  0  0  0  0  0  0  0  0  0  0  0
  1  2  1  0
  2  3  2  3
  2  4  1  0
  4  5  2  0
  4  6  1  0
  3  7  1  0
  5  8  1  0
  6  9  2  0
  7 10  2  0
 11  7  1  1
 10 12  1  0
  8 13  2  0
  9 13  1  0
  8 14  1  0
 11 15  1  0
 10 16  1  0
 11 17  1  0
 12 18  1  0
 17 19  1  0
 13 20  1  0
 14 21  1  0
 20 21  1  0
 15 22  1  0
 16 22  2  0
 15 23  2  0
 17 24  2  0
 23 24  1  0
 19 25  1  0
 25 26  2  0
 25 27  1  0
M  END
