mac-x0333-mac-x0142
     RDKit          3D

 23 27  0  0  0  0  0  0  0  0999 V2000
   28.9770   48.6220   -3.2800 O   0  0  0  0  0  0  0  0  0  0  0  0
   28.9400   49.8020   -4.0790 C   0  0  2  0  0  0  0  0  0  0  0  0
   29.2070   49.4850   -5.6100 C   0  0  2  0  0  0  0  0  0  0  0  0
   29.8610   50.8300   -3.3600 C   0  0  0  0  0  0  0  0  0  0  0  0
   30.0760   52.0850   -4.1860 C   0  0  1  0  0  0  0  0  0  0  0  0
   29.8480   50.7880   -6.2410 C   0  0  0  0  0  0  0  0  0  0  0  0
   27.8690   49.2620   -6.3560 C   0  0  0  0  0  0  0  0  0  0  0  0
   30.0440   48.1630   -5.8110 C   0  0  1  0  0  0  0  0  0  0  0  0
   29.3330   51.9950   -5.4800 C   0  0  2  0  0  0  0  0  0  0  0  0
   29.5900   53.3180   -3.6730 O   0  0  0  0  0  0  0  0  0  0  0  0
   30.3630   47.3870   -4.5710 N   0  0  0  0  0  0  0  0  0  0  0  0
   29.4630   47.2600   -6.7980 N   0  0  0  0  0  0  0  0  0  0  0  0
   28.0060   48.8690   -7.7600 N   0  0  0  0  0  0  0  0  0  0  0  0
   29.5640   53.2850   -6.0440 O   0  0  0  0  0  0  0  0  0  0  0  0
   29.5690   54.1380   -4.8680 C   0  0  0  0  0  0  0  0  0  0  0  0
   31.3640   47.9980   -3.6630 C   0  0  0  0  0  0  0  0  0  0  0  0
   30.2840   45.8960   -4.5950 C   0  0  0  0  0  0  0  0  0  0  0  0
   28.9560   47.8190   -8.0270 C   0  0  0  0  0  0  0  0  0  0  0  0
   31.6630   45.2640   -4.5440 C   0  0  0  0  0  0  0  0  0  0  0  0
   32.6860   47.2580   -3.5060 C   0  0  0  0  0  0  0  0  0  0  0  0
   31.8380   43.8110   -4.9510 C   0  0  0  0  0  0  0  0  0  0  0  0
   32.3710   44.9040   -5.8510 C   0  0  0  0  0  0  0  0  0  0  0  0
   32.4780   45.7560   -3.3830 C   0  0  0  0  0  0  0  0  0  0  0  0
  2  1  1  1
  2  3  1  0
  2  4  1  0
  5  4  1  1
  3  6  1  6
  3  7  1  0
  3  8  1  0
  5  9  1  0
  9  6  1  6
  5 10  1  0
  8 11  1  1
  8 12  1  0
  7 13  1  0
  9 14  1  0
 10 15  1  0
 14 15  1  0
 11 16  1  0
 11 17  1  0
 12 18  1  0
 13 18  1  0
 19 17  1  0
 16 20  1  0
 19 21  1  0
 19 22  1  0
 21 22  1  0
 19 23  1  0
 20 23  1  0
M  END
