mac-x0417-mac-x0338
     RDKit          3D

 25 27  0  0  0  0  0  0  0  0999 V2000
   31.9400   45.1730   -6.3540 O   0  0  0  0  0  0  0  0  0  0  0  0
   33.1350   45.4040   -5.7560 C   0  0  0  0  0  0  0  0  0  0  0  0
   34.1850   45.2080   -6.3500 O   0  0  0  0  0  0  0  0  0  0  0  0
   33.0470   45.9280   -4.3250 C   0  0  1  0  0  0  0  0  0  0  0  0
   31.6420   45.7850   -3.7100 C   0  0  0  0  0  0  0  0  0  0  0  0
   34.2340   45.4260   -3.5250 C   0  0  0  0  0  0  0  0  0  0  0  0
   30.9320   47.1430   -3.4480 C   0  0  0  0  0  0  0  0  0  0  0  0
   34.3260   44.1350   -3.1280 N   0  0  0  0  0  0  0  0  0  0  0  0
   35.3640   46.1670   -3.1010 C   0  0  0  0  0  0  0  0  0  0  0  0
   30.3750   47.8560   -4.7070 C   0  0  0  0  0  0  0  0  0  0  0  0
   35.5330   44.0400   -2.4390 O   0  0  0  0  0  0  0  0  0  0  0  0
   36.1510   45.2520   -2.4260 C   0  0  0  0  0  0  0  0  0  0  0  0
   35.8140   47.4900   -3.2070 C   0  0  0  0  0  0  0  0  0  0  0  0
   37.3790   45.5610   -1.8390 C   0  0  0  0  0  0  0  0  0  0  0  0
   37.0380   47.8380   -2.6310 C   0  0  0  0  0  0  0  0  0  0  0  0
   30.0980   49.3400   -4.5050 C   0  0  0  0  0  0  0  0  0  0  0  0
   37.8090   46.8870   -1.9590 C   0  0  0  0  0  0  0  0  0  0  0  0
   29.6330   50.0890   -5.5550 N   0  0  0  0  0  0  0  0  0  0  0  0
   30.3210   49.9210   -3.2620 C   0  0  0  0  0  0  0  0  0  0  0  0
   29.4090   51.4170   -5.3090 C   0  0  0  0  0  0  0  0  0  0  0  0
   30.1010   51.2340   -3.0120 N   0  0  0  0  0  0  0  0  0  0  0  0
   28.9020   52.2740   -6.4300 C   0  0  0  0  0  0  0  0  0  0  0  0
   29.6450   51.9620   -4.0580 C   0  0  0  0  0  0  0  0  0  0  0  0
   28.5430   51.6790   -7.6180 N   0  0  0  0  0  0  0  0  0  0  0  0
   28.8000   53.4920   -6.3220 O   0  0  0  0  0  0  0  0  0  0  0  0
  1  2  1  0
  2  3  2  0
  2  4  1  0
  4  5  1  1
  4  6  1  0
  5  7  1  0
  6  8  2  0
  6  9  1  0
  7 10  1  0
  8 11  1  0
  9 12  2  0
 11 12  1  0
  9 13  1  0
 12 14  1  0
 13 15  2  0
 10 16  1  0
 14 17  2  0
 15 17  1  0
 16 18  2  0
 16 19  1  0
 18 20  1  0
 19 21  2  0
 20 22  1  0
 20 23  2  0
 21 23  1  0
 22 24  1  0
 22 25  2  0
M  END
