mac-x0231-mac-x0319
     RDKit          3D

 15 16  0  0  0  0  0  0  0  0999 V2000
   34.2190   45.5140   -6.6280 O   0  0  0  0  0  0  0  0  0  0  0  0
   32.9550   45.1150   -6.3790 C   0  0  0  0  0  0  0  0  0  0  0  0
   32.0430   45.4800   -7.1010 O   0  0  0  0  0  0  0  0  0  0  0  0
   32.8630   44.2310   -5.1720 C   0  0  0  0  0  0  0  0  0  0  0  0
   31.6150   44.4730   -4.3510 C   0  0  0  0  0  0  0  0  0  0  0  0
   31.5360   45.6600   -3.4610 C   0  0  0  0  0  0  0  0  0  0  0  0
   30.6440   43.6100   -4.4710 N   0  0  0  0  0  0  0  0  0  0  0  0
   30.3480   45.8540   -2.7600 C   0  0  0  0  0  0  0  0  0  0  0  0
   29.5100   43.8110   -3.7460 N   0  0  0  0  0  0  0  0  0  0  0  0
   32.5890   46.5700   -3.3000 C   0  0  0  0  0  0  0  0  0  0  0  0
   29.2480   44.8900   -2.9350 C   0  0  0  0  0  0  0  0  0  0  0  0
   30.2020   46.9560   -1.9030 C   0  0  0  0  0  0  0  0  0  0  0  0
   32.4440   47.6670   -2.4460 C   0  0  0  0  0  0  0  0  0  0  0  0
   28.1630   45.0450   -2.3810 O   0  0  0  0  0  0  0  0  0  0  0  0
   31.2530   47.8610   -1.7480 C   0  0  0  0  0  0  0  0  0  0  0  0
  1  2  1  0
  2  3  2  0
  2  4  1  0
  4  5  1  0
  5  6  1  0
  5  7  2  0
  6  8  2  0
  7  9  1  0
  6 10  1  0
  8 11  1  0
  9 11  1  0
  8 12  1  0
 10 13  2  0
 11 14  2  0
 12 15  2  0
 13 15  1  0
M  END
