mac-x0392-mac-x0226
     RDKit          3D

 25 27  0  0  0  0  0  0  0  0999 V2000
   28.9830   47.4800   -7.8410 N   0  0  0  0  0  0  0  0  0  0  0  0
   29.0520   48.6800   -7.1150 C   0  0  0  0  0  0  0  0  0  0  0  0
   28.8350   49.9040   -7.7520 C   0  0  0  0  0  0  0  0  0  0  0  0
   29.3330   48.7440   -5.7380 C   0  0  0  0  0  0  0  0  0  0  0  0
   29.5800   47.4930   -4.9660 C   0  0  0  0  0  0  0  0  0  0  0  0
   29.3820   49.9850   -5.0870 C   0  0  0  0  0  0  0  0  0  0  0  0
   28.8770   51.1150   -7.1490 N   0  0  0  0  0  0  0  0  0  0  0  0
   29.4010   47.3950   -3.7610 O   0  0  0  0  0  0  0  0  0  0  0  0
   30.0230   46.5080   -5.7850 O   0  0  0  0  0  0  0  0  0  0  0  0
   29.1500   51.1280   -5.8310 C   0  0  0  0  0  0  0  0  0  0  0  0
   31.2760   45.9340   -5.3910 C   0  0  0  0  0  0  0  0  0  0  0  0
   32.0640   45.6170   -6.5380 O   0  0  0  0  0  0  0  0  0  0  0  0
   33.4020   45.7590   -6.3200 C   0  0  0  0  0  0  0  0  0  0  0  0
   34.1550   46.4010   -7.0420 O   0  0  0  0  0  0  0  0  0  0  0  0
   33.8500   45.0610   -5.1370 C   0  0  0  0  0  0  0  0  0  0  0  0
   33.3690   43.8480   -4.6150 C   0  0  0  0  0  0  0  0  0  0  0  0
   34.8470   45.4250   -4.2510 C   0  0  0  0  0  0  0  0  0  0  0  0
   33.9970   43.4740   -3.5020 N   0  0  0  0  0  0  0  0  0  0  0  0
   34.9140   44.4510   -3.2770 N   0  0  0  0  0  0  0  0  0  0  0  0
   35.7860   44.3930   -2.1570 C   0  0  0  0  0  0  0  0  0  0  0  0
   36.5700   45.5130   -1.8350 C   0  0  0  0  0  0  0  0  0  0  0  0
   35.8820   43.2400   -1.3650 C   0  0  0  0  0  0  0  0  0  0  0  0
   37.4350   45.4780   -0.7390 C   0  0  0  0  0  0  0  0  0  0  0  0
   36.7490   43.2120   -0.2700 C   0  0  0  0  0  0  0  0  0  0  0  0
   37.5230   44.3300    0.0420 C   0  0  0  0  0  0  0  0  0  0  0  0
  1  2  1  0
  2  3  2  0
  2  4  1  0
  4  5  1  0
  4  6  2  0
  3  7  1  0
  5  8  2  0
  5  9  1  0
  6 10  1  0
  7 10  2  0
  9 11  1  0
 11 12  1  0
 12 13  1  0
 13 14  2  0
 13 15  1  0
 15 16  1  0
 15 17  2  0
 16 18  2  0
 17 19  1  0
 18 19  1  0
 19 20  1  0
 20 21  2  0
 20 22  1  0
 21 23  1  0
 22 24  2  0
 23 25  2  0
 24 25  1  0
M  END
