mac-x0271-mac-x0142
     RDKit          3D

 25 29  0  0  0  0  0  0  0  0999 V2000
   28.4350   49.3340   -2.8940 O   0  0  0  0  0  0  0  0  0  0  0  0
   29.3080   50.2530   -3.5910 C   0  0  1  0  0  0  0  0  0  0  0  0
   29.4380   49.8050   -5.0770 C   0  0  2  0  0  0  0  0  0  0  0  0
   28.7340   51.6720   -3.3760 C   0  0  0  0  0  0  0  0  0  0  0  0
   29.0990   52.6630   -4.4350 C   0  0  0  0  0  0  0  0  0  0  0  0
   30.1680   50.9320   -5.8840 C   0  0  0  0  0  0  0  0  0  0  0  0
   28.0040   49.6360   -5.6590 C   0  0  0  0  0  0  0  0  0  0  0  0
   30.1880   48.4280   -5.3130 C   0  0  1  0  0  0  0  0  0  0  0  0
   29.7420   52.3420   -5.5660 C   0  0  0  0  0  0  0  0  0  0  0  0
   28.7050   53.9950   -4.1500 O   0  0  0  0  0  0  0  0  0  0  0  0
   30.4800   47.6430   -4.0970 N   0  0  0  0  0  0  0  0  0  0  0  0
   29.4920   47.6140   -6.3020 N   0  0  0  0  0  0  0  0  0  0  0  0
   28.0550   49.3890   -7.1000 N   0  0  0  0  0  0  0  0  0  0  0  0
   30.0380   53.3870   -6.5130 C   0  0  0  0  0  0  0  0  0  0  0  0
   29.0870   55.0230   -4.9640 C   0  0  0  0  0  0  0  0  0  0  0  0
   31.7140   48.0680   -3.4190 C   0  0  0  0  0  0  0  0  0  0  0  0
   30.3280   46.1780   -4.1720 C   0  0  0  0  0  0  0  0  0  0  0  0
   29.0530   48.3940   -7.4450 C   0  0  0  0  0  0  0  0  0  0  0  0
   28.9150   56.2020   -4.6730 O   0  0  0  0  0  0  0  0  0  0  0  0
   29.7330   54.6590   -6.2380 C   0  0  0  0  0  0  0  0  0  0  0  0
   31.5760   45.5030   -4.7240 C   0  0  0  0  0  0  0  0  0  0  0  0
   32.9510   47.4470   -4.0630 C   0  0  0  0  0  0  0  0  0  0  0  0
   31.4810   44.0960   -5.2820 C   0  0  0  0  0  0  0  0  0  0  0  0
   31.6440   45.2570   -6.2180 C   0  0  0  0  0  0  0  0  0  0  0  0
   32.8530   45.9320   -4.0490 C   0  0  0  0  0  0  0  0  0  0  0  0
  2  1  1  1
  2  3  1  0
  2  4  1  0
  4  5  1  0
  3  6  1  6
  3  7  1  0
  3  8  1  0
  5  9  2  0
  6  9  1  0
  5 10  1  0
  8 11  1  1
  8 12  1  0
  7 13  1  0
  9 14  1  0
 10 15  1  0
 11 16  1  0
 11 17  1  0
 12 18  1  0
 13 18  1  0
 15 19  2  0
 14 20  2  0
 15 20  1  0
 21 17  1  0
 16 22  1  0
 21 23  1  0
 21 24  1  0
 23 24  1  0
 21 25  1  0
 22 25  1  0
M  END
