mac-x0188-mac-x0212
     RDKit          3D

 22 24  0  0  0  0  0  0  0  0999 V2000
   32.5690   44.5230   -3.8370 C   0  0  0  0  0  0  0  0  0  0  0  0
   32.1480   45.9180   -3.6170 C   0  0  0  0  0  0  0  0  0  0  0  0
   32.6470   46.5410   -2.5130 O   0  0  0  0  0  0  0  0  0  0  0  0
   31.3320   46.7930   -4.2940 C   0  0  0  0  0  0  0  0  0  0  0  0
   30.5330   46.6810   -5.5340 C   0  0  0  0  0  0  0  0  0  0  0  0
   32.1600   47.8400   -2.4540 N   0  0  0  0  0  0  0  0  0  0  0  0
   31.3720   47.9810   -3.5260 C   0  0  0  0  0  0  0  0  0  0  0  0
   29.9810   45.3690   -5.6640 O   0  0  0  0  0  0  0  0  0  0  0  0
   31.3200   46.8670   -6.7000 O   0  0  0  0  0  0  0  0  0  0  0  0
   29.3280   47.7080   -5.5210 C   0  0  1  0  0  0  0  0  0  0  0  0
   30.6350   49.1800   -3.8950 C   0  0  0  0  0  0  0  0  0  0  0  0
   28.2050   47.0740   -4.8870 O   0  0  0  0  0  0  0  0  0  0  0  0
   30.9030   50.4200   -3.3050 C   0  0  0  0  0  0  0  0  0  0  0  0
   29.6230   49.0620   -4.8780 C   0  0  0  0  0  0  0  0  0  0  0  0
   30.1730   51.5480   -3.6850 C   0  0  0  0  0  0  0  0  0  0  0  0
   28.8990   50.2080   -5.2480 C   0  0  0  0  0  0  0  0  0  0  0  0
   29.1740   51.4430   -4.6550 C   0  0  0  0  0  0  0  0  0  0  0  0
   28.4480   52.6120   -5.0200 N   0  0  0  0  0  0  0  0  0  0  0  0
   29.2700   54.0490   -5.3340 S   0  0  0  0  0  0  0  0  0  0  0  0
   30.7110   53.4830   -6.2180 C   0  0  0  0  0  0  0  0  0  0  0  0
   28.4420   54.7730   -6.2780 O   0  0  0  0  0  0  0  0  0  0  0  0
   29.7000   54.6560   -4.0940 O   0  0  0  0  0  0  0  0  0  0  0  0
  1  2  1  0
  2  3  1  0
  2  4  2  0
  4  5  1  0
  3  6  1  0
  4  7  1  0
  6  7  2  0
  5  8  1  0
  5  9  1  0
  5 10  1  0
  7 11  1  0
 10 12  1  1
 11 13  2  0
 10 14  1  0
 11 14  1  0
 13 15  1  0
 14 16  2  0
 15 17  2  0
 16 17  1  0
 17 18  1  0
 19 18  1  0
 19 20  1  0
 19 21  2  0
 19 22  2  0
M  END
