mac-x0510-mac-x0283
     RDKit          3D

 14 16  0  0  0  0  0  0  0  0999 V2000
   29.5160   49.1430   -3.7060 O   0  0  0  0  0  0  0  0  0  0  0  0
   29.0870   49.7630   -4.6690 C   0  0  0  0  0  0  0  0  0  0  0  0
   29.0120   49.2770   -5.9900 C   0  0  0  0  0  0  0  0  0  0  0  0
   28.6130   51.0460   -4.6050 N   0  0  0  0  0  0  0  0  0  0  0  0
   29.1130   52.0300   -5.5600 C   0  0  1  0  0  0  0  0  0  0  0  0
   29.0160   50.1040   -7.0660 C   0  0  0  0  0  0  0  0  0  0  0  0
   28.9250   48.0150   -6.4950 N   0  0  0  0  0  0  0  0  0  0  0  0
   29.1000   51.4450   -6.9210 N   0  0  0  0  0  0  0  0  0  0  0  0
   28.9290   49.4210   -8.2320 N   0  0  0  0  0  0  0  0  0  0  0  0
   28.8750   48.1530   -7.8620 C   0  0  0  0  0  0  0  0  0  0  0  0
   28.3970   53.3970   -5.4910 C   0  0  0  0  0  0  0  0  0  0  0  0
   30.4820   52.4440   -5.0590 C   0  0  0  0  0  0  0  0  0  0  0  0
   29.1420   54.2430   -4.5280 N   0  0  0  0  0  0  0  0  0  0  0  0
   30.2170   53.3970   -4.0230 O   0  0  0  0  0  0  0  0  0  0  0  0
  1  2  2  0
  2  3  1  0
  2  4  1  0
  5  4  1  0
  3  6  2  0
  3  7  1  0
  5  8  1  0
  6  8  1  0
  6  9  1  0
  7 10  1  0
  9 10  2  0
  5 11  1  6
  5 12  1  0
 11 13  1  0
 12 14  1  0
 13 14  1  0
M  END
