mac-x0415-mac-x0565
     RDKit          3D

 25 28  0  0  0  0  0  0  0  0999 V2000
   33.7750   46.2830   -6.1570 O   0  0  0  0  0  0  0  0  0  0  0  0
   32.4600   46.0230   -6.3170 C   0  0  0  0  0  0  0  0  0  0  0  0
   32.0810   45.2490   -7.1780 O   0  0  0  0  0  0  0  0  0  0  0  0
   31.6130   46.7970   -5.3350 C   0  0  0  0  0  0  0  0  0  0  0  0
   31.1090   45.9650   -4.2220 C   0  0  0  0  0  0  0  0  0  0  0  0
   31.3580   44.5150   -4.0880 C   0  0  0  0  0  0  0  0  0  0  0  0
   30.3190   46.1850   -3.1580 C   0  0  0  0  0  0  0  0  0  0  0  0
   30.8030   43.9330   -3.0700 N   0  0  0  0  0  0  0  0  0  0  0  0
   30.2210   44.9580   -2.3930 C   0  0  0  0  0  0  0  0  0  0  0  0
   29.5370   47.3910   -2.6370 C   0  0  1  0  0  0  0  0  0  0  0  0
   29.6690   44.8860   -1.1780 C   0  0  0  0  0  0  0  0  0  0  0  0
   29.1030   47.2370   -1.1720 C   0  0  0  0  0  0  0  0  0  0  0  0
   29.9220   48.8200   -2.9560 C   0  0  0  0  0  0  0  0  0  0  0  0
   28.2530   47.3820   -3.5160 C   0  0  0  0  0  0  0  0  0  0  0  0
   28.4740   48.7660   -0.2700 Br  0  0  0  0  0  0  0  0  0  0  0  0
   29.1590   46.0640   -0.5280 C   0  0  0  0  0  0  0  0  0  0  0  0
   29.2400   49.2360   -4.0930 C   0  0  0  0  0  0  0  0  0  0  0  0
   30.7770   49.6990   -2.3000 C   0  0  0  0  0  0  0  0  0  0  0  0
   28.4450   48.2760   -4.6330 O   0  0  0  0  0  0  0  0  0  0  0  0
   29.3560   50.5050   -4.6130 C   0  0  0  0  0  0  0  0  0  0  0  0
   30.9120   50.9990   -2.8080 C   0  0  0  0  0  0  0  0  0  0  0  0
   30.1980   51.4050   -3.9600 C   0  0  0  0  0  0  0  0  0  0  0  0
   30.2970   52.7780   -4.5180 C   0  0  0  0  0  0  0  0  0  0  0  0
   29.8190   52.8700   -5.7730 O   0  0  0  0  0  0  0  0  0  0  0  0
   30.7410   53.7520   -3.9410 O   0  0  0  0  0  0  0  0  0  0  0  0
  1  2  1  0
  2  3  2  0
  2  4  1  0
  4  5  1  0
  5  6  1  0
  5  7  2  0
  6  8  2  0
  7  9  1  0
  8  9  1  0
  7 10  1  0
  9 11  2  0
 10 12  1  0
 10 13  1  0
 10 14  1  6
 12 15  1  0
 11 16  1  0
 12 16  2  0
 13 17  2  0
 13 18  1  0
 14 19  1  0
 17 19  1  0
 17 20  1  0
 18 21  2  0
 20 22  2  0
 21 22  1  0
 22 23  1  0
 23 24  1  0
 23 25  2  0
M  END
