mac-x0380-mac-x0138
     RDKit          3D

 24 27  0  0  0  0  0  0  0  0999 V2000
   27.5150   50.6560   -2.0240 C   0  0  0  0  0  0  0  0  0  0  0  0
   27.7910   51.5170   -3.1920 C   0  0  0  0  0  0  0  0  0  0  0  0
   28.3780   50.9540   -4.3270 C   0  0  0  0  0  0  0  0  0  0  0  0
   27.9210   50.9310   -0.9030 O   0  0  0  0  0  0  0  0  0  0  0  0
   27.4680   52.8740   -3.1550 C   0  0  0  0  0  0  0  0  0  0  0  0
   27.7360   53.6830   -4.2610 C   0  0  0  0  0  0  0  0  0  0  0  0
   28.6590   51.7440   -5.4560 C   0  0  0  0  0  0  0  0  0  0  0  0
   28.3270   53.1220   -5.4050 C   0  0  0  0  0  0  0  0  0  0  0  0
   27.3050   55.4090   -4.1570 S   0  0  0  0  0  0  0  0  0  0  0  0
   29.2580   51.2080   -6.6250 N   0  0  0  0  0  0  0  0  0  0  0  0
   28.6080   53.9160   -6.5380 N   0  0  0  0  0  0  0  0  0  0  0  0
   28.5140   56.0730   -5.3240 C   0  0  0  0  0  0  0  0  0  0  0  0
   29.4100   49.8870   -7.0680 C   0  0  0  0  0  0  0  0  0  0  0  0
   28.5850   55.2790   -6.6070 C   0  0  0  0  0  0  0  0  0  0  0  0
   30.3220   48.9990   -6.5010 C   0  0  0  0  0  0  0  0  0  0  0  0
   28.6700   49.3870   -8.0880 N   0  0  0  0  0  0  0  0  0  0  0  0
   28.6300   55.8240   -7.7120 O   0  0  0  0  0  0  0  0  0  0  0  0
   31.2440   49.0530   -5.4900 N   0  0  0  0  0  0  0  0  0  0  0  0
   30.4230   47.7080   -6.9850 C   0  0  0  0  0  0  0  0  0  0  0  0
   28.8360   48.1170   -8.4950 C   0  0  0  0  0  0  0  0  0  0  0  0
   28.0420   47.6910   -9.5420 N   0  0  0  0  0  0  0  0  0  0  0  0
   31.3710   46.9920   -6.2990 N   0  0  0  0  0  0  0  0  0  0  0  0
   31.8480   47.8280   -5.4070 C   0  0  0  0  0  0  0  0  0  0  0  0
   29.6840   47.2290   -7.9960 N   0  0  0  0  0  0  0  0  0  0  0  0
  1  2  1  0
  2  3  2  0
  1  4  2  0
  2  5  1  0
  5  6  2  0
  3  7  1  0
  6  8  1  0
  7  8  2  0
  6  9  1  0
  7 10  1  0
  8 11  1  0
  9 12  1  0
 10 13  1  0
 11 14  1  0
 12 14  1  0
 13 15  1  0
 13 16  2  0
 14 17  2  0
 15 18  1  0
 15 19  2  0
 16 20  1  0
 20 21  1  0
 19 22  1  0
 18 23  1  0
 22 23  2  0
 19 24  1  0
 20 24  2  0
M  END
