mac-x0567
     RDKit          3D

 10 11  0  0  0  0  0  0  0  0999 V2000
   29.7540   47.2590   -8.0800 N   0  0  0  0  0  0  0  0  0  0  0  0
   29.3130   48.5810   -7.7100 C   0  0  0  0  0  0  0  0  0  0  0  0
   28.7390   49.4480   -8.5160 N   0  0  0  0  0  0  0  0  0  0  0  0
   28.4870   50.5530   -7.8050 N   0  0  0  0  0  0  0  0  0  0  0  0
   28.8900   50.4320   -6.5270 C   0  0  0  0  0  0  0  0  0  0  0  0
   28.8370   51.3180   -5.4150 C   0  0  0  0  0  0  0  0  0  0  0  0
   29.3470   50.9020   -4.1900 C   0  0  0  0  0  0  0  0  0  0  0  0
   29.9040   49.6250   -4.0670 C   0  0  0  0  0  0  0  0  0  0  0  0
   29.9510   48.7550   -5.1560 C   0  0  0  0  0  0  0  0  0  0  0  0
   29.4390   49.1750   -6.4030 C   0  0  0  0  0  0  0  0  0  0  0  0
  1  2  1  0
  2  3  2  0
  3  4  1  0
  4  5  1  0
  5  6  1  0
  6  7  2  0
  7  8  1  0
  8  9  2  0
  2 10  1  0
  5 10  2  0
  9 10  1  0
M  END
