mac-x0394-mac-x0328
     RDKit          3D

 22 23  0  0  0  0  0  0  0  0999 V2000
   23.4400   50.2310   -4.0380 Cl  0  0  0  0  0  0  0  0  0  0  0  0
   24.6880   51.3950   -4.2320 C   0  0  0  0  0  0  0  0  0  0  0  0
   24.6550   52.5830   -3.5040 C   0  0  0  0  0  0  0  0  0  0  0  0
   25.7280   51.1390   -5.1170 C   0  0  0  0  0  0  0  0  0  0  0  0
   26.7530   52.0730   -5.2830 C   0  0  0  0  0  0  0  0  0  0  0  0
   25.6740   53.5120   -3.6720 C   0  0  0  0  0  0  0  0  0  0  0  0
   25.6530   54.9840   -2.7780 Cl  0  0  0  0  0  0  0  0  0  0  0  0
   27.9070   51.7960   -6.2150 C   0  0  1  0  0  0  0  0  0  0  0  0
   26.7200   53.2700   -4.5540 C   0  0  0  0  0  0  0  0  0  0  0  0
   28.1640   52.8310   -7.3240 C   0  0  0  0  0  0  0  0  0  0  0  0
   28.9870   51.3260   -5.2560 C   0  0  0  0  0  0  0  0  0  0  0  0
   29.3460   53.4770   -7.2430 O   0  0  0  0  0  0  0  0  0  0  0  0
   27.4060   53.0930   -8.2500 O   0  0  0  0  0  0  0  0  0  0  0  0
   29.3280   49.9790   -5.2740 C   0  0  0  0  0  0  0  0  0  0  0  0
   29.6420   52.1540   -4.3170 C   0  0  0  0  0  0  0  0  0  0  0  0
   29.3880   53.4950   -4.2030 O   0  0  0  0  0  0  0  0  0  0  0  0
   30.2640   49.4450   -4.4040 C   0  0  0  0  0  0  0  0  0  0  0  0
   30.5890   51.6340   -3.4350 C   0  0  0  0  0  0  0  0  0  0  0  0
   30.5670   48.0000   -4.4740 C   0  0  0  0  0  0  0  0  0  0  0  0
   30.9010   50.2720   -3.4760 C   0  0  0  0  0  0  0  0  0  0  0  0
   31.0530   47.4960   -3.3310 O   0  0  0  0  0  0  0  0  0  0  0  0
   30.3940   47.3010   -5.4560 O   0  0  0  0  0  0  0  0  0  0  0  0
  1  2  1  0
  2  3  2  0
  2  4  1  0
  4  5  2  0
  3  6  1  0
  6  7  1  0
  5  8  1  0
  5  9  1  0
  6  9  2  0
  8 10  1  1
  8 11  1  0
 10 12  1  0
 10 13  2  0
 11 14  2  0
 11 15  1  0
 15 16  1  0
 14 17  1  0
 15 18  2  0
 17 19  1  0
 17 20  2  0
 18 20  1  0
 19 21  1  0
 19 22  2  0
M  END
