mac-x0148-mac-x0433
     RDKit          3D

 26 30  0  0  0  0  0  0  0  0999 V2000
   28.7690   55.0650   -6.7920 C   0  0  0  0  0  0  0  0  0  0  0  0
   28.9090   54.1020   -5.6530 C   0  0  0  0  0  0  0  0  0  0  0  0
   28.5380   54.5400   -4.4360 N   0  0  0  0  0  0  0  0  0  0  0  0
   29.4030   52.8260   -5.8720 C   0  0  0  0  0  0  0  0  0  0  0  0
   29.4960   52.0130   -4.7580 C   0  0  0  0  0  0  0  0  0  0  0  0
   28.6630   53.6850   -3.4240 C   0  0  0  0  0  0  0  0  0  0  0  0
   28.2910   54.1050   -2.1650 N   0  0  0  0  0  0  0  0  0  0  0  0
   29.9960   50.6750   -4.8270 N   0  0  0  0  0  0  0  0  0  0  0  0
   29.1240   52.4490   -3.5370 N   0  0  0  0  0  0  0  0  0  0  0  0
   29.5280   49.5930   -5.5930 C   0  0  0  0  0  0  0  0  0  0  0  0
   31.0800   50.2230   -4.0950 C   0  0  0  0  0  0  0  0  0  0  0  0
   28.4880   49.5810   -6.4570 N   0  0  0  0  0  0  0  0  0  0  0  0
   30.3310   48.4890   -5.3130 C   0  0  0  0  0  0  0  0  0  0  0  0
   31.3010   48.9010   -4.3740 C   0  0  0  0  0  0  0  0  0  0  0  0
   28.3000   48.3830   -7.0250 C   0  0  0  0  0  0  0  0  0  0  0  0
   30.0420   47.2750   -5.9630 C   0  0  0  0  0  0  0  0  0  0  0  0
   30.8000   46.0990   -5.7340 N   0  0  0  0  0  0  0  0  0  0  0  0
   29.0020   47.2510   -6.8310 N   0  0  0  0  0  0  0  0  0  0  0  0
   30.8470   45.6690   -4.3020 C   0  0  2  0  0  0  0  0  0  0  0  0
   32.0590   46.0690   -6.4740 C   0  0  0  0  0  0  0  0  0  0  0  0
   29.9130   46.4800   -3.3940 C   0  0  0  0  0  0  0  0  0  0  0  0
   32.2160   45.7480   -3.5700 C   0  0  2  0  0  0  0  0  0  0  0  0
   33.0700   46.9150   -5.7220 C   0  0  0  0  0  0  0  0  0  0  0  0
   31.9200   46.5440   -2.3060 C   0  0  0  0  0  0  0  0  0  0  0  0
   30.5110   46.5160   -2.0930 O   0  0  0  0  0  0  0  0  0  0  0  0
   33.4060   46.3550   -4.3400 C   0  0  0  0  0  0  0  0  0  0  0  0
  1  2  1  0
  2  3  2  0
  2  4  1  0
  4  5  2  0
  3  6  1  0
  6  7  1  0
  5  8  1  0
  5  9  1  0
  6  9  2  0
  8 10  1  0
  8 11  1  0
 10 12  2  0
 10 13  1  0
 11 14  2  0
 13 14  1  0
 12 15  1  0
 13 16  2  0
 16 17  1  0
 15 18  2  0
 16 18  1  0
 17 19  1  0
 17 20  1  0
 19 21  1  1
 19 22  1  0
 20 23  1  0
 22 24  1  1
 21 25  1  0
 24 25  1  0
 22 26  1  0
 23 26  1  0
M  END
