mac-x0161-mac-x0394
     RDKit          3D

 29 32  0  0  0  0  0  0  0  0999 V2000
   27.8350   51.9990   -6.1410 N   0  0  0  0  0  0  0  0  0  0  0  0
   28.0130   52.7480   -7.3130 C   0  0  0  0  0  0  0  0  0  0  0  0
   29.1630   53.4500   -7.4100 O   0  0  0  0  0  0  0  0  0  0  0  0
   28.9400   51.1580   -5.7020 C   0  0  1  0  0  0  0  0  0  0  0  0
   26.7720   52.1810   -5.2250 C   0  0  0  0  0  0  0  0  0  0  0  0
   27.2250   52.8270   -8.2520 O   0  0  0  0  0  0  0  0  0  0  0  0
   28.8700   50.9900   -4.2420 N   0  0  0  0  0  0  0  0  0  0  0  0
   29.2000   49.8960   -6.5710 C   0  0  1  0  0  0  0  0  0  0  0  0
   26.7240   53.3340   -4.4420 C   0  0  0  0  0  0  0  0  0  0  0  0
   25.7660   51.2220   -5.0690 C   0  0  0  0  0  0  0  0  0  0  0  0
   29.7000   49.9110   -3.7600 C   0  0  0  0  0  0  0  0  0  0  0  0
   29.4590   48.6190   -5.7420 C   0  0  1  0  0  0  0  0  0  0  0  0
   28.1760   49.5200   -7.5610 N   0  0  0  0  0  0  0  0  0  0  0  0
   25.6960   53.5230   -3.5270 C   0  0  0  0  0  0  0  0  0  0  0  0
   24.7390   51.4180   -4.1510 C   0  0  0  0  0  0  0  0  0  0  0  0
   23.5130   50.2210   -3.9780 Cl  0  0  0  0  0  0  0  0  0  0  0  0
   25.6730   54.9580   -2.5770 Cl  0  0  0  0  0  0  0  0  0  0  0  0
   29.1870   48.6740   -4.3140 N   0  0  0  0  0  0  0  0  0  0  0  0
   28.5900   47.6320   -6.3780 N   0  0  0  0  0  0  0  0  0  0  0  0
   28.3750   48.1060   -7.7260 C   0  0  0  0  0  0  0  0  0  0  0  0
   24.6970   52.5690   -3.3730 C   0  0  0  0  0  0  0  0  0  0  0  0
   29.7860   47.5350   -3.5870 C   0  0  0  0  0  0  0  0  0  0  0  0
   31.2570   47.4070   -3.7770 C   0  0  0  0  0  0  0  0  0  0  0  0
   32.3490   47.6310   -2.9740 C   0  0  0  0  0  0  0  0  0  0  0  0
   31.6820   46.9770   -4.9990 O   0  0  0  0  0  0  0  0  0  0  0  0
   33.0670   46.9120   -5.0120 N   0  0  0  0  0  0  0  0  0  0  0  0
   33.4410   47.3070   -3.7940 C   0  0  0  0  0  0  0  0  0  0  0  0
   34.7440   47.3700   -3.4360 O   0  0  0  0  0  0  0  0  0  0  0  0
   34.9850   47.9880   -2.1780 C   0  0  0  0  0  0  0  0  0  0  0  0
  1  2  1  0
  2  3  1  0
  4  1  1  6
  1  5  1  0
  2  6  2  0
  4  7  1  0
  4  8  1  0
  5  9  2  0
  5 10  1  0
  7 11  1  0
  8 12  1  0
  8 13  1  6
  9 14  1  0
 10 15  2  0
 15 16  1  0
 14 17  1  0
 11 18  1  0
 12 18  1  0
 12 19  1  6
 13 20  1  0
 19 20  1  0
 14 21  2  0
 15 21  1  0
 18 22  1  0
 22 23  1  0
 23 24  2  0
 23 25  1  0
 25 26  1  0
 24 27  1  0
 26 27  2  0
 27 28  1  0
 28 29  1  0
M  END
