mac-x0321-mac-x0404
     RDKit          3D

 25 27  0  0  0  0  0  0  0  0999 V2000
   28.8560   52.0050   -7.8710 Cl  0  0  0  0  0  0  0  0  0  0  0  0
   29.5540   51.8480   -6.3050 C   0  0  0  0  0  0  0  0  0  0  0  0
   29.5870   50.6020   -5.6890 C   0  0  0  0  0  0  0  0  0  0  0  0
   30.0780   52.9730   -5.6690 C   0  0  0  0  0  0  0  0  0  0  0  0
   30.1550   50.4960   -4.4180 C   0  0  0  0  0  0  0  0  0  0  0  0
   30.6460   52.8570   -4.3980 C   0  0  0  0  0  0  0  0  0  0  0  0
   30.1980   49.2100   -3.7330 C   0  0  0  0  0  0  0  0  0  0  0  0
   30.6830   51.6140   -3.7720 C   0  0  0  0  0  0  0  0  0  0  0  0
   28.9660   48.9210   -3.2910 O   0  0  0  0  0  0  0  0  0  0  0  0
   31.1130   48.3440   -3.4690 N   0  0  0  0  0  0  0  0  0  0  0  0
   30.6000   47.2800   -2.7260 C   0  0  0  0  0  0  0  0  0  0  0  0
   30.3350   45.9890   -3.2270 C   0  0  0  0  0  0  0  0  0  0  0  0
   30.3280   47.5660   -1.3950 C   0  0  0  0  0  0  0  0  0  0  0  0
   30.6070   45.6820   -4.5520 O   0  0  0  0  0  0  0  0  0  0  0  0
   29.7810   44.9930   -2.3890 C   0  0  0  0  0  0  0  0  0  0  0  0
   29.7910   46.6000   -0.5570 C   0  0  0  0  0  0  0  0  0  0  0  0
   31.8730   45.0210   -4.6720 C   0  0  0  0  0  0  0  0  0  0  0  0
   29.5100   45.3210   -1.0380 C   0  0  0  0  0  0  0  0  0  0  0  0
   29.4830   43.6930   -2.8360 C   0  0  0  0  0  0  0  0  0  0  0  0
   32.5290   45.3740   -5.9950 C   0  0  0  0  0  0  0  0  0  0  0  0
   28.9570   44.3560   -0.1860 C   0  0  0  0  0  0  0  0  0  0  0  0
   28.9310   42.7440   -1.9760 C   0  0  0  0  0  0  0  0  0  0  0  0
   31.6480   45.3820   -7.0220 O   0  0  0  0  0  0  0  0  0  0  0  0
   33.7040   45.6390   -6.2110 O   0  0  0  0  0  0  0  0  0  0  0  0
   28.6690   43.0780   -0.6520 C   0  0  0  0  0  0  0  0  0  0  0  0
  1  2  1  0
  2  3  2  0
  2  4  1  0
  3  5  1  0
  4  6  2  0
  5  7  1  0
  5  8  2  0
  6  8  1  0
  7  9  1  0
  7 10  2  3
 10 11  1  0
 11 12  2  0
 11 13  1  0
 12 14  1  0
 12 15  1  0
 13 16  2  0
 14 17  1  0
 15 18  2  0
 16 18  1  0
 15 19  1  0
 17 20  1  0
 18 21  1  0
 19 22  2  0
 20 23  1  0
 20 24  2  0
 21 25  2  0
 22 25  1  0
M  END
