mac-x0568-mac-x0137
     RDKit          3D

 25 28  0  0  0  0  0  0  0  0999 V2000
   29.1350   56.4090   -4.2920 C   0  0  0  0  0  0  0  0  0  0  0  0
   29.5730   55.0240   -4.6620 C   0  0  0  0  0  0  0  0  0  0  0  0
   29.3250   54.5320   -5.9420 C   0  0  0  0  0  0  0  0  0  0  0  0
   30.2060   54.2960   -3.7110 N   0  0  0  0  0  0  0  0  0  0  0  0
   30.6020   53.0410   -4.0490 C   0  0  0  0  0  0  0  0  0  0  0  0
   29.7420   53.2400   -6.2630 C   0  0  0  0  0  0  0  0  0  0  0  0
   30.3960   52.4720   -5.3000 C   0  0  0  0  0  0  0  0  0  0  0  0
   30.8670   51.0800   -5.5890 C   0  0  0  0  0  0  0  0  0  0  0  0
   30.4440   50.1650   -4.7940 N   0  0  0  0  0  0  0  0  0  0  0  0
   31.7010   50.9040   -6.6680 N   0  0  0  0  0  0  0  0  0  0  0  0
   30.8110   48.7650   -4.9480 C   0  0  1  0  0  0  0  0  0  0  0  0
   31.3580   48.2570   -3.6050 C   0  0  0  0  0  0  0  0  0  0  0  0
   29.7050   47.8880   -5.3810 N   0  0  0  0  0  0  0  0  0  0  0  0
   29.7350   46.4890   -4.9260 C   0  0  0  0  0  0  0  0  0  0  0  0
   31.9180   46.8370   -3.7010 C   0  0  0  0  0  0  0  0  0  0  0  0
   28.9070   48.2290   -6.4720 C   0  0  0  0  0  0  0  0  0  0  0  0
   31.1520   45.9760   -4.7020 C   0  0  0  0  0  0  0  0  0  0  0  0
   29.0200   47.5060   -7.6440 N   0  0  0  0  0  0  0  0  0  0  0  0
   28.0040   49.2260   -6.4920 C   0  0  0  0  0  0  0  0  0  0  0  0
   28.2650   47.7850   -8.7490 C   0  0  0  0  0  0  0  0  0  0  0  0
   27.2140   49.4750   -7.7240 C   0  0  0  0  0  0  0  0  0  0  0  0
   27.5240   50.2200   -5.5880 C   0  0  0  0  0  0  0  0  0  0  0  0
   27.3770   48.7200   -8.8540 N   0  0  0  0  0  0  0  0  0  0  0  0
   26.3760   50.4690   -7.5840 N   0  0  0  0  0  0  0  0  0  0  0  0
   26.5900   50.9000   -6.2770 C   0  0  0  0  0  0  0  0  0  0  0  0
  1  2  1  0
  2  3  2  0
  2  4  1  0
  4  5  2  0
  3  6  1  0
  5  7  1  0
  6  7  2  0
  7  8  1  0
  8  9  2  3
  8 10  1  0
 11  9  1  1
 11 12  1  0
 11 13  1  0
 13 14  1  0
 12 15  1  0
 13 16  1  0
 14 17  1  0
 15 17  1  0
 16 18  1  0
 16 19  2  0
 18 20  1  0
 19 21  1  0
 19 22  1  0
 20 23  2  0
 21 23  1  0
 21 24  2  0
 22 25  2  0
 24 25  1  0
M  END
