mac-x0564-mac-x0188
     RDKit          3D

 16 18  0  0  0  0  0  0  0  0999 V2000
   30.6740   46.4700   -6.8640 O   0  0  0  0  0  0  0  0  0  0  0  0
   30.1880   46.4110   -5.5400 C   0  0  0  0  0  0  0  0  0  0  0  0
   31.0030   45.5540   -4.6740 N   0  0  0  0  0  0  0  0  0  0  0  0
   30.0380   47.7940   -5.0160 C   0  0  0  0  0  0  0  0  0  0  0  0
   28.9060   45.8380   -5.6280 O   0  0  0  0  0  0  0  0  0  0  0  0
   32.4320   45.7160   -4.9480 C   0  0  0  0  0  0  0  0  0  0  0  0
   30.3320   48.2110   -3.7460 C   0  0  0  0  0  0  0  0  0  0  0  0
   30.7290   45.9200   -3.2650 C   0  0  0  0  0  0  0  0  0  0  0  0
   29.5760   48.8250   -5.7770 O   0  0  0  0  0  0  0  0  0  0  0  0
   30.8060   47.3240   -2.8450 N   0  0  0  0  0  0  0  0  0  0  0  0
   29.5820   49.9200   -4.9530 C   0  0  0  0  0  0  0  0  0  0  0  0
   30.0460   49.5860   -3.6760 C   0  0  0  0  0  0  0  0  0  0  0  0
   30.1160   50.5970   -2.7000 C   0  0  0  0  0  0  0  0  0  0  0  0
   29.1840   51.2050   -5.3190 C   0  0  0  0  0  0  0  0  0  0  0  0
   29.7200   51.8970   -3.0450 C   0  0  0  0  0  0  0  0  0  0  0  0
   29.2620   52.1940   -4.3340 C   0  0  0  0  0  0  0  0  0  0  0  0
  2  1  1  0
  2  3  1  0
  2  4  1  0
  2  5  1  0
  3  6  1  0
  4  7  2  0
  3  8  1  0
  4  9  1  0
  7 10  1  0
  8 10  1  0
  9 11  1  0
  7 12  1  0
 11 12  2  0
 12 13  1  0
 11 14  1  0
 13 15  2  0
 14 16  2  0
 15 16  1  0
M  END
