mac-x0379-mac-x0587
     RDKit          3D

 16 16  0  0  0  0  0  0  0  0999 V2000
   29.1760   52.4120   -5.7050 C   0  0  0  0  0  0  0  0  0  0  0  0
   29.5820   51.1730   -5.0060 C   0  0  0  0  0  0  0  0  0  0  0  0
   30.1580   50.9470   -3.8680 N   0  0  0  0  0  0  0  0  0  0  0  0
   29.3670   49.5520   -5.5880 S   0  0  0  0  0  0  0  0  0  0  0  0
   30.4120   49.7490   -3.4610 C   0  0  0  0  0  0  0  0  0  0  0  0
   30.0580   48.7010   -4.2640 C   0  0  0  0  0  0  0  0  0  0  0  0
   30.2410   46.9990   -4.0040 S   0  0  0  0  0  0  0  0  0  0  0  0
   31.2470   46.1000   -4.8460 N   0  0  0  0  0  0  0  0  0  0  0  0
   29.1930   46.5880   -4.9610 O   0  0  0  0  0  0  0  0  0  0  0  0
   31.3320   47.1780   -2.8740 C   0  0  0  0  0  0  0  0  0  0  0  0
   29.2240   46.4290   -2.7650 C   0  0  0  0  0  0  0  0  0  0  0  0
   32.6010   46.4070   -5.0530 C   0  0  0  0  0  0  0  0  0  0  0  0
   29.1670   47.0880   -1.7770 O   0  0  0  0  0  0  0  0  0  0  0  0
   33.0910   45.8220   -6.3020 C   0  0  0  0  0  0  0  0  0  0  0  0
   34.3160   45.8500   -6.5600 O   0  0  0  0  0  0  0  0  0  0  0  0
   32.1850   45.2420   -7.1730 O   0  0  0  0  0  0  0  0  0  0  0  0
  1  2  1  0
  2  3  2  0
  2  4  1  0
  3  5  1  0
  4  6  1  0
  5  6  2  0
  6  7  1  0
  7  8  2  3
  7  9  1  0
  7 10  1  0
  7 11  1  0
  8 12  1  0
 11 13  2  0
 12 14  1  0
 14 15  2  0
 14 16  1  0
M  END
