mac-x0223-mac-x0365
     RDKit          3D

 25 26  0  0  0  0  0  0  0  0999 V2000
   26.8750   43.6700   -1.8930 C   0  0  0  0  0  0  0  0  0  0  0  0
   27.2220   45.0340   -1.6920 O   0  0  0  0  0  0  0  0  0  0  0  0
   28.4980   45.3990   -2.0350 C   0  0  0  0  0  0  0  0  0  0  0  0
   28.9890   46.5280   -1.3690 C   0  0  0  0  0  0  0  0  0  0  0  0
   29.3200   44.7560   -2.9620 C   0  0  0  0  0  0  0  0  0  0  0  0
   28.2080   47.1810   -0.4540 O   0  0  0  0  0  0  0  0  0  0  0  0
   30.2660   47.0180   -1.6090 C   0  0  0  0  0  0  0  0  0  0  0  0
   30.6170   45.2330   -3.2200 C   0  0  0  0  0  0  0  0  0  0  0  0
   31.5010   44.5300   -4.2250 C   0  0  0  0  0  0  0  0  0  0  0  0
   31.0840   46.3700   -2.5370 C   0  0  0  0  0  0  0  0  0  0  0  0
   32.1740   45.4670   -5.1980 C   0  0  0  0  0  0  0  0  0  0  0  0
   33.3840   45.6560   -5.2420 O   0  0  0  0  0  0  0  0  0  0  0  0
   31.2610   46.0670   -6.0110 O   0  0  0  0  0  0  0  0  0  0  0  0
   30.6960   47.2610   -5.4590 C   0  0  0  0  0  0  0  0  0  0  0  0
   30.6710   48.2660   -6.4780 O   0  0  0  0  0  0  0  0  0  0  0  0
   31.3100   49.4070   -6.1260 C   0  0  0  0  0  0  0  0  0  0  0  0
   32.5010   49.6320   -6.2670 O   0  0  0  0  0  0  0  0  0  0  0  0
   30.3610   50.3880   -5.5270 C   0  0  0  0  0  0  0  0  0  0  0  0
   30.5550   50.7670   -4.1930 C   0  0  0  0  0  0  0  0  0  0  0  0
   29.2930   50.9360   -6.2590 C   0  0  0  0  0  0  0  0  0  0  0  0
   29.6850   51.6840   -3.6100 C   0  0  0  0  0  0  0  0  0  0  0  0
   28.4250   51.8570   -5.6600 C   0  0  0  0  0  0  0  0  0  0  0  0
   29.8620   52.0570   -2.3330 F   0  0  0  0  0  0  0  0  0  0  0  0
   28.6290   52.2250   -4.3360 C   0  0  0  0  0  0  0  0  0  0  0  0
   27.7730   53.1260   -3.7710 O   0  0  0  0  0  0  0  0  0  0  0  0
  1  2  1  0
  2  3  1  0
  3  4  2  0
  3  5  1  0
  4  6  1  0
  4  7  1  0
  5  8  2  0
  8  9  1  0
  7 10  2  0
  8 10  1  0
  9 11  1  0
 11 12  2  0
 11 13  1  0
 13 14  1  0
 14 15  1  0
 15 16  1  0
 16 17  2  0
 16 18  1  0
 18 19  2  0
 18 20  1  0
 19 21  1  0
 20 22  2  0
 21 23  1  0
 21 24  2  0
 22 24  1  0
 24 25  1  0
M  END
