mac-x0455-mac-x0348
     RDKit          3D

 24 26  0  0  0  0  0  0  0  0999 V2000
   30.6580   48.8790   -4.4640 C   0  0  0  0  0  0  0  0  0  0  0  0
   31.3020   47.5000   -4.7490 C   0  0  2  0  0  0  0  0  0  0  0  0
   31.8280   47.6230   -6.0870 O   0  0  0  0  0  0  0  0  0  0  0  0
   30.2550   46.2540   -4.7380 C   0  0  1  0  0  0  0  0  0  0  0  0
   32.4920   47.3080   -3.7730 C   0  0  0  0  0  0  0  0  0  0  0  0
   29.4170   46.3860   -5.8880 O   0  0  0  0  0  0  0  0  0  0  0  0
   30.9890   44.9750   -4.8740 N   0  0  0  0  0  0  0  0  0  0  0  0
   33.5250   48.2590   -3.6730 C   0  0  0  0  0  0  0  0  0  0  0  0
   32.5770   46.1660   -2.9530 C   0  0  0  0  0  0  0  0  0  0  0  0
   29.2760   46.1700   -3.5090 C   0  0  1  0  0  0  0  0  0  0  0  0
   31.7670   44.8150   -5.8710 C   0  0  0  0  0  0  0  0  0  0  0  0
   34.5930   48.0740   -2.7910 C   0  0  0  0  0  0  0  0  0  0  0  0
   33.6450   45.9830   -2.0730 C   0  0  0  0  0  0  0  0  0  0  0  0
   28.9630   44.7250   -3.0400 C   0  0  0  0  0  0  0  0  0  0  0  0
   29.6010   46.8710   -2.1490 C   0  0  1  0  0  0  0  0  0  0  0  0
   31.9070   45.7990   -6.7740 O   0  0  0  0  0  0  0  0  0  0  0  0
   34.6540   46.9380   -1.9920 C   0  0  0  0  0  0  0  0  0  0  0  0
   28.6260   44.8320   -1.6020 N   0  0  0  0  0  0  0  0  0  0  0  0
   29.6970   45.7100   -1.1230 C   0  0  2  0  0  0  0  0  0  0  0  0
   30.6700   47.8920   -1.8300 C   0  0  0  0  0  0  0  0  0  0  0  0
   27.2870   45.3770   -1.4080 C   0  0  0  0  0  0  0  0  0  0  0  0
   30.9420   48.1490   -0.5390 C   0  0  0  0  0  0  0  0  0  0  0  0
   29.6150   46.2800    0.2660 C   0  0  0  0  0  0  0  0  0  0  0  0
   30.2240   47.4520    0.5180 C   0  0  0  0  0  0  0  0  0  0  0  0
  2  1  1  1
  2  3  1  0
  2  4  1  0
  2  5  1  0
  4  6  1  6
  4  7  1  0
  5  8  2  0
  5  9  1  0
  4 10  1  0
  7 11  2  3
  8 12  1  0
  9 13  2  0
 10 14  1  1
 10 15  1  0
 11 16  1  0
 12 17  2  0
 13 17  1  0
 14 18  1  0
 15 19  1  0
 18 19  1  0
 15 20  1  6
 18 21  1  0
 20 22  2  0
 19 23  1  1
 22 24  1  0
 23 24  2  0
M  END
