mac-x0132-mac-x0321
     RDKit          3D

 14 15  0  0  0  0  0  0  0  0999 V2000
   28.5600   52.4080   -7.2920 N   0  0  0  0  0  0  0  0  0  0  0  0
   28.9160   52.8580   -6.0090 C   0  0  0  0  0  0  0  0  0  0  0  0
   28.7930   54.1760   -5.8040 N   0  0  0  0  0  0  0  0  0  0  0  0
   29.3690   51.9660   -5.0220 C   0  0  0  0  0  0  0  0  0  0  0  0
   29.6810   52.5610   -3.7890 C   0  0  0  0  0  0  0  0  0  0  0  0
   29.1260   54.6200   -4.5870 C   0  0  0  0  0  0  0  0  0  0  0  0
   29.5260   50.5580   -5.1880 C   0  0  0  0  0  0  0  0  0  0  0  0
   29.5630   53.8720   -3.5680 N   0  0  0  0  0  0  0  0  0  0  0  0
   30.1340   51.7460   -2.7570 C   0  0  0  0  0  0  0  0  0  0  0  0
   29.9940   49.7580   -4.1350 C   0  0  0  0  0  0  0  0  0  0  0  0
   30.2050   48.2810   -4.2420 C   0  0  0  0  0  0  0  0  0  0  0  0
   30.2920   50.3660   -2.9170 C   0  0  0  0  0  0  0  0  0  0  0  0
   29.8390   47.7660   -5.4300 O   0  0  0  0  0  0  0  0  0  0  0  0
   30.6760   47.5760   -3.3710 O   0  0  0  0  0  0  0  0  0  0  0  0
  1  2  1  0
  2  3  2  0
  2  4  1  0
  4  5  2  0
  3  6  1  0
  4  7  1  0
  5  8  1  0
  6  8  2  0
  5  9  1  0
  7 10  2  0
 10 11  1  0
  9 12  2  0
 10 12  1  0
 11 13  1  0
 11 14  2  0
M  END
