mac-x0496-mac-x0182
     RDKit          3D

 33 36  0  0  0  0  0  0  0  0999 V2000
   24.6350   58.4890   -6.1470 C   0  0  0  0  0  0  0  0  0  0  0  0
   25.9600   58.2370   -5.5470 C   0  0  0  0  0  0  0  0  0  0  0  0
   26.3480   58.7860   -4.3900 N   0  0  0  0  0  0  0  0  0  0  0  0
   26.8870   57.4150   -6.1370 N   0  0  0  0  0  0  0  0  0  0  0  0
   27.6410   58.2800   -4.2100 O   0  0  0  0  0  0  0  0  0  0  0  0
   27.8910   57.4740   -5.2830 C   0  0  0  0  0  0  0  0  0  0  0  0
   29.2150   56.8030   -5.3310 C   0  0  0  0  0  0  0  0  0  0  0  0
   29.0530   55.4020   -5.6920 N   0  0  0  0  0  0  0  0  0  0  0  0
   29.1120   54.4190   -4.7290 C   0  0  0  0  0  0  0  0  0  0  0  0
   29.3070   54.6700   -3.5440 O   0  0  0  0  0  0  0  0  0  0  0  0
   28.9320   53.0020   -5.1630 C   0  0  0  0  0  0  0  0  0  0  0  0
   28.3330   52.6480   -6.3780 C   0  0  0  0  0  0  0  0  0  0  0  0
   29.3910   51.9930   -4.2980 C   0  0  0  0  0  0  0  0  0  0  0  0
   28.1940   51.2990   -6.7250 C   0  0  0  0  0  0  0  0  0  0  0  0
   29.2540   50.6420   -4.6460 C   0  0  0  0  0  0  0  0  0  0  0  0
   29.7430   49.5800   -3.7420 C   0  0  0  0  0  0  0  0  0  0  0  0
   28.6530   50.2980   -5.8620 C   0  0  0  0  0  0  0  0  0  0  0  0
   30.3330   48.4590   -3.9730 N   0  0  0  0  0  0  0  0  0  0  0  0
   29.5070   49.9020   -2.4580 O   0  0  0  0  0  0  0  0  0  0  0  0
   30.7350   47.5540   -2.8740 C   0  0  0  0  0  0  0  0  0  0  0  0
   32.2730   47.3920   -2.7260 C   0  0  0  0  0  0  0  0  0  0  0  0
   32.9980   47.6770   -3.9860 N   0  0  0  0  0  0  0  0  0  0  0  0
   34.0400   46.6780   -4.5200 S   0  0  2  0  0  0  0  0  0  0  0  0
   34.4420   46.4990   -5.8940 O   0  0  0  0  0  0  0  0  0  0  0  0
   33.5150   45.1680   -4.0140 N   0  0  0  0  0  0  0  0  0  0  0  0
   35.4790   46.6700   -3.5400 C   0  0  0  0  0  0  0  0  0  0  0  0
   34.4450   44.5290   -3.2320 C   0  0  0  0  0  0  0  0  0  0  0  0
   35.5730   45.4390   -2.9010 C   0  0  0  0  0  0  0  0  0  0  0  0
   36.4150   47.6760   -3.3810 C   0  0  0  0  0  0  0  0  0  0  0  0
   34.3850   43.3720   -2.8410 O   0  0  0  0  0  0  0  0  0  0  0  0
   37.4950   47.4100   -2.5310 C   0  0  0  0  0  0  0  0  0  0  0  0
   36.6430   45.1690   -2.0560 C   0  0  0  0  0  0  0  0  0  0  0  0
   37.6080   46.1690   -1.8750 C   0  0  0  0  0  0  0  0  0  0  0  0
  1  2  1  0
  2  3  2  0
  2  4  1  0
  3  5  1  0
  4  6  2  0
  5  6  1  0
  6  7  1  0
  7  8  1  0
  8  9  1  0
  9 10  2  0
  9 11  1  0
 11 12  2  0
 11 13  1  0
 12 14  1  0
 13 15  2  0
 15 16  1  0
 14 17  2  0
 15 17  1  0
 16 18  2  3
 16 19  1  0
 18 20  1  0
 20 21  1  0
 21 22  1  0
 22 23  2  0
 23 24  2  0
 23 25  1  1
 23 26  1  0
 25 27  1  0
 26 28  2  0
 27 28  1  0
 26 29  1  0
 27 30  2  0
 29 31  2  0
 28 32  1  0
 31 33  1  0
 32 33  2  0
M  END
