mac-x0321-mac-x0213
     RDKit          3D

 21 23  0  0  0  0  0  0  0  0999 V2000
   28.5240   52.6660   -6.7050 Cl  0  0  0  0  0  0  0  0  0  0  0  0
   29.1040   51.7250   -5.3870 C   0  0  0  0  0  0  0  0  0  0  0  0
   29.2800   50.3690   -5.5700 C   0  0  0  0  0  0  0  0  0  0  0  0
   29.3920   52.3070   -4.1540 C   0  0  0  0  0  0  0  0  0  0  0  0
   29.7440   49.5550   -4.5410 C   0  0  0  0  0  0  0  0  0  0  0  0
   29.8620   51.5080   -3.1070 C   0  0  0  0  0  0  0  0  0  0  0  0
   29.8810   48.0870   -4.8580 C   0  0  1  0  0  0  0  0  0  0  0  0
   30.0420   50.1290   -3.2930 C   0  0  0  0  0  0  0  0  0  0  0  0
   30.2450   47.9450   -6.2230 O   0  0  0  0  0  0  0  0  0  0  0  0
   30.7450   47.1650   -4.0050 C   0  0  2  0  0  0  0  0  0  0  0  0
   30.8810   45.8900   -4.8690 C   0  0  1  0  0  0  0  0  0  0  0  0
   29.9080   46.6380   -2.8730 C   0  0  0  0  0  0  0  0  0  0  0  0
   32.0520   45.9260   -5.8310 C   0  0  0  0  0  0  0  0  0  0  0  0
   29.8940   45.2430   -2.8600 C   0  0  0  0  0  0  0  0  0  0  0  0
   30.7510   44.6740   -3.9550 C   0  0  0  0  0  0  0  0  0  0  0  0
   29.1990   47.3720   -1.9330 C   0  0  0  0  0  0  0  0  0  0  0  0
   33.2120   46.3500   -5.2910 O   0  0  0  0  0  0  0  0  0  0  0  0
   32.0130   45.6260   -7.0100 O   0  0  0  0  0  0  0  0  0  0  0  0
   28.4580   46.6860   -0.9770 C   0  0  0  0  0  0  0  0  0  0  0  0
   29.1540   44.5530   -1.9150 C   0  0  0  0  0  0  0  0  0  0  0  0
   28.4310   45.2870   -0.9700 C   0  0  0  0  0  0  0  0  0  0  0  0
  1  2  1  0
  2  3  2  0
  2  4  1  0
  3  5  1  0
  4  6  2  0
  5  7  1  0
  5  8  2  0
  6  8  1  0
  7  9  1  6
  7 10  1  0
 10 11  1  0
 10 12  1  1
 11 13  1  1
 12 14  2  0
 11 15  1  0
 14 15  1  0
 12 16  1  0
 13 17  1  0
 13 18  2  0
 16 19  2  0
 14 20  1  0
 19 21  1  0
 20 21  2  0
M  END
