mac-x0139-mac-x0402
     RDKit          3D

 26 29  0  0  0  0  0  0  0  0999 V2000
   31.2800   48.1570   -5.3420 C   0  0  0  0  0  0  0  0  0  0  0  0
   30.2670   47.1990   -5.8510 N   0  0  0  0  0  0  0  0  0  0  0  0
   30.6190   45.7740   -5.6100 C   0  0  0  0  0  0  0  0  0  0  0  0
   30.7070   49.5510   -5.1480 C   0  0  0  0  0  0  0  0  0  0  0  0
   29.5390   47.5300   -7.0200 C   0  0  0  0  0  0  0  0  0  0  0  0
   30.1630   49.9270   -3.9130 C   0  0  0  0  0  0  0  0  0  0  0  0
   30.7240   50.4700   -6.2120 C   0  0  0  0  0  0  0  0  0  0  0  0
   32.1070   45.5810   -5.3250 C   0  0  0  0  0  0  0  0  0  0  0  0
   28.4940   48.3880   -6.9600 C   0  0  0  0  0  0  0  0  0  0  0  0
   29.9190   46.9470   -8.2380 N   0  0  0  0  0  0  0  0  0  0  0  0
   30.1880   51.7550   -6.0060 C   0  0  0  0  0  0  0  0  0  0  0  0
   29.6330   51.2080   -3.7210 C   0  0  0  0  0  0  0  0  0  0  0  0
   32.5810   44.2840   -5.9220 C   0  0  0  0  0  0  0  0  0  0  0  0
   27.7600   48.6980   -8.2090 C   0  0  0  0  0  0  0  0  0  0  0  0
   29.2440   47.2480   -9.3060 C   0  0  0  0  0  0  0  0  0  0  0  0
   27.8120   49.1640   -5.9710 C   0  0  0  0  0  0  0  0  0  0  0  0
   29.6420   52.1410   -4.7800 C   0  0  0  0  0  0  0  0  0  0  0  0
   30.0700   53.0710   -7.1070 S   0  0  0  0  0  0  0  0  0  0  0  0
   31.8700   43.2950   -6.0530 O   0  0  0  0  0  0  0  0  0  0  0  0
   33.8760   44.2900   -6.3110 O   0  0  0  0  0  0  0  0  0  0  0  0
   28.1800   48.0980   -9.3510 N   0  0  0  0  0  0  0  0  0  0  0  0
   26.7780   49.5340   -8.0040 N   0  0  0  0  0  0  0  0  0  0  0  0
   26.8380   49.7990   -6.6370 C   0  0  0  0  0  0  0  0  0  0  0  0
   29.3210   54.0210   -5.8930 C   0  0  0  0  0  0  0  0  0  0  0  0
   29.1520   53.4380   -4.7330 N   0  0  0  0  0  0  0  0  0  0  0  0
   28.9390   55.2880   -6.1390 N   0  0  0  0  0  0  0  0  0  0  0  0
  1  2  1  0
  2  3  1  0
  1  4  1  0
  2  5  1  0
  4  6  2  0
  4  7  1  0
  3  8  1  0
  5  9  2  0
  5 10  1  0
  7 11  2  0
  6 12  1  0
  8 13  1  0
  9 14  1  0
 10 15  2  0
  9 16  1  0
 11 17  1  0
 12 17  2  0
 11 18  1  0
 13 19  2  0
 13 20  1  0
 14 21  1  0
 15 21  1  0
 14 22  2  0
 16 23  2  0
 22 23  1  0
 18 24  1  0
 17 25  1  0
 24 25  2  0
 24 26  1  0
M  END
