mac-x0204-mac-x0496
     RDKit          3D

 30 32  0  0  0  0  0  0  0  0999 V2000
   30.9270   46.7450   -6.0990 O   0  0  0  0  0  0  0  0  0  0  0  0
   30.3570   46.3650   -4.8520 C   0  0  0  0  0  0  0  0  0  0  0  0
   30.3380   44.9440   -4.8780 O   0  0  0  0  0  0  0  0  0  0  0  0
   28.8920   46.8830   -4.7750 C   0  0  0  0  0  0  0  0  0  0  0  0
   31.1790   46.8380   -3.6950 C   0  0  0  0  0  0  0  0  0  0  0  0
   28.8280   48.2920   -5.1760 N   0  0  0  0  0  0  0  0  0  0  0  0
   30.5760   46.9050   -2.4320 C   0  0  0  0  0  0  0  0  0  0  0  0
   32.5150   47.2300   -3.7800 C   0  0  0  0  0  0  0  0  0  0  0  0
   28.9880   49.3320   -4.4240 C   0  0  0  0  0  0  0  0  0  0  0  0
   31.2970   47.3460   -1.3390 C   0  0  0  0  0  0  0  0  0  0  0  0
   33.2500   47.6670   -2.7250 N   0  0  0  0  0  0  0  0  0  0  0  0
   30.7270   47.4210   -0.1040 O   0  0  0  0  0  0  0  0  0  0  0  0
   29.2540   49.3870   -3.1050 O   0  0  0  0  0  0  0  0  0  0  0  0
   32.6190   47.7150   -1.5230 C   0  0  0  0  0  0  0  0  0  0  0  0
   28.8510   50.6550   -5.0660 C   0  0  0  0  0  0  0  0  0  0  0  0
   28.4010   50.6070   -6.3890 C   0  0  0  0  0  0  0  0  0  0  0  0
   29.1270   51.8890   -4.4600 C   0  0  0  0  0  0  0  0  0  0  0  0
   28.2200   51.7720   -7.1270 C   0  0  0  0  0  0  0  0  0  0  0  0
   28.9370   53.0610   -5.2230 C   0  0  0  0  0  0  0  0  0  0  0  0
   29.2120   54.3860   -4.6400 C   0  0  0  0  0  0  0  0  0  0  0  0
   28.4880   52.9990   -6.5430 C   0  0  0  0  0  0  0  0  0  0  0  0
   29.1830   55.4810   -5.4770 N   0  0  0  0  0  0  0  0  0  0  0  0
   29.4550   54.5040   -3.4430 O   0  0  0  0  0  0  0  0  0  0  0  0
   29.2510   56.8950   -5.1340 C   0  0  0  0  0  0  0  0  0  0  0  0
   27.9070   57.5330   -5.1700 C   0  0  0  0  0  0  0  0  0  0  0  0
   27.5790   58.3520   -4.1250 O   0  0  0  0  0  0  0  0  0  0  0  0
   26.9500   57.4360   -6.0720 N   0  0  0  0  0  0  0  0  0  0  0  0
   25.9750   58.2440   -5.5470 C   0  0  0  0  0  0  0  0  0  0  0  0
   26.2870   58.8250   -4.3810 N   0  0  0  0  0  0  0  0  0  0  0  0
   24.6770   58.4570   -6.2180 C   0  0  0  0  0  0  0  0  0  0  0  0
  2  1  1  0
  2  3  1  0
  2  4  1  0
  2  5  1  0
  4  6  1  0
  5  7  2  0
  5  8  1  0
  6  9  2  3
  7 10  1  0
  8 11  2  0
 10 12  1  0
  9 13  1  0
 10 14  2  0
 11 14  1  0
  9 15  1  0
 15 16  2  0
 15 17  1  0
 16 18  1  0
 17 19  2  0
 19 20  1  0
 18 21  2  0
 19 21  1  0
 20 22  1  0
 20 23  2  0
 22 24  1  0
 24 25  1  0
 25 26  1  0
 25 27  2  0
 27 28  1  0
 26 29  1  0
 28 29  2  0
 28 30  1  0
M  END
