mac-x0347-mac-x0361
     RDKit          3D

 24 26  0  0  0  0  0  0  0  0999 V2000
   30.2720   44.6730   -4.6420 O   0  0  0  0  0  0  0  0  0  0  0  0
   30.5140   45.6420   -5.5470 C   0  0  0  0  0  0  0  0  0  0  0  0
   30.3460   45.4260   -6.7370 O   0  0  0  0  0  0  0  0  0  0  0  0
   30.9940   46.9310   -4.9130 C   0  0  1  0  0  0  0  0  0  0  0  0
   30.9330   48.1030   -5.9060 C   0  0  0  0  0  0  0  0  0  0  0  0
   30.2520   47.2350   -3.6060 C   0  0  0  0  0  0  0  0  0  0  0  0
   31.4710   49.4180   -5.3070 C   0  0  2  0  0  0  0  0  0  0  0  0
   30.1820   48.6860   -3.3950 N   0  0  0  0  0  0  0  0  0  0  0  0
   31.4400   49.3470   -3.7670 C   0  0  0  0  0  0  0  0  0  0  0  0
   30.7690   50.6520   -5.8820 C   0  0  0  0  0  0  0  0  0  0  0  0
   29.0830   49.3040   -3.9610 C   0  0  0  0  0  0  0  0  0  0  0  0
   29.5840   50.5270   -6.6330 C   0  0  0  0  0  0  0  0  0  0  0  0
   31.2900   51.9390   -5.6760 C   0  0  0  0  0  0  0  0  0  0  0  0
   28.0560   50.1590   -4.4960 C   0  0  0  0  0  0  0  0  0  0  0  0
   29.9650   50.3620   -3.5210 C   0  0  0  0  0  0  0  0  0  0  0  0
   28.9460   51.6560   -7.1580 C   0  0  0  0  0  0  0  0  0  0  0  0
   30.6500   53.0650   -6.2020 C   0  0  0  0  0  0  0  0  0  0  0  0
   27.9110   51.5510   -4.6040 C   0  0  0  0  0  0  0  0  0  0  0  0
   29.9090   51.7630   -3.5770 C   0  0  0  0  0  0  0  0  0  0  0  0
   29.4790   52.9230   -6.9430 C   0  0  0  0  0  0  0  0  0  0  0  0
   28.8590   52.3870   -4.1390 C   0  0  0  0  0  0  0  0  0  0  0  0
   28.8000   53.8730   -4.2160 C   0  0  0  0  0  0  0  0  0  0  0  0
   28.1100   54.4230   -5.2630 N   0  0  0  0  0  0  0  0  0  0  0  0
   29.3470   54.5890   -3.3860 O   0  0  0  0  0  0  0  0  0  0  0  0
  1  2  1  0
  2  3  2  0
  4  2  1  6
  4  5  1  0
  4  6  1  0
  5  7  1  0
  6  8  1  0
  7  9  1  0
  8  9  1  0
  7 10  1  6
  8 11  1  0
 10 12  2  0
 10 13  1  0
 11 14  2  0
 11 15  1  0
 12 16  1  0
 13 17  2  0
 14 18  1  0
 15 19  2  0
 16 20  2  0
 17 20  1  0
 18 21  2  0
 19 21  1  0
 21 22  1  0
 22 23  1  0
 22 24  2  0
M  END
