mac-x0439-mac-x0404
     RDKit          3D

 21 23  0  0  0  0  0  0  0  0999 V2000
   29.4840   48.6500   -2.3900 Cl  0  0  0  0  0  0  0  0  0  0  0  0
   30.0460   46.9680   -2.1010 C   0  0  1  0  0  0  0  0  0  0  0  0
   28.8820   45.9440   -1.9010 C   0  0  0  0  0  0  0  0  0  0  0  0
   31.0750   46.5750   -3.2190 C   0  0  2  0  0  0  0  0  0  0  0  0
   30.9510   46.9940   -0.8900 C   0  0  0  0  0  0  0  0  0  0  0  0
   31.1310   45.1610   -3.4190 O   0  0  0  0  0  0  0  0  0  0  0  0
   29.1390   44.4640   -2.0280 C   0  0  0  0  0  0  0  0  0  0  0  0
   32.2430   47.0880   -1.2280 C   0  0  0  0  0  0  0  0  0  0  0  0
   32.4140   47.1380   -2.7100 C   0  0  0  0  0  0  0  0  0  0  0  0
   32.1820   44.6990   -4.2580 C   0  0  0  0  0  0  0  0  0  0  0  0
   29.1230   43.6590   -3.1060 C   0  0  0  0  0  0  0  0  0  0  0  0
   32.0570   45.2090   -5.6920 C   0  0  0  0  0  0  0  0  0  0  0  0
   28.8450   43.9360   -4.5810 C   0  0  1  0  0  0  0  0  0  0  0  0
   30.8360   45.2410   -6.2790 O   0  0  0  0  0  0  0  0  0  0  0  0
   33.0510   45.5870   -6.3120 O   0  0  0  0  0  0  0  0  0  0  0  0
   29.6860   43.1630   -5.6340 C   0  0  2  0  0  0  0  0  0  0  0  0
   27.3740   43.5770   -4.9350 C   0  0  0  0  0  0  0  0  0  0  0  0
   30.1510   44.0850   -6.7920 C   0  0  2  0  0  0  0  0  0  0  0  0
   28.7460   42.0700   -6.0850 C   0  0  0  0  0  0  0  0  0  0  0  0
   27.4880   42.3000   -5.7020 C   0  0  0  0  0  0  0  0  0  0  0  0
   31.0200   43.4240   -7.7110 O   0  0  0  0  0  0  0  0  0  0  0  0
  2  1  1  6
  2  3  1  0
  2  4  1  0
  2  5  1  0
  4  6  1  0
  3  7  1  0
  5  8  2  0
  4  9  1  1
  8  9  1  0
  6 10  1  0
  7 11  2  0
 10 12  1  0
 13 11  1  1
 12 14  1  0
 12 15  2  0
 13 16  1  0
 13 17  1  0
 14 18  1  0
 16 18  1  0
 16 19  1  6
 17 20  1  0
 19 20  2  0
 18 21  1  6
M  END
