mac-x0182-mac-x0584
     RDKit          3D

 30 35  0  0  0  0  0  0  0  0999 V2000
   35.6760   42.6890   -2.4360 O   0  0  0  0  0  0  0  0  0  0  0  0
   35.3830   43.8650   -2.3110 C   0  0  0  0  0  0  0  0  0  0  0  0
   34.4280   44.3600   -1.4590 N   0  0  0  0  0  0  0  0  0  0  0  0
   36.0330   44.9500   -3.0830 C   0  0  0  0  0  0  0  0  0  0  0  0
   34.2100   46.0160   -1.6690 S   0  0  2  0  0  0  0  0  0  0  0  0
   35.4850   46.2020   -2.8270 C   0  0  0  0  0  0  0  0  0  0  0  0
   37.0770   44.8150   -3.9820 C   0  0  0  0  0  0  0  0  0  0  0  0
   34.6060   46.6100   -0.4170 O   0  0  0  0  0  0  0  0  0  0  0  0
   32.8680   46.0920   -2.3910 N   0  0  0  0  0  0  0  0  0  0  0  0
   35.9340   47.3590   -3.4340 C   0  0  0  0  0  0  0  0  0  0  0  0
   37.5550   45.9680   -4.6140 C   0  0  0  0  0  0  0  0  0  0  0  0
   36.9880   47.2310   -4.3420 C   0  0  0  0  0  0  0  0  0  0  0  0
   32.7230   46.5310   -3.7860 C   0  0  1  0  0  0  0  0  0  0  0  0
   33.7540   46.0700   -4.8520 C   0  0  0  0  0  0  0  0  0  0  0  0
   31.7030   45.6280   -4.5450 C   0  0  2  0  0  0  0  0  0  0  0  0
   32.5600   45.8950   -5.8170 C   0  0  0  0  0  0  0  0  0  0  0  0
   30.2180   45.9710   -4.4670 C   0  0  1  0  0  0  0  0  0  0  0  0
   29.6300   45.8220   -3.0570 C   0  0  0  0  0  0  0  0  0  0  0  0
   29.9370   47.3800   -4.8210 N   0  0  0  0  0  0  0  0  0  0  0  0
   29.5640   48.1290   -3.6090 C   0  0  0  0  0  0  0  0  0  0  0  0
   29.8630   47.1900   -2.4490 C   0  0  0  0  0  0  0  0  0  0  0  0
   29.6830   47.8770   -6.1010 C   0  0  0  0  0  0  0  0  0  0  0  0
   29.2470   47.0020   -7.0870 N   0  0  0  0  0  0  0  0  0  0  0  0
   29.8170   49.1570   -6.5050 C   0  0  0  0  0  0  0  0  0  0  0  0
   28.9810   47.4010   -8.3660 C   0  0  0  0  0  0  0  0  0  0  0  0
   29.5030   49.5240   -7.9150 C   0  0  0  0  0  0  0  0  0  0  0  0
   30.2080   50.4130   -5.9420 C   0  0  0  0  0  0  0  0  0  0  0  0
   29.0820   48.6010   -8.8290 N   0  0  0  0  0  0  0  0  0  0  0  0
   29.6770   50.7940   -8.1570 N   0  0  0  0  0  0  0  0  0  0  0  0
   30.1030   51.3070   -6.9400 C   0  0  0  0  0  0  0  0  0  0  0  0
  1  2  2  0
  2  3  1  0
  2  4  1  0
  5  3  1  1
  4  6  2  0
  5  6  1  0
  4  7  1  0
  5  8  2  0
  5  9  2  0
  6 10  1  0
  7 11  2  0
 10 12  2  0
 11 12  1  0
 13  9  1  1
 13 14  1  0
 13 15  1  0
 14 16  1  0
 15 16  1  6
 15 17  1  0
 17 18  1  1
 17 19  1  0
 19 20  1  0
 18 21  1  0
 20 21  1  0
 19 22  1  0
 22 23  1  0
 22 24  2  0
 23 25  1  0
 24 26  1  0
 24 27  1  0
 25 28  2  0
 26 28  1  0
 26 29  2  0
 27 30  2  0
 29 30  1  0
M  END
