mac-x0564-mac-x0358
     RDKit          3D

 24 27  0  0  0  0  0  0  0  0999 V2000
   31.8520   46.8060   -5.6840 N   0  0  0  0  0  0  0  0  0  0  0  0
   32.2730   45.5160   -5.8850 C   0  0  0  0  0  0  0  0  0  0  0  0
   31.9990   44.8590   -6.8860 O   0  0  0  0  0  0  0  0  0  0  0  0
   30.7150   46.9590   -5.0900 C   0  0  0  0  0  0  0  0  0  0  0  0
   33.1300   44.9420   -4.7600 C   0  0  0  0  0  0  0  0  0  0  0  0
   30.1870   48.2640   -4.8080 C   0  0  0  0  0  0  0  0  0  0  0  0
   29.8980   45.9260   -4.6530 N   0  0  0  0  0  0  0  0  0  0  0  0
   29.1940   48.4900   -3.8960 C   0  0  0  0  0  0  0  0  0  0  0  0
   28.9720   46.2200   -3.7890 C   0  0  0  0  0  0  0  0  0  0  0  0
   30.5880   49.4280   -5.3850 O   0  0  0  0  0  0  0  0  0  0  0  0
   33.1830   45.7900   -3.5050 C   0  0  0  0  0  0  0  0  0  0  0  0
   28.6690   47.4470   -3.2260 N   0  0  0  0  0  0  0  0  0  0  0  0
   29.8230   50.4100   -4.8140 C   0  0  0  0  0  0  0  0  0  0  0  0
   28.9340   49.8730   -3.8740 C   0  0  0  0  0  0  0  0  0  0  0  0
   34.3040   46.5770   -3.2010 C   0  0  0  0  0  0  0  0  0  0  0  0
   32.0990   45.8020   -2.6170 C   0  0  0  0  0  0  0  0  0  0  0  0
   35.3660   46.5700   -4.0590 O   0  0  0  0  0  0  0  0  0  0  0  0
   28.0710   50.7450   -3.1910 C   0  0  0  0  0  0  0  0  0  0  0  0
   29.9040   51.7690   -5.1130 C   0  0  0  0  0  0  0  0  0  0  0  0
   34.3390   47.3550   -2.0420 C   0  0  0  0  0  0  0  0  0  0  0  0
   32.1320   46.5790   -1.4560 C   0  0  0  0  0  0  0  0  0  0  0  0
   28.1340   52.1170   -3.4730 C   0  0  0  0  0  0  0  0  0  0  0  0
   29.0390   52.6170   -4.4220 C   0  0  0  0  0  0  0  0  0  0  0  0
   33.2530   47.3560   -1.1720 C   0  0  0  0  0  0  0  0  0  0  0  0
  1  2  1  0
  2  3  2  0
  1  4  2  3
  2  5  1  0
  4  6  1  0
  4  7  1  0
  6  8  2  0
  7  9  2  0
  6 10  1  0
  5 11  1  0
  8 12  1  0
  9 12  1  0
 10 13  1  0
  8 14  1  0
 13 14  2  0
 11 15  2  0
 11 16  1  0
 15 17  1  0
 14 18  1  0
 13 19  1  0
 15 20  1  0
 16 21  2  0
 18 22  2  0
 19 23  2  0
 22 23  1  0
 20 24  2  0
 21 24  1  0
M  END
