mac-x0510-mac-x0302
     RDKit          3D

 18 19  0  0  0  0  0  0  0  0999 V2000
   28.8890   53.4880   -5.8270 O   0  0  0  0  0  0  0  0  0  0  0  0
   28.9490   52.2720   -6.0020 C   0  0  0  0  0  0  0  0  0  0  0  0
   29.3580   51.4010   -5.0020 N   0  0  0  0  0  0  0  0  0  0  0  0
   28.6170   51.6940   -7.1980 N   0  0  0  0  0  0  0  0  0  0  0  0
   29.6900   52.0200   -3.7700 O   0  0  0  0  0  0  0  0  0  0  0  0
   28.5810   50.3610   -7.3470 C   0  0  0  0  0  0  0  0  0  0  0  0
   29.3370   50.0130   -5.0910 C   0  0  0  0  0  0  0  0  0  0  0  0
   29.7240   49.0970   -3.9580 C   0  0  0  0  0  0  0  0  0  0  0  0
   28.9500   49.4660   -6.2570 C   0  0  0  0  0  0  0  0  0  0  0  0
   28.2360   49.6930   -8.4000 N   0  0  0  0  0  0  0  0  0  0  0  0
   29.9030   47.7720   -4.3020 N   0  0  0  0  0  0  0  0  0  0  0  0
   29.8760   49.4850   -2.8000 O   0  0  0  0  0  0  0  0  0  0  0  0
   28.7930   48.1980   -6.7500 N   0  0  0  0  0  0  0  0  0  0  0  0
   28.3860   48.3780   -7.9740 C   0  0  0  0  0  0  0  0  0  0  0  0
   31.0800   47.0280   -3.8700 C   0  0  0  0  0  0  0  0  0  0  0  0
   31.2830   45.7790   -4.7240 C   0  0  0  0  0  0  0  0  0  0  0  0
   30.8630   44.6550   -4.1100 O   0  0  0  0  0  0  0  0  0  0  0  0
   31.7670   45.7240   -5.8460 O   0  0  0  0  0  0  0  0  0  0  0  0
  1  2  2  0
  2  3  1  0
  2  4  1  0
  3  5  1  0
  4  6  1  0
  3  7  1  0
  7  8  1  0
  6  9  1  0
  7  9  2  0
  6 10  2  0
  8 11  1  0
  8 12  2  0
  9 13  1  0
 10 14  1  0
 13 14  2  0
 11 15  1  0
 15 16  1  0
 16 17  1  0
 16 18  2  0
M  END
