mac-x0346-mac-x0433
     RDKit          3D

 11 11  0  0  0  0  0  0  0  0999 V2000
   29.8290   55.5640   -4.4900 O   0  0  0  0  0  0  0  0  0  0  0  0
   29.0060   54.4150   -4.4230 N   0  0  0  0  0  0  0  0  0  0  0  0
   29.6750   53.2370   -4.1720 C   0  0  0  0  0  0  0  0  0  0  0  0
   30.5920   53.1550   -3.3590 O   0  0  0  0  0  0  0  0  0  0  0  0
   29.2060   52.0750   -4.9610 C   0  0  0  0  0  0  0  0  0  0  0  0
   29.3120   50.7720   -4.4660 C   0  0  0  0  0  0  0  0  0  0  0  0
   28.6460   52.2960   -6.2290 C   0  0  0  0  0  0  0  0  0  0  0  0
   29.8560   50.5400   -3.2370 O   0  0  0  0  0  0  0  0  0  0  0  0
   28.8620   49.6930   -5.2290 C   0  0  0  0  0  0  0  0  0  0  0  0
   28.1960   51.2160   -6.9900 C   0  0  0  0  0  0  0  0  0  0  0  0
   28.3040   49.9180   -6.4920 C   0  0  0  0  0  0  0  0  0  0  0  0
  1  2  1  0
  2  3  1  0
  3  4  2  0
  3  5  1  0
  5  6  2  0
  5  7  1  0
  6  8  1  0
  6  9  1  0
  7 10  2  0
  9 11  2  0
 10 11  1  0
M  END
