mac-x1493-mac-x0341
     RDKit          3D

 20 22  0  0  0  0  0  0  0  0999 V2000
   29.9610   47.6240   -4.3050 O   0  0  0  0  0  0  0  0  0  0  0  0
   30.1980   48.4380   -3.2580 C   0  0  0  0  0  0  0  0  0  0  0  0
   30.5840   48.0450   -2.1720 O   0  0  0  0  0  0  0  0  0  0  0  0
   29.9510   49.8660   -3.5400 C   0  0  0  0  0  0  0  0  0  0  0  0
   29.6420   50.2620   -4.8340 C   0  0  0  0  0  0  0  0  0  0  0  0
   30.0120   50.8410   -2.5630 C   0  0  0  0  0  0  0  0  0  0  0  0
   29.4000   51.6130   -5.1390 C   0  0  0  0  0  0  0  0  0  0  0  0
   29.7860   52.1530   -2.8060 N   0  0  0  0  0  0  0  0  0  0  0  0
   29.4850   52.5170   -4.0850 C   0  0  0  0  0  0  0  0  0  0  0  0
   29.0650   52.0110   -6.5720 C   0  0  0  0  0  0  0  0  0  0  0  0
   29.2430   53.9690   -4.3030 C   0  0  0  0  0  0  0  0  0  0  0  0
   28.9630   53.5870   -6.7890 C   0  0  1  0  0  0  0  0  0  0  0  0
   27.7560   51.3240   -7.0010 C   0  0  0  0  0  0  0  0  0  0  0  0
   30.2090   51.4310   -7.4040 C   0  0  0  0  0  0  0  0  0  0  0  0
   28.1230   54.0330   -7.9290 N   0  0  0  0  0  0  0  0  0  0  0  0
   29.6390   54.8140   -3.5050 O   0  0  0  0  0  0  0  0  0  0  0  0
   28.4960   54.3550   -5.5480 C   0  0  0  0  0  0  0  0  0  0  0  0
   27.7270   50.0960   -7.5530 C   0  0  0  0  0  0  0  0  0  0  0  0
   30.1620   50.2040   -7.9500 C   0  0  0  0  0  0  0  0  0  0  0  0
   28.9730   49.3000   -7.8010 C   0  0  0  0  0  0  0  0  0  0  0  0
  1  2  1  0
  2  3  2  0
  2  4  1  0
  4  5  2  0
  4  6  1  0
  5  7  1  0
  6  8  2  0
  7  9  2  0
  8  9  1  0
  7 10  1  0
  9 11  1  0
 10 12  1  0
 10 13  1  0
 10 14  1  0
 12 15  1  6
 11 16  2  0
 11 17  1  0
 12 17  1  0
 13 18  2  0
 14 19  2  0
 18 20  1  0
 19 20  1  0
M  END
