mac-x0397-mac-x0206
     RDKit          3D

 14 15  0  0  0  0  0  0  0  0999 V2000
   30.0690   51.9980   -2.2500 Cl  0  0  0  0  0  0  0  0  0  0  0  0
   30.8140   51.3670   -3.7500 C   0  0  2  0  0  0  0  0  0  0  0  0
   30.2260   51.9930   -5.0460 C   0  0  2  0  0  0  0  0  0  0  0  0
   30.6420   49.8680   -3.7670 C   0  0  0  0  0  0  0  0  0  0  0  0
   28.7750   52.1190   -5.2570 N   0  0  0  0  0  0  0  0  0  0  0  0
   30.7780   51.2590   -6.2750 C   0  0  2  0  0  0  0  0  0  0  0  0
   30.4820   49.1510   -4.8930 C   0  0  0  0  0  0  0  0  0  0  0  0
   27.7850   51.5970   -4.4620 C   0  0  0  0  0  0  0  0  0  0  0  0
   28.4520   52.3470   -6.6510 C   0  0  2  0  0  0  0  0  0  0  0  0
   30.0120   52.2270   -7.5830 S   0  0  0  0  0  0  0  0  0  0  0  0
   30.4540   49.7580   -6.2770 C   0  0  0  0  0  0  0  0  0  0  0  0
   27.9530   53.6920   -6.7720 N   0  0  0  0  0  0  0  0  0  0  0  0
   26.9660   50.6770   -5.0380 N   0  0  0  0  0  0  0  0  0  0  0  0
   27.5790   51.8980   -3.2910 O   0  0  0  0  0  0  0  0  0  0  0  0
  2  1  1  1
  2  3  1  0
  2  4  1  0
  3  5  1  1
  3  6  1  0
  4  7  2  0
  5  8  1  0
  5  9  1  0
  6 10  1  0
  9 10  1  0
  6 11  1  1
  7 11  1  0
  9 12  1  1
  8 13  1  0
  8 14  2  0
M  END
