mac-x0565-mac-x0226
     RDKit          3D

 27 30  0  0  0  0  0  0  0  0999 V2000
   28.9070   52.9020   -5.6090 O   0  0  0  0  0  0  0  0  0  0  0  0
   29.5690   52.8730   -4.4390 C   0  0  0  0  0  0  0  0  0  0  0  0
   29.9760   53.8970   -3.9210 O   0  0  0  0  0  0  0  0  0  0  0  0
   29.7250   51.5030   -3.8890 C   0  0  0  0  0  0  0  0  0  0  0  0
   29.8770   50.4360   -4.7970 C   0  0  0  0  0  0  0  0  0  0  0  0
   29.7220   51.2600   -2.4980 C   0  0  0  0  0  0  0  0  0  0  0  0
   30.0230   49.1510   -4.2950 C   0  0  0  0  0  0  0  0  0  0  0  0
   29.8700   49.9600   -2.0050 C   0  0  0  0  0  0  0  0  0  0  0  0
   30.0160   48.9410   -2.9250 C   0  0  0  0  0  0  0  0  0  0  0  0
   30.1890   47.9450   -4.9850 N   0  0  0  0  0  0  0  0  0  0  0  0
   31.3200   47.8050   -5.8890 C   0  0  0  0  0  0  0  0  0  0  0  0
   30.1690   47.6190   -2.6060 O   0  0  0  0  0  0  0  0  0  0  0  0
   30.0450   46.9740   -3.9000 C   0  0  0  0  0  0  0  0  0  0  0  0
   31.6700   46.4310   -6.0470 O   0  0  0  0  0  0  0  0  0  0  0  0
   33.0110   46.2250   -6.1500 C   0  0  0  0  0  0  0  0  0  0  0  0
   33.7200   46.6900   -7.0350 O   0  0  0  0  0  0  0  0  0  0  0  0
   33.5190   45.3830   -5.0840 C   0  0  0  0  0  0  0  0  0  0  0  0
   33.1130   44.0980   -4.6830 C   0  0  0  0  0  0  0  0  0  0  0  0
   34.5470   45.6880   -4.2150 C   0  0  0  0  0  0  0  0  0  0  0  0
   33.8190   43.6290   -3.6520 N   0  0  0  0  0  0  0  0  0  0  0  0
   34.7070   44.6150   -3.3620 N   0  0  0  0  0  0  0  0  0  0  0  0
   35.6440   44.4720   -2.3000 C   0  0  0  0  0  0  0  0  0  0  0  0
   36.4860   45.5440   -1.9740 C   0  0  0  0  0  0  0  0  0  0  0  0
   35.7390   43.2760   -1.5710 C   0  0  0  0  0  0  0  0  0  0  0  0
   37.4110   45.4270   -0.9340 C   0  0  0  0  0  0  0  0  0  0  0  0
   36.6680   43.1650   -0.5310 C   0  0  0  0  0  0  0  0  0  0  0  0
   37.5000   44.2380   -0.2130 C   0  0  0  0  0  0  0  0  0  0  0  0
  1  2  1  0
  2  3  2  0
  2  4  1  0
  4  5  2  0
  4  6  1  0
  5  7  1  0
  6  8  2  0
  7  9  2  0
  8  9  1  0
  7 10  1  0
 10 11  1  0
  9 12  1  0
 10 13  1  0
 12 13  1  0
 11 14  1  0
 14 15  1  0
 15 16  2  0
 15 17  1  0
 17 18  1  0
 17 19  2  0
 18 20  2  0
 19 21  1  0
 20 21  1  0
 21 22  1  0
 22 23  2  0
 22 24  1  0
 23 25  1  0
 24 26  2  0
 25 27  2  0
 26 27  1  0
M  END
