mac-x0277-mac-x0397
     RDKit          3D

 26 28  0  0  0  0  0  0  0  0999 V2000
   27.3980   46.3610   -1.0080 Cl  0  0  0  0  0  0  0  0  0  0  0  0
   28.8150   46.1150   -1.9670 C   0  0  0  0  0  0  0  0  0  0  0  0
   29.9700   46.9190   -1.8610 C   0  0  0  0  0  0  0  0  0  0  0  0
   28.7700   45.0540   -2.8750 C   0  0  0  0  0  0  0  0  0  0  0  0
   30.1120   48.0920   -0.9040 C   0  0  0  0  0  0  0  0  0  0  0  0
   31.0630   46.6110   -2.6990 C   0  0  0  0  0  0  0  0  0  0  0  0
   29.8630   44.7670   -3.6920 C   0  0  0  0  0  0  0  0  0  0  0  0
   28.8140   48.8420   -0.5550 C   0  0  0  0  0  0  0  0  0  0  0  0
   31.0230   45.5410   -3.6110 C   0  0  0  0  0  0  0  0  0  0  0  0
   32.2170   45.2300   -4.4900 C   0  0  0  0  0  0  0  0  0  0  0  0
   28.5860   50.2020   -1.2310 C   0  0  0  0  0  0  0  0  0  0  0  0
   32.2360   45.9190   -5.8340 C   0  0  0  0  0  0  0  0  0  0  0  0
   29.7520   51.1990   -1.2000 C   0  0  0  0  0  0  0  0  0  0  0  0
   33.3610   46.6490   -6.0010 O   0  0  0  0  0  0  0  0  0  0  0  0
   31.4010   45.8800   -6.7230 O   0  0  0  0  0  0  0  0  0  0  0  0
   29.8220   52.0890   -2.4450 C   0  0  0  0  0  0  0  0  0  0  0  0
   29.7070   51.2590   -3.7030 C   0  0  0  0  0  0  0  0  0  0  0  0
   29.3340   51.8090   -4.9560 C   0  0  0  0  0  0  0  0  0  0  0  0
   29.9760   49.8780   -3.6340 C   0  0  0  0  0  0  0  0  0  0  0  0
   29.0340   53.1420   -5.2090 N   0  0  0  0  0  0  0  0  0  0  0  0
   29.2510   50.9690   -6.0690 C   0  0  0  0  0  0  0  0  0  0  0  0
   29.8860   49.0640   -4.7550 C   0  0  0  0  0  0  0  0  0  0  0  0
   28.7310   53.3080   -6.4700 C   0  0  0  0  0  0  0  0  0  0  0  0
   28.7850   51.8990   -7.4390 S   0  0  0  0  0  0  0  0  0  0  0  0
   29.5210   49.5930   -5.9900 C   0  0  0  0  0  0  0  0  0  0  0  0
   28.3960   54.5010   -6.9890 N   0  0  0  0  0  0  0  0  0  0  0  0
  1  2  1  0
  2  3  2  0
  2  4  1  0
  3  5  1  0
  3  6  1  0
  4  7  2  0
  5  8  1  0
  6  9  2  0
  7  9  1  0
  9 10  1  0
  8 11  1  0
 10 12  1  0
 11 13  1  0
 12 14  1  0
 12 15  2  0
 13 16  1  0
 16 17  1  0
 17 18  1  0
 17 19  2  0
 18 20  1  0
 18 21  2  0
 19 22  1  0
 20 23  2  0
 21 24  1  0
 23 24  1  0
 21 25  1  0
 22 25  2  0
 23 26  1  0
M  END
