mac-x0360-mac-x0148
     RDKit          3D

 29 33  0  0  0  0  0  0  0  0999 V2000
   31.2410   55.2540   -8.5420 Cl  0  0  0  0  0  0  0  0  0  0  0  0
   31.5750   53.8650   -7.5180 C   0  0  0  0  0  0  0  0  0  0  0  0
   32.8880   53.6190   -7.1360 C   0  0  0  0  0  0  0  0  0  0  0  0
   30.5820   53.0030   -7.0730 C   0  0  0  0  0  0  0  0  0  0  0  0
   30.8620   51.9260   -6.2750 C   0  0  0  0  0  0  0  0  0  0  0  0
   33.1730   52.5580   -6.3500 C   0  0  0  0  0  0  0  0  0  0  0  0
   34.8150   52.2290   -5.8580 Cl  0  0  0  0  0  0  0  0  0  0  0  0
   29.5410   50.8860   -5.7530 S   0  0  0  0  0  0  0  0  0  0  0  0
   32.1820   51.7180   -5.9190 C   0  0  0  0  0  0  0  0  0  0  0  0
   28.4490   50.3790   -6.7290 N   0  0  0  0  0  0  0  0  0  0  0  0
   28.4540   52.3440   -4.6150 O   0  0  0  0  0  0  0  0  0  0  0  0
   30.0190   49.9440   -4.3270 C   0  0  0  0  0  0  0  0  0  0  0  0
   30.2010   49.1170   -5.3120 C   0  0  0  0  0  0  0  0  0  0  0  0
   29.6600   51.1680   -4.2070 C   0  0  0  0  0  0  0  0  0  0  0  0
   29.8590   50.1360   -6.3240 C   0  0  0  0  0  0  0  0  0  0  0  0
   30.5550   47.8260   -5.5850 C   0  0  0  0  0  0  0  0  0  0  0  0
   29.5350   51.3290   -5.5850 N   0  0  0  0  0  0  0  0  0  0  0  0
   30.9020   46.8080   -4.6570 N   0  0  0  0  0  0  0  0  0  0  0  0
   30.5670   47.5170   -6.9360 N   0  0  0  0  0  0  0  0  0  0  0  0
   29.9370   49.7050   -7.6150 N   0  0  0  0  0  0  0  0  0  0  0  0
   31.3250   47.2320   -3.3810 C   0  0  1  0  0  0  0  0  0  0  0  0
   31.3080   45.5450   -5.2860 C   0  0  0  0  0  0  0  0  0  0  0  0
   30.2820   48.4340   -7.8740 C   0  0  0  0  0  0  0  0  0  0  0  0
   30.1480   47.0450   -2.3680 C   0  0  0  0  0  0  0  0  0  0  0  0
   32.4380   46.4690   -2.7330 C   0  0  1  0  0  0  0  0  0  0  0  0
   32.6530   45.0990   -4.8590 C   0  0  0  0  0  0  0  0  0  0  0  0
   31.8050   46.0750   -1.4160 C   0  0  0  0  0  0  0  0  0  0  0  0
   30.4980   45.7970   -1.7900 O   0  0  0  0  0  0  0  0  0  0  0  0
   32.8580   45.1900   -3.3890 C   0  0  0  0  0  0  0  0  0  0  0  0
  1  2  1  0
  2  3  2  0
  2  4  1  0
  4  5  2  0
  3  6  1  0
  6  7  1  0
  5  8  1  0
  5  9  1  0
  6  9  2  0
  8 10  1  0
  8 11  2  0
  8 12  1  0
 12 13  1  0
 12 14  2  0
 13 15  1  0
 13 16  2  0
 14 17  1  0
 15 17  2  0
 16 18  1  0
 16 19  1  0
 15 20  1  0
 18 21  1  0
 18 22  1  0
 19 23  1  0
 20 23  2  0
 21 24  1  1
 21 25  1  0
 22 26  1  0
 25 27  1  1
 24 28  1  0
 27 28  1  0
 25 29  1  0
 26 29  1  0
M  END
