mac-x0417-mac-x0333
     RDKit          3D

 26 29  0  0  0  0  0  0  0  0999 V2000
   32.0800   45.0660   -6.3410 O   0  0  0  0  0  0  0  0  0  0  0  0
   33.2370   45.3020   -5.6820 C   0  0  0  0  0  0  0  0  0  0  0  0
   34.2810   45.3620   -6.3130 O   0  0  0  0  0  0  0  0  0  0  0  0
   33.0450   45.4660   -4.1800 C   0  0  2  0  0  0  0  0  0  0  0  0
   32.4840   46.8700   -3.8670 C   0  0  0  0  0  0  0  0  0  0  0  0
   34.3100   45.1410   -3.4440 C   0  0  0  0  0  0  0  0  0  0  0  0
   31.3900   46.9330   -2.7900 C   0  0  0  0  0  0  0  0  0  0  0  0
   34.5730   43.8850   -3.0400 N   0  0  0  0  0  0  0  0  0  0  0  0
   35.3600   46.0260   -3.0770 C   0  0  0  0  0  0  0  0  0  0  0  0
   30.6860   48.2830   -2.6580 C   0  0  0  0  0  0  0  0  0  0  0  0
   35.8020   43.9390   -2.4020 O   0  0  0  0  0  0  0  0  0  0  0  0
   36.2720   45.2150   -2.4240 C   0  0  0  0  0  0  0  0  0  0  0  0
   35.6560   47.3970   -3.2120 C   0  0  0  0  0  0  0  0  0  0  0  0
   29.8120   48.4630   -3.7690 O   0  0  0  0  0  0  0  0  0  0  0  0
   37.4750   45.6580   -1.8850 C   0  0  0  0  0  0  0  0  0  0  0  0
   36.8570   47.8770   -2.6800 C   0  0  0  0  0  0  0  0  0  0  0  0
   37.7530   47.0230   -2.0280 C   0  0  0  0  0  0  0  0  0  0  0  0
   29.6490   49.7400   -4.2380 C   0  0  0  0  0  0  0  0  0  0  0  0
   29.9070   50.9100   -3.5190 C   0  0  0  0  0  0  0  0  0  0  0  0
   29.1790   49.8140   -5.5640 C   0  0  0  0  0  0  0  0  0  0  0  0
   29.6830   52.1170   -4.1580 C   0  0  0  0  0  0  0  0  0  0  0  0
   28.9600   51.0500   -6.1850 C   0  0  0  0  0  0  0  0  0  0  0  0
   29.2230   52.1820   -5.4520 C   0  0  0  0  0  0  0  0  0  0  0  0
   29.8810   53.3470   -3.6150 O   0  0  0  0  0  0  0  0  0  0  0  0
   29.0750   53.4650   -5.8820 O   0  0  0  0  0  0  0  0  0  0  0  0
   29.6260   54.1860   -4.7610 C   0  0  0  0  0  0  0  0  0  0  0  0
  1  2  1  0
  2  3  2  0
  2  4  1  0
  4  5  1  6
  4  6  1  0
  5  7  1  0
  6  8  2  0
  6  9  1  0
  7 10  1  0
  8 11  1  0
  9 12  2  0
 11 12  1  0
  9 13  1  0
 10 14  1  0
 12 15  1  0
 13 16  2  0
 15 17  2  0
 16 17  1  0
 14 18  1  0
 18 19  2  0
 18 20  1  0
 19 21  1  0
 20 22  2  0
 21 23  2  0
 22 23  1  0
 21 24  1  0
 23 25  1  0
 24 26  1  0
 25 26  1  0
M  END
