mac-x0139-mac-x0341
     RDKit          3D

 23 25  0  0  0  0  0  0  0  0999 V2000
   30.3110   47.6790   -4.4300 C   0  0  0  0  0  0  0  0  0  0  0  0
   30.4740   46.9920   -5.7150 N   0  0  0  0  0  0  0  0  0  0  0  0
   30.5380   45.5180   -5.6380 C   0  0  0  0  0  0  0  0  0  0  0  0
   29.6490   47.5020   -6.7290 C   0  0  0  0  0  0  0  0  0  0  0  0
   31.9520   44.9660   -5.5410 C   0  0  0  0  0  0  0  0  0  0  0  0
   29.4210   48.8570   -6.8500 C   0  0  0  0  0  0  0  0  0  0  0  0
   29.0680   46.6500   -7.6030 N   0  0  0  0  0  0  0  0  0  0  0  0
   32.5780   44.9160   -6.9090 C   0  0  0  0  0  0  0  0  0  0  0  0
   28.5800   49.2820   -7.8510 C   0  0  0  0  0  0  0  0  0  0  0  0
   28.2780   47.1910   -8.5590 C   0  0  0  0  0  0  0  0  0  0  0  0
   29.9140   50.0380   -6.0820 C   0  0  0  0  0  0  0  0  0  0  0  0
   31.9580   44.6820   -7.9320 O   0  0  0  0  0  0  0  0  0  0  0  0
   33.9040   45.1590   -6.9030 O   0  0  0  0  0  0  0  0  0  0  0  0
   27.9980   48.4820   -8.7290 N   0  0  0  0  0  0  0  0  0  0  0  0
   28.3900   50.6690   -7.8550 N   0  0  0  0  0  0  0  0  0  0  0  0
   29.1020   51.2510   -6.7160 C   0  0  1  0  0  0  0  0  0  0  0  0
   28.1770   51.7110   -5.5960 C   0  0  0  0  0  0  0  0  0  0  0  0
   29.8910   52.4160   -7.1610 N   0  0  0  0  0  0  0  0  0  0  0  0
   29.4610   53.7550   -6.8250 C   0  0  1  0  0  0  0  0  0  0  0  0
   28.9340   52.7110   -4.7800 C   0  0  0  0  0  0  0  0  0  0  0  0
   28.2450   54.0500   -7.4990 N   0  0  0  0  0  0  0  0  0  0  0  0
   29.3140   52.5340   -3.6250 O   0  0  0  0  0  0  0  0  0  0  0  0
   29.1920   53.8460   -5.4530 N   0  0  0  0  0  0  0  0  0  0  0  0
  1  2  1  0
  2  3  1  0
  2  4  1  0
  3  5  1  0
  4  6  2  0
  4  7  1  0
  5  8  1  0
  6  9  1  0
  7 10  2  0
  6 11  1  0
  8 12  2  0
  8 13  1  0
  9 14  2  0
 10 14  1  0
  9 15  1  0
 16 11  1  1
 16 15  1  0
 16 17  1  0
 16 18  1  0
 18 19  1  0
 17 20  1  0
 19 21  1  6
 20 22  2  0
 19 23  1  0
 20 23  1  0
M  END
