mac-x0190-mac-x0337
     RDKit          3D

 22 24  0  0  0  0  0  0  0  0999 V2000
   28.5900   56.9850   -5.5230 O   0  0  0  0  0  0  0  0  0  0  0  0
   29.8490   56.3590   -5.3280 C   0  0  0  0  0  0  0  0  0  0  0  0
   29.5660   54.9690   -4.9000 C   0  0  0  0  0  0  0  0  0  0  0  0
   29.4280   54.6400   -3.5770 N   0  0  0  0  0  0  0  0  0  0  0  0
   29.4140   53.9150   -5.6760 N   0  0  0  0  0  0  0  0  0  0  0  0
   29.1740   53.3020   -3.4900 C   0  0  0  0  0  0  0  0  0  0  0  0
   29.1720   52.8740   -4.8050 C   0  0  0  0  0  0  0  0  0  0  0  0
   28.9550   52.4490   -2.4100 C   0  0  0  0  0  0  0  0  0  0  0  0
   28.9390   51.5170   -5.0480 C   0  0  0  0  0  0  0  0  0  0  0  0
   28.9450   50.9950   -6.3370 N   0  0  0  0  0  0  0  0  0  0  0  0
   28.7190   51.1030   -2.6940 C   0  0  0  0  0  0  0  0  0  0  0  0
   28.7110   50.6420   -3.9970 C   0  0  0  0  0  0  0  0  0  0  0  0
   30.0470   49.7210   -6.3100 S   0  0  0  0  0  0  0  0  0  0  0  0
   30.1620   49.2350   -7.6470 O   0  0  0  0  0  0  0  0  0  0  0  0
   29.6930   48.8050   -5.2590 O   0  0  0  0  0  0  0  0  0  0  0  0
   31.5880   50.5160   -5.8770 C   0  0  0  0  0  0  0  0  0  0  0  0
   32.6540   49.7360   -5.4270 C   0  0  0  0  0  0  0  0  0  0  0  0
   31.7230   51.9040   -5.9930 C   0  0  0  0  0  0  0  0  0  0  0  0
   33.8630   50.3500   -5.0970 C   0  0  0  0  0  0  0  0  0  0  0  0
   32.9370   52.5100   -5.6600 C   0  0  0  0  0  0  0  0  0  0  0  0
   34.0170   51.7370   -5.2110 C   0  0  0  0  0  0  0  0  0  0  0  0
   35.3230   52.3850   -4.8610 C   0  0  0  0  0  0  0  0  0  0  0  0
  1  2  1  0
  2  3  1  0
  3  4  1  0
  3  5  2  0
  4  6  1  0
  5  7  1  0
  6  7  2  0
  6  8  1  0
  7  9  1  0
  9 10  1  0
  8 11  2  0
  9 12  2  0
 11 12  1  0
 13 10  1  0
 13 14  2  0
 13 15  2  0
 13 16  1  0
 16 17  2  0
 16 18  1  0
 17 19  1  0
 18 20  2  0
 19 21  2  0
 20 21  1  0
 21 22  1  0
M  END
