mac-x0305-mac-x0333
     RDKit          3D

 14 15  0  0  0  0  0  0  0  0999 V2000
   30.7450   47.3530   -7.3100 O   0  0  0  0  0  0  0  0  0  0  0  0
   30.3100   47.2650   -6.0310 C   0  0  0  0  0  0  0  0  0  0  0  0
   30.7190   46.3580   -5.3210 O   0  0  0  0  0  0  0  0  0  0  0  0
   29.3070   48.3630   -5.6280 C   0  0  2  0  0  0  0  0  0  0  0  0
   28.8910   49.3670   -6.7370 C   0  0  2  0  0  0  0  0  0  0  0  0
   29.6880   49.0230   -4.3580 N   0  0  0  0  0  0  0  0  0  0  0  0
   29.1210   48.8770   -8.0600 O   0  0  0  0  0  0  0  0  0  0  0  0
   29.5270   50.7760   -6.6010 C   0  0  0  0  0  0  0  0  0  0  0  0
   28.9460   50.2920   -4.1920 C   0  0  0  0  0  0  0  0  0  0  0  0
   29.3580   51.3900   -5.1910 C   0  0  2  0  0  0  0  0  0  0  0  0
   28.4290   52.5140   -5.3040 O   0  0  0  0  0  0  0  0  0  0  0  0
   30.6120   52.0760   -4.6660 C   0  0  0  0  0  0  0  0  0  0  0  0
   30.1380   53.2000   -3.9280 O   0  0  0  0  0  0  0  0  0  0  0  0
   29.1070   53.6660   -4.7740 C   0  0  0  0  0  0  0  0  0  0  0  0
  1  2  1  0
  2  3  2  0
  4  2  1  6
  4  5  1  0
  4  6  1  0
  5  7  1  6
  5  8  1  0
  6  9  1  0
 10  8  1  6
  9 10  1  0
 10 11  1  0
 10 12  1  0
 12 13  1  0
 11 14  1  0
 13 14  1  0
M  END
