mac-x0159-mac-x0345
     RDKit          3D

 25 28  0  0  0  0  0  0  0  0999 V2000
   29.5090   51.3870   -6.1130 N   0  0  0  0  0  0  0  0  0  0  0  0
   29.8980   49.9690   -6.0710 C   0  0  2  0  0  0  0  0  0  0  0  0
   28.5800   49.1160   -6.1350 C   0  0  2  0  0  0  0  0  0  0  0  0
   29.2570   52.1260   -4.9450 C   0  0  0  0  0  0  0  0  0  0  0  0
   30.6510   49.5240   -4.9160 N   0  0  0  0  0  0  0  0  0  0  0  0
   29.3850   53.5310   -4.9220 C   0  0  0  0  0  0  0  0  0  0  0  0
   28.8650   51.5410   -3.7360 C   0  0  0  0  0  0  0  0  0  0  0  0
   29.8000   54.2960   -6.1500 C   0  0  0  0  0  0  0  0  0  0  0  0
   30.9870   48.1100   -4.9780 C   0  0  0  0  0  0  0  0  0  0  0  0
   28.8400   47.6140   -5.9600 C   0  0  2  0  0  0  0  0  0  0  0  0
   27.9110   49.1300   -7.4520 N   0  0  0  0  0  0  0  0  0  0  0  0
   28.6250   52.3210   -2.6050 C   0  0  0  0  0  0  0  0  0  0  0  0
   29.1530   54.3030   -3.8220 N   0  0  0  0  0  0  0  0  0  0  0  0
   29.8000   47.2640   -4.9150 N   0  0  0  0  0  0  0  0  0  0  0  0
   29.3530   47.2760   -7.2980 N   0  0  0  0  0  0  0  0  0  0  0  0
   28.6720   48.1690   -8.2410 C   0  0  0  0  0  0  0  0  0  0  0  0
   28.7800   53.6910   -2.6910 C   0  0  0  0  0  0  0  0  0  0  0  0
   30.1630   45.8330   -4.9580 C   0  0  0  0  0  0  0  0  0  0  0  0
   28.5510   54.5040   -1.5870 N   0  0  0  0  0  0  0  0  0  0  0  0
   29.4430   45.0680   -3.8780 C   0  0  0  0  0  0  0  0  0  0  0  0
   28.5560   44.0230   -4.0680 C   0  0  0  0  0  0  0  0  0  0  0  0
   29.6510   45.4130   -2.5450 N   0  0  0  0  0  0  0  0  0  0  0  0
   28.9340   44.6370   -1.7610 C   0  0  0  0  0  0  0  0  0  0  0  0
   27.9730   43.4600   -2.5630 S   0  0  0  0  0  0  0  0  0  0  0  0
   28.9180   44.7260   -0.2770 C   0  0  0  0  0  0  0  0  0  0  0  0
  2  1  1  1
  2  3  1  0
  1  4  1  0
  2  5  1  0
  4  6  2  0
  4  7  1  0
  6  8  1  0
  5  9  1  0
  3 10  1  0
  3 11  1  6
  7 12  2  0
  6 13  1  0
  9 14  1  0
 10 14  1  0
 10 15  1  6
 11 16  1  0
 15 16  1  0
 12 17  1  0
 13 17  2  0
 14 18  1  0
 17 19  1  0
 18 20  1  0
 20 21  2  0
 20 22  1  0
 22 23  2  0
 21 24  1  0
 23 24  1  0
 23 25  1  0
M  END
