mac-x0303-mac-x0380
     RDKit          3D

 16 17  0  0  0  0  0  0  0  0999 V2000
   30.5100   56.5070   -6.6270 N   0  0  0  0  0  0  0  0  0  0  0  0
   29.2080   56.1460   -5.6290 S   0  0  0  0  0  0  0  0  0  0  0  0
   27.9810   56.3980   -6.3420 O   0  0  0  0  0  0  0  0  0  0  0  0
   29.4780   56.6960   -4.3230 O   0  0  0  0  0  0  0  0  0  0  0  0
   29.2310   54.3950   -5.3920 C   0  0  0  0  0  0  0  0  0  0  0  0
   29.5030   53.8120   -4.1820 N   0  0  0  0  0  0  0  0  0  0  0  0
   28.9940   53.4900   -6.3260 N   0  0  0  0  0  0  0  0  0  0  0  0
   29.4380   52.4470   -4.3470 C   0  0  0  0  0  0  0  0  0  0  0  0
   29.1200   52.2840   -5.6910 C   0  0  0  0  0  0  0  0  0  0  0  0
   29.6260   51.3780   -3.4630 C   0  0  0  0  0  0  0  0  0  0  0  0
   28.9730   50.9870   -6.2090 C   0  0  0  0  0  0  0  0  0  0  0  0
   29.4740   50.0890   -4.0050 C   0  0  0  0  0  0  0  0  0  0  0  0
   29.1530   49.8950   -5.3550 C   0  0  0  0  0  0  0  0  0  0  0  0
   29.6510   48.8830   -3.1660 C   0  0  0  0  0  0  0  0  0  0  0  0
   29.6880   47.7440   -3.8890 O   0  0  0  0  0  0  0  0  0  0  0  0
   29.7510   48.9270   -1.9510 O   0  0  0  0  0  0  0  0  0  0  0  0
  2  1  1  0
  2  3  2  0
  2  4  2  0
  2  5  1  0
  5  6  1  0
  5  7  2  0
  6  8  1  0
  7  9  1  0
  8  9  2  0
  8 10  1  0
  9 11  1  0
 10 12  2  0
 11 13  2  0
 12 13  1  0
 12 14  1  0
 14 15  1  0
 14 16  2  0
M  END
