mac-x0306-mac-x0441
     RDKit          3D

 31 34  0  0  0  0  0  0  0  0999 V2000
   34.0220   44.8310   -6.0540 O   0  0  0  0  0  0  0  0  0  0  0  0
   32.8430   45.1580   -5.5050 C   0  0  0  0  0  0  0  0  0  0  0  0
   31.9600   45.5710   -6.3400 N   0  0  0  0  0  0  0  0  0  0  0  0
   32.7780   44.9770   -4.0150 C   0  0  0  0  0  0  0  0  0  0  0  0
   30.6290   45.9650   -5.9050 C   0  0  0  0  0  0  0  0  0  0  0  0
   34.0930   44.8090   -3.4050 N   0  0  0  0  0  0  0  0  0  0  0  0
   30.4900   47.4820   -6.0200 C   0  0  0  0  0  0  0  0  0  0  0  0
   34.4420   43.5930   -2.9270 N   0  0  0  0  0  0  0  0  0  0  0  0
   35.0800   45.7380   -3.2310 C   0  0  0  0  0  0  0  0  0  0  0  0
   30.1510   48.1370   -4.6790 C   0  0  0  0  0  0  0  0  0  0  0  0
   35.6870   43.7470   -2.4300 C   0  0  0  0  0  0  0  0  0  0  0  0
   36.1250   45.0860   -2.6030 C   0  0  0  0  0  0  0  0  0  0  0  0
   35.0740   47.1720   -3.6210 C   0  0  0  0  0  0  0  0  0  0  0  0
   36.4670   42.6240   -1.7890 C   0  0  0  0  0  0  0  0  0  0  0  0
   30.0630   49.6060   -4.8280 N   0  0  0  0  0  0  0  0  0  0  0  0
   37.4030   45.7530   -2.2330 C   0  0  0  0  0  0  0  0  0  0  0  0
   36.2150   47.9170   -2.9010 C   0  0  0  0  0  0  0  0  0  0  0  0
   37.5740   42.2510   -2.4810 F   0  0  0  0  0  0  0  0  0  0  0  0
   36.8890   42.9570   -0.5350 F   0  0  0  0  0  0  0  0  0  0  0  0
   35.7040   41.5030   -1.6420 F   0  0  0  0  0  0  0  0  0  0  0  0
   30.2520   50.4300   -3.7270 C   0  0  0  0  0  0  0  0  0  0  0  0
   29.5210   50.1730   -5.9770 C   0  0  0  0  0  0  0  0  0  0  0  0
   37.5360   47.1230   -2.9270 C   0  0  0  0  0  0  0  0  0  0  0  0
   29.7020   51.6500   -3.6190 C   0  0  0  0  0  0  0  0  0  0  0  0
   28.9330   51.3800   -5.9900 C   0  0  0  0  0  0  0  0  0  0  0  0
   28.8200   52.2140   -4.7240 C   0  0  0  0  0  0  0  0  0  0  0  0
   29.0790   53.6800   -4.9840 C   0  0  0  0  0  0  0  0  0  0  0  0
   28.7190   54.2810   -6.1700 N   0  0  0  0  0  0  0  0  0  0  0  0
   29.6480   54.5540   -4.1740 N   0  0  0  0  0  0  0  0  0  0  0  0
   29.6550   55.7420   -4.8600 C   0  0  0  0  0  0  0  0  0  0  0  0
   29.0820   55.5920   -6.1000 C   0  0  0  0  0  0  0  0  0  0  0  0
  1  2  1  0
  2  3  2  3
  2  4  1  0
  3  5  1  0
  4  6  1  0
  5  7  1  0
  6  8  1  0
  6  9  1  0
  7 10  1  0
  8 11  2  0
  9 12  2  0
 11 12  1  0
  9 13  1  0
 11 14  1  0
 10 15  1  0
 12 16  1  0
 13 17  1  0
 14 18  1  0
 14 19  1  0
 14 20  1  0
 15 21  1  0
 15 22  1  0
 16 23  1  0
 17 23  1  0
 21 24  2  0
 22 25  2  0
 24 26  1  0
 25 26  1  0
 26 27  1  0
 27 28  1  0
 27 29  2  0
 29 30  1  0
 28 31  1  0
 30 31  2  0
M  END
