mac-x0387-mac-x0510
     RDKit          3D

 17 19  0  0  0  0  0  0  0  0999 V2000
   27.2390   50.3800   -7.0380 N   0  0  0  0  0  0  0  0  0  0  0  0
   28.6480   50.1450   -7.1450 C   0  0  2  0  0  0  0  0  0  0  0  0
   29.0040   49.5030   -8.3910 N   0  0  0  0  0  0  0  0  0  0  0  0
   29.2960   49.4130   -5.9470 C   0  0  1  0  0  0  0  0  0  0  0  0
   29.0550   51.4820   -7.1160 N   0  0  0  0  0  0  0  0  0  0  0  0
   29.0310   47.8840   -6.0280 C   0  0  1  0  0  0  0  0  0  0  0  0
   29.3050   48.1550   -8.4680 C   0  0  0  0  0  0  0  0  0  0  0  0
   30.7350   49.6850   -5.5810 C   0  0  0  0  0  0  0  0  0  0  0  0
   28.9150   52.1800   -5.9580 C   0  0  0  0  0  0  0  0  0  0  0  0
   28.7540   50.0970   -4.7020 C   0  0  0  0  0  0  0  0  0  0  0  0
   29.0620   53.3980   -5.9150 O   0  0  0  0  0  0  0  0  0  0  0  0
   28.5080   49.5400   -3.6340 O   0  0  0  0  0  0  0  0  0  0  0  0
   29.3420   47.3300   -7.4010 C   0  0  0  0  0  0  0  0  0  0  0  0
   29.6020   47.1810   -4.8160 C   0  0  0  0  0  0  0  0  0  0  0  0
   31.3660   48.8480   -4.7480 C   0  0  0  0  0  0  0  0  0  0  0  0
   28.5960   51.4560   -4.8450 N   0  0  0  0  0  0  0  0  0  0  0  0
   30.7040   47.6710   -4.2240 C   0  0  0  0  0  0  0  0  0  0  0  0
  2  1  1  1
  2  3  1  0
  2  4  1  0
  2  5  1  0
  4  6  1  0
  3  7  1  0
  4  8  1  6
  5  9  1  0
  4 10  1  0
  9 11  2  0
 10 12  2  0
  6 13  1  6
  7 13  2  0
  6 14  1  0
  8 15  2  0
  9 16  1  0
 10 16  1  0
 14 17  2  0
 15 17  1  0
M  END
