mac-x0392-mac-x0231
     RDKit          3D

 25 27  0  0  0  0  0  0  0  0999 V2000
   28.5670   48.7130   -7.7610 N   0  0  0  0  0  0  0  0  0  0  0  0
   28.1900   49.6990   -6.8430 C   0  0  0  0  0  0  0  0  0  0  0  0
   27.2320   50.6550   -7.1830 C   0  0  0  0  0  0  0  0  0  0  0  0
   28.7160   49.8120   -5.5500 C   0  0  0  0  0  0  0  0  0  0  0  0
   29.7300   48.8910   -5.0350 C   0  0  0  0  0  0  0  0  0  0  0  0
   28.2900   50.8260   -4.6830 C   0  0  0  0  0  0  0  0  0  0  0  0
   26.7930   51.6520   -6.3730 N   0  0  0  0  0  0  0  0  0  0  0  0
   29.6470   47.8430   -4.2820 N   0  0  0  0  0  0  0  0  0  0  0  0
   30.9490   49.2600   -5.4630 O   0  0  0  0  0  0  0  0  0  0  0  0
   27.3350   51.7120   -5.1390 C   0  0  0  0  0  0  0  0  0  0  0  0
   30.8080   47.1270   -3.9340 C   0  0  0  0  0  0  0  0  0  0  0  0
   30.9110   45.7220   -4.0260 C   0  0  0  0  0  0  0  0  0  0  0  0
   31.9110   47.8620   -3.4710 C   0  0  0  0  0  0  0  0  0  0  0  0
   32.1060   45.0810   -3.6580 C   0  0  0  0  0  0  0  0  0  0  0  0
   29.7900   44.8720   -4.5020 C   0  0  0  0  0  0  0  0  0  0  0  0
   33.0950   47.2250   -3.1050 C   0  0  0  0  0  0  0  0  0  0  0  0
   28.7170   45.3100   -4.9060 O   0  0  0  0  0  0  0  0  0  0  0  0
   32.1670   43.5960   -3.7750 C   0  0  0  0  0  0  0  0  0  0  0  0
   30.0000   43.5110   -4.4730 N   0  0  0  0  0  0  0  0  0  0  0  0
   33.1950   45.8400   -3.1980 C   0  0  0  0  0  0  0  0  0  0  0  0
   33.4410   42.8440   -3.4350 C   0  0  0  0  0  0  0  0  0  0  0  0
   31.1560   42.8780   -4.1630 N   0  0  0  0  0  0  0  0  0  0  0  0
   34.0760   42.1400   -4.5990 C   0  0  0  0  0  0  0  0  0  0  0  0
   35.3950   42.4110   -4.6970 O   0  0  0  0  0  0  0  0  0  0  0  0
   33.5410   41.4000   -5.4070 O   0  0  0  0  0  0  0  0  0  0  0  0
  1  2  1  0
  2  3  2  0
  2  4  1  0
  4  5  1  0
  4  6  2  0
  3  7  1  0
  5  8  2  3
  5  9  1  0
  6 10  1  0
  7 10  2  0
  8 11  1  0
 11 12  1  0
 11 13  2  0
 12 14  2  0
 12 15  1  0
 13 16  1  0
 15 17  2  0
 14 18  1  0
 15 19  1  0
 14 20  1  0
 16 20  2  0
 18 21  1  0
 18 22  2  0
 19 22  1  0
 21 23  1  0
 23 24  1  0
 23 25  2  0
M  END
