mac-x1493-mac-x0139
     RDKit          3D

 27 30  0  0  0  0  0  0  0  0999 V2000
   29.9670   47.4610   -5.3620 N   0  0  0  0  0  0  0  0  0  0  0  0
   29.9050   48.4010   -4.2680 C   0  0  0  0  0  0  0  0  0  0  0  0
   30.0000   47.9920   -3.1060 O   0  0  0  0  0  0  0  0  0  0  0  0
   30.3660   46.0630   -5.0530 C   0  0  0  0  0  0  0  0  0  0  0  0
   29.8300   47.6390   -6.8090 C   0  0  2  0  0  0  0  0  0  0  0  0
   31.8630   45.7380   -5.2590 C   0  0  0  0  0  0  0  0  0  0  0  0
   29.7650   49.8900   -4.3620 C   0  0  0  0  0  0  0  0  0  0  0  0
   29.9720   49.0140   -7.4120 C   0  0  1  0  0  0  0  0  0  0  0  0
   28.6780   46.9160   -7.3370 N   0  0  0  0  0  0  0  0  0  0  0  0
   32.3110   45.2120   -6.6170 C   0  0  0  0  0  0  0  0  0  0  0  0
   28.9620   50.5160   -5.3280 C   0  0  0  0  0  0  0  0  0  0  0  0
   30.4420   50.7210   -3.4750 C   0  0  0  0  0  0  0  0  0  0  0  0
   28.6440   49.3950   -8.0870 C   0  0  2  0  0  0  0  0  0  0  0  0
   28.5850   47.0890   -8.7840 C   0  0  0  0  0  0  0  0  0  0  0  0
   30.3950   50.2700   -6.7210 C   0  0  0  0  0  0  0  0  0  0  0  0
   31.5320   44.7960   -7.4670 O   0  0  0  0  0  0  0  0  0  0  0  0
   33.6420   45.2270   -6.8380 O   0  0  0  0  0  0  0  0  0  0  0  0
   28.8880   51.9330   -5.3760 C   0  0  0  0  0  0  0  0  0  0  0  0
   30.3850   52.0860   -3.4900 N   0  0  0  0  0  0  0  0  0  0  0  0
   28.3380   48.4750   -9.1640 N   0  0  0  0  0  0  0  0  0  0  0  0
   28.8150   50.8340   -8.2580 N   0  0  0  0  0  0  0  0  0  0  0  0
   29.6940   51.2680   -7.2730 C   0  0  0  0  0  0  0  0  0  0  0  0
   29.6260   52.6780   -4.4290 C   0  0  0  0  0  0  0  0  0  0  0  0
   28.1050   52.6090   -6.3420 C   0  0  0  0  0  0  0  0  0  0  0  0
   29.5570   54.0660   -4.4850 C   0  0  0  0  0  0  0  0  0  0  0  0
   28.0610   54.0040   -6.3720 C   0  0  0  0  0  0  0  0  0  0  0  0
   28.7900   54.7340   -5.4410 C   0  0  0  0  0  0  0  0  0  0  0  0
  1  2  1  0
  2  3  2  0
  1  4  1  0
  5  1  1  1
  4  6  1  0
  2  7  1  0
  5  8  1  0
  5  9  1  0
  6 10  1  0
  7 11  2  0
  7 12  1  0
  8 13  1  0
  9 14  1  0
  8 15  1  1
 10 16  2  0
 10 17  1  0
 11 18  1  0
 12 19  2  0
 13 20  1  6
 14 20  1  0
 13 21  1  0
 15 22  2  0
 21 22  1  0
 18 23  2  0
 19 23  1  0
 18 24  1  0
 23 25  1  0
 24 26  2  0
 25 27  2  0
 26 27  1  0
M  END
