mac-x0224-mac-x0358
     RDKit          3D

 21 22  0  0  0  0  0  0  0  0999 V2000
   28.6900   52.6440   -6.0590 C   0  0  0  0  0  0  0  0  0  0  0  0
   29.4980   51.3170   -6.9960 S   0  0  0  0  0  0  0  0  0  0  0  0
   29.5420   50.0590   -5.7350 C   0  0  0  0  0  0  0  0  0  0  0  0
   30.0000   48.7730   -6.0370 C   0  0  0  0  0  0  0  0  0  0  0  0
   29.1150   50.3570   -4.4380 C   0  0  0  0  0  0  0  0  0  0  0  0
   30.0340   47.7800   -5.0520 C   0  0  0  0  0  0  0  0  0  0  0  0
   29.1420   49.3750   -3.4490 C   0  0  0  0  0  0  0  0  0  0  0  0
   30.5270   46.4070   -5.3800 C   0  0  0  0  0  0  0  0  0  0  0  0
   29.5960   48.0970   -3.7530 C   0  0  0  0  0  0  0  0  0  0  0  0
   29.5770   47.2090   -2.7150 O   0  0  0  0  0  0  0  0  0  0  0  0
   29.8150   45.7320   -6.1370 O   0  0  0  0  0  0  0  0  0  0  0  0
   31.7410   45.9470   -4.8510 N   0  0  0  0  0  0  0  0  0  0  0  0
   32.6370   45.2470   -5.6500 C   0  0  0  0  0  0  0  0  0  0  0  0
   32.1220   46.3460   -3.5060 C   0  0  0  0  0  0  0  0  0  0  0  0
   33.2600   45.6600   -6.6230 O   0  0  0  0  0  0  0  0  0  0  0  0
   33.2530   47.1430   -3.2170 C   0  0  0  0  0  0  0  0  0  0  0  0
   31.3450   45.9380   -2.4060 C   0  0  0  0  0  0  0  0  0  0  0  0
   34.1170   47.6200   -4.1680 O   0  0  0  0  0  0  0  0  0  0  0  0
   33.5780   47.5080   -1.9100 C   0  0  0  0  0  0  0  0  0  0  0  0
   31.6710   46.3060   -1.0960 C   0  0  0  0  0  0  0  0  0  0  0  0
   32.7870   47.0910   -0.8490 C   0  0  0  0  0  0  0  0  0  0  0  0
  1  2  1  0
  2  3  1  0
  3  4  2  0
  3  5  1  0
  4  6  1  0
  5  7  2  0
  6  8  1  0
  6  9  2  0
  7  9  1  0
  9 10  1  0
  8 11  2  0
  8 12  1  0
 12 13  1  0
 12 14  1  0
 13 15  2  0
 14 16  2  0
 14 17  1  0
 16 18  1  0
 16 19  1  0
 17 20  2  0
 19 21  2  0
 20 21  1  0
M  END
