mac-x0188-mac-x0263
     RDKit          3D

 28 31  0  0  0  0  0  0  0  0999 V2000
   32.2550   44.3520   -4.0150 C   0  0  0  0  0  0  0  0  0  0  0  0
   31.8930   45.7620   -3.7800 C   0  0  0  0  0  0  0  0  0  0  0  0
   32.3750   46.3120   -2.6410 O   0  0  0  0  0  0  0  0  0  0  0  0
   31.1500   46.6940   -4.4730 C   0  0  0  0  0  0  0  0  0  0  0  0
   30.4790   46.4680   -5.7290 C   0  0  0  0  0  0  0  0  0  0  0  0
   31.9690   47.6190   -2.5500 N   0  0  0  0  0  0  0  0  0  0  0  0
   31.2340   47.8700   -3.6420 C   0  0  0  0  0  0  0  0  0  0  0  0
   29.3060   46.1500   -5.8530 O   0  0  0  0  0  0  0  0  0  0  0  0
   31.2490   46.6100   -6.8320 O   0  0  0  0  0  0  0  0  0  0  0  0
   30.6530   49.2580   -3.8200 C   0  0  2  0  0  0  0  0  0  0  0  0
   29.2950   49.4540   -3.1910 C   0  0  0  0  0  0  0  0  0  0  0  0
   30.6910   49.7850   -5.2290 C   0  0  0  0  0  0  0  0  0  0  0  0
   28.4120   50.3580   -3.6500 C   0  0  0  0  0  0  0  0  0  0  0  0
   29.8220   50.6910   -5.6790 C   0  0  0  0  0  0  0  0  0  0  0  0
   28.6930   51.2650   -4.8430 C   0  0  2  0  0  0  0  0  0  0  0  0
   29.0620   52.6900   -4.2560 C   0  0  0  0  0  0  0  0  0  0  0  0
   27.5430   51.2650   -5.8540 C   0  0  0  0  0  0  0  0  0  0  0  0
   28.6180   53.7630   -5.1690 C   0  0  0  0  0  0  0  0  0  0  0  0
   27.1310   52.3790   -6.4850 C   0  0  0  0  0  0  0  0  0  0  0  0
   28.9730   55.0760   -5.1770 N   0  0  0  0  0  0  0  0  0  0  0  0
   27.7380   53.6250   -6.2020 C   0  0  0  0  0  0  0  0  0  0  0  0
   28.2900   55.6660   -6.2190 C   0  0  0  0  0  0  0  0  0  0  0  0
   27.5370   54.7890   -6.8600 N   0  0  0  0  0  0  0  0  0  0  0  0
   28.4120   57.1170   -6.5330 C   0  0  0  0  0  0  0  0  0  0  0  0
   27.3520   57.9070   -5.7690 C   0  0  0  0  0  0  0  0  0  0  0  0
   26.9990   59.2280   -6.3970 C   0  0  0  0  0  0  0  0  0  0  0  0
   28.0760   60.0210   -6.5550 O   0  0  0  0  0  0  0  0  0  0  0  0
   25.8900   59.6060   -6.7420 O   0  0  0  0  0  0  0  0  0  0  0  0
  1  2  1  0
  2  3  1  0
  2  4  2  0
  4  5  1  0
  3  6  1  0
  4  7  1  0
  6  7  2  0
  5  8  2  0
  5  9  1  0
 10  7  1  6
 10 11  1  0
 10 12  1  0
 11 13  2  0
 12 14  2  0
 15 13  1  1
 14 15  1  0
 15 16  1  0
 15 17  1  0
 16 18  1  0
 17 19  2  0
 18 20  1  0
 18 21  2  0
 19 21  1  0
 20 22  1  0
 21 23  1  0
 22 23  2  0
 22 24  1  0
 24 25  1  0
 25 26  1  0
 26 27  1  0
 26 28  2  0
M  END
