mac-x0451-mac-x0453
     RDKit          3D

 14 16  0  0  0  0  0  0  0  0999 V2000
   29.0910   53.5100   -7.2240 N   0  0  0  0  0  0  0  0  0  0  0  0
   29.1430   53.6900   -5.8680 C   0  0  0  0  0  0  0  0  0  0  0  0
   29.5550   52.7180   -5.0350 C   0  0  0  0  0  0  0  0  0  0  0  0
   28.6430   52.1770   -7.5940 C   0  0  2  0  0  0  0  0  0  0  0  0
   29.6030   51.1230   -7.0350 C   0  0  2  0  0  0  0  0  0  0  0  0
   28.4290   52.0920   -9.0690 C   0  0  0  0  0  0  0  0  0  0  0  0
   28.9980   49.7410   -7.2530 C   0  0  2  0  0  0  0  0  0  0  0  0
   28.4470   50.5850   -9.9420 S   0  0  0  0  0  0  0  0  0  0  0  0
   30.0210   51.3670   -5.5500 C   0  0  2  0  0  0  0  0  0  0  0  0
   29.6850   50.1680   -4.6280 C   0  0  0  0  0  0  0  0  0  0  0  0
   29.8860   48.6470   -6.6480 C   0  0  0  0  0  0  0  0  0  0  0  0
   28.7760   49.4040   -8.7030 C   0  0  0  0  0  0  0  0  0  0  0  0
   30.2870   48.8850   -5.1970 C   0  0  2  0  0  0  0  0  0  0  0  0
   29.8770   47.8090   -4.4720 F   0  0  0  0  0  0  0  0  0  0  0  0
  1  2  1  0
  2  3  2  0
  1  4  1  0
  5  4  1  1
  4  6  1  6
  5  7  1  0
  6  8  2  0
  9  3  1  1
  5  9  1  0
  9 10  1  0
  7 11  1  6
  7 12  1  0
  8 12  2  0
 10 13  1  0
 11 13  1  0
 13 14  1  1
M  END
