mac-x0213-mac-x0354
     RDKit          3D

 25 28  0  0  0  0  0  0  0  0999 V2000
   33.3840   45.5920   -5.7810 N   0  0  0  0  0  0  0  0  0  0  0  0
   32.0760   45.9270   -6.1380 C   0  0  0  0  0  0  0  0  0  0  0  0
   31.7190   45.9030   -7.3260 O   0  0  0  0  0  0  0  0  0  0  0  0
   34.0900   45.1310   -6.9470 O   0  0  0  0  0  0  0  0  0  0  0  0
   33.6580   44.7120   -4.7340 C   0  0  0  0  0  0  0  0  0  0  0  0
   31.0750   46.3290   -5.0490 C   0  0  0  0  0  0  0  0  0  0  0  0
   33.1140   43.4350   -4.4750 C   0  0  0  0  0  0  0  0  0  0  0  0
   34.5580   44.9330   -3.6980 C   0  0  0  0  0  0  0  0  0  0  0  0
   31.6960   46.8500   -3.7490 C   0  0  0  0  0  0  0  0  0  0  0  0
   30.0630   45.2280   -4.6760 C   0  0  0  0  0  0  0  0  0  0  0  0
   34.4860   43.7970   -2.9190 N   0  0  0  0  0  0  0  0  0  0  0  0
   33.6140   42.8730   -3.3740 N   0  0  0  0  0  0  0  0  0  0  0  0
   35.4310   46.0710   -3.4060 C   0  0  0  0  0  0  0  0  0  0  0  0
   35.2280   43.5150   -1.7110 C   0  0  0  0  0  0  0  0  0  0  0  0
   30.6590   46.4860   -2.7370 C   0  0  0  0  0  0  0  0  0  0  0  0
   29.7400   45.5730   -3.2570 C   0  0  0  0  0  0  0  0  0  0  0  0
   36.8210   45.9240   -3.4930 C   0  0  0  0  0  0  0  0  0  0  0  0
   34.9050   47.3170   -3.0370 C   0  0  0  0  0  0  0  0  0  0  0  0
   30.5490   46.9460   -1.4360 C   0  0  0  0  0  0  0  0  0  0  0  0
   28.6910   45.0970   -2.4880 C   0  0  0  0  0  0  0  0  0  0  0  0
   37.6680   46.9990   -3.2170 C   0  0  0  0  0  0  0  0  0  0  0  0
   35.7520   48.3920   -2.7610 C   0  0  0  0  0  0  0  0  0  0  0  0
   29.4940   46.4740   -0.6520 C   0  0  0  0  0  0  0  0  0  0  0  0
   28.5710   45.5550   -1.1750 C   0  0  0  0  0  0  0  0  0  0  0  0
   37.1340   48.2330   -2.8510 C   0  0  0  0  0  0  0  0  0  0  0  0
  1  2  1  0
  2  3  2  0
  1  4  1  0
  1  5  1  0
  2  6  1  0
  5  7  1  0
  5  8  2  0
  6  9  1  0
  6 10  1  0
  8 11  1  0
  7 12  2  0
 11 12  1  0
  8 13  1  0
 11 14  1  0
  9 15  1  0
 10 16  1  0
 15 16  2  0
 13 17  2  0
 13 18  1  0
 15 19  1  0
 16 20  1  0
 17 21  1  0
 18 22  2  0
 19 23  2  0
 20 24  2  0
 23 24  1  0
 21 25  2  0
 22 25  1  0
M  END
