mac-x0116-mac-x0361
     RDKit          3D

 19 22  0  0  0  0  0  0  0  0999 V2000
   29.2530   53.3040   -6.4080 C   0  0  1  0  0  0  0  0  0  0  0  0
   28.8450   52.0890   -7.1370 N   0  0  0  0  0  0  0  0  0  0  0  0
   29.7880   51.1320   -6.5780 C   0  0  1  0  0  0  0  0  0  0  0  0
   29.4610   52.7520   -4.9960 C   0  0  0  0  0  0  0  0  0  0  0  0
   30.5580   53.8380   -6.8940 C   0  0  0  0  0  0  0  0  0  0  0  0
   29.5230   53.4030   -3.9610 O   0  0  0  0  0  0  0  0  0  0  0  0
   31.6770   53.4410   -6.2110 O   0  0  0  0  0  0  0  0  0  0  0  0
   30.9220   54.6810   -7.9260 C   0  0  0  0  0  0  0  0  0  0  0  0
   29.5740   51.3590   -5.1680 N   0  0  0  0  0  0  0  0  0  0  0  0
   32.3330   54.8000   -7.8680 C   0  0  0  0  0  0  0  0  0  0  0  0
   32.7420   54.0280   -6.8090 C   0  0  0  0  0  0  0  0  0  0  0  0
   30.0330   50.4010   -4.1670 C   0  0  0  0  0  0  0  0  0  0  0  0
   29.7160   49.6660   -7.0490 C   0  0  1  0  0  0  0  0  0  0  0  0
   30.2510   49.0500   -4.7400 N   0  0  0  0  0  0  0  0  0  0  0  0
   29.3700   48.7940   -5.8710 C   0  0  2  0  0  0  0  0  0  0  0  0
   28.7810   49.1570   -8.0520 N   0  0  0  0  0  0  0  0  0  0  0  0
   29.9740   48.0280   -3.7230 O   0  0  0  0  0  0  0  0  0  0  0  0
   29.5690   47.5100   -6.5350 N   0  0  0  0  0  0  0  0  0  0  0  0
   28.9590   47.7110   -7.8560 C   0  0  0  0  0  0  0  0  0  0  0  0
  1  2  1  0
  3  2  1  6
  1  4  1  0
  1  5  1  6
  4  6  2  0
  5  7  1  0
  5  8  2  0
  3  9  1  0
  4  9  1  0
  8 10  1  0
  7 11  1  0
 10 11  2  0
  9 12  1  0
  3 13  1  0
 12 14  1  0
 13 15  1  0
 14 15  1  0
 13 16  1  6
 14 17  1  0
 15 18  1  6
 16 19  1  0
 18 19  1  0
M  END
