mac-x0213-mac-x0204
     RDKit          3D

 14 15  0  0  0  0  0  0  0  0999 V2000
   32.7520   46.9630   -5.7410 O   0  0  0  0  0  0  0  0  0  0  0  0
   31.5570   46.2260   -5.7670 C   0  0  0  0  0  0  0  0  0  0  0  0
   31.8270   44.9550   -6.2550 O   0  0  0  0  0  0  0  0  0  0  0  0
   30.6880   46.8030   -6.6910 O   0  0  0  0  0  0  0  0  0  0  0  0
   30.7220   46.1750   -4.5030 C   0  0  2  0  0  0  0  0  0  0  0  0
   30.9760   47.1230   -3.3110 C   0  0  2  0  0  0  0  0  0  0  0  0
   30.4780   44.8070   -3.8690 C   0  0  0  0  0  0  0  0  0  0  0  0
   32.0790   46.8580   -2.4590 O   0  0  0  0  0  0  0  0  0  0  0  0
   29.8380   46.6510   -2.4870 C   0  0  0  0  0  0  0  0  0  0  0  0
   29.5450   45.3090   -2.8060 C   0  0  0  0  0  0  0  0  0  0  0  0
   29.1290   47.3460   -1.5360 C   0  0  0  0  0  0  0  0  0  0  0  0
   28.5220   44.6450   -2.1660 C   0  0  0  0  0  0  0  0  0  0  0  0
   28.0970   46.6770   -0.8870 C   0  0  0  0  0  0  0  0  0  0  0  0
   27.7950   45.3400   -1.1990 C   0  0  0  0  0  0  0  0  0  0  0  0
  2  1  1  0
  2  3  1  0
  2  4  1  0
  5  2  1  6
  5  6  1  0
  5  7  1  0
  6  8  1  1
  6  9  1  0
  7 10  1  0
  9 10  2  0
  9 11  1  0
 10 12  1  0
 11 13  2  0
 12 14  2  0
 13 14  1  0
M  END
