mac-x0188-mac-x0415
     RDKit          3D

 26 29  0  0  0  0  0  0  0  0999 V2000
   32.2600   45.0750   -3.9640 C   0  0  0  0  0  0  0  0  0  0  0  0
   32.0000   46.5350   -4.0260 C   0  0  0  0  0  0  0  0  0  0  0  0
   32.5990   47.2670   -3.0520 O   0  0  0  0  0  0  0  0  0  0  0  0
   30.9760   44.3230   -3.5750 C   0  0  1  0  0  0  0  0  0  0  0  0
   31.2670   47.3670   -4.8550 C   0  0  0  0  0  0  0  0  0  0  0  0
   31.2420   42.8660   -3.1450 C   0  0  0  0  0  0  0  0  0  0  0  0
   30.3050   44.8810   -2.3130 C   0  0  2  0  0  0  0  0  0  0  0  0
   30.4550   47.0020   -6.0520 C   0  0  0  0  0  0  0  0  0  0  0  0
   32.2770   48.5930   -3.2030 N   0  0  0  0  0  0  0  0  0  0  0  0
   31.4760   48.6630   -4.2770 C   0  0  0  0  0  0  0  0  0  0  0  0
   30.3950   42.6050   -1.9530 N   0  0  0  0  0  0  0  0  0  0  0  0
   29.4330   43.7120   -1.9210 C   0  0  1  0  0  0  0  0  0  0  0  0
   29.5100   46.1950   -2.3560 C   0  0  0  0  0  0  0  0  0  0  0  0
   29.1490   46.6400   -5.6950 O   0  0  0  0  0  0  0  0  0  0  0  0
   30.3680   48.0410   -6.9890 O   0  0  0  0  0  0  0  0  0  0  0  0
   30.9790   45.9110   -6.7710 O   0  0  0  0  0  0  0  0  0  0  0  0
   30.9490   49.9570   -4.6960 C   0  0  0  0  0  0  0  0  0  0  0  0
   28.7650   43.9580   -0.6150 C   0  0  0  0  0  0  0  0  0  0  0  0
   28.4920   46.3710   -1.2070 C   0  0  2  0  0  0  0  0  0  0  0  0
   28.9210   47.9130   -0.0850 Br  0  0  0  0  0  0  0  0  0  0  0  0
   30.2580   50.7510   -3.7700 C   0  0  0  0  0  0  0  0  0  0  0  0
   31.1190   50.4220   -6.0070 C   0  0  0  0  0  0  0  0  0  0  0  0
   28.3350   45.1840   -0.2910 C   0  0  0  0  0  0  0  0  0  0  0  0
   29.7440   51.9910   -4.1470 C   0  0  0  0  0  0  0  0  0  0  0  0
   30.6030   51.6640   -6.3820 C   0  0  0  0  0  0  0  0  0  0  0  0
   29.9160   52.4480   -5.4550 C   0  0  0  0  0  0  0  0  0  0  0  0
  1  2  1  0
  2  3  1  0
  4  1  1  1
  2  5  2  0
  4  6  1  0
  4  7  1  0
  5  8  1  0
  3  9  1  0
  5 10  1  0
  9 10  2  0
  6 11  1  0
  7 12  1  0
 11 12  1  0
  7 13  1  6
  8 14  1  0
  8 15  1  0
  8 16  1  0
 10 17  1  0
 12 18  1  1
 13 19  1  0
 19 20  1  1
 17 21  2  0
 17 22  1  0
 18 23  2  0
 19 23  1  0
 21 24  1  0
 22 25  2  0
 24 26  2  0
 25 26  1  0
M  END
