mac-x0402-mac-x0437
     RDKit          3D

 28 31  0  0  0  0  0  0  0  0999 V2000
   29.8090   47.8590   -3.1650 Cl  0  0  0  0  0  0  0  0  0  0  0  0
   29.6000   49.3980   -3.9320 C   0  0  0  0  0  0  0  0  0  0  0  0
   29.5150   50.5030   -3.0850 C   0  0  0  0  0  0  0  0  0  0  0  0
   29.5180   49.5200   -5.3380 C   0  0  0  0  0  0  0  0  0  0  0  0
   29.6120   48.3160   -6.2570 C   0  0  0  0  0  0  0  0  0  0  0  0
   29.3420   50.8420   -5.8350 C   0  0  0  0  0  0  0  0  0  0  0  0
   29.3440   51.7830   -3.6070 C   0  0  0  0  0  0  0  0  0  0  0  0
   31.0310   47.7470   -6.3100 C   0  0  0  0  0  0  0  0  0  0  0  0
   29.2550   51.9610   -4.9960 C   0  0  0  0  0  0  0  0  0  0  0  0
   29.1980   51.3990   -7.4690 S   0  0  0  0  0  0  0  0  0  0  0  0
   31.1110   46.5370   -7.2360 C   0  0  0  0  0  0  0  0  0  0  0  0
   29.0360   53.0140   -6.9240 C   0  0  0  0  0  0  0  0  0  0  0  0
   29.0830   53.1790   -5.6300 N   0  0  0  0  0  0  0  0  0  0  0  0
   28.8750   54.0300   -7.7850 N   0  0  0  0  0  0  0  0  0  0  0  0
   31.4470   45.3860   -6.4470 O   0  0  0  0  0  0  0  0  0  0  0  0
   32.7600   45.0310   -6.4880 C   0  0  0  0  0  0  0  0  0  0  0  0
   33.5120   45.1960   -7.4390 O   0  0  0  0  0  0  0  0  0  0  0  0
   33.1870   44.3930   -5.1900 C   0  0  0  0  0  0  0  0  0  0  0  0
   32.9520   45.3460   -4.0250 C   0  0  0  0  0  0  0  0  0  0  0  0
   34.1660   46.0090   -3.5780 N   0  0  0  0  0  0  0  0  0  0  0  0
   34.3650   47.3630   -3.5750 C   0  0  0  0  0  0  0  0  0  0  0  0
   35.3020   45.4070   -3.0910 C   0  0  0  0  0  0  0  0  0  0  0  0
   35.5590   47.6760   -3.1170 N   0  0  0  0  0  0  0  0  0  0  0  0
   36.1550   46.4760   -2.8120 C   0  0  0  0  0  0  0  0  0  0  0  0
   35.6660   44.0720   -2.8710 C   0  0  0  0  0  0  0  0  0  0  0  0
   37.4310   46.2200   -2.2910 C   0  0  0  0  0  0  0  0  0  0  0  0
   36.9470   43.8390   -2.3490 C   0  0  0  0  0  0  0  0  0  0  0  0
   37.8170   44.8950   -2.0630 C   0  0  0  0  0  0  0  0  0  0  0  0
  1  2  1  0
  2  3  2  0
  2  4  1  0
  4  5  1  0
  4  6  2  0
  3  7  1  0
  5  8  1  0
  6  9  1  0
  7  9  2  0
  6 10  1  0
  8 11  1  0
 10 12  1  0
  9 13  1  0
 12 13  2  0
 12 14  1  0
 11 15  1  0
 15 16  1  0
 16 17  2  0
 16 18  1  0
 18 19  1  0
 19 20  1  0
 20 21  1  0
 20 22  1  0
 21 23  2  0
 22 24  2  0
 23 24  1  0
 22 25  1  0
 24 26  1  0
 25 27  2  0
 26 28  2  0
 27 28  1  0
M  END
