mac-x0398-mac-x0283
     RDKit          3D

 14 15  0  0  0  0  0  0  0  0999 V2000
   27.9850   53.9480   -7.0510 N   0  0  0  0  0  0  0  0  0  0  0  0
   28.9880   53.4630   -6.0890 C   0  0  2  0  0  0  0  0  0  0  0  0
   28.3990   52.3790   -5.1620 C   0  0  2  0  0  0  0  0  0  0  0  0
   29.5320   54.6620   -5.3150 C   0  0  0  0  0  0  0  0  0  0  0  0
   29.4010   51.9710   -4.0380 C   0  0  1  0  0  0  0  0  0  0  0  0
   28.1050   51.0960   -5.8800 C   0  0  0  0  0  0  0  0  0  0  0  0
   29.8830   54.3160   -3.9420 N   0  0  0  0  0  0  0  0  0  0  0  0
   28.7830   51.9650   -2.7540 O   0  0  0  0  0  0  0  0  0  0  0  0
   30.0070   50.6260   -4.5420 C   0  0  2  0  0  0  0  0  0  0  0  0
   28.9870   50.1550   -5.5530 C   0  0  0  0  0  0  0  0  0  0  0  0
   30.4490   52.9660   -4.0010 O   0  0  0  0  0  0  0  0  0  0  0  0
   30.2130   49.5900   -3.4600 C   0  0  0  0  0  0  0  0  0  0  0  0
   30.4590   49.8280   -2.2860 O   0  0  0  0  0  0  0  0  0  0  0  0
   30.0980   48.3120   -3.8720 O   0  0  0  0  0  0  0  0  0  0  0  0
  2  1  1  6
  2  3  1  0
  2  4  1  0
  3  5  1  0
  3  6  1  6
  4  7  1  0
  5  8  1  1
  5  9  1  0
  6 10  2  0
  9 10  1  0
  5 11  1  0
  7 11  1  0
  9 12  1  1
 12 13  2  0
 12 14  1  0
M  END
