mac-x1493-mac-x0394
     RDKit          3D

 25 27  0  0  0  0  0  0  0  0999 V2000
   29.8470   48.1290   -5.5020 O   0  0  0  0  0  0  0  0  0  0  0  0
   30.0780   48.7420   -4.3260 C   0  0  0  0  0  0  0  0  0  0  0  0
   30.3770   48.1020   -3.3360 O   0  0  0  0  0  0  0  0  0  0  0  0
   29.9350   50.2160   -4.3860 C   0  0  0  0  0  0  0  0  0  0  0  0
   29.6050   50.9370   -5.5380 C   0  0  0  0  0  0  0  0  0  0  0  0
   30.1400   50.9370   -3.2250 C   0  0  0  0  0  0  0  0  0  0  0  0
   29.4850   52.3580   -5.4870 C   0  0  0  0  0  0  0  0  0  0  0  0
   30.0370   52.2860   -3.1390 N   0  0  0  0  0  0  0  0  0  0  0  0
   29.7130   52.9770   -4.2430 C   0  0  0  0  0  0  0  0  0  0  0  0
   29.1520   53.1970   -6.5810 C   0  0  0  0  0  0  0  0  0  0  0  0
   28.9110   52.6960   -7.8340 O   0  0  0  0  0  0  0  0  0  0  0  0
   29.5970   54.3620   -4.1570 C   0  0  0  0  0  0  0  0  0  0  0  0
   29.0380   54.5730   -6.4770 C   0  0  0  0  0  0  0  0  0  0  0  0
   27.6080   52.2760   -7.8450 C   0  0  0  0  0  0  0  0  0  0  0  0
   29.2630   55.1580   -5.2520 C   0  0  0  0  0  0  0  0  0  0  0  0
   26.7220   52.6200   -8.6090 O   0  0  0  0  0  0  0  0  0  0  0  0
   27.4530   51.2910   -6.7130 C   0  0  0  0  0  0  0  0  0  0  0  0
   26.6050   51.7510   -5.5520 C   0  0  0  0  0  0  0  0  0  0  0  0
   26.7790   52.9770   -4.8720 C   0  0  0  0  0  0  0  0  0  0  0  0
   25.5900   50.8970   -5.1370 C   0  0  0  0  0  0  0  0  0  0  0  0
   25.9330   53.3080   -3.8030 C   0  0  0  0  0  0  0  0  0  0  0  0
   24.7630   51.2370   -4.0820 C   0  0  0  0  0  0  0  0  0  0  0  0
   23.5200   50.1450   -3.6160 Cl  0  0  0  0  0  0  0  0  0  0  0  0
   26.1240   54.8000   -2.9600 Cl  0  0  0  0  0  0  0  0  0  0  0  0
   24.9240   52.4400   -3.4050 C   0  0  0  0  0  0  0  0  0  0  0  0
  1  2  1  0
  2  3  2  0
  2  4  1  0
  4  5  2  0
  4  6  1  0
  5  7  1  0
  6  8  2  0
  7  9  2  0
  8  9  1  0
  7 10  1  0
 10 11  1  0
  9 12  1  0
 10 13  2  0
 11 14  1  0
 12 15  2  0
 13 15  1  0
 14 16  2  0
 14 17  1  0
 17 18  1  0
 18 19  2  0
 18 20  1  0
 19 21  1  0
 20 22  2  0
 22 23  1  0
 21 24  1  0
 21 25  2  0
 22 25  1  0
M  END
