mac-x0357-mac-x0587
     RDKit          3D

 23 24  0  0  0  0  0  0  0  0999 V2000
   32.3160   43.5670   -5.1970 C   0  0  0  0  0  0  0  0  0  0  0  0
   33.3240   44.2590   -4.3370 C   0  0  0  0  0  0  0  0  0  0  0  0
   34.1610   43.5840   -3.4730 C   0  0  0  0  0  0  0  0  0  0  0  0
   33.3870   45.6240   -4.4340 C   0  0  0  0  0  0  0  0  0  0  0  0
   34.1150   42.2200   -3.3580 O   0  0  0  0  0  0  0  0  0  0  0  0
   32.3790   46.6400   -5.4940 S   0  0  0  0  0  0  0  0  0  0  0  0
   34.2860   46.3560   -3.6810 C   0  0  0  0  0  0  0  0  0  0  0  0
   35.0720   44.2990   -2.7070 C   0  0  0  0  0  0  0  0  0  0  0  0
   31.1720   46.6100   -4.5020 N   0  0  0  0  0  0  0  0  0  0  0  0
   33.3500   46.4300   -6.5850 O   0  0  0  0  0  0  0  0  0  0  0  0
   32.7750   48.2830   -5.3530 C   0  0  0  0  0  0  0  0  0  0  0  0
   31.3710   46.0260   -6.5270 O   0  0  0  0  0  0  0  0  0  0  0  0
   35.1170   45.6680   -2.8270 C   0  0  0  0  0  0  0  0  0  0  0  0
   30.5670   45.4670   -3.8100 C   0  0  0  0  0  0  0  0  0  0  0  0
   32.7360   48.8920   -3.6370 S   0  0  0  0  0  0  0  0  0  0  0  0
   30.3100   47.7420   -4.3220 C   0  0  0  0  0  0  0  0  0  0  0  0
   29.9510   47.8780   -3.0630 O   0  0  0  0  0  0  0  0  0  0  0  0
   29.8000   48.6920   -5.2040 N   0  0  0  0  0  0  0  0  0  0  0  0
   30.1930   50.0340   -5.4320 C   0  0  0  0  0  0  0  0  0  0  0  0
   28.4190   48.6300   -5.6990 C   0  0  0  0  0  0  0  0  0  0  0  0
   27.6500   47.6520   -5.6550 O   0  0  0  0  0  0  0  0  0  0  0  0
   28.9370   50.8740   -5.6780 C   0  0  0  0  0  0  0  0  0  0  0  0
   28.0590   49.8800   -6.2550 N   0  0  0  0  0  0  0  0  0  0  0  0
  1  2  1  0
  2  3  2  0
  2  4  1  0
  3  5  1  0
  4  6  1  0
  4  7  2  0
  3  8  1  0
  6  9  1  0
  6 10  1  0
  6 11  1  0
  6 12  2  0
  7 13  1  0
  8 13  2  0
  9 14  1  0
 11 15  1  0
  9 16  1  0
 16 17  2  0
 16 18  1  0
 18 19  1  0
 18 20  1  0
 20 21  2  0
 19 22  1  0
 20 23  1  0
 22 23  1  0
M  END
