mac-x0415-mac-x0437
     RDKit          3D

 24 27  0  0  0  0  0  0  0  0999 V2000
   33.4270   46.3050   -6.4720 O   0  0  0  0  0  0  0  0  0  0  0  0
   32.2350   45.8120   -6.0640 C   0  0  0  0  0  0  0  0  0  0  0  0
   31.3560   45.5430   -6.8630 O   0  0  0  0  0  0  0  0  0  0  0  0
   32.1150   45.6600   -4.5550 C   0  0  2  0  0  0  0  0  0  0  0  0
   33.2140   44.8740   -3.8910 C   0  0  0  0  0  0  0  0  0  0  0  0
   30.7940   45.3500   -4.0100 C   0  0  0  0  0  0  0  0  0  0  0  0
   29.9450   44.1590   -4.1800 C   0  0  0  0  0  0  0  0  0  0  0  0
   30.0860   46.0700   -3.1860 C   0  0  0  0  0  0  0  0  0  0  0  0
   34.3010   45.7230   -3.5240 N   0  0  0  0  0  0  0  0  0  0  0  0
   28.8110   44.1410   -3.5270 N   0  0  0  0  0  0  0  0  0  0  0  0
   28.7770   45.4540   -2.8510 C   0  0  1  0  0  0  0  0  0  0  0  0
   30.4180   47.3310   -2.5890 C   0  0  0  0  0  0  0  0  0  0  0  0
   34.3170   47.0870   -3.6150 C   0  0  0  0  0  0  0  0  0  0  0  0
   35.4860   45.3010   -3.0350 C   0  0  0  0  0  0  0  0  0  0  0  0
   28.5880   45.5050   -1.3750 C   0  0  0  0  0  0  0  0  0  0  0  0
   29.9640   47.5470   -1.3450 C   0  0  0  0  0  0  0  0  0  0  0  0
   35.4640   47.5750   -3.2100 N   0  0  0  0  0  0  0  0  0  0  0  0
   36.2020   46.4770   -2.8490 C   0  0  0  0  0  0  0  0  0  0  0  0
   35.9950   44.0350   -2.7460 C   0  0  0  0  0  0  0  0  0  0  0  0
   30.3340   49.1300   -0.4280 Br  0  0  0  0  0  0  0  0  0  0  0  0
   29.1590   46.5180   -0.6740 C   0  0  0  0  0  0  0  0  0  0  0  0
   37.5030   46.4060   -2.3500 C   0  0  0  0  0  0  0  0  0  0  0  0
   37.2940   43.9830   -2.2470 C   0  0  0  0  0  0  0  0  0  0  0  0
   38.0390   45.1470   -2.0510 C   0  0  0  0  0  0  0  0  0  0  0  0
  1  2  1  0
  2  3  2  0
  2  4  1  0
  4  5  1  6
  4  6  1  0
  6  7  1  0
  6  8  2  0
  5  9  1  0
  7 10  2  0
  8 11  1  0
 10 11  1  0
  8 12  1  0
  9 13  1  0
  9 14  1  0
 11 15  1  1
 12 16  2  0
 13 17  2  0
 14 18  2  0
 17 18  1  0
 14 19  1  0
 16 20  1  0
 15 21  2  0
 16 21  1  0
 18 22  1  0
 19 23  2  0
 22 24  2  0
 23 24  1  0
M  END
