mac-x0306-mac-x0131
     RDKit          3D

 24 27  0  0  0  0  0  0  0  0999 V2000
   30.2860   49.2210   -2.2530 C   0  0  0  0  0  0  0  0  0  0  0  0
   29.7540   49.7930   -3.5720 C   0  0  1  0  0  0  0  0  0  0  0  0
   29.9760   51.3090   -3.6450 C   0  0  0  0  0  0  0  0  0  0  0  0
   30.2770   49.1100   -4.7810 N   0  0  0  0  0  0  0  0  0  0  0  0
   30.4300   47.6460   -4.6040 C   0  0  0  0  0  0  0  0  0  0  0  0
   29.5440   49.5440   -6.0400 C   0  0  2  0  0  0  0  0  0  0  0  0
   29.3010   51.8990   -4.8860 C   0  0  1  0  0  0  0  0  0  0  0  0
   29.6120   53.3660   -5.0540 C   0  0  0  0  0  0  0  0  0  0  0  0
   29.6300   51.1070   -6.1710 C   0  0  0  0  0  0  0  0  0  0  0  0
   31.8510   47.2350   -4.3920 C   0  0  0  0  0  0  0  0  0  0  0  0
   28.0360   49.0500   -6.1230 C   0  0  1  0  0  0  0  0  0  0  0  0
   30.1830   48.8390   -7.3040 C   0  0  0  0  0  0  0  0  0  0  0  0
   27.0670   50.0220   -5.6380 N   0  0  0  0  0  0  0  0  0  0  0  0
   29.3370   54.0910   -6.1930 N   0  0  0  0  0  0  0  0  0  0  0  0
   30.1790   54.1420   -4.1490 N   0  0  0  0  0  0  0  0  0  0  0  0
   32.5690   46.1120   -4.7460 C   0  0  0  0  0  0  0  0  0  0  0  0
   32.6570   48.1000   -3.7140 O   0  0  0  0  0  0  0  0  0  0  0  0
   27.5530   48.7440   -7.4560 N   0  0  0  0  0  0  0  0  0  0  0  0
   29.5950   47.5450   -7.7030 N   0  0  0  0  0  0  0  0  0  0  0  0
   30.2690   55.3850   -4.7160 C   0  0  0  0  0  0  0  0  0  0  0  0
   29.7510   55.3760   -5.9870 C   0  0  0  0  0  0  0  0  0  0  0  0
   33.8850   47.5310   -3.6390 C   0  0  0  0  0  0  0  0  0  0  0  0
   33.8860   46.3040   -4.2590 C   0  0  0  0  0  0  0  0  0  0  0  0
   28.2250   47.6560   -8.1430 C   0  0  0  0  0  0  0  0  0  0  0  0
  2  1  1  1
  2  3  1  0
  2  4  1  0
  4  5  1  0
  6  4  1  0
  3  7  1  0
  7  8  1  6
  6  9  1  6
  7  9  1  0
  5 10  1  0
  6 11  1  0
  6 12  1  0
 11 13  1  6
  8 14  1  0
  8 15  2  0
 10 16  2  0
 10 17  1  0
 11 18  1  0
 12 19  1  0
 15 20  1  0
 14 21  1  0
 20 21  2  0
 17 22  1  0
 16 23  1  0
 22 23  2  0
 18 24  1  0
 19 24  1  0
M  END
