mac-x0379-mac-x0568
     RDKit          3D

 18 19  0  0  0  0  0  0  0  0999 V2000
   31.4420   51.5200   -5.2210 C   0  0  0  0  0  0  0  0  0  0  0  0
   31.1160   50.1870   -4.6200 C   0  0  0  0  0  0  0  0  0  0  0  0
   31.5020   49.8530   -3.4180 N   0  0  0  0  0  0  0  0  0  0  0  0
   30.3140   49.1420   -5.3920 C   0  0  1  0  0  0  0  0  0  0  0  0
   31.0140   48.5820   -3.2540 C   0  0  0  0  0  0  0  0  0  0  0  0
   30.3430   48.1200   -4.3120 C   0  0  0  0  0  0  0  0  0  0  0  0
   29.0090   49.6550   -5.8280 N   0  0  0  0  0  0  0  0  0  0  0  0
   29.7490   46.7950   -4.3490 C   0  0  0  0  0  0  0  0  0  0  0  0
   28.2950   50.4930   -4.8640 C   0  0  0  0  0  0  0  0  0  0  0  0
   29.4320   46.1260   -3.3820 O   0  0  0  0  0  0  0  0  0  0  0  0
   29.5700   46.3490   -5.6020 O   0  0  0  0  0  0  0  0  0  0  0  0
   28.5590   51.9520   -5.1300 C   0  0  0  0  0  0  0  0  0  0  0  0
   28.5850   52.8720   -4.0870 C   0  0  0  0  0  0  0  0  0  0  0  0
   28.7890   52.4400   -6.4180 C   0  0  0  0  0  0  0  0  0  0  0  0
   28.8160   54.1980   -4.2440 N   0  0  0  0  0  0  0  0  0  0  0  0
   29.0310   53.7990   -6.6080 C   0  0  0  0  0  0  0  0  0  0  0  0
   29.0360   54.6430   -5.5020 C   0  0  0  0  0  0  0  0  0  0  0  0
   29.2950   56.1110   -5.6750 C   0  0  0  0  0  0  0  0  0  0  0  0
  1  2  1  0
  2  3  2  0
  2  4  1  0
  3  5  1  0
  4  6  1  0
  5  6  2  0
  4  7  1  1
  6  8  1  0
  7  9  1  0
  8 10  2  0
  8 11  1  0
  9 12  1  0
 12 13  2  0
 12 14  1  0
 13 15  1  0
 14 16  2  0
 15 17  2  0
 16 17  1  0
 17 18  1  0
M  END
