mac-x0231-mac-x0371
     RDKit          3D

 17 18  0  0  0  0  0  0  0  0999 V2000
   34.3530   45.6390   -6.7930 N   0  0  0  0  0  0  0  0  0  0  0  0
   33.0380   45.1380   -6.3640 C   0  0  0  0  0  0  0  0  0  0  0  0
   32.0930   45.4470   -7.0890 O   0  0  0  0  0  0  0  0  0  0  0  0
   34.4990   46.8550   -6.6230 O   0  0  0  0  0  0  0  0  0  0  0  0
   32.8520   44.3030   -5.1360 C   0  0  0  0  0  0  0  0  0  0  0  0
   31.5850   44.6230   -4.3730 C   0  0  0  0  0  0  0  0  0  0  0  0
   31.4540   45.9010   -3.5270 C   0  0  1  0  0  0  0  0  0  0  0  0
   30.6130   43.7530   -4.4710 N   0  0  0  0  0  0  0  0  0  0  0  0
   30.7500   47.2290   -4.5140 Cl  0  0  0  0  0  0  0  0  0  0  0  0
   30.5050   45.6720   -2.3700 C   0  0  2  0  0  0  0  0  0  0  0  0
   29.4540   43.9960   -3.8010 N   0  0  0  0  0  0  0  0  0  0  0  0
   32.7270   46.4990   -2.9960 C   0  0  0  0  0  0  0  0  0  0  0  0
   29.2640   44.9430   -2.8260 C   0  0  0  0  0  0  0  0  0  0  0  0
   30.2540   47.0120   -1.7090 C   0  0  0  0  0  0  0  0  0  0  0  0
   32.6210   47.4510   -2.0530 C   0  0  0  0  0  0  0  0  0  0  0  0
   28.1410   45.1630   -2.3670 O   0  0  0  0  0  0  0  0  0  0  0  0
   31.3040   47.8530   -1.5750 C   0  0  0  0  0  0  0  0  0  0  0  0
  1  2  1  0
  2  3  2  0
  1  4  2  0
  2  5  1  0
  5  6  1  0
  6  7  1  0
  6  8  2  0
  7  9  1  6
  7 10  1  0
  8 11  1  0
  7 12  1  0
 10 13  1  0
 11 13  1  0
 10 14  1  6
 12 15  2  0
 13 16  2  0
 14 17  2  0
 15 17  1  0
M  END
