mac-x0328-mac-x0411
     RDKit          3D

 24 25  0  0  0  0  0  0  0  0999 V2000
   30.2620   47.5250   -3.3160 O   0  0  0  0  0  0  0  0  0  0  0  0
   30.7590   48.1760   -4.4700 C   0  0  0  0  0  0  0  0  0  0  0  0
   30.1060   47.5420   -5.5580 O   0  0  0  0  0  0  0  0  0  0  0  0
   32.2850   47.8700   -4.5390 C   0  0  0  0  0  0  0  0  0  0  0  0
   30.3390   49.6410   -4.3370 C   0  0  0  0  0  0  0  0  0  0  0  0
   32.9150   47.2550   -3.2640 C   0  0  0  0  0  0  0  0  0  0  0  0
   29.8670   50.3510   -5.4650 C   0  0  0  0  0  0  0  0  0  0  0  0
   30.4030   50.3420   -3.1190 C   0  0  0  0  0  0  0  0  0  0  0  0
   29.4810   51.6970   -5.3820 C   0  0  0  0  0  0  0  0  0  0  0  0
   30.0190   51.6860   -3.0320 C   0  0  0  0  0  0  0  0  0  0  0  0
   34.4270   47.0280   -3.2310 C   0  0  0  0  0  0  0  0  0  0  0  0
   29.5640   52.3530   -4.1610 C   0  0  0  0  0  0  0  0  0  0  0  0
   35.0640   45.7600   -3.3790 C   0  0  0  0  0  0  0  0  0  0  0  0
   35.2520   48.1550   -3.0280 C   0  0  0  0  0  0  0  0  0  0  0  0
   29.2090   53.6630   -4.0210 O   0  0  0  0  0  0  0  0  0  0  0  0
   34.3460   44.5940   -3.5810 O   0  0  0  0  0  0  0  0  0  0  0  0
   36.6430   48.0440   -2.9700 C   0  0  0  0  0  0  0  0  0  0  0  0
   36.4690   45.6630   -3.3160 C   0  0  0  0  0  0  0  0  0  0  0  0
   37.2810   44.1450   -3.4840 Cl  0  0  0  0  0  0  0  0  0  0  0  0
   33.0990   44.7590   -4.2800 C   0  0  0  0  0  0  0  0  0  0  0  0
   37.2520   46.8010   -3.1130 C   0  0  0  0  0  0  0  0  0  0  0  0
   33.3550   45.0320   -5.7500 C   0  0  0  0  0  0  0  0  0  0  0  0
   32.2270   44.9640   -6.4870 O   0  0  0  0  0  0  0  0  0  0  0  0
   34.4220   45.2920   -6.2860 O   0  0  0  0  0  0  0  0  0  0  0  0
  2  1  1  0
  2  3  1  0
  2  4  1  0
  2  5  1  0
  4  6  1  0
  5  7  2  0
  5  8  1  0
  7  9  1  0
  8 10  2  0
  6 11  1  0
  9 12  2  0
 10 12  1  0
 11 13  2  0
 11 14  1  0
 12 15  1  0
 13 16  1  0
 14 17  2  0
 13 18  1  0
 18 19  1  0
 16 20  1  0
 17 21  1  0
 18 21  2  0
 20 22  1  0
 22 23  1  0
 22 24  2  0
M  END
