mac-x0396-mac-x0345
     RDKit          3D

 11 11  0  0  0  0  0  0  0  0999 V2000
   28.1810   50.4250   -6.3300 N   0  0  0  0  0  0  0  0  0  0  0  0
   29.2760   50.6750   -5.5430 C   0  0  0  0  0  0  0  0  0  0  0  0
   30.0980   49.8060   -5.2900 O   0  0  0  0  0  0  0  0  0  0  0  0
   29.4020   52.0480   -5.0240 C   0  0  0  0  0  0  0  0  0  0  0  0
   29.6910   52.2610   -3.6750 C   0  0  0  0  0  0  0  0  0  0  0  0
   29.2380   53.1620   -5.8530 C   0  0  0  0  0  0  0  0  0  0  0  0
   29.8740   51.2330   -2.7570 N   0  0  0  0  0  0  0  0  0  0  0  0
   28.8430   53.0290   -7.7070 Br  0  0  0  0  0  0  0  0  0  0  0  0
   29.8170   53.4990   -3.1500 N   0  0  0  0  0  0  0  0  0  0  0  0
   29.3670   54.4420   -5.3200 C   0  0  0  0  0  0  0  0  0  0  0  0
   29.6540   54.5570   -3.9740 C   0  0  0  0  0  0  0  0  0  0  0  0
  1  2  1  0
  2  3  2  0
  2  4  1  0
  4  5  2  0
  4  6  1  0
  5  7  1  0
  6  8  1  0
  5  9  1  0
  6 10  2  0
  9 11  2  0
 10 11  1  0
M  END
