mac-x0412-mac-x0361
     RDKit          3D

 14 16  0  0  0  0  0  0  0  0999 V2000
   29.3980   54.3460   -4.4870 N   0  0  0  0  0  0  0  0  0  0  0  0
   29.7840   53.4570   -3.6520 C   0  0  0  0  0  0  0  0  0  0  0  0
   30.2190   53.8020   -2.4640 N   0  0  0  0  0  0  0  0  0  0  0  0
   29.0340   53.5760   -5.5700 C   0  0  0  0  0  0  0  0  0  0  0  0
   29.2110   52.2420   -5.3490 C   0  0  0  0  0  0  0  0  0  0  0  0
   28.5650   54.0790   -6.6980 N   0  0  0  0  0  0  0  0  0  0  0  0
   29.7000   52.0690   -4.1130 C   0  0  0  0  0  0  0  0  0  0  0  0
   28.9290   51.2520   -6.2560 C   0  0  0  0  0  0  0  0  0  0  0  0
   28.2680   53.1410   -7.6320 C   0  0  0  0  0  0  0  0  0  0  0  0
   29.9730   50.7980   -3.6300 C   0  0  0  0  0  0  0  0  0  0  0  0
   28.4250   51.7480   -7.4730 C   0  0  0  0  0  0  0  0  0  0  0  0
   29.1930   49.9300   -5.8060 C   0  0  0  0  0  0  0  0  0  0  0  0
   29.7120   49.7240   -4.4980 C   0  0  0  0  0  0  0  0  0  0  0  0
   29.9840   48.4650   -4.0180 O   0  0  0  0  0  0  0  0  0  0  0  0
  1  2  2  0
  2  3  1  0
  1  4  1  0
  4  5  1  0
  4  6  2  0
  2  7  1  0
  5  7  2  0
  5  8  1  0
  6  9  1  0
  7 10  1  0
  8 11  1  0
  9 11  2  0
  8 12  2  0
 10 13  2  0
 12 13  1  0
 13 14  1  0
M  END
