mac-x0379-mac-x0360
     RDKit          3D

 20 21  0  0  0  0  0  0  0  0999 V2000
   30.5790   50.8620   -5.6590 C   0  0  0  0  0  0  0  0  0  0  0  0
   29.6600   51.2650   -7.0560 S   0  0  0  0  0  0  0  0  0  0  0  0
   28.4630   50.1160   -6.8460 N   0  0  0  0  0  0  0  0  0  0  0  0
   30.2500   49.8250   -4.7270 C   0  0  0  0  0  0  0  0  0  0  0  0
   29.6900   52.3210   -8.3070 O   0  0  0  0  0  0  0  0  0  0  0  0
   29.3780   50.0480   -3.7660 N   0  0  0  0  0  0  0  0  0  0  0  0
   30.9270   48.2550   -4.7580 S   0  0  0  0  0  0  0  0  0  0  0  0
   31.1270   52.0820   -6.6060 C   0  0  0  0  0  0  0  0  0  0  0  0
   29.2350   48.9040   -3.0010 C   0  0  0  0  0  0  0  0  0  0  0  0
   29.9970   47.8220   -3.3850 C   0  0  0  0  0  0  0  0  0  0  0  0
   32.3760   51.5550   -6.9450 C   0  0  0  0  0  0  0  0  0  0  0  0
   31.0250   53.2830   -5.8980 C   0  0  0  0  0  0  0  0  0  0  0  0
   30.0340   46.5230   -2.7660 C   0  0  0  0  0  0  0  0  0  0  0  0
   33.5310   52.2450   -6.5670 C   0  0  0  0  0  0  0  0  0  0  0  0
   32.1900   53.9560   -5.5300 C   0  0  0  0  0  0  0  0  0  0  0  0
   30.3910   46.2660   -1.6260 O   0  0  0  0  0  0  0  0  0  0  0  0
   29.6220   45.5270   -3.5810 O   0  0  0  0  0  0  0  0  0  0  0  0
   32.0790   55.4380   -4.6580 Cl  0  0  0  0  0  0  0  0  0  0  0  0
   35.0770   51.6100   -6.9760 Cl  0  0  0  0  0  0  0  0  0  0  0  0
   33.4440   53.4440   -5.8590 C   0  0  0  0  0  0  0  0  0  0  0  0
  1  2  2  0
  2  3  1  0
  1  4  1  0
  2  5  2  0
  4  6  2  0
  4  7  1  0
  2  8  1  0
  6  9  1  0
  7 10  1  0
  9 10  2  0
  8 11  2  0
  8 12  1  0
 10 13  1  0
 11 14  1  0
 12 15  2  0
 13 16  2  0
 13 17  1  0
 15 18  1  0
 14 19  1  0
 14 20  2  0
 15 20  1  0
M  END
