mac-x0182-mac-x0348
     RDKit          3D

 26 29  0  0  0  0  0  0  0  0999 V2000
   35.7470   43.2100   -2.0950 O   0  0  0  0  0  0  0  0  0  0  0  0
   35.5550   44.2870   -2.6360 C   0  0  0  0  0  0  0  0  0  0  0  0
   34.3270   44.8420   -2.8870 N   0  0  0  0  0  0  0  0  0  0  0  0
   36.6500   45.1670   -3.1070 C   0  0  0  0  0  0  0  0  0  0  0  0
   34.4600   46.3710   -3.5830 S   0  0  2  0  0  0  0  0  0  0  0  0
   36.1910   46.3580   -3.6560 C   0  0  0  0  0  0  0  0  0  0  0  0
   38.0100   44.9020   -3.0420 C   0  0  0  0  0  0  0  0  0  0  0  0
   34.0380   47.2810   -2.5480 O   0  0  0  0  0  0  0  0  0  0  0  0
   33.8580   46.1790   -4.9650 N   0  0  0  0  0  0  0  0  0  0  0  0
   37.0350   47.3290   -4.1590 C   0  0  0  0  0  0  0  0  0  0  0  0
   38.8900   45.8660   -3.5440 C   0  0  0  0  0  0  0  0  0  0  0  0
   32.5120   46.5230   -5.1610 C   0  0  0  0  0  0  0  0  0  0  0  0
   38.4080   47.0690   -4.0970 C   0  0  0  0  0  0  0  0  0  0  0  0
   31.5100   45.9290   -4.1880 C   0  0  0  0  0  0  0  0  0  0  0  0
   32.1680   47.2640   -6.0780 O   0  0  0  0  0  0  0  0  0  0  0  0
   30.1200   46.5280   -4.3700 C   0  0  0  0  0  0  0  0  0  0  0  0
   29.2400   46.2560   -3.1890 C   0  0  0  0  0  0  0  0  0  0  0  0
   28.4520   45.1370   -2.9960 C   0  0  0  0  0  0  0  0  0  0  0  0
   29.0510   47.0980   -2.0470 C   0  0  0  0  0  0  0  0  0  0  0  0
   27.8040   45.2680   -1.7970 N   0  0  0  0  0  0  0  0  0  0  0  0
   28.1490   46.4580   -1.1930 C   0  0  0  0  0  0  0  0  0  0  0  0
   29.5690   48.3540   -1.6650 C   0  0  0  0  0  0  0  0  0  0  0  0
   26.8880   44.2960   -1.2450 C   0  0  0  0  0  0  0  0  0  0  0  0
   29.1740   48.9260   -0.4510 C   0  0  0  0  0  0  0  0  0  0  0  0
   27.7460   47.0220    0.0280 C   0  0  0  0  0  0  0  0  0  0  0  0
   28.2760   48.2670    0.3810 C   0  0  0  0  0  0  0  0  0  0  0  0
  1  2  2  0
  2  3  1  0
  2  4  1  0
  5  3  1  1
  4  6  2  0
  5  6  1  0
  4  7  1  0
  5  8  2  0
  5  9  2  0
  6 10  1  0
  7 11  2  0
  9 12  1  0
 10 13  2  0
 11 13  1  0
 12 14  1  0
 12 15  2  0
 14 16  1  0
 16 17  1  0
 17 18  2  0
 17 19  1  0
 18 20  1  0
 19 21  2  0
 20 21  1  0
 19 22  1  0
 20 23  1  0
 22 24  2  0
 21 25  1  0
 24 26  1  0
 25 26  2  0
M  END
