mac-x0417-mac-x0188
     RDKit          3D

 26 30  0  0  0  0  0  0  0  0999 V2000
   31.6900   44.9760   -5.8510 O   0  0  0  0  0  0  0  0  0  0  0  0
   33.0330   45.1520   -5.7290 C   0  0  0  0  0  0  0  0  0  0  0  0
   33.7860   44.6730   -6.5640 O   0  0  0  0  0  0  0  0  0  0  0  0
   30.8130   45.9360   -5.5050 C   0  0  0  0  0  0  0  0  0  0  0  0
   33.5630   45.9590   -4.5800 C   0  0  2  0  0  0  0  0  0  0  0  0
   29.6170   45.8430   -5.7960 O   0  0  0  0  0  0  0  0  0  0  0  0
   31.3280   47.1200   -4.7520 C   0  0  2  0  0  0  0  0  0  0  0  0
   34.5700   45.3390   -3.6680 C   0  0  0  0  0  0  0  0  0  0  0  0
   32.5270   46.8320   -3.9200 C   0  0  1  0  0  0  0  0  0  0  0  0
   30.3220   47.5790   -3.7170 C   0  0  1  0  0  0  0  0  0  0  0  0
   34.6100   44.0540   -3.2550 N   0  0  0  0  0  0  0  0  0  0  0  0
   35.6310   46.0800   -3.1340 C   0  0  0  0  0  0  0  0  0  0  0  0
   32.0160   46.3680   -2.6840 O   0  0  0  0  0  0  0  0  0  0  0  0
   30.9880   47.3520   -2.4150 N   0  0  0  0  0  0  0  0  0  0  0  0
   29.8660   48.9990   -3.9850 C   0  0  0  0  0  0  0  0  0  0  0  0
   35.7330   43.9700   -2.4360 O   0  0  0  0  0  0  0  0  0  0  0  0
   36.3420   45.1890   -2.3710 C   0  0  0  0  0  0  0  0  0  0  0  0
   36.0560   47.4120   -3.2270 C   0  0  0  0  0  0  0  0  0  0  0  0
   29.7600   49.9860   -2.9930 C   0  0  0  0  0  0  0  0  0  0  0  0
   29.5280   49.3410   -5.3050 C   0  0  0  0  0  0  0  0  0  0  0  0
   37.4920   45.5290   -1.6660 C   0  0  0  0  0  0  0  0  0  0  0  0
   37.2020   47.7930   -2.5340 C   0  0  0  0  0  0  0  0  0  0  0  0
   29.3250   51.2700   -3.3150 C   0  0  0  0  0  0  0  0  0  0  0  0
   29.0940   50.6240   -5.6250 C   0  0  0  0  0  0  0  0  0  0  0  0
   37.9100   46.8650   -1.7670 C   0  0  0  0  0  0  0  0  0  0  0  0
   28.9910   51.5910   -4.6280 C   0  0  0  0  0  0  0  0  0  0  0  0
  1  2  1  0
  2  3  2  0
  1  4  1  0
  2  5  1  0
  4  6  2  0
  7  4  1  1
  5  8  1  1
  5  9  1  0
  7  9  1  0
  7 10  1  0
  8 11  2  0
  8 12  1  0
  9 13  1  1
 10 14  1  0
 13 14  1  0
 10 15  1  6
 11 16  1  0
 12 17  2  0
 16 17  1  0
 12 18  1  0
 15 19  2  0
 15 20  1  0
 17 21  1  0
 18 22  2  0
 19 23  1  0
 20 24  2  0
 21 25  2  0
 22 25  1  0
 23 26  2  0
 24 26  1  0
M  END
