mac-x0182-mac-x0455
     RDKit          3D

 18 19  0  0  0  0  0  0  0  0999 V2000
   33.5840   43.8480   -2.9650 O   0  0  0  0  0  0  0  0  0  0  0  0
   33.9100   44.9800   -3.2970 C   0  0  0  0  0  0  0  0  0  0  0  0
   33.1280   45.9140   -4.0980 N   0  0  0  0  0  0  0  0  0  0  0  0
   35.2260   45.5960   -2.9330 C   0  0  0  0  0  0  0  0  0  0  0  0
   31.6560   46.3130   -4.0700 C   0  0  2  0  0  0  0  0  0  0  0  0
   34.1440   47.1050   -4.7030 S   0  0  0  0  0  0  0  0  0  0  0  0
   35.4640   46.7640   -3.6310 C   0  0  0  0  0  0  0  0  0  0  0  0
   36.1770   45.1400   -2.0180 C   0  0  0  0  0  0  0  0  0  0  0  0
   33.6070   48.3820   -4.3300 O   0  0  0  0  0  0  0  0  0  0  0  0
   34.5580   46.7600   -6.0400 O   0  0  0  0  0  0  0  0  0  0  0  0
   31.4260   47.8280   -3.9410 C   0  0  0  0  0  0  0  0  0  0  0  0
   30.9990   45.7800   -2.9250 O   0  0  0  0  0  0  0  0  0  0  0  0
   30.8810   45.8790   -5.3530 C   0  0  0  0  0  0  0  0  0  0  0  0
   36.6040   47.5320   -3.4740 C   0  0  0  0  0  0  0  0  0  0  0  0
   37.3480   45.8960   -1.8360 C   0  0  0  0  0  0  0  0  0  0  0  0
   29.7260   45.4790   -5.4240 O   0  0  0  0  0  0  0  0  0  0  0  0
   31.6040   45.9880   -6.4930 O   0  0  0  0  0  0  0  0  0  0  0  0
   37.5590   47.0870   -2.5600 C   0  0  0  0  0  0  0  0  0  0  0  0
  1  2  2  0
  2  3  1  0
  2  4  1  0
  3  5  1  0
  6  3  1  0
  4  7  2  0
  6  7  1  0
  4  8  1  0
  6  9  2  0
  6 10  2  0
  5 11  1  1
  5 12  1  0
  5 13  1  0
  7 14  1  0
  8 15  2  0
 13 16  2  0
 13 17  1  0
 14 18  2  0
 15 18  1  0
M  END
