mac-x0546-mac-x0116
     RDKit          3D

 32 36  0  0  0  0  0  0  0  0999 V2000
   30.8260   48.8890    0.1240 C   0  0  0  0  0  0  0  0  0  0  0  0
   30.2600   47.5970    0.3130 O   0  0  0  0  0  0  0  0  0  0  0  0
   30.0500   46.8210   -0.8000 C   0  0  0  0  0  0  0  0  0  0  0  0
   30.9040   46.6040   -1.8280 C   0  0  0  0  0  0  0  0  0  0  0  0
   28.7280   46.1950   -0.7990 C   0  0  0  0  0  0  0  0  0  0  0  0
   30.4730   45.7190   -2.9570 C   0  0  2  0  0  0  0  0  0  0  0  0
   28.4360   45.1200   -1.5500 C   0  0  0  0  0  0  0  0  0  0  0  0
   29.5670   44.6530   -2.3610 C   0  0  0  0  0  0  0  0  0  0  0  0
   31.4190   44.7660   -3.6140 C   0  0  0  0  0  0  0  0  0  0  0  0
   32.6180   45.1740   -4.4040 C   0  0  0  0  0  0  0  0  0  0  0  0
   29.8740   43.4190   -2.6130 N   0  0  0  0  0  0  0  0  0  0  0  0
   31.0090   43.5100   -3.3780 C   0  0  0  0  0  0  0  0  0  0  0  0
   32.2420   45.6090   -5.8030 C   0  0  0  0  0  0  0  0  0  0  0  0
   31.2020   46.3310   -6.0360 N   0  0  0  0  0  0  0  0  0  0  0  0
   33.0680   45.1930   -6.7810 O   0  0  0  0  0  0  0  0  0  0  0  0
   30.9340   46.6940   -7.4340 C   0  0  0  0  0  0  0  0  0  0  0  0
   30.4070   48.0370   -7.6180 N   0  0  0  0  0  0  0  0  0  0  0  0
   30.0820   48.9320   -6.6310 C   0  0  0  0  0  0  0  0  0  0  0  0
   30.1410   48.6380   -8.8220 C   0  0  0  0  0  0  0  0  0  0  0  0
   30.1780   48.7730   -5.3010 N   0  0  0  0  0  0  0  0  0  0  0  0
   29.6290   50.0540   -7.3050 C   0  0  0  0  0  0  0  0  0  0  0  0
   29.6710   49.8590   -8.6720 N   0  0  0  0  0  0  0  0  0  0  0  0
   29.7640   49.8780   -4.6510 C   0  0  0  0  0  0  0  0  0  0  0  0
   29.2240   51.1560   -6.5240 C   0  0  0  0  0  0  0  0  0  0  0  0
   28.7530   52.3360   -7.1160 N   0  0  0  0  0  0  0  0  0  0  0  0
   29.3020   51.0360   -5.1710 N   0  0  0  0  0  0  0  0  0  0  0  0
   29.1840   53.5610   -6.4510 C   0  0  0  0  0  0  0  0  0  0  0  0
   30.4110   54.1600   -7.0600 C   0  0  0  0  0  0  0  0  0  0  0  0
   31.4360   54.4720   -6.2110 O   0  0  0  0  0  0  0  0  0  0  0  0
   30.7600   54.4830   -8.3550 C   0  0  0  0  0  0  0  0  0  0  0  0
   32.0670   55.0220   -8.2960 C   0  0  0  0  0  0  0  0  0  0  0  0
   32.4320   54.9960   -6.9700 C   0  0  0  0  0  0  0  0  0  0  0  0
  1  2  1  0
  2  3  1  0
  3  4  2  0
  3  5  1  0
  6  4  1  1
  5  7  2  0
  6  8  1  0
  7  8  1  0
  6  9  1  0
  9 10  1  0
  8 11  2  0
  9 12  2  0
 11 12  1  0
 10 13  1  0
 13 14  2  3
 13 15  1  0
 14 16  1  0
 16 17  1  0
 17 18  1  0
 17 19  1  0
 18 20  2  0
 18 21  1  0
 19 22  2  0
 21 22  1  0
 20 23  1  0
 21 24  2  0
 24 25  1  0
 23 26  2  0
 24 26  1  0
 25 27  1  0
 27 28  1  0
 28 29  1  0
 28 30  2  0
 30 31  1  0
 29 32  1  0
 31 32  2  0
M  END
