mac-x0226-mac-x0572
     RDKit          3D

 30 33  0  0  0  0  0  0  0  0999 V2000
   31.9820   45.6460   -6.8620 O   0  0  0  0  0  0  0  0  0  0  0  0
   32.8670   46.3700   -6.0320 C   0  0  0  0  0  0  0  0  0  0  0  0
   33.9210   46.8030   -6.8670 O   0  0  0  0  0  0  0  0  0  0  0  0
   32.1330   47.5980   -5.4580 C   0  0  0  0  0  0  0  0  0  0  0  0
   33.4000   45.5080   -4.9290 C   0  0  0  0  0  0  0  0  0  0  0  0
   30.6230   47.7280   -5.7270 C   0  0  0  0  0  0  0  0  0  0  0  0
   32.9090   44.2690   -4.4650 C   0  0  0  0  0  0  0  0  0  0  0  0
   34.4900   45.7390   -4.1190 C   0  0  0  0  0  0  0  0  0  0  0  0
   29.8300   48.5400   -4.6920 C   0  0  0  0  0  0  0  0  0  0  0  0
   33.6230   43.7710   -3.4560 N   0  0  0  0  0  0  0  0  0  0  0  0
   34.6020   44.6890   -3.2450 N   0  0  0  0  0  0  0  0  0  0  0  0
   35.5800   44.5250   -2.2340 C   0  0  0  0  0  0  0  0  0  0  0  0
   29.3150   49.9220   -5.0520 C   0  0  0  0  0  0  0  0  0  0  0  0
   36.4590   45.5720   -1.9240 C   0  0  0  0  0  0  0  0  0  0  0  0
   35.6760   43.3150   -1.5310 C   0  0  0  0  0  0  0  0  0  0  0  0
   28.6220   50.0040   -6.3330 C   0  0  0  0  0  0  0  0  0  0  0  0
   29.4420   51.0410   -4.3150 C   0  0  0  0  0  0  0  0  0  0  0  0
   37.4170   45.4090   -0.9280 C   0  0  0  0  0  0  0  0  0  0  0  0
   36.6380   43.1580   -0.5340 C   0  0  0  0  0  0  0  0  0  0  0  0
   28.8930   52.3790   -4.7490 C   0  0  1  0  0  0  0  0  0  0  0  0
   28.2970   51.1630   -6.9240 C   0  0  0  0  0  0  0  0  0  0  0  0
   37.5110   44.2060   -0.2310 C   0  0  0  0  0  0  0  0  0  0  0  0
   29.7080   53.5700   -4.2820 C   0  0  0  0  0  0  0  0  0  0  0  0
   28.6530   52.4320   -6.2450 C   0  0  0  0  0  0  0  0  0  0  0  0
   30.4600   53.5320   -3.3080 O   0  0  0  0  0  0  0  0  0  0  0  0
   29.5340   54.8300   -5.0710 C   0  0  0  0  0  0  0  0  0  0  0  0
   28.7330   53.5240   -6.9510 N   0  0  0  0  0  0  0  0  0  0  0  0
   29.8690   56.0190   -4.4500 O   0  0  0  0  0  0  0  0  0  0  0  0
   29.0620   54.7180   -6.3310 C   0  0  0  0  0  0  0  0  0  0  0  0
   28.8400   55.9170   -7.2220 C   0  0  0  0  0  0  0  0  0  0  0  0
  2  1  1  0
  2  3  1  0
  2  4  1  0
  2  5  1  0
  4  6  1  0
  5  7  1  0
  5  8  2  0
  6  9  1  0
  7 10  2  0
  8 11  1  0
 10 11  1  0
 11 12  1  0
  9 13  1  0
 12 14  2  0
 12 15  1  0
 13 16  1  0
 13 17  2  0
 14 18  1  0
 15 19  2  0
 20 17  1  6
 16 21  2  0
 18 22  2  0
 19 22  1  0
 20 23  1  0
 20 24  1  0
 21 24  1  0
 23 25  2  0
 23 26  1  0
 24 27  2  0
 26 28  1  0
 26 29  2  0
 27 29  1  0
 29 30  1  0
M  END
