mac-x0193-mac-x0415
     RDKit          3D

 24 26  0  0  0  0  0  0  0  0999 V2000
   34.0840   45.8060   -6.2940 O   0  0  0  0  0  0  0  0  0  0  0  0
   32.9600   45.3070   -5.7390 C   0  0  0  0  0  0  0  0  0  0  0  0
   32.0050   45.0320   -6.4500 O   0  0  0  0  0  0  0  0  0  0  0  0
   33.0630   45.1510   -4.2110 C   0  0  2  0  0  0  0  0  0  0  0  0
   34.2790   44.3050   -4.0700 N   0  0  0  0  0  0  0  0  0  0  0  0
   31.7580   44.5900   -3.5400 C   0  0  2  0  0  0  0  0  0  0  0  0
   34.6490   43.6120   -2.9350 C   0  0  0  0  0  0  0  0  0  0  0  0
   30.5720   44.2490   -4.4910 C   0  0  0  0  0  0  0  0  0  0  0  0
   31.0360   45.5450   -2.5650 C   0  0  2  0  0  0  0  0  0  0  0  0
   33.9610   42.7460   -2.4260 O   0  0  0  0  0  0  0  0  0  0  0  0
   35.8870   43.9850   -2.4510 N   0  0  0  0  0  0  0  0  0  0  0  0
   29.2970   44.5850   -3.7940 N   0  0  0  0  0  0  0  0  0  0  0  0
   29.6760   44.8390   -2.4090 C   0  0  2  0  0  0  0  0  0  0  0  0
   30.9100   47.0450   -2.8410 C   0  0  0  0  0  0  0  0  0  0  0  0
   36.7630   43.0170   -1.7930 C   0  0  0  0  0  0  0  0  0  0  0  0
   28.7090   45.5900   -1.5480 C   0  0  0  0  0  0  0  0  0  0  0  0
   29.9250   47.7560   -1.8850 C   0  0  2  0  0  0  0  0  0  0  0  0
   30.8800   48.6490   -0.4320 Br  0  0  0  0  0  0  0  0  0  0  0  0
   37.8840   42.5650   -2.7290 C   0  0  0  0  0  0  0  0  0  0  0  0
   37.3520   43.5650   -0.4800 C   0  0  0  0  0  0  0  0  0  0  0  0
   28.8290   46.9030   -1.3100 C   0  0  0  0  0  0  0  0  0  0  0  0
   38.8260   41.5710   -2.0450 C   0  0  0  0  0  0  0  0  0  0  0  0
   38.2990   42.5840    0.2190 C   0  0  0  0  0  0  0  0  0  0  0  0
   39.3920   42.0740   -0.7140 C   0  0  0  0  0  0  0  0  0  0  0  0
  1  2  1  0
  2  3  2  0
  2  4  1  0
  4  5  1  6
  4  6  1  0
  5  7  1  0
  6  8  1  6
  6  9  1  0
  7 10  2  0
  7 11  1  0
  8 12  1  0
  9 13  1  0
 12 13  1  0
  9 14  1  6
 11 15  1  0
 13 16  1  6
 14 17  1  0
 17 18  1  1
 15 19  1  0
 15 20  1  0
 16 21  2  0
 17 21  1  0
 19 22  1  0
 20 23  1  0
 22 24  1  0
 23 24  1  0
M  END
