mac-x0436-mac-x0572
     RDKit          3D

 31 34  0  0  0  0  0  0  0  0999 V2000
   32.5200   44.2890   -7.8530 O   0  0  0  0  0  0  0  0  0  0  0  0
   32.1800   43.9120   -6.5970 C   0  0  0  0  0  0  0  0  0  0  0  0
   31.0950   43.4100   -6.3410 O   0  0  0  0  0  0  0  0  0  0  0  0
   33.2770   44.1860   -5.5980 C   0  0  0  0  0  0  0  0  0  0  0  0
   32.7570   44.9350   -4.3780 C   0  0  0  0  0  0  0  0  0  0  0  0
   33.8620   45.7570   -3.7550 C   0  0  0  0  0  0  0  0  0  0  0  0
   33.5940   47.2510   -3.4630 C   0  0  0  0  0  0  0  0  0  0  0  0
   35.0040   45.1970   -3.4820 N   0  0  0  0  0  0  0  0  0  0  0  0
   32.3790   47.6410   -3.6340 N   0  0  0  0  0  0  0  0  0  0  0  0
   34.6710   47.9950   -3.0560 N   0  0  0  0  0  0  0  0  0  0  0  0
   36.0190   45.9800   -2.9030 C   0  0  0  0  0  0  0  0  0  0  0  0
   32.0100   49.0330   -3.3860 C   0  0  0  0  0  0  0  0  0  0  0  0
   35.8690   47.3670   -2.6850 C   0  0  0  0  0  0  0  0  0  0  0  0
   37.2100   45.3550   -2.5330 C   0  0  0  0  0  0  0  0  0  0  0  0
   30.5120   49.2290   -3.6580 C   0  0  0  0  0  0  0  0  0  0  0  0
   38.2480   46.0870   -1.9540 C   0  0  0  0  0  0  0  0  0  0  0  0
   36.9130   48.0950   -2.1040 C   0  0  0  0  0  0  0  0  0  0  0  0
   38.0990   47.4550   -1.7410 C   0  0  0  0  0  0  0  0  0  0  0  0
   30.2350   50.3940   -4.5770 C   0  0  0  0  0  0  0  0  0  0  0  0
   29.4990   50.1370   -5.8010 C   0  0  0  0  0  0  0  0  0  0  0  0
   30.6460   51.6450   -4.2990 C   0  0  0  0  0  0  0  0  0  0  0  0
   30.3760   52.8170   -5.2120 C   0  0  2  0  0  0  0  0  0  0  0  0
   29.0030   51.1160   -6.5700 C   0  0  0  0  0  0  0  0  0  0  0  0
   30.1440   54.1170   -4.4680 C   0  0  0  0  0  0  0  0  0  0  0  0
   29.2200   52.5250   -6.1500 C   0  0  0  0  0  0  0  0  0  0  0  0
   30.5400   54.3220   -3.3220 O   0  0  0  0  0  0  0  0  0  0  0  0
   29.3920   55.1670   -5.2240 C   0  0  0  0  0  0  0  0  0  0  0  0
   28.4090   53.4360   -6.6020 N   0  0  0  0  0  0  0  0  0  0  0  0
   29.5710   56.4810   -4.8390 O   0  0  0  0  0  0  0  0  0  0  0  0
   28.5890   54.7510   -6.2260 C   0  0  0  0  0  0  0  0  0  0  0  0
   27.7740   55.7060   -7.0640 C   0  0  0  0  0  0  0  0  0  0  0  0
  1  2  1  0
  2  3  2  0
  2  4  1  0
  4  5  1  0
  5  6  1  0
  6  7  1  0
  6  8  2  0
  7  9  2  3
  7 10  1  0
  8 11  1  0
  9 12  1  0
 10 13  1  0
 11 13  2  0
 11 14  1  0
 12 15  1  0
 14 16  2  0
 13 17  1  0
 16 18  1  0
 17 18  2  0
 15 19  1  0
 19 20  1  0
 19 21  2  0
 22 21  1  1
 20 23  2  0
 22 24  1  0
 22 25  1  0
 23 25  1  0
 24 26  2  0
 24 27  1  0
 25 28  2  0
 27 29  1  0
 27 30  2  0
 28 30  1  0
 30 31  1  0
M  END
