mac-x0178-mac-x0228
     RDKit          3D

 25 27  0  0  0  0  0  0  0  0999 V2000
   28.6400   43.7990   -0.3600 N   0  0  0  0  0  0  0  0  0  0  0  0
   28.9370   45.4430   -0.5440 S   0  0  0  0  0  0  0  0  0  0  0  0
   29.8440   45.8000    0.5230 O   0  0  0  0  0  0  0  0  0  0  0  0
   27.6440   46.0700   -0.6990 O   0  0  0  0  0  0  0  0  0  0  0  0
   29.7930   45.5140   -2.0870 C   0  0  0  0  0  0  0  0  0  0  0  0
   30.0450   44.3710   -2.8470 C   0  0  0  0  0  0  0  0  0  0  0  0
   30.2150   46.7530   -2.5340 C   0  0  0  0  0  0  0  0  0  0  0  0
   30.7290   44.4960   -4.0640 C   0  0  0  0  0  0  0  0  0  0  0  0
   30.8970   46.8960   -3.7470 C   0  0  0  0  0  0  0  0  0  0  0  0
   31.2390   48.2160   -4.0410 N   0  0  0  0  0  0  0  0  0  0  0  0
   31.1640   45.7560   -4.5310 C   0  0  0  0  0  0  0  0  0  0  0  0
   31.8870   45.8390   -5.8330 C   0  0  0  0  0  0  0  0  0  0  0  0
   30.2450   49.0360   -4.0010 C   0  0  0  0  0  0  0  0  0  0  0  0
   31.4430   45.6930   -6.9560 O   0  0  0  0  0  0  0  0  0  0  0  0
   33.2000   46.1110   -5.6620 O   0  0  0  0  0  0  0  0  0  0  0  0
   29.0330   48.5300   -3.7270 O   0  0  0  0  0  0  0  0  0  0  0  0
   30.1290   50.4750   -4.1840 C   0  0  0  0  0  0  0  0  0  0  0  0
   29.8250   51.0220   -5.4350 C   0  0  0  0  0  0  0  0  0  0  0  0
   30.3300   51.2870   -3.0570 C   0  0  0  0  0  0  0  0  0  0  0  0
   29.7260   52.3970   -5.5180 C   0  0  0  0  0  0  0  0  0  0  0  0
   30.2270   52.6710   -3.1600 C   0  0  0  0  0  0  0  0  0  0  0  0
   29.9250   53.1950   -4.3980 C   0  0  0  0  0  0  0  0  0  0  0  0
   29.4220   53.2560   -6.6800 C   0  0  0  0  0  0  0  0  0  0  0  0
   29.7900   54.5370   -4.6490 O   0  0  0  0  0  0  0  0  0  0  0  0
   29.8140   54.6130   -6.0930 C   0  0  0  0  0  0  0  0  0  0  0  0
  2  1  1  0
  2  3  2  0
  2  4  2  0
  2  5  1  0
  5  6  2  0
  5  7  1  0
  6  8  1  0
  7  9  2  0
  9 10  1  0
  8 11  2  0
  9 11  1  0
 11 12  1  0
 10 13  2  3
 12 14  2  0
 12 15  1  0
 13 16  1  0
 13 17  1  0
 17 18  2  0
 17 19  1  0
 18 20  1  0
 19 21  2  0
 20 22  2  0
 21 22  1  0
 20 23  1  0
 22 24  1  0
 23 25  1  0
 24 25  1  0
M  END
