mac-x0223-mac-x0375
     RDKit          3D

 20 21  0  0  0  0  0  0  0  0999 V2000
   27.9510   43.5030   -2.2660 C   0  0  0  0  0  0  0  0  0  0  0  0
   27.8730   44.9170   -2.2100 O   0  0  0  0  0  0  0  0  0  0  0  0
   29.0070   45.6580   -2.4410 C   0  0  0  0  0  0  0  0  0  0  0  0
   29.0490   46.8770   -1.7500 C   0  0  0  0  0  0  0  0  0  0  0  0
   30.0970   45.3130   -3.2870 C   0  0  0  0  0  0  0  0  0  0  0  0
   28.0080   47.2300   -0.9330 O   0  0  0  0  0  0  0  0  0  0  0  0
   30.1210   47.7390   -1.8750 C   0  0  0  0  0  0  0  0  0  0  0  0
   31.2030   46.2030   -3.4210 C   0  0  0  0  0  0  0  0  0  0  0  0
   32.4530   45.9950   -4.3030 C   0  0  2  0  0  0  0  0  0  0  0  0
   31.1800   47.4010   -2.7010 C   0  0  0  0  0  0  0  0  0  0  0  0
   32.1750   45.8390   -5.7970 C   0  0  0  0  0  0  0  0  0  0  0  0
   33.5220   45.2070   -3.7420 O   0  0  0  0  0  0  0  0  0  0  0  0
   33.0140   46.0620   -6.6540 O   0  0  0  0  0  0  0  0  0  0  0  0
   30.9300   45.4650   -6.1530 O   0  0  0  0  0  0  0  0  0  0  0  0
   34.6370   45.9790   -3.4910 C   0  0  0  0  0  0  0  0  0  0  0  0
   35.8850   45.3420   -3.4340 C   0  0  0  0  0  0  0  0  0  0  0  0
   34.5830   47.3590   -3.2960 C   0  0  0  0  0  0  0  0  0  0  0  0
   37.0500   46.0850   -3.1860 C   0  0  0  0  0  0  0  0  0  0  0  0
   35.7380   48.0970   -3.0510 C   0  0  0  0  0  0  0  0  0  0  0  0
   36.9730   47.4640   -2.9940 C   0  0  0  0  0  0  0  0  0  0  0  0
  1  2  1  0
  2  3  1  0
  3  4  2  0
  3  5  1  0
  4  6  1  0
  4  7  1  0
  5  8  2  0
  8  9  1  0
  7 10  2  0
  8 10  1  0
  9 11  1  0
  9 12  1  1
 11 13  2  0
 11 14  1  0
 12 15  1  0
 15 16  2  0
 15 17  1  0
 16 18  1  0
 17 19  2  0
 18 20  2  0
 19 20  1  0
M  END
