mac-x0303-mac-x0584
     RDKit          3D

 27 31  0  0  0  0  0  0  0  0999 V2000
   31.0610   55.9330   -6.4540 N   0  0  0  0  0  0  0  0  0  0  0  0
   29.8390   55.7440   -5.3090 S   0  0  0  0  0  0  0  0  0  0  0  0
   28.6010   56.2540   -5.8500 O   0  0  0  0  0  0  0  0  0  0  0  0
   30.3690   56.1710   -4.0350 O   0  0  0  0  0  0  0  0  0  0  0  0
   29.5850   54.0040   -5.1400 C   0  0  0  0  0  0  0  0  0  0  0  0
   28.7190   53.4680   -4.2120 N   0  0  0  0  0  0  0  0  0  0  0  0
   30.1790   53.0610   -5.8680 N   0  0  0  0  0  0  0  0  0  0  0  0
   28.7760   52.1190   -4.3660 C   0  0  0  0  0  0  0  0  0  0  0  0
   29.6690   51.8890   -5.3790 C   0  0  0  0  0  0  0  0  0  0  0  0
   28.0640   51.1620   -3.6360 C   0  0  0  0  0  0  0  0  0  0  0  0
   29.9850   50.5060   -5.8280 C   0  0  0  0  0  0  0  0  0  0  0  0
   28.0580   49.9230   -4.1710 C   0  0  0  0  0  0  0  0  0  0  0  0
   28.7840   49.5140   -5.5180 C   0  0  1  0  0  0  0  0  0  0  0  0
   27.7420   49.5960   -6.6720 C   0  0  0  0  0  0  0  0  0  0  0  0
   29.3040   48.0300   -5.4090 C   0  0  2  0  0  0  0  0  0  0  0  0
   30.5130   47.8220   -4.5980 N   0  0  0  0  0  0  0  0  0  0  0  0
   29.4650   47.3430   -6.6870 N   0  0  0  0  0  0  0  0  0  0  0  0
   28.0320   48.7910   -7.8640 N   0  0  0  0  0  0  0  0  0  0  0  0
   30.9050   46.4120   -4.3970 C   0  0  1  0  0  0  0  0  0  0  0  0
   30.5470   48.5120   -3.3030 C   0  0  0  0  0  0  0  0  0  0  0  0
   28.3460   47.4130   -7.5890 C   0  0  0  0  0  0  0  0  0  0  0  0
   32.1050   46.0770   -5.2890 C   0  0  0  0  0  0  0  0  0  0  0  0
   31.3070   46.3180   -2.9200 C   0  0  0  0  0  0  0  0  0  0  0  0
   31.6060   47.7500   -2.5320 C   0  0  0  0  0  0  0  0  0  0  0  0
   32.6630   44.6270   -5.1910 C   0  0  0  0  0  0  0  0  0  0  0  0
   33.5180   46.5390   -4.8250 C   0  0  0  0  0  0  0  0  0  0  0  0
   34.0640   45.2280   -5.4240 C   0  0  0  0  0  0  0  0  0  0  0  0
  2  1  1  0
  2  3  2  0
  2  4  2  0
  2  5  1  0
  5  6  1  0
  5  7  2  0
  6  8  1  0
  7  9  1  0
  8  9  2  0
  8 10  1  0
  9 11  1  0
 10 12  2  0
 13 11  1  6
 13 12  1  0
 13 14  1  0
 13 15  1  0
 15 16  1  6
 15 17  1  0
 14 18  1  0
 16 19  1  0
 16 20  1  0
 17 21  1  0
 18 21  1  0
 19 22  1  6
 19 23  1  0
 20 24  1  0
 23 24  1  0
 22 25  1  0
 22 26  1  0
 25 27  1  0
 26 27  1  0
M  END
