mac-x0365-mac-x1494
     RDKit          3D

 15 16  0  0  0  0  0  0  0  0999 V2000
   28.5890   47.6710   -4.8340 O   0  0  0  0  0  0  0  0  0  0  0  0
   28.6820   48.9860   -4.2980 C   0  0  0  0  0  0  0  0  0  0  0  0
   30.0340   49.6470   -4.7000 C   0  0  2  0  0  0  0  0  0  0  0  0
   30.5000   50.6940   -3.6460 C   0  0  1  0  0  0  0  0  0  0  0  0
   29.9430   50.3330   -6.0980 C   0  0  0  0  0  0  0  0  0  0  0  0
   31.1240   48.5320   -4.7750 C   0  0  0  0  0  0  0  0  0  0  0  0
   29.6130   51.9500   -3.5570 C   0  0  2  0  0  0  0  0  0  0  0  0
   29.5410   51.7970   -6.0260 C   0  0  0  0  0  0  0  0  0  0  0  0
   31.6170   48.0670   -3.4320 C   0  0  0  0  0  0  0  0  0  0  0  0
   30.7190   50.0810   -2.2470 C   0  0  0  0  0  0  0  0  0  0  0  0
   28.7880   51.7820   -2.4770 F   0  0  0  0  0  0  0  0  0  0  0  0
   29.8380   52.5890   -6.9230 O   0  0  0  0  0  0  0  0  0  0  0  0
   28.7590   52.2250   -4.7980 C   0  0  2  0  0  0  0  0  0  0  0  0
   31.4350   48.7630   -2.2990 C   0  0  0  0  0  0  0  0  0  0  0  0
   28.3110   53.5720   -4.8170 O   0  0  0  0  0  0  0  0  0  0  0  0
  1  2  1  0
  3  2  1  1
  3  4  1  0
  3  5  1  0
  3  6  1  0
  4  7  1  0
  5  8  1  0
  6  9  1  0
  4 10  1  1
  7 11  1  1
  8 12  2  0
  7 13  1  0
  8 13  1  0
  9 14  2  0
 10 14  1  0
 13 15  1  6
M  END
