mac-x0303-mac-x0397
     RDKit          3D

 14 15  0  0  0  0  0  0  0  0999 V2000
   30.4840   56.3340   -6.8130 N   0  0  0  0  0  0  0  0  0  0  0  0
   29.1690   56.0410   -5.8050 S   0  0  0  0  0  0  0  0  0  0  0  0
   27.9660   56.1870   -6.5900 O   0  0  0  0  0  0  0  0  0  0  0  0
   29.3790   56.7340   -4.5570 O   0  0  0  0  0  0  0  0  0  0  0  0
   29.2270   54.3230   -5.3900 C   0  0  0  0  0  0  0  0  0  0  0  0
   29.4500   53.8770   -4.1150 N   0  0  0  0  0  0  0  0  0  0  0  0
   29.0650   53.3170   -6.2350 N   0  0  0  0  0  0  0  0  0  0  0  0
   29.4350   52.5040   -4.1370 C   0  0  0  0  0  0  0  0  0  0  0  0
   29.1940   52.1830   -5.4670 C   0  0  0  0  0  0  0  0  0  0  0  0
   29.6040   51.5350   -3.1460 C   0  0  0  0  0  0  0  0  0  0  0  0
   29.1150   50.8320   -5.8440 C   0  0  0  0  0  0  0  0  0  0  0  0
   29.9000   51.9660   -1.5110 Cl  0  0  0  0  0  0  0  0  0  0  0  0
   29.5230   50.1950   -3.5330 C   0  0  0  0  0  0  0  0  0  0  0  0
   29.2820   49.8450   -4.8640 C   0  0  0  0  0  0  0  0  0  0  0  0
  2  1  1  0
  2  3  2  0
  2  4  2  0
  2  5  1  0
  5  6  1  0
  5  7  2  0
  6  8  1  0
  7  9  1  0
  8  9  2  0
  8 10  1  0
  9 11  1  0
 10 12  1  0
 10 13  2  0
 11 14  2  0
 13 14  1  0
M  END
