mac-x0319-mac-x0338
     RDKit          3D

 21 22  0  0  0  0  0  0  0  0999 V2000
   34.2890   45.8950   -6.7420 O   0  0  0  0  0  0  0  0  0  0  0  0
   33.0290   45.7000   -6.3050 C   0  0  0  0  0  0  0  0  0  0  0  0
   32.0960   45.7930   -7.0860 O   0  0  0  0  0  0  0  0  0  0  0  0
   32.9860   45.3840   -4.8310 C   0  0  0  0  0  0  0  0  0  0  0  0
   31.6060   45.5600   -4.2570 C   0  0  0  0  0  0  0  0  0  0  0  0
   30.8640   44.4340   -3.8850 C   0  0  0  0  0  0  0  0  0  0  0  0
   31.0400   46.8470   -4.0970 C   0  0  0  0  0  0  0  0  0  0  0  0
   29.5900   44.5850   -3.3660 C   0  0  0  0  0  0  0  0  0  0  0  0
   29.7340   46.9820   -3.5720 C   0  0  0  0  0  0  0  0  0  0  0  0
   28.8950   43.4690   -3.0190 O   0  0  0  0  0  0  0  0  0  0  0  0
   28.9700   48.2770   -3.3600 C   0  0  0  0  0  0  0  0  0  0  0  0
   29.0340   45.8330   -3.2090 C   0  0  0  0  0  0  0  0  0  0  0  0
   29.4710   49.6280   -3.8230 C   0  0  0  0  0  0  0  0  0  0  0  0
   28.9380   50.2190   -4.9490 N   0  0  0  0  0  0  0  0  0  0  0  0
   30.4440   50.2520   -3.0690 C   0  0  0  0  0  0  0  0  0  0  0  0
   29.4380   51.4700   -5.2350 C   0  0  0  0  0  0  0  0  0  0  0  0
   30.9330   51.4710   -3.3600 N   0  0  0  0  0  0  0  0  0  0  0  0
   28.9200   52.2240   -6.4180 C   0  0  0  0  0  0  0  0  0  0  0  0
   30.4060   52.0660   -4.4540 C   0  0  0  0  0  0  0  0  0  0  0  0
   28.6040   51.4930   -7.5330 N   0  0  0  0  0  0  0  0  0  0  0  0
   28.7820   53.4430   -6.3940 O   0  0  0  0  0  0  0  0  0  0  0  0
  1  2  1  0
  2  3  2  0
  2  4  1  0
  4  5  1  0
  5  6  2  0
  5  7  1  0
  6  8  1  0
  7  9  2  0
  8 10  1  0
  9 11  1  0
  8 12  2  0
  9 12  1  0
 11 13  1  0
 13 14  2  0
 13 15  1  0
 14 16  1  0
 15 17  2  0
 16 18  1  0
 16 19  2  0
 17 19  1  0
 18 20  1  0
 18 21  2  0
M  END
