mac-x0263-mac-x0305
     RDKit          3D

 23 25  0  0  0  0  0  0  0  0999 V2000
   28.0870   60.0100   -6.5380 O   0  0  0  0  0  0  0  0  0  0  0  0
   27.0250   59.1950   -6.3890 C   0  0  0  0  0  0  0  0  0  0  0  0
   25.9150   59.5950   -6.7100 O   0  0  0  0  0  0  0  0  0  0  0  0
   27.3260   57.8390   -5.8170 C   0  0  0  0  0  0  0  0  0  0  0  0
   28.4630   57.0550   -6.4720 C   0  0  0  0  0  0  0  0  0  0  0  0
   28.3040   55.6040   -6.1760 C   0  0  0  0  0  0  0  0  0  0  0  0
   29.0590   54.9380   -5.2290 N   0  0  0  0  0  0  0  0  0  0  0  0
   27.4410   54.7890   -6.7560 N   0  0  0  0  0  0  0  0  0  0  0  0
   28.6320   53.6430   -5.2220 C   0  0  0  0  0  0  0  0  0  0  0  0
   27.6420   53.5930   -6.1580 C   0  0  0  0  0  0  0  0  0  0  0  0
   29.0860   52.4920   -4.4080 C   0  0  0  0  0  0  0  0  0  0  0  0
   26.9400   52.3920   -6.4060 C   0  0  0  0  0  0  0  0  0  0  0  0
   28.6950   51.1250   -5.1150 C   0  0  1  0  0  0  0  0  0  0  0  0
   27.3870   51.2190   -5.9190 C   0  0  0  0  0  0  0  0  0  0  0  0
   29.6430   50.6940   -6.2680 C   0  0  0  0  0  0  0  0  0  0  0  0
   28.7300   49.9950   -4.0370 C   0  0  0  0  0  0  0  0  0  0  0  0
   29.1510   49.3410   -6.7910 C   0  0  1  0  0  0  0  0  0  0  0  0
   29.6830   48.9240   -4.3690 N   0  0  0  0  0  0  0  0  0  0  0  0
   29.8250   48.9130   -7.9800 O   0  0  0  0  0  0  0  0  0  0  0  0
   29.3370   48.2990   -5.6680 C   0  0  2  0  0  0  0  0  0  0  0  0
   30.3410   47.2020   -6.0870 C   0  0  0  0  0  0  0  0  0  0  0  0
   30.7640   47.3190   -7.3770 O   0  0  0  0  0  0  0  0  0  0  0  0
   30.7420   46.2960   -5.3690 O   0  0  0  0  0  0  0  0  0  0  0  0
  1  2  1  0
  2  3  2  0
  2  4  1  0
  4  5  1  0
  5  6  1  0
  6  7  1  0
  6  8  2  0
  7  9  1  0
  8 10  1  0
  9 10  2  0
  9 11  1  0
 10 12  1  0
 13 11  1  1
 12 14  2  0
 13 14  1  0
 13 15  1  0
 13 16  1  0
 15 17  1  0
 16 18  1  0
 17 19  1  6
 17 20  1  0
 18 20  1  0
 20 21  1  6
 21 22  1  0
 21 23  2  0
M  END
