mac-x0567-mac-x0385
     RDKit          3D

 11 12  0  0  0  0  0  0  0  0999 V2000
   29.7270   47.3370   -8.0660 N   0  0  0  0  0  0  0  0  0  0  0  0
   29.3620   48.5510   -7.5940 C   0  0  0  0  0  0  0  0  0  0  0  0
   28.7590   49.4900   -8.3900 N   0  0  0  0  0  0  0  0  0  0  0  0
   29.4530   49.1570   -6.3660 C   0  0  0  0  0  0  0  0  0  0  0  0
   28.4570   50.6490   -7.7680 N   0  0  0  0  0  0  0  0  0  0  0  0
   28.8780   50.4740   -6.5020 C   0  0  0  0  0  0  0  0  0  0  0  0
   29.9970   48.6050   -5.2090 C   0  0  0  0  0  0  0  0  0  0  0  0
   28.8230   51.3510   -5.4010 C   0  0  0  0  0  0  0  0  0  0  0  0
   29.9310   49.5060   -4.1240 C   0  0  0  0  0  0  0  0  0  0  0  0
   29.3700   50.8260   -4.2000 C   0  0  0  0  0  0  0  0  0  0  0  0
   29.3670   51.6770   -2.9540 C   0  0  0  0  0  0  0  0  0  0  0  0
  1  2  1  0
  2  3  1  0
  2  4  2  0
  3  5  1  0
  4  6  1  0
  5  6  2  0
  4  7  1  0
  6  8  1  0
  7  9  2  0
  8 10  2  0
  9 10  1  0
 10 11  1  0
M  END
