mac-x0360-mac-x0451
     RDKit          3D

 21 23  0  0  0  0  0  0  0  0999 V2000
   32.5960   55.2460   -7.5690 Cl  0  0  0  0  0  0  0  0  0  0  0  0
   32.4490   53.8750   -6.5380 C   0  0  0  0  0  0  0  0  0  0  0  0
   33.5310   53.0190   -6.3550 C   0  0  0  0  0  0  0  0  0  0  0  0
   31.2460   53.6430   -5.8960 C   0  0  0  0  0  0  0  0  0  0  0  0
   31.1240   52.5410   -5.0580 C   0  0  0  0  0  0  0  0  0  0  0  0
   33.4000   51.9110   -5.5140 C   0  0  0  0  0  0  0  0  0  0  0  0
   34.7460   50.8610   -5.2960 Cl  0  0  0  0  0  0  0  0  0  0  0  0
   29.5700   52.2920   -4.2480 S   0  0  0  0  0  0  0  0  0  0  0  0
   32.1940   51.6590   -4.8560 C   0  0  0  0  0  0  0  0  0  0  0  0
   29.4880   50.8410   -3.8670 N   0  0  0  0  0  0  0  0  0  0  0  0
   29.2590   53.4320   -3.4570 O   0  0  0  0  0  0  0  0  0  0  0  0
   29.6250   50.0960   -5.0790 C   0  0  0  0  0  0  0  0  0  0  0  0
   29.3800   50.7450   -6.3190 C   0  0  0  0  0  0  0  0  0  0  0  0
   29.9960   48.7620   -5.0130 C   0  0  0  0  0  0  0  0  0  0  0  0
   29.0030   52.0790   -6.5310 N   0  0  0  0  0  0  0  0  0  0  0  0
   29.5240   49.9970   -7.4680 C   0  0  0  0  0  0  0  0  0  0  0  0
   30.1310   48.0400   -6.1810 C   0  0  0  0  0  0  0  0  0  0  0  0
   28.8710   52.3290   -7.8000 C   0  0  0  0  0  0  0  0  0  0  0  0
   29.1790   51.0010   -8.8320 S   0  0  0  0  0  0  0  0  0  0  0  0
   29.8980   48.6420   -7.4270 C   0  0  0  0  0  0  0  0  0  0  0  0
   28.5190   53.5390   -8.2760 N   0  0  0  0  0  0  0  0  0  0  0  0
  1  2  1  0
  2  3  2  0
  2  4  1  0
  4  5  2  0
  3  6  1  0
  6  7  1  0
  5  8  1  0
  5  9  1  0
  6  9  2  0
  8 10  2  0
  8 11  2  0
 10 12  1  0
 12 13  1  0
 12 14  2  0
 13 15  1  0
 13 16  2  0
 14 17  1  0
 15 18  2  0
 16 19  1  0
 18 19  1  0
 16 20  1  0
 17 20  2  0
 18 21  1  0
M  END
