mac-x0379-mac-x0131
     RDKit          3D

 21 23  0  0  0  0  0  0  0  0999 V2000
   28.9510   51.9560   -5.5140 C   0  0  0  0  0  0  0  0  0  0  0  0
   29.3870   50.7160   -4.8120 C   0  0  0  0  0  0  0  0  0  0  0  0
   29.5510   50.5850   -3.5040 N   0  0  0  0  0  0  0  0  0  0  0  0
   29.7560   49.2750   -5.4320 S   0  0  0  0  0  0  0  0  0  0  0  0
   29.9820   49.2570   -3.1180 C   0  0  0  0  0  0  0  0  0  0  0  0
   30.1650   48.3070   -4.1640 C   0  0  0  0  0  0  0  0  0  0  0  0
   29.5100   49.5840   -7.0900 C   0  0  2  0  0  0  0  0  0  0  0  0
   29.9780   48.1170   -6.6820 C   0  0  0  0  0  0  0  0  0  0  0  0
   30.6070   46.8590   -4.0780 C   0  0  0  0  0  0  0  0  0  0  0  0
   30.1900   49.0290   -1.6630 C   0  0  0  0  0  0  0  0  0  0  0  0
   29.9510   50.8650   -7.5650 N   0  0  0  0  0  0  0  0  0  0  0  0
   28.1200   49.4920   -7.4380 N   0  0  0  0  0  0  0  0  0  0  0  0
   28.7740   47.3270   -6.9680 N   0  0  0  0  0  0  0  0  0  0  0  0
   30.6240   46.4010   -2.7410 O   0  0  0  0  0  0  0  0  0  0  0  0
   29.6750   46.0520   -4.7690 O   0  0  0  0  0  0  0  0  0  0  0  0
   27.6480   48.1340   -7.3760 C   0  0  0  0  0  0  0  0  0  0  0  0
   31.9960   46.6230   -4.6000 C   0  0  0  0  0  0  0  0  0  0  0  0
   32.4920   45.9310   -5.6920 C   0  0  0  0  0  0  0  0  0  0  0  0
   33.0380   47.1800   -3.9010 O   0  0  0  0  0  0  0  0  0  0  0  0
   34.1800   46.8380   -4.5510 C   0  0  0  0  0  0  0  0  0  0  0  0
   33.9000   46.0730   -5.6540 C   0  0  0  0  0  0  0  0  0  0  0  0
  1  2  1  0
  2  3  2  0
  2  4  1  0
  3  5  1  0
  4  6  1  0
  5  6  2  0
  4  7  1  0
  4  8  1  0
  6  9  1  0
  5 10  1  0
  7 11  1  1
  7 12  1  0
  8 13  1  0
  9 14  1  0
  9 15  1  0
 12 16  1  0
 13 16  1  0
  9 17  1  0
 17 18  2  0
 17 19  1  0
 19 20  1  0
 18 21  1  0
 20 21  2  0
M  END
