mac-x1493-mac-x0576
     RDKit          3D

 19 21  0  0  0  0  0  0  0  0999 V2000
   30.2980   48.6880   -4.2680 C   0  0  0  0  0  0  0  0  0  0  0  0
   30.3440   50.1690   -4.6340 C   0  0  2  0  0  0  0  0  0  0  0  0
   30.0260   50.9960   -3.3950 C   0  0  0  0  0  0  0  0  0  0  0  0
   30.3160   48.2720   -3.1110 O   0  0  0  0  0  0  0  0  0  0  0  0
   29.4360   50.5110   -5.8720 C   0  0  2  0  0  0  0  0  0  0  0  0
   28.9450   51.9990   -5.8400 C   0  0  0  0  0  0  0  0  0  0  0  0
   30.1120   52.4570   -3.6710 N   0  0  1  0  0  0  0  0  0  0  0  0
   28.3370   49.3970   -5.9650 C   0  0  0  0  0  0  0  0  0  0  0  0
   30.2700   50.2840   -7.1590 C   0  0  0  0  0  0  0  0  0  0  0  0
   31.3440   52.8290   -4.0830 O   0  0  0  0  0  0  0  0  0  0  0  0
   29.2840   52.8830   -4.7950 C   0  0  0  0  0  0  0  0  0  0  0  0
   28.1570   52.5510   -6.8660 C   0  0  0  0  0  0  0  0  0  0  0  0
   28.7820   48.1040   -6.5600 N   0  0  0  0  0  0  0  0  0  0  0  0
   29.6240   49.5190   -8.2150 N   0  0  0  0  0  0  0  0  0  0  0  0
   28.8680   54.2200   -4.7790 C   0  0  0  0  0  0  0  0  0  0  0  0
   27.7420   53.8930   -6.8500 C   0  0  0  0  0  0  0  0  0  0  0  0
   29.4460   48.1690   -7.8280 C   0  0  2  0  0  0  0  0  0  0  0  0
   28.7270   47.4830   -8.8510 N   0  0  0  0  0  0  0  0  0  0  0  0
   28.1000   54.7270   -5.8040 C   0  0  0  0  0  0  0  0  0  0  0  0
  2  1  1  1
  2  3  1  0
  1  4  2  0
  2  5  1  0
  5  6  1  0
  3  7  1  0
  5  8  1  6
  5  9  1  0
  7 10  1  6
  6 11  2  0
  7 11  1  0
  6 12  1  0
  8 13  1  0
  9 14  1  0
 11 15  1  0
 12 16  2  0
 13 17  1  0
 14 17  1  0
 17 18  1  6
 15 19  2  0
 16 19  1  0
M  CHG  2   7   1  10  -1
M  END
