mac-x0451-mac-x0255
     RDKit          3D

 24 27  0  0  0  0  0  0  0  0999 V2000
   28.6700   54.1460   -7.5610 N   0  0  0  0  0  0  0  0  0  0  0  0
   28.9520   52.9050   -7.1170 C   0  0  0  0  0  0  0  0  0  0  0  0
   29.2170   52.6360   -5.8680 N   0  0  0  0  0  0  0  0  0  0  0  0
   28.9790   51.5650   -8.1880 S   0  0  0  0  0  0  0  0  0  0  0  0
   29.4650   51.2800   -5.7140 C   0  0  0  0  0  0  0  0  0  0  0  0
   29.3800   50.5230   -6.8830 C   0  0  0  0  0  0  0  0  0  0  0  0
   29.7850   50.6250   -4.5070 C   0  0  0  0  0  0  0  0  0  0  0  0
   29.6030   49.1380   -6.8890 C   0  0  0  0  0  0  0  0  0  0  0  0
   30.0140   49.2430   -4.4980 C   0  0  0  0  0  0  0  0  0  0  0  0
   29.9230   48.5090   -5.6810 C   0  0  0  0  0  0  0  0  0  0  0  0
   30.1290   47.1480   -5.7780 O   0  0  0  0  0  0  0  0  0  0  0  0
   30.4850   46.4180   -4.7000 C   0  0  0  0  0  0  0  0  0  0  0  0
   31.7330   45.8470   -4.5990 C   0  0  0  0  0  0  0  0  0  0  0  0
   29.6340   46.1670   -3.5750 C   0  0  0  0  0  0  0  0  0  0  0  0
   32.8810   45.8980   -5.5670 C   0  0  0  0  0  0  0  0  0  0  0  0
   30.2910   45.3870   -2.6260 C   0  0  0  0  0  0  0  0  0  0  0  0
   31.8860   44.9930   -3.1270 S   0  0  0  0  0  0  0  0  0  0  0  0
   28.3050   46.5690   -3.3010 C   0  0  0  0  0  0  0  0  0  0  0  0
   32.6820   45.0020   -6.7660 C   0  0  0  0  0  0  0  0  0  0  0  0
   27.6790   46.1940   -2.1130 C   0  0  0  0  0  0  0  0  0  0  0  0
   29.6640   45.0060   -1.4230 C   0  0  0  0  0  0  0  0  0  0  0  0
   31.9100   43.9270   -6.4780 O   0  0  0  0  0  0  0  0  0  0  0  0
   33.1230   45.1380   -7.8960 O   0  0  0  0  0  0  0  0  0  0  0  0
   28.3540   45.4180   -1.1810 C   0  0  0  0  0  0  0  0  0  0  0  0
  1  2  1  0
  2  3  2  0
  2  4  1  0
  3  5  1  0
  4  6  1  0
  5  6  2  0
  5  7  1  0
  6  8  1  0
  7  9  2  0
  8 10  2  0
  9 10  1  0
 10 11  1  0
 11 12  1  0
 12 13  2  0
 12 14  1  0
 13 15  1  0
 14 16  2  0
 13 17  1  0
 16 17  1  0
 14 18  1  0
 15 19  1  0
 18 20  2  0
 16 21  1  0
 19 22  1  0
 19 23  2  0
 20 24  1  0
 21 24  2  0
M  END
