mac-x0182-mac-x0190
     RDKit          3D

 26 29  0  0  0  0  0  0  0  0999 V2000
   34.2210   43.5260   -2.7730 O   0  0  0  0  0  0  0  0  0  0  0  0
   34.4110   44.6210   -3.2740 C   0  0  0  0  0  0  0  0  0  0  0  0
   33.5960   45.2220   -4.2010 N   0  0  0  0  0  0  0  0  0  0  0  0
   35.5730   45.4810   -2.9460 C   0  0  0  0  0  0  0  0  0  0  0  0
   34.0310   46.8240   -4.4550 S   0  0  2  0  0  0  0  0  0  0  0  0
   35.4970   46.7350   -3.5340 C   0  0  0  0  0  0  0  0  0  0  0  0
   36.6590   45.1480   -2.1490 C   0  0  0  0  0  0  0  0  0  0  0  0
   33.0000   47.6250   -3.6680 N   0  0  0  0  0  0  0  0  0  0  0  0
   34.3510   46.9060   -5.8590 O   0  0  0  0  0  0  0  0  0  0  0  0
   36.4600   47.7090   -3.3750 C   0  0  0  0  0  0  0  0  0  0  0  0
   37.6560   46.1150   -1.9660 C   0  0  0  0  0  0  0  0  0  0  0  0
   31.9830   48.4060   -4.3930 C   0  0  0  0  0  0  0  0  0  0  0  0
   37.5580   47.3830   -2.5720 C   0  0  0  0  0  0  0  0  0  0  0  0
   30.5710   47.8780   -4.1380 C   0  0  0  0  0  0  0  0  0  0  0  0
   29.6450   48.8630   -3.4150 C   0  0  0  0  0  0  0  0  0  0  0  0
   29.5050   50.1890   -4.1250 C   0  0  0  0  0  0  0  0  0  0  0  0
   29.8380   51.3820   -3.4560 C   0  0  0  0  0  0  0  0  0  0  0  0
   29.0450   50.2260   -5.4520 C   0  0  0  0  0  0  0  0  0  0  0  0
   29.6870   52.5740   -4.1670 C   0  0  0  0  0  0  0  0  0  0  0  0
   28.9040   51.4360   -6.1410 C   0  0  0  0  0  0  0  0  0  0  0  0
   29.9120   53.8850   -3.8350 N   0  0  0  0  0  0  0  0  0  0  0  0
   29.2330   52.6290   -5.4800 C   0  0  0  0  0  0  0  0  0  0  0  0
   29.5980   54.6670   -4.9200 C   0  0  0  0  0  0  0  0  0  0  0  0
   29.1830   53.9270   -5.9290 N   0  0  0  0  0  0  0  0  0  0  0  0
   29.7340   56.1440   -4.8830 C   0  0  0  0  0  0  0  0  0  0  0  0
   28.5640   56.6910   -5.4820 O   0  0  0  0  0  0  0  0  0  0  0  0
  1  2  2  0
  2  3  1  0
  2  4  1  0
  5  3  1  6
  4  6  2  0
  5  6  1  0
  4  7  1  0
  5  8  2  0
  5  9  2  0
  6 10  1  0
  7 11  2  0
  8 12  1  0
 10 13  2  0
 11 13  1  0
 12 14  1  0
 14 15  1  0
 15 16  1  0
 16 17  2  0
 16 18  1  0
 17 19  1  0
 18 20  2  0
 19 21  1  0
 19 22  2  0
 20 22  1  0
 21 23  1  0
 22 24  1  0
 23 24  2  0
 23 25  1  0
 25 26  1  0
M  END
