mac-x0161-mac-x0436
     RDKit          3D

 33 37  0  0  0  0  0  0  0  0999 V2000
   28.2240   52.8750   -6.7840 N   0  0  0  0  0  0  0  0  0  0  0  0
   29.1290   51.9470   -6.1300 C   0  0  2  0  0  0  0  0  0  0  0  0
   29.0570   50.5280   -6.7600 C   0  0  1  0  0  0  0  0  0  0  0  0
   28.6470   52.0170   -4.7680 N   0  0  0  0  0  0  0  0  0  0  0  0
   29.3620   51.0880   -3.9140 C   0  0  0  0  0  0  0  0  0  0  0  0
   29.5640   49.4730   -5.7640 C   0  0  1  0  0  0  0  0  0  0  0  0
   27.6980   50.0310   -7.0930 N   0  0  0  0  0  0  0  0  0  0  0  0
   29.1810   49.7320   -4.3850 N   0  0  0  0  0  0  0  0  0  0  0  0
   28.8920   48.2340   -6.1820 N   0  0  0  0  0  0  0  0  0  0  0  0
   27.9070   48.5960   -7.1910 C   0  0  0  0  0  0  0  0  0  0  0  0
   29.4830   48.6740   -3.4140 C   0  0  0  0  0  0  0  0  0  0  0  0
   30.9210   48.4050   -3.1230 C   0  0  0  0  0  0  0  0  0  0  0  0
   31.7300   47.3100   -3.2600 C   0  0  0  0  0  0  0  0  0  0  0  0
   31.6600   49.4210   -2.6020 O   0  0  0  0  0  0  0  0  0  0  0  0
   32.9590   48.9980   -2.3940 N   0  0  0  0  0  0  0  0  0  0  0  0
   33.0080   47.7170   -2.7870 C   0  0  0  0  0  0  0  0  0  0  0  0
   34.0940   46.8630   -2.7660 N   0  0  0  0  0  0  0  0  0  0  0  0
   33.8670   45.4650   -2.9300 C   0  0  0  0  0  0  0  0  0  0  0  0
   35.3480   47.4170   -3.3400 C   0  0  2  0  0  0  0  0  0  0  0  0
   34.7510   44.6540   -3.5780 C   0  0  0  0  0  0  0  0  0  0  0  0
   36.2280   46.3450   -3.9940 C   0  0  0  0  0  0  0  0  0  0  0  0
   36.2420   48.1360   -2.3490 C   0  0  0  0  0  0  0  0  0  0  0  0
   32.5780   44.8660   -2.3570 C   0  0  0  0  0  0  0  0  0  0  0  0
   34.5470   43.1610   -3.7990 C   0  0  0  0  0  0  0  0  0  0  0  0
   35.9440   45.0860   -4.1050 N   0  0  0  0  0  0  0  0  0  0  0  0
   37.5330   46.8190   -4.5230 C   0  0  0  0  0  0  0  0  0  0  0  0
   37.5580   48.2880   -2.5900 C   0  0  0  0  0  0  0  0  0  0  0  0
   32.1820   45.5010   -1.0290 C   0  0  0  0  0  0  0  0  0  0  0  0
   33.2090   42.8450   -4.4720 C   0  0  0  0  0  0  0  0  0  0  0  0
   38.1480   47.7680   -3.8030 C   0  0  0  0  0  0  0  0  0  0  0  0
   33.2920   42.8880   -5.9750 C   0  0  0  0  0  0  0  0  0  0  0  0
   34.4660   42.4380   -6.4560 O   0  0  0  0  0  0  0  0  0  0  0  0
   32.4190   43.2750   -6.7410 O   0  0  0  0  0  0  0  0  0  0  0  0
  2  1  1  6
  2  3  1  0
  2  4  1  0
  4  5  1  0
  3  6  1  0
  3  7  1  1
  5  8  1  0
  6  8  1  0
  6  9  1  6
  7 10  1  0
  9 10  1  0
  8 11  1  0
 11 12  1  0
 12 13  2  0
 12 14  1  0
 14 15  1  0
 13 16  1  0
 15 16  2  0
 16 17  1  0
 17 18  1  0
 17 19  1  0
 18 20  2  0
 19 21  1  0
 19 22  1  1
 18 23  1  0
 20 24  1  0
 20 25  1  0
 21 25  2  0
 21 26  1  0
 22 27  2  0
 23 28  1  0
 24 29  1  0
 26 30  2  0
 27 30  1  0
 29 31  1  0
 31 32  1  0
 31 33  2  0
M  END
