mac-x0224-mac-x0338
     RDKit          3D

 13 13  0  0  0  0  0  0  0  0999 V2000
   28.5750   52.5670   -5.8660 C   0  0  0  0  0  0  0  0  0  0  0  0
   28.5780   51.0210   -6.6990 S   0  0  0  0  0  0  0  0  0  0  0  0
   29.2860   49.9110   -5.4950 C   0  0  0  0  0  0  0  0  0  0  0  0
   28.8760   53.6330   -6.3870 O   0  0  0  0  0  0  0  0  0  0  0  0
   29.5930   48.6050   -5.8880 C   0  0  0  0  0  0  0  0  0  0  0  0
   29.5390   50.3080   -4.1790 C   0  0  0  0  0  0  0  0  0  0  0  0
   30.1500   47.6950   -4.9800 C   0  0  0  0  0  0  0  0  0  0  0  0
   30.0970   49.4080   -3.2650 C   0  0  0  0  0  0  0  0  0  0  0  0
   30.4590   46.3180   -5.4410 C   0  0  0  0  0  0  0  0  0  0  0  0
   30.4010   48.1040   -3.6660 C   0  0  0  0  0  0  0  0  0  0  0  0
   30.9450   47.2360   -2.7610 O   0  0  0  0  0  0  0  0  0  0  0  0
   30.3430   45.8590   -6.5620 O   0  0  0  0  0  0  0  0  0  0  0  0
   30.9220   45.5410   -4.4420 O   0  0  0  0  0  0  0  0  0  0  0  0
  1  2  1  0
  2  3  1  0
  1  4  2  0
  3  5  2  0
  3  6  1  0
  5  7  1  0
  6  8  2  0
  7  9  1  0
  7 10  2  0
  8 10  1  0
 10 11  1  0
  9 12  2  0
  9 13  1  0
M  END
