mac-x0338-mac-x0417
     RDKit          3D

 25 27  0  0  0  0  0  0  0  0999 V2000
   28.5350   51.9240   -7.6350 N   0  0  0  0  0  0  0  0  0  0  0  0
   28.8870   52.4970   -6.4380 C   0  0  0  0  0  0  0  0  0  0  0  0
   28.8330   53.7070   -6.2650 O   0  0  0  0  0  0  0  0  0  0  0  0
   29.3320   51.5620   -5.3670 C   0  0  0  0  0  0  0  0  0  0  0  0
   29.2670   50.2300   -5.6390 N   0  0  0  0  0  0  0  0  0  0  0  0
   29.7880   52.0480   -4.1530 C   0  0  0  0  0  0  0  0  0  0  0  0
   29.6720   49.3990   -4.6520 C   0  0  0  0  0  0  0  0  0  0  0  0
   30.2010   51.2230   -3.1540 N   0  0  0  0  0  0  0  0  0  0  0  0
   29.6090   47.9130   -4.8990 C   0  0  0  0  0  0  0  0  0  0  0  0
   30.1320   49.8980   -3.4320 C   0  0  0  0  0  0  0  0  0  0  0  0
   30.9270   47.1420   -4.8050 C   0  0  0  0  0  0  0  0  0  0  0  0
   30.8740   45.7610   -5.4560 C   0  0  0  0  0  0  0  0  0  0  0  0
   32.0240   45.4340   -6.2410 O   0  0  0  0  0  0  0  0  0  0  0  0
   33.2230   45.4210   -5.5950 C   0  0  0  0  0  0  0  0  0  0  0  0
   34.3100   45.5230   -6.1520 O   0  0  0  0  0  0  0  0  0  0  0  0
   33.0490   45.2630   -4.1010 C   0  0  0  0  0  0  0  0  0  0  0  0
   34.3300   45.0230   -3.3940 C   0  0  0  0  0  0  0  0  0  0  0  0
   34.6420   43.7900   -2.9670 N   0  0  0  0  0  0  0  0  0  0  0  0
   35.3550   45.9520   -3.0760 C   0  0  0  0  0  0  0  0  0  0  0  0
   35.8830   43.9000   -2.3610 O   0  0  0  0  0  0  0  0  0  0  0  0
   36.3080   45.1890   -2.4270 C   0  0  0  0  0  0  0  0  0  0  0  0
   35.5960   47.3250   -3.2510 C   0  0  0  0  0  0  0  0  0  0  0  0
   37.5090   45.6890   -1.9300 C   0  0  0  0  0  0  0  0  0  0  0  0
   36.7940   47.8630   -2.7630 C   0  0  0  0  0  0  0  0  0  0  0  0
   37.7340   47.0580   -2.1150 C   0  0  0  0  0  0  0  0  0  0  0  0
  1  2  1  0
  2  3  2  0
  2  4  1  0
  4  5  2  0
  4  6  1  0
  5  7  1  0
  6  8  2  0
  7  9  1  0
  7 10  2  0
  8 10  1  0
  9 11  1  0
 11 12  1  0
 12 13  1  0
 13 14  1  0
 14 15  2  0
 14 16  1  0
 16 17  1  0
 17 18  2  0
 17 19  1  0
 18 20  1  0
 19 21  2  0
 20 21  1  0
 19 22  1  0
 21 23  1  0
 22 24  2  0
 23 25  2  0
 24 25  1  0
M  END
