mac-x0116-mac-x0223
     RDKit          3D

 30 33  0  0  0  0  0  0  0  0999 V2000
   29.2790   53.6980   -6.7860 C   0  0  0  0  0  0  0  0  0  0  0  0
   28.8240   52.4390   -7.3760 N   0  0  0  0  0  0  0  0  0  0  0  0
   29.0390   51.3200   -6.5550 C   0  0  0  0  0  0  0  0  0  0  0  0
   30.5710   54.2470   -7.3090 C   0  0  0  0  0  0  0  0  0  0  0  0
   31.5680   54.4220   -6.3910 O   0  0  0  0  0  0  0  0  0  0  0  0
   31.0160   54.6360   -8.5570 C   0  0  0  0  0  0  0  0  0  0  0  0
   32.3540   55.0700   -8.3910 C   0  0  0  0  0  0  0  0  0  0  0  0
   32.6420   54.9210   -7.0560 C   0  0  0  0  0  0  0  0  0  0  0  0
   28.8490   51.3960   -5.2100 N   0  0  0  0  0  0  0  0  0  0  0  0
   29.4570   50.0830   -7.0900 C   0  0  0  0  0  0  0  0  0  0  0  0
   29.0700   50.2960   -4.4600 C   0  0  0  0  0  0  0  0  0  0  0  0
   29.6430   49.0400   -6.1940 C   0  0  0  0  0  0  0  0  0  0  0  0
   29.7340   49.6760   -8.3800 N   0  0  0  0  0  0  0  0  0  0  0  0
   29.4680   49.0740   -4.8650 N   0  0  0  0  0  0  0  0  0  0  0  0
   30.0400   47.9830   -6.9690 N   0  0  0  0  0  0  0  0  0  0  0  0
   30.0800   48.4100   -8.2680 C   0  0  0  0  0  0  0  0  0  0  0  0
   30.3610   46.6480   -6.4960 C   0  0  0  0  0  0  0  0  0  0  0  0
   31.3130   46.7340   -5.4310 O   0  0  0  0  0  0  0  0  0  0  0  0
   32.2200   45.7170   -5.3700 C   0  0  0  0  0  0  0  0  0  0  0  0
   31.7820   44.6640   -4.3780 C   0  0  0  0  0  0  0  0  0  0  0  0
   33.2520   45.6670   -6.0260 O   0  0  0  0  0  0  0  0  0  0  0  0
   30.9260   45.2020   -3.2540 C   0  0  0  0  0  0  0  0  0  0  0  0
   31.3810   46.2670   -2.4590 C   0  0  0  0  0  0  0  0  0  0  0  0
   29.6620   44.6380   -2.9910 C   0  0  0  0  0  0  0  0  0  0  0  0
   28.8690   45.1310   -1.9530 C   0  0  0  0  0  0  0  0  0  0  0  0
   30.5900   46.7620   -1.4200 C   0  0  0  0  0  0  0  0  0  0  0  0
   27.6280   44.6680   -1.6010 O   0  0  0  0  0  0  0  0  0  0  0  0
   29.3470   46.1910   -1.1790 C   0  0  0  0  0  0  0  0  0  0  0  0
   27.3180   43.3470   -2.0390 C   0  0  0  0  0  0  0  0  0  0  0  0
   28.5880   46.6920   -0.1550 O   0  0  0  0  0  0  0  0  0  0  0  0
  1  2  1  0
  2  3  1  0
  1  4  1  0
  4  5  1  0
  4  6  2  0
  6  7  1  0
  5  8  1  0
  7  8  2  0
  3  9  2  0
  3 10  1  0
  9 11  1  0
 10 12  2  0
 10 13  1  0
 11 14  2  0
 12 14  1  0
 12 15  1  0
 13 16  2  0
 15 16  1  0
 15 17  1  0
 17 18  1  0
 18 19  1  0
 19 20  1  0
 19 21  2  0
 20 22  1  0
 22 23  2  0
 22 24  1  0
 24 25  2  0
 23 26  1  0
 25 27  1  0
 25 28  1  0
 26 28  2  0
 27 29  1  0
 28 30  1  0
M  END
