mac-x0546-mac-x0412
     RDKit          3D

 28 31  0  0  0  0  0  0  0  0999 V2000
   31.0880   48.4610    0.1740 C   0  0  0  0  0  0  0  0  0  0  0  0
   29.8670   48.3760   -0.6280 N   0  0  0  0  0  0  0  0  0  0  0  0
   29.5410   49.7140   -1.1170 C   0  0  0  0  0  0  0  0  0  0  0  0
   29.7150   47.3210   -1.5330 C   0  0  0  0  0  0  0  0  0  0  0  0
   30.6490   50.1220   -2.0920 C   0  0  0  0  0  0  0  0  0  0  0  0
   30.6720   47.0020   -2.4360 C   0  0  0  0  0  0  0  0  0  0  0  0
   28.4690   46.5280   -1.5570 C   0  0  0  0  0  0  0  0  0  0  0  0
   30.4650   45.9230   -3.4370 C   0  0  2  0  0  0  0  0  0  0  0  0
   28.3360   45.3400   -2.1850 C   0  0  0  0  0  0  0  0  0  0  0  0
   30.2090   50.6120   -3.4450 C   0  0  0  0  0  0  0  0  0  0  0  0
   29.5480   44.8720   -2.8600 C   0  0  0  0  0  0  0  0  0  0  0  0
   31.5420   44.9840   -3.8740 C   0  0  0  0  0  0  0  0  0  0  0  0
   29.6860   49.6860   -4.4490 C   0  0  0  0  0  0  0  0  0  0  0  0
   30.3090   51.9050   -3.7350 C   0  0  0  0  0  0  0  0  0  0  0  0
   32.8350   45.4160   -4.4840 C   0  0  0  0  0  0  0  0  0  0  0  0
   29.9120   43.6370   -3.0180 N   0  0  0  0  0  0  0  0  0  0  0  0
   31.1380   43.7310   -3.6340 C   0  0  0  0  0  0  0  0  0  0  0  0
   29.9220   52.4800   -5.0620 C   0  0  2  0  0  0  0  0  0  0  0  0
   29.1460   50.1290   -5.6050 C   0  0  0  0  0  0  0  0  0  0  0  0
   32.7060   46.0080   -5.8730 C   0  0  0  0  0  0  0  0  0  0  0  0
   29.2760   53.8790   -4.9650 C   0  0  0  0  0  0  0  0  0  0  0  0
   29.0630   51.5540   -5.8970 C   0  0  0  0  0  0  0  0  0  0  0  0
   31.7540   45.9720   -6.6330 O   0  0  0  0  0  0  0  0  0  0  0  0
   33.8390   46.6380   -6.2460 O   0  0  0  0  0  0  0  0  0  0  0  0
   29.2330   54.5070   -3.9110 O   0  0  0  0  0  0  0  0  0  0  0  0
   28.2730   52.0590   -6.8540 C   0  0  0  0  0  0  0  0  0  0  0  0
   28.7630   54.3830   -6.1430 N   0  0  0  0  0  0  0  0  0  0  0  0
   28.3090   53.5300   -7.0070 C   0  0  0  0  0  0  0  0  0  0  0  0
  1  2  1  0
  2  3  1  0
  2  4  1  0
  3  5  1  0
  4  6  2  0
  4  7  1  0
  8  6  1  1
  7  9  2  0
  5 10  1  0
  8 11  1  0
  9 11  1  0
  8 12  1  0
 10 13  1  0
 10 14  2  0
 12 15  1  0
 11 16  2  0
 12 17  2  0
 16 17  1  0
 18 14  1  1
 13 19  2  0
 15 20  1  0
 18 21  1  0
 18 22  1  0
 19 22  1  0
 20 23  2  0
 20 24  1  0
 21 25  2  0
 22 26  2  0
 21 27  1  0
 26 28  1  0
 27 28  2  0
M  END
