mac-x0344-mac-x0373
     RDKit          3D

 27 29  0  0  0  0  0  0  0  0999 V2000
   31.9340   44.7290   -4.1560 O   0  0  0  0  0  0  0  0  0  0  0  0
   32.4610   45.4470   -5.1550 C   0  0  0  0  0  0  0  0  0  0  0  0
   31.8390   46.2840   -5.9110 N   0  0  0  0  0  0  0  0  0  0  0  0
   33.9690   45.2510   -5.3630 C   0  0  0  0  0  0  0  0  0  0  0  0
   34.4510   45.3290   -6.4780 O   0  0  0  0  0  0  0  0  0  0  0  0
   34.6020   45.0150   -4.1520 N   0  0  0  0  0  0  0  0  0  0  0  0
   30.5250   46.5370   -5.6550 C   0  0  0  0  0  0  0  0  0  0  0  0
   29.5590   46.0410   -6.2400 O   0  0  0  0  0  0  0  0  0  0  0  0
   30.4200   47.5430   -4.4940 C   0  0  0  0  0  0  0  0  0  0  0  0
   35.5750   45.8030   -3.5010 C   0  0  0  0  0  0  0  0  0  0  0  0
   36.2840   45.3740   -2.3770 C   0  0  0  0  0  0  0  0  0  0  0  0
   35.8410   47.0800   -4.0170 C   0  0  0  0  0  0  0  0  0  0  0  0
   31.7990   47.8280   -3.9050 C   0  0  0  0  0  0  0  0  0  0  0  0
   29.6960   48.8570   -4.7940 C   0  0  0  0  0  0  0  0  0  0  0  0
   37.2380   46.2050   -1.7800 C   0  0  0  0  0  0  0  0  0  0  0  0
   36.7950   47.9110   -3.4180 C   0  0  0  0  0  0  0  0  0  0  0  0
   32.3470   46.9490   -2.9570 C   0  0  0  0  0  0  0  0  0  0  0  0
   32.5480   48.9550   -4.2880 C   0  0  0  0  0  0  0  0  0  0  0  0
   29.3910   49.7590   -3.7610 C   0  0  0  0  0  0  0  0  0  0  0  0
   29.3280   49.1900   -6.1080 C   0  0  0  0  0  0  0  0  0  0  0  0
   37.4940   47.4720   -2.2990 C   0  0  0  0  0  0  0  0  0  0  0  0
   33.6030   47.1950   -2.4040 C   0  0  0  0  0  0  0  0  0  0  0  0
   33.8030   49.1970   -3.7320 C   0  0  0  0  0  0  0  0  0  0  0  0
   28.7400   50.9630   -4.0320 C   0  0  0  0  0  0  0  0  0  0  0  0
   28.6740   50.3980   -6.3760 C   0  0  0  0  0  0  0  0  0  0  0  0
   34.3270   48.3180   -2.7920 C   0  0  0  0  0  0  0  0  0  0  0  0
   28.3820   51.2820   -5.3390 C   0  0  0  0  0  0  0  0  0  0  0  0
  1  2  1  0
  2  3  2  3
  2  4  1  0
  4  5  2  0
  4  6  1  0
  3  7  1  0
  7  8  2  0
  7  9  1  0
  6 10  1  0
 10 11  2  0
 10 12  1  0
  9 13  1  0
  9 14  1  0
 11 15  1  0
 12 16  2  0
 13 17  2  0
 13 18  1  0
 14 19  2  0
 14 20  1  0
 15 21  2  0
 16 21  1  0
 17 22  1  0
 18 23  2  0
 19 24  1  0
 20 25  2  0
 22 26  2  0
 23 26  1  0
 24 27  2  0
 25 27  1  0
M  END
