mac-x0576-mac-x0373
     RDKit          3D

 22 24  0  0  0  0  0  0  0  0999 V2000
   28.2240   47.7570   -9.0310 N   0  0  0  0  0  0  0  0  0  0  0  0
   29.0240   48.3300   -7.9910 C   0  0  1  0  0  0  0  0  0  0  0  0
   28.7570   49.7490   -8.0870 N   0  0  0  0  0  0  0  0  0  0  0  0
   28.9370   47.7550   -6.6980 N   0  0  0  0  0  0  0  0  0  0  0  0
   29.8430   48.2790   -5.8050 C   0  0  0  0  0  0  0  0  0  0  0  0
   29.4800   50.4430   -7.0090 C   0  0  2  0  0  0  0  0  0  0  0  0
   30.8370   47.4490   -5.3890 C   0  0  0  0  0  0  0  0  0  0  0  0
   29.4610   49.7530   -5.5800 C   0  0  2  0  0  0  0  0  0  0  0  0
   28.8880   51.7470   -6.9480 N   0  0  0  0  0  0  0  0  0  0  0  0
   30.7490   46.0770   -5.9170 C   0  0  0  0  0  0  0  0  0  0  0  0
   29.1080   52.5510   -5.8590 C   0  0  0  0  0  0  0  0  0  0  0  0
   30.2460   50.6000   -4.6700 N   0  0  0  0  0  0  0  0  0  0  0  0
   32.0290   47.7210   -4.5260 C   0  0  0  0  0  0  0  0  0  0  0  0
   28.9530   53.7670   -5.9610 O   0  0  0  0  0  0  0  0  0  0  0  0
   31.7480   45.8070   -6.7660 O   0  0  0  0  0  0  0  0  0  0  0  0
   29.8900   45.2480   -5.6690 O   0  0  0  0  0  0  0  0  0  0  0  0
   29.5430   51.9020   -4.5340 C   0  0  0  0  0  0  0  0  0  0  0  0
   32.5230   46.7160   -3.6710 C   0  0  0  0  0  0  0  0  0  0  0  0
   32.6900   48.9530   -4.5770 C   0  0  0  0  0  0  0  0  0  0  0  0
   33.6640   46.9470   -2.8900 C   0  0  0  0  0  0  0  0  0  0  0  0
   33.8310   49.1790   -3.7930 C   0  0  0  0  0  0  0  0  0  0  0  0
   34.3160   48.1750   -2.9540 C   0  0  0  0  0  0  0  0  0  0  0  0
  2  1  1  6
  2  3  1  0
  2  4  1  0
  4  5  1  0
  6  3  1  6
  5  7  2  3
  5  8  1  0
  6  8  1  0
  6  9  1  0
  7 10  1  0
  9 11  1  0
  8 12  1  1
  7 13  1  0
 11 14  2  0
 10 15  1  0
 10 16  2  0
 11 17  1  0
 12 17  1  0
 13 18  2  0
 13 19  1  0
 18 20  1  0
 19 21  2  0
 20 22  2  0
 21 22  1  0
M  END
