mac-x0223-mac-x0380
     RDKit          3D

 28 30  0  0  0  0  0  0  0  0999 V2000
   27.8440   44.1170   -1.3990 C   0  0  0  0  0  0  0  0  0  0  0  0
   27.8060   45.2420   -2.2870 O   0  0  0  0  0  0  0  0  0  0  0  0
   29.0740   45.7280   -2.4900 C   0  0  0  0  0  0  0  0  0  0  0  0
   29.2820   47.1100   -2.6220 C   0  0  0  0  0  0  0  0  0  0  0  0
   30.1370   44.8190   -2.5590 C   0  0  0  0  0  0  0  0  0  0  0  0
   28.1650   47.8990   -2.5370 O   0  0  0  0  0  0  0  0  0  0  0  0
   30.5830   47.5710   -2.8250 C   0  0  0  0  0  0  0  0  0  0  0  0
   31.4440   45.2860   -2.7650 C   0  0  0  0  0  0  0  0  0  0  0  0
   32.6000   44.3150   -2.8430 C   0  0  0  0  0  0  0  0  0  0  0  0
   27.9310   48.8570   -3.5760 C   0  0  0  0  0  0  0  0  0  0  0  0
   31.6550   46.6690   -2.8960 C   0  0  0  0  0  0  0  0  0  0  0  0
   33.3130   44.2760   -4.1830 C   0  0  0  0  0  0  0  0  0  0  0  0
   28.2200   48.4900   -4.9690 N   0  0  0  0  0  0  0  0  0  0  0  0
   34.2760   44.9530   -4.5080 O   0  0  0  0  0  0  0  0  0  0  0  0
   32.7620   43.3750   -5.0370 O   0  0  0  0  0  0  0  0  0  0  0  0
   28.2200   49.4220   -5.8470 C   0  0  0  0  0  0  0  0  0  0  0  0
   28.4830   49.0820   -7.1200 O   0  0  0  0  0  0  0  0  0  0  0  0
   27.9790   50.8650   -5.7630 C   0  0  0  0  0  0  0  0  0  0  0  0
   28.7970   51.6640   -4.9610 C   0  0  0  0  0  0  0  0  0  0  0  0
   26.9270   51.4230   -6.4880 C   0  0  0  0  0  0  0  0  0  0  0  0
   28.5570   53.0410   -4.8870 C   0  0  0  0  0  0  0  0  0  0  0  0
   26.6890   52.7950   -6.4150 C   0  0  0  0  0  0  0  0  0  0  0  0
   27.5010   53.6060   -5.6170 C   0  0  0  0  0  0  0  0  0  0  0  0
   29.6160   54.0340   -3.8590 S   0  0  0  0  0  0  0  0  0  0  0  0
   27.2220   54.9780   -5.5800 N   0  0  0  0  0  0  0  0  0  0  0  0
   29.4790   55.5970   -4.7530 C   0  0  0  0  0  0  0  0  0  0  0  0
   28.0630   55.9610   -5.1390 C   0  0  0  0  0  0  0  0  0  0  0  0
   27.6530   57.1220   -5.0650 O   0  0  0  0  0  0  0  0  0  0  0  0
  1  2  1  0
  2  3  1  0
  3  4  2  0
  3  5  1  0
  4  6  1  0
  4  7  1  0
  5  8  2  0
  8  9  1  0
  6 10  1  0
  7 11  2  0
  8 11  1  0
  9 12  1  0
 10 13  1  0
 12 14  2  0
 12 15  1  0
 13 16  2  3
 16 17  1  0
 16 18  1  0
 18 19  2  0
 18 20  1  0
 19 21  1  0
 20 22  2  0
 21 23  2  0
 22 23  1  0
 21 24  1  0
 23 25  1  0
 24 26  1  0
 25 27  1  0
 26 27  1  0
 27 28  2  0
M  END
