mac-x0178-mac-x0271
     RDKit          3D

 26 28  0  0  0  0  0  0  0  0999 V2000
   28.4480   44.9550   -0.4300 N   0  0  0  0  0  0  0  0  0  0  0  0
   28.8000   46.5620   -0.7730 S   0  0  0  0  0  0  0  0  0  0  0  0
   29.6930   47.0100    0.2710 O   0  0  0  0  0  0  0  0  0  0  0  0
   27.5540   47.2320   -1.0440 O   0  0  0  0  0  0  0  0  0  0  0  0
   29.7200   46.4450   -2.3010 C   0  0  0  0  0  0  0  0  0  0  0  0
   29.7620   45.2070   -2.9650 C   0  0  0  0  0  0  0  0  0  0  0  0
   30.3900   47.5530   -2.8400 C   0  0  0  0  0  0  0  0  0  0  0  0
   30.3650   48.9220   -2.1950 C   0  0  0  0  0  0  0  0  0  0  0  0
   30.4750   45.0730   -4.1610 C   0  0  0  0  0  0  0  0  0  0  0  0
   31.1070   47.3910   -4.0390 C   0  0  0  0  0  0  0  0  0  0  0  0
   30.9810   49.8990   -3.0380 O   0  0  0  0  0  0  0  0  0  0  0  0
   31.1560   46.1630   -4.7030 C   0  0  0  0  0  0  0  0  0  0  0  0
   31.9050   45.9890   -5.9710 C   0  0  0  0  0  0  0  0  0  0  0  0
   30.2930   50.7270   -3.8940 C   0  0  0  0  0  0  0  0  0  0  0  0
   31.4190   45.6600   -7.0350 O   0  0  0  0  0  0  0  0  0  0  0  0
   33.2190   46.2360   -5.8480 O   0  0  0  0  0  0  0  0  0  0  0  0
   30.2780   52.0490   -3.4670 C   0  0  0  0  0  0  0  0  0  0  0  0
   29.6540   50.3870   -5.0970 C   0  0  0  0  0  0  0  0  0  0  0  0
   29.6450   53.0230   -4.2310 C   0  0  0  0  0  0  0  0  0  0  0  0
   29.0150   51.3850   -5.8660 C   0  0  0  0  0  0  0  0  0  0  0  0
   29.0160   52.7150   -5.4300 C   0  0  0  0  0  0  0  0  0  0  0  0
   29.6760   54.3390   -3.7340 O   0  0  0  0  0  0  0  0  0  0  0  0
   28.3880   53.7940   -6.1850 C   0  0  0  0  0  0  0  0  0  0  0  0
   29.1940   55.3960   -4.4880 C   0  0  0  0  0  0  0  0  0  0  0  0
   29.3370   56.5640   -4.1460 O   0  0  0  0  0  0  0  0  0  0  0  0
   28.4830   55.0520   -5.7310 C   0  0  0  0  0  0  0  0  0  0  0  0
  2  1  1  0
  2  3  2  0
  2  4  2  0
  2  5  1  0
  5  6  2  0
  5  7  1  0
  7  8  1  0
  6  9  1  0
  7 10  2  0
  8 11  1  0
  9 12  2  0
 10 12  1  0
 12 13  1  0
 11 14  1  0
 13 15  2  0
 13 16  1  0
 14 17  2  0
 14 18  1  0
 17 19  1  0
 18 20  2  0
 19 21  2  0
 20 21  1  0
 19 22  1  0
 21 23  1  0
 22 24  1  0
 24 25  2  0
 23 26  2  0
 24 26  1  0
M  END
