mac-x0433-mac-x0138
     RDKit          3D

 19 21  0  0  0  0  0  0  0  0999 V2000
   29.2480   55.2680   -6.0210 C   0  0  0  0  0  0  0  0  0  0  0  0
   29.2970   53.9870   -5.2460 C   0  0  0  0  0  0  0  0  0  0  0  0
   29.3170   54.0770   -3.9020 N   0  0  0  0  0  0  0  0  0  0  0  0
   29.3190   52.7740   -5.9050 C   0  0  0  0  0  0  0  0  0  0  0  0
   29.3660   51.6300   -5.1230 C   0  0  0  0  0  0  0  0  0  0  0  0
   29.3610   52.9290   -3.2240 C   0  0  0  0  0  0  0  0  0  0  0  0
   29.3810   53.0000   -1.8460 N   0  0  0  0  0  0  0  0  0  0  0  0
   29.3850   51.7150   -3.7740 N   0  0  0  0  0  0  0  0  0  0  0  0
   29.3930   50.2880   -5.7290 C   0  0  0  0  0  0  0  0  0  0  0  0
   29.7370   49.1200   -5.0290 C   0  0  0  0  0  0  0  0  0  0  0  0
   29.0600   50.1710   -7.0590 N   0  0  0  0  0  0  0  0  0  0  0  0
   30.1190   48.8400   -3.7280 N   0  0  0  0  0  0  0  0  0  0  0  0
   29.7070   47.9450   -5.7700 C   0  0  0  0  0  0  0  0  0  0  0  0
   29.0740   48.9620   -7.6420 C   0  0  0  0  0  0  0  0  0  0  0  0
   28.7310   48.9210   -8.9790 N   0  0  0  0  0  0  0  0  0  0  0  0
   30.0730   46.9590   -4.8960 N   0  0  0  0  0  0  0  0  0  0  0  0
   30.3100   47.5410   -3.6850 C   0  0  0  0  0  0  0  0  0  0  0  0
   29.3870   47.7980   -7.0640 N   0  0  0  0  0  0  0  0  0  0  0  0
   30.1840   45.5590   -5.2080 C   0  0  0  0  0  0  0  0  0  0  0  0
  1  2  1  0
  2  3  2  0
  2  4  1  0
  4  5  2  0
  3  6  1  0
  6  7  1  0
  5  8  1  0
  6  8  2  0
  5  9  1  0
  9 10  1  0
  9 11  2  0
 10 12  1  0
 10 13  2  0
 11 14  1  0
 14 15  1  0
 13 16  1  0
 12 17  2  0
 16 17  1  0
 13 18  1  0
 14 18  2  0
 16 19  1  0
M  END
