mac-x0360-mac-x0179
     RDKit          3D

 29 31  0  0  0  0  0  0  0  0999 V2000
   32.0180   55.2800   -7.0070 Cl  0  0  0  0  0  0  0  0  0  0  0  0
   32.1690   53.6670   -6.4170 C   0  0  0  0  0  0  0  0  0  0  0  0
   33.4310   53.1640   -6.1140 C   0  0  0  0  0  0  0  0  0  0  0  0
   31.0310   52.8830   -6.2480 C   0  0  0  0  0  0  0  0  0  0  0  0
   31.1620   51.5770   -5.7680 C   0  0  0  0  0  0  0  0  0  0  0  0
   33.5530   51.8610   -5.6370 C   0  0  0  0  0  0  0  0  0  0  0  0
   35.1180   51.2480   -5.2660 Cl  0  0  0  0  0  0  0  0  0  0  0  0
   29.6920   50.5970   -5.5630 S   0  0  0  0  0  0  0  0  0  0  0  0
   32.4240   51.0540   -5.4590 C   0  0  0  0  0  0  0  0  0  0  0  0
   30.2490   49.1840   -4.8780 N   0  0  0  0  0  0  0  0  0  0  0  0
   28.8850   51.2530   -4.5610 O   0  0  0  0  0  0  0  0  0  0  0  0
   29.1590   50.2970   -6.8720 O   0  0  0  0  0  0  0  0  0  0  0  0
   30.8370   48.1220   -5.7020 C   0  0  0  0  0  0  0  0  0  0  0  0
   30.7200   46.7630   -5.0030 C   0  0  0  0  0  0  0  0  0  0  0  0
   31.7170   45.8270   -5.4640 O   0  0  0  0  0  0  0  0  0  0  0  0
   32.9110   45.8200   -4.7960 C   0  0  0  0  0  0  0  0  0  0  0  0
   33.9980   46.0250   -5.3270 O   0  0  0  0  0  0  0  0  0  0  0  0
   32.6970   45.5200   -3.3180 C   0  0  0  0  0  0  0  0  0  0  0  0
   33.9420   45.7320   -2.6100 N   0  0  0  0  0  0  0  0  0  0  0  0
   34.6900   44.7460   -2.0340 C   0  0  0  0  0  0  0  0  0  0  0  0
   34.4990   46.9650   -2.4310 C   0  0  0  0  0  0  0  0  0  0  0  0
   34.4340   43.5620   -1.9270 O   0  0  0  0  0  0  0  0  0  0  0  0
   34.0400   48.0480   -2.7270 O   0  0  0  0  0  0  0  0  0  0  0  0
   35.9110   45.3890   -1.5460 C   0  0  0  0  0  0  0  0  0  0  0  0
   35.7970   46.7500   -1.7910 C   0  0  0  0  0  0  0  0  0  0  0  0
   37.0330   44.8530   -0.9420 C   0  0  0  0  0  0  0  0  0  0  0  0
   36.7900   47.6420   -1.4490 C   0  0  0  0  0  0  0  0  0  0  0  0
   38.0530   45.7380   -0.5850 C   0  0  0  0  0  0  0  0  0  0  0  0
   37.9360   47.1250   -0.8360 C   0  0  0  0  0  0  0  0  0  0  0  0
  1  2  1  0
  2  3  2  0
  2  4  1  0
  4  5  2  0
  3  6  1  0
  6  7  1  0
  5  8  1  0
  5  9  1  0
  6  9  2  0
  8 10  1  0
  8 11  2  0
  8 12  2  0
 10 13  1  0
 13 14  1  0
 14 15  1  0
 15 16  1  0
 16 17  2  0
 16 18  1  0
 18 19  1  0
 19 20  1  0
 19 21  1  0
 20 22  2  0
 21 23  2  0
 20 24  1  0
 21 25  1  0
 24 25  2  0
 24 26  1  0
 25 27  1  0
 26 28  2  0
 27 29  2  0
 28 29  1  0
M  END
