mac-x0223-mac-x0131
     RDKit          3D

 29 32  0  0  0  0  0  0  0  0999 V2000
   27.7580   43.6970   -2.0150 C   0  0  0  0  0  0  0  0  0  0  0  0
   28.6960   44.3570   -1.1710 O   0  0  0  0  0  0  0  0  0  0  0  0
   29.5620   45.2320   -1.7810 C   0  0  0  0  0  0  0  0  0  0  0  0
   29.1230   46.5670   -1.8000 C   0  0  0  0  0  0  0  0  0  0  0  0
   30.7940   44.9060   -2.3620 C   0  0  0  0  0  0  0  0  0  0  0  0
   27.9150   46.8740   -1.2270 O   0  0  0  0  0  0  0  0  0  0  0  0
   29.8860   47.5770   -2.3850 C   0  0  0  0  0  0  0  0  0  0  0  0
   31.5770   45.9130   -2.9540 C   0  0  0  0  0  0  0  0  0  0  0  0
   31.1130   47.2280   -2.9590 C   0  0  0  0  0  0  0  0  0  0  0  0
   32.8660   45.6170   -3.5630 C   0  0  0  0  0  0  0  0  0  0  0  0
   29.4510   49.0170   -2.4430 C   0  0  0  0  0  0  0  0  0  0  0  0
   33.1910   45.6160   -4.9240 C   0  0  0  0  0  0  0  0  0  0  0  0
   34.0630   45.2750   -2.8700 C   0  0  0  0  0  0  0  0  0  0  0  0
   29.1690   49.3430   -3.8780 C   0  0  0  0  0  0  0  0  0  0  0  0
   34.5190   45.2900   -5.0510 O   0  0  0  0  0  0  0  0  0  0  0  0
   35.0290   45.0890   -3.8200 C   0  0  0  0  0  0  0  0  0  0  0  0
   32.5150   45.8620   -6.1750 C   0  0  0  0  0  0  0  0  0  0  0  0
   29.1880   50.5310   -4.6000 C   0  0  0  0  0  0  0  0  0  0  0  0
   28.8160   48.3360   -4.7430 N   0  0  0  0  0  0  0  0  0  0  0  0
   32.7420   46.7620   -6.9710 O   0  0  0  0  0  0  0  0  0  0  0  0
   31.5490   44.9600   -6.4480 O   0  0  0  0  0  0  0  0  0  0  0  0
   29.5170   51.8860   -4.0790 C   0  0  0  0  0  0  0  0  0  0  0  0
   28.8280   50.1970   -5.9530 C   0  0  0  0  0  0  0  0  0  0  0  0
   28.6090   48.8310   -5.9890 C   0  0  0  0  0  0  0  0  0  0  0  0
   28.6550   50.8700   -7.1720 C   0  0  0  0  0  0  0  0  0  0  0  0
   28.2540   48.0860   -7.0460 N   0  0  0  0  0  0  0  0  0  0  0  0
   28.8260   52.2390   -7.3410 N   0  0  0  0  0  0  0  0  0  0  0  0
   28.2980   50.1660   -8.2670 N   0  0  0  0  0  0  0  0  0  0  0  0
   28.1210   48.8370   -8.1470 C   0  0  0  0  0  0  0  0  0  0  0  0
  1  2  1  0
  2  3  1  0
  3  4  2  0
  3  5  1  0
  4  6  1  0
  4  7  1  0
  5  8  2  0
  7  9  2  0
  8  9  1  0
  8 10  1  0
  7 11  1  0
 10 12  2  0
 10 13  1  0
 11 14  1  0
 12 15  1  0
 13 16  2  0
 15 16  1  0
 12 17  1  0
 14 18  2  0
 14 19  1  0
 17 20  2  0
 17 21  1  0
 18 22  1  0
 18 23  1  0
 19 24  1  0
 23 24  2  0
 23 25  1  0
 24 26  1  0
 25 27  1  0
 25 28  2  0
 26 29  2  0
 28 29  1  0
M  END
