mac-x0333-mac-x1494
     RDKit          3D

 16 18  0  0  0  0  0  0  0  0999 V2000
   28.4690   49.7470   -4.0290 O   0  0  0  0  0  0  0  0  0  0  0  0
   29.7580   49.6300   -4.6600 C   0  0  1  0  0  0  0  0  0  0  0  0
   29.4520   49.8300   -6.1650 C   0  0  0  0  0  0  0  0  0  0  0  0
   30.6780   50.7390   -4.1040 C   0  0  1  0  0  0  0  0  0  0  0  0
   30.3420   48.2510   -4.2810 C   0  0  0  0  0  0  0  0  0  0  0  0
   30.2340   52.1320   -4.5780 C   0  0  1  0  0  0  0  0  0  0  0  0
   28.9750   51.2390   -6.4730 C   0  0  0  0  0  0  0  0  0  0  0  0
   30.6280   48.1140   -2.7630 C   0  0  1  0  0  0  0  0  0  0  0  0
   30.7230   50.6270   -2.6030 C   0  0  0  0  0  0  0  0  0  0  0  0
   28.6760   51.5950   -7.6120 O   0  0  0  0  0  0  0  0  0  0  0  0
   32.1830   47.2690   -2.4890 Cl  0  0  0  0  0  0  0  0  0  0  0  0
   28.9040   52.1520   -5.2580 C   0  0  2  0  0  0  0  0  0  0  0  0
   30.0370   53.0860   -3.5310 O   0  0  0  0  0  0  0  0  0  0  0  0
   30.6990   49.4240   -2.0060 C   0  0  0  0  0  0  0  0  0  0  0  0
   28.7000   53.5420   -5.4120 O   0  0  0  0  0  0  0  0  0  0  0  0
   29.2020   54.0680   -4.1720 C   0  0  0  0  0  0  0  0  0  0  0  0
  2  1  1  1
  2  3  1  0
  2  4  1  0
  2  5  1  0
  4  6  1  0
  3  7  1  0
  5  8  1  0
  4  9  1  1
  7 10  2  0
  8 11  1  6
  6 12  1  0
  7 12  1  0
  6 13  1  1
  8 14  1  0
  9 14  2  0
 12 15  1  6
 13 16  1  0
 15 16  1  0
M  END
