mac-x0344-mac-x0509
     RDKit          3D

 22 24  0  0  0  0  0  0  0  0999 V2000
   31.8120   44.6930   -3.8860 O   0  0  0  0  0  0  0  0  0  0  0  0
   31.7940   45.3960   -5.0330 C   0  0  0  0  0  0  0  0  0  0  0  0
   31.0120   45.2510   -5.9560 O   0  0  0  0  0  0  0  0  0  0  0  0
   32.9120   46.4560   -5.0660 C   0  0  0  0  0  0  0  0  0  0  0  0
   33.3530   46.7470   -6.1700 O   0  0  0  0  0  0  0  0  0  0  0  0
   33.2550   46.9250   -3.8130 N   0  0  0  0  0  0  0  0  0  0  0  0
   34.5300   47.3180   -3.3690 C   0  0  0  0  0  0  0  0  0  0  0  0
   34.6030   48.2270   -2.3060 C   0  0  0  0  0  0  0  0  0  0  0  0
   35.7120   46.8480   -3.9280 C   0  0  0  0  0  0  0  0  0  0  0  0
   35.8430   48.6550   -1.8160 C   0  0  0  0  0  0  0  0  0  0  0  0
   36.9540   47.2700   -3.4420 C   0  0  0  0  0  0  0  0  0  0  0  0
   38.1140   46.7640   -4.0260 N   0  0  0  0  0  0  0  0  0  0  0  0
   37.0180   48.1760   -2.3840 C   0  0  0  0  0  0  0  0  0  0  0  0
   38.1760   45.4740   -3.9920 C   0  0  0  0  0  0  0  0  0  0  0  0
   37.1000   44.5520   -3.3740 C   0  0  0  0  0  0  0  0  0  0  0  0
   39.1990   44.6910   -4.4820 N   0  0  0  0  0  0  0  0  0  0  0  0
   37.9070   43.3060   -3.1750 C   0  0  0  0  0  0  0  0  0  0  0  0
   39.1310   43.4500   -3.8550 C   0  0  0  0  0  0  0  0  0  0  0  0
   37.5910   42.1650   -2.4690 C   0  0  0  0  0  0  0  0  0  0  0  0
   40.0650   42.4370   -3.8370 C   0  0  0  0  0  0  0  0  0  0  0  0
   38.5350   41.1380   -2.4470 C   0  0  0  0  0  0  0  0  0  0  0  0
   39.7590   41.2740   -3.1240 C   0  0  0  0  0  0  0  0  0  0  0  0
  1  2  1  0
  2  3  2  0
  2  4  1  0
  4  5  2  0
  4  6  1  0
  6  7  1  0
  7  8  2  0
  7  9  1  0
  8 10  1  0
  9 11  2  0
 11 12  1  0
 10 13  2  0
 11 13  1  0
 12 14  2  3
 14 15  1  0
 14 16  1  0
 15 17  1  0
 16 18  1  0
 17 18  2  0
 17 19  1  0
 18 20  1  0
 19 21  2  0
 20 22  2  0
 21 22  1  0
M  END
