mac-x0564-mac-x0412
     RDKit          3D

 19 22  0  0  0  0  0  0  0  0999 V2000
   29.8520   46.1210   -6.6560 O   0  0  0  0  0  0  0  0  0  0  0  0
   30.4170   46.5940   -5.6740 C   0  0  0  0  0  0  0  0  0  0  0  0
   30.9500   45.7700   -4.7130 N   0  0  0  0  0  0  0  0  0  0  0  0
   30.6050   48.0910   -5.4290 C   0  0  2  0  0  0  0  0  0  0  0  0
   30.5090   48.4390   -3.9100 C   0  0  2  0  0  0  0  0  0  0  0  0
   31.1510   46.2190   -3.3650 C   0  0  0  0  0  0  0  0  0  0  0  0
   29.8140   49.0820   -6.1040 O   0  0  0  0  0  0  0  0  0  0  0  0
   30.2020   47.2800   -3.0690 N   0  0  0  0  0  0  0  0  0  0  0  0
   30.0620   50.1790   -5.2310 C   0  0  2  0  0  0  0  0  0  0  0  0
   29.5320   49.6310   -3.9330 C   0  0  2  0  0  0  0  0  0  0  0  0
   29.6060   50.6100   -2.8020 C   0  0  0  0  0  0  0  0  0  0  0  0
   29.7480   51.6300   -5.6180 C   0  0  2  0  0  0  0  0  0  0  0  0
   29.7610   51.9320   -3.0270 C   0  0  0  0  0  0  0  0  0  0  0  0
   29.9030   52.5740   -4.4060 C   0  0  2  0  0  0  0  0  0  0  0  0
   28.5280   51.9020   -6.4790 C   0  0  0  0  0  0  0  0  0  0  0  0
   29.1950   53.9230   -4.5840 C   0  0  0  0  0  0  0  0  0  0  0  0
   28.0400   53.1460   -6.5490 C   0  0  0  0  0  0  0  0  0  0  0  0
   29.1300   54.7690   -3.7020 O   0  0  0  0  0  0  0  0  0  0  0  0
   28.6340   54.1400   -5.8300 N   0  0  0  0  0  0  0  0  0  0  0  0
  1  2  2  0
  2  3  1  0
  2  4  1  0
  4  5  1  0
  3  6  1  0
  4  7  1  6
  5  8  1  1
  6  8  1  0
  9  7  1  6
  5 10  1  0
  9 10  1  0
 10 11  1  1
  9 12  1  0
 11 13  2  0
 12 14  1  0
 14 13  1  1
 12 15  1  1
 14 16  1  0
 15 17  2  0
 16 18  2  0
 16 19  1  0
 17 19  1  0
M  END
