mac-x0568-mac-x0567
     RDKit          3D

 20 22  0  0  0  0  0  0  0  0999 V2000
   29.9890   56.2350   -4.8330 C   0  0  0  0  0  0  0  0  0  0  0  0
   29.9970   54.7490   -4.6370 C   0  0  0  0  0  0  0  0  0  0  0  0
   29.9380   53.9090   -5.7370 C   0  0  0  0  0  0  0  0  0  0  0  0
   30.0620   54.2850   -3.3650 N   0  0  0  0  0  0  0  0  0  0  0  0
   30.0670   52.9390   -3.1830 C   0  0  0  0  0  0  0  0  0  0  0  0
   29.9460   52.5390   -5.5200 C   0  0  0  0  0  0  0  0  0  0  0  0
   30.0090   52.0150   -4.2140 C   0  0  0  0  0  0  0  0  0  0  0  0
   30.0000   50.5120   -4.0300 C   0  0  1  0  0  0  0  0  0  0  0  0
   31.2950   49.9560   -3.9070 O   0  0  0  0  0  0  0  0  0  0  0  0
   29.2820   50.0930   -2.8480 N   0  0  0  0  0  0  0  0  0  0  0  0
   29.3410   50.0700   -5.3120 C   0  0  0  0  0  0  0  0  0  0  0  0
   28.1430   50.7720   -5.6860 C   0  0  0  0  0  0  0  0  0  0  0  0
   29.9020   49.0320   -6.0930 C   0  0  0  0  0  0  0  0  0  0  0  0
   29.1540   48.8100   -7.2390 C   0  0  0  0  0  0  0  0  0  0  0  0
   27.4100   50.5220   -6.8480 C   0  0  0  0  0  0  0  0  0  0  0  0
   29.4170   47.8890   -8.2090 C   0  0  0  0  0  0  0  0  0  0  0  0
   27.9510   49.5090   -7.6370 C   0  0  0  0  0  0  0  0  0  0  0  0
   30.3860   46.9690   -8.3780 N   0  0  0  0  0  0  0  0  0  0  0  0
   28.4070   48.0630   -9.1180 N   0  0  0  0  0  0  0  0  0  0  0  0
   27.5180   49.0230   -8.8030 N   0  0  0  0  0  0  0  0  0  0  0  0
  1  2  1  0
  2  3  2  0
  2  4  1  0
  4  5  2  0
  3  6  1  0
  5  7  1  0
  6  7  2  0
  7  8  1  0
  8  9  1  0
  8 10  1  1
  8 11  1  0
 11 12  1  0
 11 13  2  0
 13 14  1  0
 12 15  2  0
 14 16  2  0
 14 17  1  0
 15 17  1  0
 16 18  1  0
 16 19  1  0
 17 20  2  0
 19 20  1  0
M  END
