mac-x0190-mac-x0223
     RDKit          3D

 27 29  0  0  0  0  0  0  0  0999 V2000
   28.6940   56.9140   -5.4440 O   0  0  0  0  0  0  0  0  0  0  0  0
   29.9030   56.2520   -5.0870 C   0  0  0  0  0  0  0  0  0  0  0  0
   29.6360   54.7950   -5.0410 C   0  0  0  0  0  0  0  0  0  0  0  0
   29.7010   54.0780   -3.8760 N   0  0  0  0  0  0  0  0  0  0  0  0
   29.3110   54.0190   -6.0560 N   0  0  0  0  0  0  0  0  0  0  0  0
   29.3990   52.7740   -4.1620 C   0  0  0  0  0  0  0  0  0  0  0  0
   29.1610   52.7600   -5.5250 C   0  0  0  0  0  0  0  0  0  0  0  0
   29.3150   51.6410   -3.3640 C   0  0  0  0  0  0  0  0  0  0  0  0
   28.8180   51.5500   -6.1510 C   0  0  0  0  0  0  0  0  0  0  0  0
   28.9660   50.4350   -3.9910 C   0  0  0  0  0  0  0  0  0  0  0  0
   28.7240   50.3920   -5.3690 C   0  0  0  0  0  0  0  0  0  0  0  0
   28.8540   49.2010   -3.1530 C   0  0  0  0  0  0  0  0  0  0  0  0
   28.2930   49.4750   -1.7460 C   0  0  0  0  0  0  0  0  0  0  0  0
   27.3430   48.3910   -1.2450 C   0  0  0  0  0  0  0  0  0  0  0  0
   28.1310   47.2960   -0.7850 O   0  0  0  0  0  0  0  0  0  0  0  0
   29.0940   46.8390   -1.6470 C   0  0  0  0  0  0  0  0  0  0  0  0
   28.8190   45.6250   -2.2980 C   0  0  0  0  0  0  0  0  0  0  0  0
   30.2980   47.5070   -1.8990 C   0  0  0  0  0  0  0  0  0  0  0  0
   27.6150   45.0390   -1.9910 O   0  0  0  0  0  0  0  0  0  0  0  0
   31.2280   46.9730   -2.7950 C   0  0  0  0  0  0  0  0  0  0  0  0
   29.7580   45.0960   -3.1940 C   0  0  0  0  0  0  0  0  0  0  0  0
   27.5100   43.6260   -2.1610 C   0  0  0  0  0  0  0  0  0  0  0  0
   30.9660   45.7650   -3.4480 C   0  0  0  0  0  0  0  0  0  0  0  0
   31.9770   45.1760   -4.4200 C   0  0  0  0  0  0  0  0  0  0  0  0
   32.2590   46.0570   -5.6230 C   0  0  0  0  0  0  0  0  0  0  0  0
   33.2310   46.7790   -5.8280 O   0  0  0  0  0  0  0  0  0  0  0  0
   31.2710   45.9760   -6.5520 O   0  0  0  0  0  0  0  0  0  0  0  0
  1  2  1  0
  2  3  1  0
  3  4  1  0
  3  5  2  0
  4  6  1  0
  5  7  1  0
  6  7  2  0
  6  8  1  0
  7  9  1  0
  8 10  2  0
  9 11  2  0
 10 11  1  0
 10 12  1  0
 12 13  1  0
 13 14  1  0
 14 15  1  0
 15 16  1  0
 16 17  2  0
 16 18  1  0
 17 19  1  0
 18 20  2  0
 17 21  1  0
 19 22  1  0
 20 23  1  0
 21 23  2  0
 23 24  1  0
 24 25  1  0
 25 26  2  0
 25 27  1  0
M  END
