mac-x0347-mac-x0139
     RDKit          3D

 28 31  0  0  0  0  0  0  0  0999 V2000
   30.6820   45.0420   -4.6440 O   0  0  0  0  0  0  0  0  0  0  0  0
   30.7020   46.2390   -5.4060 C   0  0  1  0  0  0  0  0  0  0  0  0
   31.7740   46.2810   -6.4100 N   0  0  0  0  0  0  0  0  0  0  0  0
   29.3570   46.3200   -6.0290 N   0  0  0  0  0  0  0  0  0  0  0  0
   30.7360   47.4810   -4.5110 C   0  0  0  0  0  0  0  0  0  0  0  0
   28.3230   46.4490   -4.9990 C   0  0  0  0  0  0  0  0  0  0  0  0
   32.6200   45.3250   -6.4530 C   0  0  0  0  0  0  0  0  0  0  0  0
   30.4650   48.7370   -5.0630 C   0  0  0  0  0  0  0  0  0  0  0  0
   31.0130   47.4440   -3.1490 C   0  0  0  0  0  0  0  0  0  0  0  0
   29.1420   47.0060   -7.2470 C   0  0  0  0  0  0  0  0  0  0  0  0
   33.6500   45.2240   -7.3060 O   0  0  0  0  0  0  0  0  0  0  0  0
   30.4610   49.8970   -4.2920 C   0  0  0  0  0  0  0  0  0  0  0  0
   31.0320   48.5410   -2.3460 N   0  0  0  0  0  0  0  0  0  0  0  0
   28.6750   48.2830   -7.2640 C   0  0  0  0  0  0  0  0  0  0  0  0
   29.4180   46.3240   -8.4400 N   0  0  0  0  0  0  0  0  0  0  0  0
   30.7540   49.7300   -2.9390 C   0  0  0  0  0  0  0  0  0  0  0  0
   30.1610   51.2000   -4.8960 C   0  0  0  0  0  0  0  0  0  0  0  0
   28.4670   48.9400   -8.5760 C   0  0  0  0  0  0  0  0  0  0  0  0
   29.2160   46.9500   -9.5600 C   0  0  0  0  0  0  0  0  0  0  0  0
   28.2790   49.2890   -6.3280 C   0  0  0  0  0  0  0  0  0  0  0  0
   28.8330   51.6140   -5.0860 C   0  0  0  0  0  0  0  0  0  0  0  0
   31.1820   52.0690   -5.3050 C   0  0  0  0  0  0  0  0  0  0  0  0
   28.7570   48.2220   -9.6840 N   0  0  0  0  0  0  0  0  0  0  0  0
   28.0180   50.1540   -8.4560 N   0  0  0  0  0  0  0  0  0  0  0  0
   27.9110   50.3370   -7.0840 C   0  0  0  0  0  0  0  0  0  0  0  0
   28.5350   52.8500   -5.6670 C   0  0  0  0  0  0  0  0  0  0  0  0
   30.8860   53.3070   -5.8850 C   0  0  0  0  0  0  0  0  0  0  0  0
   29.5630   53.6940   -6.0660 C   0  0  0  0  0  0  0  0  0  0  0  0
  2  1  1  1
  2  3  1  0
  2  4  1  0
  2  5  1  0
  4  6  1  0
  3  7  2  3
  5  8  2  0
  5  9  1  0
  4 10  1  0
  7 11  1  0
  8 12  1  0
  9 13  2  0
 10 14  2  0
 10 15  1  0
 12 16  2  0
 13 16  1  0
 12 17  1  0
 14 18  1  0
 15 19  2  0
 14 20  1  0
 17 21  2  0
 17 22  1  0
 18 23  1  0
 19 23  1  0
 18 24  2  0
 20 25  2  0
 24 25  1  0
 21 26  1  0
 22 27  2  0
 26 28  2  0
 27 28  1  0
M  END
