mac-x0179-mac-x0224
     RDKit          3D

 26 28  0  0  0  0  0  0  0  0999 V2000
   32.1540   46.6310   -5.5980 O   0  0  0  0  0  0  0  0  0  0  0  0
   33.0580   45.8260   -4.9680 C   0  0  0  0  0  0  0  0  0  0  0  0
   34.0640   45.3560   -5.4770 O   0  0  0  0  0  0  0  0  0  0  0  0
   30.8160   46.4820   -5.4990 C   0  0  0  0  0  0  0  0  0  0  0  0
   32.7480   45.5480   -3.4960 C   0  0  0  0  0  0  0  0  0  0  0  0
   30.1030   45.5450   -5.7960 O   0  0  0  0  0  0  0  0  0  0  0  0
   30.2870   47.7600   -4.9610 C   0  0  0  0  0  0  0  0  0  0  0  0
   33.8780   45.7860   -2.6010 N   0  0  0  0  0  0  0  0  0  0  0  0
   29.7420   48.6380   -5.9070 C   0  0  0  0  0  0  0  0  0  0  0  0
   30.3060   48.1340   -3.6100 C   0  0  0  0  0  0  0  0  0  0  0  0
   30.8000   47.3820   -2.5900 O   0  0  0  0  0  0  0  0  0  0  0  0
   34.6360   44.7820   -2.0550 C   0  0  0  0  0  0  0  0  0  0  0  0
   34.4940   47.0010   -2.4670 C   0  0  0  0  0  0  0  0  0  0  0  0
   29.2240   49.8750   -5.5250 C   0  0  0  0  0  0  0  0  0  0  0  0
   29.7900   49.3710   -3.2240 C   0  0  0  0  0  0  0  0  0  0  0  0
   34.3650   43.5980   -1.9820 O   0  0  0  0  0  0  0  0  0  0  0  0
   34.0940   48.0940   -2.8070 O   0  0  0  0  0  0  0  0  0  0  0  0
   28.5430   50.9390   -6.7810 S   0  0  0  0  0  0  0  0  0  0  0  0
   35.8690   45.4030   -1.5620 C   0  0  0  0  0  0  0  0  0  0  0  0
   35.7800   46.7570   -1.8160 C   0  0  0  0  0  0  0  0  0  0  0  0
   29.2510   50.2410   -4.1760 C   0  0  0  0  0  0  0  0  0  0  0  0
   28.7500   52.5610   -6.0010 C   0  0  0  0  0  0  0  0  0  0  0  0
   36.9760   44.8470   -0.9460 C   0  0  0  0  0  0  0  0  0  0  0  0
   36.7900   47.6390   -1.4730 C   0  0  0  0  0  0  0  0  0  0  0  0
   38.0120   45.7190   -0.5880 C   0  0  0  0  0  0  0  0  0  0  0  0
   37.9200   47.1010   -0.8480 C   0  0  0  0  0  0  0  0  0  0  0  0
  1  2  1  0
  2  3  2  0
  1  4  1  0
  2  5  1  0
  4  6  2  0
  4  7  1  0
  5  8  1  0
  7  9  2  0
  7 10  1  0
 10 11  1  0
  8 12  1  0
  8 13  1  0
  9 14  1  0
 10 15  2  0
 12 16  2  0
 13 17  2  0
 14 18  1  0
 12 19  1  0
 13 20  1  0
 19 20  2  0
 14 21  2  0
 15 21  1  0
 18 22  1  0
 19 23  1  0
 20 24  1  0
 23 25  2  0
 24 26  2  0
 25 26  1  0
M  END
