mac-x0319-mac-x0204
     RDKit          3D

 20 21  0  0  0  0  0  0  0  0999 V2000
   34.0880   45.3270   -6.9240 O   0  0  0  0  0  0  0  0  0  0  0  0
   32.9510   45.5130   -6.2230 C   0  0  0  0  0  0  0  0  0  0  0  0
   32.3810   46.6660   -6.0640 N   0  0  0  0  0  0  0  0  0  0  0  0
   32.4290   44.2150   -5.6470 C   0  0  0  0  0  0  0  0  0  0  0  0
   31.2280   46.8200   -5.3430 C   0  0  0  0  0  0  0  0  0  0  0  0
   31.5820   44.3680   -4.4060 C   0  0  0  0  0  0  0  0  0  0  0  0
   30.1220   46.4130   -5.6980 O   0  0  0  0  0  0  0  0  0  0  0  0
   30.2470   43.9440   -4.4130 C   0  0  0  0  0  0  0  0  0  0  0  0
   32.1100   44.9260   -3.2320 C   0  0  0  0  0  0  0  0  0  0  0  0
   31.3760   47.5530   -4.0590 C   0  0  0  0  0  0  0  0  0  0  0  0
   29.4620   44.0780   -3.2710 C   0  0  0  0  0  0  0  0  0  0  0  0
   31.3140   45.0560   -2.0890 C   0  0  0  0  0  0  0  0  0  0  0  0
   30.3660   47.6170   -3.0930 C   0  0  0  0  0  0  0  0  0  0  0  0
   32.5740   48.2110   -3.7900 C   0  0  0  0  0  0  0  0  0  0  0  0
   28.1700   43.6470   -3.3330 O   0  0  0  0  0  0  0  0  0  0  0  0
   29.9850   44.6310   -2.1080 C   0  0  0  0  0  0  0  0  0  0  0  0
   30.5960   48.3240   -1.9200 C   0  0  0  0  0  0  0  0  0  0  0  0
   32.8220   48.9100   -2.6500 N   0  0  0  0  0  0  0  0  0  0  0  0
   29.6010   48.3780   -0.9890 O   0  0  0  0  0  0  0  0  0  0  0  0
   31.8230   48.9480   -1.7390 C   0  0  0  0  0  0  0  0  0  0  0  0
  1  2  1  0
  2  3  2  3
  2  4  1  0
  3  5  1  0
  4  6  1  0
  5  7  2  0
  6  8  2  0
  6  9  1  0
  5 10  1  0
  8 11  1  0
  9 12  2  0
 10 13  2  0
 10 14  1  0
 11 15  1  0
 11 16  2  0
 12 16  1  0
 13 17  1  0
 14 18  2  0
 17 19  1  0
 17 20  2  0
 18 20  1  0
M  END
