mac-x0436-mac-x0361
     RDKit          3D

 27 29  0  0  0  0  0  0  0  0999 V2000
   33.7160   45.6510   -6.8380 O   0  0  0  0  0  0  0  0  0  0  0  0
   32.5430   45.1760   -6.3440 C   0  0  0  0  0  0  0  0  0  0  0  0
   31.4860   45.3770   -6.9180 O   0  0  0  0  0  0  0  0  0  0  0  0
   32.7300   44.4010   -5.0570 C   0  0  0  0  0  0  0  0  0  0  0  0
   32.5160   45.2290   -3.7880 C   0  0  0  0  0  0  0  0  0  0  0  0
   33.8100   45.9470   -3.4610 C   0  0  0  0  0  0  0  0  0  0  0  0
   33.8920   47.4990   -3.5510 C   0  0  0  0  0  0  0  0  0  0  0  0
   34.8350   45.2200   -3.1120 N   0  0  0  0  0  0  0  0  0  0  0  0
   32.7900   48.1550   -3.7520 N   0  0  0  0  0  0  0  0  0  0  0  0
   35.1540   48.0320   -3.4060 N   0  0  0  0  0  0  0  0  0  0  0  0
   36.0560   45.8550   -2.8180 C   0  0  0  0  0  0  0  0  0  0  0  0
   31.5000   47.4790   -3.8950 C   0  0  0  0  0  0  0  0  0  0  0  0
   36.2270   47.2470   -2.9610 C   0  0  0  0  0  0  0  0  0  0  0  0
   37.1240   45.0710   -2.3750 C   0  0  0  0  0  0  0  0  0  0  0  0
   30.3370   48.1210   -3.3500 O   0  0  0  0  0  0  0  0  0  0  0  0
   38.3550   45.6550   -2.0750 C   0  0  0  0  0  0  0  0  0  0  0  0
   37.4640   47.8260   -2.6590 C   0  0  0  0  0  0  0  0  0  0  0  0
   38.5240   47.0310   -2.2180 C   0  0  0  0  0  0  0  0  0  0  0  0
   30.1290   49.4390   -3.6800 C   0  0  0  0  0  0  0  0  0  0  0  0
   29.8620   49.6980   -5.0260 C   0  0  0  0  0  0  0  0  0  0  0  0
   30.1640   50.5010   -2.7770 C   0  0  0  0  0  0  0  0  0  0  0  0
   29.6330   51.0110   -5.4650 C   0  0  0  0  0  0  0  0  0  0  0  0
   29.9370   51.8110   -3.2070 C   0  0  0  0  0  0  0  0  0  0  0  0
   29.6700   52.0720   -4.5530 C   0  0  0  0  0  0  0  0  0  0  0  0
   29.4270   53.4590   -5.0340 C   0  0  0  0  0  0  0  0  0  0  0  0
   28.7740   53.6030   -6.2280 N   0  0  0  0  0  0  0  0  0  0  0  0
   29.7950   54.4330   -4.3870 O   0  0  0  0  0  0  0  0  0  0  0  0
  1  2  1  0
  2  3  2  0
  2  4  1  0
  4  5  1  0
  5  6  1  0
  6  7  1  0
  6  8  2  0
  7  9  2  3
  7 10  1  0
  8 11  1  0
  9 12  1  0
 10 13  1  0
 11 13  2  0
 11 14  1  0
 12 15  1  0
 14 16  2  0
 13 17  1  0
 16 18  1  0
 17 18  2  0
 15 19  1  0
 19 20  2  0
 19 21  1  0
 20 22  1  0
 21 23  2  0
 22 24  2  0
 23 24  1  0
 24 25  1  0
 25 26  1  0
 25 27  2  0
M  END
