mac-x0142-mac-x0510
     RDKit          3D

 19 22  0  0  0  0  0  0  0  0999 V2000
   28.7320   52.5420   -5.1730 O   0  0  0  0  0  0  0  0  0  0  0  0
   28.7540   51.3840   -5.5580 C   0  0  0  0  0  0  0  0  0  0  0  0
   28.4770   50.9410   -6.8450 N   0  0  0  0  0  0  0  0  0  0  0  0
   29.1150   50.2210   -4.6010 C   0  0  0  0  0  0  0  0  0  0  0  0
   29.2440   50.2560   -3.4020 O   0  0  0  0  0  0  0  0  0  0  0  0
   28.7570   49.6740   -6.8390 C   0  0  0  0  0  0  0  0  0  0  0  0
   29.2540   49.1170   -5.5520 C   0  0  0  0  0  0  0  0  0  0  0  0
   28.6110   48.8840   -7.9460 N   0  0  0  0  0  0  0  0  0  0  0  0
   29.6950   47.8400   -5.5090 C   0  0  0  0  0  0  0  0  0  0  0  0
   30.2000   47.1520   -4.4010 N   0  0  0  0  0  0  0  0  0  0  0  0
   29.6340   47.1590   -6.7170 N   0  0  0  0  0  0  0  0  0  0  0  0
   29.0500   47.6800   -7.8320 C   0  0  0  0  0  0  0  0  0  0  0  0
   31.0830   47.7710   -3.4000 C   0  0  0  0  0  0  0  0  0  0  0  0
   30.2140   45.6670   -4.3950 C   0  0  0  0  0  0  0  0  0  0  0  0
   31.6270   45.1220   -4.5090 C   0  0  0  0  0  0  0  0  0  0  0  0
   32.5090   47.2390   -3.5500 C   0  0  0  0  0  0  0  0  0  0  0  0
   31.8000   43.6670   -4.8910 C   0  0  0  0  0  0  0  0  0  0  0  0
   32.1640   44.7420   -5.8750 C   0  0  0  0  0  0  0  0  0  0  0  0
   32.5830   45.7160   -3.5110 C   0  0  0  0  0  0  0  0  0  0  0  0
  1  2  2  0
  2  3  1  0
  2  4  1  0
  4  5  2  0
  3  6  2  0
  4  7  1  0
  6  7  1  0
  6  8  1  0
  7  9  2  0
  9 10  1  0
  9 11  1  0
  8 12  2  0
 11 12  1  0
 10 13  1  0
 10 14  1  0
 15 14  1  0
 13 16  1  0
 15 17  1  0
 15 18  1  0
 17 18  1  0
 15 19  1  0
 16 19  1  0
M  END
