mac-x0567-mac-x0441
     RDKit          3D

 29 32  0  0  0  0  0  0  0  0999 V2000
   28.9860   46.6330   -5.8780 N   0  0  0  0  0  0  0  0  0  0  0  0
   29.3860   47.8900   -6.1750 C   0  0  0  0  0  0  0  0  0  0  0  0
   30.3230   48.1830   -7.1410 N   0  0  0  0  0  0  0  0  0  0  0  0
   29.0310   49.1120   -5.6700 C   0  0  0  0  0  0  0  0  0  0  0  0
   31.0240   47.2260   -7.9730 C   0  0  0  0  0  0  0  0  0  0  0  0
   30.5840   49.5070   -7.2870 N   0  0  0  0  0  0  0  0  0  0  0  0
   29.7940   50.1090   -6.3830 C   0  0  0  0  0  0  0  0  0  0  0  0
   28.1050   49.3400   -4.6560 C   0  0  0  0  0  0  0  0  0  0  0  0
   31.4500   46.0010   -7.1620 C   0  0  0  0  0  0  0  0  0  0  0  0
   29.6480   51.4730   -6.0860 C   0  0  0  0  0  0  0  0  0  0  0  0
   27.9800   50.7160   -4.3790 C   0  0  0  0  0  0  0  0  0  0  0  0
   32.8620   45.6970   -7.4520 N   0  0  0  0  0  0  0  0  0  0  0  0
   28.7140   51.7350   -5.0590 C   0  0  0  0  0  0  0  0  0  0  0  0
   33.6170   45.3540   -6.4590 C   0  0  0  0  0  0  0  0  0  0  0  0
   34.9210   45.0580   -6.6320 O   0  0  0  0  0  0  0  0  0  0  0  0
   33.1030   45.2700   -5.0450 C   0  0  0  0  0  0  0  0  0  0  0  0
   34.1800   45.0310   -4.0910 N   0  0  0  0  0  0  0  0  0  0  0  0
   34.3200   43.7890   -3.5640 N   0  0  0  0  0  0  0  0  0  0  0  0
   35.1100   45.9100   -3.6260 C   0  0  0  0  0  0  0  0  0  0  0  0
   35.3860   43.8850   -2.7310 C   0  0  0  0  0  0  0  0  0  0  0  0
   35.9040   45.2070   -2.7470 C   0  0  0  0  0  0  0  0  0  0  0  0
   35.2580   47.3480   -3.9800 C   0  0  0  0  0  0  0  0  0  0  0  0
   35.9100   42.7230   -1.9180 C   0  0  0  0  0  0  0  0  0  0  0  0
   37.0500   45.8200   -2.0200 C   0  0  0  0  0  0  0  0  0  0  0  0
   36.2080   48.0370   -2.9800 C   0  0  0  0  0  0  0  0  0  0  0  0
   37.0170   42.1410   -2.4580 F   0  0  0  0  0  0  0  0  0  0  0  0
   36.2530   43.0990   -0.6540 F   0  0  0  0  0  0  0  0  0  0  0  0
   34.9810   41.7420   -1.7840 F   0  0  0  0  0  0  0  0  0  0  0  0
   37.4400   47.1720   -2.6560 C   0  0  0  0  0  0  0  0  0  0  0  0
  1  2  1  0
  2  3  1  0
  2  4  2  0
  3  5  1  0
  3  6  1  0
  4  7  1  0
  6  7  2  0
  4  8  1  0
  5  9  1  0
  7 10  1  0
  8 11  2  0
  9 12  1  0
 10 13  2  0
 11 13  1  0
 12 14  2  3
 14 15  1  0
 14 16  1  0
 16 17  1  0
 17 18  1  0
 17 19  1  0
 18 20  2  0
 19 21  2  0
 20 21  1  0
 19 22  1  0
 20 23  1  0
 21 24  1  0
 22 25  1  0
 23 26  1  0
 23 27  1  0
 23 28  1  0
 24 29  1  0
 25 29  1  0
M  END
