mac-x0328-mac-x0204
     RDKit          3D

 19 20  0  0  0  0  0  0  0  0999 V2000
   28.2000   47.4690   -4.4700 O   0  0  0  0  0  0  0  0  0  0  0  0
   29.2970   48.0290   -5.2130 C   0  0  2  0  0  0  0  0  0  0  0  0
   30.5580   47.0960   -5.0870 C   0  0  0  0  0  0  0  0  0  0  0  0
   29.5030   49.4870   -4.8320 C   0  0  0  0  0  0  0  0  0  0  0  0
   31.4370   47.3720   -6.1850 O   0  0  0  0  0  0  0  0  0  0  0  0
   30.1980   45.7340   -5.2790 O   0  0  0  0  0  0  0  0  0  0  0  0
   29.5240   50.4710   -5.8350 C   0  0  0  0  0  0  0  0  0  0  0  0
   29.6720   49.8950   -3.4960 C   0  0  0  0  0  0  0  0  0  0  0  0
   31.3000   47.2590   -3.7770 C   0  0  0  0  0  0  0  0  0  0  0  0
   29.7090   51.8160   -5.5130 C   0  0  0  0  0  0  0  0  0  0  0  0
   29.8570   51.2420   -3.1720 C   0  0  0  0  0  0  0  0  0  0  0  0
   30.6350   47.1490   -2.5470 C   0  0  0  0  0  0  0  0  0  0  0  0
   32.6670   47.5260   -3.7290 C   0  0  0  0  0  0  0  0  0  0  0  0
   29.8730   52.1940   -4.1870 C   0  0  0  0  0  0  0  0  0  0  0  0
   31.3370   47.3080   -1.3620 C   0  0  0  0  0  0  0  0  0  0  0  0
   33.3800   47.6850   -2.5840 N   0  0  0  0  0  0  0  0  0  0  0  0
   30.0450   53.5190   -3.9190 O   0  0  0  0  0  0  0  0  0  0  0  0
   30.6550   47.1960   -0.1880 O   0  0  0  0  0  0  0  0  0  0  0  0
   32.6950   47.5720   -1.4250 C   0  0  0  0  0  0  0  0  0  0  0  0
  2  1  1  1
  2  3  1  0
  2  4  1  0
  3  5  1  0
  3  6  1  0
  4  7  2  0
  4  8  1  0
  3  9  1  0
  7 10  1  0
  8 11  2  0
  9 12  2  0
  9 13  1  0
 10 14  2  0
 11 14  1  0
 12 15  1  0
 13 16  2  0
 14 17  1  0
 15 18  1  0
 15 19  2  0
 16 19  1  0
M  END
