mac-x0509-mac-x0178
     RDKit          3D

 25 27  0  0  0  0  0  0  0  0999 V2000
   37.9710   47.0840   -5.5080 O   0  0  0  0  0  0  0  0  0  0  0  0
   37.8350   45.9650   -5.0360 C   0  0  0  0  0  0  0  0  0  0  0  0
   36.5130   45.2640   -4.6440 C   0  0  2  0  0  0  0  0  0  0  0  0
   38.8560   45.0740   -4.7480 N   0  0  0  0  0  0  0  0  0  0  0  0
   35.5410   46.3190   -4.0950 C   0  0  0  0  0  0  0  0  0  0  0  0
   37.0390   44.2210   -3.6890 C   0  0  0  0  0  0  0  0  0  0  0  0
   38.4290   44.1570   -3.8040 C   0  0  0  0  0  0  0  0  0  0  0  0
   34.5020   46.8050   -5.1030 C   0  0  0  0  0  0  0  0  0  0  0  0
   36.3830   43.3920   -2.7950 C   0  0  0  0  0  0  0  0  0  0  0  0
   39.2050   43.2930   -3.0610 C   0  0  0  0  0  0  0  0  0  0  0  0
   33.5270   45.7690   -5.3040 O   0  0  0  0  0  0  0  0  0  0  0  0
   37.1450   42.5050   -2.0260 C   0  0  0  0  0  0  0  0  0  0  0  0
   38.5470   42.4560   -2.1600 C   0  0  0  0  0  0  0  0  0  0  0  0
   32.2890   46.1920   -5.6460 C   0  0  0  0  0  0  0  0  0  0  0  0
   31.9140   46.4820   -6.7720 O   0  0  0  0  0  0  0  0  0  0  0  0
   31.4150   46.2580   -4.4410 C   0  0  0  0  0  0  0  0  0  0  0  0
   30.1340   45.6760   -4.4070 C   0  0  0  0  0  0  0  0  0  0  0  0
   31.8990   46.9270   -3.3060 C   0  0  0  0  0  0  0  0  0  0  0  0
   29.3520   45.7650   -3.2520 C   0  0  0  0  0  0  0  0  0  0  0  0
   31.1170   47.0160   -2.1500 C   0  0  0  0  0  0  0  0  0  0  0  0
   29.8460   46.4340   -2.1300 C   0  0  0  0  0  0  0  0  0  0  0  0
   28.8600   46.5540   -0.6580 S   0  0  0  0  0  0  0  0  0  0  0  0
   28.4580   44.9420   -0.3780 N   0  0  0  0  0  0  0  0  0  0  0  0
   29.7060   46.9990    0.4210 O   0  0  0  0  0  0  0  0  0  0  0  0
   27.6180   47.2120   -0.9950 O   0  0  0  0  0  0  0  0  0  0  0  0
  1  2  2  0
  2  3  1  0
  2  4  1  0
  3  5  1  1
  3  6  1  0
  4  7  1  0
  6  7  2  0
  5  8  1  0
  6  9  1  0
  7 10  1  0
  8 11  1  0
  9 12  2  0
 10 13  2  0
 12 13  1  0
 11 14  1  0
 14 15  2  0
 14 16  1  0
 16 17  2  0
 16 18  1  0
 17 19  1  0
 18 20  2  0
 19 21  2  0
 20 21  1  0
 21 22  1  0
 22 23  1  0
 22 24  2  0
 22 25  2  0
M  END
