mac-x0564-mac-x0223
     RDKit          3D

 20 23  0  0  0  0  0  0  0  0999 V2000
   31.5060   46.6050   -6.3160 N   0  0  0  0  0  0  0  0  0  0  0  0
   31.9730   45.3490   -6.0280 C   0  0  0  0  0  0  0  0  0  0  0  0
   31.1880   44.7400   -4.8570 C   0  0  0  0  0  0  0  0  0  0  0  0
   30.9260   46.9490   -5.2170 C   0  0  0  0  0  0  0  0  0  0  0  0
   32.9170   44.8370   -6.5910 O   0  0  0  0  0  0  0  0  0  0  0  0
   30.4150   48.3410   -4.9580 C   0  0  2  0  0  0  0  0  0  0  0  0
   30.8510   45.9890   -4.2240 N   0  0  0  0  0  0  0  0  0  0  0  0
   29.6760   48.5210   -3.6420 C   0  0  1  0  0  0  0  0  0  0  0  0
   29.7610   46.2000   -3.3010 C   0  0  1  0  0  0  0  0  0  0  0  0
   29.6740   49.1900   -5.7880 O   0  0  0  0  0  0  0  0  0  0  0  0
   29.5320   45.1060   -2.3800 O   0  0  0  0  0  0  0  0  0  0  0  0
   29.8990   47.4940   -2.5930 N   0  0  0  0  0  0  0  0  0  0  0  0
   29.9930   50.3930   -5.0360 C   0  0  2  0  0  0  0  0  0  0  0  0
   30.2490   49.9350   -3.5510 C   0  0  1  0  0  0  0  0  0  0  0  0
   28.2650   44.4490   -2.5180 C   0  0  0  0  0  0  0  0  0  0  0  0
   28.8240   47.5580   -1.5900 O   0  0  0  0  0  0  0  0  0  0  0  0
   29.7160   50.8550   -2.4930 C   0  0  0  0  0  0  0  0  0  0  0  0
   28.9410   51.4470   -5.1950 C   0  0  0  0  0  0  0  0  0  0  0  0
   28.8900   51.8680   -2.7910 C   0  0  0  0  0  0  0  0  0  0  0  0
   28.4520   52.1220   -4.1450 C   0  0  0  0  0  0  0  0  0  0  0  0
  1  2  1  0
  2  3  1  0
  1  4  2  0
  2  5  2  0
  4  6  1  0
  3  7  1  0
  4  7  1  0
  6  8  1  0
  7  9  1  0
  6 10  1  6
  9 11  1  1
  8 12  1  1
  9 12  1  0
 10 13  1  0
  8 14  1  0
 13 14  1  0
 11 15  1  0
 12 16  1  0
 14 17  1  1
 13 18  1  1
 17 19  2  0
 18 20  2  0
 19 20  1  0
M  END
