mac-x0115-mac-x0333
     RDKit          3D

 27 30  0  0  0  0  0  0  0  0999 V2000
   27.9320   45.8460   -2.0100 C   0  0  0  0  0  0  0  0  0  0  0  0
   28.8480   44.6390   -1.8260 C   0  0  0  0  0  0  0  0  0  0  0  0
   28.1380   43.3630   -2.2670 C   0  0  0  0  0  0  0  0  0  0  0  0
   30.0240   44.7640   -2.6300 O   0  0  0  0  0  0  0  0  0  0  0  0
   29.7910   44.6020   -4.0310 C   0  0  0  0  0  0  0  0  0  0  0  0
   30.7110   45.5560   -4.8000 C   0  0  0  0  0  0  0  0  0  0  0  0
   30.1720   45.9350   -6.1290 N   0  0  0  0  0  0  0  0  0  0  0  0
   29.7150   44.9620   -7.0440 C   0  0  0  0  0  0  0  0  0  0  0  0
   30.4420   47.2040   -6.6380 C   0  0  0  0  0  0  0  0  0  0  0  0
   29.4490   43.3320   -6.7530 S   0  0  0  0  0  0  0  0  0  0  0  0
   29.4560   45.4080   -8.3320 N   0  0  0  0  0  0  0  0  0  0  0  0
   30.9150   47.3000   -8.0490 C   0  0  1  0  0  0  0  0  0  0  0  0
   30.3620   48.4250   -6.0940 C   0  0  0  0  0  0  0  0  0  0  0  0
   29.9820   48.8070   -4.8370 O   0  0  0  0  0  0  0  0  0  0  0  0
   29.9040   46.5870   -8.9150 C   0  0  0  0  0  0  0  0  0  0  0  0
   31.1070   48.7430   -8.3300 N   0  0  0  0  0  0  0  0  0  0  0  0
   30.7850   49.2990   -7.1990 C   0  0  0  0  0  0  0  0  0  0  0  0
   29.4890   46.9550  -10.0110 O   0  0  0  0  0  0  0  0  0  0  0  0
   29.4860   50.0780   -4.6720 C   0  0  0  0  0  0  0  0  0  0  0  0
   30.2930   51.0080   -4.0120 C   0  0  0  0  0  0  0  0  0  0  0  0
   28.2110   50.4290   -5.1540 C   0  0  0  0  0  0  0  0  0  0  0  0
   29.7860   52.2800   -3.8530 C   0  0  0  0  0  0  0  0  0  0  0  0
   27.7270   51.7290   -4.9760 C   0  0  0  0  0  0  0  0  0  0  0  0
   28.5400   52.6290   -4.3210 C   0  0  0  0  0  0  0  0  0  0  0  0
   30.4170   53.3170   -3.2400 O   0  0  0  0  0  0  0  0  0  0  0  0
   28.2350   53.9290   -4.0600 O   0  0  0  0  0  0  0  0  0  0  0  0
   29.4750   54.3840   -3.4750 C   0  0  0  0  0  0  0  0  0  0  0  0
  1  2  1  0
  2  3  1  0
  2  4  1  0
  4  5  1  0
  5  6  1  0
  6  7  1  0
  7  8  1  0
  7  9  1  0
  8 10  2  0
  8 11  1  0
  9 12  1  0
  9 13  2  0
 13 14  1  0
 11 15  1  0
 12 15  1  0
 12 16  1  6
 13 17  1  0
 16 17  2  0
 15 18  2  0
 14 19  1  0
 19 20  2  0
 19 21  1  0
 20 22  1  0
 21 23  2  0
 22 24  2  0
 23 24  1  0
 22 25  1  0
 24 26  1  0
 25 27  1  0
 26 27  1  0
M  END
