mac-x0337-mac-x0347
     RDKit          3D

 26 28  0  0  0  0  0  0  0  0999 V2000
   34.8710   51.8590   -7.0800 C   0  0  0  0  0  0  0  0  0  0  0  0
   33.7990   51.7190   -6.0370 C   0  0  0  0  0  0  0  0  0  0  0  0
   33.0450   52.8320   -5.6420 C   0  0  0  0  0  0  0  0  0  0  0  0
   33.5430   50.4710   -5.4520 C   0  0  0  0  0  0  0  0  0  0  0  0
   32.5500   50.3350   -4.4810 C   0  0  0  0  0  0  0  0  0  0  0  0
   32.0520   52.7020   -4.6730 C   0  0  0  0  0  0  0  0  0  0  0  0
   31.8070   51.4530   -4.0970 C   0  0  0  0  0  0  0  0  0  0  0  0
   30.5350   51.2990   -2.8620 S   0  0  0  0  0  0  0  0  0  0  0  0
   30.7290   52.3410   -1.8810 O   0  0  0  0  0  0  0  0  0  0  0  0
   30.4650   49.9080   -2.4770 O   0  0  0  0  0  0  0  0  0  0  0  0
   29.1520   51.6030   -3.7670 N   0  0  0  0  0  0  0  0  0  0  0  0
   29.2880   51.7110   -5.1810 C   0  0  0  0  0  0  0  0  0  0  0  0
   29.2600   52.9840   -5.7600 C   0  0  0  0  0  0  0  0  0  0  0  0
   29.4540   50.5630   -5.9880 C   0  0  0  0  0  0  0  0  0  0  0  0
   29.4940   49.1960   -5.4490 C   0  0  0  0  0  0  0  0  0  0  0  0
   29.5850   50.7470   -7.3780 C   0  0  0  0  0  0  0  0  0  0  0  0
   29.3920   53.1390   -7.1370 C   0  0  0  0  0  0  0  0  0  0  0  0
   30.2250   48.1800   -6.0870 C   0  0  0  0  0  0  0  0  0  0  0  0
   28.8110   48.8430   -4.2830 C   0  0  0  0  0  0  0  0  0  0  0  0
   29.5560   52.0210   -7.9460 C   0  0  0  0  0  0  0  0  0  0  0  0
   30.2410   46.8870   -5.5500 C   0  0  0  0  0  0  0  0  0  0  0  0
   28.8090   47.6010   -3.7400 N   0  0  0  0  0  0  0  0  0  0  0  0
   30.9780   45.7580   -6.1520 C   0  0  0  0  0  0  0  0  0  0  0  0
   29.5260   46.6510   -4.3860 C   0  0  0  0  0  0  0  0  0  0  0  0
   31.2010   44.7300   -5.3080 O   0  0  0  0  0  0  0  0  0  0  0  0
   31.3490   45.7560   -7.3130 O   0  0  0  0  0  0  0  0  0  0  0  0
  1  2  1  0
  2  3  2  0
  2  4  1  0
  4  5  2  0
  3  6  1  0
  5  7  1  0
  6  7  2  0
  7  8  1  0
  8  9  2  0
  8 10  2  0
  8 11  1  0
 11 12  1  0
 12 13  2  0
 12 14  1  0
 14 15  1  0
 14 16  2  0
 13 17  1  0
 15 18  2  0
 15 19  1  0
 16 20  1  0
 17 20  2  0
 18 21  1  0
 19 22  2  0
 21 23  1  0
 21 24  2  0
 22 24  1  0
 23 25  1  0
 23 26  2  0
M  END
