mac-x1493-mac-x0404
     RDKit          3D

 28 31  0  0  0  0  0  0  0  0999 V2000
   33.2950   50.9120   -3.4580 O   0  0  0  0  0  0  0  0  0  0  0  0
   32.2570   50.0620   -3.3820 C   0  0  0  0  0  0  0  0  0  0  0  0
   32.4070   48.8140   -3.0750 N   0  0  0  0  0  0  0  0  0  0  0  0
   31.0000   50.7730   -3.6930 C   0  0  0  0  0  0  0  0  0  0  0  0
   30.7420   51.1860   -4.9980 C   0  0  0  0  0  0  0  0  0  0  0  0
   30.0460   51.0690   -2.7360 C   0  0  0  0  0  0  0  0  0  0  0  0
   31.3970   47.8580   -2.9800 C   0  0  0  0  0  0  0  0  0  0  0  0
   29.5610   51.8790   -5.2990 C   0  0  0  0  0  0  0  0  0  0  0  0
   28.8890   51.7360   -2.9870 N   0  0  0  0  0  0  0  0  0  0  0  0
   30.4180   47.8900   -1.9830 C   0  0  0  0  0  0  0  0  0  0  0  0
   31.3820   46.8350   -3.9180 C   0  0  0  0  0  0  0  0  0  0  0  0
   28.6550   52.1360   -4.2500 C   0  0  0  0  0  0  0  0  0  0  0  0
   29.2730   52.3160   -6.6030 C   0  0  0  0  0  0  0  0  0  0  0  0
   30.4050   45.8480   -3.8710 C   0  0  0  0  0  0  0  0  0  0  0  0
   29.4210   46.9010   -1.9190 C   0  0  0  0  0  0  0  0  0  0  0  0
   30.4510   44.8620   -4.8310 O   0  0  0  0  0  0  0  0  0  0  0  0
   27.4890   52.8250   -4.5420 C   0  0  0  0  0  0  0  0  0  0  0  0
   28.0950   53.0070   -6.8700 C   0  0  0  0  0  0  0  0  0  0  0  0
   29.4040   45.8540   -2.8760 C   0  0  0  0  0  0  0  0  0  0  0  0
   28.4370   46.9320   -0.9170 C   0  0  0  0  0  0  0  0  0  0  0  0
   31.7740   44.3020   -4.9370 C   0  0  0  0  0  0  0  0  0  0  0  0
   27.2010   53.2630   -5.8380 C   0  0  0  0  0  0  0  0  0  0  0  0
   27.4500   45.9500   -0.8510 C   0  0  0  0  0  0  0  0  0  0  0  0
   28.3960   44.8730   -2.7890 C   0  0  0  0  0  0  0  0  0  0  0  0
   32.3490   44.6470   -6.2990 C   0  0  0  0  0  0  0  0  0  0  0  0
   27.4270   44.9200   -1.7860 C   0  0  0  0  0  0  0  0  0  0  0  0
   31.4090   44.7920   -7.2610 O   0  0  0  0  0  0  0  0  0  0  0  0
   33.5460   44.7830   -6.5270 O   0  0  0  0  0  0  0  0  0  0  0  0
  1  2  1  0
  2  3  2  3
  2  4  1  0
  4  5  2  0
  4  6  1  0
  3  7  1  0
  5  8  1  0
  6  9  2  0
  7 10  2  0
  7 11  1  0
  8 12  2  0
  9 12  1  0
  8 13  1  0
 11 14  2  0
 10 15  1  0
 14 16  1  0
 12 17  1  0
 13 18  2  0
 14 19  1  0
 15 19  2  0
 15 20  1  0
 16 21  1  0
 17 22  2  0
 18 22  1  0
 20 23  2  0
 19 24  1  0
 21 25  1  0
 23 26  1  0
 24 26  2  0
 25 27  1  0
 25 28  2  0
M  END
