mac-x0387-mac-x0159
     RDKit          3D

 18 20  0  0  0  0  0  0  0  0999 V2000
   28.2590   51.2120   -7.6240 N   0  0  0  0  0  0  0  0  0  0  0  0
   28.6630   49.8810   -7.4230 C   0  0  0  0  0  0  0  0  0  0  0  0
   28.4810   49.0630   -8.4710 N   0  0  0  0  0  0  0  0  0  0  0  0
   29.2210   49.4640   -6.1860 C   0  0  0  0  0  0  0  0  0  0  0  0
   29.6080   48.1050   -6.0500 C   0  0  0  0  0  0  0  0  0  0  0  0
   28.8540   47.7770   -8.3210 C   0  0  0  0  0  0  0  0  0  0  0  0
   29.4060   50.3390   -5.0930 C   0  0  0  0  0  0  0  0  0  0  0  0
   29.4080   47.2660   -7.1590 C   0  0  0  0  0  0  0  0  0  0  0  0
   30.1730   47.6640   -4.8100 C   0  0  0  0  0  0  0  0  0  0  0  0
   29.9560   49.9020   -3.8910 C   0  0  0  0  0  0  0  0  0  0  0  0
   30.6220   46.2430   -4.5480 C   0  0  0  0  0  0  0  0  0  0  0  0
   30.3360   48.5780   -3.7530 C   0  0  0  0  0  0  0  0  0  0  0  0
   29.6170   45.6390   -3.6180 C   0  0  0  0  0  0  0  0  0  0  0  0
   28.7810   44.5730   -3.8860 C   0  0  0  0  0  0  0  0  0  0  0  0
   29.4730   46.1720   -2.3400 N   0  0  0  0  0  0  0  0  0  0  0  0
   28.5490   45.5140   -1.6740 C   0  0  0  0  0  0  0  0  0  0  0  0
   27.8000   44.2260   -2.5270 S   0  0  0  0  0  0  0  0  0  0  0  0
   28.1380   45.8160   -0.2760 C   0  0  0  0  0  0  0  0  0  0  0  0
  1  2  1  0
  2  3  2  0
  2  4  1  0
  4  5  2  0
  3  6  1  0
  4  7  1  0
  5  8  1  0
  6  8  2  0
  5  9  1  0
  7 10  2  0
  9 11  1  0
  9 12  2  0
 10 12  1  0
 11 13  1  0
 13 14  2  0
 13 15  1  0
 15 16  2  0
 14 17  1  0
 16 17  1  0
 16 18  1  0
M  END
