mac-x0441-mac-x0564
     RDKit          3D

 32 36  0  0  0  0  0  0  0  0999 V2000
   34.6060   44.7490   -6.3910 O   0  0  0  0  0  0  0  0  0  0  0  0
   33.3070   44.8810   -6.0510 C   0  0  0  0  0  0  0  0  0  0  0  0
   32.4860   44.8040   -7.0390 N   0  0  0  0  0  0  0  0  0  0  0  0
   33.0900   45.0960   -4.5770 C   0  0  0  0  0  0  0  0  0  0  0  0
   31.0540   44.9420   -6.7620 C   0  0  0  0  0  0  0  0  0  0  0  0
   34.2800   44.8710   -3.7600 N   0  0  0  0  0  0  0  0  0  0  0  0
   30.7550   46.3490   -6.5800 N   0  0  0  0  0  0  0  0  0  0  0  0
   34.5030   43.6450   -3.2230 N   0  0  0  0  0  0  0  0  0  0  0  0
   35.2600   45.7690   -3.4350 C   0  0  0  0  0  0  0  0  0  0  0  0
   35.6600   43.7650   -2.5320 C   0  0  0  0  0  0  0  0  0  0  0  0
   36.1670   45.0910   -2.6430 C   0  0  0  0  0  0  0  0  0  0  0  0
   35.3480   47.2010   -3.8410 C   0  0  0  0  0  0  0  0  0  0  0  0
   30.4180   46.7850   -5.4140 C   0  0  0  0  0  0  0  0  0  0  0  0
   36.2860   42.6240   -1.7670 C   0  0  0  0  0  0  0  0  0  0  0  0
   37.3900   45.7270   -2.0790 C   0  0  0  0  0  0  0  0  0  0  0  0
   36.3840   47.9190   -2.9590 C   0  0  0  0  0  0  0  0  0  0  0  0
   30.0910   48.1230   -4.9810 C   0  0  0  0  0  0  0  0  0  0  0  0
   30.3530   45.8550   -4.3830 N   0  0  0  0  0  0  0  0  0  0  0  0
   37.3740   42.1120   -2.4160 F   0  0  0  0  0  0  0  0  0  0  0  0
   36.7080   42.9590   -0.5110 F   0  0  0  0  0  0  0  0  0  0  0  0
   35.4110   41.5870   -1.6170 F   0  0  0  0  0  0  0  0  0  0  0  0
   37.6670   47.0850   -2.7560 C   0  0  0  0  0  0  0  0  0  0  0  0
   30.1290   48.5100   -3.6620 C   0  0  0  0  0  0  0  0  0  0  0  0
   30.3880   46.3020   -3.1600 C   0  0  0  0  0  0  0  0  0  0  0  0
   29.7120   49.1670   -5.7710 O   0  0  0  0  0  0  0  0  0  0  0  0
   30.4800   47.6090   -2.7260 N   0  0  0  0  0  0  0  0  0  0  0  0
   29.5120   50.2300   -4.9240 C   0  0  0  0  0  0  0  0  0  0  0  0
   29.7590   49.8670   -3.5940 C   0  0  0  0  0  0  0  0  0  0  0  0
   29.6040   50.8400   -2.5850 C   0  0  0  0  0  0  0  0  0  0  0  0
   29.1130   51.5060   -5.3190 C   0  0  0  0  0  0  0  0  0  0  0  0
   29.2020   52.1340   -2.9570 C   0  0  0  0  0  0  0  0  0  0  0  0
   28.9620   52.4590   -4.3000 C   0  0  0  0  0  0  0  0  0  0  0  0
  1  2  1  0
  2  3  2  3
  2  4  1  0
  3  5  1  0
  4  6  1  0
  5  7  1  0
  6  8  1  0
  6  9  1  0
  8 10  2  0
  9 11  2  0
 10 11  1  0
  9 12  1  0
  7 13  2  3
 10 14  1  0
 11 15  1  0
 12 16  1  0
 13 17  1  0
 13 18  1  0
 14 19  1  0
 14 20  1  0
 14 21  1  0
 15 22  1  0
 16 22  1  0
 17 23  2  0
 18 24  2  0
 17 25  1  0
 23 26  1  0
 24 26  1  0
 25 27  1  0
 23 28  1  0
 27 28  2  0
 28 29  1  0
 27 30  1  0
 29 31  2  0
 30 32  2  0
 31 32  1  0
M  END
