mac-x0282-mac-x0193
     RDKit          3D

 25 27  0  0  0  0  0  0  0  0999 V2000
   33.8850   45.7760   -6.2510 O   0  0  0  0  0  0  0  0  0  0  0  0
   32.8760   45.1390   -5.6260 C   0  0  0  0  0  0  0  0  0  0  0  0
   31.7690   45.0210   -6.2530 N   0  0  0  0  0  0  0  0  0  0  0  0
   33.1920   44.6490   -4.2360 C   0  0  0  0  0  0  0  0  0  0  0  0
   34.6040   44.5740   -3.9550 N   0  0  0  0  0  0  0  0  0  0  0  0
   31.5220   45.5380   -7.5880 C   0  0  0  0  0  0  0  0  0  0  0  0
   34.9970   43.6560   -3.0270 C   0  0  0  0  0  0  0  0  0  0  0  0
   30.0020   45.7410   -7.7020 C   0  0  0  0  0  0  0  0  0  0  0  0
   34.3740   42.6270   -2.7940 O   0  0  0  0  0  0  0  0  0  0  0  0
   36.1540   44.0150   -2.3930 N   0  0  0  0  0  0  0  0  0  0  0  0
   29.5930   47.1650   -7.4280 C   0  0  0  0  0  0  0  0  0  0  0  0
   29.7860   47.7770   -6.1740 C   0  0  0  0  0  0  0  0  0  0  0  0
   29.0070   47.9130   -8.4410 C   0  0  0  0  0  0  0  0  0  0  0  0
   36.9540   43.0010   -1.7320 C   0  0  0  0  0  0  0  0  0  0  0  0
   29.3770   49.1160   -6.0290 C   0  0  0  0  0  0  0  0  0  0  0  0
   28.5950   49.1970   -8.3500 N   0  0  0  0  0  0  0  0  0  0  0  0
   38.0450   42.4690   -2.6640 C   0  0  0  0  0  0  0  0  0  0  0  0
   37.5230   43.5210   -0.4020 C   0  0  0  0  0  0  0  0  0  0  0  0
   29.3860   50.0830   -4.9860 C   0  0  0  0  0  0  0  0  0  0  0  0
   28.8080   49.7310   -7.1370 C   0  0  0  0  0  0  0  0  0  0  0  0
   38.9750   41.4810   -1.9650 C   0  0  0  0  0  0  0  0  0  0  0  0
   38.4340   42.5170    0.3030 C   0  0  0  0  0  0  0  0  0  0  0  0
   28.8320   51.2430   -5.4890 C   0  0  0  0  0  0  0  0  0  0  0  0
   28.4870   51.0140   -6.7940 N   0  0  0  0  0  0  0  0  0  0  0  0
   39.5190   41.9890   -0.6260 C   0  0  0  0  0  0  0  0  0  0  0  0
  1  2  1  0
  2  3  2  3
  2  4  1  0
  4  5  1  0
  3  6  1  0
  5  7  1  0
  6  8  1  0
  7  9  2  0
  7 10  1  0
  8 11  1  0
 11 12  2  0
 11 13  1  0
 10 14  1  0
 12 15  1  0
 13 16  2  0
 14 17  1  0
 14 18  1  0
 15 19  1  0
 15 20  2  0
 16 20  1  0
 17 21  1  0
 18 22  1  0
 19 23  2  0
 20 24  1  0
 23 24  1  0
 21 25  1  0
 22 25  1  0
M  END
