mac-x0337-mac-x0178
     RDKit          3D

 25 26  0  0  0  0  0  0  0  0999 V2000
   35.4410   52.3570   -4.7380 C   0  0  0  0  0  0  0  0  0  0  0  0
   34.0130   51.9140   -4.8610 C   0  0  0  0  0  0  0  0  0  0  0  0
   32.9690   52.8140   -4.5990 C   0  0  0  0  0  0  0  0  0  0  0  0
   33.7070   50.6000   -5.2410 C   0  0  0  0  0  0  0  0  0  0  0  0
   32.3800   50.1870   -5.3570 C   0  0  0  0  0  0  0  0  0  0  0  0
   31.6390   52.4070   -4.7130 C   0  0  0  0  0  0  0  0  0  0  0  0
   31.3520   51.0930   -5.0920 C   0  0  0  0  0  0  0  0  0  0  0  0
   29.6730   50.5660   -5.2410 S   0  0  2  0  0  0  0  0  0  0  0  0
   29.3140   49.5830   -4.1260 N   0  0  0  0  0  0  0  0  0  0  0  0
   29.3340   50.4430   -6.6380 O   0  0  0  0  0  0  0  0  0  0  0  0
   28.6770   51.8280   -4.7650 N   0  0  0  0  0  0  0  0  0  0  0  0
   30.3750   49.0090   -3.2700 C   0  0  0  0  0  0  0  0  0  0  0  0
   30.4640   47.4970   -3.4400 C   0  0  0  0  0  0  0  0  0  0  0  0
   29.9970   46.5710   -2.4770 C   0  0  0  0  0  0  0  0  0  0  0  0
   31.0470   46.9740   -4.6200 C   0  0  0  0  0  0  0  0  0  0  0  0
   29.2540   47.1390   -0.9660 S   0  0  0  0  0  0  0  0  0  0  0  0
   30.1100   45.1900   -2.6980 C   0  0  0  0  0  0  0  0  0  0  0  0
   31.1600   45.5950   -4.8410 C   0  0  0  0  0  0  0  0  0  0  0  0
   29.0360   45.7660   -0.0270 N   0  0  0  0  0  0  0  0  0  0  0  0
   30.2390   47.9290   -0.2630 O   0  0  0  0  0  0  0  0  0  0  0  0
   27.9300   47.6240   -1.2700 O   0  0  0  0  0  0  0  0  0  0  0  0
   31.7830   45.1270   -6.1070 C   0  0  0  0  0  0  0  0  0  0  0  0
   30.6890   44.7050   -3.8750 C   0  0  0  0  0  0  0  0  0  0  0  0
   31.2120   44.9700   -7.1700 O   0  0  0  0  0  0  0  0  0  0  0  0
   33.0980   44.8770   -5.9810 O   0  0  0  0  0  0  0  0  0  0  0  0
  1  2  1  0
  2  3  2  0
  2  4  1  0
  4  5  2  0
  3  6  1  0
  5  7  1  0
  6  7  2  0
  7  8  1  0
  8  9  2  0
  8 10  2  0
  8 11  1  1
  9 12  1  0
 12 13  1  0
 13 14  2  0
 13 15  1  0
 14 16  1  0
 14 17  1  0
 15 18  2  0
 16 19  1  0
 16 20  2  0
 16 21  2  0
 18 22  1  0
 17 23  2  0
 18 23  1  0
 22 24  2  0
 22 25  1  0
M  END
