mac-x0567-mac-x0404
     RDKit          3D

 27 30  0  0  0  0  0  0  0  0999 V2000
   29.5720   46.6050   -6.4140 N   0  0  0  0  0  0  0  0  0  0  0  0
   29.5820   47.9420   -6.5870 C   0  0  0  0  0  0  0  0  0  0  0  0
   29.9290   48.5320   -7.7600 N   0  0  0  0  0  0  0  0  0  0  0  0
   29.3010   48.9720   -5.7520 C   0  0  0  0  0  0  0  0  0  0  0  0
   30.3510   47.7780   -8.9210 C   0  0  0  0  0  0  0  0  0  0  0  0
   29.8620   49.8960   -7.7540 N   0  0  0  0  0  0  0  0  0  0  0  0
   29.4760   50.1940   -6.4940 C   0  0  0  0  0  0  0  0  0  0  0  0
   28.9220   48.8360   -4.4260 C   0  0  0  0  0  0  0  0  0  0  0  0
   31.5460   46.8560   -8.5470 C   0  0  0  0  0  0  0  0  0  0  0  0
   29.2490   51.4340   -5.8710 C   0  0  0  0  0  0  0  0  0  0  0  0
   28.7100   50.0870   -3.8280 C   0  0  0  0  0  0  0  0  0  0  0  0
   31.4130   46.1360   -7.2780 O   0  0  0  0  0  0  0  0  0  0  0  0
   28.8640   51.3300   -4.5130 C   0  0  0  0  0  0  0  0  0  0  0  0
   32.5430   45.9120   -6.5120 C   0  0  0  0  0  0  0  0  0  0  0  0
   33.6270   46.4500   -6.7160 O   0  0  0  0  0  0  0  0  0  0  0  0
   32.3260   44.9090   -5.3710 C   0  0  0  0  0  0  0  0  0  0  0  0
   31.0670   45.0550   -4.7140 O   0  0  0  0  0  0  0  0  0  0  0  0
   30.9670   45.8880   -3.6140 C   0  0  0  0  0  0  0  0  0  0  0  0
   29.8410   45.6790   -2.7710 C   0  0  0  0  0  0  0  0  0  0  0  0
   31.8890   46.8950   -3.3040 C   0  0  0  0  0  0  0  0  0  0  0  0
   29.6670   46.5000   -1.6280 C   0  0  0  0  0  0  0  0  0  0  0  0
   31.7070   47.6950   -2.1750 C   0  0  0  0  0  0  0  0  0  0  0  0
   28.8710   44.6810   -3.0170 C   0  0  0  0  0  0  0  0  0  0  0  0
   30.6060   47.5000   -1.3470 C   0  0  0  0  0  0  0  0  0  0  0  0
   28.5580   46.3080   -0.7870 C   0  0  0  0  0  0  0  0  0  0  0  0
   27.7750   44.5010   -2.1710 C   0  0  0  0  0  0  0  0  0  0  0  0
   27.6180   45.3150   -1.0570 C   0  0  0  0  0  0  0  0  0  0  0  0
  1  2  1  0
  2  3  1  0
  2  4  2  0
  3  5  1  0
  3  6  1  0
  4  7  1  0
  6  7  2  0
  4  8  1  0
  5  9  1  0
  7 10  1  0
  8 11  2  0
  9 12  1  0
 10 13  2  0
 11 13  1  0
 12 14  1  0
 14 15  2  0
 14 16  1  0
 16 17  1  0
 17 18  1  0
 18 19  1  0
 18 20  2  0
 19 21  2  0
 20 22  1  0
 19 23  1  0
 21 24  1  0
 22 24  2  0
 21 25  1  0
 23 26  2  0
 25 27  2  0
 26 27  1  0
M  END
