mac-x0123-mac-x0412
     RDKit          3D

 14 16  0  0  0  0  0  0  0  0999 V2000
   28.5470   51.5800   -7.3110 N   0  0  0  0  0  0  0  0  0  0  0  0
   28.9670   52.2230   -6.1590 C   0  0  0  0  0  0  0  0  0  0  0  0
   28.9710   53.5580   -6.0070 C   0  0  0  0  0  0  0  0  0  0  0  0
   29.4230   51.4200   -5.0730 N   0  0  0  0  0  0  0  0  0  0  0  0
   29.8640   51.9620   -3.8770 C   0  0  0  0  0  0  0  0  0  0  0  0
   29.4430   54.1310   -4.7280 C   0  0  0  0  0  0  0  0  0  0  0  0
   28.5860   54.7070   -6.8750 C   0  0  0  0  0  0  0  0  0  0  0  0
   29.5100   50.0630   -4.9980 N   0  0  0  0  0  0  0  0  0  0  0  0
   29.8670   53.4340   -3.7080 N   0  0  0  0  0  0  0  0  0  0  0  0
   29.3870   55.6150   -4.7120 C   0  0  0  0  0  0  0  0  0  0  0  0
   29.3060   55.8980   -6.2200 C   0  0  0  0  0  0  0  0  0  0  0  0
   30.2280   51.0090   -3.0440 N   0  0  0  0  0  0  0  0  0  0  0  0
   29.9950   49.8800   -3.7680 C   0  0  0  0  0  0  0  0  0  0  0  0
   30.2660   53.9530   -2.6210 O   0  0  0  0  0  0  0  0  0  0  0  0
  1  2  1  0
  2  3  2  0
  2  4  1  0
  4  5  1  0
  3  6  1  0
  3  7  1  0
  4  8  1  0
  5  9  1  0
  6  9  2  0
  6 10  1  0
  7 11  1  0
 10 11  1  0
  5 12  2  0
  8 13  2  0
 12 13  1  0
  9 14  1  0
M  CHG  2   9   1  14  -1
M  END
