mac-x0411-mac-x0546
     RDKit          3D

 24 26  0  0  0  0  0  0  0  0999 V2000
   36.1060   43.8870   -2.9050 Cl  0  0  0  0  0  0  0  0  0  0  0  0
   36.0580   45.5980   -3.1560 C   0  0  0  0  0  0  0  0  0  0  0  0
   34.8560   46.3250   -3.2350 C   0  0  0  0  0  0  0  0  0  0  0  0
   37.2880   46.2550   -3.2780 C   0  0  0  0  0  0  0  0  0  0  0  0
   33.6090   45.7620   -3.1220 O   0  0  0  0  0  0  0  0  0  0  0  0
   34.9230   47.7160   -3.4330 C   0  0  0  0  0  0  0  0  0  0  0  0
   37.3380   47.6350   -3.4760 C   0  0  0  0  0  0  0  0  0  0  0  0
   33.4910   48.6840   -3.5310 Cl  0  0  0  0  0  0  0  0  0  0  0  0
   33.1410   44.8560   -4.1270 C   0  0  2  0  0  0  0  0  0  0  0  0
   36.1540   48.3650   -3.5530 C   0  0  0  0  0  0  0  0  0  0  0  0
   33.2300   45.1610   -5.6680 C   0  0  0  0  0  0  0  0  0  0  0  0
   31.7220   44.5810   -3.7060 C   0  0  0  0  0  0  0  0  0  0  0  0
   32.0810   45.6690   -6.2060 O   0  0  0  0  0  0  0  0  0  0  0  0
   34.2070   44.9790   -6.3810 O   0  0  0  0  0  0  0  0  0  0  0  0
   30.7810   45.6920   -3.3410 C   0  0  2  0  0  0  0  0  0  0  0  0
   31.0750   43.4100   -3.5840 C   0  0  0  0  0  0  0  0  0  0  0  0
   31.0150   46.5680   -2.1500 C   0  0  0  0  0  0  0  0  0  0  0  0
   29.5990   44.7970   -3.0100 C   0  0  0  0  0  0  0  0  0  0  0  0
   29.7740   43.5200   -3.1620 N   0  0  0  0  0  0  0  0  0  0  0  0
   29.9590   46.9600   -1.3960 C   0  0  0  0  0  0  0  0  0  0  0  0
   28.3730   45.4610   -2.5410 C   0  0  0  0  0  0  0  0  0  0  0  0
   29.9780   47.7610   -0.2800 O   0  0  0  0  0  0  0  0  0  0  0  0
   28.6100   46.5230   -1.7510 C   0  0  0  0  0  0  0  0  0  0  0  0
   30.7620   48.9490   -0.3400 C   0  0  0  0  0  0  0  0  0  0  0  0
  1  2  1  0
  2  3  2  0
  2  4  1  0
  3  5  1  0
  3  6  1  0
  4  7  2  0
  6  8  1  0
  9  5  1  1
  6 10  2  0
  7 10  1  0
  9 11  1  0
  9 12  1  0
 11 13  1  0
 11 14  2  0
 12 15  1  0
 12 16  2  0
 15 17  1  1
 15 18  1  0
 16 19  1  0
 18 19  2  0
 17 20  2  0
 18 21  1  0
 20 22  1  0
 20 23  1  0
 21 23  2  0
 22 24  1  0
M  END
