mac-x0441-mac-x0415
     RDKit          3D

 27 30  0  0  0  0  0  0  0  0999 V2000
   34.1640   45.1660   -6.3090 O   0  0  0  0  0  0  0  0  0  0  0  0
   32.9020   45.1210   -5.8220 C   0  0  0  0  0  0  0  0  0  0  0  0
   31.9870   44.9640   -6.6140 O   0  0  0  0  0  0  0  0  0  0  0  0
   32.8150   45.2960   -4.3160 C   0  0  2  0  0  0  0  0  0  0  0  0
   34.0760   45.0330   -3.6050 N   0  0  0  0  0  0  0  0  0  0  0  0
   31.5160   44.8380   -3.6010 C   0  0  2  0  0  0  0  0  0  0  0  0
   34.2880   43.7910   -3.0900 N   0  0  0  0  0  0  0  0  0  0  0  0
   35.1320   45.8690   -3.3550 C   0  0  0  0  0  0  0  0  0  0  0  0
   30.4430   44.0400   -4.3790 C   0  0  0  0  0  0  0  0  0  0  0  0
   30.6160   45.9100   -3.0460 C   0  0  1  0  0  0  0  0  0  0  0  0
   35.5040   43.8430   -2.4980 C   0  0  0  0  0  0  0  0  0  0  0  0
   36.0620   45.1340   -2.6470 C   0  0  0  0  0  0  0  0  0  0  0  0
   35.3020   47.2960   -3.7380 C   0  0  0  0  0  0  0  0  0  0  0  0
   29.1840   44.2190   -3.5940 N   0  0  0  0  0  0  0  0  0  0  0  0
   29.5510   45.0080   -2.4210 C   0  0  2  0  0  0  0  0  0  0  0  0
   31.1500   46.8900   -2.0230 C   0  0  0  0  0  0  0  0  0  0  0  0
   36.1420   42.6720   -1.7900 C   0  0  0  0  0  0  0  0  0  0  0  0
   37.3690   45.6840   -2.1780 C   0  0  0  0  0  0  0  0  0  0  0  0
   36.3750   47.9430   -2.8430 C   0  0  0  0  0  0  0  0  0  0  0  0
   28.4950   45.8040   -1.7190 C   0  0  0  0  0  0  0  0  0  0  0  0
   29.9930   47.8210   -1.6560 C   0  0  2  0  0  0  0  0  0  0  0  0
   37.2270   42.1620   -2.4310 F   0  0  0  0  0  0  0  0  0  0  0  0
   36.5590   43.0140   -0.5380 F   0  0  0  0  0  0  0  0  0  0  0  0
   35.2680   41.6400   -1.6230 F   0  0  0  0  0  0  0  0  0  0  0  0
   30.5030   48.9320   -0.1390 Br  0  0  0  0  0  0  0  0  0  0  0  0
   37.6450   47.0760   -2.7740 C   0  0  0  0  0  0  0  0  0  0  0  0
   28.7040   47.0920   -1.3650 C   0  0  0  0  0  0  0  0  0  0  0  0
  1  2  1  0
  2  3  2  0
  4  2  1  6
  4  5  1  0
  4  6  1  0
  5  7  1  0
  5  8  1  0
  6  9  1  6
  6 10  1  0
  7 11  2  0
  8 12  2  0
 11 12  1  0
  8 13  1  0
  9 14  1  0
 10 15  1  0
 14 15  1  0
 10 16  1  1
 11 17  1  0
 12 18  1  0
 13 19  1  0
 15 20  1  6
 16 21  1  0
 17 22  1  0
 17 23  1  0
 17 24  1  0
 21 25  1  1
 18 26  1  0
 19 26  1  0
 20 27  2  0
 21 27  1  0
M  END
