mac-x0179-mac-x0338
     RDKit          3D

 26 28  0  0  0  0  0  0  0  0999 V2000
   31.7590   45.6370   -5.6270 O   0  0  0  0  0  0  0  0  0  0  0  0
   32.9340   45.5960   -4.9580 C   0  0  0  0  0  0  0  0  0  0  0  0
   33.9920   45.9120   -5.4900 O   0  0  0  0  0  0  0  0  0  0  0  0
   32.8270   45.1250   -3.5160 C   0  0  0  0  0  0  0  0  0  0  0  0
   33.9350   45.6120   -2.7070 N   0  0  0  0  0  0  0  0  0  0  0  0
   34.7090   44.7170   -2.0160 C   0  0  0  0  0  0  0  0  0  0  0  0
   34.2620   46.8880   -2.3340 C   0  0  0  0  0  0  0  0  0  0  0  0
   34.4700   43.5340   -1.8320 O   0  0  0  0  0  0  0  0  0  0  0  0
   33.6260   47.9930   -2.4260 N   0  0  0  0  0  0  0  0  0  0  0  0
   35.8790   45.4430   -1.5420 C   0  0  0  0  0  0  0  0  0  0  0  0
   35.6110   46.7880   -1.7390 C   0  0  0  0  0  0  0  0  0  0  0  0
   32.2930   48.0890   -3.0150 C   0  0  0  0  0  0  0  0  0  0  0  0
   37.0630   44.9900   -0.9940 C   0  0  0  0  0  0  0  0  0  0  0  0
   36.5350   47.7630   -1.3920 C   0  0  0  0  0  0  0  0  0  0  0  0
   31.5170   49.3100   -2.4960 C   0  0  0  0  0  0  0  0  0  0  0  0
   38.0080   45.9560   -0.6360 C   0  0  0  0  0  0  0  0  0  0  0  0
   37.7460   47.3300   -0.8350 C   0  0  0  0  0  0  0  0  0  0  0  0
   30.7500   50.1070   -3.5250 C   0  0  0  0  0  0  0  0  0  0  0  0
   30.2390   49.5690   -4.7070 C   0  0  0  0  0  0  0  0  0  0  0  0
   30.5770   51.4290   -3.2430 N   0  0  0  0  0  0  0  0  0  0  0  0
   29.5650   50.2950   -5.6330 N   0  0  0  0  0  0  0  0  0  0  0  0
   29.9050   52.1570   -4.1690 C   0  0  0  0  0  0  0  0  0  0  0  0
   29.4100   51.6080   -5.3440 C   0  0  0  0  0  0  0  0  0  0  0  0
   28.6910   52.4550   -6.3350 C   0  0  0  0  0  0  0  0  0  0  0  0
   28.2770   51.8560   -7.5050 N   0  0  0  0  0  0  0  0  0  0  0  0
   28.4670   53.6430   -6.1480 O   0  0  0  0  0  0  0  0  0  0  0  0
  1  2  1  0
  2  3  2  0
  2  4  1  0
  4  5  1  0
  5  6  1  0
  5  7  1  0
  6  8  2  0
  7  9  2  3
  6 10  1  0
  7 11  1  0
 10 11  2  0
  9 12  1  0
 10 13  1  0
 11 14  1  0
 12 15  1  0
 13 16  2  0
 14 17  2  0
 16 17  1  0
 15 18  1  0
 18 19  2  0
 18 20  1  0
 19 21  1  0
 20 22  2  0
 21 23  2  0
 22 23  1  0
 23 24  1  0
 24 25  1  0
 24 26  2  0
M  END
