mac-x0255-mac-x0555
     RDKit          3D

 26 29  0  0  0  0  0  0  0  0999 V2000
   31.7980   45.2520   -8.1020 O   0  0  0  0  0  0  0  0  0  0  0  0
   32.6000   45.6160   -7.0680 C   0  0  0  0  0  0  0  0  0  0  0  0
   33.3290   46.6000   -7.1330 O   0  0  0  0  0  0  0  0  0  0  0  0
   32.5220   44.7140   -5.8520 C   0  0  0  0  0  0  0  0  0  0  0  0
   31.4640   45.1720   -4.8870 C   0  0  0  0  0  0  0  0  0  0  0  0
   30.1690   44.7190   -4.7660 C   0  0  0  0  0  0  0  0  0  0  0  0
   31.8010   46.3990   -3.7570 S   0  0  0  0  0  0  0  0  0  0  0  0
   29.4330   45.3840   -3.7280 C   0  0  0  0  0  0  0  0  0  0  0  0
   30.2090   46.3480   -3.0750 C   0  0  0  0  0  0  0  0  0  0  0  0
   28.0950   45.1940   -3.3070 C   0  0  0  0  0  0  0  0  0  0  0  0
   29.6870   47.1330   -2.0110 C   0  0  0  0  0  0  0  0  0  0  0  0
   30.4730   48.1920   -1.2670 C   0  0  0  0  0  0  0  0  0  0  0  0
   27.5640   45.9510   -2.2670 C   0  0  0  0  0  0  0  0  0  0  0  0
   28.3490   46.9030   -1.6330 C   0  0  0  0  0  0  0  0  0  0  0  0
   29.7190   49.5260   -1.1430 C   0  0  0  0  0  0  0  0  0  0  0  0
   29.5680   50.2490   -2.4610 C   0  0  0  0  0  0  0  0  0  0  0  0
   29.7240   51.6440   -2.5170 C   0  0  0  0  0  0  0  0  0  0  0  0
   29.2730   49.5550   -3.6370 C   0  0  0  0  0  0  0  0  0  0  0  0
   29.5960   52.3530   -3.7050 C   0  0  0  0  0  0  0  0  0  0  0  0
   29.1390   50.2420   -4.8420 C   0  0  0  0  0  0  0  0  0  0  0  0
   29.2990   51.6380   -4.8850 C   0  0  0  0  0  0  0  0  0  0  0  0
   29.7570   53.6870   -3.6960 N   0  0  0  0  0  0  0  0  0  0  0  0
   29.1700   52.3600   -6.0820 C   0  0  0  0  0  0  0  0  0  0  0  0
   29.6240   54.3430   -4.8760 C   0  0  0  0  0  0  0  0  0  0  0  0
   29.3330   53.7410   -6.0960 C   0  0  0  0  0  0  0  0  0  0  0  0
   29.2080   54.4730   -7.2830 N   0  0  0  0  0  0  0  0  0  0  0  0
  1  2  1  0
  2  3  2  0
  2  4  1  0
  4  5  1  0
  5  6  2  0
  5  7  1  0
  6  8  1  0
  7  9  1  0
  8  9  2  0
  8 10  1  0
  9 11  1  0
 11 12  1  0
 10 13  2  0
 11 14  2  0
 13 14  1  0
 12 15  1  0
 15 16  1  0
 16 17  2  0
 16 18  1  0
 17 19  1  0
 18 20  2  0
 19 21  2  0
 20 21  1  0
 19 22  1  0
 21 23  1  0
 22 24  2  0
 23 25  2  0
 24 25  1  0
 25 26  1  0
M  END
