mac-x0190-mac-x0188
     RDKit          3D

 19 21  0  0  0  0  0  0  0  0999 V2000
   28.7180   56.0990   -5.3950 O   0  0  0  0  0  0  0  0  0  0  0  0
   29.8900   55.5180   -4.8270 C   0  0  0  0  0  0  0  0  0  0  0  0
   29.7470   54.0220   -4.8430 C   0  0  0  0  0  0  0  0  0  0  0  0
   30.7730   53.1840   -4.4180 N   0  0  0  0  0  0  0  0  0  0  0  0
   28.7060   53.3040   -5.2320 N   0  0  0  0  0  0  0  0  0  0  0  0
   30.3460   51.8720   -4.5530 C   0  0  0  0  0  0  0  0  0  0  0  0
   29.0860   51.9940   -5.0390 C   0  0  0  0  0  0  0  0  0  0  0  0
   31.0690   50.5530   -4.2500 C   0  0  0  0  0  0  0  0  0  0  0  0
   28.3210   50.8270   -5.2810 C   0  0  0  0  0  0  0  0  0  0  0  0
   30.1220   49.2300   -4.2490 C   0  0  2  0  0  0  0  0  0  0  0  0
   28.7580   49.5680   -4.9200 C   0  0  0  0  0  0  0  0  0  0  0  0
   30.1150   48.7430   -2.8160 N   0  0  0  0  0  0  0  0  0  0  0  0
   30.5250   47.7390   -4.6530 C   0  0  1  0  0  0  0  0  0  0  0  0
   30.4000   47.1330   -6.0290 C   0  0  0  0  0  0  0  0  0  0  0  0
   31.7570   47.3820   -3.8760 C   0  0  1  0  0  0  0  0  0  0  0  0
   31.3390   47.8800   -2.5960 O   0  0  0  0  0  0  0  0  0  0  0  0
   32.0610   45.8750   -3.8320 C   0  0  0  0  0  0  0  0  0  0  0  0
   29.4020   46.5470   -6.4240 O   0  0  0  0  0  0  0  0  0  0  0  0
   31.4710   47.2110   -6.8360 O   0  0  0  0  0  0  0  0  0  0  0  0
  1  2  1  0
  2  3  1  0
  3  4  1  0
  3  5  2  0
  4  6  1  0
  5  7  1  0
  6  7  2  0
  6  8  1  0
  7  9  1  0
 10  8  1  1
  9 11  2  0
 10 11  1  0
 10 12  1  0
 10 13  1  0
 13 14  1  6
 13 15  1  0
 12 16  1  0
 15 16  1  0
 15 17  1  1
 14 18  2  0
 14 19  1  0
M  END
