mac-x0228-mac-x0380
     RDKit          3D

 15 16  0  0  0  0  0  0  0  0999 V2000
   30.2350   47.8940   -5.5250 O   0  0  0  0  0  0  0  0  0  0  0  0
   30.2050   48.4260   -4.2140 C   0  0  0  0  0  0  0  0  0  0  0  0
   31.4520   48.0970   -3.6300 O   0  0  0  0  0  0  0  0  0  0  0  0
   29.0470   47.7590   -3.4500 C   0  0  0  0  0  0  0  0  0  0  0  0
   30.0320   49.9360   -4.2410 C   0  0  0  0  0  0  0  0  0  0  0  0
   29.2160   46.8130   -2.6810 O   0  0  0  0  0  0  0  0  0  0  0  0
   29.7080   50.6170   -5.4320 C   0  0  0  0  0  0  0  0  0  0  0  0
   30.1970   50.6910   -3.0510 C   0  0  0  0  0  0  0  0  0  0  0  0
   29.5620   51.9960   -5.3970 C   0  0  0  0  0  0  0  0  0  0  0  0
   30.0460   52.0820   -3.0370 C   0  0  0  0  0  0  0  0  0  0  0  0
   29.7280   52.7040   -4.2250 C   0  0  0  0  0  0  0  0  0  0  0  0
   29.2320   52.9520   -6.4660 C   0  0  0  0  0  0  0  0  0  0  0  0
   29.5490   54.0700   -4.3550 O   0  0  0  0  0  0  0  0  0  0  0  0
   29.1790   54.2560   -5.6880 C   0  0  0  0  0  0  0  0  0  0  0  0
   28.8570   55.3390   -6.1550 O   0  0  0  0  0  0  0  0  0  0  0  0
  2  1  1  0
  2  3  1  0
  2  4  1  0
  2  5  1  0
  4  6  2  0
  5  7  2  0
  5  8  1  0
  7  9  1  0
  8 10  2  0
  9 11  2  0
 10 11  1  0
  9 12  1  0
 11 13  1  0
 12 14  1  0
 13 14  1  0
 14 15  2  0
M  END
