mac-x0341-mac-x0346
     RDKit          3D

 16 17  0  0  0  0  0  0  0  0999 V2000
   28.1600   54.4310   -8.2100 N   0  0  0  0  0  0  0  0  0  0  0  0
   28.5200   53.4330   -7.3360 C   0  0  0  0  0  0  0  0  0  0  0  0
   28.4400   52.1760   -7.7720 N   0  0  0  0  0  0  0  0  0  0  0  0
   28.9240   53.7850   -6.1230 N   0  0  0  0  0  0  0  0  0  0  0  0
   29.2770   52.7670   -5.2870 C   0  0  0  0  0  0  0  0  0  0  0  0
   28.7880   51.1890   -6.9380 C   0  0  0  0  0  0  0  0  0  0  0  0
   29.7210   53.2810   -3.9460 C   0  0  0  0  0  0  0  0  0  0  0  0
   29.2350   51.4040   -5.6280 C   0  0  0  0  0  0  0  0  0  0  0  0
   28.6950   49.8860   -7.4210 C   0  0  0  0  0  0  0  0  0  0  0  0
   30.5580   54.3800   -4.0100 N   0  0  0  0  0  0  0  0  0  0  0  0
   29.3800   52.7910   -2.8670 O   0  0  0  0  0  0  0  0  0  0  0  0
   29.0320   48.7770   -6.6400 C   0  0  0  0  0  0  0  0  0  0  0  0
   29.5760   50.2610   -4.8410 C   0  0  0  0  0  0  0  0  0  0  0  0
   30.1810   55.4700   -3.1850 O   0  0  0  0  0  0  0  0  0  0  0  0
   30.0170   50.4200   -3.5580 O   0  0  0  0  0  0  0  0  0  0  0  0
   29.4750   48.9670   -5.3420 C   0  0  0  0  0  0  0  0  0  0  0  0
  1  2  1  0
  2  3  2  0
  2  4  1  0
  4  5  2  0
  3  6  1  0
  5  7  1  0
  5  8  1  0
  6  8  2  0
  6  9  1  0
  7 10  1  0
  7 11  2  0
  9 12  2  0
  8 13  1  0
 10 14  1  0
 13 15  1  0
 12 16  1  0
 13 16  2  0
M  END
