mac-x0344-mac-x0223
     RDKit          3D

 21 22  0  0  0  0  0  0  0  0999 V2000
   31.9510   43.8290   -4.5020 O   0  0  0  0  0  0  0  0  0  0  0  0
   31.9070   45.2160   -4.7720 C   0  0  0  0  0  0  0  0  0  0  0  0
   31.3920   45.3370   -6.0910 O   0  0  0  0  0  0  0  0  0  0  0  0
   33.3590   45.8450   -4.7570 C   0  0  0  0  0  0  0  0  0  0  0  0
   30.9590   45.8470   -3.7360 C   0  0  0  0  0  0  0  0  0  0  0  0
   33.7660   46.4710   -5.7380 O   0  0  0  0  0  0  0  0  0  0  0  0
   34.0550   45.6090   -3.5870 N   0  0  0  0  0  0  0  0  0  0  0  0
   31.1940   47.1100   -3.1490 C   0  0  0  0  0  0  0  0  0  0  0  0
   29.7920   45.1430   -3.3410 C   0  0  0  0  0  0  0  0  0  0  0  0
   35.2020   46.2840   -3.1310 C   0  0  0  0  0  0  0  0  0  0  0  0
   28.8950   45.6760   -2.4070 C   0  0  0  0  0  0  0  0  0  0  0  0
   30.3000   47.6480   -2.2150 C   0  0  0  0  0  0  0  0  0  0  0  0
   27.7390   45.0890   -1.9570 O   0  0  0  0  0  0  0  0  0  0  0  0
   36.1910   45.5210   -2.4960 C   0  0  0  0  0  0  0  0  0  0  0  0
   35.4000   47.6570   -3.2790 C   0  0  0  0  0  0  0  0  0  0  0  0
   29.1670   46.9310   -1.8560 C   0  0  0  0  0  0  0  0  0  0  0  0
   27.6060   43.6900   -2.1840 C   0  0  0  0  0  0  0  0  0  0  0  0
   28.3080   47.4830   -0.9420 O   0  0  0  0  0  0  0  0  0  0  0  0
   37.3580   46.1240   -2.0180 C   0  0  0  0  0  0  0  0  0  0  0  0
   36.5680   48.2610   -2.8010 C   0  0  0  0  0  0  0  0  0  0  0  0
   37.5460   47.4940   -2.1700 C   0  0  0  0  0  0  0  0  0  0  0  0
  2  1  1  0
  2  3  1  0
  2  4  1  0
  2  5  1  0
  4  6  2  0
  4  7  1  0
  5  8  2  0
  5  9  1  0
  7 10  1  0
  9 11  2  0
  8 12  1  0
 11 13  1  0
 10 14  2  0
 10 15  1  0
 11 16  1  0
 12 16  2  0
 13 17  1  0
 16 18  1  0
 14 19  1  0
 15 20  2  0
 19 21  2  0
 20 21  1  0
M  END
