mac-x0415-mac-x0337
     RDKit          3D

 27 29  0  0  0  0  0  0  0  0999 V2000
   33.7950   46.0980   -6.1750 O   0  0  0  0  0  0  0  0  0  0  0  0
   32.6310   45.4910   -5.8470 C   0  0  0  0  0  0  0  0  0  0  0  0
   31.7330   45.3250   -6.6580 O   0  0  0  0  0  0  0  0  0  0  0  0
   32.5560   45.0440   -4.4030 C   0  0  0  0  0  0  0  0  0  0  0  0
   31.1580   45.0780   -3.9150 C   0  0  0  0  0  0  0  0  0  0  0  0
   30.1600   44.0170   -4.1170 C   0  0  0  0  0  0  0  0  0  0  0  0
   30.4510   45.9570   -3.2080 C   0  0  0  0  0  0  0  0  0  0  0  0
   28.9680   44.1780   -3.6130 N   0  0  0  0  0  0  0  0  0  0  0  0
   29.0400   45.5100   -2.9830 C   0  0  1  0  0  0  0  0  0  0  0  0
   30.8050   47.2280   -2.6350 C   0  0  0  0  0  0  0  0  0  0  0  0
   28.7500   45.5800   -1.5190 C   0  0  0  0  0  0  0  0  0  0  0  0
   30.2520   47.5190   -1.4380 C   0  0  0  0  0  0  0  0  0  0  0  0
   30.5230   48.7110   -0.8020 O   0  0  0  0  0  0  0  0  0  0  0  0
   29.3420   46.5560   -0.7920 C   0  0  0  0  0  0  0  0  0  0  0  0
   29.7430   49.8150   -1.2910 C   0  0  0  0  0  0  0  0  0  0  0  0
   30.3360   50.2880   -2.6240 C   0  0  0  0  0  0  0  0  0  0  0  0
   29.4560   49.8950   -3.7410 N   0  0  0  0  0  0  0  0  0  0  0  0
   29.7030   50.5610   -5.0940 S   0  0  1  0  0  0  0  0  0  0  0  0
   29.2650   50.0720   -6.3800 O   0  0  0  0  0  0  0  0  0  0  0  0
   28.7400   51.9130   -4.8790 N   0  0  0  0  0  0  0  0  0  0  0  0
   31.3860   51.0810   -5.1850 C   0  0  0  0  0  0  0  0  0  0  0  0
   32.4060   50.1340   -5.0250 C   0  0  0  0  0  0  0  0  0  0  0  0
   31.6920   52.4220   -5.4160 C   0  0  0  0  0  0  0  0  0  0  0  0
   33.7370   50.5410   -5.0970 C   0  0  0  0  0  0  0  0  0  0  0  0
   33.0270   52.8240   -5.4870 C   0  0  0  0  0  0  0  0  0  0  0  0
   34.0600   51.8850   -5.3270 C   0  0  0  0  0  0  0  0  0  0  0  0
   35.4970   52.3090   -5.4030 C   0  0  0  0  0  0  0  0  0  0  0  0
  1  2  1  0
  2  3  2  0
  2  4  1  0
  4  5  1  0
  5  6  1  0
  5  7  2  0
  6  8  2  0
  7  9  1  0
  8  9  1  0
  7 10  1  0
  9 11  1  1
 10 12  2  0
 12 13  1  0
 11 14  2  0
 12 14  1  0
 13 15  1  0
 15 16  1  0
 16 17  1  0
 17 18  2  0
 18 19  2  0
 18 20  1  1
 18 21  1  0
 21 22  2  0
 21 23  1  0
 22 24  1  0
 23 25  2  0
 24 26  2  0
 25 26  1  0
 26 27  1  0
M  END
