mac-x0344-mac-x0224
     RDKit          3D

 22 23  0  0  0  0  0  0  0  0999 V2000
   32.2380   43.6150   -5.9080 O   0  0  0  0  0  0  0  0  0  0  0  0
   32.2130   44.8240   -5.1760 C   0  0  2  0  0  0  0  0  0  0  0  0
   31.2520   45.8620   -5.5820 N   0  0  0  0  0  0  0  0  0  0  0  0
   33.6290   45.4930   -5.0530 C   0  0  0  0  0  0  0  0  0  0  0  0
   34.1570   46.0080   -6.0360 O   0  0  0  0  0  0  0  0  0  0  0  0
   34.1410   45.4260   -3.7670 N   0  0  0  0  0  0  0  0  0  0  0  0
   31.2550   46.7360   -4.6430 C   0  0  0  0  0  0  0  0  0  0  0  0
   35.2610   46.0870   -3.2250 C   0  0  0  0  0  0  0  0  0  0  0  0
   30.4590   47.9720   -4.5900 C   0  0  0  0  0  0  0  0  0  0  0  0
   36.2830   45.4330   -2.5340 C   0  0  0  0  0  0  0  0  0  0  0  0
   35.3400   47.4760   -3.3940 C   0  0  0  0  0  0  0  0  0  0  0  0
   29.9820   48.6340   -5.7310 C   0  0  0  0  0  0  0  0  0  0  0  0
   30.1960   48.4810   -3.3240 C   0  0  0  0  0  0  0  0  0  0  0  0
   30.6680   47.8180   -2.2270 O   0  0  0  0  0  0  0  0  0  0  0  0
   37.3680   46.1560   -2.0230 C   0  0  0  0  0  0  0  0  0  0  0  0
   36.4250   48.1980   -2.8830 C   0  0  0  0  0  0  0  0  0  0  0  0
   29.2440   49.8150   -5.5820 C   0  0  0  0  0  0  0  0  0  0  0  0
   29.4660   49.6470   -3.1690 C   0  0  0  0  0  0  0  0  0  0  0  0
   28.6010   50.7270   -6.9760 S   0  0  0  0  0  0  0  0  0  0  0  0
   37.4390   47.5340   -2.1960 C   0  0  0  0  0  0  0  0  0  0  0  0
   28.9900   50.3150   -4.2980 C   0  0  0  0  0  0  0  0  0  0  0  0
   28.6460   52.4150   -6.3080 C   0  0  0  0  0  0  0  0  0  0  0  0
  2  1  1  6
  2  3  1  0
  2  4  1  0
  4  5  2  0
  4  6  1  0
  3  7  2  3
  6  8  1  0
  7  9  1  0
  8 10  2  0
  8 11  1  0
  9 12  2  0
  9 13  1  0
 13 14  1  0
 10 15  1  0
 11 16  2  0
 12 17  1  0
 13 18  2  0
 17 19  1  0
 15 20  2  0
 16 20  1  0
 17 21  2  0
 18 21  1  0
 19 22  1  0
M  END
