mac-x0361-mac-x0453
     RDKit          3D

 11 11  0  0  0  0  0  0  0  0999 V2000
   28.1080   53.7880   -5.7310 N   0  0  0  0  0  0  0  0  0  0  0  0
   29.4210   53.5510   -5.2610 C   0  0  0  0  0  0  0  0  0  0  0  0
   29.6700   54.4950   -4.2640 O   0  0  0  0  0  0  0  0  0  0  0  0
   30.2030   53.9260   -6.3940 N   0  0  0  0  0  0  0  0  0  0  0  0
   29.6480   52.1140   -4.7700 C   0  0  0  0  0  0  0  0  0  0  0  0
   29.6070   51.0290   -5.6680 C   0  0  0  0  0  0  0  0  0  0  0  0
   29.9040   51.8190   -3.4090 C   0  0  0  0  0  0  0  0  0  0  0  0
   29.8080   49.7120   -5.2300 C   0  0  0  0  0  0  0  0  0  0  0  0
   30.1050   50.5000   -2.9710 C   0  0  0  0  0  0  0  0  0  0  0  0
   30.0540   49.4600   -3.8870 C   0  0  0  0  0  0  0  0  0  0  0  0
   30.2430   48.1600   -3.5080 O   0  0  0  0  0  0  0  0  0  0  0  0
  1  2  1  0
  2  3  1  0
  2  4  1  0
  2  5  1  0
  5  6  2  0
  5  7  1  0
  6  8  1  0
  7  9  2  0
  8 10  2  0
  9 10  1  0
 10 11  1  0
M  END
