mac-x0302-mac-x0263
     RDKit          3D

 23 24  0  0  0  0  0  0  0  0999 V2000
   30.8590   44.8120   -4.7990 O   0  0  0  0  0  0  0  0  0  0  0  0
   30.7760   46.0840   -5.2340 C   0  0  0  0  0  0  0  0  0  0  0  0
   30.8800   46.3380   -6.4250 O   0  0  0  0  0  0  0  0  0  0  0  0
   30.5470   47.0880   -4.1140 C   0  0  0  0  0  0  0  0  0  0  0  0
   30.0740   48.3700   -4.6290 N   0  0  0  0  0  0  0  0  0  0  0  0
   29.8060   49.3810   -3.7150 C   0  0  0  0  0  0  0  0  0  0  0  0
   30.0340   49.2190   -2.5200 O   0  0  0  0  0  0  0  0  0  0  0  0
   29.2130   50.7010   -4.2640 C   0  0  1  0  0  0  0  0  0  0  0  0
   30.0840   51.8860   -3.8060 C   0  0  0  0  0  0  0  0  0  0  0  0
   28.9730   50.6810   -5.7560 C   0  0  0  0  0  0  0  0  0  0  0  0
   30.0100   53.1570   -4.6840 C   0  0  2  0  0  0  0  0  0  0  0  0
   28.8030   51.8260   -6.4360 C   0  0  0  0  0  0  0  0  0  0  0  0
   29.8460   54.2620   -3.7880 O   0  0  0  0  0  0  0  0  0  0  0  0
   28.8610   53.1720   -5.7260 C   0  0  1  0  0  0  0  0  0  0  0  0
   27.5800   53.5450   -4.9880 C   0  0  0  0  0  0  0  0  0  0  0  0
   28.9820   54.3260   -6.6970 N   0  0  0  0  0  0  0  0  0  0  0  0
   27.9890   55.3270   -6.2790 C   0  0  1  0  0  0  0  0  0  0  0  0
   27.7410   55.0030   -4.8860 N   0  0  0  0  0  0  0  0  0  0  0  0
   28.3760   56.8150   -6.4500 C   0  0  0  0  0  0  0  0  0  0  0  0
   27.4280   57.7500   -5.6750 C   0  0  0  0  0  0  0  0  0  0  0  0
   27.0750   59.0410   -6.3740 C   0  0  0  0  0  0  0  0  0  0  0  0
   28.1430   59.8430   -6.5450 O   0  0  0  0  0  0  0  0  0  0  0  0
   25.9720   59.3970   -6.7560 O   0  0  0  0  0  0  0  0  0  0  0  0
  1  2  1  0
  2  3  2  0
  2  4  1  0
  4  5  1  0
  5  6  1  0
  6  7  2  0
  8  6  1  6
  8  9  1  0
  8 10  1  0
  9 11  1  0
 10 12  2  0
 11 13  1  1
 11 14  1  0
 14 12  1  6
 14 15  1  0
 14 16  1  0
 16 17  1  0
 15 18  1  0
 17 18  1  0
 17 19  1  1
 19 20  1  0
 20 21  1  0
 21 22  1  0
 21 23  2  0
M  END
