mac-x0303-mac-x0392
     RDKit          3D

 21 23  0  0  0  0  0  0  0  0999 V2000
   30.2540   56.5360   -6.6270 N   0  0  0  0  0  0  0  0  0  0  0  0
   29.0130   56.0880   -5.5810 S   0  0  0  0  0  0  0  0  0  0  0  0
   27.7500   56.2000   -6.2720 O   0  0  0  0  0  0  0  0  0  0  0  0
   29.2670   56.7100   -4.3030 O   0  0  0  0  0  0  0  0  0  0  0  0
   29.2160   54.3580   -5.2890 C   0  0  0  0  0  0  0  0  0  0  0  0
   29.4960   53.8380   -4.0560 N   0  0  0  0  0  0  0  0  0  0  0  0
   29.1250   53.4080   -6.2010 N   0  0  0  0  0  0  0  0  0  0  0  0
   29.5920   52.4740   -4.1790 C   0  0  0  0  0  0  0  0  0  0  0  0
   29.3580   52.2190   -5.5290 C   0  0  0  0  0  0  0  0  0  0  0  0
   29.8570   51.4740   -3.2500 C   0  0  0  0  0  0  0  0  0  0  0  0
   29.3880   50.8770   -5.9970 C   0  0  0  0  0  0  0  0  0  0  0  0
   29.8830   50.1560   -3.7330 C   0  0  0  0  0  0  0  0  0  0  0  0
   29.6540   49.8210   -5.0980 C   0  0  0  0  0  0  0  0  0  0  0  0
   29.1500   50.7160   -7.3250 N   0  0  0  0  0  0  0  0  0  0  0  0
   29.6640   48.5100   -5.6730 C   0  0  0  0  0  0  0  0  0  0  0  0
   29.1710   49.4580   -7.8060 C   0  0  0  0  0  0  0  0  0  0  0  0
   29.9400   47.3310   -4.8030 C   0  0  0  0  0  0  0  0  0  0  0  0
   29.4190   48.3150   -7.0490 C   0  0  0  0  0  0  0  0  0  0  0  0
   29.4170   47.0510   -7.6750 N   0  0  0  0  0  0  0  0  0  0  0  0
   30.5300   47.3210   -3.7390 O   0  0  0  0  0  0  0  0  0  0  0  0
   29.4480   46.1820   -5.3170 O   0  0  0  0  0  0  0  0  0  0  0  0
  2  1  1  0
  2  3  2  0
  2  4  2  0
  2  5  1  0
  5  6  1  0
  5  7  2  0
  6  8  1  0
  7  9  1  0
  8  9  2  0
  8 10  1  0
  9 11  1  0
 10 12  2  0
 11 13  2  0
 12 13  1  0
 11 14  1  0
 13 15  1  0
 14 16  2  0
 15 17  1  0
 15 18  2  0
 16 18  1  0
 18 19  1  0
 17 20  2  0
 17 21  1  0
M  END
