mac-x0568-mac-x0204
     RDKit          3D

 22 23  0  0  0  0  0  0  0  0999 V2000
   29.9360   55.8540   -5.5060 C   0  0  0  0  0  0  0  0  0  0  0  0
   29.6810   54.3800   -5.3990 C   0  0  0  0  0  0  0  0  0  0  0  0
   29.2010   53.6720   -6.4990 C   0  0  0  0  0  0  0  0  0  0  0  0
   29.9370   53.7900   -4.2070 N   0  0  0  0  0  0  0  0  0  0  0  0
   29.7060   52.4570   -4.1090 C   0  0  0  0  0  0  0  0  0  0  0  0
   28.9730   52.3020   -6.3690 C   0  0  0  0  0  0  0  0  0  0  0  0
   29.2280   51.6740   -5.1500 C   0  0  0  0  0  0  0  0  0  0  0  0
   28.9830   50.2210   -5.0080 C   0  0  0  0  0  0  0  0  0  0  0  0
   28.7920   49.7480   -3.8930 O   0  0  0  0  0  0  0  0  0  0  0  0
   28.9760   49.4670   -6.1640 N   0  0  0  0  0  0  0  0  0  0  0  0
   29.0590   48.0170   -6.1170 C   0  0  0  0  0  0  0  0  0  0  0  0
   30.4760   47.4820   -6.3350 C   0  0  0  0  0  0  0  0  0  0  0  0
   30.8740   46.3080   -5.4220 C   0  0  0  0  0  0  0  0  0  0  0  0
   31.8900   45.5650   -6.0820 O   0  0  0  0  0  0  0  0  0  0  0  0
   29.7930   45.4000   -5.2920 O   0  0  0  0  0  0  0  0  0  0  0  0
   31.3800   46.7510   -4.0630 C   0  0  0  0  0  0  0  0  0  0  0  0
   30.5480   46.7310   -2.9310 C   0  0  0  0  0  0  0  0  0  0  0  0
   32.6870   47.1990   -3.8670 C   0  0  0  0  0  0  0  0  0  0  0  0
   31.0400   47.1440   -1.6990 C   0  0  0  0  0  0  0  0  0  0  0  0
   33.1930   47.6080   -2.6750 N   0  0  0  0  0  0  0  0  0  0  0  0
   30.2020   47.1110   -0.6260 O   0  0  0  0  0  0  0  0  0  0  0  0
   32.3540   47.5700   -1.6170 C   0  0  0  0  0  0  0  0  0  0  0  0
  1  2  1  0
  2  3  2  0
  2  4  1  0
  4  5  2  0
  3  6  1  0
  5  7  1  0
  6  7  2  0
  7  8  1  0
  8  9  2  0
  8 10  1  0
 10 11  1  0
 11 12  1  0
 12 13  1  0
 13 14  1  0
 13 15  1  0
 13 16  1  0
 16 17  2  0
 16 18  1  0
 17 19  1  0
 18 20  2  0
 19 21  1  0
 19 22  2  0
 20 22  1  0
M  END
