mac-x0555-mac-x0224
     RDKit          3D

 22 24  0  0  0  0  0  0  0  0999 V2000
   29.3710   56.4830   -6.7080 N   0  0  0  0  0  0  0  0  0  0  0  0
   29.3360   55.4950   -5.7190 C   0  0  0  0  0  0  0  0  0  0  0  0
   29.1340   55.7900   -4.3760 C   0  0  0  0  0  0  0  0  0  0  0  0
   29.5070   54.1510   -6.0410 C   0  0  0  0  0  0  0  0  0  0  0  0
   29.4710   53.1670   -5.0380 C   0  0  0  0  0  0  0  0  0  0  0  0
   29.0930   54.8750   -3.3760 N   0  0  0  0  0  0  0  0  0  0  0  0
   29.2590   53.5850   -3.7080 C   0  0  0  0  0  0  0  0  0  0  0  0
   29.6390   51.8020   -5.3320 C   0  0  0  0  0  0  0  0  0  0  0  0
   29.2230   52.6170   -2.7140 C   0  0  0  0  0  0  0  0  0  0  0  0
   29.6000   50.8350   -4.3190 C   0  0  0  0  0  0  0  0  0  0  0  0
   29.3900   51.2600   -3.0040 C   0  0  0  0  0  0  0  0  0  0  0  0
   29.7760   49.4100   -4.6310 C   0  0  0  0  0  0  0  0  0  0  0  0
   29.1120   48.7640   -5.6960 C   0  0  0  0  0  0  0  0  0  0  0  0
   30.6470   48.6540   -3.8270 C   0  0  0  0  0  0  0  0  0  0  0  0
   27.9720   49.5990   -6.8050 S   0  0  0  0  0  0  0  0  0  0  0  0
   29.3280   47.3950   -5.9340 C   0  0  0  0  0  0  0  0  0  0  0  0
   30.8570   47.2960   -4.0690 C   0  0  0  0  0  0  0  0  0  0  0  0
   31.7270   46.6640   -3.2200 O   0  0  0  0  0  0  0  0  0  0  0  0
   30.2000   46.6540   -5.1240 C   0  0  0  0  0  0  0  0  0  0  0  0
   30.4330   45.2140   -5.3700 C   0  0  0  0  0  0  0  0  0  0  0  0
   30.7670   44.7470   -6.4470 O   0  0  0  0  0  0  0  0  0  0  0  0
   30.2450   44.4370   -4.2900 O   0  0  0  0  0  0  0  0  0  0  0  0
  1  2  1  0
  2  3  2  0
  2  4  1  0
  4  5  2  0
  3  6  1  0
  5  7  1  0
  6  7  2  0
  5  8  1  0
  7  9  1  0
  8 10  2  0
  9 11  2  0
 10 11  1  0
 10 12  1  0
 12 13  2  0
 12 14  1  0
 13 15  1  0
 13 16  1  0
 14 17  2  0
 17 18  1  0
 16 19  2  0
 17 19  1  0
 19 20  1  0
 20 21  2  0
 20 22  1  0
M  END
