mac-x0115-mac-x0271
     RDKit          3D

 29 32  0  0  0  0  0  0  0  0999 V2000
   28.4250   45.6990   -1.9380 C   0  0  0  0  0  0  0  0  0  0  0  0
   28.9690   44.2810   -2.0710 C   0  0  0  0  0  0  0  0  0  0  0  0
   27.9430   43.3840   -2.7600 C   0  0  0  0  0  0  0  0  0  0  0  0
   30.1710   44.3630   -2.8450 O   0  0  0  0  0  0  0  0  0  0  0  0
   29.9970   44.0170   -4.2240 C   0  0  0  0  0  0  0  0  0  0  0  0
   31.1580   44.5900   -5.0460 C   0  0  0  0  0  0  0  0  0  0  0  0
   30.6880   45.5270   -6.1000 N   0  0  0  0  0  0  0  0  0  0  0  0
   30.4210   45.0950   -7.4150 C   0  0  0  0  0  0  0  0  0  0  0  0
   30.1810   46.7580   -5.7240 C   0  0  0  0  0  0  0  0  0  0  0  0
   30.7580   43.5910   -8.0740 S   0  0  0  0  0  0  0  0  0  0  0  0
   29.8090   46.0260   -8.2440 N   0  0  0  0  0  0  0  0  0  0  0  0
   28.9170   47.2310   -6.3570 C   0  0  2  0  0  0  0  0  0  0  0  0
   30.6500   47.6430   -4.8460 C   0  0  0  0  0  0  0  0  0  0  0  0
   29.1150   47.1650   -7.8580 C   0  0  0  0  0  0  0  0  0  0  0  0
   28.6530   48.5680   -5.7760 N   0  0  0  0  0  0  0  0  0  0  0  0
   29.6540   48.6970   -4.9510 C   0  0  0  0  0  0  0  0  0  0  0  0
   28.7250   47.9840   -8.6850 O   0  0  0  0  0  0  0  0  0  0  0  0
   29.9320   49.7530   -4.1160 O   0  0  0  0  0  0  0  0  0  0  0  0
   29.6840   51.0050   -4.6850 C   0  0  0  0  0  0  0  0  0  0  0  0
   29.6150   52.1180   -3.8510 C   0  0  0  0  0  0  0  0  0  0  0  0
   29.5130   51.1150   -6.0640 C   0  0  0  0  0  0  0  0  0  0  0  0
   29.3670   53.3570   -4.4370 C   0  0  0  0  0  0  0  0  0  0  0  0
   29.2650   52.3670   -6.6310 C   0  0  0  0  0  0  0  0  0  0  0  0
   29.1900   53.4990   -5.8150 C   0  0  0  0  0  0  0  0  0  0  0  0
   29.2980   54.4740   -3.5810 O   0  0  0  0  0  0  0  0  0  0  0  0
   28.9310   54.8210   -6.3570 C   0  0  0  0  0  0  0  0  0  0  0  0
   29.1940   55.7580   -4.0950 C   0  0  0  0  0  0  0  0  0  0  0  0
   29.3100   56.7580   -3.3980 O   0  0  0  0  0  0  0  0  0  0  0  0
   28.9350   55.8770   -5.5420 C   0  0  0  0  0  0  0  0  0  0  0  0
  1  2  1  0
  2  3  1  0
  2  4  1  0
  4  5  1  0
  5  6  1  0
  6  7  1  0
  7  8  1  0
  7  9  1  0
  8 10  2  0
  8 11  1  0
  9 12  1  0
  9 13  2  0
 11 14  1  0
 12 14  1  0
 12 15  1  1
 13 16  1  0
 15 16  2  0
 14 17  2  0
 16 18  1  0
 18 19  1  0
 19 20  2  0
 19 21  1  0
 20 22  1  0
 21 23  2  0
 22 24  2  0
 23 24  1  0
 22 25  1  0
 24 26  1  0
 25 27  1  0
 27 28  2  0
 26 29  2  0
 27 29  1  0
M  END
