mac-x0226-mac-x0138
     RDKit          3D

 28 31  0  0  0  0  0  0  0  0999 V2000
   32.7900   45.0450   -7.1890 O   0  0  0  0  0  0  0  0  0  0  0  0
   33.1230   45.9060   -6.1170 C   0  0  0  0  0  0  0  0  0  0  0  0
   34.1270   46.7660   -6.6360 O   0  0  0  0  0  0  0  0  0  0  0  0
   31.9000   46.7750   -5.7530 C   0  0  0  0  0  0  0  0  0  0  0  0
   33.6680   45.1410   -4.9550 C   0  0  0  0  0  0  0  0  0  0  0  0
   31.4330   46.7390   -4.2890 C   0  0  0  0  0  0  0  0  0  0  0  0
   33.2480   43.8830   -4.4780 C   0  0  0  0  0  0  0  0  0  0  0  0
   34.6940   45.4820   -4.0930 C   0  0  0  0  0  0  0  0  0  0  0  0
   29.9760   47.1360   -4.0630 C   0  0  0  0  0  0  0  0  0  0  0  0
   33.9390   43.4700   -3.4190 N   0  0  0  0  0  0  0  0  0  0  0  0
   34.8380   44.4620   -3.1790 N   0  0  0  0  0  0  0  0  0  0  0  0
   35.7640   44.3720   -2.1070 C   0  0  0  0  0  0  0  0  0  0  0  0
   29.7010   48.4770   -4.5430 N   0  0  0  0  0  0  0  0  0  0  0  0
   36.5720   45.4780   -1.8030 C   0  0  0  0  0  0  0  0  0  0  0  0
   35.8850   43.2000   -1.3480 C   0  0  0  0  0  0  0  0  0  0  0  0
   29.7820   49.6340   -3.8160 C   0  0  0  0  0  0  0  0  0  0  0  0
   29.3160   48.8060   -5.8120 C   0  0  0  0  0  0  0  0  0  0  0  0
   37.4900   45.4110   -0.7530 C   0  0  0  0  0  0  0  0  0  0  0  0
   36.8070   43.1400   -0.2980 C   0  0  0  0  0  0  0  0  0  0  0  0
   29.4710   50.6900   -4.5420 N   0  0  0  0  0  0  0  0  0  0  0  0
   29.1790   50.1800   -5.7930 C   0  0  0  0  0  0  0  0  0  0  0  0
   29.1140   47.9830   -6.8520 N   0  0  0  0  0  0  0  0  0  0  0  0
   37.6070   44.2430   -0.0010 C   0  0  0  0  0  0  0  0  0  0  0  0
   28.7840   50.7750   -6.9980 C   0  0  0  0  0  0  0  0  0  0  0  0
   28.7410   48.6530   -7.9520 C   0  0  0  0  0  0  0  0  0  0  0  0
   28.5990   52.1460   -7.1430 N   0  0  0  0  0  0  0  0  0  0  0  0
   28.5060   47.9030   -9.0880 N   0  0  0  0  0  0  0  0  0  0  0  0
   28.5680   49.9820   -8.0730 N   0  0  0  0  0  0  0  0  0  0  0  0
  2  1  1  0
  2  3  1  0
  2  4  1  0
  2  5  1  0
  4  6  1  0
  5  7  1  0
  5  8  2  0
  6  9  1  0
  7 10  2  0
  8 11  1  0
 10 11  1  0
 11 12  1  0
  9 13  1  0
 12 14  2  0
 12 15  1  0
 13 16  1  0
 13 17  1  0
 14 18  1  0
 15 19  2  0
 16 20  2  0
 17 21  2  0
 20 21  1  0
 17 22  1  0
 18 23  2  0
 19 23  1  0
 21 24  1  0
 22 25  2  0
 24 26  1  0
 25 27  1  0
 24 28  2  0
 25 28  1  0
M  END
