mac-x0411-mac-x0510
     RDKit          3D

 26 28  0  0  0  0  0  0  0  0999 V2000
   37.2190   44.1390   -3.3720 Cl  0  0  0  0  0  0  0  0  0  0  0  0
   36.4470   45.6820   -3.2400 C   0  0  0  0  0  0  0  0  0  0  0  0
   35.0450   45.8160   -3.3330 C   0  0  0  0  0  0  0  0  0  0  0  0
   37.2580   46.7920   -3.0370 C   0  0  0  0  0  0  0  0  0  0  0  0
   34.3170   44.6580   -3.5330 O   0  0  0  0  0  0  0  0  0  0  0  0
   34.4420   47.1060   -3.2160 C   0  0  0  0  0  0  0  0  0  0  0  0
   36.6870   48.0540   -2.9230 C   0  0  0  0  0  0  0  0  0  0  0  0
   32.9400   47.4050   -3.2900 C   0  0  0  0  0  0  0  0  0  0  0  0
   33.0780   44.7860   -4.2360 C   0  0  0  0  0  0  0  0  0  0  0  0
   35.3020   48.2060   -3.0100 C   0  0  0  0  0  0  0  0  0  0  0  0
   33.2920   45.1000   -5.7070 C   0  0  0  0  0  0  0  0  0  0  0  0
   32.5630   48.8780   -2.9650 C   0  0  0  0  0  0  0  0  0  0  0  0
   32.1670   45.0520   -6.4560 O   0  0  0  0  0  0  0  0  0  0  0  0
   34.3550   45.3780   -6.2400 O   0  0  0  0  0  0  0  0  0  0  0  0
   31.0510   49.1990   -2.9080 C   0  0  0  0  0  0  0  0  0  0  0  0
   30.4050   48.8890   -4.1740 N   0  0  0  0  0  0  0  0  0  0  0  0
   29.7370   49.6930   -4.9250 C   0  0  0  0  0  0  0  0  0  0  0  0
   29.2270   49.1840   -6.1420 C   0  0  0  0  0  0  0  0  0  0  0  0
   29.4380   51.0350   -4.7500 N   0  0  0  0  0  0  0  0  0  0  0  0
   29.0410   51.8950   -5.7680 C   0  0  0  0  0  0  0  0  0  0  0  0
   28.7700   49.9820   -7.1390 C   0  0  0  0  0  0  0  0  0  0  0  0
   29.0770   47.9120   -6.6010 N   0  0  0  0  0  0  0  0  0  0  0  0
   28.9310   53.1050   -5.5700 O   0  0  0  0  0  0  0  0  0  0  0  0
   28.7800   51.3370   -6.9980 N   0  0  0  0  0  0  0  0  0  0  0  0
   28.3410   49.2720   -8.2120 N   0  0  0  0  0  0  0  0  0  0  0  0
   28.5390   48.0140   -7.8580 C   0  0  0  0  0  0  0  0  0  0  0  0
  1  2  1  0
  2  3  2  0
  2  4  1  0
  3  5  1  0
  3  6  1  0
  4  7  2  0
  6  8  1  0
  5  9  1  0
  6 10  2  0
  7 10  1  0
  9 11  1  0
  8 12  1  0
 11 13  1  0
 11 14  2  0
 12 15  1  0
 15 16  1  0
 16 17  2  3
 17 18  1  0
 17 19  1  0
 19 20  1  0
 18 21  2  0
 18 22  1  0
 20 23  2  0
 20 24  1  0
 21 24  1  0
 21 25  1  0
 22 26  1  0
 25 26  2  0
M  END
