mac-x0284-mac-x0415
     RDKit          3D

 23 25  0  0  0  0  0  0  0  0999 V2000
   27.1270   50.1830   -4.0890 C   0  0  0  0  0  0  0  0  0  0  0  0
   28.5690   49.7630   -4.1470 C   0  0  0  0  0  0  0  0  0  0  0  0
   29.5610   50.5610   -3.5700 C   0  0  0  0  0  0  0  0  0  0  0  0
   28.9320   48.5650   -4.7810 C   0  0  0  0  0  0  0  0  0  0  0  0
   30.2740   48.1730   -4.8370 C   0  0  0  0  0  0  0  0  0  0  0  0
   30.8990   50.1740   -3.6240 C   0  0  0  0  0  0  0  0  0  0  0  0
   30.6730   46.9110   -5.5050 C   0  0  0  0  0  0  0  0  0  0  0  0
   31.2540   48.9850   -4.2560 C   0  0  0  0  0  0  0  0  0  0  0  0
   32.5860   48.6770   -4.2710 O   0  0  0  0  0  0  0  0  0  0  0  0
   30.2580   46.7470   -6.6580 O   0  0  0  0  0  0  0  0  0  0  0  0
   31.4870   45.9570   -4.8660 N   0  0  0  0  0  0  0  0  0  0  0  0
   32.6570   45.5960   -5.6350 C   0  0  0  0  0  0  0  0  0  0  0  0
   30.9470   44.9480   -3.9330 C   0  0  2  0  0  0  0  0  0  0  0  0
   33.7180   45.3310   -4.7380 O   0  0  0  0  0  0  0  0  0  0  0  0
   29.8420   44.0080   -4.4420 C   0  0  0  0  0  0  0  0  0  0  0  0
   30.4120   45.4040   -2.5580 C   0  0  2  0  0  0  0  0  0  0  0  0
   28.5840   44.6170   -3.9630 N   0  0  0  0  0  0  0  0  0  0  0  0
   28.8740   45.2360   -2.6580 C   0  0  2  0  0  0  0  0  0  0  0  0
   30.8790   46.7370   -1.9330 C   0  0  0  0  0  0  0  0  0  0  0  0
   28.0800   46.5020   -2.5210 C   0  0  0  0  0  0  0  0  0  0  0  0
   29.8280   47.4910   -1.1220 C   0  0  1  0  0  0  0  0  0  0  0  0
   30.4300   49.3230   -0.7740 Br  0  0  0  0  0  0  0  0  0  0  0  0
   28.5140   47.5440   -1.8130 C   0  0  0  0  0  0  0  0  0  0  0  0
  1  2  1  0
  2  3  2  0
  2  4  1  0
  4  5  2  0
  3  6  1  0
  5  7  1  0
  5  8  1  0
  6  8  2  0
  8  9  1  0
  7 10  2  0
  7 11  1  0
 11 12  1  0
 13 11  1  6
 12 14  1  0
 13 15  1  0
 13 16  1  0
 15 17  1  0
 16 18  1  0
 17 18  1  0
 16 19  1  6
 18 20  1  6
 19 21  1  0
 21 22  1  6
 20 23  2  0
 21 23  1  0
M  END
