mac-x0404-mac-x0212
     RDKit          3D

 28 30  0  0  0  0  0  0  0  0999 V2000
   30.9460   46.4610   -5.3070 N   0  0  0  0  0  0  0  0  0  0  0  0
   31.8870   45.4740   -5.4540 C   0  0  0  0  0  0  0  0  0  0  0  0
   32.8610   45.5490   -6.2010 O   0  0  0  0  0  0  0  0  0  0  0  0
   31.3180   47.6860   -5.4140 C   0  0  0  0  0  0  0  0  0  0  0  0
   31.6210   44.2410   -4.5860 C   0  0  0  0  0  0  0  0  0  0  0  0
   32.6140   47.9700   -5.6750 O   0  0  0  0  0  0  0  0  0  0  0  0
   30.5200   48.9100   -5.2940 C   0  0  0  0  0  0  0  0  0  0  0  0
   31.8690   44.4270   -3.1970 O   0  0  0  0  0  0  0  0  0  0  0  0
   30.1600   49.6300   -6.4300 C   0  0  0  0  0  0  0  0  0  0  0  0
   30.1320   49.3370   -4.0240 C   0  0  0  0  0  0  0  0  0  0  0  0
   31.4410   45.5720   -2.5570 C   0  0  0  0  0  0  0  0  0  0  0  0
   29.4000   50.7950   -6.2910 C   0  0  0  0  0  0  0  0  0  0  0  0
   29.3730   50.5000   -3.8910 C   0  0  0  0  0  0  0  0  0  0  0  0
   30.0380   45.6980   -2.3640 C   0  0  0  0  0  0  0  0  0  0  0  0
   32.2960   46.5820   -2.1010 C   0  0  0  0  0  0  0  0  0  0  0  0
   29.0060   51.2320   -5.0250 C   0  0  0  0  0  0  0  0  0  0  0  0
   28.2290   52.4170   -4.8330 N   0  0  0  0  0  0  0  0  0  0  0  0
   29.5300   46.8490   -1.7110 C   0  0  0  0  0  0  0  0  0  0  0  0
   31.7830   47.7100   -1.4600 C   0  0  0  0  0  0  0  0  0  0  0  0
   29.1090   44.7240   -2.7920 C   0  0  0  0  0  0  0  0  0  0  0  0
   28.8940   53.9420   -5.0830 S   0  0  0  0  0  0  0  0  0  0  0  0
   30.4100   47.8420   -1.2660 C   0  0  0  0  0  0  0  0  0  0  0  0
   28.1470   46.9930   -1.5130 C   0  0  0  0  0  0  0  0  0  0  0  0
   27.7360   44.8770   -2.5890 C   0  0  0  0  0  0  0  0  0  0  0  0
   30.4570   53.5670   -5.8480 C   0  0  0  0  0  0  0  0  0  0  0  0
   28.0580   54.5680   -6.0870 O   0  0  0  0  0  0  0  0  0  0  0  0
   29.1420   54.5910   -3.8130 O   0  0  0  0  0  0  0  0  0  0  0  0
   27.2560   46.0140   -1.9470 C   0  0  0  0  0  0  0  0  0  0  0  0
  1  2  1  0
  2  3  2  0
  1  4  2  3
  2  5  1  0
  4  6  1  0
  4  7  1  0
  5  8  1  0
  7  9  2  0
  7 10  1  0
  8 11  1  0
  9 12  1  0
 10 13  2  0
 11 14  1  0
 11 15  2  0
 12 16  2  0
 13 16  1  0
 16 17  1  0
 14 18  2  0
 15 19  1  0
 14 20  1  0
 21 17  1  0
 18 22  1  0
 19 22  2  0
 18 23  1  0
 20 24  2  0
 21 25  1  0
 21 26  2  0
 21 27  2  0
 23 28  2  0
 24 28  1  0
M  END
