mac-x0404-mac-x0224
     RDKit          3D

 25 28  0  0  0  0  0  0  0  0999 V2000
   32.1590   46.7610   -6.2520 N   0  0  0  0  0  0  0  0  0  0  0  0
   32.6870   45.4860   -6.1960 C   0  0  0  0  0  0  0  0  0  0  0  0
   33.3410   44.9430   -7.0750 O   0  0  0  0  0  0  0  0  0  0  0  0
   31.3180   46.8510   -5.2510 C   0  0  0  0  0  0  0  0  0  0  0  0
   32.3310   44.8460   -4.8580 C   0  0  0  0  0  0  0  0  0  0  0  0
   31.1970   45.7130   -4.4650 N   0  0  0  0  0  0  0  0  0  0  0  0
   30.5630   48.1050   -4.9720 C   0  0  0  0  0  0  0  0  0  0  0  0
   31.0820   45.8230   -3.0450 C   0  0  0  0  0  0  0  0  0  0  0  0
   29.6880   48.5870   -5.9590 C   0  0  0  0  0  0  0  0  0  0  0  0
   30.6970   48.8100   -3.7700 C   0  0  0  0  0  0  0  0  0  0  0  0
   31.5160   48.4400   -2.7440 O   0  0  0  0  0  0  0  0  0  0  0  0
   29.8110   45.6450   -2.4190 C   0  0  0  0  0  0  0  0  0  0  0  0
   32.2080   46.1150   -2.2570 C   0  0  0  0  0  0  0  0  0  0  0  0
   28.9550   49.7610   -5.7430 C   0  0  0  0  0  0  0  0  0  0  0  0
   29.9680   49.9740   -3.5530 C   0  0  0  0  0  0  0  0  0  0  0  0
   27.8340   50.4180   -6.9640 S   0  0  0  0  0  0  0  0  0  0  0  0
   29.7170   45.7700   -1.0110 C   0  0  0  0  0  0  0  0  0  0  0  0
   32.0990   46.2330   -0.8770 C   0  0  0  0  0  0  0  0  0  0  0  0
   28.6240   45.3490   -3.1300 C   0  0  0  0  0  0  0  0  0  0  0  0
   29.1010   50.4490   -4.5350 C   0  0  0  0  0  0  0  0  0  0  0  0
   28.2050   52.1870   -6.8160 C   0  0  0  0  0  0  0  0  0  0  0  0
   30.8630   46.0620   -0.2600 C   0  0  0  0  0  0  0  0  0  0  0  0
   28.4810   45.6020   -0.3690 C   0  0  0  0  0  0  0  0  0  0  0  0
   27.4000   45.1830   -2.4780 C   0  0  0  0  0  0  0  0  0  0  0  0
   27.3280   45.3100   -1.0990 C   0  0  0  0  0  0  0  0  0  0  0  0
  1  2  1  0
  2  3  2  0
  1  4  2  0
  2  5  1  0
  4  6  1  0
  5  6  1  0
  4  7  1  0
  6  8  1  0
  7  9  2  0
  7 10  1  0
 10 11  1  0
  8 12  1  0
  8 13  2  0
  9 14  1  0
 10 15  2  0
 14 16  1  0
 12 17  2  0
 13 18  1  0
 12 19  1  0
 14 20  2  0
 15 20  1  0
 16 21  1  0
 17 22  1  0
 18 22  2  0
 17 23  1  0
 19 24  2  0
 23 25  2  0
 24 25  1  0
M  END
