mac-x0161-mac-x0392
     RDKit          3D

 21 24  0  0  0  0  0  0  0  0999 V2000
   28.0780   52.3400   -6.1040 N   0  0  0  0  0  0  0  0  0  0  0  0
   28.1280   51.2040   -5.2030 C   0  0  1  0  0  0  0  0  0  0  0  0
   27.7250   49.8910   -5.9080 C   0  0  2  0  0  0  0  0  0  0  0  0
   29.4900   51.2160   -4.7240 N   0  0  0  0  0  0  0  0  0  0  0  0
   29.6700   50.1010   -3.7930 C   0  0  0  0  0  0  0  0  0  0  0  0
   28.0900   48.6660   -5.0430 C   0  0  2  0  0  0  0  0  0  0  0  0
   28.3310   49.6390   -7.2620 N   0  0  0  0  0  0  0  0  0  0  0  0
   29.3310   48.7800   -4.2630 N   0  0  0  0  0  0  0  0  0  0  0  0
   28.3980   47.5800   -6.0290 N   0  0  0  0  0  0  0  0  0  0  0  0
   28.1580   48.1990   -7.3230 C   0  0  2  0  0  0  0  0  0  0  0  0
   30.2440   47.7960   -4.7000 C   0  0  0  0  0  0  0  0  0  0  0  0
   28.9260   47.7990   -8.4700 N   0  0  0  0  0  0  0  0  0  0  0  0
   29.6730   47.1160   -5.7130 C   0  0  0  0  0  0  0  0  0  0  0  0
   30.1950   46.0840   -6.4210 O   0  0  0  0  0  0  0  0  0  0  0  0
   31.5550   47.5030   -4.2290 C   0  0  0  0  0  0  0  0  0  0  0  0
   32.2000   47.7080   -3.0170 C   0  0  0  0  0  0  0  0  0  0  0  0
   32.4770   46.8850   -5.0540 O   0  0  0  0  0  0  0  0  0  0  0  0
   33.6800   46.6940   -4.4090 N   0  0  0  0  0  0  0  0  0  0  0  0
   33.4920   47.1930   -3.1940 C   0  0  0  0  0  0  0  0  0  0  0  0
   34.4730   47.1820   -2.2670 O   0  0  0  0  0  0  0  0  0  0  0  0
   35.1560   48.4200   -2.1290 C   0  0  0  0  0  0  0  0  0  0  0  0
  2  1  1  6
  2  3  1  0
  2  4  1  0
  4  5  1  0
  3  6  1  0
  3  7  1  6
  5  8  1  0
  6  8  1  6
  6  9  1  0
  7 10  1  0
  9 10  1  0
  8 11  1  0
 10 12  1  6
  9 13  1  0
 11 13  2  0
 13 14  1  0
 11 15  1  0
 15 16  2  0
 15 17  1  0
 17 18  1  0
 16 19  1  0
 18 19  2  0
 19 20  1  0
 20 21  1  0
M  END
