mac-x0263-mac-x0255
     RDKit          3D

 30 33  0  0  0  0  0  0  0  0999 V2000
   28.0880   59.9080   -6.4830 O   0  0  0  0  0  0  0  0  0  0  0  0
   26.9800   59.1540   -6.3710 C   0  0  0  0  0  0  0  0  0  0  0  0
   25.8910   59.5980   -6.7010 O   0  0  0  0  0  0  0  0  0  0  0  0
   27.2310   57.7770   -5.8160 C   0  0  0  0  0  0  0  0  0  0  0  0
   28.4310   57.0540   -6.4170 C   0  0  0  0  0  0  0  0  0  0  0  0
   28.3500   55.5870   -6.1360 C   0  0  0  0  0  0  0  0  0  0  0  0
   28.4940   55.0640   -4.8710 N   0  0  0  0  0  0  0  0  0  0  0  0
   28.1370   54.6320   -7.0170 N   0  0  0  0  0  0  0  0  0  0  0  0
   28.3580   53.6990   -4.9520 C   0  0  0  0  0  0  0  0  0  0  0  0
   28.1370   53.4590   -6.2990 C   0  0  0  0  0  0  0  0  0  0  0  0
   28.4090   52.6880   -3.9830 C   0  0  0  0  0  0  0  0  0  0  0  0
   27.9500   52.1370   -6.7340 C   0  0  0  0  0  0  0  0  0  0  0  0
   28.2210   51.3590   -4.4220 C   0  0  0  0  0  0  0  0  0  0  0  0
   27.9950   51.0990   -5.7850 C   0  0  0  0  0  0  0  0  0  0  0  0
   28.2610   50.2170   -3.4120 C   0  0  0  0  0  0  0  0  0  0  0  0
   29.5490   49.3800   -3.4780 C   0  0  0  0  0  0  0  0  0  0  0  0
   29.7810   48.5760   -2.1810 C   0  0  0  0  0  0  0  0  0  0  0  0
   29.3670   47.1200   -2.3230 C   0  0  0  0  0  0  0  0  0  0  0  0
   30.0370   46.1840   -3.1540 C   0  0  0  0  0  0  0  0  0  0  0  0
   28.2520   46.6490   -1.6010 C   0  0  0  0  0  0  0  0  0  0  0  0
   29.6150   44.8530   -3.2680 C   0  0  0  0  0  0  0  0  0  0  0  0
   31.4260   46.4580   -4.1470 S   0  0  0  0  0  0  0  0  0  0  0  0
   27.8190   45.3330   -1.6980 C   0  0  0  0  0  0  0  0  0  0  0  0
   31.4610   44.8510   -4.7170 C   0  0  0  0  0  0  0  0  0  0  0  0
   30.4420   44.1060   -4.1680 C   0  0  0  0  0  0  0  0  0  0  0  0
   28.4880   44.4360   -2.5240 C   0  0  0  0  0  0  0  0  0  0  0  0
   32.5090   44.4150   -5.6900 C   0  0  0  0  0  0  0  0  0  0  0  0
   32.6510   45.3940   -6.8320 C   0  0  0  0  0  0  0  0  0  0  0  0
   31.5330   45.4620   -7.5890 O   0  0  0  0  0  0  0  0  0  0  0  0
   33.6110   46.0850   -7.1210 O   0  0  0  0  0  0  0  0  0  0  0  0
  1  2  1  0
  2  3  2  0
  2  4  1  0
  4  5  1  0
  5  6  1  0
  6  7  1  0
  6  8  2  0
  7  9  1  0
  8 10  1  0
  9 10  2  0
  9 11  1  0
 10 12  1  0
 11 13  2  0
 12 14  2  0
 13 14  1  0
 13 15  1  0
 15 16  1  0
 16 17  1  0
 17 18  1  0
 18 19  1  0
 18 20  2  0
 19 21  2  0
 19 22  1  0
 20 23  1  0
 22 24  1  0
 21 25  1  0
 24 25  2  0
 21 26  1  0
 23 26  2  0
 24 27  1  0
 27 28  1  0
 28 29  1  0
 28 30  2  0
M  END
