mac-x0271-mac-x0373
     RDKit          3D

 22 24  0  0  0  0  0  0  0  0999 V2000
   30.5900   49.6080   -2.5020 O   0  0  0  0  0  0  0  0  0  0  0  0
   30.1880   50.4520   -3.4900 C   0  0  0  0  0  0  0  0  0  0  0  0
   30.0480   49.9060   -4.7680 C   0  0  0  0  0  0  0  0  0  0  0  0
   29.9480   51.7810   -3.1740 C   0  0  0  0  0  0  0  0  0  0  0  0
   30.4180   48.3570   -4.8120 C   0  0  1  0  0  0  0  0  0  0  0  0
   29.5400   52.6530   -4.1600 C   0  0  0  0  0  0  0  0  0  0  0  0
   29.6080   50.8370   -5.7990 C   0  0  0  0  0  0  0  0  0  0  0  0
   30.1040   47.4010   -5.9920 C   0  0  0  0  0  0  0  0  0  0  0  0
   29.3550   52.2260   -5.4770 C   0  0  0  0  0  0  0  0  0  0  0  0
   29.3270   53.9900   -3.7550 O   0  0  0  0  0  0  0  0  0  0  0  0
   31.8750   48.1400   -4.3370 C   0  0  0  0  0  0  0  0  0  0  0  0
   31.0800   47.3430   -6.9420 O   0  0  0  0  0  0  0  0  0  0  0  0
   29.1060   46.6960   -6.1060 O   0  0  0  0  0  0  0  0  0  0  0  0
   28.9170   53.2540   -6.4340 C   0  0  0  0  0  0  0  0  0  0  0  0
   29.1560   55.0030   -4.6840 C   0  0  0  0  0  0  0  0  0  0  0  0
   32.3220   46.9550   -3.7040 C   0  0  0  0  0  0  0  0  0  0  0  0
   32.8130   49.1670   -4.5420 C   0  0  0  0  0  0  0  0  0  0  0  0
   29.2610   56.1930   -4.3950 O   0  0  0  0  0  0  0  0  0  0  0  0
   28.8290   54.5510   -6.0520 C   0  0  0  0  0  0  0  0  0  0  0  0
   33.6560   46.8180   -3.2970 C   0  0  0  0  0  0  0  0  0  0  0  0
   34.1400   49.0240   -4.1340 C   0  0  0  0  0  0  0  0  0  0  0  0
   34.5650   47.8530   -3.5120 C   0  0  0  0  0  0  0  0  0  0  0  0
  1  2  1  0
  2  3  2  0
  2  4  1  0
  3  5  1  0
  4  6  2  0
  3  7  1  0
  5  8  1  6
  6  9  1  0
  7  9  2  0
  6 10  1  0
  5 11  1  0
  8 12  1  0
  8 13  2  0
  9 14  1  0
 10 15  1  0
 11 16  2  0
 11 17  1  0
 15 18  2  0
 14 19  2  0
 15 19  1  0
 16 20  1  0
 17 21  2  0
 20 22  2  0
 21 22  1  0
M  END
