mac-x0132-mac-x0255
     RDKit          3D

 26 29  0  0  0  0  0  0  0  0999 V2000
   28.5710   52.3930   -7.1800 N   0  0  0  0  0  0  0  0  0  0  0  0
   28.8490   53.0460   -5.9660 C   0  0  0  0  0  0  0  0  0  0  0  0
   28.6570   54.3700   -5.9640 N   0  0  0  0  0  0  0  0  0  0  0  0
   29.2980   52.3360   -4.8380 C   0  0  0  0  0  0  0  0  0  0  0  0
   29.5350   53.1170   -3.6990 C   0  0  0  0  0  0  0  0  0  0  0  0
   28.9190   55.0040   -4.8180 C   0  0  0  0  0  0  0  0  0  0  0  0
   29.5160   50.9340   -4.7850 C   0  0  0  0  0  0  0  0  0  0  0  0
   29.3490   54.4420   -3.6800 N   0  0  0  0  0  0  0  0  0  0  0  0
   29.9790   52.4880   -2.5450 C   0  0  0  0  0  0  0  0  0  0  0  0
   29.9660   50.3160   -3.6140 C   0  0  0  0  0  0  0  0  0  0  0  0
   30.1970   48.8250   -3.5650 C   0  0  0  0  0  0  0  0  0  0  0  0
   30.1950   51.1080   -2.4890 C   0  0  0  0  0  0  0  0  0  0  0  0
   29.8150   48.1830   -2.2210 C   0  0  0  0  0  0  0  0  0  0  0  0
   29.3910   46.7360   -2.3540 C   0  0  0  0  0  0  0  0  0  0  0  0
   30.0360   45.7900   -3.2000 C   0  0  0  0  0  0  0  0  0  0  0  0
   28.2920   46.2800   -1.5980 C   0  0  0  0  0  0  0  0  0  0  0  0
   29.6060   44.4630   -3.2880 C   0  0  0  0  0  0  0  0  0  0  0  0
   31.3960   46.0480   -4.2380 S   0  0  0  0  0  0  0  0  0  0  0  0
   27.8510   44.9670   -1.6710 C   0  0  0  0  0  0  0  0  0  0  0  0
   31.4140   44.4380   -4.7910 C   0  0  0  0  0  0  0  0  0  0  0  0
   30.4090   43.7030   -4.2050 C   0  0  0  0  0  0  0  0  0  0  0  0
   28.4970   44.0560   -2.5090 C   0  0  0  0  0  0  0  0  0  0  0  0
   32.4410   43.9840   -5.7870 C   0  0  0  0  0  0  0  0  0  0  0  0
   32.6450   44.9940   -6.8930 C   0  0  0  0  0  0  0  0  0  0  0  0
   31.7780   44.8020   -7.9150 O   0  0  0  0  0  0  0  0  0  0  0  0
   33.4570   45.9020   -6.9570 O   0  0  0  0  0  0  0  0  0  0  0  0
  1  2  1  0
  2  3  2  0
  2  4  1  0
  4  5  2  0
  3  6  1  0
  4  7  1  0
  5  8  1  0
  6  8  2  0
  5  9  1  0
  7 10  2  0
 10 11  1  0
  9 12  2  0
 10 12  1  0
 11 13  1  0
 13 14  1  0
 14 15  1  0
 14 16  2  0
 15 17  2  0
 15 18  1  0
 16 19  1  0
 18 20  1  0
 17 21  1  0
 20 21  2  0
 17 22  1  0
 19 22  2  0
 20 23  1  0
 23 24  1  0
 24 25  1  0
 24 26  2  0
M  END
