mac-x0341-mac-x0588
     RDKit          3D

 22 25  0  0  0  0  0  0  0  0999 V2000
   28.6860   54.7420   -6.6100 N   0  0  0  0  0  0  0  0  0  0  0  0
   28.8930   53.4810   -6.1370 C   0  0  0  0  0  0  0  0  0  0  0  0
   28.6430   52.5030   -6.9900 N   0  0  0  0  0  0  0  0  0  0  0  0
   29.3080   53.2710   -4.9340 N   0  0  0  0  0  0  0  0  0  0  0  0
   29.5370   52.0020   -4.4020 C   0  0  0  0  0  0  0  0  0  0  0  0
   28.8370   51.2790   -6.6240 C   0  0  0  0  0  0  0  0  0  0  0  0
   29.8960   51.8900   -3.2440 O   0  0  0  0  0  0  0  0  0  0  0  0
   29.3320   50.8060   -5.3040 C   0  0  0  0  0  0  0  0  0  0  0  0
   28.5150   50.3290   -7.6710 C   0  0  0  0  0  0  0  0  0  0  0  0
   28.0210   50.9170   -8.7980 N   0  0  0  0  0  0  0  0  0  0  0  0
   28.7190   49.0640   -7.4550 C   0  0  0  0  0  0  0  0  0  0  0  0
   29.5380   49.4120   -5.0670 C   0  0  0  0  0  0  0  0  0  0  0  0
   30.0210   48.5280   -3.8700 C   0  0  0  0  0  0  0  0  0  0  0  0
   29.2420   48.5330   -6.2160 C   0  0  0  0  0  0  0  0  0  0  0  0
   28.4990   48.0450   -8.3220 N   0  0  0  0  0  0  0  0  0  0  0  0
   29.1630   47.2280   -3.5860 C   0  0  2  0  0  0  0  0  0  0  0  0
   29.3700   47.2470   -6.3720 N   0  0  0  0  0  0  0  0  0  0  0  0
   28.9050   47.0160   -7.6560 C   0  0  0  0  0  0  0  0  0  0  0  0
   28.5280   47.3280   -2.2940 O   0  0  0  0  0  0  0  0  0  0  0  0
   29.9140   45.8910   -3.5040 C   0  0  0  0  0  0  0  0  0  0  0  0
   28.9630   45.0250   -2.6940 C   0  0  0  0  0  0  0  0  0  0  0  0
   28.3830   46.0230   -1.7120 C   0  0  0  0  0  0  0  0  0  0  0  0
  1  2  1  0
  2  3  1  0
  2  4  2  0
  4  5  1  0
  3  6  2  0
  5  7  2  0
  5  8  1  0
  6  8  1  0
  6  9  1  0
  9 10  1  0
  9 11  2  0
  8 12  2  0
 12 13  1  0
 11 14  1  0
 12 14  1  0
 11 15  1  0
 16 13  1  1
 14 17  2  0
 15 18  2  0
 17 18  1  0
 16 19  1  0
 16 20  1  0
 20 21  1  0
 19 22  1  0
 21 22  1  0
M  END
