mac-x0284-mac-x0587
     RDKit          3D

 18 19  0  0  0  0  0  0  0  0999 V2000
   28.3750   51.4950   -6.0870 C   0  0  0  0  0  0  0  0  0  0  0  0
   29.0120   50.5370   -5.1320 C   0  0  0  0  0  0  0  0  0  0  0  0
   29.3720   50.9670   -3.8550 C   0  0  0  0  0  0  0  0  0  0  0  0
   29.2510   49.2080   -5.5040 C   0  0  0  0  0  0  0  0  0  0  0  0
   29.8450   48.3270   -4.5960 C   0  0  0  0  0  0  0  0  0  0  0  0
   29.9610   50.0850   -2.9600 C   0  0  0  0  0  0  0  0  0  0  0  0
   30.1040   46.9220   -4.9610 C   0  0  0  0  0  0  0  0  0  0  0  0
   30.1980   48.7680   -3.3180 C   0  0  0  0  0  0  0  0  0  0  0  0
   30.7800   47.9830   -2.3420 N   0  0  0  0  0  0  0  0  0  0  0  0
   29.9150   46.5450   -6.1210 O   0  0  0  0  0  0  0  0  0  0  0  0
   30.5750   46.0270   -3.8310 C   0  0  1  0  0  0  0  0  0  0  0  0
   29.4390   45.0640   -3.4860 C   0  0  0  0  0  0  0  0  0  0  0  0
   32.0810   45.0480   -4.2450 S   0  0  0  0  0  0  0  0  0  0  0  0
   30.9410   46.7460   -2.5730 C   0  0  0  0  0  0  0  0  0  0  0  0
   33.1360   46.2770   -5.0710 C   0  0  0  0  0  0  0  0  0  0  0  0
   33.4160   45.8630   -6.4970 C   0  0  0  0  0  0  0  0  0  0  0  0
   34.5010   45.8760   -7.0490 O   0  0  0  0  0  0  0  0  0  0  0  0
   32.2950   45.4510   -7.1390 O   0  0  0  0  0  0  0  0  0  0  0  0
  1  2  1  0
  2  3  2  0
  2  4  1  0
  4  5  2  0
  3  6  1  0
  5  7  1  0
  5  8  1  0
  6  8  2  0
  8  9  1  0
  7 10  2  0
  7 11  1  0
 11 12  1  1
 11 13  1  0
  9 14  2  0
 11 14  1  0
 13 15  1  0
 15 16  1  0
 16 17  2  0
 16 18  1  0
M  END
