mac-x0321-mac-x0453
     RDKit          3D

 12 12  0  0  0  0  0  0  0  0999 V2000
   28.8620   52.4340   -6.5080 C   0  0  0  0  0  0  0  0  0  0  0  0
   29.9320   53.4970   -6.8020 C   0  0  0  0  0  0  0  0  0  0  0  0
   29.3400   54.6870   -7.4030 N   0  0  0  0  0  0  0  0  0  0  0  0
   29.2180   51.5960   -5.3000 C   0  0  0  0  0  0  0  0  0  0  0  0
   29.6630   50.2750   -5.4520 C   0  0  0  0  0  0  0  0  0  0  0  0
   29.1060   52.1340   -4.0120 C   0  0  0  0  0  0  0  0  0  0  0  0
   29.9900   49.5080   -4.3250 C   0  0  0  0  0  0  0  0  0  0  0  0
   29.4300   51.3720   -2.8880 C   0  0  0  0  0  0  0  0  0  0  0  0
   30.4620   48.1110   -4.4520 C   0  0  0  0  0  0  0  0  0  0  0  0
   29.8730   50.0560   -3.0420 C   0  0  0  0  0  0  0  0  0  0  0  0
   29.9770   47.4920   -5.5520 O   0  0  0  0  0  0  0  0  0  0  0  0
   31.2090   47.5780   -3.6520 O   0  0  0  0  0  0  0  0  0  0  0  0
  1  2  1  0
  2  3  1  0
  1  4  1  0
  4  5  2  0
  4  6  1  0
  5  7  1  0
  6  8  2  0
  7  9  1  0
  7 10  2  0
  8 10  1  0
  9 11  1  0
  9 12  2  0
M  END
