mac-x0271-mac-x0131
     RDKit          3D

 28 32  0  0  0  0  0  0  0  0999 V2000
   29.0370   56.3620   -3.1290 O   0  0  0  0  0  0  0  0  0  0  0  0
   29.7140   55.3580   -3.3220 C   0  0  0  0  0  0  0  0  0  0  0  0
   31.1840   55.4210   -3.2510 C   0  0  0  0  0  0  0  0  0  0  0  0
   29.1600   54.1200   -3.6110 O   0  0  0  0  0  0  0  0  0  0  0  0
   29.9600   53.0760   -4.1150 C   0  0  0  0  0  0  0  0  0  0  0  0
   31.9640   54.4050   -3.6320 C   0  0  0  0  0  0  0  0  0  0  0  0
   29.3080   51.9390   -4.5820 C   0  0  0  0  0  0  0  0  0  0  0  0
   31.3490   53.1900   -4.1390 C   0  0  0  0  0  0  0  0  0  0  0  0
   30.0630   50.8810   -5.0900 C   0  0  0  0  0  0  0  0  0  0  0  0
   32.1030   52.1310   -4.6480 C   0  0  0  0  0  0  0  0  0  0  0  0
   31.4620   50.9810   -5.1220 C   0  0  0  0  0  0  0  0  0  0  0  0
   29.3950   49.6800   -5.5880 C   0  0  0  0  0  0  0  0  0  0  0  0
   28.5190   49.5610   -6.6650 C   0  0  0  0  0  0  0  0  0  0  0  0
   29.5440   48.4200   -5.0330 N   0  0  0  0  0  0  0  0  0  0  0  0
   28.0620   50.6580   -7.5610 C   0  0  0  0  0  0  0  0  0  0  0  0
   30.3750   48.0700   -3.8830 C   0  0  0  0  0  0  0  0  0  0  0  0
   28.1320   48.1840   -6.7530 C   0  0  0  0  0  0  0  0  0  0  0  0
   28.7840   47.5110   -5.7300 C   0  0  0  0  0  0  0  0  0  0  0  0
   27.2990   47.4070   -7.5780 C   0  0  0  0  0  0  0  0  0  0  0  0
   28.6910   46.1950   -5.4590 N   0  0  0  0  0  0  0  0  0  0  0  0
   31.8200   48.0870   -4.2320 C   0  0  0  0  0  0  0  0  0  0  0  0
   26.5680   47.9110   -8.6470 N   0  0  0  0  0  0  0  0  0  0  0  0
   27.1810   46.0890   -7.3390 N   0  0  0  0  0  0  0  0  0  0  0  0
   27.8720   45.5650   -6.3100 C   0  0  0  0  0  0  0  0  0  0  0  0
   32.5010   48.0580   -5.4300 C   0  0  0  0  0  0  0  0  0  0  0  0
   32.7090   48.1420   -3.1950 O   0  0  0  0  0  0  0  0  0  0  0  0
   33.9510   48.1520   -3.7380 C   0  0  0  0  0  0  0  0  0  0  0  0
   33.8780   48.1000   -5.1100 C   0  0  0  0  0  0  0  0  0  0  0  0
  1  2  2  0
  2  3  1  0
  2  4  1  0
  4  5  1  0
  3  6  2  0
  5  7  2  0
  5  8  1  0
  6  8  1  0
  7  9  1  0
  8 10  2  0
  9 11  2  0
 10 11  1  0
  9 12  1  0
 12 13  2  0
 12 14  1  0
 13 15  1  0
 14 16  1  0
 13 17  1  0
 14 18  1  0
 17 18  2  0
 17 19  1  0
 18 20  1  0
 16 21  1  0
 19 22  1  0
 19 23  2  0
 20 24  2  0
 23 24  1  0
 21 25  2  0
 21 26  1  0
 26 27  1  0
 25 28  1  0
 27 28  2  0
M  END
