mac-x0224-mac-x0271
     RDKit          3D

 23 25  0  0  0  0  0  0  0  0999 V2000
   26.8320   49.9120   -7.6910 C   0  0  0  0  0  0  0  0  0  0  0  0
   26.9280   48.1380   -7.2890 S   0  0  0  0  0  0  0  0  0  0  0  0
   28.3080   48.2050   -6.1760 C   0  0  0  0  0  0  0  0  0  0  0  0
   29.0050   47.1250   -5.6640 C   0  0  0  0  0  0  0  0  0  0  0  0
   28.6880   49.4540   -5.8220 C   0  0  0  0  0  0  0  0  0  0  0  0
   30.0890   47.3330   -4.7880 C   0  0  0  0  0  0  0  0  0  0  0  0
   29.7350   49.7280   -4.9770 C   0  0  0  0  0  0  0  0  0  0  0  0
   30.7430   46.0840   -4.3370 C   0  0  0  0  0  0  0  0  0  0  0  0
   30.4710   48.6530   -4.4220 C   0  0  0  0  0  0  0  0  0  0  0  0
   29.7980   51.1750   -4.9100 C   0  0  0  0  0  0  0  0  0  0  0  0
   31.5200   48.9090   -3.5740 O   0  0  0  0  0  0  0  0  0  0  0  0
   31.1110   45.1860   -5.0730 O   0  0  0  0  0  0  0  0  0  0  0  0
   30.9110   45.9980   -3.0060 O   0  0  0  0  0  0  0  0  0  0  0  0
   29.8300   52.0400   -3.8070 C   0  0  0  0  0  0  0  0  0  0  0  0
   29.7910   51.7110   -6.2000 C   0  0  0  0  0  0  0  0  0  0  0  0
   29.8460   53.4240   -4.0760 C   0  0  0  0  0  0  0  0  0  0  0  0
   29.8100   53.0600   -6.4440 C   0  0  0  0  0  0  0  0  0  0  0  0
   29.8320   53.9270   -5.3830 C   0  0  0  0  0  0  0  0  0  0  0  0
   29.8670   54.3260   -2.9980 O   0  0  0  0  0  0  0  0  0  0  0  0
   29.8390   55.3530   -5.6150 C   0  0  0  0  0  0  0  0  0  0  0  0
   29.5070   55.6540   -3.2170 C   0  0  0  0  0  0  0  0  0  0  0  0
   29.0640   56.3780   -2.3380 O   0  0  0  0  0  0  0  0  0  0  0  0
   29.6810   56.1670   -4.5820 C   0  0  0  0  0  0  0  0  0  0  0  0
  1  2  1  0
  2  3  1  0
  3  4  2  0
  3  5  1  0
  4  6  1  0
  5  7  2  0
  6  8  1  0
  6  9  2  0
  7  9  1  0
  7 10  1  0
  9 11  1  0
  8 12  2  0
  8 13  1  0
 10 14  2  0
 10 15  1  0
 14 16  1  0
 15 17  2  0
 16 18  2  0
 17 18  1  0
 16 19  1  0
 18 20  1  0
 19 21  1  0
 21 22  2  0
 20 23  2  0
 21 23  1  0
M  END
