mac-x0496-mac-x0206
     RDKit          3D

 28 30  0  0  0  0  0  0  0  0999 V2000
   24.4360   59.2700   -6.1830 C   0  0  0  0  0  0  0  0  0  0  0  0
   25.7100   58.8150   -5.5990 C   0  0  0  0  0  0  0  0  0  0  0  0
   26.2610   59.4020   -4.5290 N   0  0  0  0  0  0  0  0  0  0  0  0
   26.4180   57.7610   -6.1110 N   0  0  0  0  0  0  0  0  0  0  0  0
   27.4290   58.6620   -4.3240 O   0  0  0  0  0  0  0  0  0  0  0  0
   27.4540   57.7080   -5.2990 C   0  0  0  0  0  0  0  0  0  0  0  0
   28.6030   56.7750   -5.3060 C   0  0  0  0  0  0  0  0  0  0  0  0
   28.1030   55.4480   -5.6000 N   0  0  0  0  0  0  0  0  0  0  0  0
   27.6930   54.6000   -4.5980 C   0  0  0  0  0  0  0  0  0  0  0  0
   27.4240   54.9830   -3.4640 O   0  0  0  0  0  0  0  0  0  0  0  0
   27.5940   53.1590   -4.9540 C   0  0  0  0  0  0  0  0  0  0  0  0
   26.6180   52.7370   -5.8610 C   0  0  0  0  0  0  0  0  0  0  0  0
   28.4660   52.2220   -4.3970 C   0  0  0  0  0  0  0  0  0  0  0  0
   26.5240   51.3880   -6.2020 C   0  0  0  0  0  0  0  0  0  0  0  0
   28.4000   50.8610   -4.7250 C   0  0  0  0  0  0  0  0  0  0  0  0
   29.3850   49.8540   -4.1240 C   0  0  0  0  0  0  0  0  0  0  0  0
   27.4070   50.4590   -5.6410 C   0  0  0  0  0  0  0  0  0  0  0  0
   29.2100   48.5540   -4.6940 O   0  0  0  0  0  0  0  0  0  0  0  0
   29.0880   49.8140   -2.7280 O   0  0  0  0  0  0  0  0  0  0  0  0
   30.8510   50.3830   -4.4630 C   0  0  1  0  0  0  0  0  0  0  0  0
   31.6340   49.5190   -5.3920 N   0  0  0  0  0  0  0  0  0  0  0  0
   30.8190   51.7990   -5.0640 C   0  0  0  0  0  0  0  0  0  0  0  0
   31.2650   52.9010   -4.3080 C   0  0  0  0  0  0  0  0  0  0  0  0
   30.3450   52.0680   -6.3610 C   0  0  0  0  0  0  0  0  0  0  0  0
   31.7440   52.7390   -3.0330 O   0  0  0  0  0  0  0  0  0  0  0  0
   31.2400   54.2020   -4.8080 C   0  0  0  0  0  0  0  0  0  0  0  0
   30.3160   53.3720   -6.8710 C   0  0  0  0  0  0  0  0  0  0  0  0
   30.7640   54.4370   -6.0930 C   0  0  0  0  0  0  0  0  0  0  0  0
  1  2  1  0
  2  3  2  0
  2  4  1  0
  3  5  1  0
  4  6  2  0
  5  6  1  0
  6  7  1  0
  7  8  1  0
  8  9  1  0
  9 10  2  0
  9 11  1  0
 11 12  2  0
 11 13  1  0
 12 14  1  0
 13 15  2  0
 15 16  1  0
 14 17  2  0
 15 17  1  0
 16 18  1  0
 16 19  1  0
 16 20  1  0
 20 21  1  6
 20 22  1  0
 22 23  2  0
 22 24  1  0
 23 25  1  0
 23 26  1  0
 24 27  2  0
 26 28  2  0
 27 28  1  0
M  END
