mac-x0344-mac-x0568
     RDKit          3D

 25 26  0  0  0  0  0  0  0  0999 V2000
   31.9510   44.0040   -4.4560 O   0  0  0  0  0  0  0  0  0  0  0  0
   32.1680   45.0650   -5.2540 C   0  0  0  0  0  0  0  0  0  0  0  0
   31.3400   45.4530   -6.1640 N   0  0  0  0  0  0  0  0  0  0  0  0
   33.5000   45.7370   -4.9410 C   0  0  0  0  0  0  0  0  0  0  0  0
   34.0220   46.3710   -5.8580 O   0  0  0  0  0  0  0  0  0  0  0  0
   34.1030   45.6440   -3.7110 N   0  0  0  0  0  0  0  0  0  0  0  0
   31.7160   46.6360   -6.9410 C   0  0  0  0  0  0  0  0  0  0  0  0
   30.4460   47.3930   -7.3350 C   0  0  0  0  0  0  0  0  0  0  0  0
   35.2310   46.3080   -3.1980 C   0  0  0  0  0  0  0  0  0  0  0  0
   30.4950   48.8610   -6.9230 C   0  0  0  0  0  0  0  0  0  0  0  0
   36.1930   45.5260   -2.5390 C   0  0  0  0  0  0  0  0  0  0  0  0
   35.4460   47.6790   -3.3060 C   0  0  0  0  0  0  0  0  0  0  0  0
   29.3710   49.2310   -6.0780 N   0  0  0  0  0  0  0  0  0  0  0  0
   37.3450   46.1140   -2.0040 C   0  0  0  0  0  0  0  0  0  0  0  0
   36.5970   48.2670   -2.7710 C   0  0  0  0  0  0  0  0  0  0  0  0
   29.5820   50.0190   -4.9600 C   0  0  0  0  0  0  0  0  0  0  0  0
   37.5460   47.4830   -2.1210 C   0  0  0  0  0  0  0  0  0  0  0  0
   29.7960   49.5680   -3.8420 O   0  0  0  0  0  0  0  0  0  0  0  0
   29.5460   51.4910   -5.1590 C   0  0  0  0  0  0  0  0  0  0  0  0
   29.8980   52.3070   -4.0940 C   0  0  0  0  0  0  0  0  0  0  0  0
   29.1780   52.1030   -6.3560 C   0  0  0  0  0  0  0  0  0  0  0  0
   29.9070   53.6640   -4.1480 N   0  0  0  0  0  0  0  0  0  0  0  0
   29.1800   53.5000   -6.4380 C   0  0  0  0  0  0  0  0  0  0  0  0
   29.5510   54.2400   -5.3160 C   0  0  0  0  0  0  0  0  0  0  0  0
   29.5640   55.7410   -5.3710 C   0  0  0  0  0  0  0  0  0  0  0  0
  1  2  1  0
  2  3  2  3
  2  4  1  0
  4  5  2  0
  4  6  1  0
  3  7  1  0
  7  8  1  0
  6  9  1  0
  8 10  1  0
  9 11  2  0
  9 12  1  0
 10 13  1  0
 11 14  1  0
 12 15  2  0
 13 16  1  0
 14 17  2  0
 15 17  1  0
 16 18  2  0
 16 19  1  0
 19 20  2  0
 19 21  1  0
 20 22  1  0
 21 23  2  0
 22 24  2  0
 23 24  1  0
 24 25  1  0
M  END
