mac-x0188-mac-x0284
     RDKit          3D

 18 19  0  0  0  0  0  0  0  0999 V2000
   32.7390   44.3880   -3.8400 C   0  0  0  0  0  0  0  0  0  0  0  0
   32.1690   45.7470   -3.7520 C   0  0  0  0  0  0  0  0  0  0  0  0
   32.6220   46.5170   -2.7340 O   0  0  0  0  0  0  0  0  0  0  0  0
   31.2390   46.4430   -4.4960 C   0  0  0  0  0  0  0  0  0  0  0  0
   30.5050   45.9640   -5.6810 C   0  0  0  0  0  0  0  0  0  0  0  0
   32.0040   47.7440   -2.7800 N   0  0  0  0  0  0  0  0  0  0  0  0
   31.1700   47.7160   -3.8350 C   0  0  0  0  0  0  0  0  0  0  0  0
   29.2250   46.5040   -5.8270 O   0  0  0  0  0  0  0  0  0  0  0  0
   31.1540   46.2380   -6.8990 O   0  0  0  0  0  0  0  0  0  0  0  0
   30.3500   44.5760   -5.6620 O   0  0  0  0  0  0  0  0  0  0  0  0
   30.3650   48.8960   -4.1400 C   0  0  0  0  0  0  0  0  0  0  0  0
   29.9080   49.7260   -3.1100 C   0  0  0  0  0  0  0  0  0  0  0  0
   30.0320   49.2210   -5.4600 C   0  0  0  0  0  0  0  0  0  0  0  0
   30.1900   49.4750   -1.7930 O   0  0  0  0  0  0  0  0  0  0  0  0
   29.1360   50.8590   -3.3880 C   0  0  0  0  0  0  0  0  0  0  0  0
   29.2610   50.3500   -5.7420 C   0  0  0  0  0  0  0  0  0  0  0  0
   28.8080   51.1770   -4.7110 C   0  0  0  0  0  0  0  0  0  0  0  0
   27.9820   52.3850   -5.0230 C   0  0  0  0  0  0  0  0  0  0  0  0
  1  2  1  0
  2  3  1  0
  2  4  2  0
  4  5  1  0
  3  6  1  0
  4  7  1  0
  6  7  2  0
  5  8  1  0
  5  9  1  0
  5 10  1  0
  7 11  1  0
 11 12  2  0
 11 13  1  0
 12 14  1  0
 12 15  1  0
 13 16  2  0
 15 17  2  0
 16 17  1  0
 17 18  1  0
M  END
