mac-x0365-mac-x0373
     RDKit          3D

 19 20  0  0  0  0  0  0  0  0999 V2000
   30.6130   47.8480   -5.5030 C   0  0  0  0  0  0  0  0  0  0  0  0
   30.9590   49.0180   -4.5860 C   0  0  0  0  0  0  0  0  0  0  0  0
   32.0450   48.9350   -3.8530 N   0  0  0  0  0  0  0  0  0  0  0  0
   31.1040   48.0150   -6.7350 O   0  0  0  0  0  0  0  0  0  0  0  0
   29.9600   46.8780   -5.1660 O   0  0  0  0  0  0  0  0  0  0  0  0
   30.0050   50.1520   -4.6230 C   0  0  0  0  0  0  0  0  0  0  0  0
   29.7970   50.9170   -3.4730 C   0  0  0  0  0  0  0  0  0  0  0  0
   29.3150   50.4560   -5.8070 C   0  0  0  0  0  0  0  0  0  0  0  0
   32.9110   47.8320   -3.8580 C   0  0  0  0  0  0  0  0  0  0  0  0
   28.8990   51.9800   -3.5170 C   0  0  0  0  0  0  0  0  0  0  0  0
   28.4170   51.5260   -5.8430 C   0  0  0  0  0  0  0  0  0  0  0  0
   32.6540   46.6950   -3.0830 C   0  0  0  0  0  0  0  0  0  0  0  0
   34.0620   47.8640   -4.6520 C   0  0  0  0  0  0  0  0  0  0  0  0
   28.7020   52.7090   -2.4090 F   0  0  0  0  0  0  0  0  0  0  0  0
   28.2120   52.2860   -4.6930 C   0  0  0  0  0  0  0  0  0  0  0  0
   33.5340   45.6100   -3.1010 C   0  0  0  0  0  0  0  0  0  0  0  0
   34.9440   46.7810   -4.6710 C   0  0  0  0  0  0  0  0  0  0  0  0
   27.3420   53.3360   -4.6940 O   0  0  0  0  0  0  0  0  0  0  0  0
   34.6780   45.6530   -3.8940 C   0  0  0  0  0  0  0  0  0  0  0  0
  1  2  1  0
  2  3  2  3
  1  4  1  0
  1  5  2  0
  2  6  1  0
  6  7  2  0
  6  8  1  0
  3  9  1  0
  7 10  1  0
  8 11  2  0
  9 12  2  0
  9 13  1  0
 10 14  1  0
 10 15  2  0
 11 15  1  0
 12 16  1  0
 13 17  2  0
 15 18  1  0
 16 19  2  0
 17 19  1  0
M  END
