mac-x0412-mac-x0375
     RDKit          3D

 25 27  0  0  0  0  0  0  0  0999 V2000
   29.9070   54.3950   -3.9990 O   0  0  0  0  0  0  0  0  0  0  0  0
   29.2640   53.7230   -4.8070 C   0  0  0  0  0  0  0  0  0  0  0  0
   28.7800   54.2820   -5.9750 N   0  0  0  0  0  0  0  0  0  0  0  0
   28.9570   52.2230   -4.5530 C   0  0  1  0  0  0  0  0  0  0  0  0
   29.0040   51.4420   -5.8560 C   0  0  0  0  0  0  0  0  0  0  0  0
   28.5850   53.5030   -6.9840 C   0  0  0  0  0  0  0  0  0  0  0  0
   29.8550   51.6070   -3.5000 C   0  0  0  0  0  0  0  0  0  0  0  0
   28.8250   52.0510   -7.0350 C   0  0  0  0  0  0  0  0  0  0  0  0
   29.2480   50.0110   -5.7590 C   0  0  0  0  0  0  0  0  0  0  0  0
   30.2570   50.3270   -3.5720 C   0  0  0  0  0  0  0  0  0  0  0  0
   29.8440   49.4720   -4.6740 C   0  0  0  0  0  0  0  0  0  0  0  0
   30.1110   47.9900   -4.5420 C   0  0  0  0  0  0  0  0  0  0  0  0
   31.0120   47.3620   -5.6160 C   0  0  0  0  0  0  0  0  0  0  0  0
   30.7650   45.8700   -5.8350 C   0  0  0  0  0  0  0  0  0  0  0  0
   31.8060   45.2380   -6.5920 O   0  0  0  0  0  0  0  0  0  0  0  0
   33.0400   45.1830   -6.0120 C   0  0  0  0  0  0  0  0  0  0  0  0
   34.1000   45.2620   -6.6220 O   0  0  0  0  0  0  0  0  0  0  0  0
   32.9480   45.0030   -4.5060 C   0  0  0  0  0  0  0  0  0  0  0  0
   34.1990   44.6080   -3.9310 O   0  0  0  0  0  0  0  0  0  0  0  0
   34.9910   45.6940   -3.6320 C   0  0  0  0  0  0  0  0  0  0  0  0
   36.3650   45.5160   -3.4760 C   0  0  0  0  0  0  0  0  0  0  0  0
   34.4190   46.9580   -3.4860 C   0  0  0  0  0  0  0  0  0  0  0  0
   37.1750   46.6100   -3.1720 C   0  0  0  0  0  0  0  0  0  0  0  0
   35.2310   48.0500   -3.1810 C   0  0  0  0  0  0  0  0  0  0  0  0
   36.6090   47.8780   -3.0240 C   0  0  0  0  0  0  0  0  0  0  0  0
  1  2  2  0
  2  3  1  0
  2  4  1  0
  4  5  1  0
  3  6  2  0
  4  7  1  1
  5  8  2  0
  6  8  1  0
  5  9  1  0
  7 10  2  0
  9 11  2  0
 10 11  1  0
 11 12  1  0
 12 13  1  0
 13 14  1  0
 14 15  1  0
 15 16  1  0
 16 17  2  0
 16 18  1  0
 18 19  1  0
 19 20  1  0
 20 21  2  0
 20 22  1  0
 21 23  1  0
 22 24  2  0
 23 25  2  0
 24 25  1  0
M  END
