mac-x0510-mac-x0358
     RDKit          3D

 23 25  0  0  0  0  0  0  0  0999 V2000
   28.9490   53.3170   -5.9830 O   0  0  0  0  0  0  0  0  0  0  0  0
   28.9470   52.0880   -5.9340 C   0  0  0  0  0  0  0  0  0  0  0  0
   28.9320   51.4300   -4.7170 N   0  0  0  0  0  0  0  0  0  0  0  0
   28.9600   51.3100   -7.0600 N   0  0  0  0  0  0  0  0  0  0  0  0
   28.8320   49.9590   -6.9630 C   0  0  0  0  0  0  0  0  0  0  0  0
   29.0170   50.0670   -4.5200 C   0  0  0  0  0  0  0  0  0  0  0  0
   29.2150   49.5010   -3.3760 N   0  0  0  0  0  0  0  0  0  0  0  0
   28.8580   49.3390   -5.7430 C   0  0  0  0  0  0  0  0  0  0  0  0
   28.6710   49.0920   -7.9890 N   0  0  0  0  0  0  0  0  0  0  0  0
   29.3110   48.0550   -3.1550 C   0  0  0  0  0  0  0  0  0  0  0  0
   28.7030   48.0150   -6.0320 N   0  0  0  0  0  0  0  0  0  0  0  0
   28.5960   47.9150   -7.4020 C   0  0  0  0  0  0  0  0  0  0  0  0
   30.7290   47.5500   -3.0190 C   0  0  0  0  0  0  0  0  0  0  0  0
   31.6110   48.1320   -2.0950 C   0  0  0  0  0  0  0  0  0  0  0  0
   31.1860   46.4950   -3.8180 C   0  0  0  0  0  0  0  0  0  0  0  0
   32.4950   46.0190   -3.7180 C   0  0  0  0  0  0  0  0  0  0  0  0
   32.9230   47.6690   -1.9820 C   0  0  0  0  0  0  0  0  0  0  0  0
   32.9430   44.8820   -4.6040 C   0  0  0  0  0  0  0  0  0  0  0  0
   33.3530   46.6220   -2.7920 C   0  0  0  0  0  0  0  0  0  0  0  0
   33.0250   45.2520   -6.0690 C   0  0  0  0  0  0  0  0  0  0  0  0
   34.6390   46.1570   -2.6980 O   0  0  0  0  0  0  0  0  0  0  0  0
   32.0290   44.7410   -6.8300 O   0  0  0  0  0  0  0  0  0  0  0  0
   33.9140   45.9490   -6.5430 O   0  0  0  0  0  0  0  0  0  0  0  0
  1  2  2  0
  2  3  1  0
  2  4  1  0
  4  5  1  0
  3  6  1  0
  6  7  2  3
  5  8  2  0
  6  8  1  0
  5  9  1  0
  7 10  1  0
  8 11  1  0
  9 12  2  0
 11 12  1  0
 10 13  1  0
 13 14  2  0
 13 15  1  0
 15 16  2  0
 14 17  1  0
 16 18  1  0
 16 19  1  0
 17 19  2  0
 18 20  1  0
 19 21  1  0
 20 22  1  0
 20 23  2  0
M  END
