mac-x0358-mac-x0496
     RDKit          3D

 31 33  0  0  0  0  0  0  0  0999 V2000
   31.7170   45.2420   -6.7860 O   0  0  0  0  0  0  0  0  0  0  0  0
   32.7970   45.5090   -6.0160 C   0  0  0  0  0  0  0  0  0  0  0  0
   33.7230   46.1470   -6.4860 O   0  0  0  0  0  0  0  0  0  0  0  0
   32.6710   44.9430   -4.6230 C   0  0  0  0  0  0  0  0  0  0  0  0
   32.3680   46.0130   -3.6050 C   0  0  0  0  0  0  0  0  0  0  0  0
   33.3810   46.6790   -2.9120 C   0  0  0  0  0  0  0  0  0  0  0  0
   31.0460   46.3570   -3.3530 C   0  0  0  0  0  0  0  0  0  0  0  0
   34.6770   46.3470   -3.1750 O   0  0  0  0  0  0  0  0  0  0  0  0
   33.0790   47.6690   -1.9720 C   0  0  0  0  0  0  0  0  0  0  0  0
   30.7220   47.3470   -2.4300 C   0  0  0  0  0  0  0  0  0  0  0  0
   29.2710   47.6860   -2.2440 C   0  0  0  0  0  0  0  0  0  0  0  0
   31.7460   48.0020   -1.7310 C   0  0  0  0  0  0  0  0  0  0  0  0
   28.8340   48.4820   -3.4070 N   0  0  0  0  0  0  0  0  0  0  0  0
   29.2680   49.6890   -3.4060 C   0  0  0  0  0  0  0  0  0  0  0  0
   30.0380   50.1610   -2.4100 O   0  0  0  0  0  0  0  0  0  0  0  0
   28.9920   50.6980   -4.4530 C   0  0  0  0  0  0  0  0  0  0  0  0
   28.5630   50.3020   -5.7280 C   0  0  0  0  0  0  0  0  0  0  0  0
   29.1610   52.0550   -4.1650 C   0  0  0  0  0  0  0  0  0  0  0  0
   28.3050   51.2690   -6.7070 C   0  0  0  0  0  0  0  0  0  0  0  0
   28.9040   53.0240   -5.1400 C   0  0  0  0  0  0  0  0  0  0  0  0
   29.1050   54.4530   -4.7560 C   0  0  0  0  0  0  0  0  0  0  0  0
   28.4730   52.6300   -6.4180 C   0  0  0  0  0  0  0  0  0  0  0  0
   29.0430   55.4040   -5.7550 N   0  0  0  0  0  0  0  0  0  0  0  0
   29.3190   54.7330   -3.5840 O   0  0  0  0  0  0  0  0  0  0  0  0
   29.2180   56.8120   -5.4130 C   0  0  0  0  0  0  0  0  0  0  0  0
   27.8890   57.4800   -5.3280 C   0  0  0  0  0  0  0  0  0  0  0  0
   27.6530   58.2710   -4.2370 O   0  0  0  0  0  0  0  0  0  0  0  0
   26.8710   57.4300   -6.1640 N   0  0  0  0  0  0  0  0  0  0  0  0
   25.9500   58.2380   -5.5490 C   0  0  0  0  0  0  0  0  0  0  0  0
   26.3550   58.7740   -4.3890 N   0  0  0  0  0  0  0  0  0  0  0  0
   24.6130   58.4950   -6.1220 C   0  0  0  0  0  0  0  0  0  0  0  0
  1  2  1  0
  2  3  2  0
  2  4  1  0
  4  5  1  0
  5  6  2  0
  5  7  1  0
  6  8  1  0
  6  9  1  0
  7 10  2  0
 10 11  1  0
  9 12  2  0
 10 12  1  0
 11 13  1  0
 13 14  2  3
 14 15  1  0
 14 16  1  0
 16 17  2  0
 16 18  1  0
 17 19  1  0
 18 20  2  0
 20 21  1  0
 19 22  2  0
 20 22  1  0
 21 23  1  0
 21 24  2  0
 23 25  1  0
 25 26  1  0
 26 27  1  0
 26 28  2  0
 28 29  1  0
 27 30  1  0
 29 30  2  0
 29 31  1  0
M  END
