mac-x0347-mac-x0433
     RDKit          3D

 17 18  0  0  0  0  0  0  0  0999 V2000
   30.2760   44.9000   -5.3940 O   0  0  0  0  0  0  0  0  0  0  0  0
   30.9590   46.0320   -5.6680 C   0  0  0  0  0  0  0  0  0  0  0  0
   31.8630   46.0870   -6.4850 O   0  0  0  0  0  0  0  0  0  0  0  0
   30.5130   47.2040   -4.8910 C   0  0  0  0  0  0  0  0  0  0  0  0
   30.2360   48.4460   -5.4710 C   0  0  0  0  0  0  0  0  0  0  0  0
   30.3590   47.0710   -3.5210 C   0  0  0  0  0  0  0  0  0  0  0  0
   29.8160   49.5150   -4.6660 C   0  0  0  0  0  0  0  0  0  0  0  0
   29.9560   48.0780   -2.7090 N   0  0  0  0  0  0  0  0  0  0  0  0
   29.6960   49.2710   -3.2970 C   0  0  0  0  0  0  0  0  0  0  0  0
   29.5200   50.8290   -5.2480 C   0  0  0  0  0  0  0  0  0  0  0  0
   28.7650   50.8850   -6.4340 C   0  0  0  0  0  0  0  0  0  0  0  0
   29.9700   52.0400   -4.6530 C   0  0  0  0  0  0  0  0  0  0  0  0
   30.7310   52.0120   -3.4610 N   0  0  0  0  0  0  0  0  0  0  0  0
   28.4550   52.1050   -7.0280 C   0  0  0  0  0  0  0  0  0  0  0  0
   29.6520   53.2740   -5.2620 C   0  0  0  0  0  0  0  0  0  0  0  0
   30.1000   54.5850   -4.6760 C   0  0  0  0  0  0  0  0  0  0  0  0
   28.8970   53.2880   -6.4440 C   0  0  0  0  0  0  0  0  0  0  0  0
  1  2  1  0
  2  3  2  0
  2  4  1  0
  4  5  2  0
  4  6  1  0
  5  7  1  0
  6  8  2  0
  7  9  2  0
  8  9  1  0
  7 10  1  0
 10 11  2  0
 10 12  1  0
 12 13  1  0
 11 14  1  0
 12 15  2  0
 15 16  1  0
 14 17  2  0
 15 17  1  0
M  END
