mac-x0412-mac-x0396
     RDKit          3D

 14 15  0  0  0  0  0  0  0  0999 V2000
   30.2220   54.5090   -4.1040 O   0  0  0  0  0  0  0  0  0  0  0  0
   29.4450   53.7490   -4.6740 C   0  0  0  0  0  0  0  0  0  0  0  0
   28.8860   54.0740   -5.8960 N   0  0  0  0  0  0  0  0  0  0  0  0
   29.0280   52.3800   -4.0820 C   0  0  1  0  0  0  0  0  0  0  0  0
   29.0680   51.3050   -5.1710 C   0  0  0  0  0  0  0  0  0  0  0  0
   28.6320   53.0950   -6.6990 C   0  0  0  0  0  0  0  0  0  0  0  0
   29.8230   52.0140   -2.8480 C   0  0  0  0  0  0  0  0  0  0  0  0
   28.8730   51.6500   -6.4630 C   0  0  0  0  0  0  0  0  0  0  0  0
   29.3230   49.9420   -4.7120 C   0  0  0  0  0  0  0  0  0  0  0  0
   30.2000   50.7540   -2.5940 C   0  0  0  0  0  0  0  0  0  0  0  0
   28.8920   50.6910   -7.6010 C   0  0  0  0  0  0  0  0  0  0  0  0
   29.8530   49.6920   -3.5060 C   0  0  0  0  0  0  0  0  0  0  0  0
   27.9980   50.9500   -8.5970 N   0  0  0  0  0  0  0  0  0  0  0  0
   29.6450   49.7290   -7.6720 O   0  0  0  0  0  0  0  0  0  0  0  0
  1  2  2  0
  2  3  1  0
  2  4  1  0
  4  5  1  0
  3  6  2  0
  4  7  1  1
  5  8  2  0
  6  8  1  0
  5  9  1  0
  7 10  2  0
  8 11  1  0
  9 12  2  0
 10 12  1  0
 11 13  1  0
 11 14  2  0
M  END
