mac-x0142-mac-x0283
     RDKit          3D

 22 26  0  0  0  0  0  0  0  0999 V2000
   28.1500   53.9510   -6.1720 N   0  0  0  0  0  0  0  0  0  0  0  0
   28.3970   53.0190   -5.0780 C   0  0  2  0  0  0  0  0  0  0  0  0
   29.2250   53.7310   -4.1230 N   0  0  0  0  0  0  0  0  0  0  0  0
   29.1010   51.6620   -5.4350 C   0  0  2  0  0  0  0  0  0  0  0  0
   28.5710   51.1850   -6.7270 N   0  0  0  0  0  0  0  0  0  0  0  0
   29.1230   50.3950   -4.5060 C   0  0  0  0  0  0  0  0  0  0  0  0
   30.5060   53.0370   -4.1940 O   0  0  0  0  0  0  0  0  0  0  0  0
   30.4880   52.2510   -5.4060 C   0  0  0  0  0  0  0  0  0  0  0  0
   28.8630   49.8020   -6.7670 C   0  0  0  0  0  0  0  0  0  0  0  0
   29.2120   49.2810   -5.5310 C   0  0  0  0  0  0  0  0  0  0  0  0
   28.8040   49.1150   -7.9010 N   0  0  0  0  0  0  0  0  0  0  0  0
   29.5500   47.9230   -5.4890 C   0  0  0  0  0  0  0  0  0  0  0  0
   29.9490   47.2630   -4.3050 N   0  0  0  0  0  0  0  0  0  0  0  0
   29.4950   47.2090   -6.6340 N   0  0  0  0  0  0  0  0  0  0  0  0
   29.1250   47.8280   -7.7690 C   0  0  0  0  0  0  0  0  0  0  0  0
   30.9300   47.9670   -3.4500 C   0  0  0  0  0  0  0  0  0  0  0  0
   30.0830   45.7860   -4.3890 C   0  0  0  0  0  0  0  0  0  0  0  0
   31.5260   45.3030   -4.4410 C   0  0  0  0  0  0  0  0  0  0  0  0
   32.3650   47.4290   -3.5150 C   0  0  0  0  0  0  0  0  0  0  0  0
   31.8050   43.8620   -4.8310 C   0  0  0  0  0  0  0  0  0  0  0  0
   32.1460   44.9700   -5.7860 C   0  0  0  0  0  0  0  0  0  0  0  0
   32.4000   45.9170   -3.3810 C   0  0  0  0  0  0  0  0  0  0  0  0
  2  1  1  6
  2  3  1  0
  2  4  1  0
  4  5  1  0
  4  6  1  1
  3  7  1  0
  4  8  1  0
  7  8  1  0
  5  9  1  0
  6 10  1  0
  9 10  2  0
  9 11  1  0
 10 12  1  0
 12 13  1  0
 12 14  2  0
 11 15  2  0
 14 15  1  0
 13 16  1  0
 13 17  1  0
 18 17  1  0
 16 19  1  0
 18 20  1  0
 18 21  1  0
 20 21  1  0
 18 22  1  0
 19 22  1  0
M  END
