mac-x0412-mac-x0404
     RDKit          3D

 27 30  0  0  0  0  0  0  0  0999 V2000
   27.9570   54.2770   -4.0540 O   0  0  0  0  0  0  0  0  0  0  0  0
   28.5710   53.6870   -4.9380 C   0  0  0  0  0  0  0  0  0  0  0  0
   28.1270   53.6940   -6.2510 N   0  0  0  0  0  0  0  0  0  0  0  0
   29.8780   52.9030   -4.6590 C   0  0  2  0  0  0  0  0  0  0  0  0
   29.8190   51.5690   -5.3920 C   0  0  0  0  0  0  0  0  0  0  0  0
   28.3770   52.6430   -6.9610 C   0  0  0  0  0  0  0  0  0  0  0  0
   30.1710   52.7380   -3.1890 C   0  0  0  0  0  0  0  0  0  0  0  0
   29.0930   51.4350   -6.5080 C   0  0  0  0  0  0  0  0  0  0  0  0
   30.5790   50.4620   -4.8290 C   0  0  0  0  0  0  0  0  0  0  0  0
   30.6890   51.6080   -2.6870 C   0  0  0  0  0  0  0  0  0  0  0  0
   30.9970   50.4750   -3.5450 C   0  0  0  0  0  0  0  0  0  0  0  0
   31.7930   49.3380   -2.9440 C   0  0  0  0  0  0  0  0  0  0  0  0
   31.0440   48.0300   -2.8900 C   0  0  0  0  0  0  0  0  0  0  0  0
   30.0760   47.7990   -1.9000 C   0  0  0  0  0  0  0  0  0  0  0  0
   31.3040   47.0280   -3.8260 C   0  0  0  0  0  0  0  0  0  0  0  0
   30.6090   45.8180   -3.7740 C   0  0  0  0  0  0  0  0  0  0  0  0
   29.3670   46.5870   -1.8330 C   0  0  0  0  0  0  0  0  0  0  0  0
   30.8970   44.8590   -4.7160 O   0  0  0  0  0  0  0  0  0  0  0  0
   29.6310   45.5730   -2.7820 C   0  0  0  0  0  0  0  0  0  0  0  0
   28.4000   46.3720   -0.8360 C   0  0  0  0  0  0  0  0  0  0  0  0
   32.3010   44.5780   -4.7720 C   0  0  0  0  0  0  0  0  0  0  0  0
   27.6970   45.1670   -0.7690 C   0  0  0  0  0  0  0  0  0  0  0  0
   28.9080   44.3630   -2.6950 C   0  0  0  0  0  0  0  0  0  0  0  0
   32.8790   44.8330   -6.1560 C   0  0  0  0  0  0  0  0  0  0  0  0
   27.9500   44.1650   -1.6970 C   0  0  0  0  0  0  0  0  0  0  0  0
   31.9620   44.6710   -7.1370 O   0  0  0  0  0  0  0  0  0  0  0  0
   34.0260   45.1450   -6.4420 O   0  0  0  0  0  0  0  0  0  0  0  0
  1  2  2  0
  2  3  1  0
  2  4  1  0
  4  5  1  0
  3  6  2  0
  4  7  1  1
  5  8  2  0
  6  8  1  0
  5  9  1  0
  7 10  2  0
  9 11  2  0
 10 11  1  0
 11 12  1  0
 12 13  1  0
 13 14  2  0
 13 15  1  0
 15 16  2  0
 14 17  1  0
 16 18  1  0
 16 19  1  0
 17 19  2  0
 17 20  1  0
 18 21  1  0
 20 22  2  0
 19 23  1  0
 21 24  1  0
 22 25  1  0
 23 25  2  0
 24 26  1  0
 24 27  2  0
M  END
