mac-x0392-mac-x0138
     RDKit          3D

 14 15  0  0  0  0  0  0  0  0999 V2000
   29.6450   47.2030   -7.6810 N   0  0  0  0  0  0  0  0  0  0  0  0
   29.0130   48.3230   -6.9310 C   0  0  2  0  0  0  0  0  0  0  0  0
   29.1550   49.6370   -7.7690 C   0  0  0  0  0  0  0  0  0  0  0  0
   29.5700   48.5160   -5.4840 C   0  0  1  0  0  0  0  0  0  0  0  0
   30.5040   47.3500   -5.0670 C   0  0  0  0  0  0  0  0  0  0  0  0
   30.1010   49.9220   -5.2960 C   0  0  1  0  0  0  0  0  0  0  0  0
   28.5710   50.7910   -7.0690 N   0  0  0  0  0  0  0  0  0  0  0  0
   28.6020   48.5930   -4.3520 N   0  0  0  0  0  0  0  0  0  0  0  0
   31.3400   47.3340   -4.1840 O   0  0  0  0  0  0  0  0  0  0  0  0
   30.2970   46.2210   -5.8000 O   0  0  0  0  0  0  0  0  0  0  0  0
   28.7110   51.9970   -7.8350 N   0  0  0  0  0  0  0  0  0  0  0  0
   29.0900   50.9950   -5.7090 C   0  0  0  0  0  0  0  0  0  0  0  0
   29.4110   49.1730   -3.2720 C   0  0  0  0  0  0  0  0  0  0  0  0
   30.4880   49.9250   -3.9000 N   0  0  0  0  0  0  0  0  0  0  0  0
  2  1  1  6
  2  3  1  0
  2  4  1  0
  4  5  1  1
  4  6  1  0
  3  7  1  0
  4  8  1  0
  5  9  2  0
  5 10  1  0
  7 11  1  0
  6 12  1  1
  7 12  1  0
  8 13  1  0
  6 14  1  0
 13 14  1  0
M  END
