mac-x0255-mac-x0451
     RDKit          3D

 24 27  0  0  0  0  0  0  0  0999 V2000
   31.7000   44.2730   -6.6210 O   0  0  0  0  0  0  0  0  0  0  0  0
   32.6600   45.2130   -6.7660 C   0  0  0  0  0  0  0  0  0  0  0  0
   33.2490   45.3080   -7.8280 O   0  0  0  0  0  0  0  0  0  0  0  0
   32.8570   46.0370   -5.5120 C   0  0  0  0  0  0  0  0  0  0  0  0
   31.7120   45.9400   -4.5410 C   0  0  0  0  0  0  0  0  0  0  0  0
   30.4140   46.3930   -4.6740 C   0  0  0  0  0  0  0  0  0  0  0  0
   31.9430   45.1900   -3.0260 S   0  0  0  0  0  0  0  0  0  0  0  0
   30.0240   47.0270   -5.8070 O   0  0  0  0  0  0  0  0  0  0  0  0
   29.5870   46.1250   -3.5290 C   0  0  0  0  0  0  0  0  0  0  0  0
   30.3170   45.4640   -2.5420 C   0  0  0  0  0  0  0  0  0  0  0  0
   28.2250   46.4130   -3.2610 C   0  0  0  0  0  0  0  0  0  0  0  0
   29.7310   45.0930   -1.3140 C   0  0  0  0  0  0  0  0  0  0  0  0
   29.8520   48.3980   -5.8340 C   0  0  0  0  0  0  0  0  0  0  0  0
   27.6400   46.0470   -2.0450 C   0  0  0  0  0  0  0  0  0  0  0  0
   28.3880   45.3920   -1.0830 C   0  0  0  0  0  0  0  0  0  0  0  0
   30.0330   49.0840   -4.6350 C   0  0  0  0  0  0  0  0  0  0  0  0
   29.5100   49.0730   -7.0090 C   0  0  0  0  0  0  0  0  0  0  0  0
   29.3540   50.4660   -6.9470 C   0  0  0  0  0  0  0  0  0  0  0  0
   29.8730   50.4770   -4.5890 C   0  0  0  0  0  0  0  0  0  0  0  0
   29.5290   51.1820   -5.7620 C   0  0  0  0  0  0  0  0  0  0  0  0
   28.9420   51.5630   -8.2060 S   0  0  0  0  0  0  0  0  0  0  0  0
   29.0310   52.8660   -7.1000 C   0  0  0  0  0  0  0  0  0  0  0  0
   29.3410   52.5500   -5.8680 N   0  0  0  0  0  0  0  0  0  0  0  0
   28.7920   54.1300   -7.4920 N   0  0  0  0  0  0  0  0  0  0  0  0
  1  2  1  0
  2  3  2  0
  2  4  1  0
  4  5  1  0
  5  6  2  0
  5  7  1  0
  6  8  1  0
  6  9  1  0
  7 10  1  0
  9 10  2  0
  9 11  1  0
 10 12  1  0
  8 13  1  0
 11 14  2  0
 12 15  2  0
 14 15  1  0
 13 16  2  0
 13 17  1  0
 17 18  2  0
 16 19  1  0
 18 20  1  0
 19 20  2  0
 18 21  1  0
 21 22  1  0
 20 23  1  0
 22 23  2  0
 22 24  1  0
M  END
