mac-x0303-mac-x0115
     RDKit          3D

 29 32  0  0  0  0  0  0  0  0999 V2000
   30.3420   56.1530   -6.7040 N   0  0  0  0  0  0  0  0  0  0  0  0
   29.0480   55.8040   -5.6840 S   0  0  0  0  0  0  0  0  0  0  0  0
   27.8190   55.9390   -6.4280 O   0  0  0  0  0  0  0  0  0  0  0  0
   29.2830   56.4930   -4.4350 O   0  0  0  0  0  0  0  0  0  0  0  0
   29.1710   54.0780   -5.3010 C   0  0  0  0  0  0  0  0  0  0  0  0
   30.1400   53.5800   -4.4600 N   0  0  0  0  0  0  0  0  0  0  0  0
   28.3820   53.1070   -5.7680 N   0  0  0  0  0  0  0  0  0  0  0  0
   29.9510   52.2350   -4.4010 C   0  0  0  0  0  0  0  0  0  0  0  0
   28.8730   51.9580   -5.1990 C   0  0  0  0  0  0  0  0  0  0  0  0
   30.7170   51.3200   -3.6730 C   0  0  0  0  0  0  0  0  0  0  0  0
   28.3830   50.5540   -5.3590 C   0  0  0  0  0  0  0  0  0  0  0  0
   30.5450   50.0240   -4.0130 C   0  0  0  0  0  0  0  0  0  0  0  0
   29.5670   49.5270   -5.1000 C   0  0  2  0  0  0  0  0  0  0  0  0
   30.1400   49.2270   -6.4340 N   0  0  0  0  0  0  0  0  0  0  0  0
   29.0830   48.1190   -4.6330 C   0  0  0  0  0  0  0  0  0  0  0  0
   29.1420   48.2750   -6.9790 C   0  0  2  0  0  0  0  0  0  0  0  0
   29.0860   47.2260   -5.8900 C   0  0  1  0  0  0  0  0  0  0  0  0
   30.1320   46.1980   -6.0470 N   0  0  0  0  0  0  0  0  0  0  0  0
   29.5150   47.6660   -8.3340 C   0  0  0  0  0  0  0  0  0  0  0  0
   30.8500   45.7000   -4.8480 C   0  0  0  0  0  0  0  0  0  0  0  0
   29.4300   48.3010   -9.3830 O   0  0  0  0  0  0  0  0  0  0  0  0
   30.1990   45.5520   -7.2690 C   0  0  0  0  0  0  0  0  0  0  0  0
   29.9400   46.3580   -8.3470 N   0  0  0  0  0  0  0  0  0  0  0  0
   30.1260   44.5720   -4.1060 C   0  0  0  0  0  0  0  0  0  0  0  0
   30.5450   43.9400   -7.5660 S   0  0  0  0  0  0  0  0  0  0  0  0
   30.0290   44.9280   -2.7240 O   0  0  0  0  0  0  0  0  0  0  0  0
   28.7970   44.5740   -2.0860 C   0  0  0  0  0  0  0  0  0  0  0  0
   27.9830   45.8580   -1.9600 C   0  0  0  0  0  0  0  0  0  0  0  0
   28.0130   43.5310   -2.8790 C   0  0  0  0  0  0  0  0  0  0  0  0
  2  1  1  0
  2  3  2  0
  2  4  2  0
  2  5  1  0
  5  6  1  0
  5  7  2  0
  6  8  1  0
  7  9  1  0
  8  9  2  0
  8 10  1  0
  9 11  1  0
 10 12  2  0
 13 11  1  6
 13 12  1  0
 13 14  1  0
 13 15  1  0
 16 14  1  1
 17 15  1  1
 16 17  1  0
 17 18  1  0
 16 19  1  0
 18 20  1  0
 19 21  2  0
 18 22  1  0
 19 23  1  0
 22 23  1  0
 20 24  1  0
 22 25  2  0
 24 26  1  0
 26 27  1  0
 27 28  1  0
 27 29  1  0
M  END
