mac-x0588-mac-x0131
     RDKit          3D

 23 26  0  0  0  0  0  0  0  0999 V2000
   28.5060   51.7530   -6.0970 N   0  0  0  0  0  0  0  0  0  0  0  0
   29.2150   50.4900   -5.8990 C   0  0  2  0  0  0  0  0  0  0  0  0
   28.5360   49.2790   -6.5500 C   0  0  2  0  0  0  0  0  0  0  0  0
   29.3640   50.3120   -4.4760 N   0  0  0  0  0  0  0  0  0  0  0  0
   29.7490   51.5820   -3.8420 C   0  0  0  0  0  0  0  0  0  0  0  0
   30.2920   49.2180   -4.1020 C   0  0  1  0  0  0  0  0  0  0  0  0
   28.9660   47.9630   -5.8770 C   0  0  2  0  0  0  0  0  0  0  0  0
   28.8700   49.1340   -7.9870 N   0  0  0  0  0  0  0  0  0  0  0  0
   30.1370   49.0360   -2.5780 C   0  0  0  0  0  0  0  0  0  0  0  0
   30.0880   47.9940   -4.9260 N   0  0  0  0  0  0  0  0  0  0  0  0
   29.3520   47.1180   -7.0220 N   0  0  0  0  0  0  0  0  0  0  0  0
   28.7590   47.7140   -8.1980 C   0  0  0  0  0  0  0  0  0  0  0  0
   30.5130   46.6400   -4.4440 C   0  0  2  0  0  0  0  0  0  0  0  0
   29.8910   46.0940   -3.1120 C   0  0  1  0  0  0  0  0  0  0  0  0
   31.9800   46.3350   -4.6320 C   0  0  0  0  0  0  0  0  0  0  0  0
   28.7730   46.7880   -2.5480 O   0  0  0  0  0  0  0  0  0  0  0  0
   29.4200   44.6500   -3.2100 C   0  0  0  0  0  0  0  0  0  0  0  0
   32.6550   45.2500   -5.1610 C   0  0  0  0  0  0  0  0  0  0  0  0
   32.8850   47.2720   -4.2240 O   0  0  0  0  0  0  0  0  0  0  0  0
   28.6070   44.4850   -1.9450 C   0  0  0  0  0  0  0  0  0  0  0  0
   28.1360   45.8930   -1.6300 C   0  0  0  0  0  0  0  0  0  0  0  0
   34.1230   46.7900   -4.4960 C   0  0  0  0  0  0  0  0  0  0  0  0
   34.0330   45.5450   -5.0730 C   0  0  0  0  0  0  0  0  0  0  0  0
  2  1  1  1
  2  3  1  0
  2  4  1  0
  4  5  1  0
  4  6  1  0
  3  7  1  0
  3  8  1  6
  6  9  1  1
  6 10  1  0
  7 10  1  0
  7 11  1  6
  8 12  1  0
 11 12  1  0
 10 13  1  0
 13 14  1  0
 13 15  1  1
 14 16  1  0
 14 17  1  6
 15 18  2  0
 15 19  1  0
 17 20  1  0
 16 21  1  0
 20 21  1  0
 19 22  1  0
 18 23  1  0
 22 23  2  0
M  END
