mac-x0398-mac-x0271
     RDKit          3D

 16 17  0  0  0  0  0  0  0  0999 V2000
   30.4870   53.1300   -6.3710 N   0  0  0  0  0  0  0  0  0  0  0  0
   29.0860   53.0150   -5.9240 C   0  0  1  0  0  0  0  0  0  0  0  0
   28.5900   51.6670   -6.3760 C   0  0  0  0  0  0  0  0  0  0  0  0
   28.9210   53.1060   -4.3770 C   0  0  1  0  0  0  0  0  0  0  0  0
   28.3630   54.1940   -6.4750 C   0  0  0  0  0  0  0  0  0  0  0  0
   29.5590   51.9110   -3.6990 C   0  0  0  0  0  0  0  0  0  0  0  0
   28.7870   50.5830   -5.5950 C   0  0  0  0  0  0  0  0  0  0  0  0
   28.3610   55.3510   -5.7930 C   0  0  0  0  0  0  0  0  0  0  0  0
   29.4290   54.3560   -3.8590 O   0  0  0  0  0  0  0  0  0  0  0  0
   30.1800   52.1680   -2.4840 O   0  0  0  0  0  0  0  0  0  0  0  0
   29.4820   50.6980   -4.3020 C   0  0  0  0  0  0  0  0  0  0  0  0
   29.0620   55.4990   -4.4930 C   0  0  0  0  0  0  0  0  0  0  0  0
   30.1030   49.5140   -3.6360 C   0  0  0  0  0  0  0  0  0  0  0  0
   29.2840   56.6140   -4.0380 O   0  0  0  0  0  0  0  0  0  0  0  0
   30.6430   49.5760   -2.5420 O   0  0  0  0  0  0  0  0  0  0  0  0
   30.0150   48.3690   -4.3440 O   0  0  0  0  0  0  0  0  0  0  0  0
  2  1  1  1
  2  3  1  0
  2  4  1  0
  2  5  1  0
  4  6  1  0
  3  7  2  0
  5  8  2  0
  4  9  1  1
  6 10  1  0
  6 11  2  0
  7 11  1  0
  8 12  1  0
  9 12  1  0
 11 13  1  0
 12 14  2  0
 13 15  2  0
 13 16  1  0
M  END
