mac-x0137-mac-x0321
     RDKit          3D

 25 28  0  0  0  0  0  0  0  0999 V2000
   31.4480   49.2530   -3.5430 C   0  0  0  0  0  0  0  0  0  0  0  0
   32.8340   49.5190   -3.6190 O   0  0  0  0  0  0  0  0  0  0  0  0
   31.2830   48.6230   -2.2810 O   0  0  0  0  0  0  0  0  0  0  0  0
   31.0630   48.2640   -4.6470 C   0  0  2  0  0  0  0  0  0  0  0  0
   30.6360   50.5350   -3.5940 C   0  0  0  0  0  0  0  0  0  0  0  0
   29.6230   47.7920   -4.5440 C   0  0  0  0  0  0  0  0  0  0  0  0
   31.9810   47.0520   -4.8440 C   0  0  0  0  0  0  0  0  0  0  0  0
   30.5470   51.2850   -4.7810 C   0  0  0  0  0  0  0  0  0  0  0  0
   29.9530   51.0080   -2.4630 C   0  0  0  0  0  0  0  0  0  0  0  0
   29.2680   47.2260   -5.8500 N   0  0  0  0  0  0  0  0  0  0  0  0
   31.5830   46.2650   -6.0970 C   0  0  0  0  0  0  0  0  0  0  0  0
   29.8000   52.4630   -4.8270 C   0  0  0  0  0  0  0  0  0  0  0  0
   29.2040   52.1850   -2.5130 C   0  0  0  0  0  0  0  0  0  0  0  0
   29.7080   53.3630   -6.2920 Cl  0  0  0  0  0  0  0  0  0  0  0  0
   30.0710   46.0400   -6.2220 C   0  0  0  0  0  0  0  0  0  0  0  0
   28.6910   48.0150   -6.8540 C   0  0  0  0  0  0  0  0  0  0  0  0
   29.1270   52.9150   -3.6970 C   0  0  0  0  0  0  0  0  0  0  0  0
   28.6490   47.5200   -8.1450 N   0  0  0  0  0  0  0  0  0  0  0  0
   28.1510   49.2470   -6.7010 C   0  0  0  0  0  0  0  0  0  0  0  0
   28.1080   48.2160   -9.1880 C   0  0  0  0  0  0  0  0  0  0  0  0
   27.5720   49.9450   -7.8820 C   0  0  0  0  0  0  0  0  0  0  0  0
   27.9340   50.1910   -5.6470 C   0  0  0  0  0  0  0  0  0  0  0  0
   27.5740   49.3890   -9.1290 N   0  0  0  0  0  0  0  0  0  0  0  0
   27.0780   51.1160   -7.5840 N   0  0  0  0  0  0  0  0  0  0  0  0
   27.3150   51.2370   -6.2210 C   0  0  0  0  0  0  0  0  0  0  0  0
  1  2  1  0
  1  3  1  0
  4  1  1  1
  1  5  1  0
  4  6  1  0
  4  7  1  0
  5  8  2  0
  5  9  1  0
  6 10  1  0
  7 11  1  0
  8 12  1  0
  9 13  2  0
 12 14  1  0
 10 15  1  0
 11 15  1  0
 10 16  1  0
 12 17  2  0
 13 17  1  0
 16 18  1  0
 16 19  2  0
 18 20  1  0
 19 21  1  0
 19 22  1  0
 20 23  2  0
 21 23  1  0
 21 24  2  0
 22 25  2  0
 24 25  1  0
M  END
