mac-x0116-mac-x0303
     RDKit          3D

 24 27  0  0  0  0  0  0  0  0999 V2000
   30.2810   53.3270   -7.7660 C   0  0  0  0  0  0  0  0  0  0  0  0
   30.1460   51.8680   -7.6830 N   0  0  0  0  0  0  0  0  0  0  0  0
   29.6260   51.1370   -6.5860 C   0  0  0  0  0  0  0  0  0  0  0  0
   31.6550   53.8240   -8.0660 C   0  0  0  0  0  0  0  0  0  0  0  0
   32.6950   53.0740   -7.5960 O   0  0  0  0  0  0  0  0  0  0  0  0
   32.1370   54.9250   -8.7430 C   0  0  0  0  0  0  0  0  0  0  0  0
   33.5480   54.8460   -8.6830 C   0  0  0  0  0  0  0  0  0  0  0  0
   33.8400   53.7010   -7.9750 C   0  0  0  0  0  0  0  0  0  0  0  0
   29.2910   51.7580   -5.2340 C   0  0  1  0  0  0  0  0  0  0  0  0
   29.4020   49.8180   -6.7200 C   0  0  0  0  0  0  0  0  0  0  0  0
   28.7590   50.7290   -4.2230 C   0  0  0  0  0  0  0  0  0  0  0  0
   28.8730   48.9770   -5.6490 C   0  0  0  0  0  0  0  0  0  0  0  0
   29.5960   49.0010   -7.8030 N   0  0  0  0  0  0  0  0  0  0  0  0
   30.4550   52.5010   -4.6420 C   0  0  0  0  0  0  0  0  0  0  0  0
   28.2580   52.8270   -5.2720 N   0  0  0  0  0  0  0  0  0  0  0  0
   28.5680   49.4580   -4.4230 N   0  0  0  0  0  0  0  0  0  0  0  0
   28.7520   47.7580   -6.0600 N   0  0  0  0  0  0  0  0  0  0  0  0
   29.2050   47.8320   -7.3670 C   0  0  0  0  0  0  0  0  0  0  0  0
   28.8550   53.8760   -4.7570 C   0  0  0  0  0  0  0  0  0  0  0  0
   30.1750   53.7280   -4.3650 N   0  0  0  0  0  0  0  0  0  0  0  0
   27.9610   55.4420   -4.5830 S   0  0  0  0  0  0  0  0  0  0  0  0
   28.9380   56.6510   -5.2640 N   0  0  0  0  0  0  0  0  0  0  0  0
   26.7940   55.3630   -5.4360 O   0  0  0  0  0  0  0  0  0  0  0  0
   27.8760   55.7660   -3.1760 O   0  0  0  0  0  0  0  0  0  0  0  0
  1  2  1  0
  2  3  1  0
  1  4  1  0
  4  5  1  0
  4  6  2  0
  6  7  1  0
  5  8  1  0
  7  8  2  0
  3  9  1  0
  3 10  2  0
  9 11  1  1
 10 12  1  0
 10 13  1  0
  9 14  1  0
  9 15  1  0
 11 16  2  0
 12 16  1  0
 12 17  2  0
 13 18  2  0
 17 18  1  0
 15 19  2  0
 14 20  2  0
 19 20  1  0
 19 21  1  0
 21 22  1  0
 21 23  2  0
 21 24  2  0
M  END
