mac-x0453-mac-x0387
     RDKit          3D

 13 14  0  0  0  0  0  0  0  0999 V2000
   29.4320   54.7810   -6.9360 N   0  0  0  0  0  0  0  0  0  0  0  0
   30.0200   53.6590   -6.2150 C   0  0  0  0  0  0  0  0  0  0  0  0
   29.1970   52.3650   -6.2430 C   0  0  0  0  0  0  0  0  0  0  0  0
   29.8890   51.0940   -5.7140 C   0  0  2  0  0  0  0  0  0  0  0  0
   29.2870   49.6660   -6.0000 C   0  0  1  0  0  0  0  0  0  0  0  0
   29.8860   51.1980   -4.2250 N   0  0  0  0  0  0  0  0  0  0  0  0
   28.8240   49.2750   -4.6480 N   0  0  0  0  0  0  0  0  0  0  0  0
   29.8180   49.8380   -3.7650 C   0  0  0  0  0  0  0  0  0  0  0  0
   28.0400   49.7650   -6.9590 C   0  0  0  0  0  0  0  0  0  0  0  0
   30.1930   48.5200   -6.4320 C   0  0  0  0  0  0  0  0  0  0  0  0
   29.9250   47.7490   -7.5050 C   0  0  0  0  0  0  0  0  0  0  0  0
   28.3020   49.3590   -8.3570 N   0  0  0  0  0  0  0  0  0  0  0  0
   28.7290   47.9590   -8.3730 C   0  0  0  0  0  0  0  0  0  0  0  0
  1  2  1  0
  2  3  1  0
  4  3  1  6
  4  5  1  0
  4  6  1  0
  5  7  1  0
  6  8  1  0
  7  8  1  0
  5  9  1  6
  5 10  1  0
 10 11  2  0
  9 12  1  0
 11 13  1  0
 12 13  1  0
M  END
