mac-x0588-mac-x0161
     RDKit          3D

 23 26  0  0  0  0  0  0  0  0999 V2000
   28.4080   51.7150   -6.2900 N   0  0  0  0  0  0  0  0  0  0  0  0
   29.3500   50.6190   -6.1630 C   0  0  2  0  0  0  0  0  0  0  0  0
   28.7930   49.2840   -6.6820 C   0  0  2  0  0  0  0  0  0  0  0  0
   29.6140   50.5360   -4.7400 N   0  0  0  0  0  0  0  0  0  0  0  0
   28.8990   49.4110   -4.1270 C   0  0  0  0  0  0  0  0  0  0  0  0
   29.5820   48.1730   -6.0320 C   0  0  1  0  0  0  0  0  0  0  0  0
   28.9480   49.0080   -8.1250 N   0  0  0  0  0  0  0  0  0  0  0  0
   29.3210   48.1220   -4.6290 N   0  0  0  0  0  0  0  0  0  0  0  0
   29.0500   47.0450   -6.7910 N   0  0  0  0  0  0  0  0  0  0  0  0
   29.0040   47.5420   -8.1690 C   0  0  0  0  0  0  0  0  0  0  0  0
   30.1300   47.3840   -3.6520 C   0  0  1  0  0  0  0  0  0  0  0  0
   29.6130   46.1680   -2.8410 C   0  0  1  0  0  0  0  0  0  0  0  0
   31.5820   47.3000   -3.9340 C   0  0  0  0  0  0  0  0  0  0  0  0
   28.5010   46.5620   -2.0320 O   0  0  0  0  0  0  0  0  0  0  0  0
   29.2120   44.8510   -3.4630 C   0  0  0  0  0  0  0  0  0  0  0  0
   32.6520   47.5320   -3.1200 C   0  0  0  0  0  0  0  0  0  0  0  0
   32.0070   46.9410   -5.1710 O   0  0  0  0  0  0  0  0  0  0  0  0
   28.3960   44.2130   -2.3580 C   0  0  0  0  0  0  0  0  0  0  0  0
   27.9910   45.3670   -1.4510 C   0  0  0  0  0  0  0  0  0  0  0  0
   33.3930   46.9320   -5.1770 N   0  0  0  0  0  0  0  0  0  0  0  0
   33.7480   47.2890   -3.9410 C   0  0  0  0  0  0  0  0  0  0  0  0
   35.0330   47.3970   -3.5550 O   0  0  0  0  0  0  0  0  0  0  0  0
   35.2040   47.9540   -2.2560 C   0  0  0  0  0  0  0  0  0  0  0  0
  2  1  1  1
  2  3  1  0
  2  4  1  0
  4  5  1  0
  3  6  1  0
  3  7  1  6
  5  8  1  0
  6  8  1  0
  6  9  1  6
  7 10  1  0
  9 10  1  0
  8 11  1  0
 11 12  1  0
 11 13  1  6
 12 14  1  0
 12 15  1  6
 13 16  2  0
 13 17  1  0
 15 18  1  0
 14 19  1  0
 18 19  1  0
 17 20  1  0
 16 21  1  0
 20 21  2  0
 21 22  1  0
 22 23  1  0
M  END
