mac-x0568-mac-x0255
     RDKit          3D

 26 28  0  0  0  0  0  0  0  0999 V2000
   29.5790   55.7760   -5.3990 C   0  0  0  0  0  0  0  0  0  0  0  0
   29.5560   54.2800   -5.3220 C   0  0  0  0  0  0  0  0  0  0  0  0
   29.1820   53.5220   -6.4350 C   0  0  0  0  0  0  0  0  0  0  0  0
   29.9100   53.7170   -4.1440 N   0  0  0  0  0  0  0  0  0  0  0  0
   29.8920   52.3650   -4.0670 C   0  0  0  0  0  0  0  0  0  0  0  0
   29.1720   52.1330   -6.3260 C   0  0  0  0  0  0  0  0  0  0  0  0
   29.5340   51.5380   -5.1200 C   0  0  0  0  0  0  0  0  0  0  0  0
   29.5320   50.0670   -4.9800 C   0  0  0  0  0  0  0  0  0  0  0  0
   29.8890   49.5720   -3.9210 O   0  0  0  0  0  0  0  0  0  0  0  0
   29.1200   49.3370   -6.0770 N   0  0  0  0  0  0  0  0  0  0  0  0
   30.0640   48.9050   -7.0850 C   0  0  0  0  0  0  0  0  0  0  0  0
   30.7500   47.5800   -6.7500 C   0  0  0  0  0  0  0  0  0  0  0  0
   31.0620   46.7530   -7.9940 C   0  0  0  0  0  0  0  0  0  0  0  0
   31.5090   45.4380   -7.6330 O   0  0  0  0  0  0  0  0  0  0  0  0
   32.6310   45.3740   -6.8680 C   0  0  0  0  0  0  0  0  0  0  0  0
   33.6500   46.0230   -7.0760 O   0  0  0  0  0  0  0  0  0  0  0  0
   32.5140   44.4090   -5.7070 C   0  0  0  0  0  0  0  0  0  0  0  0
   31.4860   44.8040   -4.6930 C   0  0  0  0  0  0  0  0  0  0  0  0
   30.3380   44.1280   -4.3440 C   0  0  0  0  0  0  0  0  0  0  0  0
   31.6510   46.2490   -3.7960 S   0  0  0  0  0  0  0  0  0  0  0  0
   29.5740   44.7890   -3.3310 C   0  0  0  0  0  0  0  0  0  0  0  0
   30.1870   45.9820   -2.9330 C   0  0  0  0  0  0  0  0  0  0  0  0
   28.3580   44.4230   -2.7130 C   0  0  0  0  0  0  0  0  0  0  0  0
   29.6190   46.8060   -1.9450 C   0  0  0  0  0  0  0  0  0  0  0  0
   27.7900   45.2370   -1.7320 C   0  0  0  0  0  0  0  0  0  0  0  0
   28.4150   46.4180   -1.3540 C   0  0  0  0  0  0  0  0  0  0  0  0
  1  2  1  0
  2  3  2  0
  2  4  1  0
  4  5  2  0
  3  6  1  0
  5  7  1  0
  6  7  2  0
  7  8  1  0
  8  9  2  0
  8 10  1  0
 10 11  1  0
 11 12  1  0
 12 13  1  0
 13 14  1  0
 14 15  1  0
 15 16  2  0
 15 17  1  0
 17 18  1  0
 18 19  2  0
 18 20  1  0
 19 21  1  0
 20 22  1  0
 21 22  2  0
 21 23  1  0
 22 24  1  0
 23 25  2  0
 24 26  2  0
 25 26  1  0
M  END
