mac-x0231-mac-x0124
     RDKit          3D

 26 29  0  0  0  0  0  0  0  0999 V2000
   35.4570   43.5810   -5.6930 O   0  0  0  0  0  0  0  0  0  0  0  0
   34.1840   43.1650   -5.5380 C   0  0  0  0  0  0  0  0  0  0  0  0
   33.5420   42.7880   -6.5040 O   0  0  0  0  0  0  0  0  0  0  0  0
   33.7330   43.2350   -4.1070 C   0  0  0  0  0  0  0  0  0  0  0  0
   32.3120   43.7370   -3.9300 C   0  0  0  0  0  0  0  0  0  0  0  0
   32.0350   45.1930   -3.7490 C   0  0  0  0  0  0  0  0  0  0  0  0
   31.3760   42.8390   -3.9520 N   0  0  0  0  0  0  0  0  0  0  0  0
   30.6920   45.6130   -3.7180 C   0  0  0  0  0  0  0  0  0  0  0  0
   30.0970   43.2520   -3.8030 N   0  0  0  0  0  0  0  0  0  0  0  0
   33.0680   46.1270   -3.6140 C   0  0  0  0  0  0  0  0  0  0  0  0
   29.6570   44.5510   -3.8640 C   0  0  0  0  0  0  0  0  0  0  0  0
   30.3740   46.9920   -3.5560 C   0  0  0  0  0  0  0  0  0  0  0  0
   32.7700   47.4750   -3.4510 C   0  0  0  0  0  0  0  0  0  0  0  0
   28.4650   44.7880   -4.0240 O   0  0  0  0  0  0  0  0  0  0  0  0
   28.9350   47.4830   -3.5290 C   0  0  0  0  0  0  0  0  0  0  0  0
   31.4460   47.9000   -3.4230 C   0  0  0  0  0  0  0  0  0  0  0  0
   28.7420   48.7960   -4.1460 N   0  0  0  0  0  0  0  0  0  0  0  0
   28.8290   49.9980   -3.4830 C   0  0  0  0  0  0  0  0  0  0  0  0
   28.4520   49.0190   -5.4720 C   0  0  0  0  0  0  0  0  0  0  0  0
   28.5910   51.0010   -4.3990 C   0  0  0  0  0  0  0  0  0  0  0  0
   28.3520   50.3900   -5.6620 C   0  0  0  0  0  0  0  0  0  0  0  0
   28.2940   48.0740   -6.4180 N   0  0  0  0  0  0  0  0  0  0  0  0
   28.0600   50.8260   -6.9620 C   0  0  0  0  0  0  0  0  0  0  0  0
   28.0190   48.6120   -7.6170 C   0  0  0  0  0  0  0  0  0  0  0  0
   27.9260   52.1640   -7.3130 N   0  0  0  0  0  0  0  0  0  0  0  0
   27.8940   49.9150   -7.9380 N   0  0  0  0  0  0  0  0  0  0  0  0
  1  2  1  0
  2  3  2  0
  2  4  1  0
  4  5  1  0
  5  6  1  0
  5  7  2  0
  6  8  2  0
  7  9  1  0
  6 10  1  0
  8 11  1  0
  9 11  1  0
  8 12  1  0
 10 13  2  0
 11 14  2  0
 12 15  1  0
 12 16  2  0
 13 16  1  0
 15 17  1  0
 17 18  1  0
 17 19  1  0
 18 20  2  0
 19 21  2  0
 20 21  1  0
 19 22  1  0
 21 23  1  0
 22 24  2  0
 23 25  1  0
 23 26  2  0
 24 26  1  0
M  END
