mac-x0228-mac-x0344
     RDKit          3D

 26 28  0  0  0  0  0  0  0  0999 V2000
   29.5740   48.0030   -5.8090 O   0  0  0  0  0  0  0  0  0  0  0  0
   29.8370   48.3060   -4.5270 C   0  0  0  0  0  0  0  0  0  0  0  0
   30.0890   47.4470   -3.6100 N   0  0  0  0  0  0  0  0  0  0  0  0
   29.8020   49.7700   -4.2920 C   0  0  0  0  0  0  0  0  0  0  0  0
   30.1070   46.0240   -3.9220 C   0  0  0  0  0  0  0  0  0  0  0  0
   29.5700   50.6150   -5.3870 C   0  0  0  0  0  0  0  0  0  0  0  0
   29.9960   50.3100   -3.0040 C   0  0  0  0  0  0  0  0  0  0  0  0
   31.4960   45.4580   -3.6320 C   0  0  0  0  0  0  0  0  0  0  0  0
   29.5370   51.9810   -5.1660 C   0  0  0  0  0  0  0  0  0  0  0  0
   29.9580   51.6960   -2.8020 C   0  0  0  0  0  0  0  0  0  0  0  0
   32.2830   44.9140   -4.8320 C   0  0  0  0  0  0  0  0  0  0  0  0
   29.7280   52.5030   -3.8960 C   0  0  0  0  0  0  0  0  0  0  0  0
   29.3150   53.0850   -6.1250 C   0  0  0  0  0  0  0  0  0  0  0  0
   32.3280   43.4960   -4.6710 O   0  0  0  0  0  0  0  0  0  0  0  0
   31.5880   45.1450   -6.0420 O   0  0  0  0  0  0  0  0  0  0  0  0
   33.7640   45.4480   -4.9070 C   0  0  0  0  0  0  0  0  0  0  0  0
   29.6630   53.8700   -3.8530 O   0  0  0  0  0  0  0  0  0  0  0  0
   29.7480   54.2600   -5.2450 C   0  0  0  0  0  0  0  0  0  0  0  0
   34.1670   45.9500   -5.9580 O   0  0  0  0  0  0  0  0  0  0  0  0
   34.4830   45.2870   -3.7420 N   0  0  0  0  0  0  0  0  0  0  0  0
   35.4830   46.1250   -3.2080 C   0  0  0  0  0  0  0  0  0  0  0  0
   36.4980   45.5060   -2.4700 C   0  0  0  0  0  0  0  0  0  0  0  0
   35.5170   47.5090   -3.3710 C   0  0  0  0  0  0  0  0  0  0  0  0
   37.5330   46.2580   -1.9020 C   0  0  0  0  0  0  0  0  0  0  0  0
   36.5530   48.2640   -2.8030 C   0  0  0  0  0  0  0  0  0  0  0  0
   37.5570   47.6380   -2.0710 C   0  0  0  0  0  0  0  0  0  0  0  0
  1  2  1  0
  2  3  2  3
  2  4  1  0
  3  5  1  0
  4  6  2  0
  4  7  1  0
  5  8  1  0
  6  9  1  0
  7 10  2  0
  8 11  1  0
  9 12  2  0
 10 12  1  0
  9 13  1  0
 11 14  1  0
 11 15  1  0
 11 16  1  0
 12 17  1  0
 13 18  1  0
 17 18  1  0
 16 19  2  0
 16 20  1  0
 20 21  1  0
 21 22  2  0
 21 23  1  0
 22 24  1  0
 23 25  2  0
 24 26  2  0
 25 26  1  0
M  END
