mac-x0587-mac-x0568
     RDKit          3D

 23 25  0  0  0  0  0  0  0  0999 V2000
   30.0840   46.5080   -3.1920 C   0  0  0  0  0  0  0  0  0  0  0  0
   30.6680   47.4400   -4.2610 C   0  0  2  0  0  0  0  0  0  0  0  0
   32.5000   47.5420   -3.9250 S   0  0  0  0  0  0  0  0  0  0  0  0
   29.9480   48.8210   -4.3650 C   0  0  1  0  0  0  0  0  0  0  0  0
   33.1390   47.3240   -5.6210 C   0  0  0  0  0  0  0  0  0  0  0  0
   29.9930   49.5310   -3.1290 O   0  0  0  0  0  0  0  0  0  0  0  0
   30.4210   49.7410   -5.5990 C   0  0  1  0  0  0  0  0  0  0  0  0
   28.5810   48.6620   -4.7730 N   0  0  0  0  0  0  0  0  0  0  0  0
   33.6680   45.9270   -5.8660 C   0  0  0  0  0  0  0  0  0  0  0  0
   29.4430   49.4160   -6.7320 N   0  0  0  0  0  0  0  0  0  0  0  0
   27.3340   49.0110   -4.1410 C   0  0  0  0  0  0  0  0  0  0  0  0
   28.4850   48.8560   -6.0910 C   0  0  0  0  0  0  0  0  0  0  0  0
   30.4210   51.2420   -5.3530 C   0  0  0  0  0  0  0  0  0  0  0  0
   34.8170   45.5340   -5.8070 O   0  0  0  0  0  0  0  0  0  0  0  0
   32.6910   45.0580   -6.1880 O   0  0  0  0  0  0  0  0  0  0  0  0
   26.3650   48.6640   -5.3200 C   0  0  0  0  0  0  0  0  0  0  0  0
   27.2790   48.3660   -6.4340 N   0  0  0  0  0  0  0  0  0  0  0  0
   31.0010   51.8180   -4.2240 C   0  0  0  0  0  0  0  0  0  0  0  0
   29.8260   52.1270   -6.2580 C   0  0  0  0  0  0  0  0  0  0  0  0
   31.0200   53.1510   -3.9630 N   0  0  0  0  0  0  0  0  0  0  0  0
   29.8300   53.4990   -6.0180 C   0  0  0  0  0  0  0  0  0  0  0  0
   30.4350   53.9750   -4.8640 C   0  0  0  0  0  0  0  0  0  0  0  0
   30.4510   55.4470   -4.5810 C   0  0  0  0  0  0  0  0  0  0  0  0
  2  1  1  1
  2  3  1  0
  2  4  1  0
  3  5  1  0
  4  6  1  1
  4  7  1  0
  4  8  1  0
  5  9  1  0
  7 10  1  0
  8 11  1  0
  8 12  1  0
 10 12  2  0
  7 13  1  1
  9 14  2  0
  9 15  1  0
 11 16  1  0
 12 17  1  0
 16 17  1  0
 13 18  2  0
 13 19  1  0
 18 20  1  0
 19 21  2  0
 20 22  2  0
 21 22  1  0
 22 23  1  0
M  END
