mac-x0228-mac-x0572
     RDKit          3D

 15 16  0  0  0  0  0  0  0  0999 V2000
   29.6510   47.8170   -5.6380 O   0  0  0  0  0  0  0  0  0  0  0  0
   30.2660   48.2370   -4.5180 C   0  0  0  0  0  0  0  0  0  0  0  0
   30.8910   47.4670   -3.8130 O   0  0  0  0  0  0  0  0  0  0  0  0
   30.0880   49.6910   -4.2700 C   0  0  0  0  0  0  0  0  0  0  0  0
   30.1190   50.5600   -5.3770 C   0  0  0  0  0  0  0  0  0  0  0  0
   29.8960   50.2060   -2.9680 C   0  0  0  0  0  0  0  0  0  0  0  0
   29.9560   51.9230   -5.1630 C   0  0  0  0  0  0  0  0  0  0  0  0
   29.7330   51.5780   -2.7610 C   0  0  0  0  0  0  0  0  0  0  0  0
   29.7680   52.4060   -3.8740 C   0  0  0  0  0  0  0  0  0  0  0  0
   29.9540   53.0130   -6.1950 C   0  0  0  0  0  0  0  0  0  0  0  0
   29.6240   53.8500   -3.9320 C   0  0  0  0  0  0  0  0  0  0  0  0
   29.6450   54.3040   -5.3940 C   0  0  2  0  0  0  0  0  0  0  0  0
   28.3060   54.9160   -5.7750 C   0  0  0  0  0  0  0  0  0  0  0  0
   29.5070   54.5760   -2.9570 O   0  0  0  0  0  0  0  0  0  0  0  0
   30.6750   55.2640   -5.5870 O   0  0  0  0  0  0  0  0  0  0  0  0
  1  2  1  0
  2  3  2  0
  2  4  1  0
  4  5  2  0
  4  6  1  0
  5  7  1  0
  6  8  2  0
  7  9  2  0
  8  9  1  0
  7 10  1  0
  9 11  1  0
 10 12  1  0
 11 12  1  0
 12 13  1  6
 11 14  2  0
 12 15  1  0
M  END
