mac-x0255-mac-x0337
     RDKit          3D

 25 27  0  0  0  0  0  0  0  0999 V2000
   31.5360   44.2950   -7.6460 O   0  0  0  0  0  0  0  0  0  0  0  0
   32.7160   44.5560   -7.0410 C   0  0  0  0  0  0  0  0  0  0  0  0
   33.5890   45.1500   -7.6560 O   0  0  0  0  0  0  0  0  0  0  0  0
   32.7500   44.0340   -5.6220 C   0  0  0  0  0  0  0  0  0  0  0  0
   31.7300   44.7090   -4.7510 C   0  0  0  0  0  0  0  0  0  0  0  0
   30.7300   44.1270   -4.0030 C   0  0  0  0  0  0  0  0  0  0  0  0
   31.7110   46.4050   -4.5890 S   0  0  0  0  0  0  0  0  0  0  0  0
   29.9310   45.0790   -3.2830 C   0  0  0  0  0  0  0  0  0  0  0  0
   30.3570   46.3930   -3.5100 C   0  0  0  0  0  0  0  0  0  0  0  0
   28.8300   44.8610   -2.4220 C   0  0  0  0  0  0  0  0  0  0  0  0
   29.7150   47.5040   -2.9010 C   0  0  0  0  0  0  0  0  0  0  0  0
   30.1330   48.9440   -3.1100 C   0  0  0  0  0  0  0  0  0  0  0  0
   28.1840   45.9360   -1.8130 C   0  0  0  0  0  0  0  0  0  0  0  0
   28.6210   47.2290   -2.0510 C   0  0  0  0  0  0  0  0  0  0  0  0
   29.0640   49.7380   -3.7430 N   0  0  0  0  0  0  0  0  0  0  0  0
   29.4100   50.5770   -4.9740 S   0  0  1  0  0  0  0  0  0  0  0  0
   28.9360   50.3610   -6.3210 O   0  0  0  0  0  0  0  0  0  0  0  0
   28.5690   51.9680   -4.5470 N   0  0  0  0  0  0  0  0  0  0  0  0
   31.1300   50.9650   -4.9950 C   0  0  0  0  0  0  0  0  0  0  0  0
   32.0520   49.9880   -5.3800 C   0  0  0  0  0  0  0  0  0  0  0  0
   31.5580   52.2410   -4.6280 C   0  0  0  0  0  0  0  0  0  0  0  0
   33.4130   50.2940   -5.3970 C   0  0  0  0  0  0  0  0  0  0  0  0
   32.9220   52.5420   -4.6480 C   0  0  0  0  0  0  0  0  0  0  0  0
   33.8580   51.5740   -5.0310 C   0  0  0  0  0  0  0  0  0  0  0  0
   35.3220   51.9020   -5.0510 C   0  0  0  0  0  0  0  0  0  0  0  0
  1  2  1  0
  2  3  2  0
  2  4  1  0
  4  5  1  0
  5  6  2  0
  5  7  1  0
  6  8  1  0
  7  9  1  0
  8  9  2  0
  8 10  1  0
  9 11  1  0
 11 12  1  0
 10 13  2  0
 11 14  2  0
 13 14  1  0
 12 15  1  0
 15 16  2  0
 16 17  2  0
 16 18  1  1
 16 19  1  0
 19 20  2  0
 19 21  1  0
 20 22  1  0
 21 23  2  0
 22 24  2  0
 23 24  1  0
 24 25  1  0
M  END
