mac-x0402-mac-x0397
     RDKit          3D

 12 13  0  0  0  0  0  0  0  0999 V2000
   30.6130   47.6560   -3.9760 Cl  0  0  0  0  0  0  0  0  0  0  0  0
   30.1400   49.2690   -4.3540 C   0  0  0  0  0  0  0  0  0  0  0  0
   30.0960   50.2100   -3.3390 C   0  0  0  0  0  0  0  0  0  0  0  0
   29.8070   49.6020   -5.6740 C   0  0  0  0  0  0  0  0  0  0  0  0
   29.4220   50.9320   -5.9500 C   0  0  0  0  0  0  0  0  0  0  0  0
   29.7120   51.5120   -3.6410 C   0  0  0  0  0  0  0  0  0  0  0  0
   29.6420   52.7120   -2.4230 Cl  0  0  0  0  0  0  0  0  0  0  0  0
   29.3670   51.9110   -4.9520 C   0  0  0  0  0  0  0  0  0  0  0  0
   28.9620   51.6360   -7.4530 S   0  0  0  0  0  0  0  0  0  0  0  0
   28.7330   53.1500   -6.6820 C   0  0  0  0  0  0  0  0  0  0  0  0
   28.9720   53.1700   -5.3970 N   0  0  0  0  0  0  0  0  0  0  0  0
   28.3320   54.2380   -7.3690 N   0  0  0  0  0  0  0  0  0  0  0  0
  1  2  1  0
  2  3  2  0
  2  4  1  0
  4  5  2  0
  3  6  1  0
  6  7  1  0
  5  8  1  0
  6  8  2  0
  5  9  1  0
  9 10  1  0
  8 11  1  0
 10 11  2  0
 10 12  1  0
M  END
