mac-x0328-mac-x0555
     RDKit          3D

 15 16  0  0  0  0  0  0  0  0999 V2000
   30.4970   47.6540   -3.5920 O   0  0  0  0  0  0  0  0  0  0  0  0
   29.9690   48.3510   -4.6240 C   0  0  0  0  0  0  0  0  0  0  0  0
   29.4220   47.8300   -5.5790 O   0  0  0  0  0  0  0  0  0  0  0  0
   30.1340   49.8240   -4.4580 C   0  0  0  0  0  0  0  0  0  0  0  0
   29.9180   50.6540   -5.5050 C   0  0  0  0  0  0  0  0  0  0  0  0
   30.5290   50.3760   -3.1650 C   0  0  0  0  0  0  0  0  0  0  0  0
   30.0980   52.1410   -5.2990 C   0  0  2  0  0  0  0  0  0  0  0  0
   30.3240   51.6800   -2.8700 C   0  0  0  0  0  0  0  0  0  0  0  0
   29.6770   52.5930   -3.8720 C   0  0  2  0  0  0  0  0  0  0  0  0
   29.4900   53.0560   -6.3130 C   0  0  0  0  0  0  0  0  0  0  0  0
   28.2760   52.3860   -3.7320 O   0  0  0  0  0  0  0  0  0  0  0  0
   29.3540   54.3620   -6.0240 C   0  0  0  0  0  0  0  0  0  0  0  0
   30.0190   53.9860   -3.6310 N   0  0  0  0  0  0  0  0  0  0  0  0
   28.8150   55.3190   -6.8560 N   0  0  0  0  0  0  0  0  0  0  0  0
   29.8500   54.7520   -4.6570 C   0  0  0  0  0  0  0  0  0  0  0  0
  1  2  1  0
  2  3  2  0
  2  4  1  0
  4  5  2  0
  4  6  1  0
  7  5  1  6
  6  8  2  0
  7  9  1  0
  8  9  1  0
  7 10  1  0
  9 11  1  6
 10 12  2  0
  9 13  1  0
 12 14  1  0
 12 15  1  0
 13 15  2  0
M  END
