mac-x0565-mac-x0116
     RDKit          3D

 27 31  0  0  0  0  0  0  0  0999 V2000
   30.0870   52.5990   -5.8600 N   0  0  0  0  0  0  0  0  0  0  0  0
   29.9550   52.5620   -4.4640 C   0  0  0  0  0  0  0  0  0  0  0  0
   29.5170   53.5330   -3.8290 O   0  0  0  0  0  0  0  0  0  0  0  0
   28.9390   52.1720   -6.5960 N   0  0  0  0  0  0  0  0  0  0  0  0
   31.0140   53.3940   -6.5250 C   0  0  0  0  0  0  0  0  0  0  0  0
   30.3360   51.3480   -3.6900 C   0  0  0  0  0  0  0  0  0  0  0  0
   28.4260   50.8730   -6.5080 C   0  0  0  0  0  0  0  0  0  0  0  0
   32.3100   53.4310   -6.0990 O   0  0  0  0  0  0  0  0  0  0  0  0
   30.8730   54.2230   -7.6220 C   0  0  0  0  0  0  0  0  0  0  0  0
   31.1200   50.3380   -4.2710 C   0  0  0  0  0  0  0  0  0  0  0  0
   29.8870   51.2350   -2.3560 C   0  0  0  0  0  0  0  0  0  0  0  0
   27.5880   50.5500   -5.4480 N   0  0  0  0  0  0  0  0  0  0  0  0
   28.6660   49.8630   -7.3790 C   0  0  0  0  0  0  0  0  0  0  0  0
   32.1470   54.7900   -7.8770 C   0  0  0  0  0  0  0  0  0  0  0  0
   32.9860   54.2740   -6.9200 C   0  0  0  0  0  0  0  0  0  0  0  0
   31.4250   49.2430   -3.4880 C   0  0  0  0  0  0  0  0  0  0  0  0
   30.2180   50.1100   -1.5930 C   0  0  0  0  0  0  0  0  0  0  0  0
   27.0530   49.3000   -5.2890 C   0  0  0  0  0  0  0  0  0  0  0  0
   28.0450   48.5520   -7.1390 C   0  0  0  0  0  0  0  0  0  0  0  0
   29.4040   49.7370   -8.5300 N   0  0  0  0  0  0  0  0  0  0  0  0
   30.9870   49.1330   -2.1880 C   0  0  0  0  0  0  0  0  0  0  0  0
   32.1670   48.1680   -3.8700 O   0  0  0  0  0  0  0  0  0  0  0  0
   27.2360   48.2880   -6.0760 N   0  0  0  0  0  0  0  0  0  0  0  0
   28.3840   47.7210   -8.0720 N   0  0  0  0  0  0  0  0  0  0  0  0
   29.2020   48.4970   -8.8800 C   0  0  0  0  0  0  0  0  0  0  0  0
   31.4000   47.9780   -1.6010 O   0  0  0  0  0  0  0  0  0  0  0  0
   31.9420   47.2900   -2.7470 C   0  0  0  0  0  0  0  0  0  0  0  0
  1  2  1  0
  2  3  2  0
  1  4  1  0
  1  5  1  0
  2  6  1  0
  4  7  1  0
  5  8  1  0
  5  9  2  0
  6 10  2  0
  6 11  1  0
  7 12  1  0
  7 13  2  0
  9 14  1  0
  8 15  1  0
 14 15  2  0
 10 16  1  0
 11 17  2  0
 12 18  1  0
 13 19  1  0
 13 20  1  0
 16 21  2  0
 17 21  1  0
 16 22  1  0
 18 23  2  0
 19 23  1  0
 19 24  2  0
 20 25  2  0
 24 25  1  0
 21 26  1  0
 22 27  1  0
 26 27  1  0
M  END
