mac-x0441-mac-x0365
     RDKit          3D

 30 32  0  0  0  0  0  0  0  0999 V2000
   34.2660   44.6430   -5.9670 O   0  0  0  0  0  0  0  0  0  0  0  0
   33.0630   44.9890   -5.4710 C   0  0  0  0  0  0  0  0  0  0  0  0
   32.0550   45.3100   -6.2000 N   0  0  0  0  0  0  0  0  0  0  0  0
   32.9990   44.9690   -3.9680 C   0  0  0  0  0  0  0  0  0  0  0  0
   30.7780   45.6760   -5.6010 C   0  0  0  0  0  0  0  0  0  0  0  0
   34.3010   44.7520   -3.3630 N   0  0  0  0  0  0  0  0  0  0  0  0
   30.0710   46.7050   -6.4820 C   0  0  0  0  0  0  0  0  0  0  0  0
   34.6180   43.5260   -2.8880 N   0  0  0  0  0  0  0  0  0  0  0  0
   35.3110   45.6560   -3.1890 C   0  0  0  0  0  0  0  0  0  0  0  0
   30.2010   47.9970   -5.8700 O   0  0  0  0  0  0  0  0  0  0  0  0
   35.8700   43.6490   -2.3940 C   0  0  0  0  0  0  0  0  0  0  0  0
   36.3390   44.9820   -2.5680 C   0  0  0  0  0  0  0  0  0  0  0  0
   35.3190   47.0910   -3.5840 C   0  0  0  0  0  0  0  0  0  0  0  0
   36.6210   42.5080   -1.7580 C   0  0  0  0  0  0  0  0  0  0  0  0
   29.0840   48.4320   -5.2320 C   0  0  0  0  0  0  0  0  0  0  0  0
   37.6300   45.6250   -2.2020 C   0  0  0  0  0  0  0  0  0  0  0  0
   36.4890   47.8130   -2.8870 C   0  0  0  0  0  0  0  0  0  0  0  0
   37.7300   42.1670   -2.4720 F   0  0  0  0  0  0  0  0  0  0  0  0
   37.0610   42.8250   -0.5070 F   0  0  0  0  0  0  0  0  0  0  0  0
   35.8810   41.3730   -1.6220 F   0  0  0  0  0  0  0  0  0  0  0  0
   28.1230   47.7480   -4.9220 O   0  0  0  0  0  0  0  0  0  0  0  0
   37.7880   46.9850   -2.9140 C   0  0  0  0  0  0  0  0  0  0  0  0
   29.1810   49.8910   -4.9480 C   0  0  0  0  0  0  0  0  0  0  0  0
   29.5680   50.3890   -3.6960 C   0  0  0  0  0  0  0  0  0  0  0  0
   28.8700   50.7880   -5.9850 C   0  0  0  0  0  0  0  0  0  0  0  0
   29.6370   51.7650   -3.5030 C   0  0  0  0  0  0  0  0  0  0  0  0
   28.9430   52.1690   -5.7770 C   0  0  0  0  0  0  0  0  0  0  0  0
   30.0080   52.2520   -2.3080 F   0  0  0  0  0  0  0  0  0  0  0  0
   29.3270   52.6500   -4.5320 C   0  0  0  0  0  0  0  0  0  0  0  0
   29.3950   54.0010   -4.3460 O   0  0  0  0  0  0  0  0  0  0  0  0
  1  2  1  0
  2  3  2  3
  2  4  1  0
  3  5  1  0
  4  6  1  0
  5  7  1  0
  6  8  1  0
  6  9  1  0
  7 10  1  0
  8 11  2  0
  9 12  2  0
 11 12  1  0
  9 13  1  0
 11 14  1  0
 10 15  1  0
 12 16  1  0
 13 17  1  0
 14 18  1  0
 14 19  1  0
 14 20  1  0
 15 21  2  0
 16 22  1  0
 17 22  1  0
 15 23  1  0
 23 24  2  0
 23 25  1  0
 24 26  1  0
 25 27  2  0
 26 28  1  0
 26 29  2  0
 27 29  1  0
 29 30  1  0
M  END
