mac-x0124-mac-x0305
     RDKit          3D

 14 15  0  0  0  0  0  0  0  0999 V2000
   30.3410   46.4000   -4.8140 C   0  0  0  0  0  0  0  0  0  0  0  0
   31.1350   45.5260   -5.4290 C   0  0  0  0  0  0  0  0  0  0  0  0
   31.6850   45.6770   -6.6640 O   0  0  0  0  0  0  0  0  0  0  0  0
   29.8790   47.6460   -5.2400 N   0  0  0  0  0  0  0  0  0  0  0  0
   30.0030   48.7970   -4.4630 C   0  0  0  0  0  0  0  0  0  0  0  0
   29.2450   48.0260   -6.4280 C   0  0  0  0  0  0  0  0  0  0  0  0
   29.4650   49.8470   -5.1510 C   0  0  0  0  0  0  0  0  0  0  0  0
   28.9870   49.3880   -6.3810 C   0  0  0  0  0  0  0  0  0  0  0  0
   28.9230   47.2360   -7.4660 N   0  0  0  0  0  0  0  0  0  0  0  0
   29.4240   51.0940   -4.6910 O   0  0  0  0  0  0  0  0  0  0  0  0
   28.3550   49.9710   -7.4830 C   0  0  0  0  0  0  0  0  0  0  0  0
   28.3230   47.8950   -8.4620 C   0  0  0  0  0  0  0  0  0  0  0  0
   28.0460   51.3330   -7.5540 N   0  0  0  0  0  0  0  0  0  0  0  0
   28.0240   49.2030   -8.5310 N   0  0  0  0  0  0  0  0  0  0  0  0
  1  2  2  3
  2  3  1  0
  1  4  1  0
  4  5  1  0
  4  6  1  0
  5  7  2  0
  6  8  2  0
  7  8  1  0
  6  9  1  0
  7 10  1  0
  8 11  1  0
  9 12  2  0
 11 13  1  0
 11 14  2  0
 12 14  1  0
M  END
