mac-x0115-mac-x0206
     RDKit          3D

 26 28  0  0  0  0  0  0  0  0999 V2000
   27.9520   45.7620   -1.7610 C   0  0  0  0  0  0  0  0  0  0  0  0
   28.8810   44.6340   -2.1990 C   0  0  0  0  0  0  0  0  0  0  0  0
   28.0930   43.5650   -2.9500 C   0  0  0  0  0  0  0  0  0  0  0  0
   29.8680   45.2320   -3.0400 O   0  0  0  0  0  0  0  0  0  0  0  0
   30.3080   44.4290   -4.1390 C   0  0  0  0  0  0  0  0  0  0  0  0
   31.1840   45.3040   -5.0430 C   0  0  0  0  0  0  0  0  0  0  0  0
   30.3880   46.0060   -6.0900 N   0  0  0  0  0  0  0  0  0  0  0  0
   30.1630   45.4060   -7.3450 C   0  0  0  0  0  0  0  0  0  0  0  0
   29.9910   47.3360   -5.9020 C   0  0  0  0  0  0  0  0  0  0  0  0
   30.3640   43.7870   -7.7340 S   0  0  0  0  0  0  0  0  0  0  0  0
   29.7360   46.2480   -8.3590 N   0  0  0  0  0  0  0  0  0  0  0  0
   28.9390   47.8930   -6.7910 C   0  0  2  0  0  0  0  0  0  0  0  0
   30.3940   48.2620   -5.0210 C   0  0  0  0  0  0  0  0  0  0  0  0
   29.2440   47.5400   -8.2320 C   0  0  0  0  0  0  0  0  0  0  0  0
   28.7750   49.3230   -6.4200 N   0  0  0  0  0  0  0  0  0  0  0  0
   29.5890   49.4440   -5.4020 C   0  0  0  0  0  0  0  0  0  0  0  0
   29.0830   48.2580   -9.2090 O   0  0  0  0  0  0  0  0  0  0  0  0
   29.7390   50.7220   -4.5980 C   0  0  0  0  0  0  0  0  0  0  0  0
   30.1180   50.5690   -3.4440 O   0  0  0  0  0  0  0  0  0  0  0  0
   29.4600   52.1140   -5.0850 C   0  0  0  0  0  0  0  0  0  0  0  0
   29.7970   53.2160   -4.2860 C   0  0  0  0  0  0  0  0  0  0  0  0
   28.8630   52.3460   -6.3360 C   0  0  0  0  0  0  0  0  0  0  0  0
   30.3780   53.0220   -3.0650 O   0  0  0  0  0  0  0  0  0  0  0  0
   29.5490   54.5240   -4.7130 C   0  0  0  0  0  0  0  0  0  0  0  0
   28.6130   53.6620   -6.7630 C   0  0  0  0  0  0  0  0  0  0  0  0
   28.9570   54.7450   -5.9530 C   0  0  0  0  0  0  0  0  0  0  0  0
  1  2  1  0
  2  3  1  0
  2  4  1  0
  4  5  1  0
  5  6  1  0
  6  7  1  0
  7  8  1  0
  7  9  1  0
  8 10  2  0
  8 11  1  0
  9 12  1  0
  9 13  2  0
 11 14  1  0
 12 14  1  0
 12 15  1  6
 13 16  1  0
 15 16  2  0
 14 17  2  0
 16 18  1  0
 18 19  2  0
 18 20  1  0
 20 21  2  0
 20 22  1  0
 21 23  1  0
 21 24  1  0
 22 25  2  0
 24 26  2  0
 25 26  1  0
M  END
