mac-x0137-mac-x0226
     RDKit          3D

 30 34  0  0  0  0  0  0  0  0999 V2000
   31.7280   49.8760   -4.0070 F   0  0  0  0  0  0  0  0  0  0  0  0
   31.3340   48.6200   -3.6660 C   0  0  2  0  0  0  0  0  0  0  0  0
   32.1950   47.6160   -4.4520 C   0  0  0  0  0  0  0  0  0  0  0  0
   29.8000   48.5290   -3.8840 C   0  0  0  0  0  0  0  0  0  0  0  0
   29.3810   47.9510   -5.1840 N   0  0  0  0  0  0  0  0  0  0  0  0
   31.5500   47.2220   -5.7800 C   0  0  1  0  0  0  0  0  0  0  0  0
   32.1800   46.1400   -6.4710 O   0  0  0  0  0  0  0  0  0  0  0  0
   30.1500   46.7400   -5.4740 C   0  0  0  0  0  0  0  0  0  0  0  0
   28.8440   48.6660   -6.2700 C   0  0  0  0  0  0  0  0  0  0  0  0
   33.4970   46.0540   -6.2790 C   0  0  0  0  0  0  0  0  0  0  0  0
   28.6870   48.0250   -7.4900 N   0  0  0  0  0  0  0  0  0  0  0  0
   28.4450   49.9530   -6.2640 C   0  0  0  0  0  0  0  0  0  0  0  0
   34.3340   46.5520   -7.0120 O   0  0  0  0  0  0  0  0  0  0  0  0
   28.1720   48.6340   -8.5920 C   0  0  0  0  0  0  0  0  0  0  0  0
   27.8890   50.5570   -7.5010 C   0  0  0  0  0  0  0  0  0  0  0  0
   28.3810   51.0380   -5.3310 C   0  0  0  0  0  0  0  0  0  0  0  0
   33.7870   45.3160   -5.0860 C   0  0  0  0  0  0  0  0  0  0  0  0
   27.7680   49.8540   -8.6640 N   0  0  0  0  0  0  0  0  0  0  0  0
   27.5400   51.8030   -7.3410 N   0  0  0  0  0  0  0  0  0  0  0  0
   27.8500   52.0670   -6.0150 C   0  0  0  0  0  0  0  0  0  0  0  0
   33.0780   44.2570   -4.4930 C   0  0  0  0  0  0  0  0  0  0  0  0
   34.8570   45.5100   -4.2540 C   0  0  0  0  0  0  0  0  0  0  0  0
   33.6570   43.8150   -3.3750 N   0  0  0  0  0  0  0  0  0  0  0  0
   34.7580   44.6010   -3.2400 N   0  0  0  0  0  0  0  0  0  0  0  0
   35.6670   44.4670   -2.1700 C   0  0  0  0  0  0  0  0  0  0  0  0
   36.5070   45.5350   -1.8370 C   0  0  0  0  0  0  0  0  0  0  0  0
   35.7340   43.2730   -1.4450 C   0  0  0  0  0  0  0  0  0  0  0  0
   37.4090   45.4060   -0.7840 C   0  0  0  0  0  0  0  0  0  0  0  0
   36.6400   43.1500   -0.3920 C   0  0  0  0  0  0  0  0  0  0  0  0
   37.4780   44.2180   -0.0640 C   0  0  0  0  0  0  0  0  0  0  0  0
  2  1  1  6
  2  3  1  0
  2  4  1  0
  4  5  1  0
  3  6  1  0
  6  7  1  1
  5  8  1  0
  6  8  1  0
  5  9  1  0
  7 10  1  0
  9 11  1  0
  9 12  2  0
 10 13  2  0
 11 14  1  0
 12 15  1  0
 12 16  1  0
 10 17  1  0
 14 18  2  0
 15 18  1  0
 15 19  2  0
 16 20  2  0
 19 20  1  0
 17 21  1  0
 17 22  2  0
 21 23  2  0
 22 24  1  0
 23 24  1  0
 24 25  1  0
 25 26  2  0
 25 27  1  0
 26 28  1  0
 27 29  2  0
 28 30  2  0
 29 30  1  0
M  END
