mac-x0568-mac-x0411
     RDKit          3D

 25 26  0  0  0  0  0  0  0  0999 V2000
   29.2100   55.7950   -5.6650 C   0  0  0  0  0  0  0  0  0  0  0  0
   29.3840   54.3270   -5.4220 C   0  0  0  0  0  0  0  0  0  0  0  0
   29.1000   53.4090   -6.4340 C   0  0  0  0  0  0  0  0  0  0  0  0
   29.8210   53.9470   -4.2000 N   0  0  0  0  0  0  0  0  0  0  0  0
   29.9790   52.6170   -3.9790 C   0  0  0  0  0  0  0  0  0  0  0  0
   29.2720   52.0480   -6.1820 C   0  0  0  0  0  0  0  0  0  0  0  0
   29.7230   51.6330   -4.9260 C   0  0  0  0  0  0  0  0  0  0  0  0
   29.9300   50.1900   -4.5890 C   0  0  0  0  0  0  0  0  0  0  0  0
   30.5010   49.9420   -3.4590 N   0  0  0  0  0  0  0  0  0  0  0  0
   29.5040   49.2410   -5.4880 N   0  0  0  0  0  0  0  0  0  0  0  0
   30.7510   48.5670   -3.0400 C   0  0  0  0  0  0  0  0  0  0  0  0
   32.2350   48.4160   -2.7030 C   0  0  0  0  0  0  0  0  0  0  0  0
   32.8320   47.1610   -3.3440 C   0  0  0  0  0  0  0  0  0  0  0  0
   34.3330   47.0660   -3.1560 C   0  0  0  0  0  0  0  0  0  0  0  0
   35.0610   45.9010   -3.4870 C   0  0  0  0  0  0  0  0  0  0  0  0
   35.0260   48.1720   -2.6350 C   0  0  0  0  0  0  0  0  0  0  0  0
   34.3700   44.8260   -4.0000 O   0  0  0  0  0  0  0  0  0  0  0  0
   36.4050   48.1310   -2.4440 C   0  0  0  0  0  0  0  0  0  0  0  0
   36.4530   45.8670   -3.2900 C   0  0  0  0  0  0  0  0  0  0  0  0
   37.4060   44.4760   -3.6720 Cl  0  0  0  0  0  0  0  0  0  0  0  0
   33.4300   45.2050   -5.0100 C   0  0  0  0  0  0  0  0  0  0  0  0
   37.1190   46.9780   -2.7710 C   0  0  0  0  0  0  0  0  0  0  0  0
   33.4110   44.2140   -6.1600 C   0  0  0  0  0  0  0  0  0  0  0  0
   32.2180   44.2060   -6.7980 O   0  0  0  0  0  0  0  0  0  0  0  0
   34.3030   43.4740   -6.5440 O   0  0  0  0  0  0  0  0  0  0  0  0
  1  2  1  0
  2  3  2  0
  2  4  1  0
  4  5  2  0
  3  6  1  0
  5  7  1  0
  6  7  2  0
  7  8  1  0
  8  9  2  3
  8 10  1  0
  9 11  1  0
 11 12  1  0
 12 13  1  0
 13 14  1  0
 14 15  2  0
 14 16  1  0
 15 17  1  0
 16 18  2  0
 15 19  1  0
 19 20  1  0
 17 21  1  0
 18 22  1  0
 19 22  2  0
 21 23  1  0
 23 24  1  0
 23 25  2  0
M  END
