mac-x0282-mac-x0394
     RDKit          3D

 22 24  0  0  0  0  0  0  0  0999 V2000
   23.8220   49.6750   -3.9360 Cl  0  0  0  0  0  0  0  0  0  0  0  0
   25.0680   50.7390   -4.4670 C   0  0  0  0  0  0  0  0  0  0  0  0
   25.7420   51.5240   -3.5370 C   0  0  0  0  0  0  0  0  0  0  0  0
   25.3900   50.8060   -5.8240 C   0  0  0  0  0  0  0  0  0  0  0  0
   26.4030   51.6680   -6.2800 C   0  0  0  0  0  0  0  0  0  0  0  0
   26.7450   52.3820   -3.9740 C   0  0  0  0  0  0  0  0  0  0  0  0
   27.5760   53.3590   -2.8220 Cl  0  0  0  0  0  0  0  0  0  0  0  0
   26.7600   51.7460   -7.7660 C   0  0  1  0  0  0  0  0  0  0  0  0
   27.0800   52.4610   -5.3310 C   0  0  0  0  0  0  0  0  0  0  0  0
   26.5840   53.1460   -8.3360 C   0  0  0  0  0  0  0  0  0  0  0  0
   28.1450   51.1670   -8.1290 C   0  0  0  0  0  0  0  0  0  0  0  0
   27.4490   54.0750   -7.8760 O   0  0  0  0  0  0  0  0  0  0  0  0
   25.7340   53.4710   -9.1610 O   0  0  0  0  0  0  0  0  0  0  0  0
   28.4590   49.9610   -7.3540 N   0  0  0  0  0  0  0  0  0  0  0  0
   29.5820   50.0100   -6.5320 C   0  0  0  0  0  0  0  0  0  0  0  0
   27.4380   49.0850   -6.9720 C   0  0  0  0  0  0  0  0  0  0  0  0
   29.6390   49.2130   -5.2700 C   0  0  0  0  0  0  0  0  0  0  0  0
   30.7000   50.6870   -6.6700 N   0  0  0  0  0  0  0  0  0  0  0  0
   27.4710   48.3440   -5.8480 C   0  0  0  0  0  0  0  0  0  0  0  0
   31.4550   50.3850   -5.5500 C   0  0  0  0  0  0  0  0  0  0  0  0
   30.8920   49.5330   -4.6860 C   0  0  0  0  0  0  0  0  0  0  0  0
   28.6150   48.4200   -4.9530 C   0  0  0  0  0  0  0  0  0  0  0  0
  1  2  1  0
  2  3  2  0
  2  4  1  0
  4  5  2  0
  3  6  1  0
  6  7  1  0
  5  8  1  0
  5  9  1  0
  6  9  2  0
  8 10  1  0
  8 11  1  1
 10 12  1  0
 10 13  2  0
 11 14  1  0
 14 15  1  0
 14 16  1  0
 15 17  1  0
 15 18  2  0
 16 19  2  0
 18 20  1  0
 17 21  1  0
 20 21  2  0
 17 22  2  0
 19 22  1  0
M  END
