mac-x0123-mac-x0337
     RDKit          3D

 23 26  0  0  0  0  0  0  0  0999 V2000
   27.7560   53.1700   -6.1440 N   0  0  0  0  0  0  0  0  0  0  0  0
   28.9720   52.5140   -5.6950 C   0  0  1  0  0  0  0  0  0  0  0  0
   29.8330   53.6000   -5.0810 C   0  0  2  0  0  0  0  0  0  0  0  0
   28.7210   51.4840   -4.7160 N   0  0  0  0  0  0  0  0  0  0  0  0
   28.4810   52.0200   -3.3640 C   0  0  2  0  0  0  0  0  0  0  0  0
   29.1610   54.2220   -3.9300 C   0  0  2  0  0  0  0  0  0  0  0  0
   30.1420   54.6870   -6.0430 C   0  0  0  0  0  0  0  0  0  0  0  0
   29.6800   50.5360   -4.4910 N   0  0  0  0  0  0  0  0  0  0  0  0
   28.1250   53.4000   -3.4280 N   0  0  0  0  0  0  0  0  0  0  0  0
   28.5180   55.4640   -4.5690 C   0  0  0  0  0  0  0  0  0  0  0  0
   29.4000   55.7370   -5.7530 C   0  0  0  0  0  0  0  0  0  0  0  0
   29.7390   51.8020   -2.6380 N   0  0  0  0  0  0  0  0  0  0  0  0
   30.5910   51.0160   -3.5540 C   0  0  0  0  0  0  0  0  0  0  0  0
   30.1800   49.7110   -5.8390 S   0  0  0  0  0  0  0  0  0  0  0  0
   29.0200   49.1590   -5.9840 O   0  0  0  0  0  0  0  0  0  0  0  0
   30.1260   50.3640   -7.3400 N   0  0  0  0  0  0  0  0  0  0  0  0
   31.7650   50.4260   -5.7680 C   0  0  0  0  0  0  0  0  0  0  0  0
   32.8660   49.7860   -5.2180 C   0  0  0  0  0  0  0  0  0  0  0  0
   32.0880   51.6860   -6.2440 C   0  0  0  0  0  0  0  0  0  0  0  0
   34.1260   50.3030   -5.1400 C   0  0  0  0  0  0  0  0  0  0  0  0
   33.3240   52.2510   -6.1930 C   0  0  0  0  0  0  0  0  0  0  0  0
   34.3490   51.5520   -5.6360 C   0  0  0  0  0  0  0  0  0  0  0  0
   35.7380   52.1560   -5.5660 C   0  0  0  0  0  0  0  0  0  0  0  0
  2  1  1  1
  2  3  1  0
  2  4  1  0
  4  5  1  0
  3  6  1  0
  3  7  1  6
  4  8  1  0
  5  9  1  6
  6  9  1  0
  6 10  1  6
  7 11  2  0
 10 11  1  0
  5 12  1  0
  8 13  1  0
 12 13  1  0
  8 14  1  0
 14 15  2  0
 14 16  1  0
 14 17  1  0
 17 18  2  0
 17 19  1  0
 18 20  1  0
 19 21  2  0
 20 22  2  0
 21 22  1  0
 22 23  1  0
M  END
