mac-x0385-mac-x0224
     RDKit          3D

 14 14  0  0  0  0  0  0  0  0999 V2000
   29.9680   50.2880   -2.9970 C   0  0  0  0  0  0  0  0  0  0  0  0
   30.3590   49.6350   -4.3380 C   0  0  1  0  0  0  0  0  0  0  0  0
   30.3420   48.0890   -4.1550 C   0  0  2  0  0  0  0  0  0  0  0  0
   29.4560   50.0650   -5.5180 C   0  0  2  0  0  0  0  0  0  0  0  0
   29.2360   51.5030   -5.6370 N   0  0  0  0  0  0  0  0  0  0  0  0
   31.4070   47.3950   -5.0250 C   0  0  0  0  0  0  0  0  0  0  0  0
   28.1340   49.5060   -5.3570 N   0  0  0  0  0  0  0  0  0  0  0  0
   29.0260   47.4270   -4.3660 N   0  0  0  0  0  0  0  0  0  0  0  0
   28.5100   52.1710   -6.9720 S   0  0  0  0  0  0  0  0  0  0  0  0
   28.2920   47.5020   -3.1040 O   0  0  0  0  0  0  0  0  0  0  0  0
   31.3810   47.1950   -6.2310 O   0  0  0  0  0  0  0  0  0  0  0  0
   32.4760   46.9760   -4.3110 O   0  0  0  0  0  0  0  0  0  0  0  0
   28.1830   48.0460   -5.4010 C   0  0  1  0  0  0  0  0  0  0  0  0
   26.7590   47.4920   -5.2790 C   0  0  0  0  0  0  0  0  0  0  0  0
  2  1  1  1
  2  3  1  0
  2  4  1  0
  4  5  1  1
  3  6  1  6
  4  7  1  0
  3  8  1  0
  5  9  1  0
  8 10  1  0
  6 11  2  0
  6 12  1  0
  7 13  1  0
  8 13  1  0
 13 14  1  1
M  END
