mac-x0346-mac-x0392
     RDKit          3D

 15 15  0  0  0  0  0  0  0  0999 V2000
   29.6800   54.8300   -5.5740 O   0  0  0  0  0  0  0  0  0  0  0  0
   29.0130   54.3050   -4.4470 N   0  0  0  0  0  0  0  0  0  0  0  0
   29.4300   53.0790   -3.9830 C   0  0  0  0  0  0  0  0  0  0  0  0
   29.9320   52.9830   -2.8640 O   0  0  0  0  0  0  0  0  0  0  0  0
   29.2680   51.8610   -4.8580 C   0  0  0  0  0  0  0  0  0  0  0  0
   29.6620   50.5680   -4.4510 C   0  0  0  0  0  0  0  0  0  0  0  0
   28.7020   52.0120   -6.1360 C   0  0  0  0  0  0  0  0  0  0  0  0
   30.2070   50.4500   -3.1900 O   0  0  0  0  0  0  0  0  0  0  0  0
   29.5130   49.4290   -5.2970 C   0  0  0  0  0  0  0  0  0  0  0  0
   28.5430   50.8980   -6.9830 C   0  0  0  0  0  0  0  0  0  0  0  0
   29.9510   48.0390   -4.8610 C   0  0  0  0  0  0  0  0  0  0  0  0
   28.9460   49.6000   -6.5850 C   0  0  0  0  0  0  0  0  0  0  0  0
   28.7760   48.5080   -7.4860 N   0  0  0  0  0  0  0  0  0  0  0  0
   30.5230   47.7600   -3.8210 O   0  0  0  0  0  0  0  0  0  0  0  0
   29.6690   47.0380   -5.7320 O   0  0  0  0  0  0  0  0  0  0  0  0
  1  2  1  0
  2  3  1  0
  3  4  2  0
  3  5  1  0
  5  6  2  0
  5  7  1  0
  6  8  1  0
  6  9  1  0
  7 10  2  0
  9 11  1  0
  9 12  2  0
 10 12  1  0
 12 13  1  0
 11 14  2  0
 11 15  1  0
M  END
