mac-x1493-mac-x0365
     RDKit          3D

 15 16  0  0  0  0  0  0  0  0999 V2000
   29.0810   48.4560   -5.2940 O   0  0  0  0  0  0  0  0  0  0  0  0
   29.7540   49.0400   -4.2790 C   0  0  0  0  0  0  0  0  0  0  0  0
   30.6840   48.4580   -3.7410 O   0  0  0  0  0  0  0  0  0  0  0  0
   29.2280   50.4090   -3.9340 C   0  0  2  0  0  0  0  0  0  0  0  0
   28.6040   51.0510   -5.1800 C   0  0  0  0  0  0  0  0  0  0  0  0
   30.3830   51.2190   -3.3510 C   0  0  2  0  0  0  0  0  0  0  0  0
   30.4720   50.9130   -2.0230 F   0  0  0  0  0  0  0  0  0  0  0  0
   29.5770   52.0240   -5.8710 C   0  0  2  0  0  0  0  0  0  0  0  0
   30.0930   52.6530   -3.4530 N   0  0  0  0  0  0  0  0  0  0  0  0
   28.7110   52.8310   -3.0070 O   0  0  0  0  0  0  0  0  0  0  0  0
   30.1380   53.1000   -4.8690 C   0  0  2  0  0  0  0  0  0  0  0  0
   28.9110   52.6110   -7.0990 C   0  0  0  0  0  0  0  0  0  0  0  0
   29.4480   54.4400   -4.9870 C   0  0  0  0  0  0  0  0  0  0  0  0
   28.5160   53.8900   -7.1600 C   0  0  0  0  0  0  0  0  0  0  0  0
   28.7040   54.7840   -6.0490 C   0  0  0  0  0  0  0  0  0  0  0  0
  1  2  1  0
  2  3  2  0
  4  2  1  6
  4  5  1  0
  4  6  1  0
  6  7  1  1
  8  5  1  1
  6  9  1  0
  9 10  1  0
  8 11  1  0
  9 11  1  0
  8 12  1  0
 11 13  1  1
 12 14  2  0
 13 15  2  0
 14 15  1  0
M  END
