mac-x0576-mac-x0590
     RDKit          3D

 20 22  0  0  0  0  0  0  0  0999 V2000
   29.0870   47.5620   -8.9830 N   0  0  0  0  0  0  0  0  0  0  0  0
   28.7240   48.3090   -7.8110 C   0  0  2  0  0  0  0  0  0  0  0  0
   29.3120   49.5850   -8.1360 N   0  0  0  0  0  0  0  0  0  0  0  0
   28.9950   47.6810   -6.5670 N   0  0  0  0  0  0  0  0  0  0  0  0
   29.8870   48.1780   -5.6750 C   0  0  0  0  0  0  0  0  0  0  0  0
   29.7780   50.3970   -7.0160 C   0  0  2  0  0  0  0  0  0  0  0  0
   30.5020   47.2770   -4.9590 N   0  0  0  0  0  0  0  0  0  0  0  0
   30.0660   49.7110   -5.6360 C   0  0  1  0  0  0  0  0  0  0  0  0
   28.9340   51.5600   -6.9480 N   0  0  0  0  0  0  0  0  0  0  0  0
   31.5330   47.5330   -3.9470 C   0  0  0  0  0  0  0  0  0  0  0  0
   29.0210   52.4170   -5.8860 C   0  0  0  0  0  0  0  0  0  0  0  0
   29.2910   50.3310   -4.5320 N   0  0  0  0  0  0  0  0  0  0  0  0
   28.8020   53.6170   -6.0390 O   0  0  0  0  0  0  0  0  0  0  0  0
   32.1250   46.1840   -3.4840 C   0  0  0  0  0  0  0  0  0  0  0  0
   29.4050   51.8040   -4.5410 C   0  0  0  0  0  0  0  0  0  0  0  0
   33.2490   45.5460   -4.3220 C   0  0  2  0  0  0  0  0  0  0  0  0
   33.1680   45.6620   -5.8350 C   0  0  0  0  0  0  0  0  0  0  0  0
   33.4420   44.0490   -4.1520 C   0  0  0  0  0  0  0  0  0  0  0  0
   32.5450   43.4900   -5.2400 C   0  0  0  0  0  0  0  0  0  0  0  0
   32.5490   44.4450   -6.3080 O   0  0  0  0  0  0  0  0  0  0  0  0
  2  1  1  6
  2  3  1  0
  2  4  1  0
  4  5  1  0
  6  3  1  6
  5  7  2  3
  5  8  1  0
  6  8  1  0
  6  9  1  0
  7 10  1  0
  9 11  1  0
  8 12  1  1
 11 13  2  0
 10 14  1  0
 11 15  1  0
 12 15  1  0
 16 14  1  1
 16 17  1  0
 16 18  1  0
 18 19  1  0
 17 20  1  0
 19 20  1  0
M  END
