mac-x0433-mac-x0223
     RDKit          3D

 25 26  0  0  0  0  0  0  0  0999 V2000
   28.6880   50.2710   -6.2810 C   0  0  0  0  0  0  0  0  0  0  0  0
   29.0640   51.3420   -5.3050 C   0  0  0  0  0  0  0  0  0  0  0  0
   29.1450   52.6600   -5.7010 C   0  0  0  0  0  0  0  0  0  0  0  0
   29.3170   50.9590   -4.0390 N   0  0  0  0  0  0  0  0  0  0  0  0
   29.6530   51.9050   -3.1570 C   0  0  0  0  0  0  0  0  0  0  0  0
   29.4980   53.5720   -4.7300 C   0  0  0  0  0  0  0  0  0  0  0  0
   29.6160   55.0300   -5.0580 C   0  0  0  0  0  0  0  0  0  0  0  0
   29.9020   51.4570   -1.8680 N   0  0  0  0  0  0  0  0  0  0  0  0
   29.7550   53.2070   -3.4590 N   0  0  0  0  0  0  0  0  0  0  0  0
   28.7300   51.1530   -1.0620 C   0  0  0  0  0  0  0  0  0  0  0  0
   28.1310   49.7990   -1.4370 C   0  0  0  0  0  0  0  0  0  0  0  0
   28.2660   48.7600   -0.3290 C   0  0  0  0  0  0  0  0  0  0  0  0
   28.0500   47.4690   -0.9060 O   0  0  0  0  0  0  0  0  0  0  0  0
   29.0270   46.9790   -1.7360 C   0  0  0  0  0  0  0  0  0  0  0  0
   28.8060   45.6940   -2.2710 C   0  0  0  0  0  0  0  0  0  0  0  0
   30.1970   47.6650   -2.0700 C   0  0  0  0  0  0  0  0  0  0  0  0
   27.6390   45.0710   -1.9050 O   0  0  0  0  0  0  0  0  0  0  0  0
   31.1400   47.0920   -2.9250 C   0  0  0  0  0  0  0  0  0  0  0  0
   29.7570   45.1260   -3.1280 C   0  0  0  0  0  0  0  0  0  0  0  0
   27.5590   43.6760   -2.1660 C   0  0  0  0  0  0  0  0  0  0  0  0
   30.9290   45.8170   -3.4630 C   0  0  0  0  0  0  0  0  0  0  0  0
   31.9500   45.1990   -4.3900 C   0  0  0  0  0  0  0  0  0  0  0  0
   32.2660   46.0280   -5.6110 C   0  0  0  0  0  0  0  0  0  0  0  0
   33.2550   46.7120   -5.8260 O   0  0  0  0  0  0  0  0  0  0  0  0
   31.2890   45.9550   -6.5410 O   0  0  0  0  0  0  0  0  0  0  0  0
  1  2  1  0
  2  3  2  0
  2  4  1  0
  4  5  2  0
  3  6  1  0
  6  7  1  0
  5  8  1  0
  5  9  1  0
  6  9  2  0
  8 10  1  0
 10 11  1  0
 11 12  1  0
 12 13  1  0
 13 14  1  0
 14 15  2  0
 14 16  1  0
 15 17  1  0
 16 18  2  0
 15 19  1  0
 17 20  1  0
 18 21  1  0
 19 21  2  0
 21 22  1  0
 22 23  1  0
 23 24  2  0
 23 25  1  0
M  END
