mac-x0387-mac-x0565
     RDKit          3D

 18 20  0  0  0  0  0  0  0  0999 V2000
   28.5010   51.4490   -7.3120 N   0  0  0  0  0  0  0  0  0  0  0  0
   28.7900   50.0970   -7.2420 C   0  0  0  0  0  0  0  0  0  0  0  0
   28.5030   49.5110   -8.4350 N   0  0  0  0  0  0  0  0  0  0  0  0
   29.3140   49.4380   -6.0690 C   0  0  0  0  0  0  0  0  0  0  0  0
   29.4990   48.0330   -6.3290 C   0  0  0  0  0  0  0  0  0  0  0  0
   28.7140   48.2010   -8.5680 C   0  0  0  0  0  0  0  0  0  0  0  0
   29.6800   49.9540   -4.6880 C   0  0  0  0  0  0  0  0  0  0  0  0
   29.2040   47.4330   -7.5530 C   0  0  0  0  0  0  0  0  0  0  0  0
   29.9860   47.1680   -5.3700 C   0  0  0  0  0  0  0  0  0  0  0  0
   30.1720   48.9480   -3.7820 C   0  0  0  0  0  0  0  0  0  0  0  0
   29.6560   51.2800   -4.0230 C   0  0  0  0  0  0  0  0  0  0  0  0
   29.2480   52.6170   -4.5270 C   0  0  0  0  0  0  0  0  0  0  0  0
   30.3120   47.6200   -4.1270 C   0  0  0  0  0  0  0  0  0  0  0  0
   30.5620   49.1850   -2.4690 C   0  0  0  0  0  0  0  0  0  0  0  0
   30.0630   51.4700   -2.6840 C   0  0  0  0  0  0  0  0  0  0  0  0
   28.5380   52.5730   -5.6540 O   0  0  0  0  0  0  0  0  0  0  0  0
   29.5220   53.6740   -3.9750 O   0  0  0  0  0  0  0  0  0  0  0  0
   30.5110   50.4310   -1.9130 C   0  0  0  0  0  0  0  0  0  0  0  0
  1  2  1  0
  2  3  2  0
  2  4  1  0
  4  5  2  0
  3  6  1  0
  4  7  1  0
  5  8  1  0
  6  8  2  0
  5  9  1  0
  7 10  2  0
  7 11  1  0
 11 12  1  0
  9 13  2  0
 10 13  1  0
 10 14  1  0
 11 15  2  0
 12 16  1  0
 12 17  2  0
 14 18  2  0
 15 18  1  0
M  END
