mac-x0337-mac-x0588
     RDKit          3D

 26 29  0  0  0  0  0  0  0  0999 V2000
   35.5670   51.7970   -6.1030 C   0  0  0  0  0  0  0  0  0  0  0  0
   34.1610   51.8610   -5.5840 C   0  0  0  0  0  0  0  0  0  0  0  0
   33.3670   52.9980   -5.8000 C   0  0  0  0  0  0  0  0  0  0  0  0
   33.6260   50.7760   -4.8750 C   0  0  0  0  0  0  0  0  0  0  0  0
   32.3120   50.8230   -4.3860 C   0  0  0  0  0  0  0  0  0  0  0  0
   32.0560   53.0510   -5.3150 C   0  0  0  0  0  0  0  0  0  0  0  0
   31.5330   51.9620   -4.6080 C   0  0  0  0  0  0  0  0  0  0  0  0
   29.8590   52.0460   -3.9880 S   0  0  0  0  0  0  0  0  0  0  0  0
   29.8710   51.4870   -2.6480 O   0  0  0  0  0  0  0  0  0  0  0  0
   29.3480   53.3780   -4.2260 O   0  0  0  0  0  0  0  0  0  0  0  0
   28.9380   50.9320   -4.9340 N   0  0  0  0  0  0  0  0  0  0  0  0
   29.7290   49.8700   -5.4200 N   0  0  0  0  0  0  0  0  0  0  0  0
   29.4690   49.5790   -6.8430 C   0  0  0  0  0  0  0  0  0  0  0  0
   29.6320   48.6700   -4.5490 C   0  0  0  0  0  0  0  0  0  0  0  0
   30.0100   47.4520   -5.2790 N   0  0  0  0  0  0  0  0  0  0  0  0
   28.4660   48.4310   -6.9990 C   0  0  2  0  0  0  0  0  0  0  0  0
   30.2220   46.2740   -4.4090 C   0  0  0  0  0  0  0  0  0  0  0  0
   29.0590   47.1770   -6.3490 C   0  0  1  0  0  0  0  0  0  0  0  0
   28.2030   48.0410   -8.3960 N   0  0  0  0  0  0  0  0  0  0  0  0
   29.7920   46.5750   -7.4510 N   0  0  0  0  0  0  0  0  0  0  0  0
   29.1380   46.9590   -8.6830 C   0  0  0  0  0  0  0  0  0  0  0  0
   28.9830   45.8020   -3.6020 C   0  0  2  0  0  0  0  0  0  0  0  0
   28.9730   46.4490   -2.3090 O   0  0  0  0  0  0  0  0  0  0  0  0
   29.0260   44.3110   -3.2890 C   0  0  0  0  0  0  0  0  0  0  0  0
   28.2290   44.2150   -2.0150 C   0  0  0  0  0  0  0  0  0  0  0  0
   28.6130   45.4940   -1.3000 C   0  0  0  0  0  0  0  0  0  0  0  0
  1  2  1  0
  2  3  2  0
  2  4  1  0
  4  5  2  0
  3  6  1  0
  5  7  1  0
  6  7  2  0
  7  8  1  0
  8  9  2  0
  8 10  2  0
  8 11  1  0
 11 12  1  0
 12 13  1  0
 12 14  1  0
 14 15  1  0
 16 13  1  6
 15 17  1  0
 15 18  1  0
 16 18  1  0
 16 19  1  0
 18 20  1  6
 19 21  1  0
 20 21  1  0
 22 17  1  6
 22 23  1  0
 22 24  1  0
 24 25  1  0
 23 26  1  0
 25 26  1  0
M  END
