mac-x0231-mac-x0358
     RDKit          3D

 16 17  0  0  0  0  0  0  0  0999 V2000
   34.2240   45.4530   -6.7480 O   0  0  0  0  0  0  0  0  0  0  0  0
   32.9660   45.0850   -6.4280 C   0  0  0  0  0  0  0  0  0  0  0  0
   32.0310   45.4400   -7.1280 O   0  0  0  0  0  0  0  0  0  0  0  0
   32.9180   44.2440   -5.1830 C   0  0  0  0  0  0  0  0  0  0  0  0
   31.6890   44.5090   -4.3420 C   0  0  0  0  0  0  0  0  0  0  0  0
   31.6170   45.6980   -3.4380 C   0  0  0  0  0  0  0  0  0  0  0  0
   30.7140   43.6460   -4.4700 N   0  0  0  0  0  0  0  0  0  0  0  0
   30.4030   45.8780   -2.7600 C   0  0  0  0  0  0  0  0  0  0  0  0
   29.5780   43.8320   -3.7490 N   0  0  0  0  0  0  0  0  0  0  0  0
   32.6500   46.6330   -3.2160 C   0  0  0  0  0  0  0  0  0  0  0  0
   33.8760   46.5450   -3.8260 O   0  0  0  0  0  0  0  0  0  0  0  0
   29.2990   44.9170   -2.9620 C   0  0  0  0  0  0  0  0  0  0  0  0
   30.2170   46.9600   -1.8900 C   0  0  0  0  0  0  0  0  0  0  0  0
   32.4560   47.7120   -2.3450 C   0  0  0  0  0  0  0  0  0  0  0  0
   28.1990   45.0860   -2.4480 O   0  0  0  0  0  0  0  0  0  0  0  0
   31.2430   47.8770   -1.6850 C   0  0  0  0  0  0  0  0  0  0  0  0
  1  2  1  0
  2  3  2  0
  2  4  1  0
  4  5  1  0
  5  6  1  0
  5  7  2  0
  6  8  2  0
  7  9  1  0
  6 10  1  0
 10 11  1  0
  8 12  1  0
  9 12  1  0
  8 13  1  0
 10 14  2  0
 12 15  2  0
 13 16  2  0
 14 16  1  0
M  END
