mac-x0226-mac-x0319
     RDKit          3D

 22 24  0  0  0  0  0  0  0  0999 V2000
   33.3240   47.3260   -5.9020 O   0  0  0  0  0  0  0  0  0  0  0  0
   33.0730   45.9370   -6.0720 C   0  0  0  0  0  0  0  0  0  0  0  0
   33.6640   45.6420   -7.3300 O   0  0  0  0  0  0  0  0  0  0  0  0
   31.5380   45.7350   -6.1300 C   0  0  0  0  0  0  0  0  0  0  0  0
   33.7190   45.1520   -4.9700 C   0  0  0  0  0  0  0  0  0  0  0  0
   33.5080   43.7980   -4.6430 C   0  0  0  0  0  0  0  0  0  0  0  0
   34.6520   45.5650   -4.0390 C   0  0  0  0  0  0  0  0  0  0  0  0
   30.8280   45.7410   -4.7930 C   0  0  0  0  0  0  0  0  0  0  0  0
   34.2370   43.3910   -3.6060 N   0  0  0  0  0  0  0  0  0  0  0  0
   34.9470   44.4900   -3.2310 N   0  0  0  0  0  0  0  0  0  0  0  0
   29.8750   44.7580   -4.4820 C   0  0  0  0  0  0  0  0  0  0  0  0
   31.1130   46.7370   -3.8450 C   0  0  0  0  0  0  0  0  0  0  0  0
   35.8540   44.4370   -2.1330 C   0  0  0  0  0  0  0  0  0  0  0  0
   29.2330   44.7830   -3.2470 C   0  0  0  0  0  0  0  0  0  0  0  0
   30.4610   46.7490   -2.6110 C   0  0  0  0  0  0  0  0  0  0  0  0
   28.3030   43.8420   -2.9120 O   0  0  0  0  0  0  0  0  0  0  0  0
   36.6530   45.5550   -1.8440 C   0  0  0  0  0  0  0  0  0  0  0  0
   35.9630   43.2890   -1.3350 C   0  0  0  0  0  0  0  0  0  0  0  0
   29.5170   45.7680   -2.3110 C   0  0  0  0  0  0  0  0  0  0  0  0
   37.5460   45.5240   -0.7750 C   0  0  0  0  0  0  0  0  0  0  0  0
   36.8610   43.2670   -0.2660 C   0  0  0  0  0  0  0  0  0  0  0  0
   37.6520   44.3810    0.0160 C   0  0  0  0  0  0  0  0  0  0  0  0
  2  1  1  0
  2  3  1  0
  2  4  1  0
  2  5  1  0
  5  6  1  0
  5  7  2  0
  4  8  1  0
  6  9  2  0
  7 10  1  0
  9 10  1  0
  8 11  2  0
  8 12  1  0
 10 13  1  0
 11 14  1  0
 12 15  2  0
 14 16  1  0
 13 17  2  0
 13 18  1  0
 14 19  2  0
 15 19  1  0
 17 20  1  0
 18 21  2  0
 20 22  2  0
 21 22  1  0
M  END
