mac-x0338-mac-x0415
     RDKit          3D

 25 27  0  0  0  0  0  0  0  0999 V2000
   28.2840   51.8420   -7.5880 N   0  0  0  0  0  0  0  0  0  0  0  0
   28.6670   52.4750   -6.4360 C   0  0  0  0  0  0  0  0  0  0  0  0
   28.4650   53.6710   -6.2620 O   0  0  0  0  0  0  0  0  0  0  0  0
   29.3550   51.6370   -5.4170 C   0  0  0  0  0  0  0  0  0  0  0  0
   29.5100   50.3060   -5.6840 N   0  0  0  0  0  0  0  0  0  0  0  0
   29.8110   52.2320   -4.2550 C   0  0  0  0  0  0  0  0  0  0  0  0
   30.1720   49.6260   -4.7040 C   0  0  0  0  0  0  0  0  0  0  0  0
   30.4620   51.5410   -3.2910 N   0  0  0  0  0  0  0  0  0  0  0  0
   30.6450   50.2240   -3.5380 C   0  0  0  0  0  0  0  0  0  0  0  0
   31.3930   49.4300   -2.5100 C   0  0  0  0  0  0  0  0  0  0  0  0
   30.9150   49.6410   -1.0770 C   0  0  0  0  0  0  0  0  0  0  0  0
   30.4880   48.4350   -0.4650 O   0  0  0  0  0  0  0  0  0  0  0  0
   30.1190   47.3990   -1.2940 C   0  0  0  0  0  0  0  0  0  0  0  0
   28.7010   47.1310   -1.5550 C   0  0  0  0  0  0  0  0  0  0  0  0
   31.0790   46.6410   -1.8790 C   0  0  0  0  0  0  0  0  0  0  0  0
   30.6630   45.5770   -2.7520 C   0  0  0  0  0  0  0  0  0  0  0  0
   28.3150   45.9550   -2.0960 C   0  0  0  0  0  0  0  0  0  0  0  0
   31.2340   45.0230   -3.8290 C   0  0  0  0  0  0  0  0  0  0  0  0
   29.3580   44.9390   -2.4080 C   0  0  1  0  0  0  0  0  0  0  0  0
   32.5040   45.2000   -4.5830 C   0  0  0  0  0  0  0  0  0  0  0  0
   30.1920   44.0510   -4.2050 C   0  0  0  0  0  0  0  0  0  0  0  0
   29.1080   43.9640   -3.4830 N   0  0  0  0  0  0  0  0  0  0  0  0
   32.3970   45.9580   -5.8830 C   0  0  0  0  0  0  0  0  0  0  0  0
   33.5020   46.6880   -6.1380 O   0  0  0  0  0  0  0  0  0  0  0  0
   31.4560   45.9520   -6.6570 O   0  0  0  0  0  0  0  0  0  0  0  0
  1  2  1  0
  2  3  2  0
  2  4  1  0
  4  5  2  0
  4  6  1  0
  5  7  1  0
  6  8  2  0
  7  9  2  0
  8  9  1  0
  9 10  1  0
 10 11  1  0
 11 12  1  0
 12 13  1  0
 13 14  1  0
 13 15  2  0
 15 16  1  0
 14 17  2  0
 16 18  2  0
 16 19  1  0
 19 17  1  6
 18 20  1  0
 18 21  1  0
 19 22  1  0
 21 22  2  0
 20 23  1  0
 23 24  1  0
 23 25  2  0
M  END
