mac-x0441-mac-x0131
     RDKit          3D

 34 38  0  0  0  0  0  0  0  0999 V2000
   35.4410   45.3770   -6.4010 O   0  0  0  0  0  0  0  0  0  0  0  0
   34.1740   45.0310   -6.6550 C   0  0  0  0  0  0  0  0  0  0  0  0
   33.8780   44.2820   -7.5590 O   0  0  0  0  0  0  0  0  0  0  0  0
   33.2130   45.5950   -5.8270 C   0  0  0  0  0  0  0  0  0  0  0  0
   33.0730   45.6930   -4.4280 C   0  0  0  0  0  0  0  0  0  0  0  0
   32.1600   46.1960   -6.3740 C   0  0  0  0  0  0  0  0  0  0  0  0
   34.1050   45.1650   -3.5990 N   0  0  0  0  0  0  0  0  0  0  0  0
   31.8430   46.3540   -4.2590 C   0  0  0  0  0  0  0  0  0  0  0  0
   31.3470   46.6460   -5.4570 O   0  0  0  0  0  0  0  0  0  0  0  0
   30.8550   46.8880   -3.3170 C   0  0  0  0  0  0  0  0  0  0  0  0
   34.2120   43.8970   -3.0920 N   0  0  0  0  0  0  0  0  0  0  0  0
   35.1770   45.9290   -3.2350 C   0  0  0  0  0  0  0  0  0  0  0  0
   35.3960   43.8890   -2.4090 C   0  0  0  0  0  0  0  0  0  0  0  0
   36.0200   45.1580   -2.4830 C   0  0  0  0  0  0  0  0  0  0  0  0
   35.4000   47.3540   -3.6050 C   0  0  0  0  0  0  0  0  0  0  0  0
   30.2840   48.0910   -3.9690 N   0  0  0  0  0  0  0  0  0  0  0  0
   35.9660   42.6930   -1.6840 C   0  0  0  0  0  0  0  0  0  0  0  0
   37.3020   45.6650   -1.9230 C   0  0  0  0  0  0  0  0  0  0  0  0
   36.5000   47.9560   -2.7160 C   0  0  0  0  0  0  0  0  0  0  0  0
   30.2580   49.3160   -3.3530 C   0  0  0  0  0  0  0  0  0  0  0  0
   29.7090   48.2140   -5.2530 C   0  0  0  0  0  0  0  0  0  0  0  0
   37.0410   42.1750   -2.3470 F   0  0  0  0  0  0  0  0  0  0  0  0
   36.4000   42.9700   -0.4260 F   0  0  0  0  0  0  0  0  0  0  0  0
   35.0680   41.6770   -1.5760 F   0  0  0  0  0  0  0  0  0  0  0  0
   30.7960   49.4990   -1.9770 C   0  0  0  0  0  0  0  0  0  0  0  0
   37.6990   46.9990   -2.5850 C   0  0  0  0  0  0  0  0  0  0  0  0
   29.6840   50.2360   -4.2190 C   0  0  0  0  0  0  0  0  0  0  0  0
   29.3370   49.5460   -5.4240 C   0  0  0  0  0  0  0  0  0  0  0  0
   29.5330   47.2460   -6.1860 N   0  0  0  0  0  0  0  0  0  0  0  0
   29.4660   51.6860   -3.9530 C   0  0  0  0  0  0  0  0  0  0  0  0
   28.7460   49.9000   -6.6570 C   0  0  0  0  0  0  0  0  0  0  0  0
   28.9610   47.7050   -7.3170 C   0  0  0  0  0  0  0  0  0  0  0  0
   28.3260   51.1910   -6.9790 N   0  0  0  0  0  0  0  0  0  0  0  0
   28.5640   48.9580   -7.6020 N   0  0  0  0  0  0  0  0  0  0  0  0
  1  2  1  0
  2  3  2  0
  2  4  1  0
  4  5  1  0
  4  6  2  0
  5  7  1  0
  5  8  2  0
  6  9  1  0
  8  9  1  0
  8 10  1  0
  7 11  1  0
  7 12  1  0
 11 13  2  0
 12 14  2  0
 13 14  1  0
 12 15  1  0
 10 16  1  0
 13 17  1  0
 14 18  1  0
 15 19  1  0
 16 20  1  0
 16 21  1  0
 17 22  1  0
 17 23  1  0
 17 24  1  0
 20 25  1  0
 18 26  1  0
 19 26  1  0
 20 27  2  0
 21 28  2  0
 27 28  1  0
 21 29  1  0
 27 30  1  0
 28 31  1  0
 29 32  2  0
 31 33  1  0
 31 34  2  0
 32 34  1  0
M  END
