mac-x0344-mac-x0412
     RDKit          3D

 26 28  0  0  0  0  0  0  0  0999 V2000
   31.7030   44.5300   -4.3190 O   0  0  0  0  0  0  0  0  0  0  0  0
   32.1700   45.4430   -5.1880 C   0  0  0  0  0  0  0  0  0  0  0  0
   31.4040   46.0130   -6.0450 N   0  0  0  0  0  0  0  0  0  0  0  0
   33.6640   45.7160   -5.0210 C   0  0  0  0  0  0  0  0  0  0  0  0
   34.2790   46.0510   -6.0160 O   0  0  0  0  0  0  0  0  0  0  0  0
   34.1140   45.5590   -3.7270 N   0  0  0  0  0  0  0  0  0  0  0  0
   29.9780   45.7140   -6.0810 C   0  0  0  0  0  0  0  0  0  0  0  0
   29.2310   47.0220   -5.7710 C   0  0  0  0  0  0  0  0  0  0  0  0
   35.2640   46.1620   -3.1740 C   0  0  0  0  0  0  0  0  0  0  0  0
   29.8820   47.8940   -4.6740 C   0  0  0  0  0  0  0  0  0  0  0  0
   36.2600   45.4620   -2.4960 C   0  0  0  0  0  0  0  0  0  0  0  0
   35.3950   47.5490   -3.3270 C   0  0  0  0  0  0  0  0  0  0  0  0
   37.3720   46.1370   -1.9780 C   0  0  0  0  0  0  0  0  0  0  0  0
   36.5050   48.2230   -2.8100 C   0  0  0  0  0  0  0  0  0  0  0  0
   29.6760   49.3980   -4.7800 C   0  0  0  0  0  0  0  0  0  0  0  0
   37.4950   47.5160   -2.1340 C   0  0  0  0  0  0  0  0  0  0  0  0
   29.1080   49.9950   -5.8520 C   0  0  0  0  0  0  0  0  0  0  0  0
   30.1230   50.2060   -3.6530 C   0  0  0  0  0  0  0  0  0  0  0  0
   28.9240   51.4420   -5.9080 C   0  0  0  0  0  0  0  0  0  0  0  0
   29.7810   51.5030   -3.5480 C   0  0  0  0  0  0  0  0  0  0  0  0
   28.9170   52.1850   -4.5820 C   0  0  1  0  0  0  0  0  0  0  0  0
   28.7630   52.0890   -7.0700 C   0  0  0  0  0  0  0  0  0  0  0  0
   29.2510   53.6900   -4.7850 C   0  0  0  0  0  0  0  0  0  0  0  0
   28.5830   53.5530   -6.9830 C   0  0  0  0  0  0  0  0  0  0  0  0
   29.8800   54.3270   -3.9420 O   0  0  0  0  0  0  0  0  0  0  0  0
   28.8000   54.2950   -5.9480 N   0  0  0  0  0  0  0  0  0  0  0  0
  1  2  1  0
  2  3  2  3
  2  4  1  0
  4  5  2  0
  4  6  1  0
  3  7  1  0
  7  8  1  0
  6  9  1  0
  8 10  1  0
  9 11  2  0
  9 12  1  0
 11 13  1  0
 12 14  2  0
 10 15  1  0
 13 16  2  0
 14 16  1  0
 15 17  2  0
 15 18  1  0
 17 19  1  0
 18 20  2  0
 19 21  1  0
 21 20  1  1
 19 22  2  0
 21 23  1  0
 22 24  1  0
 23 25  2  0
 23 26  1  0
 24 26  2  0
M  END
