mac-x0231-mac-x0411
     RDKit          3D

 24 26  0  0  0  0  0  0  0  0999 V2000
   33.9940   44.2780   -7.1760 O   0  0  0  0  0  0  0  0  0  0  0  0
   32.8450   44.7860   -6.6630 C   0  0  0  0  0  0  0  0  0  0  0  0
   31.8080   44.6620   -7.2950 O   0  0  0  0  0  0  0  0  0  0  0  0
   33.0590   45.4670   -5.3060 C   0  0  2  0  0  0  0  0  0  0  0  0
   34.3190   45.0330   -4.7600 O   0  0  0  0  0  0  0  0  0  0  0  0
   31.9050   45.1360   -4.3400 C   0  0  0  0  0  0  0  0  0  0  0  0
   31.6730   45.9770   -3.1270 C   0  0  0  0  0  0  0  0  0  0  0  0
   31.1370   44.1110   -4.6260 N   0  0  0  0  0  0  0  0  0  0  0  0
   35.0490   45.9410   -4.0040 C   0  0  0  0  0  0  0  0  0  0  0  0
   30.5090   45.7290   -2.3970 C   0  0  0  0  0  0  0  0  0  0  0  0
   30.1070   43.8220   -3.7940 N   0  0  0  0  0  0  0  0  0  0  0  0
   32.5370   46.9910   -2.6780 C   0  0  0  0  0  0  0  0  0  0  0  0
   34.9460   47.3410   -4.1980 C   0  0  0  0  0  0  0  0  0  0  0  0
   35.9310   45.4740   -3.0090 C   0  0  0  0  0  0  0  0  0  0  0  0
   36.1460   43.7890   -2.6900 Cl  0  0  0  0  0  0  0  0  0  0  0  0
   33.9180   48.0800   -5.3730 Cl  0  0  0  0  0  0  0  0  0  0  0  0
   29.5920   44.6720   -2.8500 C   0  0  0  0  0  0  0  0  0  0  0  0
   30.2030   46.4670   -1.2480 C   0  0  0  0  0  0  0  0  0  0  0  0
   32.2320   47.7280   -1.5300 C   0  0  0  0  0  0  0  0  0  0  0  0
   35.7000   48.2200   -3.4130 C   0  0  0  0  0  0  0  0  0  0  0  0
   36.6760   46.3660   -2.2370 C   0  0  0  0  0  0  0  0  0  0  0  0
   28.4530   44.5680   -2.4100 O   0  0  0  0  0  0  0  0  0  0  0  0
   31.0680   47.4670   -0.8150 C   0  0  0  0  0  0  0  0  0  0  0  0
   36.5620   47.7370   -2.4360 C   0  0  0  0  0  0  0  0  0  0  0  0
  1  2  1  0
  2  3  2  0
  2  4  1  0
  4  5  1  1
  4  6  1  0
  6  7  1  0
  6  8  2  0
  5  9  1  0
  7 10  2  0
  8 11  1  0
  7 12  1  0
  9 13  2  0
  9 14  1  0
 14 15  1  0
 13 16  1  0
 10 17  1  0
 11 17  1  0
 10 18  1  0
 12 19  2  0
 13 20  1  0
 14 21  2  0
 17 22  2  0
 18 23  2  0
 19 23  1  0
 20 24  2  0
 21 24  1  0
M  END
