mac-x0441-mac-x0472
     RDKit          3D

 34 37  0  0  0  0  0  0  0  0999 V2000
   34.2580   44.9720   -6.3860 O   0  0  0  0  0  0  0  0  0  0  0  0
   33.0240   45.0260   -5.8370 C   0  0  0  0  0  0  0  0  0  0  0  0
   32.0230   44.7260   -6.4780 O   0  0  0  0  0  0  0  0  0  0  0  0
   32.9520   45.4980   -4.4010 C   0  0  2  0  0  0  0  0  0  0  0  0
   32.7020   47.0100   -4.5010 C   0  0  0  0  0  0  0  0  0  0  0  0
   34.1580   45.1440   -3.6410 N   0  0  0  0  0  0  0  0  0  0  0  0
   32.4270   47.6890   -3.1640 C   0  0  0  0  0  0  0  0  0  0  0  0
   34.3010   43.8860   -3.1300 N   0  0  0  0  0  0  0  0  0  0  0  0
   35.2220   45.9420   -3.3540 C   0  0  0  0  0  0  0  0  0  0  0  0
   31.0760   48.2640   -3.1470 N   0  0  0  0  0  0  0  0  0  0  0  0
   35.5080   43.8990   -2.5010 C   0  0  0  0  0  0  0  0  0  0  0  0
   36.1090   45.1800   -2.6260 C   0  0  0  0  0  0  0  0  0  0  0  0
   35.4230   47.3660   -3.7400 C   0  0  0  0  0  0  0  0  0  0  0  0
   36.1060   42.7080   -1.7770 C   0  0  0  0  0  0  0  0  0  0  0  0
   30.7140   49.5450   -3.9260 S   0  0  2  0  0  0  0  0  0  0  0  0
   37.4120   45.7020   -2.1230 C   0  0  0  0  0  0  0  0  0  0  0  0
   36.5090   47.9840   -2.8460 C   0  0  0  0  0  0  0  0  0  0  0  0
   37.1860   42.1830   -2.4170 F   0  0  0  0  0  0  0  0  0  0  0  0
   36.5210   43.0350   -0.5250 F   0  0  0  0  0  0  0  0  0  0  0  0
   35.2080   41.6940   -1.6310 F   0  0  0  0  0  0  0  0  0  0  0  0
   29.8060   50.5360   -3.3960 O   0  0  0  0  0  0  0  0  0  0  0  0
   29.9250   48.8970   -5.2570 N   0  0  0  0  0  0  0  0  0  0  0  0
   37.7450   47.0740   -2.7440 C   0  0  0  0  0  0  0  0  0  0  0  0
   32.1550   50.3940   -4.5260 C   0  0  0  0  0  0  0  0  0  0  0  0
   29.3910   49.7130   -6.1940 C   0  0  0  0  0  0  0  0  0  0  0  0
   33.2680   49.6770   -4.9690 C   0  0  0  0  0  0  0  0  0  0  0  0
   32.1590   51.7930   -4.5500 C   0  0  0  0  0  0  0  0  0  0  0  0
   29.1670   49.3380   -7.4420 N   0  0  0  0  0  0  0  0  0  0  0  0
   28.9260   51.3570   -5.9070 S   0  0  0  0  0  0  0  0  0  0  0  0
   34.3880   50.3590   -5.4390 C   0  0  0  0  0  0  0  0  0  0  0  0
   33.2840   52.4700   -5.0220 C   0  0  0  0  0  0  0  0  0  0  0  0
   28.4410   51.4430   -7.5400 C   0  0  0  0  0  0  0  0  0  0  0  0
   28.6180   50.3360   -8.2250 N   0  0  0  0  0  0  0  0  0  0  0  0
   34.3960   51.7550   -5.4660 C   0  0  0  0  0  0  0  0  0  0  0  0
  1  2  1  0
  2  3  2  0
  2  4  1  0
  4  5  1  6
  4  6  1  0
  5  7  1  0
  6  8  1  0
  6  9  1  0
  7 10  1  0
  8 11  2  0
  9 12  2  0
 11 12  1  0
  9 13  1  0
 11 14  1  0
 10 15  2  0
 12 16  1  0
 13 17  1  0
 14 18  1  0
 14 19  1  0
 14 20  1  0
 15 21  2  0
 15 22  1  6
 16 23  1  0
 17 23  1  0
 15 24  1  0
 22 25  1  0
 24 26  2  0
 24 27  1  0
 25 28  2  0
 25 29  1  0
 26 30  1  0
 27 31  2  0
 29 32  1  0
 28 33  1  0
 32 33  2  0
 30 34  2  0
 31 34  1  0
M  END
