mac-x0333-mac-x0417
     RDKit          3D

 26 29  0  0  0  0  0  0  0  0999 V2000
   30.0310   48.4900   -3.6860 O   0  0  0  0  0  0  0  0  0  0  0  0
   29.7840   49.7000   -4.2710 C   0  0  0  0  0  0  0  0  0  0  0  0
   29.4020   49.7160   -5.6290 C   0  0  0  0  0  0  0  0  0  0  0  0
   29.9120   50.8720   -3.5280 C   0  0  0  0  0  0  0  0  0  0  0  0
   29.2750   48.4270   -6.4160 C   0  0  0  0  0  0  0  0  0  0  0  0
   29.6490   52.0650   -4.1690 C   0  0  0  0  0  0  0  0  0  0  0  0
   29.1390   50.9590   -6.2470 C   0  0  0  0  0  0  0  0  0  0  0  0
   30.6090   47.7150   -6.7470 C   0  0  0  0  0  0  0  0  0  0  0  0
   29.2720   52.1090   -5.4910 C   0  0  0  0  0  0  0  0  0  0  0  0
   29.7230   53.3040   -3.6150 O   0  0  0  0  0  0  0  0  0  0  0  0
   31.1620   46.8370   -5.6150 C   0  0  0  0  0  0  0  0  0  0  0  0
   29.0620   53.3870   -5.9150 O   0  0  0  0  0  0  0  0  0  0  0  0
   29.5860   54.1230   -4.7920 C   0  0  0  0  0  0  0  0  0  0  0  0
   31.9350   45.7550   -6.1710 O   0  0  0  0  0  0  0  0  0  0  0  0
   33.1560   45.5240   -5.5950 C   0  0  0  0  0  0  0  0  0  0  0  0
   34.2140   45.4990   -6.2120 O   0  0  0  0  0  0  0  0  0  0  0  0
   32.9920   45.3070   -4.1050 C   0  0  0  0  0  0  0  0  0  0  0  0
   34.2850   45.0510   -3.4110 C   0  0  0  0  0  0  0  0  0  0  0  0
   34.5930   43.8090   -2.9980 N   0  0  0  0  0  0  0  0  0  0  0  0
   35.3230   45.9690   -3.0870 C   0  0  0  0  0  0  0  0  0  0  0  0
   35.8410   43.9030   -2.4000 O   0  0  0  0  0  0  0  0  0  0  0  0
   36.2750   45.1900   -2.4540 C   0  0  0  0  0  0  0  0  0  0  0  0
   35.5730   47.3410   -3.2500 C   0  0  0  0  0  0  0  0  0  0  0  0
   37.4860   45.6750   -1.9560 C   0  0  0  0  0  0  0  0  0  0  0  0
   36.7830   47.8650   -2.7590 C   0  0  0  0  0  0  0  0  0  0  0  0
   37.7190   47.0430   -2.1260 C   0  0  0  0  0  0  0  0  0  0  0  0
  1  2  1  0
  2  3  2  0
  2  4  1  0
  3  5  1  0
  4  6  2  0
  3  7  1  0
  5  8  1  0
  6  9  1  0
  7  9  2  0
  6 10  1  0
  8 11  1  0
  9 12  1  0
 10 13  1  0
 12 13  1  0
 11 14  1  0
 14 15  1  0
 15 16  2  0
 15 17  1  0
 17 18  1  0
 18 19  2  0
 18 20  1  0
 19 21  1  0
 20 22  2  0
 21 22  1  0
 20 23  1  0
 22 24  1  0
 23 25  2  0
 24 26  2  0
 25 26  1  0
M  END
