mac-x0404-mac-x0357
     RDKit          3D

 23 25  0  0  0  0  0  0  0  0999 V2000
   31.7680   45.3100   -6.7910 O   0  0  0  0  0  0  0  0  0  0  0  0
   32.4100   46.3330   -6.1000 C   0  0  0  0  0  0  0  0  0  0  0  0
   33.1250   47.0750   -7.0410 O   0  0  0  0  0  0  0  0  0  0  0  0
   31.3580   47.1640   -5.6700 O   0  0  0  0  0  0  0  0  0  0  0  0
   33.3450   45.9160   -4.9840 C   0  0  0  0  0  0  0  0  0  0  0  0
   33.2310   44.7170   -4.2320 C   0  0  0  0  0  0  0  0  0  0  0  0
   34.4090   46.7940   -4.6780 C   0  0  0  0  0  0  0  0  0  0  0  0
   35.3320   46.5100   -3.6780 C   0  0  0  0  0  0  0  0  0  0  0  0
   34.1840   44.4510   -3.2310 C   0  0  0  0  0  0  0  0  0  0  0  0
   32.1220   43.7300   -4.4670 C   0  0  0  0  0  0  0  0  0  0  0  0
   34.0930   43.2910   -2.5060 O   0  0  0  0  0  0  0  0  0  0  0  0
   35.2230   45.3330   -2.9510 C   0  0  0  0  0  0  0  0  0  0  0  0
   30.8830   44.3890   -4.1890 O   0  0  0  0  0  0  0  0  0  0  0  0
   30.8220   45.4130   -3.2500 C   0  0  0  0  0  0  0  0  0  0  0  0
   29.6640   45.3910   -2.4460 C   0  0  0  0  0  0  0  0  0  0  0  0
   31.7770   46.4230   -3.0480 C   0  0  0  0  0  0  0  0  0  0  0  0
   29.4810   46.3840   -1.4530 C   0  0  0  0  0  0  0  0  0  0  0  0
   31.5910   47.3980   -2.0670 C   0  0  0  0  0  0  0  0  0  0  0  0
   28.6680   44.4070   -2.5960 C   0  0  0  0  0  0  0  0  0  0  0  0
   30.4500   47.3780   -1.2750 C   0  0  0  0  0  0  0  0  0  0  0  0
   28.3270   46.3620   -0.6540 C   0  0  0  0  0  0  0  0  0  0  0  0
   27.5280   44.3970   -1.7980 C   0  0  0  0  0  0  0  0  0  0  0  0
   27.3560   45.3740   -0.8260 C   0  0  0  0  0  0  0  0  0  0  0  0
  2  1  1  0
  2  3  1  0
  2  4  1  0
  2  5  1  0
  5  6  2  0
  5  7  1  0
  7  8  2  0
  6  9  1  0
  6 10  1  0
  9 11  1  0
  8 12  1  0
  9 12  2  0
 10 13  1  0
 13 14  1  0
 14 15  1  0
 14 16  2  0
 15 17  2  0
 16 18  1  0
 15 19  1  0
 17 20  1  0
 18 20  2  0
 17 21  1  0
 19 22  2  0
 21 23  2  0
 22 23  1  0
M  END
