mac-x0398-mac-x0178
     RDKit          3D

 24 25  0  0  0  0  0  0  0  0999 V2000
   28.4150   53.9240   -6.7390 N   0  0  0  0  0  0  0  0  0  0  0  0
   28.9190   52.8750   -5.9610 C   0  0  0  0  0  0  0  0  0  0  0  0
   29.1070   51.6010   -6.5130 C   0  0  0  0  0  0  0  0  0  0  0  0
   29.2440   53.0870   -4.6190 C   0  0  0  0  0  0  0  0  0  0  0  0
   29.7520   52.0450   -3.8430 C   0  0  0  0  0  0  0  0  0  0  0  0
   29.6180   50.5520   -5.7360 C   0  0  0  0  0  0  0  0  0  0  0  0
   30.0640   52.2690   -2.5330 O   0  0  0  0  0  0  0  0  0  0  0  0
   29.9440   50.7790   -4.3930 C   0  0  0  0  0  0  0  0  0  0  0  0
   30.4970   49.7120   -3.5310 C   0  0  0  0  0  0  0  0  0  0  0  0
   30.4020   49.7270   -2.3170 O   0  0  0  0  0  0  0  0  0  0  0  0
   31.1330   48.7460   -4.3150 O   0  0  0  0  0  0  0  0  0  0  0  0
   30.7770   47.4610   -3.9170 C   0  0  0  0  0  0  0  0  0  0  0  0
   31.0260   46.2770   -4.6350 C   0  0  0  0  0  0  0  0  0  0  0  0
   30.1130   47.4410   -2.6960 C   0  0  0  0  0  0  0  0  0  0  0  0
   31.7360   46.1640   -5.9380 C   0  0  0  0  0  0  0  0  0  0  0  0
   29.6680   46.2550   -2.1670 C   0  0  0  0  0  0  0  0  0  0  0  0
   30.5580   45.0740   -4.0760 C   0  0  0  0  0  0  0  0  0  0  0  0
   28.8240   46.3350   -0.6120 S   0  0  0  0  0  0  0  0  0  0  0  0
   31.2140   45.8790   -7.0010 O   0  0  0  0  0  0  0  0  0  0  0  0
   33.0600   46.3970   -5.8820 O   0  0  0  0  0  0  0  0  0  0  0  0
   29.8770   45.0580   -2.8480 C   0  0  0  0  0  0  0  0  0  0  0  0
   28.4830   44.7200   -0.2960 N   0  0  0  0  0  0  0  0  0  0  0  0
   29.7670   46.7480    0.4020 O   0  0  0  0  0  0  0  0  0  0  0  0
   27.5780   47.0290   -0.8320 O   0  0  0  0  0  0  0  0  0  0  0  0
  1  2  1  0
  2  3  2  0
  2  4  1  0
  4  5  2  0
  3  6  1  0
  5  7  1  0
  5  8  1  0
  6  8  2  0
  8  9  1  0
  9 10  2  0
  9 11  1  0
 11 12  1  0
 12 13  2  0
 12 14  1  0
 13 15  1  0
 14 16  2  0
 13 17  1  0
 16 18  1  0
 15 19  2  0
 15 20  1  0
 16 21  1  0
 17 21  2  0
 18 22  1  0
 18 23  2  0
 18 24  2  0
M  END
