mac-x0455-mac-x0441
     RDKit          3D

 28 30  0  0  0  0  0  0  0  0999 V2000
   30.4440   48.5390   -4.5470 C   0  0  0  0  0  0  0  0  0  0  0  0
   30.8550   47.1070   -4.1910 C   0  0  1  0  0  0  0  0  0  0  0  0
   29.7670   46.5880   -3.3960 O   0  0  0  0  0  0  0  0  0  0  0  0
   30.9700   46.2300   -5.4820 C   0  0  0  0  0  0  0  0  0  0  0  0
   32.1450   47.0860   -3.3710 C   0  0  0  0  0  0  0  0  0  0  0  0
   30.0370   45.4910   -5.8170 O   0  0  0  0  0  0  0  0  0  0  0  0
   32.1440   46.3520   -6.1910 N   0  0  0  0  0  0  0  0  0  0  0  0
   32.9670   48.2280   -3.2910 C   0  0  0  0  0  0  0  0  0  0  0  0
   32.5560   45.9390   -2.6690 C   0  0  0  0  0  0  0  0  0  0  0  0
   33.1610   45.5750   -5.9680 C   0  0  0  0  0  0  0  0  0  0  0  0
   34.1430   48.2200   -2.5440 C   0  0  0  0  0  0  0  0  0  0  0  0
   33.7340   45.9310   -1.9240 C   0  0  0  0  0  0  0  0  0  0  0  0
   34.3320   45.6480   -6.6370 O   0  0  0  0  0  0  0  0  0  0  0  0
   33.1580   44.4860   -4.9340 C   0  0  0  0  0  0  0  0  0  0  0  0
   34.5280   47.0700   -1.8600 C   0  0  0  0  0  0  0  0  0  0  0  0
   34.3370   44.4720   -4.0650 N   0  0  0  0  0  0  0  0  0  0  0  0
   34.5400   43.3710   -3.3090 N   0  0  0  0  0  0  0  0  0  0  0  0
   35.3110   45.4220   -3.8740 C   0  0  0  0  0  0  0  0  0  0  0  0
   35.6690   43.6110   -2.6160 C   0  0  0  0  0  0  0  0  0  0  0  0
   36.1850   44.8940   -2.9400 C   0  0  0  0  0  0  0  0  0  0  0  0
   35.4430   46.7620   -4.5150 C   0  0  0  0  0  0  0  0  0  0  0  0
   36.2610   42.6210   -1.6440 C   0  0  0  0  0  0  0  0  0  0  0  0
   37.3880   45.6140   -2.4490 C   0  0  0  0  0  0  0  0  0  0  0  0
   36.5250   47.6070   -3.8020 C   0  0  0  0  0  0  0  0  0  0  0  0
   37.3930   42.0500   -2.1410 F   0  0  0  0  0  0  0  0  0  0  0  0
   36.5910   43.1470   -0.4370 F   0  0  0  0  0  0  0  0  0  0  0  0
   35.3990   41.5910   -1.3990 F   0  0  0  0  0  0  0  0  0  0  0  0
   37.7560   46.7780   -3.3910 C   0  0  0  0  0  0  0  0  0  0  0  0
  2  1  1  6
  2  3  1  0
  2  4  1  0
  2  5  1  0
  4  6  2  0
  4  7  1  0
  5  8  2  0
  5  9  1  0
  7 10  2  3
  8 11  1  0
  9 12  2  0
 10 13  1  0
 10 14  1  0
 11 15  2  0
 12 15  1  0
 14 16  1  0
 16 17  1  0
 16 18  1  0
 17 19  2  0
 18 20  2  0
 19 20  1  0
 18 21  1  0
 19 22  1  0
 20 23  1  0
 21 24  1  0
 22 25  1  0
 22 26  1  0
 22 27  1  0
 23 28  1  0
 24 28  1  0
M  END
