mac-x0572-mac-x0305
     RDKit          3D

 17 18  0  0  0  0  0  0  0  0999 V2000
   28.5500   55.9090   -6.8190 C   0  0  0  0  0  0  0  0  0  0  0  0
   28.8570   54.5980   -6.1260 C   0  0  0  0  0  0  0  0  0  0  0  0
   28.4090   53.4830   -6.8150 N   0  0  0  0  0  0  0  0  0  0  0  0
   29.5160   54.5570   -4.9500 C   0  0  0  0  0  0  0  0  0  0  0  0
   29.9570   55.6770   -4.2690 O   0  0  0  0  0  0  0  0  0  0  0  0
   29.7800   53.2030   -4.3700 C   0  0  0  0  0  0  0  0  0  0  0  0
   28.8900   52.3100   -6.5090 C   0  0  0  0  0  0  0  0  0  0  0  0
   29.8700   53.0650   -3.1490 O   0  0  0  0  0  0  0  0  0  0  0  0
   29.9320   52.1230   -5.4280 C   0  0  2  0  0  0  0  0  0  0  0  0
   28.4300   51.1280   -7.2690 C   0  0  0  0  0  0  0  0  0  0  0  0
   28.8530   49.9010   -6.9360 C   0  0  0  0  0  0  0  0  0  0  0  0
   30.2460   50.6600   -5.0770 C   0  0  0  0  0  0  0  0  0  0  0  0
   28.4140   48.8340   -7.6980 O   0  0  0  0  0  0  0  0  0  0  0  0
   29.7560   49.6110   -5.8240 C   0  0  0  0  0  0  0  0  0  0  0  0
   30.1090   48.1410   -5.6150 C   0  0  0  0  0  0  0  0  0  0  0  0
   30.5820   47.5270   -6.7300 O   0  0  0  0  0  0  0  0  0  0  0  0
   29.9920   47.5350   -4.5580 O   0  0  0  0  0  0  0  0  0  0  0  0
  1  2  1  0
  2  3  1  0
  2  4  2  0
  4  5  1  0
  4  6  1  0
  3  7  2  0
  6  8  2  0
  6  9  1  0
  7  9  1  0
  7 10  1  0
 10 11  2  0
  9 12  1  1
 11 13  1  0
 11 14  1  0
 12 14  2  0
 14 15  1  0
 15 16  1  0
 15 17  2  0
M  END
