mac-x0182-mac-x0344
     RDKit          3D

 17 19  0  0  0  0  0  0  0  0999 V2000
   35.6910   43.1060   -1.2410 O   0  0  0  0  0  0  0  0  0  0  0  0
   35.3730   44.2730   -1.6050 C   0  0  0  0  0  0  0  0  0  0  0  0
   33.9660   44.6270   -1.7040 N   0  0  0  0  0  0  0  0  0  0  0  0
   36.3880   45.2690   -1.9260 C   0  0  0  0  0  0  0  0  0  0  0  0
   33.7990   44.6270   -3.2680 S   0  0  0  0  0  0  0  0  0  0  0  0
   35.5710   45.7910   -3.2120 C   0  0  0  0  0  0  0  0  0  0  0  0
   37.3510   46.2860   -2.3160 C   0  0  0  0  0  0  0  0  0  0  0  0
   33.1960   46.9880   -2.5760 O   0  0  0  0  0  0  0  0  0  0  0  0
   33.0950   45.1490   -4.5630 N   0  0  0  0  0  0  0  0  0  0  0  0
   35.4540   46.6930   -4.3720 C   0  0  0  0  0  0  0  0  0  0  0  0
   36.4950   46.2840   -3.0280 C   0  0  0  0  0  0  0  0  0  0  0  0
   33.3650   46.0600   -5.4290 C   0  0  0  0  0  0  0  0  0  0  0  0
   34.5240   46.9280   -5.4130 N   0  0  0  0  0  0  0  0  0  0  0  0
   36.5400   47.0770   -3.9280 C   0  0  0  0  0  0  0  0  0  0  0  0
   32.4380   46.2630   -6.5480 C   0  0  0  0  0  0  0  0  0  0  0  0
   31.2780   45.5590   -6.6020 O   0  0  0  0  0  0  0  0  0  0  0  0
   32.7300   47.0810   -7.4350 O   0  0  0  0  0  0  0  0  0  0  0  0
  1  2  2  0
  2  3  1  0
  2  4  1  0
  3  5  1  0
  4  6  2  0
  5  6  1  0
  4  7  1  0
  5  8  2  0
  5  9  1  0
  6 10  1  0
  7 11  2  0
  9 12  2  0
 10 13  1  0
 12 13  1  0
 10 14  2  0
 11 14  1  0
 12 15  1  0
 15 16  1  0
 15 17  2  0
M  END
