mac-x0588-mac-x0302
     RDKit          3D

 29 32  0  0  0  0  0  0  0  0999 V2000
   27.0720   50.3940   -7.6450 N   0  0  0  0  0  0  0  0  0  0  0  0
   26.6470   49.0440   -7.3250 C   0  0  1  0  0  0  0  0  0  0  0  0
   27.5220   47.9490   -7.9870 C   0  0  2  0  0  0  0  0  0  0  0  0
   26.6670   49.0400   -5.8860 N   0  0  0  0  0  0  0  0  0  0  0  0
   28.0140   48.9530   -5.3400 C   0  0  0  0  0  0  0  0  0  0  0  0
   28.7120   47.4840   -7.1110 C   0  0  2  0  0  0  0  0  0  0  0  0
   28.0990   48.2930   -9.3200 N   0  0  0  0  0  0  0  0  0  0  0  0
   28.5570   47.6500   -5.6590 N   0  0  0  0  0  0  0  0  0  0  0  0
   29.7400   48.3740   -7.6720 N   0  0  0  0  0  0  0  0  0  0  0  0
   29.5410   48.2280   -9.1110 C   0  0  0  0  0  0  0  0  0  0  0  0
   29.5840   47.0900   -4.6990 C   0  0  1  0  0  0  0  0  0  0  0  0
   30.4170   45.9090   -5.3480 C   0  0  0  0  0  0  0  0  0  0  0  0
   30.6200   48.1220   -4.4320 N   0  0  0  0  0  0  0  0  0  0  0  0
   29.1180   46.4140   -3.3400 C   0  0  2  0  0  0  0  0  0  0  0  0
   31.7600   46.0760   -5.4050 O   0  0  0  0  0  0  0  0  0  0  0  0
   29.9400   44.8670   -5.7910 O   0  0  0  0  0  0  0  0  0  0  0  0
   30.7450   48.9480   -3.3310 C   0  0  0  0  0  0  0  0  0  0  0  0
   28.2780   47.2590   -2.5070 O   0  0  0  0  0  0  0  0  0  0  0  0
   30.1610   45.8310   -2.3960 C   0  0  0  0  0  0  0  0  0  0  0  0
   30.8020   48.5770   -2.1640 O   0  0  0  0  0  0  0  0  0  0  0  0
   29.3720   45.6810   -1.1180 C   0  0  0  0  0  0  0  0  0  0  0  0
   28.4860   46.9030   -1.1320 C   0  0  0  0  0  0  0  0  0  0  0  0
   30.8310   50.4160   -3.6080 C   0  0  0  0  0  0  0  0  0  0  0  0
   30.0730   51.2850   -2.8040 C   0  0  0  0  0  0  0  0  0  0  0  0
   31.6320   50.9470   -4.6300 C   0  0  0  0  0  0  0  0  0  0  0  0
   30.1270   52.6610   -3.0350 C   0  0  0  0  0  0  0  0  0  0  0  0
   31.6770   52.3260   -4.8480 C   0  0  0  0  0  0  0  0  0  0  0  0
   29.4040   53.5350   -2.2790 O   0  0  0  0  0  0  0  0  0  0  0  0
   30.9210   53.1850   -4.0480 C   0  0  0  0  0  0  0  0  0  0  0  0
  2  1  1  6
  2  3  1  0
  2  4  1  0
  4  5  1  0
  3  6  1  0
  3  7  1  6
  5  8  1  0
  6  8  1  0
  6  9  1  6
  7 10  1  0
  9 10  1  0
  8 11  1  0
 11 12  1  0
 11 13  1  1
 11 14  1  0
 12 15  1  0
 12 16  2  0
 13 17  1  0
 14 18  1  0
 14 19  1  1
 17 20  2  0
 19 21  1  0
 18 22  1  0
 21 22  1  0
 17 23  1  0
 23 24  2  0
 23 25  1  0
 24 26  1  0
 25 27  2  0
 26 28  1  0
 26 29  2  0
 27 29  1  0
M  END
