mac-x0159-mac-x0354
     RDKit          3D

 34 38  0  0  0  0  0  0  0  0999 V2000
   28.6700   51.9590   -6.5230 N   0  0  0  0  0  0  0  0  0  0  0  0
   28.5970   50.6640   -5.8850 C   0  0  1  0  0  0  0  0  0  0  0  0
   29.1120   49.5300   -6.7710 C   0  0  1  0  0  0  0  0  0  0  0  0
   29.4360   50.7890   -4.7110 N   0  0  0  0  0  0  0  0  0  0  0  0
   29.5390   49.5430   -3.9340 C   0  0  0  0  0  0  0  0  0  0  0  0
   28.8510   48.3040   -5.9800 C   0  0  2  0  0  0  0  0  0  0  0  0
   28.3480   49.1940   -7.9850 N   0  0  0  0  0  0  0  0  0  0  0  0
   29.4750   48.2950   -4.6830 N   0  0  0  0  0  0  0  0  0  0  0  0
   29.2450   47.2660   -6.9350 N   0  0  0  0  0  0  0  0  0  0  0  0
   28.6560   47.7750   -8.1840 C   0  0  0  0  0  0  0  0  0  0  0  0
   30.4730   47.2610   -4.4570 C   0  0  2  0  0  0  0  0  0  0  0  0
   31.3550   47.0760   -5.7410 C   0  0  0  0  0  0  0  0  0  0  0  0
   29.7570   46.1250   -3.6980 C   0  0  0  0  0  0  0  0  0  0  0  0
   31.2670   45.7680   -6.5130 C   0  0  0  0  0  0  0  0  0  0  0  0
   29.4540   44.8200   -4.0500 C   0  0  0  0  0  0  0  0  0  0  0  0
   29.3070   46.4620   -2.4060 N   0  0  0  0  0  0  0  0  0  0  0  0
   32.0220   44.9420   -5.6330 N   0  0  0  0  0  0  0  0  0  0  0  0
   28.6930   45.4560   -1.8280 C   0  0  0  0  0  0  0  0  0  0  0  0
   28.6080   44.0310   -2.7760 S   0  0  0  0  0  0  0  0  0  0  0  0
   28.0990   45.5020   -0.4600 C   0  0  0  0  0  0  0  0  0  0  0  0
   33.2730   45.1360   -5.4960 C   0  0  0  0  0  0  0  0  0  0  0  0
   34.0200   46.0460   -6.1750 O   0  0  0  0  0  0  0  0  0  0  0  0
   33.8580   44.3270   -4.4830 C   0  0  0  0  0  0  0  0  0  0  0  0
   33.4520   43.0300   -4.1180 C   0  0  0  0  0  0  0  0  0  0  0  0
   34.9120   44.6200   -3.6280 C   0  0  0  0  0  0  0  0  0  0  0  0
   35.0380   43.5040   -2.8340 N   0  0  0  0  0  0  0  0  0  0  0  0
   34.1600   42.5250   -3.1210 N   0  0  0  0  0  0  0  0  0  0  0  0
   35.7690   45.8030   -3.4890 C   0  0  0  0  0  0  0  0  0  0  0  0
   35.9820   43.2970   -1.7660 C   0  0  0  0  0  0  0  0  0  0  0  0
   37.1630   45.6520   -3.4810 C   0  0  0  0  0  0  0  0  0  0  0  0
   35.2220   47.0870   -3.3610 C   0  0  0  0  0  0  0  0  0  0  0  0
   37.9950   46.7640   -3.3460 C   0  0  0  0  0  0  0  0  0  0  0  0
   36.0580   48.1990   -3.2270 C   0  0  0  0  0  0  0  0  0  0  0  0
   37.4430   48.0370   -3.2200 C   0  0  0  0  0  0  0  0  0  0  0  0
  2  1  1  6
  2  3  1  0
  2  4  1  0
  4  5  1  0
  3  6  1  0
  3  7  1  6
  5  8  1  0
  6  8  1  0
  6  9  1  6
  7 10  1  0
  9 10  1  0
  8 11  1  0
 11 12  1  6
 11 13  1  0
 12 14  1  0
 13 15  2  0
 13 16  1  0
 14 17  1  0
 16 18  2  0
 15 19  1  0
 18 19  1  0
 18 20  1  0
 17 21  2  3
 21 22  1  0
 21 23  1  0
 23 24  1  0
 23 25  2  0
 25 26  1  0
 24 27  2  0
 26 27  1  0
 25 28  1  0
 26 29  1  0
 28 30  2  0
 28 31  1  0
 30 32  1  0
 31 33  2  0
 32 34  2  0
 33 34  1  0
M  END
