mac-x0451-mac-x0115
     RDKit          3D

 24 26  0  0  0  0  0  0  0  0999 V2000
   30.1380   53.5400   -8.2920 N   0  0  0  0  0  0  0  0  0  0  0  0
   29.9120   52.4150   -7.5930 C   0  0  0  0  0  0  0  0  0  0  0  0
   29.6740   52.4080   -6.3020 N   0  0  0  0  0  0  0  0  0  0  0  0
   29.9170   50.8700   -8.3630 S   0  0  0  0  0  0  0  0  0  0  0  0
   29.4850   51.1170   -5.8990 C   0  0  0  0  0  0  0  0  0  0  0  0
   29.5750   50.1320   -6.8610 C   0  0  0  0  0  0  0  0  0  0  0  0
   29.2070   50.7810   -4.5460 C   0  0  0  0  0  0  0  0  0  0  0  0
   29.3910   48.6550   -6.5720 C   0  0  1  0  0  0  0  0  0  0  0  0
   28.7390   49.5590   -4.2340 C   0  0  0  0  0  0  0  0  0  0  0  0
   28.4930   48.5040   -5.2990 C   0  0  2  0  0  0  0  0  0  0  0  0
   28.7410   47.8940   -7.7170 C   0  0  0  0  0  0  0  0  0  0  0  0
   30.7830   48.0440   -6.3210 C   0  0  0  0  0  0  0  0  0  0  0  0
   28.7110   47.2920   -4.7130 F   0  0  0  0  0  0  0  0  0  0  0  0
   27.9680   48.3820   -8.5400 O   0  0  0  0  0  0  0  0  0  0  0  0
   30.7800   46.5810   -6.2450 N   0  0  0  0  0  0  0  0  0  0  0  0
   29.0600   46.5560   -7.8160 N   0  0  0  0  0  0  0  0  0  0  0  0
   31.2130   45.9850   -4.9610 C   0  0  0  0  0  0  0  0  0  0  0  0
   30.0970   45.8730   -7.2250 C   0  0  0  0  0  0  0  0  0  0  0  0
   30.3410   44.8160   -4.4880 C   0  0  0  0  0  0  0  0  0  0  0  0
   30.3990   44.3170   -7.7510 S   0  0  0  0  0  0  0  0  0  0  0  0
   30.6080   44.5730   -3.1030 O   0  0  0  0  0  0  0  0  0  0  0  0
   29.4330   44.3140   -2.3270 C   0  0  0  0  0  0  0  0  0  0  0  0
   28.6900   45.6380   -2.1800 C   0  0  0  0  0  0  0  0  0  0  0  0
   28.5450   43.2840   -3.0210 C   0  0  0  0  0  0  0  0  0  0  0  0
  1  2  1  0
  2  3  2  0
  2  4  1  0
  3  5  1  0
  4  6  1  0
  5  6  2  0
  5  7  1  0
  6  8  1  0
  7  9  2  0
  8 10  1  0
  9 10  1  0
  8 11  1  0
  8 12  1  1
 10 13  1  1
 11 14  2  0
 12 15  1  0
 11 16  1  0
 15 17  1  0
 15 18  1  0
 16 18  1  0
 17 19  1  0
 18 20  2  0
 19 21  1  0
 21 22  1  0
 22 23  1  0
 22 24  1  0
M  END
