mac-x1493-mac-x0328
     RDKit          3D

 14 15  0  0  0  0  0  0  0  0999 V2000
   29.8470   48.0000   -5.3890 O   0  0  0  0  0  0  0  0  0  0  0  0
   29.9430   48.6800   -4.2330 C   0  0  0  0  0  0  0  0  0  0  0  0
   30.4280   48.1360   -3.2530 O   0  0  0  0  0  0  0  0  0  0  0  0
   29.4170   50.1040   -4.2700 C   0  0  2  0  0  0  0  0  0  0  0  0
   29.2340   50.7100   -5.6720 C   0  0  0  0  0  0  0  0  0  0  0  0
   30.2380   51.0090   -3.3250 C   0  0  0  0  0  0  0  0  0  0  0  0
   28.8190   52.1740   -5.5580 C   0  0  1  0  0  0  0  0  0  0  0  0
   30.2350   52.4870   -3.5390 N   0  0  0  0  0  0  0  0  0  0  0  0
   29.1130   53.0580   -2.8170 O   0  0  0  0  0  0  0  0  0  0  0  0
   29.9810   52.9550   -4.9090 C   0  0  2  0  0  0  0  0  0  0  0  0
   28.3610   52.8140   -6.8440 C   0  0  0  0  0  0  0  0  0  0  0  0
   29.6710   54.4300   -4.9070 C   0  0  0  0  0  0  0  0  0  0  0  0
   28.4270   54.1500   -6.9700 C   0  0  0  0  0  0  0  0  0  0  0  0
   28.9320   54.9700   -5.8890 C   0  0  0  0  0  0  0  0  0  0  0  0
  1  2  1  0
  2  3  2  0
  4  2  1  6
  4  5  1  0
  4  6  1  0
  7  5  1  6
  6  8  1  0
  8  9  1  0
  7 10  1  0
  8 10  1  0
  7 11  1  0
 10 12  1  1
 11 13  2  0
 12 14  2  0
 13 14  1  0
M  END
