mac-x0213-mac-x0402
     RDKit          3D

 22 25  0  0  0  0  0  0  0  0999 V2000
   33.2660   46.7920   -5.9600 O   0  0  0  0  0  0  0  0  0  0  0  0
   31.9560   46.4830   -5.8720 C   0  0  0  0  0  0  0  0  0  0  0  0
   31.3040   46.2010   -6.8710 O   0  0  0  0  0  0  0  0  0  0  0  0
   31.3500   46.4920   -4.4820 C   0  0  1  0  0  0  0  0  0  0  0  0
   30.0920   47.3910   -4.3480 C   0  0  1  0  0  0  0  0  0  0  0  0
   30.7550   45.0980   -4.1370 C   0  0  0  0  0  0  0  0  0  0  0  0
   29.5180   46.8150   -3.0880 C   0  0  0  0  0  0  0  0  0  0  0  0
   29.8770   45.4760   -2.9810 C   0  0  0  0  0  0  0  0  0  0  0  0
   29.9930   48.9320   -4.4830 C   0  0  0  0  0  0  0  0  0  0  0  0
   28.7340   47.4330   -2.1320 C   0  0  0  0  0  0  0  0  0  0  0  0
   29.4350   44.7080   -1.9220 C   0  0  0  0  0  0  0  0  0  0  0  0
   30.2770   49.8850   -3.4830 C   0  0  0  0  0  0  0  0  0  0  0  0
   29.5370   49.4000   -5.7350 C   0  0  0  0  0  0  0  0  0  0  0  0
   28.2890   46.6740   -1.0550 C   0  0  0  0  0  0  0  0  0  0  0  0
   28.6320   45.3170   -0.9520 C   0  0  0  0  0  0  0  0  0  0  0  0
   29.3610   50.7790   -5.9600 C   0  0  0  0  0  0  0  0  0  0  0  0
   30.0970   51.2700   -3.7250 C   0  0  0  0  0  0  0  0  0  0  0  0
   29.6280   51.7260   -4.9780 C   0  0  0  0  0  0  0  0  0  0  0  0
   28.8110   51.5840   -7.3800 S   0  0  0  0  0  0  0  0  0  0  0  0
   28.9580   53.0970   -6.5920 C   0  0  0  0  0  0  0  0  0  0  0  0
   29.3930   53.0480   -5.3550 N   0  0  0  0  0  0  0  0  0  0  0  0
   28.6430   54.2460   -7.2210 N   0  0  0  0  0  0  0  0  0  0  0  0
  1  2  1  0
  2  3  2  0
  4  2  1  6
  4  5  1  0
  4  6  1  0
  5  7  1  0
  6  8  1  0
  7  8  2  0
  5  9  1  1
  7 10  1  0
  8 11  1  0
  9 12  2  0
  9 13  1  0
 10 14  2  0
 11 15  2  0
 14 15  1  0
 13 16  2  0
 12 17  1  0
 16 18  1  0
 17 18  2  0
 16 19  1  0
 19 20  1  0
 18 21  1  0
 20 21  2  0
 20 22  1  0
M  END
