mac-x0360-mac-x0404
     RDKit          3D

 29 31  0  0  0  0  0  0  0  0999 V2000
   32.0280   55.2480   -7.0420 Cl  0  0  0  0  0  0  0  0  0  0  0  0
   32.1880   53.6470   -6.4230 C   0  0  0  0  0  0  0  0  0  0  0  0
   33.4480   53.1740   -6.0620 C   0  0  0  0  0  0  0  0  0  0  0  0
   31.0600   52.8440   -6.2920 C   0  0  0  0  0  0  0  0  0  0  0  0
   31.2000   51.5460   -5.7870 C   0  0  0  0  0  0  0  0  0  0  0  0
   33.5750   51.8780   -5.5610 C   0  0  0  0  0  0  0  0  0  0  0  0
   35.1340   51.2960   -5.1170 Cl  0  0  0  0  0  0  0  0  0  0  0  0
   29.7490   50.5360   -5.6300 S   0  0  0  0  0  0  0  0  0  0  0  0
   32.4590   51.0570   -5.4160 C   0  0  0  0  0  0  0  0  0  0  0  0
   30.3380   49.0080   -5.1780 N   0  0  0  0  0  0  0  0  0  0  0  0
   28.9800   51.0890   -4.5390 O   0  0  0  0  0  0  0  0  0  0  0  0
   29.1650   50.3650   -6.9390 O   0  0  0  0  0  0  0  0  0  0  0  0
   31.5260   48.4670   -5.9200 C   0  0  0  0  0  0  0  0  0  0  0  0
   31.1680   47.4150   -6.9770 C   0  0  0  0  0  0  0  0  0  0  0  0
   31.3800   46.0900   -6.4420 O   0  0  0  0  0  0  0  0  0  0  0  0
   32.6230   45.7440   -6.0020 C   0  0  0  0  0  0  0  0  0  0  0  0
   33.6800   46.1830   -6.4390 O   0  0  0  0  0  0  0  0  0  0  0  0
   32.5510   44.7090   -4.8740 C   0  0  0  0  0  0  0  0  0  0  0  0
   31.3580   44.6090   -4.1080 O   0  0  0  0  0  0  0  0  0  0  0  0
   31.1130   45.5960   -3.1840 C   0  0  0  0  0  0  0  0  0  0  0  0
   29.8910   45.4960   -2.4730 C   0  0  0  0  0  0  0  0  0  0  0  0
   31.9950   46.6500   -2.9330 C   0  0  0  0  0  0  0  0  0  0  0  0
   29.5820   46.4830   -1.5050 C   0  0  0  0  0  0  0  0  0  0  0  0
   31.6790   47.6150   -1.9780 C   0  0  0  0  0  0  0  0  0  0  0  0
   28.9650   44.4560   -2.6850 C   0  0  0  0  0  0  0  0  0  0  0  0
   30.4800   47.5300   -1.2710 C   0  0  0  0  0  0  0  0  0  0  0  0
   28.3760   46.3980   -0.7900 C   0  0  0  0  0  0  0  0  0  0  0  0
   27.7720   44.3860   -1.9680 C   0  0  0  0  0  0  0  0  0  0  0  0
   27.4780   45.3600   -1.0190 C   0  0  0  0  0  0  0  0  0  0  0  0
  1  2  1  0
  2  3  2  0
  2  4  1  0
  4  5  2  0
  3  6  1  0
  6  7  1  0
  5  8  1  0
  5  9  1  0
  6  9  2  0
  8 10  1  0
  8 11  2  0
  8 12  2  0
 10 13  1  0
 13 14  1  0
 14 15  1  0
 15 16  1  0
 16 17  2  0
 16 18  1  0
 18 19  1  0
 19 20  1  0
 20 21  1  0
 20 22  2  0
 21 23  2  0
 22 24  1  0
 21 25  1  0
 23 26  1  0
 24 26  2  0
 23 27  1  0
 25 28  2  0
 27 29  2  0
 28 29  1  0
M  END
