mac-x0223-mac-x0212
     RDKit          3D

 26 27  0  0  0  0  0  0  0  0999 V2000
   26.7600   43.9280   -2.1500 C   0  0  0  0  0  0  0  0  0  0  0  0
   27.0030   45.3290   -2.1990 O   0  0  0  0  0  0  0  0  0  0  0  0
   28.3130   45.7180   -2.2620 C   0  0  0  0  0  0  0  0  0  0  0  0
   28.7860   46.4880   -1.1950 C   0  0  0  0  0  0  0  0  0  0  0  0
   29.1920   45.4040   -3.3010 C   0  0  0  0  0  0  0  0  0  0  0  0
   27.9490   46.8170   -0.1630 O   0  0  0  0  0  0  0  0  0  0  0  0
   30.1060   46.9370   -1.1550 C   0  0  0  0  0  0  0  0  0  0  0  0
   30.5260   45.8500   -3.2760 C   0  0  0  0  0  0  0  0  0  0  0  0
   31.4660   45.5040   -4.4030 C   0  0  0  0  0  0  0  0  0  0  0  0
   30.9730   46.6170   -2.1920 C   0  0  0  0  0  0  0  0  0  0  0  0
   31.8710   46.6660   -5.3320 C   0  0  0  0  0  0  0  0  0  0  0  0
   33.1740   46.3230   -5.8340 O   0  0  0  0  0  0  0  0  0  0  0  0
   31.0480   46.7020   -6.4960 O   0  0  0  0  0  0  0  0  0  0  0  0
   32.0000   48.0690   -4.6350 C   0  0  1  0  0  0  0  0  0  0  0  0
   33.3140   48.5670   -4.9950 O   0  0  0  0  0  0  0  0  0  0  0  0
   31.0130   49.1910   -4.8930 C   0  0  0  0  0  0  0  0  0  0  0  0
   30.6250   49.5690   -6.1880 C   0  0  0  0  0  0  0  0  0  0  0  0
   30.4600   49.8900   -3.8030 C   0  0  0  0  0  0  0  0  0  0  0  0
   29.7170   50.6150   -6.3860 C   0  0  0  0  0  0  0  0  0  0  0  0
   29.5520   50.9350   -4.0030 C   0  0  0  0  0  0  0  0  0  0  0  0
   29.1840   51.2960   -5.2950 C   0  0  0  0  0  0  0  0  0  0  0  0
   28.2670   52.3630   -5.5190 N   0  0  0  0  0  0  0  0  0  0  0  0
   28.8740   53.9410   -5.5190 S   0  0  0  0  0  0  0  0  0  0  0  0
   30.4600   53.7320   -6.3040 C   0  0  0  0  0  0  0  0  0  0  0  0
   28.0370   54.8060   -6.3250 O   0  0  0  0  0  0  0  0  0  0  0  0
   29.1150   54.2540   -4.1240 O   0  0  0  0  0  0  0  0  0  0  0  0
  1  2  1  0
  2  3  1  0
  3  4  2  0
  3  5  1  0
  4  6  1  0
  4  7  1  0
  5  8  2  0
  8  9  1  0
  7 10  2  0
  8 10  1  0
  9 11  1  0
 11 12  1  0
 11 13  1  0
 11 14  1  0
 14 15  1  6
 14 16  1  0
 16 17  2  0
 16 18  1  0
 17 19  1  0
 18 20  2  0
 19 21  2  0
 20 21  1  0
 21 22  1  0
 23 22  1  0
 23 24  1  0
 23 25  2  0
 23 26  2  0
M  END
