mac-x0411-mac-x0358
     RDKit          3D

 18 20  0  0  0  0  0  0  0  0999 V2000
   37.6040   44.6060   -4.5100 Cl  0  0  0  0  0  0  0  0  0  0  0  0
   36.8600   45.8630   -3.5830 C   0  0  0  0  0  0  0  0  0  0  0  0
   35.4640   45.9600   -3.4720 C   0  0  0  0  0  0  0  0  0  0  0  0
   37.6790   46.7880   -2.9440 C   0  0  0  0  0  0  0  0  0  0  0  0
   34.6800   45.0350   -4.1190 O   0  0  0  0  0  0  0  0  0  0  0  0
   34.8710   46.9860   -2.7130 C   0  0  0  0  0  0  0  0  0  0  0  0
   37.1070   47.8110   -2.1900 C   0  0  0  0  0  0  0  0  0  0  0  0
   33.4770   45.6260   -4.6830 C   0  0  1  0  0  0  0  0  0  0  0  0
   35.7180   47.9070   -2.0780 C   0  0  0  0  0  0  0  0  0  0  0  0
   33.4020   47.0360   -2.6290 C   0  0  0  0  0  0  0  0  0  0  0  0
   32.7620   44.4810   -5.4230 C   0  0  0  0  0  0  0  0  0  0  0  0
   32.6660   46.3490   -3.6190 C   0  0  0  0  0  0  0  0  0  0  0  0
   32.7070   47.7250   -1.6220 C   0  0  0  0  0  0  0  0  0  0  0  0
   31.6910   44.8860   -6.1590 O   0  0  0  0  0  0  0  0  0  0  0  0
   33.0980   43.3060   -5.3870 O   0  0  0  0  0  0  0  0  0  0  0  0
   31.3110   47.7350   -1.5920 C   0  0  0  0  0  0  0  0  0  0  0  0
   31.2610   46.3650   -3.5770 C   0  0  0  0  0  0  0  0  0  0  0  0
   30.5910   47.0550   -2.5680 C   0  0  0  0  0  0  0  0  0  0  0  0
  1  2  1  0
  2  3  2  0
  2  4  1  0
  3  5  1  0
  3  6  1  0
  4  7  2  0
  5  8  1  0
  6  9  2  0
  7  9  1  0
  6 10  1  0
  8 11  1  1
  8 12  1  0
 10 12  2  0
 10 13  1  0
 11 14  1  0
 11 15  2  0
 13 16  2  0
 12 17  1  0
 16 18  1  0
 17 18  2  0
M  END
