mac-x0226-mac-x0397
     RDKit          3D

 28 31  0  0  0  0  0  0  0  0999 V2000
   32.4310   45.4140   -7.1910 O   0  0  0  0  0  0  0  0  0  0  0  0
   32.9470   46.3030   -6.2130 C   0  0  0  0  0  0  0  0  0  0  0  0
   34.0460   46.9400   -6.8430 O   0  0  0  0  0  0  0  0  0  0  0  0
   31.8950   47.3830   -5.8910 C   0  0  0  0  0  0  0  0  0  0  0  0
   33.4040   45.5600   -4.9940 C   0  0  0  0  0  0  0  0  0  0  0  0
   30.5270   46.8120   -5.4890 C   0  0  0  0  0  0  0  0  0  0  0  0
   32.7440   44.5040   -4.3320 C   0  0  0  0  0  0  0  0  0  0  0  0
   34.5560   45.7330   -4.2510 C   0  0  0  0  0  0  0  0  0  0  0  0
   29.9080   47.5370   -4.2880 C   0  0  0  0  0  0  0  0  0  0  0  0
   33.4140   44.0530   -3.2740 N   0  0  0  0  0  0  0  0  0  0  0  0
   34.5390   44.8170   -3.2230 N   0  0  0  0  0  0  0  0  0  0  0  0
   35.5140   44.6190   -2.2030 C   0  0  0  0  0  0  0  0  0  0  0  0
   29.7400   49.0240   -4.4970 C   0  0  0  0  0  0  0  0  0  0  0  0
   36.3660   45.6790   -1.8530 C   0  0  0  0  0  0  0  0  0  0  0  0
   35.6400   43.3890   -1.5450 C   0  0  0  0  0  0  0  0  0  0  0  0
   29.9990   49.9150   -3.4530 C   0  0  0  0  0  0  0  0  0  0  0  0
   29.3220   49.5190   -5.7450 C   0  0  0  0  0  0  0  0  0  0  0  0
   37.3300   45.5070   -0.8570 C   0  0  0  0  0  0  0  0  0  0  0  0
   36.6080   43.2250   -0.5490 C   0  0  0  0  0  0  0  0  0  0  0  0
   29.1730   50.9090   -5.9200 C   0  0  0  0  0  0  0  0  0  0  0  0
   29.8430   51.2880   -3.6530 C   0  0  0  0  0  0  0  0  0  0  0  0
   30.1500   52.4140   -2.4010 Cl  0  0  0  0  0  0  0  0  0  0  0  0
   37.4510   44.2810   -0.2050 C   0  0  0  0  0  0  0  0  0  0  0  0
   29.4260   51.8200   -4.8910 C   0  0  0  0  0  0  0  0  0  0  0  0
   28.6830   51.7700   -7.3280 S   0  0  0  0  0  0  0  0  0  0  0  0
   28.8410   53.2490   -6.4820 C   0  0  0  0  0  0  0  0  0  0  0  0
   29.2280   53.1560   -5.2370 N   0  0  0  0  0  0  0  0  0  0  0  0
   28.5800   54.4260   -7.0760 N   0  0  0  0  0  0  0  0  0  0  0  0
  2  1  1  0
  2  3  1  0
  2  4  1  0
  2  5  1  0
  4  6  1  0
  5  7  1  0
  5  8  2  0
  6  9  1  0
  7 10  2  0
  8 11  1  0
 10 11  1  0
 11 12  1  0
  9 13  1  0
 12 14  2  0
 12 15  1  0
 13 16  2  0
 13 17  1  0
 14 18  1  0
 15 19  2  0
 17 20  2  0
 16 21  1  0
 21 22  1  0
 18 23  2  0
 19 23  1  0
 20 24  1  0
 21 24  2  0
 20 25  1  0
 25 26  1  0
 24 27  1  0
 26 27  2  0
 26 28  1  0
M  END
