mac-x0387-mac-x0263
     RDKit          3D

 24 27  0  0  0  0  0  0  0  0999 V2000
   28.1440   51.2950   -7.9600 N   0  0  0  0  0  0  0  0  0  0  0  0
   28.7070   50.0620   -7.6660 C   0  0  0  0  0  0  0  0  0  0  0  0
   28.8210   49.2530   -8.7360 N   0  0  0  0  0  0  0  0  0  0  0  0
   29.1060   49.7030   -6.3770 C   0  0  0  0  0  0  0  0  0  0  0  0
   29.6620   48.4020   -6.2390 C   0  0  0  0  0  0  0  0  0  0  0  0
   29.3460   48.0300   -8.5670 C   0  0  0  0  0  0  0  0  0  0  0  0
   28.9170   50.6590   -5.1630 C   0  0  1  0  0  0  0  0  0  0  0  0
   29.7800   47.5610   -7.3520 C   0  0  0  0  0  0  0  0  0  0  0  0
   30.1260   47.8860   -4.9570 C   0  0  0  0  0  0  0  0  0  0  0  0
   29.1160   49.8640   -3.8040 C   0  0  0  0  0  0  0  0  0  0  0  0
   29.7440   52.0480   -4.9840 C   0  0  0  0  0  0  0  0  0  0  0  0
   27.4230   50.9740   -5.4570 C   0  0  0  0  0  0  0  0  0  0  0  0
   29.8800   48.5590   -3.8300 C   0  0  0  0  0  0  0  0  0  0  0  0
   29.0190   53.2900   -5.4580 C   0  0  0  0  0  0  0  0  0  0  0  0
   26.9180   52.1930   -5.7780 C   0  0  0  0  0  0  0  0  0  0  0  0
   29.4700   54.5880   -5.6100 N   0  0  0  0  0  0  0  0  0  0  0  0
   27.7250   53.3440   -5.8340 C   0  0  0  0  0  0  0  0  0  0  0  0
   28.4100   55.3480   -6.0850 C   0  0  0  0  0  0  0  0  0  0  0  0
   27.3380   54.5890   -6.2310 N   0  0  0  0  0  0  0  0  0  0  0  0
   28.4850   56.8260   -6.3850 C   0  0  0  0  0  0  0  0  0  0  0  0
   27.2690   57.5730   -5.8290 C   0  0  0  0  0  0  0  0  0  0  0  0
   27.0730   58.9800   -6.3650 C   0  0  0  0  0  0  0  0  0  0  0  0
   28.1940   59.7250   -6.4580 O   0  0  0  0  0  0  0  0  0  0  0  0
   25.9760   59.4210   -6.6850 O   0  0  0  0  0  0  0  0  0  0  0  0
  1  2  1  0
  2  3  2  0
  2  4  1  0
  4  5  2  0
  3  6  1  0
  4  7  1  0
  5  8  1  0
  6  8  2  0
  5  9  1  0
  7 10  1  1
  7 11  1  0
  7 12  1  0
  9 13  2  0
 10 13  1  0
 11 14  1  0
 12 15  2  0
 14 16  1  0
 14 17  2  0
 15 17  1  0
 16 18  1  0
 17 19  1  0
 18 19  2  0
 18 20  1  0
 20 21  1  0
 21 22  1  0
 22 23  1  0
 22 24  2  0
M  END
