mac-x0206-mac-x0360
     RDKit          3D

 20 21  0  0  0  0  0  0  0  0999 V2000
   30.1210   50.3210   -5.6540 N   0  0  1  0  0  0  0  0  0  0  0  0
   29.3150   51.0940   -4.6540 C   0  0  0  0  0  0  0  0  0  0  0  0
   28.8740   50.5680   -3.6360 O   0  0  0  0  0  0  0  0  0  0  0  0
   30.4970   48.9700   -5.1940 N   0  0  0  0  0  0  0  0  0  0  0  0
   29.4600   50.1100   -6.8260 O   0  0  0  0  0  0  0  0  0  0  0  0
   31.3240   51.2560   -5.8600 C   0  0  0  0  0  0  0  0  0  0  0  0
   29.1390   52.5200   -4.9500 C   0  0  0  0  0  0  0  0  0  0  0  0
   32.6200   50.8560   -5.5020 C   0  0  0  0  0  0  0  0  0  0  0  0
   31.1600   52.5570   -6.4020 C   0  0  0  0  0  0  0  0  0  0  0  0
   29.5940   53.5240   -4.1020 C   0  0  0  0  0  0  0  0  0  0  0  0
   28.4970   52.8500   -6.1510 C   0  0  0  0  0  0  0  0  0  0  0  0
   33.7010   51.7270   -5.6790 C   0  0  0  0  0  0  0  0  0  0  0  0
   32.2490   53.4120   -6.5670 C   0  0  0  0  0  0  0  0  0  0  0  0
   30.2230   53.2110   -2.9270 O   0  0  0  0  0  0  0  0  0  0  0  0
   32.0260   54.9930   -7.2230 Cl  0  0  0  0  0  0  0  0  0  0  0  0
   35.2810   51.2130   -5.2310 Cl  0  0  0  0  0  0  0  0  0  0  0  0
   29.4150   54.8590   -4.4510 C   0  0  0  0  0  0  0  0  0  0  0  0
   28.3180   54.1860   -6.5010 C   0  0  0  0  0  0  0  0  0  0  0  0
   33.5260   53.0000   -6.2070 C   0  0  0  0  0  0  0  0  0  0  0  0
   28.7790   55.1920   -5.6490 C   0  0  0  0  0  0  0  0  0  0  0  0
  1  2  1  0
  2  3  2  0
  1  4  1  1
  1  5  1  0
  1  6  1  0
  2  7  1  0
  6  8  2  0
  6  9  1  0
  7 10  2  0
  7 11  1  0
  8 12  1  0
  9 13  2  0
 10 14  1  0
 13 15  1  0
 12 16  1  0
 10 17  1  0
 11 18  2  0
 12 19  2  0
 13 19  1  0
 17 20  2  0
 18 20  1  0
M  CHG  2   1   1   5  -1
M  END
