mac-x0223-mac-x0590
     RDKit          3D

 30 33  0  0  0  0  0  0  0  0999 V2000
   27.5100   43.3880   -1.9620 C   0  0  0  0  0  0  0  0  0  0  0  0
   27.5160   44.8110   -2.0230 O   0  0  0  0  0  0  0  0  0  0  0  0
   28.7460   45.4020   -2.1730 C   0  0  0  0  0  0  0  0  0  0  0  0
   29.1760   46.1440   -1.0720 C   0  0  0  0  0  0  0  0  0  0  0  0
   29.5670   45.3180   -3.3080 C   0  0  0  0  0  0  0  0  0  0  0  0
   28.3940   46.2420    0.0450 O   0  0  0  0  0  0  0  0  0  0  0  0
   30.3960   46.7920   -1.0850 C   0  0  0  0  0  0  0  0  0  0  0  0
   30.8200   45.9660   -3.3630 C   0  0  0  0  0  0  0  0  0  0  0  0
   31.7600   45.8940   -4.6160 C   0  0  1  0  0  0  0  0  0  0  0  0
   31.2070   46.7030   -2.2170 C   0  0  0  0  0  0  0  0  0  0  0  0
   31.3460   44.7130   -5.5370 C   0  0  0  0  0  0  0  0  0  0  0  0
   31.6670   47.2090   -5.4730 C   0  0  0  0  0  0  0  0  0  0  0  0
   33.2660   45.5940   -4.1700 C   0  0  2  0  0  0  0  0  0  0  0  0
   31.2740   44.7120   -6.7590 O   0  0  0  0  0  0  0  0  0  0  0  0
   31.0450   43.5740   -4.8720 O   0  0  0  0  0  0  0  0  0  0  0  0
   31.0290   48.4720   -4.8430 C   0  0  0  0  0  0  0  0  0  0  0  0
   34.3110   45.5360   -5.3080 C   0  0  0  0  0  0  0  0  0  0  0  0
   33.5380   44.2510   -3.4840 C   0  0  0  0  0  0  0  0  0  0  0  0
   29.6510   48.7420   -5.2790 N   0  0  0  0  0  0  0  0  0  0  0  0
   34.0390   43.3450   -4.5830 C   0  0  0  0  0  0  0  0  0  0  0  0
   34.7350   44.1790   -5.5020 O   0  0  0  0  0  0  0  0  0  0  0  0
   28.9040   49.6200   -4.3840 C   0  0  0  0  0  0  0  0  0  0  0  0
   29.5050   49.0240   -6.6960 C   0  0  2  0  0  0  0  0  0  0  0  0
   28.4210   50.8430   -5.0110 N   0  0  0  0  0  0  0  0  0  0  0  0
   29.7020   50.5030   -7.0750 C   0  0  2  0  0  0  0  0  0  0  0  0
   28.1620   48.7370   -7.1820 N   0  0  0  0  0  0  0  0  0  0  0  0
   29.4390   51.4260   -5.8540 C   0  0  1  0  0  0  0  0  0  0  0  0
   28.7300   50.7320   -8.1890 N   0  0  0  0  0  0  0  0  0  0  0  0
   28.1110   49.4430   -8.4430 C   0  0  0  0  0  0  0  0  0  0  0  0
   28.8870   52.7150   -6.2500 N   0  0  0  0  0  0  0  0  0  0  0  0
  1  2  1  0
  2  3  1  0
  3  4  2  0
  3  5  1  0
  4  6  1  0
  4  7  1  0
  5  8  2  0
  8  9  1  0
  7 10  2  0
  8 10  1  0
  9 11  1  0
  9 12  1  6
  9 13  1  0
 11 14  2  0
 11 15  1  0
 12 16  1  0
 13 17  1  6
 13 18  1  0
 16 19  1  0
 18 20  1  0
 17 21  1  0
 20 21  1  0
 19 22  1  0
 19 23  1  0
 22 24  1  0
 23 25  1  0
 23 26  1  1
 24 27  1  0
 25 27  1  0
 25 28  1  6
 26 29  1  0
 28 29  1  0
 27 30  1  6
M  END
