mac-x0357-mac-x0375
     RDKit          3D

 18 19  0  0  0  0  0  0  0  0999 V2000
   33.9430   44.1990   -5.7810 C   0  0  0  0  0  0  0  0  0  0  0  0
   33.3070   45.0650   -4.7230 C   0  0  0  0  0  0  0  0  0  0  0  0
   33.9120   45.1610   -3.4590 C   0  0  0  0  0  0  0  0  0  0  0  0
   32.1160   45.7950   -4.9620 C   0  0  0  0  0  0  0  0  0  0  0  0
   35.0730   44.4830   -3.2140 O   0  0  0  0  0  0  0  0  0  0  0  0
   31.3890   45.7660   -6.3000 C   0  0  0  0  0  0  0  0  0  0  0  0
   31.5930   46.5800   -3.9100 C   0  0  0  0  0  0  0  0  0  0  0  0
   33.3760   45.9400   -2.4350 C   0  0  0  0  0  0  0  0  0  0  0  0
   30.4490   46.7970   -6.3650 O   0  0  0  0  0  0  0  0  0  0  0  0
   30.7340   44.5540   -6.5230 O   0  0  0  0  0  0  0  0  0  0  0  0
   32.3000   45.9200   -7.3600 O   0  0  0  0  0  0  0  0  0  0  0  0
   32.2110   46.6520   -2.6630 C   0  0  0  0  0  0  0  0  0  0  0  0
   36.1340   45.3550   -3.1470 C   0  0  0  0  0  0  0  0  0  0  0  0
   37.4260   45.0100   -2.7600 C   0  0  0  0  0  0  0  0  0  0  0  0
   35.8340   46.6740   -3.5060 C   0  0  0  0  0  0  0  0  0  0  0  0
   38.4180   45.9910   -2.7330 C   0  0  0  0  0  0  0  0  0  0  0  0
   36.8250   47.6510   -3.4760 C   0  0  0  0  0  0  0  0  0  0  0  0
   38.1190   47.3090   -3.0890 C   0  0  0  0  0  0  0  0  0  0  0  0
  1  2  1  0
  2  3  2  0
  2  4  1  0
  3  5  1  0
  4  6  1  0
  4  7  2  0
  3  8  1  0
  6  9  1  0
  6 10  1  0
  6 11  1  0
  7 12  1  0
  8 12  2  0
  5 13  1  0
 13 14  2  0
 13 15  1  0
 14 16  1  0
 15 17  2  0
 16 18  2  0
 17 18  1  0
M  END
