mac-x0436-mac-x0161
     RDKit          3D

 32 36  0  0  0  0  0  0  0  0999 V2000
   33.2780   44.5510   -7.5150 O   0  0  0  0  0  0  0  0  0  0  0  0
   32.7920   43.8750   -6.4580 C   0  0  0  0  0  0  0  0  0  0  0  0
   31.6590   43.4210   -6.4790 O   0  0  0  0  0  0  0  0  0  0  0  0
   33.7750   43.7650   -5.3230 C   0  0  0  0  0  0  0  0  0  0  0  0
   33.2850   44.5280   -4.0970 C   0  0  0  0  0  0  0  0  0  0  0  0
   34.3780   45.4550   -3.5760 C   0  0  0  0  0  0  0  0  0  0  0  0
   34.2120   46.9820   -3.4570 C   0  0  0  0  0  0  0  0  0  0  0  0
   35.4690   44.8260   -3.2460 N   0  0  0  0  0  0  0  0  0  0  0  0
   35.4430   47.6700   -3.3390 N   0  0  0  0  0  0  0  0  0  0  0  0
   36.5530   45.5730   -2.7660 C   0  0  0  0  0  0  0  0  0  0  0  0
   32.9980   47.5970   -3.4690 C   0  0  0  0  0  0  0  0  0  0  0  0
   36.5670   46.9820   -2.7990 C   0  0  0  0  0  0  0  0  0  0  0  0
   37.6400   44.8670   -2.2400 C   0  0  0  0  0  0  0  0  0  0  0  0
   31.6820   46.8610   -3.5880 C   0  0  0  0  0  0  0  0  0  0  0  0
   32.6520   48.9310   -3.3810 N   0  0  0  0  0  0  0  0  0  0  0  0
   35.5390   49.1310   -3.2860 C   0  0  0  0  0  0  0  0  0  0  0  0
   38.7540   45.5400   -1.7450 C   0  0  0  0  0  0  0  0  0  0  0  0
   37.7030   47.6430   -2.2940 C   0  0  0  0  0  0  0  0  0  0  0  0
   30.6660   47.9530   -3.2500 C   0  0  1  0  0  0  0  0  0  0  0  0
   31.3110   49.1430   -3.7370 O   0  0  0  0  0  0  0  0  0  0  0  0
   29.2800   47.6850   -3.9040 C   0  0  0  0  0  0  0  0  0  0  0  0
   38.7850   46.9290   -1.7720 C   0  0  0  0  0  0  0  0  0  0  0  0
   28.5310   48.8840   -4.3660 N   0  0  0  0  0  0  0  0  0  0  0  0
   28.7690   50.1130   -3.5800 C   0  0  0  0  0  0  0  0  0  0  0  0
   28.6990   49.2300   -5.7640 C   0  0  2  0  0  0  0  0  0  0  0  0
   28.7500   51.3460   -4.3710 N   0  0  0  0  0  0  0  0  0  0  0  0
   27.6610   50.2040   -6.2780 C   0  0  1  0  0  0  0  0  0  0  0  0
   28.5510   48.1490   -6.7250 N   0  0  0  0  0  0  0  0  0  0  0  0
   27.7270   51.4590   -5.3900 C   0  0  2  0  0  0  0  0  0  0  0  0
   28.0390   50.2550   -7.7030 N   0  0  0  0  0  0  0  0  0  0  0  0
   28.3940   48.8570   -7.9990 C   0  0  0  0  0  0  0  0  0  0  0  0
   27.9420   52.7220   -6.0800 N   0  0  0  0  0  0  0  0  0  0  0  0
  1  2  1  0
  2  3  2  0
  2  4  1  0
  4  5  1  0
  5  6  1  0
  6  7  1  0
  6  8  2  0
  7  9  1  0
  8 10  1  0
  7 11  2  3
  9 12  1  0
 10 12  2  0
 10 13  1  0
 11 14  1  0
 11 15  1  0
  9 16  1  0
 13 17  2  0
 12 18  1  0
 14 19  1  0
 15 20  1  0
 19 20  1  0
 19 21  1  6
 17 22  1  0
 18 22  2  0
 21 23  1  0
 23 24  1  0
 23 25  1  0
 24 26  1  0
 25 27  1  0
 25 28  1  6
 26 29  1  0
 27 29  1  0
 27 30  1  6
 28 31  1  0
 30 31  1  0
 29 32  1  6
M  END
