mac-x0321-mac-x0282
     RDKit          3D

 15 16  0  0  0  0  0  0  0  0999 V2000
   26.8380   51.0180   -5.7370 Cl  0  0  0  0  0  0  0  0  0  0  0  0
   28.6460   50.9830   -5.7700 C   0  0  2  0  0  0  0  0  0  0  0  0
   29.2450   49.5280   -5.6740 C   0  0  1  0  0  0  0  0  0  0  0  0
   29.1520   51.9670   -4.7390 C   0  0  0  0  0  0  0  0  0  0  0  0
   29.6460   49.1870   -4.1850 C   0  0  1  0  0  0  0  0  0  0  0  0
   29.9920   51.6490   -3.7450 C   0  0  0  0  0  0  0  0  0  0  0  0
   28.2300   48.4960   -6.1720 C   0  0  0  0  0  0  0  0  0  0  0  0
   30.5070   49.3920   -6.6040 C   0  0  0  0  0  0  0  0  0  0  0  0
   30.3420   47.8450   -4.0040 C   0  0  0  0  0  0  0  0  0  0  0  0
   30.5320   50.2670   -3.5480 C   0  0  0  0  0  0  0  0  0  0  0  0
   28.2620   48.0190   -7.4260 C   0  0  0  0  0  0  0  0  0  0  0  0
   30.1480   49.5410   -8.0280 N   0  0  0  0  0  0  0  0  0  0  0  0
   29.4800   46.8460   -3.7070 O   0  0  0  0  0  0  0  0  0  0  0  0
   31.5350   47.6020   -4.0950 O   0  0  0  0  0  0  0  0  0  0  0  0
   29.2750   48.4360   -8.4560 C   0  0  0  0  0  0  0  0  0  0  0  0
  2  1  1  1
  2  3  1  0
  2  4  1  0
  3  5  1  0
  4  6  2  0
  3  7  1  6
  3  8  1  0
  5  9  1  6
  5 10  1  0
  6 10  1  0
  7 11  2  0
  8 12  1  0
  9 13  1  0
  9 14  2  0
 11 15  1  0
 12 15  1  0
M  END
