mac-x0472-mac-x0565
     RDKit          3D

 27 30  0  0  0  0  0  0  0  0999 V2000
   30.3810   50.6700   -6.1530 O   0  0  0  0  0  0  0  0  0  0  0  0
   31.2700   49.5630   -5.8810 S   0  0  1  0  0  0  0  0  0  0  0  0
   30.9990   48.4220   -4.8690 N   0  0  0  0  0  0  0  0  0  0  0  0
   31.3350   48.7140   -7.3300 N   0  0  0  0  0  0  0  0  0  0  0  0
   32.8760   50.2080   -5.4850 C   0  0  0  0  0  0  0  0  0  0  0  0
   30.4800   48.9650   -8.3430 C   0  0  0  0  0  0  0  0  0  0  0  0
   33.9890   49.3620   -5.5430 C   0  0  0  0  0  0  0  0  0  0  0  0
   33.0170   51.5520   -5.1190 C   0  0  0  0  0  0  0  0  0  0  0  0
   30.3140   48.6400   -3.5700 N   0  0  0  0  0  0  0  0  0  0  0  0
   29.8490   47.9960   -8.9840 N   0  0  0  0  0  0  0  0  0  0  0  0
   30.0780   50.5330   -8.9550 S   0  0  0  0  0  0  0  0  0  0  0  0
   35.2510   49.8690   -5.2310 C   0  0  0  0  0  0  0  0  0  0  0  0
   34.2840   52.0490   -4.8090 C   0  0  0  0  0  0  0  0  0  0  0  0
   29.9450   49.8710   -3.0130 C   0  0  0  0  0  0  0  0  0  0  0  0
   29.2430   47.7540   -3.0740 C   0  0  0  0  0  0  0  0  0  0  0  0
   29.0450   49.7610  -10.0800 C   0  0  0  0  0  0  0  0  0  0  0  0
   29.0190   48.4530   -9.9900 N   0  0  0  0  0  0  0  0  0  0  0  0
   35.3980   51.2090   -4.8650 C   0  0  0  0  0  0  0  0  0  0  0  0
   28.6830   49.7950   -2.4360 C   0  0  0  0  0  0  0  0  0  0  0  0
   30.6590   51.0600   -2.9840 C   0  0  0  0  0  0  0  0  0  0  0  0
   28.1320   48.5460   -2.5580 O   0  0  0  0  0  0  0  0  0  0  0  0
   28.0810   50.8700   -1.8170 C   0  0  0  0  0  0  0  0  0  0  0  0
   30.0760   52.1730   -2.3630 C   0  0  0  0  0  0  0  0  0  0  0  0
   28.7920   52.0770   -1.7820 C   0  0  0  0  0  0  0  0  0  0  0  0
   28.1620   53.2460   -1.1220 C   0  0  0  0  0  0  0  0  0  0  0  0
   27.4120   53.9880   -1.9640 O   0  0  0  0  0  0  0  0  0  0  0  0
   28.3130   53.5040    0.0590 O   0  0  0  0  0  0  0  0  0  0  0  0
  1  2  2  0
  2  3  2  0
  2  4  1  6
  2  5  1  0
  4  6  1  0
  5  7  2  0
  5  8  1  0
  3  9  1  0
  6 10  2  0
  6 11  1  0
  7 12  1  0
  8 13  2  0
  9 14  1  0
  9 15  1  0
 11 16  1  0
 10 17  1  0
 16 17  2  0
 12 18  2  0
 13 18  1  0
 14 19  2  0
 14 20  1  0
 15 21  1  0
 19 21  1  0
 19 22  1  0
 20 23  2  0
 22 24  2  0
 23 24  1  0
 24 25  1  0
 25 26  1  0
 25 27  2  0
M  END
