mac-x0212-mac-x0282
     RDKit          3D

 19 20  0  0  0  0  0  0  0  0999 V2000
   30.8300   54.2370   -6.4630 C   0  0  0  0  0  0  0  0  0  0  0  0
   29.3550   54.2970   -5.4680 S   0  0  0  0  0  0  0  0  0  0  0  0
   28.4230   55.2070   -6.0900 O   0  0  0  0  0  0  0  0  0  0  0  0
   29.7360   54.4130   -4.0790 O   0  0  0  0  0  0  0  0  0  0  0  0
   28.7660   52.7630   -5.7020 N   0  0  0  0  0  0  0  0  0  0  0  0
   29.6430   51.6830   -5.2970 C   0  0  2  0  0  0  0  0  0  0  0  0
   29.9440   50.6530   -6.4250 C   0  0  0  0  0  0  0  0  0  0  0  0
   29.0900   51.1030   -4.0280 C   0  0  0  0  0  0  0  0  0  0  0  0
   29.7490   49.1630   -6.0140 C   0  0  2  0  0  0  0  0  0  0  0  0
   29.3760   49.8580   -3.6530 C   0  0  0  0  0  0  0  0  0  0  0  0
   30.2610   49.0490   -4.5510 C   0  0  1  0  0  0  0  0  0  0  0  0
   30.5830   48.1930   -6.8410 C   0  0  0  0  0  0  0  0  0  0  0  0
   28.2500   48.8750   -6.3060 C   0  0  0  0  0  0  0  0  0  0  0  0
   30.5590   47.6310   -4.0520 C   0  0  0  0  0  0  0  0  0  0  0  0
   30.0610   47.4640   -7.8390 C   0  0  0  0  0  0  0  0  0  0  0  0
   27.9570   48.7060   -7.7370 N   0  0  0  0  0  0  0  0  0  0  0  0
   30.7010   46.6530   -4.7710 O   0  0  0  0  0  0  0  0  0  0  0  0
   30.6840   47.5300   -2.7090 O   0  0  0  0  0  0  0  0  0  0  0  0
   28.6330   47.5300   -8.2570 C   0  0  0  0  0  0  0  0  0  0  0  0
  1  2  1  0
  2  3  2  0
  2  4  2  0
  2  5  1  0
  6  5  1  6
  6  7  1  0
  6  8  1  0
  9  7  1  6
  8 10  2  0
  9 11  1  0
 10 11  1  0
  9 12  1  0
  9 13  1  0
 11 14  1  1
 12 15  2  0
 13 16  1  0
 14 17  2  0
 14 18  1  0
 15 19  1  0
 16 19  1  0
M  END
