mac-x0161-mac-x0179
     RDKit          3D

 32 36  0  0  0  0  0  0  0  0999 V2000
   27.1810   52.4200   -6.0490 N   0  0  0  0  0  0  0  0  0  0  0  0
   28.3530   51.6120   -5.7560 C   0  0  2  0  0  0  0  0  0  0  0  0
   28.5530   50.4030   -6.7270 C   0  0  1  0  0  0  0  0  0  0  0  0
   28.2370   51.2960   -4.3560 N   0  0  0  0  0  0  0  0  0  0  0  0
   29.1590   50.2670   -3.9250 C   0  0  0  0  0  0  0  0  0  0  0  0
   28.9440   49.0830   -6.0150 C   0  0  1  0  0  0  0  0  0  0  0  0
   27.3370   50.0840   -7.5080 N   0  0  0  0  0  0  0  0  0  0  0  0
   28.7770   49.0270   -4.5730 N   0  0  0  0  0  0  0  0  0  0  0  0
   28.0480   48.0690   -6.5770 N   0  0  0  0  0  0  0  0  0  0  0  0
   27.4580   48.6610   -7.7600 C   0  0  0  0  0  0  0  0  0  0  0  0
   29.4220   47.8400   -3.9930 C   0  0  0  0  0  0  0  0  0  0  0  0
   30.8920   48.0080   -3.8320 C   0  0  0  0  0  0  0  0  0  0  0  0
   31.7900   47.6030   -2.8760 C   0  0  0  0  0  0  0  0  0  0  0  0
   31.5540   48.6990   -4.7990 O   0  0  0  0  0  0  0  0  0  0  0  0
   32.9030   48.7560   -4.4890 N   0  0  0  0  0  0  0  0  0  0  0  0
   33.0380   48.0930   -3.3320 C   0  0  0  0  0  0  0  0  0  0  0  0
   34.2900   47.9100   -2.6500 C   0  0  0  0  0  0  0  0  0  0  0  0
   34.8230   49.2580   -2.2370 C   0  0  0  0  0  0  0  0  0  0  0  0
   34.8880   46.7130   -2.4170 C   0  0  0  0  0  0  0  0  0  0  0  0
   34.4710   45.4160   -2.7610 N   0  0  0  0  0  0  0  0  0  0  0  0
   36.1810   46.4940   -1.7080 C   0  0  0  0  0  0  0  0  0  0  0  0
   33.3910   44.9690   -3.6300 C   0  0  0  0  0  0  0  0  0  0  0  0
   35.0690   44.4790   -1.9220 C   0  0  0  0  0  0  0  0  0  0  0  0
   36.2740   45.1330   -1.4150 C   0  0  0  0  0  0  0  0  0  0  0  0
   37.2300   47.3130   -1.3110 C   0  0  0  0  0  0  0  0  0  0  0  0
   33.8160   44.1970   -4.8770 C   0  0  0  0  0  0  0  0  0  0  0  0
   34.7100   43.3510   -1.6360 O   0  0  0  0  0  0  0  0  0  0  0  0
   37.3440   44.5460   -0.7540 C   0  0  0  0  0  0  0  0  0  0  0  0
   38.3300   46.7530   -0.6400 C   0  0  0  0  0  0  0  0  0  0  0  0
   32.8570   43.4260   -5.4360 O   0  0  0  0  0  0  0  0  0  0  0  0
   34.9280   44.2310   -5.3890 O   0  0  0  0  0  0  0  0  0  0  0  0
   38.3870   45.3800   -0.3630 C   0  0  0  0  0  0  0  0  0  0  0  0
  2  1  1  6
  2  3  1  0
  2  4  1  0
  4  5  1  0
  3  6  1  0
  3  7  1  1
  5  8  1  0
  6  8  1  0
  6  9  1  6
  7 10  1  0
  9 10  1  0
  8 11  1  0
 11 12  1  0
 12 13  2  0
 12 14  1  0
 14 15  1  0
 13 16  1  0
 15 16  2  0
 16 17  1  0
 17 18  1  0
 17 19  2  3
 19 20  1  0
 19 21  1  0
 20 22  1  0
 20 23  1  0
 21 24  2  0
 23 24  1  0
 21 25  1  0
 22 26  1  0
 23 27  2  0
 24 28  1  0
 25 29  2  0
 26 30  1  0
 26 31  2  0
 28 32  2  0
 29 32  1  0
M  END
