mac-x0333-mac-x0223
     RDKit          3D

 25 27  0  0  0  0  0  0  0  0999 V2000
   28.7510   48.2980   -4.1960 O   0  0  0  0  0  0  0  0  0  0  0  0
   28.9680   49.6120   -4.4850 C   0  0  0  0  0  0  0  0  0  0  0  0
   29.1250   49.9050   -5.8480 C   0  0  0  0  0  0  0  0  0  0  0  0
   29.0240   50.6080   -3.4960 C   0  0  0  0  0  0  0  0  0  0  0  0
   28.8560   50.3330   -2.0180 C   0  0  0  0  0  0  0  0  0  0  0  0
   29.2520   51.9010   -3.9610 C   0  0  0  0  0  0  0  0  0  0  0  0
   29.3500   51.2130   -6.2700 C   0  0  0  0  0  0  0  0  0  0  0  0
   27.8320   49.2280   -1.7230 C   0  0  0  0  0  0  0  0  0  0  0  0
   29.4070   52.1890   -5.3030 C   0  0  0  0  0  0  0  0  0  0  0  0
   29.3480   53.0260   -3.1940 O   0  0  0  0  0  0  0  0  0  0  0  0
   28.4650   48.0610   -1.1830 O   0  0  0  0  0  0  0  0  0  0  0  0
   29.6170   53.5120   -5.5380 O   0  0  0  0  0  0  0  0  0  0  0  0
   29.6210   54.0280   -4.1950 C   0  0  0  0  0  0  0  0  0  0  0  0
   29.3620   47.3620   -1.9560 C   0  0  0  0  0  0  0  0  0  0  0  0
   28.9970   46.0360   -2.2810 C   0  0  0  0  0  0  0  0  0  0  0  0
   30.5720   47.8740   -2.4260 C   0  0  0  0  0  0  0  0  0  0  0  0
   27.7920   45.6010   -1.7810 O   0  0  0  0  0  0  0  0  0  0  0  0
   31.4180   47.0880   -3.2110 C   0  0  0  0  0  0  0  0  0  0  0  0
   29.8540   45.2560   -3.0700 C   0  0  0  0  0  0  0  0  0  0  0  0
   27.4590   44.2310   -1.9610 C   0  0  0  0  0  0  0  0  0  0  0  0
   31.0700   45.7750   -3.5410 C   0  0  0  0  0  0  0  0  0  0  0  0
   31.9890   44.9280   -4.3940 C   0  0  0  0  0  0  0  0  0  0  0  0
   32.5050   45.6120   -5.6390 C   0  0  0  0  0  0  0  0  0  0  0  0
   33.4920   46.3190   -5.7650 O   0  0  0  0  0  0  0  0  0  0  0  0
   31.7220   45.3580   -6.7110 O   0  0  0  0  0  0  0  0  0  0  0  0
  1  2  1  0
  2  3  2  0
  2  4  1  0
  4  5  1  0
  4  6  2  0
  3  7  1  0
  5  8  1  0
  6  9  1  0
  7  9  2  0
  6 10  1  0
  8 11  1  0
  9 12  1  0
 10 13  1  0
 12 13  1  0
 11 14  1  0
 14 15  2  0
 14 16  1  0
 15 17  1  0
 16 18  2  0
 15 19  1  0
 17 20  1  0
 18 21  1  0
 19 21  2  0
 21 22  1  0
 22 23  1  0
 23 24  2  0
 23 25  1  0
M  END
