mac-x0188-mac-x0190
     RDKit          3D

 21 23  0  0  0  0  0  0  0  0999 V2000
   32.0670   44.4390   -3.9240 C   0  0  0  0  0  0  0  0  0  0  0  0
   31.7710   45.8780   -3.7660 C   0  0  0  0  0  0  0  0  0  0  0  0
   32.2400   46.4680   -2.6450 O   0  0  0  0  0  0  0  0  0  0  0  0
   31.0970   46.8010   -4.5410 C   0  0  0  0  0  0  0  0  0  0  0  0
   30.4880   46.4470   -5.8010 C   0  0  0  0  0  0  0  0  0  0  0  0
   31.8940   47.7980   -2.6480 N   0  0  0  0  0  0  0  0  0  0  0  0
   31.2100   48.0210   -3.7810 C   0  0  0  0  0  0  0  0  0  0  0  0
   29.3280   46.0650   -5.8910 O   0  0  0  0  0  0  0  0  0  0  0  0
   31.2760   46.5400   -6.8970 O   0  0  0  0  0  0  0  0  0  0  0  0
   30.7400   49.4490   -4.0080 C   0  0  2  0  0  0  0  0  0  0  0  0
   29.7140   50.0150   -3.0500 C   0  0  0  0  0  0  0  0  0  0  0  0
   30.3650   49.7710   -5.4310 C   0  0  0  0  0  0  0  0  0  0  0  0
   29.0070   51.1330   -3.3560 C   0  0  0  0  0  0  0  0  0  0  0  0
   29.6700   50.8860   -5.7300 C   0  0  0  0  0  0  0  0  0  0  0  0
   29.1930   51.8740   -4.6760 C   0  0  2  0  0  0  0  0  0  0  0  0
   30.1180   53.0430   -4.5370 N   0  0  0  0  0  0  0  0  0  0  0  0
   27.9210   52.5690   -5.2020 C   0  0  0  0  0  0  0  0  0  0  0  0
   29.2850   54.2440   -4.6650 C   0  0  2  0  0  0  0  0  0  0  0  0
   28.4120   53.8510   -5.7460 N   0  0  0  0  0  0  0  0  0  0  0  0
   30.0300   55.5750   -4.9440 C   0  0  0  0  0  0  0  0  0  0  0  0
   29.1090   56.6000   -5.3440 O   0  0  0  0  0  0  0  0  0  0  0  0
  1  2  1  0
  2  3  1  0
  2  4  2  0
  4  5  1  0
  3  6  1  0
  4  7  1  0
  6  7  2  0
  5  8  2  0
  5  9  1  0
 10  7  1  6
 10 11  1  0
 10 12  1  0
 11 13  2  0
 12 14  2  0
 15 13  1  1
 14 15  1  0
 15 16  1  0
 15 17  1  0
 16 18  1  0
 17 19  1  0
 18 19  1  0
 18 20  1  6
 20 21  1  0
M  END
