mac-x0231-mac-x0338
     RDKit          3D

 25 27  0  0  0  0  0  0  0  0999 V2000
   34.3800   45.1660   -6.4990 O   0  0  0  0  0  0  0  0  0  0  0  0
   33.1300   44.6980   -6.2720 C   0  0  0  0  0  0  0  0  0  0  0  0
   32.2150   44.9120   -7.0540 O   0  0  0  0  0  0  0  0  0  0  0  0
   33.0070   43.9150   -4.9860 C   0  0  0  0  0  0  0  0  0  0  0  0
   31.7420   44.2120   -4.2070 C   0  0  0  0  0  0  0  0  0  0  0  0
   31.5230   45.5590   -3.6310 C   0  0  0  0  0  0  0  0  0  0  0  0
   30.8750   43.2440   -4.0940 N   0  0  0  0  0  0  0  0  0  0  0  0
   30.2960   45.8010   -3.0230 C   0  0  0  0  0  0  0  0  0  0  0  0
   29.7250   43.4920   -3.4130 N   0  0  0  0  0  0  0  0  0  0  0  0
   32.4800   46.5770   -3.6830 C   0  0  0  0  0  0  0  0  0  0  0  0
   29.2960   44.7180   -2.9660 C   0  0  0  0  0  0  0  0  0  0  0  0
   30.0060   47.0550   -2.4760 C   0  0  0  0  0  0  0  0  0  0  0  0
   32.1980   47.8320   -3.1380 C   0  0  0  0  0  0  0  0  0  0  0  0
   28.1630   44.9070   -2.5440 O   0  0  0  0  0  0  0  0  0  0  0  0
   30.9590   48.0800   -2.5390 C   0  0  0  0  0  0  0  0  0  0  0  0
   30.6480   49.4420   -1.9850 C   0  0  0  0  0  0  0  0  0  0  0  0
   30.1690   50.3230   -3.1120 C   0  0  0  0  0  0  0  0  0  0  0  0
   29.8180   49.7530   -4.3400 C   0  0  0  0  0  0  0  0  0  0  0  0
   30.0880   51.6650   -2.9140 N   0  0  0  0  0  0  0  0  0  0  0  0
   29.3810   50.4690   -5.4050 N   0  0  0  0  0  0  0  0  0  0  0  0
   29.6520   52.3940   -3.9760 C   0  0  0  0  0  0  0  0  0  0  0  0
   29.3080   51.8120   -5.1880 C   0  0  0  0  0  0  0  0  0  0  0  0
   28.8340   52.6590   -6.3180 C   0  0  0  0  0  0  0  0  0  0  0  0
   28.5120   51.9840   -7.4640 N   0  0  0  0  0  0  0  0  0  0  0  0
   28.7360   53.8750   -6.2310 O   0  0  0  0  0  0  0  0  0  0  0  0
  1  2  1  0
  2  3  2  0
  2  4  1  0
  4  5  1  0
  5  6  1  0
  5  7  2  0
  6  8  2  0
  7  9  1  0
  6 10  1  0
  8 11  1  0
  9 11  1  0
  8 12  1  0
 10 13  2  0
 11 14  2  0
 12 15  2  0
 13 15  1  0
 15 16  1  0
 16 17  1  0
 17 18  2  0
 17 19  1  0
 18 20  1  0
 19 21  2  0
 20 22  2  0
 21 22  1  0
 22 23  1  0
 23 24  1  0
 23 25  2  0
M  END
