mac-x0397-mac-x0178
     RDKit          3D

 26 28  0  0  0  0  0  0  0  0999 V2000
   29.4160   52.2100   -2.3550 Cl  0  0  0  0  0  0  0  0  0  0  0  0
   29.8870   51.4560   -3.8170 C   0  0  0  0  0  0  0  0  0  0  0  0
   29.3680   52.0030   -5.0130 C   0  0  0  0  0  0  0  0  0  0  0  0
   30.7600   50.3580   -3.8350 C   0  0  0  0  0  0  0  0  0  0  0  0
   28.5230   53.0970   -5.1830 N   0  0  0  0  0  0  0  0  0  0  0  0
   29.7400   51.3930   -6.2090 C   0  0  0  0  0  0  0  0  0  0  0  0
   31.1230   49.7940   -5.0670 C   0  0  0  0  0  0  0  0  0  0  0  0
   28.2810   53.2910   -6.4580 C   0  0  0  0  0  0  0  0  0  0  0  0
   29.0090   52.1910   -7.5360 S   0  0  0  0  0  0  0  0  0  0  0  0
   30.6000   50.3000   -6.2510 C   0  0  0  0  0  0  0  0  0  0  0  0
   32.0960   48.6490   -5.2080 C   0  0  0  0  0  0  0  0  0  0  0  0
   27.5140   54.2920   -6.9150 N   0  0  0  0  0  0  0  0  0  0  0  0
   32.4980   48.0280   -3.8880 C   0  0  0  0  0  0  0  0  0  0  0  0
   31.4280   47.0450   -3.6150 C   0  0  0  0  0  0  0  0  0  0  0  0
   31.0990   46.0360   -4.5350 C   0  0  0  0  0  0  0  0  0  0  0  0
   30.7290   47.1590   -2.4150 C   0  0  0  0  0  0  0  0  0  0  0  0
   31.7840   45.8380   -5.8440 C   0  0  0  0  0  0  0  0  0  0  0  0
   29.7010   46.2780   -2.1280 C   0  0  0  0  0  0  0  0  0  0  0  0
   30.0570   45.1490   -4.2310 C   0  0  0  0  0  0  0  0  0  0  0  0
   28.8290   46.4630   -0.6010 S   0  0  0  0  0  0  0  0  0  0  0  0
   31.2420   45.4910   -6.8780 O   0  0  0  0  0  0  0  0  0  0  0  0
   33.1030   46.0850   -5.8080 O   0  0  0  0  0  0  0  0  0  0  0  0
   29.3520   45.2670   -3.0270 C   0  0  0  0  0  0  0  0  0  0  0  0
   28.4540   44.8710   -0.2100 N   0  0  0  0  0  0  0  0  0  0  0  0
   29.7660   46.9090    0.4040 O   0  0  0  0  0  0  0  0  0  0  0  0
   27.6050   47.1700   -0.8860 O   0  0  0  0  0  0  0  0  0  0  0  0
  1  2  1  0
  2  3  2  0
  2  4  1  0
  3  5  1  0
  3  6  1  0
  4  7  2  0
  5  8  2  0
  6  9  1  0
  8  9  1  0
  6 10  2  0
  7 10  1  0
  7 11  1  0
  8 12  1  0
 11 13  1  0
 13 14  1  0
 14 15  2  0
 14 16  1  0
 15 17  1  0
 16 18  2  0
 15 19  1  0
 18 20  1  0
 17 21  2  0
 17 22  1  0
 18 23  1  0
 19 23  2  0
 20 24  1  0
 20 25  2  0
 20 26  2  0
M  END
