mac-x0161-mac-x0357
     RDKit          3D

 30 33  0  0  0  0  0  0  0  0999 V2000
   28.3900   52.4180   -5.6770 N   0  0  0  0  0  0  0  0  0  0  0  0
   28.0940   51.2010   -4.9440 C   0  0  1  0  0  0  0  0  0  0  0  0
   27.6560   50.0220   -5.8170 C   0  0  2  0  0  0  0  0  0  0  0  0
   29.3400   50.9070   -4.2640 N   0  0  0  0  0  0  0  0  0  0  0  0
   29.3780   49.5460   -3.7040 C   0  0  0  0  0  0  0  0  0  0  0  0
   28.8190   49.0800   -5.9910 C   0  0  1  0  0  0  0  0  0  0  0  0
   27.1830   50.1830   -7.2040 N   0  0  0  0  0  0  0  0  0  0  0  0
   29.3330   48.5230   -4.7550 N   0  0  0  0  0  0  0  0  0  0  0  0
   28.1700   48.0640   -6.8130 N   0  0  0  0  0  0  0  0  0  0  0  0
   27.3090   48.8180   -7.7270 C   0  0  0  0  0  0  0  0  0  0  0  0
   30.5870   47.7310   -4.9770 C   0  0  2  0  0  0  0  0  0  0  0  0
   30.4210   46.1830   -4.8550 C   0  0  0  0  0  0  0  0  0  0  0  0
   31.7510   48.2040   -4.1420 C   0  0  0  0  0  0  0  0  0  0  0  0
   30.6620   45.4960   -6.1370 N   0  0  0  0  0  0  0  0  0  0  0  0
   32.2910   47.8580   -2.9230 C   0  0  0  0  0  0  0  0  0  0  0  0
   32.4920   49.2240   -4.6770 O   0  0  0  0  0  0  0  0  0  0  0  0
   31.8010   44.9220   -6.3070 C   0  0  0  0  0  0  0  0  0  0  0  0
   33.5260   49.5550   -3.8130 N   0  0  0  0  0  0  0  0  0  0  0  0
   33.3840   48.7280   -2.7790 C   0  0  0  0  0  0  0  0  0  0  0  0
   34.2290   48.7610   -1.7200 O   0  0  0  0  0  0  0  0  0  0  0  0
   32.1250   44.2690   -7.4400 O   0  0  0  0  0  0  0  0  0  0  0  0
   32.8860   44.9040   -5.3000 C   0  0  0  0  0  0  0  0  0  0  0  0
   35.1130   47.6520   -1.6560 C   0  0  0  0  0  0  0  0  0  0  0  0
   32.9790   43.8700   -4.3480 C   0  0  0  0  0  0  0  0  0  0  0  0
   33.8180   45.9520   -5.3290 C   0  0  0  0  0  0  0  0  0  0  0  0
   31.9720   42.7510   -4.3290 C   0  0  0  0  0  0  0  0  0  0  0  0
   34.8590   45.9830   -4.4050 C   0  0  0  0  0  0  0  0  0  0  0  0
   34.0370   43.9270   -3.4310 C   0  0  0  0  0  0  0  0  0  0  0  0
   34.2470   42.9900   -2.4570 O   0  0  0  0  0  0  0  0  0  0  0  0
   34.9670   44.9690   -3.4570 C   0  0  0  0  0  0  0  0  0  0  0  0
  2  1  1  6
  2  3  1  0
  2  4  1  0
  4  5  1  0
  3  6  1  0
  3  7  1  6
  5  8  1  0
  6  8  1  0
  6  9  1  6
  7 10  1  0
  9 10  1  0
  8 11  1  0
 11 12  1  1
 11 13  1  0
 12 14  1  0
 13 15  2  0
 13 16  1  0
 14 17  2  3
 16 18  1  0
 15 19  1  0
 18 19  2  0
 19 20  1  0
 17 21  1  0
 17 22  1  0
 20 23  1  0
 22 24  2  0
 22 25  1  0
 24 26  1  0
 25 27  2  0
 24 28  1  0
 28 29  1  0
 27 30  1  0
 28 30  2  0
M  END
