mac-x0226-mac-x0439
     RDKit          3D

 26 29  0  0  0  0  0  0  0  0999 V2000
   32.0670   45.1600   -7.0420 N   0  0  0  0  0  0  0  0  0  0  0  0
   32.9470   45.9130   -6.2770 C   0  0  0  0  0  0  0  0  0  0  0  0
   33.2840   47.0600   -6.5580 O   0  0  0  0  0  0  0  0  0  0  0  0
   31.0100   44.6340   -6.5030 C   0  0  0  0  0  0  0  0  0  0  0  0
   30.2440   43.8900   -7.3330 O   0  0  0  0  0  0  0  0  0  0  0  0
   33.4800   45.2150   -5.1120 C   0  0  0  0  0  0  0  0  0  0  0  0
   30.4400   44.6570   -5.1240 C   0  0  0  0  0  0  0  0  0  0  0  0
   33.0150   44.0130   -4.5480 C   0  0  0  0  0  0  0  0  0  0  0  0
   34.5470   45.5580   -4.2960 C   0  0  0  0  0  0  0  0  0  0  0  0
   30.9750   45.3710   -4.1260 C   0  0  0  0  0  0  0  0  0  0  0  0
   29.3100   43.9450   -4.7520 N   0  0  0  0  0  0  0  0  0  0  0  0
   33.7110   43.6270   -3.4820 N   0  0  0  0  0  0  0  0  0  0  0  0
   34.6570   44.5830   -3.3290 N   0  0  0  0  0  0  0  0  0  0  0  0
   30.2230   45.1280   -2.8730 C   0  0  2  0  0  0  0  0  0  0  0  0
   29.1700   44.2270   -3.4860 C   0  0  0  0  0  0  0  0  0  0  0  0
   35.5990   44.4940   -2.2710 C   0  0  0  0  0  0  0  0  0  0  0  0
   29.5510   46.1940   -2.0880 C   0  0  0  0  0  0  0  0  0  0  0  0
   28.1010   43.7500   -2.5940 C   0  0  0  0  0  0  0  0  0  0  0  0
   30.3210   47.7280   -1.9470 Cl  0  0  0  0  0  0  0  0  0  0  0  0
   36.4240   45.5890   -1.9870 C   0  0  0  0  0  0  0  0  0  0  0  0
   35.7140   43.3220   -1.5130 C   0  0  0  0  0  0  0  0  0  0  0  0
   28.3730   45.9350   -1.4970 C   0  0  0  0  0  0  0  0  0  0  0  0
   27.7470   44.6230   -1.6310 C   0  0  0  0  0  0  0  0  0  0  0  0
   37.3570   45.5120   -0.9520 C   0  0  0  0  0  0  0  0  0  0  0  0
   36.6500   43.2520   -0.4790 C   0  0  0  0  0  0  0  0  0  0  0  0
   37.4690   44.3450   -0.1990 C   0  0  0  0  0  0  0  0  0  0  0  0
  1  2  1  0
  2  3  2  0
  1  4  2  3
  4  5  1  0
  2  6  1  0
  4  7  1  0
  6  8  1  0
  6  9  2  0
  7 10  2  0
  7 11  1  0
  8 12  2  0
  9 13  1  0
 12 13  1  0
 14 10  1  6
 11 15  2  0
 14 15  1  0
 13 16  1  0
 14 17  1  0
 15 18  1  0
 17 19  1  0
 16 20  2  0
 16 21  1  0
 17 22  2  0
 18 23  2  0
 22 23  1  0
 20 24  1  0
 21 25  2  0
 24 26  2  0
 25 26  1  0
M  END
