mac-x0546-mac-x0123
     RDKit          3D

 29 33  0  0  0  0  0  0  0  0999 V2000
   31.1850   49.1440   -0.8520 C   0  0  0  0  0  0  0  0  0  0  0  0
   29.9220   48.4670   -1.1720 N   0  0  0  0  0  0  0  0  0  0  0  0
   28.8760   49.4030   -1.6630 C   0  0  0  0  0  0  0  0  0  0  0  0
   29.8520   47.3130   -1.9130 C   0  0  0  0  0  0  0  0  0  0  0  0
   30.7900   46.9260   -2.7780 C   0  0  0  0  0  0  0  0  0  0  0  0
   28.6290   46.4980   -1.7610 C   0  0  0  0  0  0  0  0  0  0  0  0
   29.1100   50.4310   -2.7600 C   0  0  0  0  0  0  0  0  0  0  0  0
   30.5750   45.7200   -3.6050 C   0  0  2  0  0  0  0  0  0  0  0  0
   28.4960   45.2390   -2.2150 C   0  0  0  0  0  0  0  0  0  0  0  0
   29.6200   51.6250   -2.3840 N   0  0  0  0  0  0  0  0  0  0  0  0
   28.8150   50.3140   -4.0840 N   0  0  0  0  0  0  0  0  0  0  0  0
   29.6940   44.7260   -2.8810 C   0  0  0  0  0  0  0  0  0  0  0  0
   31.6570   44.7700   -3.9620 C   0  0  0  0  0  0  0  0  0  0  0  0
   29.1230   51.5750   -4.5430 N   0  0  0  0  0  0  0  0  0  0  0  0
   29.6130   52.3360   -3.4680 C   0  0  0  0  0  0  0  0  0  0  0  0
   32.9240   45.1660   -4.6480 C   0  0  0  0  0  0  0  0  0  0  0  0
   30.0790   43.4900   -2.9230 N   0  0  0  0  0  0  0  0  0  0  0  0
   31.2850   43.5440   -3.5780 C   0  0  0  0  0  0  0  0  0  0  0  0
   28.9810   52.1500   -5.8430 C   0  0  0  0  0  0  0  0  0  0  0  0
   29.9830   53.6360   -3.5790 N   0  0  0  0  0  0  0  0  0  0  0  0
   32.7300   45.9710   -5.9150 C   0  0  0  0  0  0  0  0  0  0  0  0
   28.5150   51.3720   -6.8980 N   0  0  0  0  0  0  0  0  0  0  0  0
   29.7970   54.1480   -4.7340 C   0  0  0  0  0  0  0  0  0  0  0  0
   29.2860   53.4600   -5.9510 C   0  0  0  0  0  0  0  0  0  0  0  0
   31.7530   46.0260   -6.6410 O   0  0  0  0  0  0  0  0  0  0  0  0
   33.8320   46.6900   -6.2130 O   0  0  0  0  0  0  0  0  0  0  0  0
   29.2520   54.4580   -7.0510 C   0  0  0  0  0  0  0  0  0  0  0  0
   30.0870   55.5830   -5.0320 C   0  0  0  0  0  0  0  0  0  0  0  0
   29.2690   55.7990   -6.3030 C   0  0  0  0  0  0  0  0  0  0  0  0
  1  2  1  0
  2  3  1  0
  2  4  1  0
  4  5  2  0
  4  6  1  0
  3  7  1  0
  8  5  1  1
  6  9  2  0
  7 10  1  0
  7 11  2  0
  8 12  1  0
  9 12  1  0
  8 13  1  0
 11 14  1  0
 10 15  2  0
 14 15  1  0
 13 16  1  0
 12 17  2  0
 13 18  2  0
 17 18  1  0
 14 19  1  0
 15 20  1  0
 16 21  1  0
 19 22  1  0
 20 23  2  0
 19 24  2  0
 23 24  1  0
 21 25  2  0
 21 26  1  0
 24 27  1  0
 23 28  1  0
 27 29  1  0
 28 29  1  0
M  END
