mac-x1493-mac-x0587
     RDKit          3D

 24 26  0  0  0  0  0  0  0  0999 V2000
   29.8010   48.9880   -3.3450 C   0  0  0  0  0  0  0  0  0  0  0  0
   30.1280   48.0550   -4.2580 C   0  0  0  0  0  0  0  0  0  0  0  0
   30.2610   46.5580   -3.8460 C   0  0  2  0  0  0  0  0  0  0  0  0
   29.6710   50.4180   -3.6360 C   0  0  0  0  0  0  0  0  0  0  0  0
   28.9460   50.8570   -4.7430 C   0  0  0  0  0  0  0  0  0  0  0  0
   30.2690   51.3840   -2.8450 C   0  0  0  0  0  0  0  0  0  0  0  0
   30.3630   48.3680   -5.6000 N   0  0  0  0  0  0  0  0  0  0  0  0
   29.2480   46.0390   -2.8300 C   0  0  0  0  0  0  0  0  0  0  0  0
   32.0250   46.0810   -3.5870 S   0  0  0  0  0  0  0  0  0  0  0  0
   28.8540   52.2300   -5.0310 C   0  0  0  0  0  0  0  0  0  0  0  0
   30.1980   52.7160   -3.0830 N   0  0  0  0  0  0  0  0  0  0  0  0
   30.9280   49.7190   -5.9020 C   0  0  0  0  0  0  0  0  0  0  0  0
   29.3250   48.2170   -6.6440 C   0  0  0  0  0  0  0  0  0  0  0  0
   32.9440   46.7920   -5.0050 C   0  0  0  0  0  0  0  0  0  0  0  0
   29.5060   53.1290   -4.1620 C   0  0  0  0  0  0  0  0  0  0  0  0
   28.1440   52.7130   -6.1480 C   0  0  0  0  0  0  0  0  0  0  0  0
   30.0420   50.3520   -6.9940 C   0  0  0  0  0  0  0  0  0  0  0  0
   28.8830   49.4790   -7.2210 N   0  0  0  0  0  0  0  0  0  0  0  0
   33.2000   45.7740   -6.1010 C   0  0  0  0  0  0  0  0  0  0  0  0
   29.4240   54.4850   -4.4420 C   0  0  0  0  0  0  0  0  0  0  0  0
   28.0790   54.0810   -6.4060 C   0  0  0  0  0  0  0  0  0  0  0  0
   34.3090   45.5420   -6.5650 O   0  0  0  0  0  0  0  0  0  0  0  0
   32.0940   45.1340   -6.5400 O   0  0  0  0  0  0  0  0  0  0  0  0
   28.7210   54.9690   -5.5510 C   0  0  0  0  0  0  0  0  0  0  0  0
  1  2  2  3
  2  3  1  0
  1  4  1  0
  4  5  2  0
  4  6  1  0
  2  7  1  0
  3  8  1  1
  3  9  1  0
  5 10  1  0
  6 11  2  0
  7 12  1  0
  7 13  1  0
  9 14  1  0
 10 15  2  0
 11 15  1  0
 10 16  1  0
 12 17  1  0
 13 18  1  0
 17 18  1  0
 14 19  1  0
 15 20  1  0
 16 21  2  0
 19 22  2  0
 19 23  1  0
 20 24  2  0
 21 24  1  0
M  END
