mac-x0231-mac-x0223
     RDKit          3D

 17 18  0  0  0  0  0  0  0  0999 V2000
   34.2460   45.5170   -6.6360 O   0  0  0  0  0  0  0  0  0  0  0  0
   33.0000   45.1180   -6.3370 C   0  0  0  0  0  0  0  0  0  0  0  0
   32.0620   45.4280   -7.0560 O   0  0  0  0  0  0  0  0  0  0  0  0
   32.8970   44.2920   -5.0910 C   0  0  0  0  0  0  0  0  0  0  0  0
   31.6130   44.5060   -4.3150 C   0  0  0  0  0  0  0  0  0  0  0  0
   31.4670   45.7080   -3.4380 C   0  0  0  0  0  0  0  0  0  0  0  0
   30.6820   43.6120   -4.4740 N   0  0  0  0  0  0  0  0  0  0  0  0
   30.2670   45.8770   -2.7200 C   0  0  0  0  0  0  0  0  0  0  0  0
   29.5300   43.8040   -3.7940 N   0  0  0  0  0  0  0  0  0  0  0  0
   32.4930   46.6610   -3.3230 C   0  0  0  0  0  0  0  0  0  0  0  0
   29.2320   44.8080   -2.8910 C   0  0  0  0  0  0  0  0  0  0  0  0
   30.1130   47.0140   -1.8960 C   0  0  0  0  0  0  0  0  0  0  0  0
   32.3310   47.7750   -2.5040 C   0  0  0  0  0  0  0  0  0  0  0  0
   28.1530   44.8600   -2.1960 N   0  0  0  0  0  0  0  0  0  0  0  0
   28.9630   47.2420   -1.1730 O   0  0  0  0  0  0  0  0  0  0  0  0
   31.1470   47.9540   -1.7930 C   0  0  0  0  0  0  0  0  0  0  0  0
   27.1610   43.8160   -2.3450 C   0  0  0  0  0  0  0  0  0  0  0  0
  1  2  1  0
  2  3  2  0
  2  4  1  0
  4  5  1  0
  5  6  1  0
  5  7  2  0
  6  8  2  0
  7  9  1  0
  6 10  1  0
  8 11  1  0
  9 11  1  0
  8 12  1  0
 10 13  2  0
 11 14  2  3
 12 15  1  0
 12 16  2  0
 13 16  1  0
 14 17  1  0
M  END
