mac-x0338-mac-x0412
     RDKit          3D

 14 15  0  0  0  0  0  0  0  0999 V2000
   29.9610   51.4670   -7.9670 N   0  0  0  0  0  0  0  0  0  0  0  0
   30.0040   52.0380   -6.7190 C   0  0  0  0  0  0  0  0  0  0  0  0
   30.9430   52.7780   -6.4290 O   0  0  0  0  0  0  0  0  0  0  0  0
   28.8150   51.6780   -5.7660 C   0  0  1  0  0  0  0  0  0  0  0  0
   28.7080   50.2030   -5.6050 N   0  0  0  0  0  0  0  0  0  0  0  0
   29.0960   52.3130   -4.3910 C   0  0  1  0  0  0  0  0  0  0  0  0
   27.5750   52.2690   -6.3620 C   0  0  0  0  0  0  0  0  0  0  0  0
   29.6050   49.6040   -4.7300 C   0  0  0  0  0  0  0  0  0  0  0  0
   30.3080   51.7010   -3.7620 N   0  0  0  0  0  0  0  0  0  0  0  0
   29.0610   53.8410   -4.4850 C   0  0  0  0  0  0  0  0  0  0  0  0
   27.3030   53.5660   -6.1500 C   0  0  0  0  0  0  0  0  0  0  0  0
   29.7790   54.5880   -3.8100 O   0  0  0  0  0  0  0  0  0  0  0  0
   30.3640   50.3120   -3.8570 C   0  0  0  0  0  0  0  0  0  0  0  0
   28.1480   54.3450   -5.3900 N   0  0  0  0  0  0  0  0  0  0  0  0
  1  2  1  0
  2  3  2  0
  4  2  1  6
  4  5  1  0
  4  6  1  0
  4  7  1  0
  5  8  1  0
  6  9  1  6
  6 10  1  0
  7 11  2  0
 10 12  2  0
  8 13  2  0
  9 13  1  0
 10 14  1  0
 11 14  1  0
M  END
