mac-x0379-mac-x0436
     RDKit          3D

 26 28  0  0  0  0  0  0  0  0999 V2000
   29.5460   52.7150   -4.4780 C   0  0  0  0  0  0  0  0  0  0  0  0
   29.9860   51.3750   -4.0020 C   0  0  0  0  0  0  0  0  0  0  0  0
   30.5760   51.1530   -2.8480 N   0  0  0  0  0  0  0  0  0  0  0  0
   29.7330   49.9850   -4.9820 S   0  0  0  0  0  0  0  0  0  0  0  0
   30.8490   49.8050   -2.7230 C   0  0  0  0  0  0  0  0  0  0  0  0
   30.4660   49.0060   -3.7800 C   0  0  0  0  0  0  0  0  0  0  0  0
   30.6050   47.5900   -3.9590 C   0  0  0  0  0  0  0  0  0  0  0  0
   31.6260   46.8600   -4.2270 N   0  0  0  0  0  0  0  0  0  0  0  0
   29.4330   46.9400   -3.8110 O   0  0  0  0  0  0  0  0  0  0  0  0
   31.5270   45.4070   -4.3660 C   0  0  0  0  0  0  0  0  0  0  0  0
   32.8850   44.7730   -4.7160 C   0  0  1  0  0  0  0  0  0  0  0  0
   33.0280   44.6210   -6.2420 C   0  0  0  0  0  0  0  0  0  0  0  0
   34.0280   45.5950   -4.1180 C   0  0  0  0  0  0  0  0  0  0  0  0
   32.3790   43.3530   -6.7450 C   0  0  0  0  0  0  0  0  0  0  0  0
   34.6850   46.6760   -4.9960 C   0  0  0  0  0  0  0  0  0  0  0  0
   34.4220   45.3580   -2.8940 N   0  0  0  0  0  0  0  0  0  0  0  0
   32.0650   43.4290   -8.0540 O   0  0  0  0  0  0  0  0  0  0  0  0
   32.1370   42.3410   -6.1090 O   0  0  0  0  0  0  0  0  0  0  0  0
   34.4540   46.7750   -6.1950 O   0  0  0  0  0  0  0  0  0  0  0  0
   35.5500   47.5180   -4.3420 N   0  0  0  0  0  0  0  0  0  0  0  0
   35.4790   46.1260   -2.3750 C   0  0  0  0  0  0  0  0  0  0  0  0
   36.0490   47.1970   -3.0790 C   0  0  0  0  0  0  0  0  0  0  0  0
   35.9830   45.8090   -1.1130 C   0  0  0  0  0  0  0  0  0  0  0  0
   37.0350   46.5480   -0.5620 C   0  0  0  0  0  0  0  0  0  0  0  0
   37.0990   47.9410   -2.5380 C   0  0  0  0  0  0  0  0  0  0  0  0
   37.5900   47.6130   -1.2750 C   0  0  0  0  0  0  0  0  0  0  0  0
  1  2  1  0
  2  3  2  0
  2  4  1  0
  3  5  1  0
  4  6  1  0
  5  6  2  0
  6  7  1  0
  7  8  2  3
  7  9  1  0
  8 10  1  0
 11 10  1  6
 11 12  1  0
 11 13  1  0
 12 14  1  0
 13 15  1  0
 13 16  2  0
 14 17  1  0
 14 18  2  0
 15 19  2  0
 15 20  1  0
 16 21  1  0
 20 22  1  0
 21 22  2  0
 21 23  1  0
 23 24  2  0
 22 25  1  0
 24 26  1  0
 25 26  2  0
M  END
