mac-x0387-mac-x0398
     RDKit          3D

 21 23  0  0  0  0  0  0  0  0999 V2000
   27.7630   50.0780   -8.1810 N   0  0  0  0  0  0  0  0  0  0  0  0
   28.2940   48.7990   -7.9470 C   0  0  0  0  0  0  0  0  0  0  0  0
   28.0820   47.8870   -8.9100 N   0  0  0  0  0  0  0  0  0  0  0  0
   29.0050   48.5070   -6.7610 C   0  0  0  0  0  0  0  0  0  0  0  0
   29.5090   47.2050   -6.5860 C   0  0  0  0  0  0  0  0  0  0  0  0
   28.5760   46.6490   -8.7150 C   0  0  0  0  0  0  0  0  0  0  0  0
   29.2350   49.4490   -5.7520 C   0  0  0  0  0  0  0  0  0  0  0  0
   29.2850   46.2620   -7.5890 C   0  0  0  0  0  0  0  0  0  0  0  0
   30.2240   46.8780   -5.4150 C   0  0  0  0  0  0  0  0  0  0  0  0
   29.9460   49.1250   -4.5980 C   0  0  0  0  0  0  0  0  0  0  0  0
   30.4450   47.8370   -4.4190 C   0  0  0  0  0  0  0  0  0  0  0  0
   30.1540   50.1820   -3.5900 C   0  0  0  0  0  0  0  0  0  0  0  0
   30.5350   49.9320   -2.4490 O   0  0  0  0  0  0  0  0  0  0  0  0
   29.8730   51.5660   -4.0260 C   0  0  0  0  0  0  0  0  0  0  0  0
   29.3600   52.5690   -3.2090 C   0  0  0  0  0  0  0  0  0  0  0  0
   30.1500   51.8380   -5.3690 C   0  0  0  0  0  0  0  0  0  0  0  0
   29.0840   52.3260   -1.8950 O   0  0  0  0  0  0  0  0  0  0  0  0
   29.1220   53.8450   -3.7440 C   0  0  0  0  0  0  0  0  0  0  0  0
   29.9100   53.1060   -5.8980 C   0  0  0  0  0  0  0  0  0  0  0  0
   29.3950   54.1160   -5.0900 C   0  0  0  0  0  0  0  0  0  0  0  0
   29.1530   55.3850   -5.6250 N   0  0  0  0  0  0  0  0  0  0  0  0
  1  2  1  0
  2  3  2  0
  2  4  1  0
  4  5  2  0
  3  6  1  0
  4  7  1  0
  5  8  1  0
  6  8  2  0
  5  9  1  0
  7 10  2  0
  9 11  2  0
 10 11  1  0
 10 12  1  0
 12 13  2  0
 12 14  1  0
 14 15  2  0
 14 16  1  0
 15 17  1  0
 15 18  1  0
 16 19  2  0
 18 20  2  0
 19 20  1  0
 20 21  1  0
M  END
