mac-x0231-mac-x0142
     RDKit          3D

 25 29  0  0  0  0  0  0  0  0999 V2000
   34.4020   42.8790   -5.4140 O   0  0  0  0  0  0  0  0  0  0  0  0
   33.0630   42.9130   -5.2610 C   0  0  0  0  0  0  0  0  0  0  0  0
   32.3360   42.5140   -6.1540 O   0  0  0  0  0  0  0  0  0  0  0  0
   32.6570   43.4670   -3.9230 C   0  0  0  0  0  0  0  0  0  0  0  0
   31.3950   44.3050   -3.9700 C   0  0  0  0  0  0  0  0  0  0  0  0
   31.4490   45.7740   -4.3440 C   0  0  0  0  0  0  0  0  0  0  0  0
   30.3140   43.6550   -3.6600 N   0  0  0  0  0  0  0  0  0  0  0  0
   30.2230   46.3600   -4.5150 C   0  0  0  0  0  0  0  0  0  0  0  0
   29.1620   44.3520   -3.6810 N   0  0  0  0  0  0  0  0  0  0  0  0
   32.6800   46.6120   -4.5350 C   0  0  0  0  0  0  0  0  0  0  0  0
   28.9880   45.5390   -4.3290 C   0  0  0  0  0  0  0  0  0  0  0  0
   30.0940   47.8670   -4.8990 C   0  0  1  0  0  0  0  0  0  0  0  0
   32.4760   48.0090   -4.1130 C   0  0  0  0  0  0  0  0  0  0  0  0
   34.0900   46.1500   -4.8100 C   0  0  0  0  0  0  0  0  0  0  0  0
   33.2290   46.5170   -5.9660 C   0  0  0  0  0  0  0  0  0  0  0  0
   27.8740   45.8710   -4.7230 O   0  0  0  0  0  0  0  0  0  0  0  0
   31.2900   48.6110   -4.2740 C   0  0  0  0  0  0  0  0  0  0  0  0
   30.3460   47.9710   -6.3560 N   0  0  0  0  0  0  0  0  0  0  0  0
   28.7340   48.4840   -4.4040 C   0  0  2  0  0  0  0  0  0  0  0  0
   29.1530   48.1040   -7.1420 C   0  0  0  0  0  0  0  0  0  0  0  0
   28.0170   49.3770   -5.4900 C   0  0  2  0  0  0  0  0  0  0  0  0
   28.7840   49.4260   -3.2000 C   0  0  0  0  0  0  0  0  0  0  0  0
   28.6160   49.3920   -6.8130 N   0  0  0  0  0  0  0  0  0  0  0  0
   27.8950   50.6840   -4.8310 N   0  0  0  0  0  0  0  0  0  0  0  0
   28.3000   50.6240   -3.5260 C   0  0  0  0  0  0  0  0  0  0  0  0
  1  2  1  0
  2  3  2  0
  2  4  1  0
  4  5  1  0
  5  6  1  0
  5  7  2  0
  6  8  2  0
  7  9  1  0
  6 10  1  0
  8 11  1  0
  9 11  1  0
  8 12  1  0
 10 13  1  0
 10 14  1  0
 10 15  1  0
 14 15  1  0
 11 16  2  0
 12 17  1  1
 13 17  2  0
 12 18  1  0
 12 19  1  0
 18 20  1  0
 19 21  1  0
 19 22  1  1
 20 23  1  0
 21 23  1  6
 21 24  1  0
 22 25  2  0
 24 25  1  0
M  END
