mac-x0385-mac-x0398
     RDKit          3D

 19 20  0  0  0  0  0  0  0  0999 V2000
   28.6810   50.7090   -3.3430 C   0  0  0  0  0  0  0  0  0  0  0  0
   28.2830   49.4910   -4.1350 C   0  0  0  0  0  0  0  0  0  0  0  0
   28.4770   48.2270   -3.6010 C   0  0  0  0  0  0  0  0  0  0  0  0
   29.5030   51.7270   -4.1090 C   0  0  0  0  0  0  0  0  0  0  0  0
   27.7150   49.5120   -5.4010 C   0  0  0  0  0  0  0  0  0  0  0  0
   28.8100   52.6550   -4.9160 C   0  0  0  0  0  0  0  0  0  0  0  0
   30.9130   51.8010   -4.0650 C   0  0  0  0  0  0  0  0  0  0  0  0
   27.4490   50.7010   -6.0840 N   0  0  0  0  0  0  0  0  0  0  0  0
   31.7390   50.8720   -3.2430 C   0  0  0  0  0  0  0  0  0  0  0  0
   27.3820   48.3870   -6.0540 N   0  0  0  0  0  0  0  0  0  0  0  0
   28.1580   47.0800   -4.2270 N   0  0  0  0  0  0  0  0  0  0  0  0
   29.4770   53.6300   -5.6640 C   0  0  0  0  0  0  0  0  0  0  0  0
   31.5780   52.7790   -4.8170 C   0  0  0  0  0  0  0  0  0  0  0  0
   28.7590   54.5350   -6.4530 N   0  0  0  0  0  0  0  0  0  0  0  0
   31.7180   50.7730   -2.0310 O   0  0  0  0  0  0  0  0  0  0  0  0
   32.5600   50.1170   -3.9990 O   0  0  0  0  0  0  0  0  0  0  0  0
   27.6150   47.2130   -5.4480 C   0  0  0  0  0  0  0  0  0  0  0  0
   30.8650   53.6830   -5.6080 C   0  0  0  0  0  0  0  0  0  0  0  0
   27.2470   45.9660   -6.1840 C   0  0  0  0  0  0  0  0  0  0  0  0
  1  2  1  0
  2  3  2  0
  1  4  1  0
  2  5  1  0
  4  6  2  0
  4  7  1  0
  5  8  1  0
  7  9  1  0
  5 10  2  0
  3 11  1  0
  6 12  1  0
  7 13  2  0
 12 14  1  0
  9 15  2  0
  9 16  1  0
 10 17  1  0
 11 17  2  0
 12 18  2  0
 13 18  1  0
 17 19  1  0
M  END
