mac-x0346-mac-x0472
     RDKit          3D

 20 22  0  0  0  0  0  0  0  0999 V2000
   28.5830   55.8830   -4.4630 O   0  0  0  0  0  0  0  0  0  0  0  0
   28.0880   54.6190   -4.8550 N   0  0  0  0  0  0  0  0  0  0  0  0
   28.4390   53.5550   -4.0570 C   0  0  0  0  0  0  0  0  0  0  0  0
   28.8410   53.7150   -2.9060 O   0  0  0  0  0  0  0  0  0  0  0  0
   28.3110   52.1990   -4.6320 C   0  0  0  0  0  0  0  0  0  0  0  0
   29.4080   51.3300   -4.8890 C   0  0  0  0  0  0  0  0  0  0  0  0
   27.0340   51.6830   -4.9690 C   0  0  0  0  0  0  0  0  0  0  0  0
   30.7570   51.5570   -4.6660 N   0  0  0  0  0  0  0  0  0  0  0  0
   29.1230   49.9350   -5.4960 C   0  0  0  0  0  0  0  0  0  0  0  0
   26.8150   50.3920   -5.5270 C   0  0  0  0  0  0  0  0  0  0  0  0
   31.4670   50.1720   -5.1760 S   0  0  0  0  0  0  0  0  0  0  0  0
   30.2690   49.1690   -5.7060 N   0  0  0  0  0  0  0  0  0  0  0  0
   27.8430   49.4740   -5.8110 C   0  0  0  0  0  0  0  0  0  0  0  0
   29.9830   50.8740   -5.0230 O   0  0  0  0  0  0  0  0  0  0  0  0
   33.2350   50.2620   -4.9710 C   0  0  0  0  0  0  0  0  0  0  0  0
   34.0030   49.1060   -5.1010 C   0  0  0  0  0  0  0  0  0  0  0  0
   33.8330   51.4910   -4.6800 C   0  0  0  0  0  0  0  0  0  0  0  0
   35.3900   49.1800   -4.9380 C   0  0  0  0  0  0  0  0  0  0  0  0
   35.2180   51.5590   -4.5180 C   0  0  0  0  0  0  0  0  0  0  0  0
   35.9930   50.4040   -4.6480 C   0  0  0  0  0  0  0  0  0  0  0  0
  1  2  1  0
  2  3  1  0
  3  4  2  0
  3  5  1  0
  5  6  2  0
  5  7  1  0
  6  8  1  0
  6  9  1  0
  7 10  2  0
  8 11  2  0
  9 12  1  0
 11 12  1  0
  9 13  2  0
 10 13  1  0
 11 14  2  0
 11 15  1  0
 15 16  2  0
 15 17  1  0
 16 18  1  0
 17 19  2  0
 18 20  2  0
 19 20  1  0
M  END
