mac-x0397-mac-x0163
     RDKit          3D

 28 32  0  0  0  0  0  0  0  0999 V2000
   28.8880   52.8860   -2.1080 Cl  0  0  0  0  0  0  0  0  0  0  0  0
   29.1520   52.0200   -3.5580 C   0  0  0  0  0  0  0  0  0  0  0  0
   29.3480   52.7880   -4.7250 C   0  0  0  0  0  0  0  0  0  0  0  0
   29.1690   50.6240   -3.5820 C   0  0  0  0  0  0  0  0  0  0  0  0
   29.3540   54.1740   -4.8580 N   0  0  0  0  0  0  0  0  0  0  0  0
   29.5620   52.0910   -5.9150 C   0  0  0  0  0  0  0  0  0  0  0  0
   29.3860   49.9480   -4.7850 C   0  0  0  0  0  0  0  0  0  0  0  0
   29.4070   48.4340   -4.8400 C   0  0  0  0  0  0  0  0  0  0  0  0
   29.5650   54.5120   -6.1040 C   0  0  0  0  0  0  0  0  0  0  0  0
   29.7730   53.2150   -7.2020 S   0  0  0  0  0  0  0  0  0  0  0  0
   29.5860   50.6850   -5.9670 C   0  0  0  0  0  0  0  0  0  0  0  0
   29.6190   55.7910   -6.5130 N   0  0  0  0  0  0  0  0  0  0  0  0
   29.1730   47.8240   -6.1990 C   0  0  0  0  0  0  0  0  0  0  0  0
   28.2640   48.3510   -7.1140 C   0  0  0  0  0  0  0  0  0  0  0  0
   29.8570   46.6850   -6.6300 C   0  0  0  0  0  0  0  0  0  0  0  0
   27.4960   49.4850   -6.8420 N   0  0  0  0  0  0  0  0  0  0  0  0
   29.6510   46.1400   -7.8440 N   0  0  0  0  0  0  0  0  0  0  0  0
   28.0440   47.8260   -8.3250 N   0  0  0  0  0  0  0  0  0  0  0  0
   30.8110   46.0560   -5.7740 N   0  0  0  0  0  0  0  0  0  0  0  0
   28.7550   46.7400   -8.6280 C   0  0  0  0  0  0  0  0  0  0  0  0
   32.0450   46.8770   -5.7240 C   0  0  0  0  0  0  0  0  0  0  0  0
   30.3920   45.4610   -4.5080 C   0  0  0  0  0  0  0  0  0  0  0  0
   33.1170   46.2740   -4.8170 C   0  0  0  0  0  0  0  0  0  0  0  0
   30.3700   43.8980   -4.5670 C   0  0  0  0  0  0  0  0  0  0  0  0
   28.8300   45.3650   -4.4370 C   0  0  0  0  0  0  0  0  0  0  0  0
   31.0900   46.0600   -3.2800 C   0  0  0  0  0  0  0  0  0  0  0  0
   32.6160   46.0860   -3.3920 C   0  0  0  0  0  0  0  0  0  0  0  0
   28.9970   43.9420   -3.8750 C   0  0  0  0  0  0  0  0  0  0  0  0
  1  2  1  0
  2  3  2  0
  2  4  1  0
  3  5  1  0
  3  6  1  0
  4  7  2  0
  7  8  1  0
  5  9  2  0
  6 10  1  0
  9 10  1  0
  6 11  2  0
  7 11  1  0
  9 12  1  0
  8 13  1  0
 13 14  2  0
 13 15  1  0
 14 16  1  0
 15 17  2  0
 14 18  1  0
 15 19  1  0
 17 20  1  0
 18 20  2  0
 19 21  1  0
 22 19  1  0
 21 23  1  0
 22 24  1  0
 22 25  1  0
 22 26  1  0
 23 27  1  0
 26 27  1  0
 24 28  1  0
 25 28  1  0
M  END
