mac-x0348-mac-x0380
     RDKit          3D

 30 33  0  0  0  0  0  0  0  0999 V2000
   27.5550   44.2570   -0.8750 C   0  0  0  0  0  0  0  0  0  0  0  0
   28.4850   45.1950   -1.4670 N   0  0  0  0  0  0  0  0  0  0  0  0
   28.9810   45.1010   -2.7420 C   0  0  0  0  0  0  0  0  0  0  0  0
   28.9980   46.3070   -0.8330 C   0  0  0  0  0  0  0  0  0  0  0  0
   29.8350   46.1720   -2.9520 C   0  0  0  0  0  0  0  0  0  0  0  0
   29.8490   46.9340   -1.7460 C   0  0  0  0  0  0  0  0  0  0  0  0
   28.7960   46.8260    0.4570 C   0  0  0  0  0  0  0  0  0  0  0  0
   30.6190   46.5270   -4.1870 C   0  0  1  0  0  0  0  0  0  0  0  0
   30.5190   48.1120   -1.3610 C   0  0  0  0  0  0  0  0  0  0  0  0
   29.4720   47.9970    0.8130 C   0  0  0  0  0  0  0  0  0  0  0  0
   31.4610   45.3720   -4.7430 C   0  0  0  0  0  0  0  0  0  0  0  0
   29.6700   47.1390   -5.2270 C   0  0  0  0  0  0  0  0  0  0  0  0
   30.3240   48.6350   -0.0820 C   0  0  0  0  0  0  0  0  0  0  0  0
   32.1900   45.7630   -5.9990 C   0  0  0  0  0  0  0  0  0  0  0  0
   29.9110   48.5500   -5.2760 O   0  0  0  0  0  0  0  0  0  0  0  0
   31.7480   45.6960   -7.1340 O   0  0  0  0  0  0  0  0  0  0  0  0
   33.4390   46.2200   -5.7800 O   0  0  0  0  0  0  0  0  0  0  0  0
   29.3770   49.2920   -4.2730 C   0  0  0  0  0  0  0  0  0  0  0  0
   29.2800   48.9880   -3.0970 O   0  0  0  0  0  0  0  0  0  0  0  0
   28.9180   50.5790   -4.8270 C   0  0  0  0  0  0  0  0  0  0  0  0
   29.0480   51.7930   -4.1420 C   0  0  0  0  0  0  0  0  0  0  0  0
   28.3360   50.5580   -6.0980 C   0  0  0  0  0  0  0  0  0  0  0  0
   28.6000   52.9780   -4.7300 C   0  0  0  0  0  0  0  0  0  0  0  0
   27.8880   51.7400   -6.6860 C   0  0  0  0  0  0  0  0  0  0  0  0
   28.0210   52.9510   -6.0030 C   0  0  0  0  0  0  0  0  0  0  0  0
   28.7810   54.5040   -3.8380 S   0  0  0  0  0  0  0  0  0  0  0  0
   27.5660   54.1220   -6.6190 N   0  0  0  0  0  0  0  0  0  0  0  0
   29.0440   55.5910   -5.2580 C   0  0  0  0  0  0  0  0  0  0  0  0
   28.0570   55.3810   -6.3870 C   0  0  0  0  0  0  0  0  0  0  0  0
   27.6860   56.3140   -7.1010 O   0  0  0  0  0  0  0  0  0  0  0  0
  1  2  1  0
  2  3  1  0
  2  4  1  0
  3  5  2  0
  4  6  2  0
  5  6  1  0
  4  7  1  0
  5  8  1  0
  6  9  1  0
  7 10  2  0
  8 11  1  6
  8 12  1  0
  9 13  2  0
 10 13  1  0
 11 14  1  0
 12 15  1  0
 14 16  2  0
 14 17  1  0
 15 18  1  0
 18 19  2  0
 18 20  1  0
 20 21  2  0
 20 22  1  0
 21 23  1  0
 22 24  2  0
 23 25  2  0
 24 25  1  0
 23 26  1  0
 25 27  1  0
 26 28  1  0
 27 29  1  0
 28 29  1  0
 29 30  2  0
M  END
