mac-x0546-mac-x0344
     RDKit          3D

 23 25  0  0  0  0  0  0  0  0999 V2000
   30.7590   49.7000   -0.4730 C   0  0  0  0  0  0  0  0  0  0  0  0
   29.7330   48.7860   -0.8400 O   0  0  0  0  0  0  0  0  0  0  0  0
   30.1170   47.5410   -1.2690 C   0  0  0  0  0  0  0  0  0  0  0  0
   31.0790   47.2420   -2.1720 C   0  0  0  0  0  0  0  0  0  0  0  0
   29.3520   46.4690   -0.6340 C   0  0  0  0  0  0  0  0  0  0  0  0
   31.3560   45.8130   -2.5110 C   0  0  1  0  0  0  0  0  0  0  0  0
   29.2760   45.2310   -1.1520 C   0  0  0  0  0  0  0  0  0  0  0  0
   30.0280   45.0800   -2.4030 C   0  0  0  0  0  0  0  0  0  0  0  0
   31.6580   45.3730   -3.9110 C   0  0  0  0  0  0  0  0  0  0  0  0
   32.8690   45.7450   -4.7180 C   0  0  2  0  0  0  0  0  0  0  0  0
   29.6560   44.3820   -3.4320 N   0  0  0  0  0  0  0  0  0  0  0  0
   30.6650   44.5750   -4.3390 C   0  0  0  0  0  0  0  0  0  0  0  0
   32.8360   45.2640   -6.2420 C   0  0  0  0  0  0  0  0  0  0  0  0
   34.1060   45.2410   -4.0880 N   0  0  0  0  0  0  0  0  0  0  0  0
   31.7760   45.8470   -6.9580 O   0  0  0  0  0  0  0  0  0  0  0  0
   34.0540   45.6030   -6.8790 O   0  0  0  0  0  0  0  0  0  0  0  0
   32.7390   43.8700   -6.3820 O   0  0  0  0  0  0  0  0  0  0  0  0
   34.9130   45.9910   -3.2340 C   0  0  0  0  0  0  0  0  0  0  0  0
   36.0470   45.4830   -2.5920 C   0  0  0  0  0  0  0  0  0  0  0  0
   34.5810   47.3340   -2.9980 C   0  0  0  0  0  0  0  0  0  0  0  0
   36.8220   46.2840   -1.7450 C   0  0  0  0  0  0  0  0  0  0  0  0
   35.3510   48.1390   -2.1530 C   0  0  0  0  0  0  0  0  0  0  0  0
   36.4730   47.6130   -1.5260 C   0  0  0  0  0  0  0  0  0  0  0  0
  1  2  1  0
  2  3  1  0
  3  4  2  0
  3  5  1  0
  6  4  1  6
  5  7  2  0
  6  8  1  0
  7  8  1  0
  6  9  1  0
  9 10  1  0
  8 11  2  0
  9 12  2  0
 11 12  1  0
 10 13  1  0
 10 14  1  1
 13 15  1  0
 13 16  1  0
 13 17  1  0
 14 18  1  0
 18 19  2  0
 18 20  1  0
 19 21  1  0
 20 22  2  0
 21 23  2  0
 22 23  1  0
M  END
