mac-x0417-mac-x0451
     RDKit          3D

 26 29  0  0  0  0  0  0  0  0999 V2000
   32.3420   44.6350   -6.3280 O   0  0  0  0  0  0  0  0  0  0  0  0
   33.0650   45.5810   -5.5760 C   0  0  0  0  0  0  0  0  0  0  0  0
   34.3900   45.5840   -6.0740 O   0  0  0  0  0  0  0  0  0  0  0  0
   33.0040   45.2450   -4.0630 C   0  0  0  0  0  0  0  0  0  0  0  0
   32.4430   46.9660   -5.7940 C   0  0  0  0  0  0  0  0  0  0  0  0
   30.9580   46.8690   -6.1450 C   0  0  0  0  0  0  0  0  0  0  0  0
   34.3140   45.0100   -3.3800 C   0  0  0  0  0  0  0  0  0  0  0  0
   30.1580   47.4920   -5.1430 O   0  0  0  0  0  0  0  0  0  0  0  0
   34.6500   43.7770   -2.9700 N   0  0  0  0  0  0  0  0  0  0  0  0
   35.3380   45.9470   -3.0730 C   0  0  0  0  0  0  0  0  0  0  0  0
   35.9010   43.8940   -2.3860 O   0  0  0  0  0  0  0  0  0  0  0  0
   36.3110   45.1880   -2.4490 C   0  0  0  0  0  0  0  0  0  0  0  0
   35.5630   47.3260   -3.2400 C   0  0  0  0  0  0  0  0  0  0  0  0
   29.9840   48.8370   -5.2390 C   0  0  0  0  0  0  0  0  0  0  0  0
   37.5160   45.6940   -1.9640 C   0  0  0  0  0  0  0  0  0  0  0  0
   36.7660   47.8690   -2.7640 C   0  0  0  0  0  0  0  0  0  0  0  0
   30.1370   49.7630   -4.2150 C   0  0  0  0  0  0  0  0  0  0  0  0
   29.6190   49.2550   -6.5240 C   0  0  0  0  0  0  0  0  0  0  0  0
   37.7240   47.0670   -2.1400 C   0  0  0  0  0  0  0  0  0  0  0  0
   29.4130   50.6190   -6.7570 C   0  0  0  0  0  0  0  0  0  0  0  0
   29.9280   51.1260   -4.4570 C   0  0  0  0  0  0  0  0  0  0  0  0
   29.5610   51.5670   -5.7450 C   0  0  0  0  0  0  0  0  0  0  0  0
   28.9640   51.4240   -8.2110 S   0  0  0  0  0  0  0  0  0  0  0  0
   29.0050   52.9270   -7.3890 C   0  0  0  0  0  0  0  0  0  0  0  0
   29.3240   52.8760   -6.1210 N   0  0  0  0  0  0  0  0  0  0  0  0
   28.7200   54.0780   -8.0260 N   0  0  0  0  0  0  0  0  0  0  0  0
  2  1  1  0
  2  3  1  0
  2  4  1  0
  2  5  1  0
  5  6  1  0
  4  7  1  0
  6  8  1  0
  7  9  2  0
  7 10  1  0
  9 11  1  0
 10 12  2  0
 11 12  1  0
 10 13  1  0
  8 14  1  0
 12 15  1  0
 13 16  2  0
 14 17  2  0
 14 18  1  0
 15 19  2  0
 16 19  1  0
 18 20  2  0
 17 21  1  0
 20 22  1  0
 21 22  2  0
 20 23  1  0
 23 24  1  0
 22 25  1  0
 24 25  2  0
 24 26  1  0
M  END
