mac-x0228-mac-x0379
     RDKit          3D

 13 14  0  0  0  0  0  0  0  0999 V2000
   29.6300   47.7950   -5.4190 O   0  0  0  0  0  0  0  0  0  0  0  0
   30.2820   48.3250   -4.3700 C   0  0  0  0  0  0  0  0  0  0  0  0
   30.9570   47.6270   -3.6320 O   0  0  0  0  0  0  0  0  0  0  0  0
   30.0820   49.7920   -4.2330 C   0  0  0  0  0  0  0  0  0  0  0  0
   29.7240   50.6430   -5.3060 C   0  0  0  0  0  0  0  0  0  0  0  0
   30.2730   50.3110   -2.9330 C   0  0  0  0  0  0  0  0  0  0  0  0
   29.5090   50.1490   -6.7060 C   0  0  0  0  0  0  0  0  0  0  0  0
   29.5740   52.0010   -5.0090 C   0  0  0  0  0  0  0  0  0  0  0  0
   30.1140   51.6740   -2.6700 C   0  0  0  0  0  0  0  0  0  0  0  0
   29.7660   52.4900   -3.7230 C   0  0  0  0  0  0  0  0  0  0  0  0
   29.2090   53.1390   -5.8920 C   0  0  0  0  0  0  0  0  0  0  0  0
   29.5780   53.8440   -3.6060 O   0  0  0  0  0  0  0  0  0  0  0  0
   29.5870   54.3020   -4.9770 C   0  0  0  0  0  0  0  0  0  0  0  0
  1  2  1  0
  2  3  2  0
  2  4  1  0
  4  5  2  0
  4  6  1  0
  5  7  1  0
  5  8  1  0
  6  9  2  0
  8 10  2  0
  9 10  1  0
  8 11  1  0
 10 12  1  0
 11 13  1  0
 12 13  1  0
M  END
