mac-x0188-mac-x0433
     RDKit          3D

 23 25  0  0  0  0  0  0  0  0999 V2000
   33.0620   44.4510   -4.1070 C   0  0  0  0  0  0  0  0  0  0  0  0
   32.1980   45.6360   -3.9550 C   0  0  0  0  0  0  0  0  0  0  0  0
   32.3930   46.3680   -2.8280 O   0  0  0  0  0  0  0  0  0  0  0  0
   31.1990   46.2100   -4.7120 C   0  0  0  0  0  0  0  0  0  0  0  0
   30.6920   45.7460   -5.9790 C   0  0  0  0  0  0  0  0  0  0  0  0
   31.5270   47.4350   -2.8170 N   0  0  0  0  0  0  0  0  0  0  0  0
   30.8040   47.3450   -3.9500 C   0  0  0  0  0  0  0  0  0  0  0  0
   29.6480   45.1360   -6.1590 O   0  0  0  0  0  0  0  0  0  0  0  0
   31.4720   46.0320   -7.0450 O   0  0  0  0  0  0  0  0  0  0  0  0
   29.7830   48.3350   -4.2460 C   0  0  0  0  0  0  0  0  0  0  0  0
   28.5070   47.9550   -4.6590 C   0  0  0  0  0  0  0  0  0  0  0  0
   30.0610   49.6900   -4.1190 C   0  0  0  0  0  0  0  0  0  0  0  0
   27.5360   48.9150   -4.9410 C   0  0  0  0  0  0  0  0  0  0  0  0
   29.0950   50.6660   -4.3940 C   0  0  0  0  0  0  0  0  0  0  0  0
   27.8300   50.2620   -4.8090 C   0  0  0  0  0  0  0  0  0  0  0  0
   29.4370   52.0630   -4.2240 C   0  0  0  0  0  0  0  0  0  0  0  0
   29.8480   52.3160   -2.9790 N   0  0  0  0  0  0  0  0  0  0  0  0
   29.3590   53.0370   -5.1960 C   0  0  0  0  0  0  0  0  0  0  0  0
   30.1870   53.5500   -2.6860 C   0  0  0  0  0  0  0  0  0  0  0  0
   29.7340   54.3030   -4.7970 C   0  0  0  0  0  0  0  0  0  0  0  0
   29.6900   55.4480   -5.7620 C   0  0  0  0  0  0  0  0  0  0  0  0
   30.6060   53.7830   -1.3960 N   0  0  0  0  0  0  0  0  0  0  0  0
   30.1510   54.5720   -3.5400 N   0  0  0  0  0  0  0  0  0  0  0  0
  1  2  1  0
  2  3  1  0
  2  4  2  0
  4  5  1  0
  3  6  1  0
  4  7  1  0
  6  7  2  0
  5  8  2  0
  5  9  1  0
  7 10  1  0
 10 11  2  0
 10 12  1  0
 11 13  1  0
 12 14  2  0
 13 15  2  0
 14 15  1  0
 14 16  1  0
 16 17  2  0
 16 18  1  0
 17 19  1  0
 18 20  2  0
 20 21  1  0
 19 22  1  0
 19 23  2  0
 20 23  1  0
M  END
