mac-x0284-mac-x0379
     RDKit          3D

 11 11  0  0  0  0  0  0  0  0999 V2000
   28.3410   51.4010   -5.7070 C   0  0  0  0  0  0  0  0  0  0  0  0
   29.0650   50.3500   -4.9170 C   0  0  0  0  0  0  0  0  0  0  0  0
   29.5440   50.6370   -3.6330 C   0  0  0  0  0  0  0  0  0  0  0  0
   29.2650   49.0680   -5.4520 C   0  0  0  0  0  0  0  0  0  0  0  0
   29.9400   48.0860   -4.7090 C   0  0  0  0  0  0  0  0  0  0  0  0
   30.2170   49.6630   -2.8910 C   0  0  0  0  0  0  0  0  0  0  0  0
   30.1660   46.7270   -5.2550 C   0  0  0  0  0  0  0  0  0  0  0  0
   30.4170   48.3940   -3.4270 C   0  0  0  0  0  0  0  0  0  0  0  0
   31.0850   47.4950   -2.6380 O   0  0  0  0  0  0  0  0  0  0  0  0
   29.9510   46.4590   -6.4280 O   0  0  0  0  0  0  0  0  0  0  0  0
   30.6210   45.8260   -4.3630 O   0  0  0  0  0  0  0  0  0  0  0  0
  1  2  1  0
  2  3  2  0
  2  4  1  0
  4  5  2  0
  3  6  1  0
  5  7  1  0
  5  8  1  0
  6  8  2  0
  8  9  1  0
  7 10  2  0
  7 11  1  0
M  END
