mac-x0263-mac-x0116
     RDKit          3D

 30 34  0  0  0  0  0  0  0  0999 V2000
   28.4890   59.7420   -6.9500 O   0  0  0  0  0  0  0  0  0  0  0  0
   27.6260   58.7770   -6.5770 C   0  0  0  0  0  0  0  0  0  0  0  0
   26.4610   58.8130   -6.9430 O   0  0  0  0  0  0  0  0  0  0  0  0
   28.2750   57.7370   -5.7040 C   0  0  0  0  0  0  0  0  0  0  0  0
   28.7500   56.5050   -6.4850 C   0  0  0  0  0  0  0  0  0  0  0  0
   28.2390   55.2350   -5.8670 C   0  0  0  0  0  0  0  0  0  0  0  0
   27.4580   55.2400   -4.8040 N   0  0  0  0  0  0  0  0  0  0  0  0
   28.4890   53.9200   -6.2800 N   0  0  0  0  0  0  0  0  0  0  0  0
   29.3300   53.5090   -7.4280 C   0  0  2  0  0  0  0  0  0  0  0  0
   27.1860   53.9360   -4.5190 C   0  0  0  0  0  0  0  0  0  0  0  0
   27.8080   53.0830   -5.4200 C   0  0  0  0  0  0  0  0  0  0  0  0
   29.2950   52.0480   -7.7190 N   0  0  0  0  0  0  0  0  0  0  0  0
   26.3990   53.4090   -3.4860 C   0  0  0  0  0  0  0  0  0  0  0  0
   27.6650   51.6920   -5.3230 C   0  0  0  0  0  0  0  0  0  0  0  0
   30.6980   54.1350   -7.4470 C   0  0  0  0  0  0  0  0  0  0  0  0
   26.2520   52.0250   -3.3810 C   0  0  0  0  0  0  0  0  0  0  0  0
   26.8780   51.1810   -4.2900 C   0  0  0  0  0  0  0  0  0  0  0  0
   31.5840   53.7260   -6.4850 O   0  0  0  0  0  0  0  0  0  0  0  0
   31.3060   55.0800   -8.2530 C   0  0  0  0  0  0  0  0  0  0  0  0
   29.7090   50.9940   -6.8920 C   0  0  0  0  0  0  0  0  0  0  0  0
   32.6210   55.2510   -7.7570 C   0  0  0  0  0  0  0  0  0  0  0  0
   32.7390   54.4040   -6.6830 C   0  0  0  0  0  0  0  0  0  0  0  0
   30.2920   51.1430   -5.6460 N   0  0  0  0  0  0  0  0  0  0  0  0
   29.5510   49.7140   -7.2910 C   0  0  0  0  0  0  0  0  0  0  0  0
   30.6720   50.0700   -4.8770 C   0  0  0  0  0  0  0  0  0  0  0  0
   29.9820   48.6170   -6.4190 C   0  0  0  0  0  0  0  0  0  0  0  0
   29.0300   49.1540   -8.4280 N   0  0  0  0  0  0  0  0  0  0  0  0
   30.5470   48.8210   -5.1950 N   0  0  0  0  0  0  0  0  0  0  0  0
   29.7400   47.4820   -6.9980 N   0  0  0  0  0  0  0  0  0  0  0  0
   29.1660   47.8740   -8.2010 C   0  0  0  0  0  0  0  0  0  0  0  0
  1  2  1  0
  2  3  2  0
  2  4  1  0
  4  5  1  0
  5  6  1  0
  6  7  2  0
  6  8  1  0
  8  9  1  0
  7 10  1  0
  8 11  1  0
 10 11  2  0
  9 12  1  1
 10 13  1  0
 11 14  1  0
  9 15  1  0
 13 16  2  0
 14 17  2  0
 16 17  1  0
 15 18  1  0
 15 19  2  0
 12 20  1  0
 19 21  1  0
 18 22  1  0
 21 22  2  0
 20 23  1  0
 20 24  2  0
 23 25  1  0
 24 26  1  0
 24 27  1  0
 25 28  2  0
 26 28  1  0
 26 29  2  0
 27 30  2  0
 29 30  1  0
M  END
