mac-x0564-mac-x0303
     RDKit          3D

 21 24  0  0  0  0  0  0  0  0999 V2000
   30.3770   46.5810   -7.0110 O   0  0  0  0  0  0  0  0  0  0  0  0
   30.3390   46.8210   -5.8070 C   0  0  0  0  0  0  0  0  0  0  0  0
   30.8740   45.9030   -4.9180 N   0  0  0  0  0  0  0  0  0  0  0  0
   29.7170   48.0750   -5.1860 C   0  0  1  0  0  0  0  0  0  0  0  0
   30.5060   48.4230   -3.9550 C   0  0  2  0  0  0  0  0  0  0  0  0
   31.3050   46.1880   -3.5680 C   0  0  0  0  0  0  0  0  0  0  0  0
   29.6470   49.3200   -5.9430 O   0  0  0  0  0  0  0  0  0  0  0  0
   30.6230   47.3310   -3.0000 N   0  0  0  0  0  0  0  0  0  0  0  0
   29.9450   50.3900   -4.9910 C   0  0  2  0  0  0  0  0  0  0  0  0
   29.7480   49.6950   -3.6410 C   0  0  2  0  0  0  0  0  0  0  0  0
   30.2090   50.5440   -2.5200 C   0  0  0  0  0  0  0  0  0  0  0  0
   29.0640   51.6760   -5.0380 C   0  0  1  0  0  0  0  0  0  0  0  0
   29.8320   51.8140   -2.5240 C   0  0  0  0  0  0  0  0  0  0  0  0
   28.9650   52.3680   -3.6200 C   0  0  1  0  0  0  0  0  0  0  0  0
   29.4240   52.8180   -5.9330 N   0  0  0  0  0  0  0  0  0  0  0  0
   28.8060   53.9740   -5.2310 C   0  0  1  0  0  0  0  0  0  0  0  0
   29.2820   53.7620   -3.8600 N   0  0  0  0  0  0  0  0  0  0  0  0
   29.1050   55.7850   -5.8590 S   0  0  0  0  0  0  0  0  0  0  0  0
   30.5020   55.7060   -6.7970 N   0  0  0  0  0  0  0  0  0  0  0  0
   28.0530   56.1390   -6.7830 O   0  0  0  0  0  0  0  0  0  0  0  0
   29.4410   56.6580   -4.7540 O   0  0  0  0  0  0  0  0  0  0  0  0
  1  2  2  0
  2  3  1  0
  2  4  1  0
  4  5  1  0
  3  6  1  0
  4  7  1  6
  5  8  1  1
  6  8  1  0
  9  7  1  6
  5 10  1  0
  9 10  1  0
 10 11  1  1
  9 12  1  0
 11 13  2  0
 12 14  1  0
 14 13  1  1
 12 15  1  6
 15 16  1  0
 14 17  1  0
 16 17  1  0
 16 18  1  6
 18 19  1  0
 18 20  2  0
 18 21  2  0
M  END
