mac-x0587-mac-x0584
     RDKit          3D

 28 31  0  0  0  0  0  0  0  0999 V2000
   32.0730   46.9960   -2.3570 C   0  0  0  0  0  0  0  0  0  0  0  0
   31.9710   47.7090   -3.7040 C   0  0  2  0  0  0  0  0  0  0  0  0
   33.6370   48.3340   -4.1990 S   0  0  0  0  0  0  0  0  0  0  0  0
   31.0150   48.9100   -3.6080 C   0  0  0  0  0  0  0  0  0  0  0  0
   33.5290   48.0620   -6.0030 C   0  0  0  0  0  0  0  0  0  0  0  0
   30.8800   49.5330   -2.5450 O   0  0  0  0  0  0  0  0  0  0  0  0
   30.3230   49.2800   -4.7470 N   0  0  0  0  0  0  0  0  0  0  0  0
   34.7170   47.2790   -6.5450 C   0  0  0  0  0  0  0  0  0  0  0  0
   30.5440   50.5070   -5.3600 C   0  0  0  0  0  0  0  0  0  0  0  0
   28.9930   48.8130   -5.2060 C   0  0  1  0  0  0  0  0  0  0  0  0
   35.7560   47.1040   -5.9140 O   0  0  0  0  0  0  0  0  0  0  0  0
   34.5480   46.7800   -7.7940 O   0  0  0  0  0  0  0  0  0  0  0  0
   27.9540   49.4410   -4.4870 O   0  0  0  0  0  0  0  0  0  0  0  0
   29.7530   50.6230   -6.4320 C   0  0  0  0  0  0  0  0  0  0  0  0
   28.9950   49.4770   -6.5570 N   0  0  0  0  0  0  0  0  0  0  0  0
   28.8080   47.1980   -5.3600 C   0  0  2  0  0  0  0  0  0  0  0  0
   29.4880   46.3920   -4.3480 N   0  0  0  0  0  0  0  0  0  0  0  0
   29.1050   46.6670   -6.7080 N   0  0  0  0  0  0  0  0  0  0  0  0
   28.9720   48.7680   -7.7880 N   0  0  0  0  0  0  0  0  0  0  0  0
   29.7620   44.9690   -4.6390 C   0  0  1  0  0  0  0  0  0  0  0  0
   29.1370   46.6030   -2.9380 C   0  0  0  0  0  0  0  0  0  0  0  0
   28.3560   47.4460   -7.6750 C   0  0  0  0  0  0  0  0  0  0  0  0
   31.2220   44.5100   -4.4520 C   0  0  0  0  0  0  0  0  0  0  0  0
   28.8290   44.3210   -3.6140 C   0  0  0  0  0  0  0  0  0  0  0  0
   28.9650   45.2030   -2.3810 C   0  0  0  0  0  0  0  0  0  0  0  0
   31.6010   43.1320   -5.1010 C   0  0  0  0  0  0  0  0  0  0  0  0
   32.3090   45.1100   -5.4110 C   0  0  0  0  0  0  0  0  0  0  0  0
   32.9850   43.7240   -5.4380 C   0  0  0  0  0  0  0  0  0  0  0  0
  2  1  1  1
  2  3  1  0
  2  4  1  0
  3  5  1  0
  4  6  2  0
  4  7  1  0
  5  8  1  0
  7  9  1  0
  7 10  1  0
  8 11  2  0
  8 12  1  0
 10 13  1  1
  9 14  2  0
 10 15  1  0
 14 15  1  0
 10 16  1  0
 16 17  1  1
 16 18  1  0
 15 19  1  0
 17 20  1  0
 17 21  1  0
 18 22  1  0
 19 22  1  0
 20 23  1  1
 20 24  1  0
 21 25  1  0
 24 25  1  0
 23 26  1  0
 23 27  1  0
 26 28  1  0
 27 28  1  0
M  END
