mac-x0271-mac-x0282
     RDKit          3D

 17 19  0  0  0  0  0  0  0  0999 V2000
   30.7700   49.3670   -3.7090 O   0  0  0  0  0  0  0  0  0  0  0  0
   29.7170   50.2490   -4.0950 C   0  0  2  0  0  0  0  0  0  0  0  0
   29.2100   50.0260   -5.5820 C   0  0  2  0  0  0  0  0  0  0  0  0
   30.1300   51.6760   -3.6750 C   0  0  0  0  0  0  0  0  0  0  0  0
   29.5450   52.7850   -4.4920 C   0  0  0  0  0  0  0  0  0  0  0  0
   28.2430   51.1920   -5.9460 C   0  0  0  0  0  0  0  0  0  0  0  0
   28.5570   48.6220   -5.5860 C   0  0  0  0  0  0  0  0  0  0  0  0
   30.2600   49.9560   -6.7360 C   0  0  0  0  0  0  0  0  0  0  0  0
   28.7080   52.5790   -5.5180 C   0  0  0  0  0  0  0  0  0  0  0  0
   29.9520   54.0880   -4.0930 O   0  0  0  0  0  0  0  0  0  0  0  0
   28.6210   47.7560   -6.6300 C   0  0  0  0  0  0  0  0  0  0  0  0
   29.6270   49.4920   -8.0010 N   0  0  0  0  0  0  0  0  0  0  0  0
   28.2340   53.7430   -6.2380 C   0  0  0  0  0  0  0  0  0  0  0  0
   29.3130   55.1950   -4.5880 C   0  0  0  0  0  0  0  0  0  0  0  0
   29.3200   48.0640   -7.9110 C   0  0  0  0  0  0  0  0  0  0  0  0
   29.3780   56.3050   -4.0650 O   0  0  0  0  0  0  0  0  0  0  0  0
   28.5180   54.9810   -5.8070 C   0  0  0  0  0  0  0  0  0  0  0  0
  2  1  1  6
  2  3  1  0
  2  4  1  0
  4  5  1  0
  3  6  1  6
  3  7  1  0
  3  8  1  0
  5  9  2  0
  6  9  1  0
  5 10  1  0
  7 11  2  0
  8 12  1  0
  9 13  1  0
 10 14  1  0
 11 15  1  0
 12 15  1  0
 14 16  2  0
 13 17  2  0
 14 17  1  0
M  END
