mac-x0182-mac-x0361
     RDKit          3D

 23 25  0  0  0  0  0  0  0  0999 V2000
   34.5410   43.2350   -2.6780 O   0  0  0  0  0  0  0  0  0  0  0  0
   34.5980   44.3450   -3.1810 C   0  0  0  0  0  0  0  0  0  0  0  0
   33.7090   44.8460   -4.1010 N   0  0  0  0  0  0  0  0  0  0  0  0
   35.6610   45.3310   -2.8640 C   0  0  0  0  0  0  0  0  0  0  0  0
   34.0020   46.4700   -4.4150 S   0  0  2  0  0  0  0  0  0  0  0  0
   35.4600   46.5570   -3.4810 C   0  0  0  0  0  0  0  0  0  0  0  0
   36.7640   45.1290   -2.0510 C   0  0  0  0  0  0  0  0  0  0  0  0
   32.8850   47.1910   -3.6770 N   0  0  0  0  0  0  0  0  0  0  0  0
   34.3390   46.5440   -5.8140 O   0  0  0  0  0  0  0  0  0  0  0  0
   36.3180   47.6300   -3.3350 C   0  0  0  0  0  0  0  0  0  0  0  0
   37.6550   46.1970   -1.8820 C   0  0  0  0  0  0  0  0  0  0  0  0
   31.7240   47.5980   -4.4790 C   0  0  0  0  0  0  0  0  0  0  0  0
   37.4340   47.4340   -2.5170 C   0  0  0  0  0  0  0  0  0  0  0  0
   30.6030   48.1170   -3.7500 O   0  0  0  0  0  0  0  0  0  0  0  0
   30.3000   49.4340   -3.9620 C   0  0  0  0  0  0  0  0  0  0  0  0
   29.8210   49.7440   -5.2360 C   0  0  0  0  0  0  0  0  0  0  0  0
   30.4390   50.4480   -3.0150 C   0  0  0  0  0  0  0  0  0  0  0  0
   29.4800   51.0600   -5.5720 C   0  0  0  0  0  0  0  0  0  0  0  0
   30.0980   51.7650   -3.3460 C   0  0  0  0  0  0  0  0  0  0  0  0
   29.6180   52.0790   -4.6230 C   0  0  0  0  0  0  0  0  0  0  0  0
   29.2730   53.4970   -4.9180 C   0  0  0  0  0  0  0  0  0  0  0  0
   28.5790   53.7640   -6.0670 N   0  0  0  0  0  0  0  0  0  0  0  0
   29.5960   54.4080   -4.1640 O   0  0  0  0  0  0  0  0  0  0  0  0
  1  2  2  0
  2  3  1  0
  2  4  1  0
  5  3  1  6
  4  6  2  0
  5  6  1  0
  4  7  1  0
  5  8  2  0
  5  9  2  0
  6 10  1  0
  7 11  2  0
  8 12  1  0
 10 13  2  0
 11 13  1  0
 12 14  1  0
 14 15  1  0
 15 16  2  0
 15 17  1  0
 16 18  1  0
 17 19  2  0
 18 20  2  0
 19 20  1  0
 20 21  1  0
 21 22  1  0
 21 23  2  0
M  END
