mac-x0576-mac-x0437
     RDKit          3D

 29 32  0  0  0  0  0  0  0  0999 V2000
   29.1310   48.7620   -9.6920 N   0  0  0  0  0  0  0  0  0  0  0  0
   28.5690   48.6130   -8.3850 C   0  0  2  0  0  0  0  0  0  0  0  0
   28.1320   49.9490   -8.0640 N   0  0  0  0  0  0  0  0  0  0  0  0
   29.4000   47.9460   -7.4440 N   0  0  0  0  0  0  0  0  0  0  0  0
   29.4160   48.3560   -6.1350 C   0  0  0  0  0  0  0  0  0  0  0  0
   29.1930   50.5700   -7.2860 C   0  0  2  0  0  0  0  0  0  0  0  0
   29.3850   47.6070   -5.0870 N   0  0  0  0  0  0  0  0  0  0  0  0
   29.4820   49.8850   -5.9200 C   0  0  1  0  0  0  0  0  0  0  0  0
   28.8080   51.9300   -7.0800 N   0  0  0  0  0  0  0  0  0  0  0  0
   29.3340   46.1460   -5.2120 C   0  0  0  0  0  0  0  0  0  0  0  0
   29.1430   52.5540   -5.8900 C   0  0  0  0  0  0  0  0  0  0  0  0
   28.6160   50.3510   -4.8100 N   0  0  0  0  0  0  0  0  0  0  0  0
   29.7470   53.6200   -5.8840 O   0  0  0  0  0  0  0  0  0  0  0  0
   30.6390   45.5260   -4.6990 C   0  0  0  0  0  0  0  0  0  0  0  0
   28.7030   51.8070   -4.6070 C   0  0  0  0  0  0  0  0  0  0  0  0
   31.2120   44.5980   -5.6340 O   0  0  0  0  0  0  0  0  0  0  0  0
   32.5690   44.5640   -5.6950 C   0  0  0  0  0  0  0  0  0  0  0  0
   33.2540   45.0270   -6.6000 O   0  0  0  0  0  0  0  0  0  0  0  0
   33.1500   43.8720   -4.4860 C   0  0  0  0  0  0  0  0  0  0  0  0
   33.1160   44.7690   -3.2540 C   0  0  0  0  0  0  0  0  0  0  0  0
   34.2900   45.6170   -3.1220 N   0  0  0  0  0  0  0  0  0  0  0  0
   34.3000   46.9740   -3.2930 C   0  0  0  0  0  0  0  0  0  0  0  0
   35.5620   45.2160   -2.8070 C   0  0  0  0  0  0  0  0  0  0  0  0
   35.4990   47.4790   -3.1090 N   0  0  0  0  0  0  0  0  0  0  0  0
   36.2950   46.4020   -2.8070 C   0  0  0  0  0  0  0  0  0  0  0  0
   36.1410   43.9720   -2.5270 C   0  0  0  0  0  0  0  0  0  0  0  0
   37.6680   46.3650   -2.5180 C   0  0  0  0  0  0  0  0  0  0  0  0
   37.5110   43.9550   -2.2420 C   0  0  0  0  0  0  0  0  0  0  0  0
   38.2640   45.1290   -2.2370 C   0  0  0  0  0  0  0  0  0  0  0  0
  2  1  1  6
  2  3  1  0
  2  4  1  0
  4  5  1  0
  6  3  1  1
  5  7  2  3
  5  8  1  0
  6  8  1  0
  6  9  1  0
  7 10  1  0
  9 11  1  0
  8 12  1  1
 11 13  2  0
 10 14  1  0
 11 15  1  0
 12 15  1  0
 14 16  1  0
 16 17  1  0
 17 18  2  0
 17 19  1  0
 19 20  1  0
 20 21  1  0
 21 22  1  0
 21 23  1  0
 22 24  2  0
 23 25  2  0
 24 25  1  0
 23 26  1  0
 25 27  1  0
 26 28  2  0
 27 29  2  0
 28 29  1  0
M  END
