mac-x0131-mac-x0301
     RDKit          3D

 20 22  0  0  0  0  0  0  0  0999 V2000
   30.7770   49.0690   -2.2470 C   0  0  0  0  0  0  0  0  0  0  0  0
   30.2420   49.0420   -3.6430 C   0  0  0  0  0  0  0  0  0  0  0  0
   29.6910   50.0760   -4.3910 C   0  0  0  0  0  0  0  0  0  0  0  0
   30.2290   47.8940   -4.4250 N   0  0  0  0  0  0  0  0  0  0  0  0
   29.5030   51.4910   -3.9640 C   0  0  0  0  0  0  0  0  0  0  0  0
   30.7240   46.5580   -4.0370 C   0  0  0  0  0  0  0  0  0  0  0  0
   29.3310   49.5340   -5.6700 C   0  0  0  0  0  0  0  0  0  0  0  0
   29.6740   48.1910   -5.6520 C   0  0  0  0  0  0  0  0  0  0  0  0
   29.9160   45.4990   -4.5130 O   0  0  0  0  0  0  0  0  0  0  0  0
   30.7330   46.4560   -2.6250 O   0  0  0  0  0  0  0  0  0  0  0  0
   28.7520   50.0140   -6.8570 C   0  0  0  0  0  0  0  0  0  0  0  0
   29.5000   47.3140   -6.6590 N   0  0  0  0  0  0  0  0  0  0  0  0
   32.1090   46.3170   -4.5040 C   0  0  0  0  0  0  0  0  0  0  0  0
   28.3500   51.3290   -7.0570 N   0  0  0  0  0  0  0  0  0  0  0  0
   28.5620   49.1670   -7.8880 N   0  0  0  0  0  0  0  0  0  0  0  0
   28.9390   47.8860   -7.7350 C   0  0  0  0  0  0  0  0  0  0  0  0
   32.7130   45.2910   -5.2080 C   0  0  0  0  0  0  0  0  0  0  0  0
   33.0380   47.2750   -4.2030 O   0  0  0  0  0  0  0  0  0  0  0  0
   34.2220   46.8580   -4.7140 C   0  0  0  0  0  0  0  0  0  0  0  0
   34.0750   45.6440   -5.3410 C   0  0  0  0  0  0  0  0  0  0  0  0
  1  2  1  0
  2  3  2  0
  2  4  1  0
  3  5  1  0
  4  6  1  0
  3  7  1  0
  4  8  1  0
  7  8  2  0
  6  9  1  0
  6 10  1  0
  7 11  1  0
  8 12  1  0
  6 13  1  0
 11 14  1  0
 11 15  2  0
 12 16  2  0
 15 16  1  0
 13 17  2  0
 13 18  1  0
 18 19  1  0
 17 20  1  0
 19 20  2  0
M  END
