mac-x0436-mac-x0302
     RDKit          3D

 28 30  0  0  0  0  0  0  0  0999 V2000
   33.3820   46.3260   -6.1270 O   0  0  0  0  0  0  0  0  0  0  0  0
   32.5470   45.1800   -6.1400 C   0  0  2  0  0  0  0  0  0  0  0  0
   31.1660   45.4090   -6.5630 N   0  0  0  0  0  0  0  0  0  0  0  0
   32.5400   44.4630   -4.7740 C   0  0  0  0  0  0  0  0  0  0  0  0
   32.5790   45.3500   -3.5230 C   0  0  0  0  0  0  0  0  0  0  0  0
   30.3920   46.2190   -5.8880 C   0  0  0  0  0  0  0  0  0  0  0  0
   30.7830   47.0090   -4.6540 C   0  0  0  0  0  0  0  0  0  0  0  0
   33.9370   45.9690   -3.3080 C   0  0  0  0  0  0  0  0  0  0  0  0
   29.7850   48.0680   -4.5230 N   0  0  0  0  0  0  0  0  0  0  0  0
   34.0810   47.4800   -3.5390 C   0  0  0  0  0  0  0  0  0  0  0  0
   34.9250   45.2080   -2.9340 N   0  0  0  0  0  0  0  0  0  0  0  0
   33.1270   48.1870   -3.8130 O   0  0  0  0  0  0  0  0  0  0  0  0
   29.8070   49.2390   -3.8010 C   0  0  0  0  0  0  0  0  0  0  0  0
   35.3500   47.9730   -3.4140 N   0  0  0  0  0  0  0  0  0  0  0  0
   36.1780   45.8120   -2.7390 C   0  0  0  0  0  0  0  0  0  0  0  0
   30.0700   49.2470   -2.6000 O   0  0  0  0  0  0  0  0  0  0  0  0
   36.4020   47.1780   -2.9720 C   0  0  0  0  0  0  0  0  0  0  0  0
   37.2390   45.0270   -2.2980 C   0  0  0  0  0  0  0  0  0  0  0  0
   29.4900   50.5080   -4.4860 C   0  0  0  0  0  0  0  0  0  0  0  0
   38.4980   45.5940   -2.0920 C   0  0  0  0  0  0  0  0  0  0  0  0
   37.6530   47.7520   -2.7700 C   0  0  0  0  0  0  0  0  0  0  0  0
   29.6790   51.7190   -3.8110 C   0  0  0  0  0  0  0  0  0  0  0  0
   29.0030   50.4910   -5.7970 C   0  0  0  0  0  0  0  0  0  0  0  0
   38.7040   46.9540   -2.3280 C   0  0  0  0  0  0  0  0  0  0  0  0
   29.3760   52.9090   -4.4640 C   0  0  0  0  0  0  0  0  0  0  0  0
   28.7040   51.6920   -6.4380 C   0  0  0  0  0  0  0  0  0  0  0  0
   29.5690   54.0770   -3.7870 O   0  0  0  0  0  0  0  0  0  0  0  0
   28.8900   52.9060   -5.7710 C   0  0  0  0  0  0  0  0  0  0  0  0
  2  1  1  1
  2  3  1  0
  2  4  1  0
  4  5  1  0
  3  6  2  3
  6  7  1  0
  5  8  1  0
  7  9  1  0
  8 10  1  0
  8 11  2  0
 10 12  2  0
  9 13  1  0
 10 14  1  0
 11 15  1  0
 13 16  2  0
 14 17  1  0
 15 17  2  0
 15 18  1  0
 13 19  1  0
 18 20  2  0
 17 21  1  0
 19 22  2  0
 19 23  1  0
 20 24  1  0
 21 24  2  0
 22 25  1  0
 23 26  2  0
 25 27  1  0
 25 28  2  0
 26 28  1  0
M  END
