mac-x0255-mac-x0373
     RDKit          3D

 28 31  0  0  0  0  0  0  0  0999 V2000
   32.3210   46.2970   -6.6110 O   0  0  0  0  0  0  0  0  0  0  0  0
   32.6790   44.9810   -6.5710 C   0  0  0  0  0  0  0  0  0  0  0  0
   33.7670   44.5220   -6.8990 O   0  0  0  0  0  0  0  0  0  0  0  0
   31.0360   46.6620   -6.3570 C   0  0  0  0  0  0  0  0  0  0  0  0
   31.5590   44.0800   -6.0680 C   0  0  0  0  0  0  0  0  0  0  0  0
   30.0570   46.4190   -7.0550 O   0  0  0  0  0  0  0  0  0  0  0  0
   30.9450   47.4530   -5.0390 C   0  0  0  0  0  0  0  0  0  0  0  0
   30.8520   44.6140   -4.8540 C   0  0  0  0  0  0  0  0  0  0  0  0
   32.3010   47.8380   -4.4430 C   0  0  0  0  0  0  0  0  0  0  0  0
   29.9390   48.6040   -5.0540 C   0  0  0  0  0  0  0  0  0  0  0  0
   29.5100   44.9020   -4.7240 C   0  0  0  0  0  0  0  0  0  0  0  0
   31.7000   44.9400   -3.4070 S   0  0  0  0  0  0  0  0  0  0  0  0
   33.3640   46.9280   -4.2950 C   0  0  0  0  0  0  0  0  0  0  0  0
   32.4990   49.1630   -4.0180 C   0  0  0  0  0  0  0  0  0  0  0  0
   29.4890   49.1140   -3.8240 C   0  0  0  0  0  0  0  0  0  0  0  0
   29.4480   49.1740   -6.2360 C   0  0  0  0  0  0  0  0  0  0  0  0
   29.1610   45.4020   -3.4280 C   0  0  0  0  0  0  0  0  0  0  0  0
   30.2800   45.4780   -2.5960 C   0  0  0  0  0  0  0  0  0  0  0  0
   34.5780   47.3320   -3.7400 C   0  0  0  0  0  0  0  0  0  0  0  0
   33.7140   49.5640   -3.4630 C   0  0  0  0  0  0  0  0  0  0  0  0
   28.5720   50.1660   -3.7810 C   0  0  0  0  0  0  0  0  0  0  0  0
   28.5300   50.2280   -6.1900 C   0  0  0  0  0  0  0  0  0  0  0  0
   27.9100   45.8060   -2.9100 C   0  0  0  0  0  0  0  0  0  0  0  0
   30.1820   45.9450   -1.2730 C   0  0  0  0  0  0  0  0  0  0  0  0
   34.7550   48.6480   -3.3250 C   0  0  0  0  0  0  0  0  0  0  0  0
   28.0960   50.7210   -4.9630 C   0  0  0  0  0  0  0  0  0  0  0  0
   27.8070   46.2700   -1.5970 C   0  0  0  0  0  0  0  0  0  0  0  0
   28.9330   46.3390   -0.7880 C   0  0  0  0  0  0  0  0  0  0  0  0
  1  2  1  0
  2  3  2  0
  1  4  1  0
  2  5  1  0
  4  6  2  0
  4  7  1  0
  5  8  1  0
  7  9  1  0
  7 10  1  0
  8 11  2  0
  8 12  1  0
  9 13  2  0
  9 14  1  0
 10 15  2  0
 10 16  1  0
 11 17  1  0
 12 18  1  0
 17 18  2  0
 13 19  1  0
 14 20  2  0
 15 21  1  0
 16 22  2  0
 17 23  1  0
 18 24  1  0
 19 25  2  0
 20 25  1  0
 21 26  2  0
 22 26  1  0
 23 27  2  0
 24 28  2  0
 27 28  1  0
M  END
