mac-x0328-mac-x0116
     RDKit          3D

 21 23  0  0  0  0  0  0  0  0999 V2000
   31.0180   47.6200   -3.3180 O   0  0  0  0  0  0  0  0  0  0  0  0
   30.9180   48.0090   -4.6090 C   0  0  0  0  0  0  0  0  0  0  0  0
   31.1150   47.1840   -5.4900 O   0  0  0  0  0  0  0  0  0  0  0  0
   30.5690   49.4860   -4.7630 C   0  0  1  0  0  0  0  0  0  0  0  0
   29.3850   49.8080   -5.7570 C   0  0  2  0  0  0  0  0  0  0  0  0
   30.3000   50.0260   -3.3800 C   0  0  0  0  0  0  0  0  0  0  0  0
   28.9700   51.3490   -5.6770 C   0  0  2  0  0  0  0  0  0  0  0  0
   29.7770   51.2350   -3.2200 C   0  0  0  0  0  0  0  0  0  0  0  0
   28.1370   48.9240   -5.5540 C   0  0  0  0  0  0  0  0  0  0  0  0
   29.7590   49.5150   -7.1860 N   0  0  0  0  0  0  0  0  0  0  0  0
   29.4310   52.0380   -6.9140 N   0  0  0  0  0  0  0  0  0  0  0  0
   29.4370   52.1040   -4.3820 C   0  0  2  0  0  0  0  0  0  0  0  0
   28.0130   48.0530   -6.7330 N   0  0  0  0  0  0  0  0  0  0  0  0
   29.2250   48.2030   -7.5010 C   0  0  0  0  0  0  0  0  0  0  0  0
   28.4010   52.9810   -3.9300 O   0  0  0  0  0  0  0  0  0  0  0  0
   29.4280   53.4990   -6.8020 C   0  0  0  0  0  0  0  0  0  0  0  0
   30.7710   54.0520   -7.1340 C   0  0  0  0  0  0  0  0  0  0  0  0
   31.8020   53.6960   -6.3120 O   0  0  0  0  0  0  0  0  0  0  0  0
   31.2370   54.8830   -8.1330 C   0  0  0  0  0  0  0  0  0  0  0  0
   32.6240   55.0420   -7.9090 C   0  0  0  0  0  0  0  0  0  0  0  0
   32.9190   54.2990   -6.7900 C   0  0  0  0  0  0  0  0  0  0  0  0
  1  2  1  0
  2  3  2  0
  4  2  1  1
  4  5  1  0
  4  6  1  0
  5  7  1  0
  6  8  2  0
  5  9  1  1
  5 10  1  0
  7 11  1  6
  7 12  1  0
  8 12  1  0
  9 13  1  0
 10 14  1  0
 13 14  1  0
 12 15  1  1
 11 16  1  0
 16 17  1  0
 17 18  1  0
 17 19  2  0
 19 20  1  0
 18 21  1  0
 20 21  2  0
M  END
