mac-x0148-mac-x0379
     RDKit          3D

 22 25  0  0  0  0  0  0  0  0999 V2000
   26.8750   50.9720   -4.6160 C   0  0  0  0  0  0  0  0  0  0  0  0
   27.9310   50.1870   -5.3260 C   0  0  0  0  0  0  0  0  0  0  0  0
   28.1740   50.5120   -6.6550 N   0  0  0  0  0  0  0  0  0  0  0  0
   28.6950   49.1830   -4.8440 C   0  0  0  0  0  0  0  0  0  0  0  0
   28.6160   48.6640   -3.4820 C   0  0  0  0  0  0  0  0  0  0  0  0
   29.1170   49.6930   -7.0220 C   0  0  0  0  0  0  0  0  0  0  0  0
   29.5520   48.7770   -5.9320 C   0  0  0  0  0  0  0  0  0  0  0  0
   29.2050   49.0840   -2.4970 O   0  0  0  0  0  0  0  0  0  0  0  0
   27.7720   47.6180   -3.3930 O   0  0  0  0  0  0  0  0  0  0  0  0
   29.6640   49.6610   -8.2750 N   0  0  0  0  0  0  0  0  0  0  0  0
   30.5390   47.8900   -6.2090 C   0  0  0  0  0  0  0  0  0  0  0  0
   31.1060   46.9470   -5.3480 N   0  0  0  0  0  0  0  0  0  0  0  0
   31.0460   47.9230   -7.4910 N   0  0  0  0  0  0  0  0  0  0  0  0
   30.5920   48.7840   -8.4410 C   0  0  0  0  0  0  0  0  0  0  0  0
   31.6260   47.4130   -4.0330 C   0  0  2  0  0  0  0  0  0  0  0  0
   31.8680   45.8320   -5.9260 C   0  0  0  0  0  0  0  0  0  0  0  0
   33.0320   48.0210   -4.1150 C   0  0  0  0  0  0  0  0  0  0  0  0
   31.8490   46.3140   -2.9980 C   0  0  2  0  0  0  0  0  0  0  0  0
   31.9090   44.6700   -4.9420 C   0  0  0  0  0  0  0  0  0  0  0  0
   32.7810   47.0280   -2.0320 C   0  0  0  0  0  0  0  0  0  0  0  0
   33.6690   47.8150   -2.8370 O   0  0  0  0  0  0  0  0  0  0  0  0
   32.5090   45.0610   -3.5920 C   0  0  0  0  0  0  0  0  0  0  0  0
  1  2  1  0
  2  3  1  0
  2  4  2  0
  4  5  1  0
  3  6  2  0
  4  7  1  0
  6  7  1  0
  5  8  2  0
  5  9  1  0
  6 10  1  0
  7 11  2  0
 11 12  1  0
 11 13  1  0
 10 14  2  0
 13 14  1  0
 12 15  1  0
 12 16  1  0
 15 17  1  6
 15 18  1  0
 16 19  1  0
 18 20  1  1
 17 21  1  0
 20 21  1  0
 18 22  1  0
 19 22  1  0
M  END
