mac-x0148-mac-x0284
     RDKit          3D

 29 33  0  0  0  0  0  0  0  0999 V2000
   27.3550   50.9180   -4.9580 C   0  0  0  0  0  0  0  0  0  0  0  0
   27.9330   49.8980   -4.0170 C   0  0  0  0  0  0  0  0  0  0  0  0
   28.2460   50.2450   -2.7010 C   0  0  0  0  0  0  0  0  0  0  0  0
   28.1660   48.5830   -4.4480 C   0  0  0  0  0  0  0  0  0  0  0  0
   28.7050   47.6190   -3.5760 C   0  0  0  0  0  0  0  0  0  0  0  0
   28.7800   49.2950   -1.8230 C   0  0  0  0  0  0  0  0  0  0  0  0
   28.9140   46.2530   -4.1300 C   0  0  0  0  0  0  0  0  0  0  0  0
   29.0070   47.9900   -2.2600 C   0  0  0  0  0  0  0  0  0  0  0  0
   29.5290   47.0880   -1.3730 O   0  0  0  0  0  0  0  0  0  0  0  0
   28.0070   45.5680   -4.5840 O   0  0  0  0  0  0  0  0  0  0  0  0
   30.2090   45.8890   -4.0600 O   0  0  0  0  0  0  0  0  0  0  0  0
   31.0000   46.0340   -5.2440 C   0  0  2  0  0  0  0  0  0  0  0  0
   32.3010   45.2440   -5.0420 C   0  0  0  0  0  0  0  0  0  0  0  0
   31.3080   47.4530   -5.5140 N   0  0  0  0  0  0  0  0  0  0  0  0
   32.2450   48.1270   -4.5800 C   0  0  1  0  0  0  0  0  0  0  0  0
   33.1360   45.8410   -3.9160 C   0  0  0  0  0  0  0  0  0  0  0  0
   30.7150   48.1320   -6.5990 C   0  0  0  0  0  0  0  0  0  0  0  0
   31.7060   48.4890   -3.1980 C   0  0  0  0  0  0  0  0  0  0  0  0
   33.4700   47.3000   -4.2300 C   0  0  2  0  0  0  0  0  0  0  0  0
   30.5030   47.4920   -7.8130 N   0  0  0  0  0  0  0  0  0  0  0  0
   30.3090   49.4200   -6.5790 C   0  0  0  0  0  0  0  0  0  0  0  0
   33.9870   48.0310   -2.9950 C   0  0  0  0  0  0  0  0  0  0  0  0
   32.8570   48.6230   -2.3350 O   0  0  0  0  0  0  0  0  0  0  0  0
   29.9260   48.1030   -8.8910 C   0  0  0  0  0  0  0  0  0  0  0  0
   29.6940   50.0290   -7.7920 C   0  0  0  0  0  0  0  0  0  0  0  0
   30.2880   50.5020   -5.6420 C   0  0  0  0  0  0  0  0  0  0  0  0
   29.5130   49.3250   -8.9470 N   0  0  0  0  0  0  0  0  0  0  0  0
   29.3640   51.2820   -7.6120 N   0  0  0  0  0  0  0  0  0  0  0  0
   29.7380   51.5370   -6.2990 C   0  0  0  0  0  0  0  0  0  0  0  0
  1  2  1  0
  2  3  2  0
  2  4  1  0
  4  5  2  0
  3  6  1  0
  5  7  1  0
  5  8  1  0
  6  8  2  0
  8  9  1  0
  7 10  2  0
  7 11  1  0
 12 11  1  1
 12 13  1  0
 12 14  1  0
 14 15  1  0
 13 16  1  0
 14 17  1  0
 15 18  1  1
 15 19  1  0
 19 16  1  1
 17 20  1  0
 17 21  2  0
 19 22  1  0
 18 23  1  0
 22 23  1  0
 20 24  1  0
 21 25  1  0
 21 26  1  0
 24 27  2  0
 25 27  1  0
 25 28  2  0
 26 29  2  0
 28 29  1  0
M  END
