mac-x0572-mac-x0148
     RDKit          3D

 27 31  0  0  0  0  0  0  0  0999 V2000
   28.9200   56.1070   -7.1320 C   0  0  0  0  0  0  0  0  0  0  0  0
   28.7820   54.8440   -6.2760 C   0  0  1  0  0  0  0  0  0  0  0  0
   28.6420   53.6450   -7.1170 N   0  0  0  0  0  0  0  0  0  0  0  0
   29.8840   54.7140   -5.2140 C   0  0  1  0  0  0  0  0  0  0  0  0
   29.9220   55.8930   -4.4040 O   0  0  0  0  0  0  0  0  0  0  0  0
   29.6450   53.4550   -4.3810 C   0  0  0  0  0  0  0  0  0  0  0  0
   28.4070   52.3960   -6.3790 C   0  0  2  0  0  0  0  0  0  0  0  0
   30.2990   53.2450   -3.3550 O   0  0  0  0  0  0  0  0  0  0  0  0
   28.5540   52.4790   -4.8510 C   0  0  1  0  0  0  0  0  0  0  0  0
   29.2660   51.2580   -6.9750 C   0  0  0  0  0  0  0  0  0  0  0  0
   29.1010   49.8430   -6.3330 C   0  0  1  0  0  0  0  0  0  0  0  0
   28.6070   51.1250   -4.1900 C   0  0  0  0  0  0  0  0  0  0  0  0
   28.8310   49.9730   -4.8460 C   0  0  0  0  0  0  0  0  0  0  0  0
   28.0730   49.1080   -7.1100 N   0  0  0  0  0  0  0  0  0  0  0  0
   30.4640   49.1420   -6.4820 C   0  0  0  0  0  0  0  0  0  0  0  0
   28.6010   47.9690   -7.8300 C   0  0  0  0  0  0  0  0  0  0  0  0
   30.4160   47.6110   -6.3610 C   0  0  1  0  0  0  0  0  0  0  0  0
   30.6970   46.9170   -5.0990 N   0  0  0  0  0  0  0  0  0  0  0  0
   29.1470   47.0910   -6.8360 N   0  0  0  0  0  0  0  0  0  0  0  0
   31.1760   47.7040   -3.9260 C   0  0  1  0  0  0  0  0  0  0  0  0
   31.5040   45.7410   -5.3930 C   0  0  0  0  0  0  0  0  0  0  0  0
   30.2320   47.7070   -2.7180 C   0  0  0  0  0  0  0  0  0  0  0  0
   32.5590   47.3950   -3.2820 C   0  0  1  0  0  0  0  0  0  0  0  0
   32.9910   45.9640   -5.2230 C   0  0  0  0  0  0  0  0  0  0  0  0
   32.2890   47.3220   -1.7900 C   0  0  0  0  0  0  0  0  0  0  0  0
   31.0410   47.9680   -1.5620 O   0  0  0  0  0  0  0  0  0  0  0  0
   33.2430   46.1160   -3.7530 C   0  0  0  0  0  0  0  0  0  0  0  0
  2  1  1  6
  2  3  1  0
  2  4  1  0
  4  5  1  1
  4  6  1  0
  3  7  1  0
  6  8  2  0
  6  9  1  0
  7  9  1  0
  7 10  1  6
 11 10  1  6
  9 12  1  6
 11 13  1  0
 12 13  2  0
 11 14  1  0
 11 15  1  0
 14 16  1  0
 15 17  1  0
 17 18  1  1
 16 19  1  0
 17 19  1  0
 18 20  1  0
 18 21  1  0
 20 22  1  1
 20 23  1  0
 21 24  1  0
 23 25  1  1
 22 26  1  0
 25 26  1  0
 23 27  1  0
 24 27  1  0
M  END
