mac-x0178-mac-x0321
     RDKit          3D

 23 24  0  0  0  0  0  0  0  0999 V2000
   28.6990   43.9380   -0.2400 N   0  0  0  0  0  0  0  0  0  0  0  0
   29.0120   45.5760   -0.4390 S   0  0  0  0  0  0  0  0  0  0  0  0
   29.9520   45.9380    0.5970 O   0  0  0  0  0  0  0  0  0  0  0  0
   27.7460   46.2540   -0.6000 O   0  0  0  0  0  0  0  0  0  0  0  0
   29.8650   45.6110   -1.9930 C   0  0  0  0  0  0  0  0  0  0  0  0
   30.1870   44.4400   -2.6750 C   0  0  0  0  0  0  0  0  0  0  0  0
   30.2060   46.8450   -2.5260 C   0  0  0  0  0  0  0  0  0  0  0  0
   30.8600   44.5210   -3.9030 C   0  0  0  0  0  0  0  0  0  0  0  0
   30.8760   46.9460   -3.7500 C   0  0  0  0  0  0  0  0  0  0  0  0
   31.1420   48.2560   -4.1500 N   0  0  0  0  0  0  0  0  0  0  0  0
   31.2120   45.7730   -4.4530 C   0  0  0  0  0  0  0  0  0  0  0  0
   31.9290   45.8160   -5.7630 C   0  0  0  0  0  0  0  0  0  0  0  0
   30.1010   49.0130   -4.2060 C   0  0  0  0  0  0  0  0  0  0  0  0
   31.4780   45.6120   -6.8720 O   0  0  0  0  0  0  0  0  0  0  0  0
   33.2320   46.1290   -5.6070 O   0  0  0  0  0  0  0  0  0  0  0  0
   28.9150   48.4640   -3.9060 O   0  0  0  0  0  0  0  0  0  0  0  0
   29.9060   50.4180   -4.5320 C   0  0  0  0  0  0  0  0  0  0  0  0
   29.4250   50.7730   -5.7910 C   0  0  0  0  0  0  0  0  0  0  0  0
   30.2010   51.3860   -3.5700 C   0  0  0  0  0  0  0  0  0  0  0  0
   29.2380   52.1210   -6.0800 C   0  0  0  0  0  0  0  0  0  0  0  0
   30.0120   52.7330   -3.8700 C   0  0  0  0  0  0  0  0  0  0  0  0
   28.6450   52.5870   -7.6260 Cl  0  0  0  0  0  0  0  0  0  0  0  0
   29.5300   53.1000   -5.1270 C   0  0  0  0  0  0  0  0  0  0  0  0
  2  1  1  0
  2  3  2  0
  2  4  2  0
  2  5  1  0
  5  6  2  0
  5  7  1  0
  6  8  1  0
  7  9  2  0
  9 10  1  0
  8 11  2  0
  9 11  1  0
 11 12  1  0
 10 13  2  3
 12 14  2  0
 12 15  1  0
 13 16  1  0
 13 17  1  0
 17 18  2  0
 17 19  1  0
 18 20  1  0
 19 21  2  0
 20 22  1  0
 20 23  2  0
 21 23  1  0
M  END
