mac-x0148-mac-x0193
     RDKit          3D

 32 36  0  0  0  0  0  0  0  0999 V2000
   34.1240   45.3250   -6.5400 O   0  0  0  0  0  0  0  0  0  0  0  0
   32.8750   45.2680   -5.8490 C   0  0  0  0  0  0  0  0  0  0  0  0
   32.0240   44.6000   -6.7740 O   0  0  0  0  0  0  0  0  0  0  0  0
   33.1370   44.3440   -4.6130 C   0  0  0  0  0  0  0  0  0  0  0  0
   32.3460   46.7580   -5.6460 C   0  0  2  0  0  0  0  0  0  0  0  0
   34.5020   44.4180   -4.0630 N   0  0  0  0  0  0  0  0  0  0  0  0
   33.3310   47.4660   -4.7290 C   0  0  0  0  0  0  0  0  0  0  0  0
   30.9340   46.9600   -5.1150 N   0  0  0  0  0  0  0  0  0  0  0  0
   34.9690   43.6190   -3.0410 C   0  0  0  0  0  0  0  0  0  0  0  0
   30.7890   46.9810   -3.6000 C   0  0  2  0  0  0  0  0  0  0  0  0
   33.4200   46.6650   -3.4670 C   0  0  0  0  0  0  0  0  0  0  0  0
   30.0610   47.6550   -5.9990 C   0  0  0  0  0  0  0  0  0  0  0  0
   34.4960   42.5300   -2.7500 O   0  0  0  0  0  0  0  0  0  0  0  0
   36.0330   44.2140   -2.3950 N   0  0  0  0  0  0  0  0  0  0  0  0
   30.5290   48.3390   -2.9270 C   0  0  0  0  0  0  0  0  0  0  0  0
   32.0640   46.5670   -2.8070 C   0  0  1  0  0  0  0  0  0  0  0  0
   29.5230   46.9960   -7.0870 N   0  0  0  0  0  0  0  0  0  0  0  0
   29.6860   48.9630   -5.9090 C   0  0  0  0  0  0  0  0  0  0  0  0
   32.0670   47.4050   -1.5400 C   0  0  0  0  0  0  0  0  0  0  0  0
   30.8940   48.2010   -1.5530 O   0  0  0  0  0  0  0  0  0  0  0  0
   28.7340   47.6030   -8.0200 C   0  0  0  0  0  0  0  0  0  0  0  0
   28.7930   49.5530   -6.9450 C   0  0  0  0  0  0  0  0  0  0  0  0
   29.9150   50.0780   -5.0330 C   0  0  0  0  0  0  0  0  0  0  0  0
   37.2220   43.5150   -1.8930 C   0  0  0  0  0  0  0  0  0  0  0  0
   28.3450   48.8320   -8.0100 N   0  0  0  0  0  0  0  0  0  0  0  0
   28.5220   50.8110   -6.7220 N   0  0  0  0  0  0  0  0  0  0  0  0
   29.2130   51.0990   -5.5580 C   0  0  0  0  0  0  0  0  0  0  0  0
   37.5430   42.2200   -2.6600 C   0  0  0  0  0  0  0  0  0  0  0  0
   37.1100   43.3130   -0.3700 C   0  0  0  0  0  0  0  0  0  0  0  0
   38.7740   41.5060   -2.1060 C   0  0  0  0  0  0  0  0  0  0  0  0
   38.2600   42.4940    0.2040 C   0  0  0  0  0  0  0  0  0  0  0  0
   39.3260   42.1770   -0.8430 C   0  0  0  0  0  0  0  0  0  0  0  0
  2  1  1  0
  2  3  1  0
  2  4  1  0
  5  2  1  1
  4  6  1  0
  5  7  1  0
  5  8  1  0
  6  9  1  0
  8 10  1  0
  7 11  1  0
  8 12  1  0
  9 13  2  0
  9 14  1  0
 10 15  1  1
 10 16  1  0
 16 11  1  6
 12 17  1  0
 12 18  2  0
 16 19  1  0
 15 20  1  0
 19 20  1  0
 17 21  1  0
 18 22  1  0
 18 23  1  0
 14 24  1  0
 21 25  2  0
 22 25  1  0
 22 26  2  0
 23 27  2  0
 26 27  1  0
 24 28  1  0
 24 29  1  0
 28 30  1  0
 29 31  1  0
 30 32  1  0
 31 32  1  0
M  END
