mac-x0321-mac-x0576
     RDKit          3D

 16 17  0  0  0  0  0  0  0  0999 V2000
   28.0620   51.8690   -6.9210 Cl  0  0  0  0  0  0  0  0  0  0  0  0
   29.2900   51.4230   -5.6910 C   0  0  2  0  0  0  0  0  0  0  0  0
   29.7470   49.9230   -5.6930 C   0  0  1  0  0  0  0  0  0  0  0  0
   28.7320   51.8550   -4.3620 C   0  0  0  0  0  0  0  0  0  0  0  0
   30.6530   49.6240   -4.4290 C   0  0  2  0  0  0  0  0  0  0  0  0
   29.0930   51.2970   -3.2040 C   0  0  0  0  0  0  0  0  0  0  0  0
   28.4580   49.0220   -5.6640 C   0  0  0  0  0  0  0  0  0  0  0  0
   30.4830   49.5390   -7.0110 C   0  0  0  0  0  0  0  0  0  0  0  0
   30.9860   48.1540   -4.1920 C   0  0  0  0  0  0  0  0  0  0  0  0
   30.0900   50.1790   -3.0900 C   0  0  0  0  0  0  0  0  0  0  0  0
   28.4310   48.0730   -6.7760 N   0  0  0  0  0  0  0  0  0  0  0  0
   29.6030   49.6070   -8.1770 N   0  0  0  0  0  0  0  0  0  0  0  0
   31.7130   47.6000   -5.1780 O   0  0  0  0  0  0  0  0  0  0  0  0
   30.6720   47.4690   -3.2310 O   0  0  0  0  0  0  0  0  0  0  0  0
   28.5290   48.6720   -8.0760 C   0  0  1  0  0  0  0  0  0  0  0  0
   28.8370   47.6300   -8.9950 N   0  0  0  0  0  0  0  0  0  0  0  0
  2  1  1  6
  2  3  1  0
  2  4  1  0
  3  5  1  0
  4  6  2  0
  3  7  1  1
  3  8  1  0
  5  9  1  1
  5 10  1  0
  6 10  1  0
  7 11  1  0
  8 12  1  0
  9 13  1  0
  9 14  2  0
 11 15  1  0
 12 15  1  0
 15 16  1  6
M  END
