mac-x0190-mac-x0333
     RDKit          3D

 12 13  0  0  0  0  0  0  0  0999 V2000
   28.5840   56.7580   -5.4900 O   0  0  0  0  0  0  0  0  0  0  0  0
   29.7000   56.1780   -4.8260 C   0  0  0  0  0  0  0  0  0  0  0  0
   29.5390   54.7010   -4.8890 C   0  0  0  0  0  0  0  0  0  0  0  0
   29.8630   53.8940   -3.8260 N   0  0  0  0  0  0  0  0  0  0  0  0
   29.0930   53.9840   -5.9030 N   0  0  0  0  0  0  0  0  0  0  0  0
   29.6170   52.5900   -4.1760 C   0  0  0  0  0  0  0  0  0  0  0  0
   29.1350   52.6760   -5.4790 C   0  0  0  0  0  0  0  0  0  0  0  0
   29.7690   51.3790   -3.4890 C   0  0  0  0  0  0  0  0  0  0  0  0
   28.7780   51.4990   -6.1530 C   0  0  0  0  0  0  0  0  0  0  0  0
   29.4100   50.2190   -4.1880 C   0  0  0  0  0  0  0  0  0  0  0  0
   28.9210   50.2710   -5.4920 C   0  0  0  0  0  0  0  0  0  0  0  0
   29.5270   48.9720   -3.6210 O   0  0  0  0  0  0  0  0  0  0  0  0
  1  2  1  0
  2  3  1  0
  3  4  1  0
  3  5  2  0
  4  6  1  0
  5  7  1  0
  6  7  2  0
  6  8  1  0
  7  9  1  0
  8 10  2  0
  9 11  2  0
 10 11  1  0
 10 12  1  0
M  END
