mac-x0451-mac-x0284
     RDKit          3D

 15 16  0  0  0  0  0  0  0  0999 V2000
   28.7100   53.9330   -8.0270 N   0  0  0  0  0  0  0  0  0  0  0  0
   28.9910   52.7450   -7.4540 C   0  0  0  0  0  0  0  0  0  0  0  0
   29.1430   52.5940   -6.1700 N   0  0  0  0  0  0  0  0  0  0  0  0
   29.1690   51.3190   -8.3840 S   0  0  0  0  0  0  0  0  0  0  0  0
   29.4270   51.2640   -5.8650 C   0  0  0  0  0  0  0  0  0  0  0  0
   29.4830   50.4140   -6.9540 C   0  0  0  0  0  0  0  0  0  0  0  0
   29.6470   50.7580   -4.5670 C   0  0  0  0  0  0  0  0  0  0  0  0
   29.7590   49.0460   -6.8070 C   0  0  0  0  0  0  0  0  0  0  0  0
   29.5540   51.7170   -3.4440 C   0  0  0  0  0  0  0  0  0  0  0  0
   29.9390   49.3660   -4.4040 C   0  0  0  0  0  0  0  0  0  0  0  0
   29.9880   48.5170   -5.5210 C   0  0  0  0  0  0  0  0  0  0  0  0
   30.2660   47.0450   -5.4740 C   0  0  0  0  0  0  0  0  0  0  0  0
   30.1790   48.7800   -3.1650 O   0  0  0  0  0  0  0  0  0  0  0  0
   30.0520   46.3240   -6.4370 O   0  0  0  0  0  0  0  0  0  0  0  0
   30.7530   46.5370   -4.3210 O   0  0  0  0  0  0  0  0  0  0  0  0
  1  2  1  0
  2  3  2  0
  2  4  1  0
  3  5  1  0
  4  6  1  0
  5  6  2  0
  5  7  1  0
  6  8  1  0
  7  9  1  0
  7 10  2  0
  8 11  2  0
 10 11  1  0
 11 12  1  0
 10 13  1  0
 12 14  2  0
 12 15  1  0
M  END
