mac-x0319-mac-x0360
     RDKit          3D

 25 26  0  0  0  0  0  0  0  0999 V2000
   33.9660   46.0310   -6.8050 O   0  0  0  0  0  0  0  0  0  0  0  0
   32.7840   45.8670   -6.1800 C   0  0  0  0  0  0  0  0  0  0  0  0
   31.7600   46.6090   -6.4110 N   0  0  0  0  0  0  0  0  0  0  0  0
   32.7220   44.7510   -5.1690 C   0  0  0  0  0  0  0  0  0  0  0  0
   31.8840   47.6940   -7.3990 C   0  0  0  0  0  0  0  0  0  0  0  0
   31.6530   45.0290   -4.1400 C   0  0  0  0  0  0  0  0  0  0  0  0
   30.6090   48.5580   -7.4270 C   0  0  0  0  0  0  0  0  0  0  0  0
   30.5020   44.2330   -4.0630 C   0  0  0  0  0  0  0  0  0  0  0  0
   31.8020   46.0980   -3.2430 C   0  0  0  0  0  0  0  0  0  0  0  0
   30.3640   49.1300   -6.0980 N   0  0  0  0  0  0  0  0  0  0  0  0
   29.5290   44.5110   -3.1080 C   0  0  0  0  0  0  0  0  0  0  0  0
   30.8200   46.3660   -2.2880 C   0  0  0  0  0  0  0  0  0  0  0  0
   28.4290   43.7070   -3.0780 O   0  0  0  0  0  0  0  0  0  0  0  0
   29.7560   50.6650   -5.9150 S   0  0  0  0  0  0  0  0  0  0  0  0
   29.6780   45.5710   -2.2190 C   0  0  0  0  0  0  0  0  0  0  0  0
   29.1820   50.7860   -4.5910 O   0  0  0  0  0  0  0  0  0  0  0  0
   28.9780   50.9450   -7.1000 O   0  0  0  0  0  0  0  0  0  0  0  0
   31.2060   51.6930   -5.9670 C   0  0  0  0  0  0  0  0  0  0  0  0
   32.4420   51.1770   -5.5610 C   0  0  0  0  0  0  0  0  0  0  0  0
   31.0950   53.0130   -6.4160 C   0  0  0  0  0  0  0  0  0  0  0  0
   33.5690   51.9980   -5.6090 C   0  0  0  0  0  0  0  0  0  0  0  0
   32.2330   53.8150   -6.4560 C   0  0  0  0  0  0  0  0  0  0  0  0
   32.1110   55.4420   -7.0040 Cl  0  0  0  0  0  0  0  0  0  0  0  0
   35.1020   51.3910   -5.1120 Cl  0  0  0  0  0  0  0  0  0  0  0  0
   33.4710   53.3150   -6.0560 C   0  0  0  0  0  0  0  0  0  0  0  0
  1  2  1  0
  2  3  2  3
  2  4  1  0
  3  5  1  0
  4  6  1  0
  5  7  1  0
  6  8  2  0
  6  9  1  0
  7 10  1  0
  8 11  1  0
  9 12  2  0
 11 13  1  0
 14 10  1  0
 11 15  2  0
 12 15  1  0
 14 16  2  0
 14 17  2  0
 14 18  1  0
 18 19  2  0
 18 20  1  0
 19 21  1  0
 20 22  2  0
 22 23  1  0
 21 24  1  0
 21 25  2  0
 22 25  1  0
M  END
