mac-x0344-mac-x0161
     RDKit          3D

 29 32  0  0  0  0  0  0  0  0999 V2000
   33.4290   43.1020   -5.0150 O   0  0  0  0  0  0  0  0  0  0  0  0
   33.3180   44.1910   -5.8070 C   0  0  0  0  0  0  0  0  0  0  0  0
   32.6260   44.2520   -6.8010 O   0  0  0  0  0  0  0  0  0  0  0  0
   34.1940   45.3350   -5.2620 C   0  0  0  0  0  0  0  0  0  0  0  0
   35.0280   45.7520   -6.0730 O   0  0  0  0  0  0  0  0  0  0  0  0
   33.9730   45.8380   -3.8250 C   0  0  1  0  0  0  0  0  0  0  0  0
   33.6930   44.5470   -3.0200 C   0  0  0  0  0  0  0  0  0  0  0  0
   35.1820   46.6140   -3.2180 C   0  0  0  0  0  0  0  0  0  0  0  0
   32.8320   46.8390   -3.7530 C   0  0  0  0  0  0  0  0  0  0  0  0
   35.9380   46.0790   -2.1520 C   0  0  0  0  0  0  0  0  0  0  0  0
   35.5770   47.8800   -3.7020 C   0  0  0  0  0  0  0  0  0  0  0  0
   31.5160   46.6330   -3.2490 C   0  0  0  0  0  0  0  0  0  0  0  0
   32.9640   48.1010   -4.1900 N   0  0  0  0  0  0  0  0  0  0  0  0
   37.0250   46.7730   -1.6020 C   0  0  0  0  0  0  0  0  0  0  0  0
   36.6630   48.5690   -3.1500 C   0  0  0  0  0  0  0  0  0  0  0  0
   30.8770   47.8380   -3.4120 C   0  0  0  0  0  0  0  0  0  0  0  0
   31.7460   48.7220   -3.9770 O   0  0  0  0  0  0  0  0  0  0  0  0
   29.4980   48.3240   -3.1060 C   0  0  0  0  0  0  0  0  0  0  0  0
   37.3860   48.0160   -2.1010 C   0  0  0  0  0  0  0  0  0  0  0  0
   29.0490   49.4130   -3.9800 N   0  0  0  0  0  0  0  0  0  0  0  0
   29.8040   50.6580   -3.8500 C   0  0  0  0  0  0  0  0  0  0  0  0
   28.9160   49.0830   -5.3930 C   0  0  2  0  0  0  0  0  0  0  0  0
   29.0420   51.7480   -4.4830 N   0  0  0  0  0  0  0  0  0  0  0  0
   28.0670   50.1060   -6.1060 C   0  0  1  0  0  0  0  0  0  0  0  0
   28.1900   47.8720   -5.7560 N   0  0  0  0  0  0  0  0  0  0  0  0
   28.6890   51.4970   -5.8710 C   0  0  1  0  0  0  0  0  0  0  0  0
   28.0400   49.5090   -7.4520 N   0  0  0  0  0  0  0  0  0  0  0  0
   27.8110   48.0930   -7.1580 C   0  0  0  0  0  0  0  0  0  0  0  0
   27.7830   52.5830   -6.2080 N   0  0  0  0  0  0  0  0  0  0  0  0
  1  2  1  0
  2  3  2  0
  2  4  1  0
  4  5  2  0
  6  4  1  0
  6  7  1  1
  6  8  1  0
  6  9  1  0
  8 10  2  0
  8 11  1  0
  9 12  1  0
  9 13  2  0
 10 14  1  0
 11 15  2  0
 12 16  2  0
 13 17  1  0
 16 17  1  0
 16 18  1  0
 14 19  2  0
 15 19  1  0
 18 20  1  0
 20 21  1  0
 20 22  1  0
 21 23  1  0
 22 24  1  0
 22 25  1  1
 23 26  1  0
 24 26  1  0
 24 27  1  6
 25 28  1  0
 27 28  1  0
 26 29  1  1
M  END
