mac-x0415-mac-x0441
     RDKit          3D

 27 30  0  0  0  0  0  0  0  0999 V2000
   33.5490   45.3480   -6.5570 O   0  0  0  0  0  0  0  0  0  0  0  0
   32.9040   45.8550   -5.4750 C   0  0  0  0  0  0  0  0  0  0  0  0
   32.5750   47.0370   -5.4870 O   0  0  0  0  0  0  0  0  0  0  0  0
   32.6520   44.8560   -4.3260 C   0  0  2  0  0  0  0  0  0  0  0  0
   31.2210   45.0440   -3.9530 C   0  0  0  0  0  0  0  0  0  0  0  0
   33.6100   45.0200   -3.1820 N   0  0  0  0  0  0  0  0  0  0  0  0
   30.1160   44.1670   -4.3720 C   0  0  0  0  0  0  0  0  0  0  0  0
   30.5550   45.9320   -3.2050 C   0  0  0  0  0  0  0  0  0  0  0  0
   34.1400   43.6570   -2.8060 N   0  0  0  0  0  0  0  0  0  0  0  0
   34.8290   45.8120   -3.4440 C   0  0  2  0  0  0  0  0  0  0  0  0
   28.9060   44.4320   -3.9630 N   0  0  0  0  0  0  0  0  0  0  0  0
   29.0870   45.6580   -3.1660 C   0  0  1  0  0  0  0  0  0  0  0  0
   30.9990   47.0740   -2.4490 C   0  0  0  0  0  0  0  0  0  0  0  0
   35.6390   43.7280   -2.7760 C   0  0  1  0  0  0  0  0  0  0  0  0
   35.8750   45.2030   -2.4880 C   0  0  1  0  0  0  0  0  0  0  0  0
   34.8940   47.3100   -3.4390 C   0  0  0  0  0  0  0  0  0  0  0  0
   36.3110   42.7950   -1.7630 C   0  0  0  0  0  0  0  0  0  0  0  0
   28.6490   45.6060   -1.7370 C   0  0  0  0  0  0  0  0  0  0  0  0
   30.3550   47.3050   -1.2790 C   0  0  0  0  0  0  0  0  0  0  0  0
   37.2310   45.8340   -2.6880 C   0  0  0  0  0  0  0  0  0  0  0  0
   36.0850   47.9140   -3.2490 C   0  0  0  0  0  0  0  0  0  0  0  0
   30.7930   48.7390   -0.1680 Br  0  0  0  0  0  0  0  0  0  0  0  0
   37.4780   42.3100   -2.2480 F   0  0  0  0  0  0  0  0  0  0  0  0
   36.6050   43.4530   -0.6160 F   0  0  0  0  0  0  0  0  0  0  0  0
   35.5340   41.7360   -1.4430 F   0  0  0  0  0  0  0  0  0  0  0  0
   29.2730   46.4090   -0.8470 C   0  0  0  0  0  0  0  0  0  0  0  0
   37.2930   47.1290   -3.0520 C   0  0  0  0  0  0  0  0  0  0  0  0
  1  2  1  0
  2  3  2  0
  4  2  1  6
  4  5  1  0
  4  6  1  0
  5  7  1  0
  5  8  2  0
  6  9  1  0
  6 10  1  0
  7 11  2  0
  8 12  1  0
 11 12  1  0
  8 13  1  0
  9 14  1  0
 10 15  1  0
 14 15  1  0
 10 16  1  1
 14 17  1  1
 12 18  1  1
 13 19  2  0
 15 20  1  6
 16 21  2  0
 19 22  1  0
 17 23  1  0
 17 24  1  0
 17 25  1  0
 18 26  2  0
 19 26  1  0
 20 27  2  0
 21 27  1  0
M  END
