mac-x0451-mac-x0373
     RDKit          3D

 20 22  0  0  0  0  0  0  0  0999 V2000
   28.4830   53.9920   -8.0530 N   0  0  0  0  0  0  0  0  0  0  0  0
   28.8710   52.8770   -7.4090 C   0  0  0  0  0  0  0  0  0  0  0  0
   29.1170   52.8450   -6.1260 N   0  0  0  0  0  0  0  0  0  0  0  0
   29.0740   51.3900   -8.2400 S   0  0  0  0  0  0  0  0  0  0  0  0
   29.5020   51.5740   -5.7450 C   0  0  0  0  0  0  0  0  0  0  0  0
   29.5440   50.6280   -6.7700 C   0  0  0  0  0  0  0  0  0  0  0  0
   29.8470   51.1760   -4.4430 C   0  0  0  0  0  0  0  0  0  0  0  0
   29.9270   49.2960   -6.5370 C   0  0  0  0  0  0  0  0  0  0  0  0
   30.2300   49.8580   -4.1990 C   0  0  0  0  0  0  0  0  0  0  0  0
   30.2810   48.9110   -5.2270 C   0  0  0  0  0  0  0  0  0  0  0  0
   30.7050   47.5780   -4.9340 N   0  0  0  0  0  0  0  0  0  0  0  0
   30.3870   46.5380   -5.8140 C   0  0  0  0  0  0  0  0  0  0  0  0
   32.0390   47.6180   -4.3780 C   0  0  0  0  0  0  0  0  0  0  0  0
   31.2730   46.3670   -6.8250 O   0  0  0  0  0  0  0  0  0  0  0  0
   29.4300   45.7750   -5.7880 O   0  0  0  0  0  0  0  0  0  0  0  0
   32.6010   46.5630   -3.6400 C   0  0  0  0  0  0  0  0  0  0  0  0
   32.8400   48.7640   -4.5720 C   0  0  0  0  0  0  0  0  0  0  0  0
   33.9020   46.6540   -3.1270 C   0  0  0  0  0  0  0  0  0  0  0  0
   34.1330   48.8570   -4.0610 C   0  0  0  0  0  0  0  0  0  0  0  0
   34.6670   47.7970   -3.3350 C   0  0  0  0  0  0  0  0  0  0  0  0
  1  2  1  0
  2  3  2  0
  2  4  1  0
  3  5  1  0
  4  6  1  0
  5  6  2  0
  5  7  1  0
  6  8  1  0
  7  9  2  0
  8 10  2  0
  9 10  1  0
 10 11  1  0
 11 12  1  0
 11 13  1  0
 12 14  1  0
 12 15  2  0
 13 16  2  0
 13 17  1  0
 16 18  1  0
 17 19  2  0
 18 20  2  0
 19 20  1  0
M  END
