mac-x0123-mac-x0142
     RDKit          3D

 26 31  0  0  0  0  0  0  0  0999 V2000
   27.7870   52.2510   -5.8720 N   0  0  0  0  0  0  0  0  0  0  0  0
   29.1750   52.0120   -6.2590 C   0  0  1  0  0  0  0  0  0  0  0  0
   30.0350   53.2980   -6.1150 C   0  0  2  0  0  0  0  0  0  0  0  0
   29.6700   50.9340   -5.4020 N   0  0  0  0  0  0  0  0  0  0  0  0
   29.9770   51.3770   -4.0450 C   0  0  1  0  0  0  0  0  0  0  0  0
   30.0490   53.7120   -4.6230 C   0  0  2  0  0  0  0  0  0  0  0  0
   29.7120   54.5780   -6.8370 C   0  0  0  0  0  0  0  0  0  0  0  0
   28.9580   49.6150   -5.3450 C   0  0  1  0  0  0  0  0  0  0  0  0
   29.4250   52.6930   -3.7840 N   0  0  0  0  0  0  0  0  0  0  0  0
   29.5280   55.1580   -4.5400 C   0  0  0  0  0  0  0  0  0  0  0  0
   29.4430   55.5750   -5.9850 C   0  0  0  0  0  0  0  0  0  0  0  0
   29.3270   50.4830   -3.1240 N   0  0  0  0  0  0  0  0  0  0  0  0
   28.3190   49.8190   -3.9490 C   0  0  0  0  0  0  0  0  0  0  0  0
   27.8380   49.5000   -6.4050 C   0  0  0  0  0  0  0  0  0  0  0  0
   29.6010   48.1450   -5.4650 C   0  0  2  0  0  0  0  0  0  0  0  0
   30.3360   47.5550   -4.3140 N   0  0  0  0  0  0  0  0  0  0  0  0
   30.1460   47.8600   -6.7900 N   0  0  0  0  0  0  0  0  0  0  0  0
   28.2810   49.0550   -7.7430 N   0  0  0  0  0  0  0  0  0  0  0  0
   31.5200   48.2790   -3.8090 C   0  0  0  0  0  0  0  0  0  0  0  0
   30.3750   46.0930   -4.1590 C   0  0  0  0  0  0  0  0  0  0  0  0
   29.1190   47.8630   -7.8030 C   0  0  0  0  0  0  0  0  0  0  0  0
   31.7420   45.4740   -4.3730 C   0  0  0  0  0  0  0  0  0  0  0  0
   32.8900   47.6010   -3.9690 C   0  0  0  0  0  0  0  0  0  0  0  0
   31.8110   43.9690   -4.5730 C   0  0  0  0  0  0  0  0  0  0  0  0
   32.0960   44.8850   -5.7240 C   0  0  0  0  0  0  0  0  0  0  0  0
   32.8420   46.1340   -3.5820 C   0  0  0  0  0  0  0  0  0  0  0  0
  2  1  1  1
  2  3  1  0
  2  4  1  0
  4  5  1  0
  3  6  1  0
  3  7  1  6
  4  8  1  0
  5  9  1  6
  6  9  1  0
  6 10  1  6
  7 11  2  0
 10 11  1  0
  5 12  1  0
  8 13  1  1
 12 13  1  0
  8 14  1  0
  8 15  1  0
 15 16  1  1
 15 17  1  0
 14 18  1  0
 16 19  1  0
 16 20  1  0
 17 21  1  0
 18 21  1  0
 22 20  1  0
 19 23  1  0
 22 24  1  0
 22 25  1  0
 24 25  1  0
 22 26  1  0
 23 26  1  0
M  END
