mac-x0305-mac-x0380
     RDKit          3D

 25 27  0  0  0  0  0  0  0  0999 V2000
   29.5260   46.5410   -6.5890 O   0  0  0  0  0  0  0  0  0  0  0  0
   30.2520   47.2980   -5.6180 C   0  0  0  0  0  0  0  0  0  0  0  0
   31.4840   46.6020   -5.4270 O   0  0  0  0  0  0  0  0  0  0  0  0
   29.4490   47.2740   -4.2860 C   0  0  0  0  0  0  0  0  0  0  0  0
   30.5530   48.7400   -6.0550 C   0  0  0  0  0  0  0  0  0  0  0  0
   28.2090   48.0150   -4.4590 O   0  0  0  0  0  0  0  0  0  0  0  0
   29.9790   49.3050   -7.2040 C   0  0  0  0  0  0  0  0  0  0  0  0
   31.4110   49.4650   -5.2750 N   0  0  0  0  0  0  0  0  0  0  0  0
   29.1230   48.5810   -7.9890 O   0  0  0  0  0  0  0  0  0  0  0  0
   27.9820   48.9930   -3.5440 C   0  0  0  0  0  0  0  0  0  0  0  0
   30.2820   50.6190   -7.5520 C   0  0  0  0  0  0  0  0  0  0  0  0
   31.6860   50.7360   -5.6360 C   0  0  0  0  0  0  0  0  0  0  0  0
   27.8970   48.8450   -2.3300 O   0  0  0  0  0  0  0  0  0  0  0  0
   31.1500   51.3500   -6.7530 C   0  0  0  0  0  0  0  0  0  0  0  0
   27.8420   50.3200   -4.2150 C   0  0  0  0  0  0  0  0  0  0  0  0
   28.4190   51.4940   -3.7080 C   0  0  0  0  0  0  0  0  0  0  0  0
   27.1000   50.3830   -5.4030 C   0  0  0  0  0  0  0  0  0  0  0  0
   28.2550   52.7140   -4.3810 C   0  0  0  0  0  0  0  0  0  0  0  0
   26.9350   51.5970   -6.0760 C   0  0  0  0  0  0  0  0  0  0  0  0
   27.5120   52.7640   -5.5670 C   0  0  0  0  0  0  0  0  0  0  0  0
   29.0070   54.1760   -3.7000 S   0  0  0  0  0  0  0  0  0  0  0  0
   27.3220   53.9590   -6.2740 N   0  0  0  0  0  0  0  0  0  0  0  0
   29.2850   55.0800   -5.2420 C   0  0  0  0  0  0  0  0  0  0  0  0
   28.1000   55.0800   -6.1820 C   0  0  0  0  0  0  0  0  0  0  0  0
   27.8180   56.0670   -6.8650 O   0  0  0  0  0  0  0  0  0  0  0  0
  2  1  1  0
  2  3  1  0
  2  4  1  0
  2  5  1  0
  4  6  1  0
  5  7  2  0
  5  8  1  0
  7  9  1  0
  6 10  1  0
  7 11  1  0
  8 12  2  0
 10 13  2  0
 11 14  2  0
 12 14  1  0
 10 15  1  0
 15 16  2  0
 15 17  1  0
 16 18  1  0
 17 19  2  0
 18 20  2  0
 19 20  1  0
 18 21  1  0
 20 22  1  0
 21 23  1  0
 22 24  1  0
 23 24  1  0
 24 25  2  0
M  END
