mac-x0228-mac-x0455
     RDKit          3D

 21 23  0  0  0  0  0  0  0  0999 V2000
   29.0830   47.1070   -5.6060 C   0  0  0  0  0  0  0  0  0  0  0  0
   30.2750   47.6200   -4.8450 C   0  0  0  0  0  0  0  0  0  0  0  0
   31.2950   46.7960   -4.5070 C   0  0  0  0  0  0  0  0  0  0  0  0
   28.0050   46.8720   -5.0820 O   0  0  0  0  0  0  0  0  0  0  0  0
   29.2770   46.9050   -6.9290 O   0  0  0  0  0  0  0  0  0  0  0  0
   30.2810   49.0650   -4.4870 C   0  0  0  0  0  0  0  0  0  0  0  0
   31.2760   45.4510   -4.8480 O   0  0  0  0  0  0  0  0  0  0  0  0
   29.9960   50.0290   -5.4670 C   0  0  0  0  0  0  0  0  0  0  0  0
   30.5700   49.4820   -3.1630 C   0  0  0  0  0  0  0  0  0  0  0  0
   32.5150   47.1780   -3.7730 C   0  0  0  0  0  0  0  0  0  0  0  0
   30.0040   51.3680   -5.1100 C   0  0  0  0  0  0  0  0  0  0  0  0
   30.5750   50.8370   -2.8220 C   0  0  0  0  0  0  0  0  0  0  0  0
   33.0770   48.4540   -3.9020 C   0  0  0  0  0  0  0  0  0  0  0  0
   33.1260   46.2380   -2.9340 C   0  0  0  0  0  0  0  0  0  0  0  0
   30.2880   51.7550   -3.8100 C   0  0  0  0  0  0  0  0  0  0  0  0
   29.7410   52.5680   -5.9340 C   0  0  0  0  0  0  0  0  0  0  0  0
   34.2340   48.7830   -3.1960 C   0  0  0  0  0  0  0  0  0  0  0  0
   34.2840   46.5700   -2.2300 C   0  0  0  0  0  0  0  0  0  0  0  0
   30.2540   53.1140   -3.6220 O   0  0  0  0  0  0  0  0  0  0  0  0
   30.2280   53.6470   -4.9660 C   0  0  0  0  0  0  0  0  0  0  0  0
   34.8370   47.8430   -2.3630 C   0  0  0  0  0  0  0  0  0  0  0  0
  1  2  1  0
  2  3  2  3
  1  4  2  0
  1  5  1  0
  2  6  1  0
  3  7  1  0
  6  8  2  0
  6  9  1  0
  3 10  1  0
  8 11  1  0
  9 12  2  0
 10 13  2  0
 10 14  1  0
 11 15  2  0
 12 15  1  0
 11 16  1  0
 13 17  1  0
 14 18  2  0
 15 19  1  0
 16 20  1  0
 19 20  1  0
 17 21  2  0
 18 21  1  0
M  END
