mac-x0115-mac-x0263
     RDKit          3D

 32 35  0  0  0  0  0  0  0  0999 V2000
   27.9270   45.7540   -1.7300 C   0  0  0  0  0  0  0  0  0  0  0  0
   28.8900   44.6760   -2.2170 C   0  0  0  0  0  0  0  0  0  0  0  0
   28.1360   43.5980   -2.9880 C   0  0  0  0  0  0  0  0  0  0  0  0
   29.8490   45.2740   -3.0940 O   0  0  0  0  0  0  0  0  0  0  0  0
   30.2540   44.4670   -4.2040 C   0  0  0  0  0  0  0  0  0  0  0  0
   31.2660   45.2690   -5.0310 C   0  0  0  0  0  0  0  0  0  0  0  0
   30.6490   45.9330   -6.2130 N   0  0  0  0  0  0  0  0  0  0  0  0
   30.3300   45.2130   -7.3790 C   0  0  0  0  0  0  0  0  0  0  0  0
   29.9850   47.1430   -6.0920 C   0  0  0  0  0  0  0  0  0  0  0  0
   30.5450   43.5750   -7.6550 S   0  0  0  0  0  0  0  0  0  0  0  0
   29.7710   45.9560   -8.4140 N   0  0  0  0  0  0  0  0  0  0  0  0
   30.0410   48.0710   -7.2490 C   0  0  1  0  0  0  0  0  0  0  0  0
   29.2640   47.6560   -5.1070 C   0  0  0  0  0  0  0  0  0  0  0  0
   29.4820   47.3170   -8.4320 C   0  0  0  0  0  0  0  0  0  0  0  0
   29.2240   49.2370   -6.8870 N   0  0  0  0  0  0  0  0  0  0  0  0
   28.8040   48.9250   -5.7040 C   0  0  0  0  0  0  0  0  0  0  0  0
   28.8290   47.8130   -9.3470 O   0  0  0  0  0  0  0  0  0  0  0  0
   27.8110   49.7790   -4.9900 C   0  0  0  0  0  0  0  0  0  0  0  0
   28.0180   51.2650   -5.0490 C   0  0  0  0  0  0  0  0  0  0  0  0
   28.3780   51.8340   -3.8390 C   0  0  0  0  0  0  0  0  0  0  0  0
   27.8610   52.0800   -6.2090 C   0  0  0  0  0  0  0  0  0  0  0  0
   28.0760   53.4740   -6.0680 C   0  0  0  0  0  0  0  0  0  0  0  0
   28.5940   53.1880   -3.6920 C   0  0  0  0  0  0  0  0  0  0  0  0
   28.4310   53.9680   -4.8170 C   0  0  0  0  0  0  0  0  0  0  0  0
   27.9950   54.5140   -6.9800 N   0  0  0  0  0  0  0  0  0  0  0  0
   28.2860   55.6060   -6.2830 C   0  0  0  0  0  0  0  0  0  0  0  0
   28.5600   55.3090   -4.9840 N   0  0  0  0  0  0  0  0  0  0  0  0
   28.3240   57.0220   -6.7560 C   0  0  0  0  0  0  0  0  0  0  0  0
   27.3510   57.8430   -5.9100 C   0  0  0  0  0  0  0  0  0  0  0  0
   27.0410   59.2110   -6.4620 C   0  0  0  0  0  0  0  0  0  0  0  0
   28.1080   60.0220   -6.5950 O   0  0  0  0  0  0  0  0  0  0  0  0
   25.9080   59.5680   -6.7590 O   0  0  0  0  0  0  0  0  0  0  0  0
  1  2  1  0
  2  3  1  0
  2  4  1  0
  4  5  1  0
  5  6  1  0
  6  7  1  0
  7  8  1  0
  7  9  1  0
  8 10  2  0
  8 11  1  0
  9 12  1  0
  9 13  2  0
 11 14  1  0
 12 14  1  0
 12 15  1  1
 13 16  1  0
 15 16  2  0
 14 17  2  0
 16 18  1  0
 18 19  1  0
 19 20  2  0
 19 21  1  0
 21 22  2  0
 20 23  1  0
 22 24  1  0
 23 24  2  0
 22 25  1  0
 25 26  2  0
 24 27  1  0
 26 27  1  0
 26 28  1  0
 28 29  1  0
 29 30  1  0
 30 31  1  0
 30 32  2  0
M  END
