mac-x0231-mac-x0588
     RDKit          3D

 30 34  0  0  0  0  0  0  0  0999 V2000
   34.3500   45.7620   -6.8330 O   0  0  0  0  0  0  0  0  0  0  0  0
   33.2280   45.0870   -6.4810 C   0  0  0  0  0  0  0  0  0  0  0  0
   32.1950   45.1460   -7.1440 O   0  0  0  0  0  0  0  0  0  0  0  0
   33.4160   44.2870   -5.2260 C   0  0  0  0  0  0  0  0  0  0  0  0
   32.2880   44.4320   -4.2340 C   0  0  0  0  0  0  0  0  0  0  0  0
   32.3520   45.4790   -3.1600 C   0  0  0  0  0  0  0  0  0  0  0  0
   31.2860   43.6020   -4.3620 N   0  0  0  0  0  0  0  0  0  0  0  0
   31.1900   45.6940   -2.4130 C   0  0  0  0  0  0  0  0  0  0  0  0
   30.2700   43.7210   -3.4630 N   0  0  0  0  0  0  0  0  0  0  0  0
   33.5010   46.2310   -2.8900 C   0  0  0  0  0  0  0  0  0  0  0  0
   30.0210   44.8980   -2.7750 C   0  0  0  0  0  0  0  0  0  0  0  0
   31.1900   46.6600   -1.3950 C   0  0  0  0  0  0  0  0  0  0  0  0
   33.4870   47.1960   -1.8730 C   0  0  0  0  0  0  0  0  0  0  0  0
   32.3300   47.4070   -1.1270 C   0  0  0  0  0  0  0  0  0  0  0  0
   28.8210   45.3490   -2.4940 C   0  0  0  0  0  0  0  0  0  0  0  0
   27.5360   44.7960   -2.8770 C   0  0  0  0  0  0  0  0  0  0  0  0
   28.4450   46.5980   -1.7630 C   0  0  0  0  0  0  0  0  0  0  0  0
   27.3470   47.0610   -2.5450 O   0  0  0  0  0  0  0  0  0  0  0  0
   27.3030   46.1140   -3.6160 C   0  0  1  0  0  0  0  0  0  0  0  0
   28.4200   46.4690   -4.6650 C   0  0  0  0  0  0  0  0  0  0  0  0
   28.7310   47.8640   -5.0390 N   0  0  0  0  0  0  0  0  0  0  0  0
   29.3350   48.7870   -4.0830 C   0  0  0  0  0  0  0  0  0  0  0  0
   29.1800   48.1040   -6.3770 C   0  0  2  0  0  0  0  0  0  0  0  0
   29.1140   50.1890   -4.5030 N   0  0  0  0  0  0  0  0  0  0  0  0
   28.6690   49.4480   -6.8680 C   0  0  1  0  0  0  0  0  0  0  0  0
   28.7390   47.1930   -7.4230 N   0  0  0  0  0  0  0  0  0  0  0  0
   29.3260   50.4840   -5.9240 C   0  0  1  0  0  0  0  0  0  0  0  0
   28.9750   49.4090   -8.3060 N   0  0  0  0  0  0  0  0  0  0  0  0
   28.7830   47.9900   -8.6540 C   0  0  0  0  0  0  0  0  0  0  0  0
   28.8010   51.8240   -6.1410 N   0  0  0  0  0  0  0  0  0  0  0  0
  1  2  1  0
  2  3  2  0
  2  4  1  0
  4  5  1  0
  5  6  1  0
  5  7  2  0
  6  8  2  0
  7  9  1  0
  6 10  1  0
  8 11  1  0
  9 11  1  0
  8 12  1  0
 10 13  2  0
 12 14  2  0
 13 14  1  0
 11 15  2  3
 15 16  1  0
 15 17  1  0
 17 18  1  0
 16 19  1  0
 18 19  1  0
 19 20  1  6
 20 21  1  0
 21 22  1  0
 21 23  1  0
 22 24  1  0
 23 25  1  0
 23 26  1  6
 24 27  1  0
 25 27  1  0
 25 28  1  6
 26 29  1  0
 28 29  1  0
 27 30  1  6
M  END
