mac-x0411-mac-x0588
     RDKit          3D

 30 33  0  0  0  0  0  0  0  0999 V2000
   36.6960   43.9800   -2.4340 Cl  0  0  0  0  0  0  0  0  0  0  0  0
   35.9910   45.5380   -2.6860 C   0  0  0  0  0  0  0  0  0  0  0  0
   34.9950   45.7570   -3.6570 C   0  0  0  0  0  0  0  0  0  0  0  0
   36.4390   46.5920   -1.8900 C   0  0  0  0  0  0  0  0  0  0  0  0
   34.5410   44.7230   -4.4540 O   0  0  0  0  0  0  0  0  0  0  0  0
   34.4400   47.0400   -3.8330 C   0  0  0  0  0  0  0  0  0  0  0  0
   35.8990   47.8610   -2.0570 C   0  0  0  0  0  0  0  0  0  0  0  0
   33.3620   47.3130   -4.8710 C   0  0  0  0  0  0  0  0  0  0  0  0
   35.4310   44.4900   -5.5650 C   0  0  0  0  0  0  0  0  0  0  0  0
   34.9110   48.0810   -3.0170 C   0  0  0  0  0  0  0  0  0  0  0  0
   34.6460   43.8700   -6.7150 C   0  0  0  0  0  0  0  0  0  0  0  0
   31.9790   46.6620   -4.6740 C   0  0  0  0  0  0  0  0  0  0  0  0
   33.8580   42.8270   -6.3310 O   0  0  0  0  0  0  0  0  0  0  0  0
   34.7050   44.2650   -7.8700 O   0  0  0  0  0  0  0  0  0  0  0  0
   30.9900   47.4220   -3.7380 C   0  0  1  0  0  0  0  0  0  0  0  0
   30.2510   48.5310   -4.4320 N   0  0  0  0  0  0  0  0  0  0  0  0
   29.9760   46.5250   -2.9660 C   0  0  1  0  0  0  0  0  0  0  0  0
   29.6980   49.5720   -3.5580 C   0  0  0  0  0  0  0  0  0  0  0  0
   29.2400   48.1350   -5.3950 C   0  0  1  0  0  0  0  0  0  0  0  0
   29.0140   47.2520   -2.1830 O   0  0  0  0  0  0  0  0  0  0  0  0
   29.1580   45.5590   -3.8120 C   0  0  0  0  0  0  0  0  0  0  0  0
   29.2200   50.7320   -4.3260 N   0  0  0  0  0  0  0  0  0  0  0  0
   28.9270   49.2650   -6.3330 C   0  0  2  0  0  0  0  0  0  0  0  0
   29.6530   47.1330   -6.3640 N   0  0  0  0  0  0  0  0  0  0  0  0
   28.0770   45.1580   -2.8400 C   0  0  0  0  0  0  0  0  0  0  0  0
   27.8460   46.4290   -2.0410 C   0  0  0  0  0  0  0  0  0  0  0  0
   28.3950   50.4450   -5.4860 C   0  0  2  0  0  0  0  0  0  0  0  0
   28.0080   48.5970   -7.2740 N   0  0  0  0  0  0  0  0  0  0  0  0
   28.5990   47.2550   -7.3830 C   0  0  0  0  0  0  0  0  0  0  0  0
   28.3740   51.7230   -6.1950 N   0  0  0  0  0  0  0  0  0  0  0  0
  1  2  1  0
  2  3  2  0
  2  4  1  0
  3  5  1  0
  3  6  1  0
  4  7  2  0
  6  8  1  0
  5  9  1  0
  6 10  2  0
  7 10  1  0
  9 11  1  0
  8 12  1  0
 11 13  1  0
 11 14  2  0
 15 12  1  6
 15 16  1  0
 15 17  1  0
 16 18  1  0
 16 19  1  0
 17 20  1  0
 17 21  1  6
 18 22  1  0
 19 23  1  0
 19 24  1  6
 21 25  1  0
 20 26  1  0
 25 26  1  0
 22 27  1  0
 23 27  1  0
 23 28  1  6
 24 29  1  0
 28 29  1  0
 27 30  1  6
M  END
