mac-x0303-mac-x0138
     RDKit          3D

 21 23  0  0  0  0  0  0  0  0999 V2000
   30.8540   56.1570   -6.5370 N   0  0  0  0  0  0  0  0  0  0  0  0
   29.5220   55.8710   -5.5370 S   0  0  0  0  0  0  0  0  0  0  0  0
   28.3710   56.3800   -6.2490 O   0  0  0  0  0  0  0  0  0  0  0  0
   29.8630   56.3240   -4.2050 O   0  0  0  0  0  0  0  0  0  0  0  0
   29.3490   54.1220   -5.4380 C   0  0  0  0  0  0  0  0  0  0  0  0
   29.0490   53.5750   -4.2190 N   0  0  0  0  0  0  0  0  0  0  0  0
   29.4750   53.2650   -6.4310 N   0  0  0  0  0  0  0  0  0  0  0  0
   29.2770   52.2310   -4.3620 C   0  0  0  0  0  0  0  0  0  0  0  0
   29.2330   52.0210   -5.8160 C   0  0  0  0  0  0  0  0  0  0  0  0
   29.4910   51.3340   -3.3930 C   0  0  0  0  0  0  0  0  0  0  0  0
   29.0020   50.8660   -6.4670 C   0  0  0  0  0  0  0  0  0  0  0  0
   29.7380   49.9120   -3.5440 C   0  0  0  0  0  0  0  0  0  0  0  0
   28.7270   49.5020   -5.9230 C   0  0  2  0  0  0  0  0  0  0  0  0
   29.0080   50.8920   -7.9330 C   0  0  0  0  0  0  0  0  0  0  0  0
   30.4280   49.2740   -2.3600 C   0  0  0  0  0  0  0  0  0  0  0  0
   27.2920   49.3240   -5.7050 N   0  0  0  0  0  0  0  0  0  0  0  0
   29.4100   49.1580   -4.6150 C   0  0  0  0  0  0  0  0  0  0  0  0
   29.1120   48.4370   -6.8340 N   0  0  0  0  0  0  0  0  0  0  0  0
   29.1410   49.8540   -8.6890 N   0  0  0  0  0  0  0  0  0  0  0  0
   29.2870   48.6500   -8.0850 C   0  0  0  0  0  0  0  0  0  0  0  0
   29.6440   47.6180   -8.8880 N   0  0  0  0  0  0  0  0  0  0  0  0
  2  1  1  0
  2  3  2  0
  2  4  2  0
  2  5  1  0
  5  6  1  0
  5  7  2  0
  6  8  1  0
  7  9  1  0
  8  9  1  0
  8 10  2  0
  9 11  2  0
 10 12  1  0
 11 13  1  0
 11 14  1  0
 12 15  1  0
 13 16  1  1
 12 17  2  0
 13 17  1  0
 13 18  1  0
 14 19  2  0
 18 20  2  0
 19 20  1  0
 20 21  1  0
M  END
