mac-x0380-mac-x0345
     RDKit          3D

 16 17  0  0  0  0  0  0  0  0999 V2000
   30.3500   48.8660   -4.6580 O   0  0  0  0  0  0  0  0  0  0  0  0
   29.3890   49.5110   -3.9760 C   0  0  0  0  0  0  0  0  0  0  0  0
   28.9240   49.0700   -2.9430 O   0  0  0  0  0  0  0  0  0  0  0  0
   28.9940   50.7840   -4.6300 C   0  0  0  0  0  0  0  0  0  0  0  0
   29.1740   52.0570   -4.0430 C   0  0  0  0  0  0  0  0  0  0  0  0
   28.4140   50.6520   -5.9000 C   0  0  0  0  0  0  0  0  0  0  0  0
   29.8010   52.1870   -2.6730 C   0  0  0  0  0  0  0  0  0  0  0  0
   28.7540   53.2030   -4.7640 C   0  0  0  0  0  0  0  0  0  0  0  0
   28.0080   51.7870   -6.5970 C   0  0  0  0  0  0  0  0  0  0  0  0
   27.2290   51.5330   -8.3170 Br  0  0  0  0  0  0  0  0  0  0  0  0
   28.1700   53.0680   -6.0450 C   0  0  0  0  0  0  0  0  0  0  0  0
   28.9640   54.8410   -4.0580 S   0  0  0  0  0  0  0  0  0  0  0  0
   27.7420   54.1850   -6.7900 N   0  0  0  0  0  0  0  0  0  0  0  0
   29.1580   55.7970   -5.5730 C   0  0  0  0  0  0  0  0  0  0  0  0
   28.0910   55.4880   -6.5910 C   0  0  0  0  0  0  0  0  0  0  0  0
   27.5370   56.3770   -7.2400 O   0  0  0  0  0  0  0  0  0  0  0  0
  1  2  1  0
  2  3  2  0
  2  4  1  0
  4  5  2  0
  4  6  1  0
  5  7  1  0
  5  8  1  0
  6  9  2  0
  9 10  1  0
  8 11  2  0
  9 11  1  0
  8 12  1  0
 11 13  1  0
 12 14  1  0
 13 15  1  0
 14 15  1  0
 15 16  2  0
M  END
