mac-x0412-mac-x0402
     RDKit          3D

 12 13  0  0  0  0  0  0  0  0999 V2000
   29.8270   54.4400   -3.9910 O   0  0  0  0  0  0  0  0  0  0  0  0
   29.2170   53.7460   -4.8000 C   0  0  0  0  0  0  0  0  0  0  0  0
   28.7260   54.2740   -5.9830 N   0  0  0  0  0  0  0  0  0  0  0  0
   28.9420   52.2420   -4.5370 C   0  0  1  0  0  0  0  0  0  0  0  0
   29.0260   51.4360   -5.8270 C   0  0  0  0  0  0  0  0  0  0  0  0
   28.5580   53.4770   -6.9870 C   0  0  0  0  0  0  0  0  0  0  0  0
   29.7980   51.6580   -3.4360 C   0  0  0  0  0  0  0  0  0  0  0  0
   28.8390   52.0270   -7.0170 C   0  0  0  0  0  0  0  0  0  0  0  0
   29.3170   50.0070   -5.6950 C   0  0  0  0  0  0  0  0  0  0  0  0
   30.2270   50.3890   -3.4680 C   0  0  0  0  0  0  0  0  0  0  0  0
   29.8870   49.5200   -4.5700 C   0  0  0  0  0  0  0  0  0  0  0  0
   30.2520   47.8410   -4.3710 Cl  0  0  0  0  0  0  0  0  0  0  0  0
  1  2  2  0
  2  3  1  0
  2  4  1  0
  4  5  1  0
  3  6  2  0
  4  7  1  1
  5  8  2  0
  6  8  1  0
  5  9  1  0
  7 10  2  0
  9 11  2  0
 10 11  1  0
 11 12  1  0
M  END
