mac-x0337-mac-x0283
     RDKit          3D

 21 23  0  0  0  0  0  0  0  0999 V2000
   35.1610   52.3760   -4.8680 C   0  0  0  0  0  0  0  0  0  0  0  0
   33.8780   51.7110   -5.2790 C   0  0  0  0  0  0  0  0  0  0  0  0
   32.8110   52.4680   -5.7770 C   0  0  0  0  0  0  0  0  0  0  0  0
   33.7390   50.3220   -5.1670 C   0  0  0  0  0  0  0  0  0  0  0  0
   32.5550   49.6920   -5.5520 C   0  0  0  0  0  0  0  0  0  0  0  0
   31.6220   51.8440   -6.1640 C   0  0  0  0  0  0  0  0  0  0  0  0
   31.4970   50.4520   -6.0540 C   0  0  0  0  0  0  0  0  0  0  0  0
   29.9830   49.6350   -6.5540 S   0  0  0  0  0  0  0  0  0  0  0  0
   29.7390   48.5670   -5.6070 O   0  0  0  0  0  0  0  0  0  0  0  0
   30.0270   49.4020   -7.9720 O   0  0  0  0  0  0  0  0  0  0  0  0
   28.8640   50.8500   -6.3280 N   0  0  0  0  0  0  0  0  0  0  0  0
   29.0810   51.3500   -5.0630 C   0  0  0  0  0  0  0  0  0  0  0  0
   29.1870   52.7070   -4.7700 C   0  0  0  0  0  0  0  0  0  0  0  0
   29.2130   50.3940   -4.0610 C   0  0  0  0  0  0  0  0  0  0  0  0
   29.1230   53.9680   -5.4180 C   0  0  0  0  0  0  0  0  0  0  0  0
   29.4340   53.0270   -3.4520 C   0  0  0  0  0  0  0  0  0  0  0  0
   29.4580   50.7580   -2.7590 C   0  0  0  0  0  0  0  0  0  0  0  0
   28.8920   54.1560   -6.7410 N   0  0  0  0  0  0  0  0  0  0  0  0
   29.3180   54.9680   -4.5590 N   0  0  0  0  0  0  0  0  0  0  0  0
   29.5140   54.3720   -3.3240 O   0  0  0  0  0  0  0  0  0  0  0  0
   29.5780   52.1030   -2.4170 C   0  0  0  0  0  0  0  0  0  0  0  0
  1  2  1  0
  2  3  2  0
  2  4  1  0
  4  5  2  0
  3  6  1  0
  5  7  1  0
  6  7  2  0
  7  8  1  0
  8  9  2  0
  8 10  2  0
  8 11  1  0
 11 12  1  0
 12 13  1  0
 12 14  2  0
 13 15  1  0
 13 16  2  0
 14 17  1  0
 15 18  1  0
 15 19  2  0
 16 20  1  0
 19 20  1  0
 16 21  1  0
 17 21  2  0
M  END
