mac-x0328
     RDKit          3D

 10 10  0  0  0  0  0  0  0  0999 V2000
   30.7710   47.4520   -3.5650 O   0  0  0  0  0  0  0  0  0  0  0  0
   30.2570   48.1390   -4.4850 C   0  0  0  0  0  0  0  0  0  0  0  0
   30.0090   47.6060   -5.5850 O   0  0  0  0  0  0  0  0  0  0  0  0
   29.9930   49.6340   -4.3460 C   0  0  0  0  0  0  0  0  0  0  0  0
   30.1820   50.2730   -3.1420 C   0  0  0  0  0  0  0  0  0  0  0  0
   29.9680   51.6410   -3.0750 C   0  0  0  0  0  0  0  0  0  0  0  0
   29.5940   52.3790   -4.1810 C   0  0  0  0  0  0  0  0  0  0  0  0
   29.4300   53.7550   -4.0450 O   0  0  0  0  0  0  0  0  0  0  0  0
   29.4270   51.7440   -5.3890 C   0  0  0  0  0  0  0  0  0  0  0  0
   29.6330   50.3740   -5.4730 C   0  0  0  0  0  0  0  0  0  0  0  0
  1  2  1  0
  2  3  2  0
  2  4  1  0
  4  5  2  0
  5  6  1  0
  6  7  2  0
  7  8  1  0
  7  9  1  0
  4 10  1  0
  9 10  2  0
M  END
