mac-x0341-mac-x0496
     RDKit          3D

 25 27  0  0  0  0  0  0  0  0999 V2000
   28.8560   54.2590   -7.6700 N   0  0  0  0  0  0  0  0  0  0  0  0
   28.7500   53.2380   -6.7630 C   0  0  0  0  0  0  0  0  0  0  0  0
   28.3970   52.0930   -7.2420 N   0  0  0  0  0  0  0  0  0  0  0  0
   29.0040   53.4150   -5.4030 N   0  0  0  0  0  0  0  0  0  0  0  0
   29.1530   54.6610   -4.8330 C   0  0  0  0  0  0  0  0  0  0  0  0
   29.4740   52.3730   -4.6040 C   0  0  0  0  0  0  0  0  0  0  0  0
   28.2530   51.0100   -6.2530 C   0  0  2  0  0  0  0  0  0  0  0  0
   29.9990   52.5530   -3.5040 O   0  0  0  0  0  0  0  0  0  0  0  0
   29.1720   55.7030   -5.7290 N   0  0  0  0  0  0  0  0  0  0  0  0
   29.2670   54.8390   -3.6210 O   0  0  0  0  0  0  0  0  0  0  0  0
   29.3210   50.9460   -5.1300 C   0  0  2  0  0  0  0  0  0  0  0  0
   28.0750   49.6740   -6.9180 C   0  0  0  0  0  0  0  0  0  0  0  0
   29.2520   57.0740   -5.2580 C   0  0  0  0  0  0  0  0  0  0  0  0
   29.1030   49.9650   -3.9430 C   0  0  0  0  0  0  0  0  0  0  0  0
   29.1320   48.8640   -7.0530 C   0  0  0  0  0  0  0  0  0  0  0  0
   30.5580   50.2770   -5.6820 C   0  0  0  0  0  0  0  0  0  0  0  0
   28.9330   48.7560   -4.0470 O   0  0  0  0  0  0  0  0  0  0  0  0
   29.1460   50.5250   -2.7010 O   0  0  0  0  0  0  0  0  0  0  0  0
   30.4310   49.2870   -6.5780 C   0  0  0  0  0  0  0  0  0  0  0  0
   27.8860   57.6540   -5.2260 C   0  0  0  0  0  0  0  0  0  0  0  0
   27.5630   58.4160   -4.1440 O   0  0  0  0  0  0  0  0  0  0  0  0
   26.9110   57.5430   -6.1040 N   0  0  0  0  0  0  0  0  0  0  0  0
   25.9200   58.2880   -5.5210 C   0  0  0  0  0  0  0  0  0  0  0  0
   26.2460   58.8380   -4.3440 N   0  0  0  0  0  0  0  0  0  0  0  0
   24.5960   58.4660   -6.1430 C   0  0  0  0  0  0  0  0  0  0  0  0
  1  2  1  0
  2  3  2  0
  2  4  1  0
  4  5  1  0
  4  6  1  0
  3  7  1  0
  6  8  2  0
  5  9  1  0
  5 10  2  0
  6 11  1  0
  7 11  1  0
  7 12  1  6
  9 13  1  0
 11 14  1  1
 12 15  2  0
 11 16  1  0
 14 17  2  0
 14 18  1  0
 15 19  1  0
 16 19  2  0
 13 20  1  0
 20 21  1  0
 20 22  2  0
 22 23  1  0
 21 24  1  0
 23 24  2  0
 23 25  1  0
M  END
