mac-x0375-mac-x0411
     RDKit          3D

 13 13  0  0  0  0  0  0  0  0999 V2000
   31.8450   44.0390   -5.5490 O   0  0  0  0  0  0  0  0  0  0  0  0
   32.8680   44.6130   -6.2390 C   0  0  0  0  0  0  0  0  0  0  0  0
   33.1170   44.2790   -7.3910 O   0  0  0  0  0  0  0  0  0  0  0  0
   33.6150   45.6770   -5.4300 C   0  0  0  0  0  0  0  0  0  0  0  0
   34.0720   45.1700   -4.1760 O   0  0  0  0  0  0  0  0  0  0  0  0
   34.9810   46.0190   -3.5820 C   0  0  0  0  0  0  0  0  0  0  0  0
   36.3480   45.6870   -3.5440 C   0  0  0  0  0  0  0  0  0  0  0  0
   34.5610   47.2300   -3.0050 C   0  0  0  0  0  0  0  0  0  0  0  0
   36.9520   44.2180   -4.2260 Cl  0  0  0  0  0  0  0  0  0  0  0  0
   32.9030   47.7170   -3.0030 Cl  0  0  0  0  0  0  0  0  0  0  0  0
   37.2680   46.5510   -2.9440 C   0  0  0  0  0  0  0  0  0  0  0  0
   35.4900   48.0870   -2.4070 C   0  0  0  0  0  0  0  0  0  0  0  0
   36.8410   47.7500   -2.3760 C   0  0  0  0  0  0  0  0  0  0  0  0
  1  2  1  0
  2  3  2  0
  2  4  1  0
  4  5  1  0
  5  6  1  0
  6  7  2  0
  6  8  1  0
  7  9  1  0
  8 10  1  0
  7 11  1  0
  8 12  2  0
 11 13  2  0
 12 13  1  0
M  END
