mac-x0321-mac-x0358
     RDKit          3D

 21 22  0  0  0  0  0  0  0  0999 V2000
   28.4950   51.5970   -7.5850 Cl  0  0  0  0  0  0  0  0  0  0  0  0
   28.7310   51.4000   -5.8910 C   0  0  0  0  0  0  0  0  0  0  0  0
   29.3200   50.2350   -5.4020 C   0  0  0  0  0  0  0  0  0  0  0  0
   28.3300   52.4150   -5.0220 C   0  0  0  0  0  0  0  0  0  0  0  0
   29.5090   50.0780   -4.0200 C   0  0  0  0  0  0  0  0  0  0  0  0
   28.5150   52.2620   -3.6460 C   0  0  0  0  0  0  0  0  0  0  0  0
   30.1380   48.8350   -3.5160 C   0  0  0  0  0  0  0  0  0  0  0  0
   29.1060   51.0990   -3.1480 C   0  0  0  0  0  0  0  0  0  0  0  0
   29.2230   47.9200   -3.1450 O   0  0  0  0  0  0  0  0  0  0  0  0
   31.4200   48.6690   -3.4470 N   0  0  0  0  0  0  0  0  0  0  0  0
   31.9760   47.4810   -2.9580 C   0  0  0  0  0  0  0  0  0  0  0  0
   32.7260   46.6220   -3.7890 C   0  0  0  0  0  0  0  0  0  0  0  0
   31.7720   47.1570   -1.6070 C   0  0  0  0  0  0  0  0  0  0  0  0
   32.9520   46.9670   -5.2520 C   0  0  0  0  0  0  0  0  0  0  0  0
   33.2490   45.4490   -3.2120 C   0  0  0  0  0  0  0  0  0  0  0  0
   32.3020   45.9900   -1.0660 C   0  0  0  0  0  0  0  0  0  0  0  0
   33.2950   45.7950   -6.1370 C   0  0  0  0  0  0  0  0  0  0  0  0
   33.9890   44.5570   -3.9340 O   0  0  0  0  0  0  0  0  0  0  0  0
   33.0440   45.1330   -1.8720 C   0  0  0  0  0  0  0  0  0  0  0  0
   32.3390   45.5110   -7.0460 O   0  0  0  0  0  0  0  0  0  0  0  0
   34.3200   45.1260   -6.0910 O   0  0  0  0  0  0  0  0  0  0  0  0
  1  2  1  0
  2  3  2  0
  2  4  1  0
  3  5  1  0
  4  6  2  0
  5  7  1  0
  5  8  2  0
  6  8  1  0
  7  9  1  0
  7 10  2  3
 10 11  1  0
 11 12  2  0
 11 13  1  0
 12 14  1  0
 12 15  1  0
 13 16  2  0
 14 17  1  0
 15 18  1  0
 15 19  2  0
 16 19  1  0
 17 20  1  0
 17 21  2  0
M  END
