mac-x0182-mac-x0347
     RDKit          3D

 27 30  0  0  0  0  0  0  0  0999 V2000
   34.7560   43.0350   -2.6450 O   0  0  0  0  0  0  0  0  0  0  0  0
   34.7930   44.1170   -3.2090 C   0  0  0  0  0  0  0  0  0  0  0  0
   34.0510   44.4770   -4.3030 N   0  0  0  0  0  0  0  0  0  0  0  0
   35.6680   45.2320   -2.7830 C   0  0  0  0  0  0  0  0  0  0  0  0
   33.9270   46.1610   -4.3910 S   0  0  2  0  0  0  0  0  0  0  0  0
   35.3030   46.4400   -3.3660 C   0  0  0  0  0  0  0  0  0  0  0  0
   36.7420   45.1690   -1.9120 C   0  0  0  0  0  0  0  0  0  0  0  0
   32.6240   46.4590   -3.6390 N   0  0  0  0  0  0  0  0  0  0  0  0
   34.3080   46.4930   -5.7460 O   0  0  0  0  0  0  0  0  0  0  0  0
   35.9700   47.6250   -3.1230 C   0  0  0  0  0  0  0  0  0  0  0  0
   37.4390   46.3520   -1.6440 C   0  0  0  0  0  0  0  0  0  0  0  0
   37.0580   47.5710   -2.2440 C   0  0  0  0  0  0  0  0  0  0  0  0
   31.7950   47.5330   -4.1780 C   0  0  0  0  0  0  0  0  0  0  0  0
   30.8070   47.3680   -5.1520 C   0  0  0  0  0  0  0  0  0  0  0  0
   32.0880   48.7360   -3.6300 N   0  0  0  0  0  0  0  0  0  0  0  0
   30.4450   46.0880   -5.7730 C   0  0  0  0  0  0  0  0  0  0  0  0
   30.1040   48.5070   -5.5790 C   0  0  0  0  0  0  0  0  0  0  0  0
   31.3890   49.8080   -4.0670 C   0  0  0  0  0  0  0  0  0  0  0  0
   29.8830   45.2070   -4.9260 O   0  0  0  0  0  0  0  0  0  0  0  0
   30.6130   45.8120   -6.9520 O   0  0  0  0  0  0  0  0  0  0  0  0
   30.3900   49.7670   -5.0390 C   0  0  0  0  0  0  0  0  0  0  0  0
   29.6870   50.9820   -5.4690 C   0  0  0  0  0  0  0  0  0  0  0  0
   28.5620   50.9220   -6.3090 C   0  0  0  0  0  0  0  0  0  0  0  0
   30.1310   52.2480   -5.0520 C   0  0  0  0  0  0  0  0  0  0  0  0
   27.9050   52.0870   -6.7160 C   0  0  0  0  0  0  0  0  0  0  0  0
   29.4770   53.4120   -5.4590 C   0  0  0  0  0  0  0  0  0  0  0  0
   28.3650   53.3310   -6.2890 C   0  0  0  0  0  0  0  0  0  0  0  0
  1  2  2  0
  2  3  1  0
  2  4  1  0
  5  3  1  6
  4  6  2  0
  5  6  1  0
  4  7  1  0
  5  8  2  0
  5  9  2  0
  6 10  1  0
  7 11  2  0
 10 12  2  0
 11 12  1  0
  8 13  1  0
 13 14  2  0
 13 15  1  0
 14 16  1  0
 14 17  1  0
 15 18  2  0
 16 19  1  0
 16 20  2  0
 17 21  2  0
 18 21  1  0
 21 22  1  0
 22 23  2  0
 22 24  1  0
 23 25  1  0
 24 26  2  0
 25 27  2  0
 26 27  1  0
M  END
