mac-x0139-mac-x0305
     RDKit          3D

 18 19  0  0  0  0  0  0  0  0999 V2000
   30.3690   47.3680   -4.4990 C   0  0  0  0  0  0  0  0  0  0  0  0
   29.8530   46.5490   -5.5980 N   0  0  0  0  0  0  0  0  0  0  0  0
   30.7050   45.4380   -6.0480 C   0  0  2  0  0  0  0  0  0  0  0  0
   29.2820   47.3030   -6.6490 C   0  0  0  0  0  0  0  0  0  0  0  0
   32.1530   45.5100   -5.5790 C   0  0  0  0  0  0  0  0  0  0  0  0
   30.6720   45.4840   -7.4720 O   0  0  0  0  0  0  0  0  0  0  0  0
   29.2690   48.7190   -6.7030 C   0  0  0  0  0  0  0  0  0  0  0  0
   28.6980   46.6480   -7.6930 N   0  0  0  0  0  0  0  0  0  0  0  0
   33.0450   44.7450   -6.5140 C   0  0  0  0  0  0  0  0  0  0  0  0
   28.6630   49.2980   -7.8130 C   0  0  0  0  0  0  0  0  0  0  0  0
   28.1470   47.3430   -8.7060 C   0  0  0  0  0  0  0  0  0  0  0  0
   29.7300   49.8030   -5.8880 C   0  0  0  0  0  0  0  0  0  0  0  0
   32.7200   43.7720   -7.1790 O   0  0  0  0  0  0  0  0  0  0  0  0
   34.3060   45.2170   -6.5860 O   0  0  0  0  0  0  0  0  0  0  0  0
   28.0820   48.6740   -8.8520 N   0  0  0  0  0  0  0  0  0  0  0  0
   28.7540   50.6560   -7.6760 N   0  0  0  0  0  0  0  0  0  0  0  0
   29.3940   50.9860   -6.5190 C   0  0  0  0  0  0  0  0  0  0  0  0
   28.2600   51.5790   -8.5870 O   0  0  0  0  0  0  0  0  0  0  0  0
  1  2  1  0
  2  3  1  0
  2  4  1  0
  3  5  1  0
  3  6  1  6
  4  7  2  0
  4  8  1  0
  5  9  1  0
  7 10  1  0
  8 11  2  0
  7 12  1  0
  9 13  2  0
  9 14  1  0
 10 15  2  0
 11 15  1  0
 10 16  1  0
 12 17  2  0
 16 17  1  0
 16 18  1  0
M  END
