mac-x0263-mac-x0385
     RDKit          3D

 22 24  0  0  0  0  0  0  0  0999 V2000
   28.2080   60.2370   -5.8220 O   0  0  0  0  0  0  0  0  0  0  0  0
   27.0790   59.5700   -6.1640 C   0  0  0  0  0  0  0  0  0  0  0  0
   26.1510   60.1120   -6.7410 O   0  0  0  0  0  0  0  0  0  0  0  0
   27.1190   58.1220   -5.7480 C   0  0  0  0  0  0  0  0  0  0  0  0
   28.3390   57.4130   -6.3270 C   0  0  0  0  0  0  0  0  0  0  0  0
   28.2070   55.9270   -6.2560 C   0  0  0  0  0  0  0  0  0  0  0  0
   28.9560   55.1730   -5.3830 N   0  0  0  0  0  0  0  0  0  0  0  0
   27.4060   55.1620   -6.9690 N   0  0  0  0  0  0  0  0  0  0  0  0
   28.6130   53.8550   -5.5510 C   0  0  0  0  0  0  0  0  0  0  0  0
   27.6450   53.8760   -6.5460 C   0  0  0  0  0  0  0  0  0  0  0  0
   29.0520   52.6800   -4.9340 C   0  0  0  0  0  0  0  0  0  0  0  0
   27.0710   52.6730   -6.9670 C   0  0  0  0  0  0  0  0  0  0  0  0
   28.4760   51.4590   -5.3530 C   0  0  0  0  0  0  0  0  0  0  0  0
   27.4940   51.4760   -6.3630 C   0  0  0  0  0  0  0  0  0  0  0  0
   28.9060   50.1900   -4.7350 C   0  0  0  0  0  0  0  0  0  0  0  0
   29.2000   50.0480   -3.3830 C   0  0  0  0  0  0  0  0  0  0  0  0
   28.9920   49.1550   -5.6070 N   0  0  0  0  0  0  0  0  0  0  0  0
   29.1220   51.1520   -2.3810 C   0  0  0  0  0  0  0  0  0  0  0  0
   29.3770   47.9650   -5.1170 C   0  0  0  0  0  0  0  0  0  0  0  0
   29.5840   48.7770   -2.9970 C   0  0  0  0  0  0  0  0  0  0  0  0
   29.4710   46.8210   -6.0810 C   0  0  0  0  0  0  0  0  0  0  0  0
   29.6800   47.7270   -3.8320 N   0  0  0  0  0  0  0  0  0  0  0  0
  1  2  1  0
  2  3  2  0
  2  4  1  0
  4  5  1  0
  5  6  1  0
  6  7  1  0
  6  8  2  0
  7  9  1  0
  8 10  1  0
  9 10  2  0
  9 11  1  0
 10 12  1  0
 11 13  2  0
 12 14  2  0
 13 14  1  0
 13 15  1  0
 15 16  2  0
 15 17  1  0
 16 18  1  0
 17 19  2  0
 16 20  1  0
 19 21  1  0
 19 22  1  0
 20 22  2  0
M  END
