mac-x0213-mac-x0396
     RDKit          3D

 24 26  0  0  0  0  0  0  0  0999 V2000
   33.4180   45.9330   -6.0480 O   0  0  0  0  0  0  0  0  0  0  0  0
   32.1040   46.0850   -5.8410 C   0  0  0  0  0  0  0  0  0  0  0  0
   31.2780   46.4150   -6.7660 N   0  0  0  0  0  0  0  0  0  0  0  0
   31.6750   45.8370   -4.4070 C   0  0  0  0  0  0  0  0  0  0  0  0
   29.8440   46.6030   -6.5680 C   0  0  0  0  0  0  0  0  0  0  0  0
   31.2560   47.1190   -3.6680 C   0  0  0  0  0  0  0  0  0  0  0  0
   30.5090   44.8310   -4.3160 C   0  0  0  0  0  0  0  0  0  0  0  0
   29.5060   48.0910   -6.5170 C   0  0  0  0  0  0  0  0  0  0  0  0
   30.1440   46.6380   -2.7870 C   0  0  0  0  0  0  0  0  0  0  0  0
   29.7230   45.3570   -3.1500 C   0  0  0  0  0  0  0  0  0  0  0  0
   28.5550   48.4350   -5.3710 C   0  0  0  0  0  0  0  0  0  0  0  0
   29.5550   47.3130   -1.7290 C   0  0  0  0  0  0  0  0  0  0  0  0
   28.6990   44.7240   -2.4630 C   0  0  0  0  0  0  0  0  0  0  0  0
   28.9170   49.7420   -4.8240 N   0  0  0  0  0  0  0  0  0  0  0  0
   28.5230   46.6820   -1.0310 C   0  0  0  0  0  0  0  0  0  0  0  0
   28.0980   45.3960   -1.3950 C   0  0  0  0  0  0  0  0  0  0  0  0
   28.9290   50.8040   -5.5540 C   0  0  0  0  0  0  0  0  0  0  0  0
   28.5950   50.6580   -6.8740 N   0  0  0  0  0  0  0  0  0  0  0  0
   29.2670   52.1610   -5.0790 C   0  0  0  0  0  0  0  0  0  0  0  0
   29.7480   52.3690   -3.7940 C   0  0  0  0  0  0  0  0  0  0  0  0
   29.1010   53.2580   -5.9190 C   0  0  0  0  0  0  0  0  0  0  0  0
   30.0700   53.5930   -3.3070 N   0  0  0  0  0  0  0  0  0  0  0  0
   29.4210   54.5270   -5.4430 C   0  0  0  0  0  0  0  0  0  0  0  0
   29.8980   54.6410   -4.1430 C   0  0  0  0  0  0  0  0  0  0  0  0
  1  2  1  0
  2  3  2  3
  2  4  1  0
  3  5  1  0
  4  6  1  0
  4  7  1  0
  5  8  1  0
  6  9  1  0
  7 10  1  0
  9 10  2  0
  8 11  1  0
  9 12  1  0
 10 13  1  0
 11 14  1  0
 12 15  2  0
 13 16  2  0
 15 16  1  0
 14 17  2  3
 17 18  1  0
 17 19  1  0
 19 20  2  0
 19 21  1  0
 20 22  1  0
 21 23  2  0
 22 24  2  0
 23 24  1  0
M  END
