mac-x0348-mac-x0441
     RDKit          3D

 28 31  0  0  0  0  0  0  0  0999 V2000
   27.6050   44.3750   -1.2450 C   0  0  0  0  0  0  0  0  0  0  0  0
   28.6730   45.2550   -1.6760 N   0  0  0  0  0  0  0  0  0  0  0  0
   29.4550   45.0650   -2.8000 C   0  0  0  0  0  0  0  0  0  0  0  0
   29.0560   46.4080   -1.0220 C   0  0  0  0  0  0  0  0  0  0  0  0
   30.3650   46.1180   -2.8720 C   0  0  0  0  0  0  0  0  0  0  0  0
   30.1050   46.9530   -1.7580 C   0  0  0  0  0  0  0  0  0  0  0  0
   28.5880   47.0330    0.1480 C   0  0  0  0  0  0  0  0  0  0  0  0
   31.4550   46.4490   -3.8680 C   0  0  0  0  0  0  0  0  0  0  0  0
   30.7040   48.1470   -1.3320 C   0  0  0  0  0  0  0  0  0  0  0  0
   29.2040   48.2230    0.5530 C   0  0  0  0  0  0  0  0  0  0  0  0
   32.3730   45.3350   -4.4480 C   0  0  1  0  0  0  0  0  0  0  0  0
   30.2490   48.7770   -0.1780 C   0  0  0  0  0  0  0  0  0  0  0  0
   32.4840   45.7390   -5.9260 C   0  0  0  0  0  0  0  0  0  0  0  0
   33.7710   45.0920   -3.8270 N   0  0  0  0  0  0  0  0  0  0  0  0
   31.6700   45.5560   -6.8230 O   0  0  0  0  0  0  0  0  0  0  0  0
   33.6370   46.3840   -6.2060 O   0  0  0  0  0  0  0  0  0  0  0  0
   34.0560   43.7600   -3.2720 N   0  0  0  0  0  0  0  0  0  0  0  0
   34.4350   46.0690   -2.9260 C   0  0  1  0  0  0  0  0  0  0  0  0
   35.4920   43.8590   -2.8560 C   0  0  1  0  0  0  0  0  0  0  0  0
   35.5570   45.2470   -2.2030 C   0  0  1  0  0  0  0  0  0  0  0  0
   34.9580   47.2870   -3.6510 C   0  0  0  0  0  0  0  0  0  0  0  0
   36.0280   42.7460   -1.9260 C   0  0  0  0  0  0  0  0  0  0  0  0
   36.9440   45.8560   -2.1800 C   0  0  0  0  0  0  0  0  0  0  0  0
   36.2400   47.6970   -3.5880 C   0  0  0  0  0  0  0  0  0  0  0  0
   37.1390   42.1700   -2.4470 F   0  0  0  0  0  0  0  0  0  0  0  0
   36.3720   43.2120   -0.7010 F   0  0  0  0  0  0  0  0  0  0  0  0
   35.1240   41.7600   -1.7280 F   0  0  0  0  0  0  0  0  0  0  0  0
   37.2400   46.9930   -2.8240 C   0  0  0  0  0  0  0  0  0  0  0  0
  1  2  1  0
  2  3  1  0
  2  4  1  0
  3  5  2  0
  4  6  2  0
  5  6  1  0
  4  7  1  0
  5  8  1  0
  6  9  1  0
  7 10  2  0
 11  8  1  1
  9 12  2  0
 10 12  1  0
 11 13  1  0
 11 14  1  0
 13 15  2  0
 13 16  1  0
 14 17  1  0
 14 18  1  0
 17 19  1  0
 18 20  1  0
 19 20  1  0
 18 21  1  6
 19 22  1  1
 20 23  1  6
 21 24  2  0
 22 25  1  0
 22 26  1  0
 22 27  1  0
 23 28  2  0
 24 28  1  0
M  END
