mac-x0321-mac-x0305
     RDKit          3D

 12 12  0  0  0  0  0  0  0  0999 V2000
   28.1230   52.3790   -6.8450 Cl  0  0  0  0  0  0  0  0  0  0  0  0
   28.8910   51.4900   -5.5720 C   0  0  0  0  0  0  0  0  0  0  0  0
   29.3090   50.1600   -5.7570 C   0  0  0  0  0  0  0  0  0  0  0  0
   29.0830   52.1360   -4.3500 C   0  0  0  0  0  0  0  0  0  0  0  0
   29.0820   49.6050   -6.9900 O   0  0  0  0  0  0  0  0  0  0  0  0
   29.9280   49.4770   -4.6930 C   0  0  0  0  0  0  0  0  0  0  0  0
   29.6950   51.4670   -3.2950 C   0  0  0  0  0  0  0  0  0  0  0  0
   30.4190   48.0710   -4.7440 C   0  0  0  0  0  0  0  0  0  0  0  0
   30.1140   50.1460   -3.4660 C   0  0  0  0  0  0  0  0  0  0  0  0
   30.3740   47.5720   -6.0120 O   0  0  0  0  0  0  0  0  0  0  0  0
   30.8190   47.4360   -3.7790 O   0  0  0  0  0  0  0  0  0  0  0  0
   31.2290   46.3750   -6.0610 O   0  0  0  0  0  0  0  0  0  0  0  0
  1  2  1  0
  2  3  2  0
  2  4  1  0
  3  5  1  0
  3  6  1  0
  4  7  2  0
  6  8  1  0
  6  9  2  0
  7  9  1  0
  8 10  1  0
  8 11  2  0
 10 12  1  0
M  END
