mac-x0188-mac-x0305
     RDKit          3D

 16 17  0  0  0  0  0  0  0  0999 V2000
   32.5650   44.5720   -4.0970 C   0  0  0  0  0  0  0  0  0  0  0  0
   32.0280   45.9450   -4.0170 C   0  0  0  0  0  0  0  0  0  0  0  0
   32.6770   46.7800   -3.1710 O   0  0  0  0  0  0  0  0  0  0  0  0
   30.9780   46.6130   -4.6190 C   0  0  0  0  0  0  0  0  0  0  0  0
   30.0570   46.0530   -5.5780 C   0  0  0  0  0  0  0  0  0  0  0  0
   32.0770   48.0170   -3.1900 N   0  0  0  0  0  0  0  0  0  0  0  0
   31.0520   47.9330   -4.0580 C   0  0  0  0  0  0  0  0  0  0  0  0
   28.8660   45.8330   -5.4110 O   0  0  0  0  0  0  0  0  0  0  0  0
   30.6100   45.7450   -6.7780 O   0  0  0  0  0  0  0  0  0  0  0  0
   30.2170   49.1180   -4.2810 C   0  0  0  0  0  0  0  0  0  0  0  0
   29.6120   49.7260   -3.1690 C   0  0  0  0  0  0  0  0  0  0  0  0
   29.9940   49.6790   -5.5540 C   0  0  0  0  0  0  0  0  0  0  0  0
   30.5610   49.1240   -6.6740 O   0  0  0  0  0  0  0  0  0  0  0  0
   28.8090   50.8590   -3.3200 C   0  0  0  0  0  0  0  0  0  0  0  0
   29.1890   50.8130   -5.7020 C   0  0  0  0  0  0  0  0  0  0  0  0
   28.5980   51.4020   -4.5860 C   0  0  0  0  0  0  0  0  0  0  0  0
  1  2  1  0
  2  3  1  0
  2  4  2  0
  4  5  1  0
  3  6  1  0
  4  7  1  0
  6  7  2  0
  5  8  2  0
  5  9  1  0
  7 10  1  0
 10 11  2  0
 10 12  1  0
 12 13  1  0
 11 14  1  0
 12 15  2  0
 14 16  2  0
 15 16  1  0
M  END
