mac-x0132-mac-x0587
     RDKit          3D

 24 26  0  0  0  0  0  0  0  0999 V2000
   28.4450   52.6230   -7.3220 N   0  0  0  0  0  0  0  0  0  0  0  0
   28.8690   53.0970   -6.0740 C   0  0  0  0  0  0  0  0  0  0  0  0
   28.8760   54.4290   -5.9460 N   0  0  0  0  0  0  0  0  0  0  0  0
   29.2600   52.2290   -5.0340 C   0  0  0  0  0  0  0  0  0  0  0  0
   29.6590   52.8710   -3.8480 C   0  0  0  0  0  0  0  0  0  0  0  0
   29.2750   54.9170   -4.7710 C   0  0  0  0  0  0  0  0  0  0  0  0
   29.3010   50.8200   -5.0360 C   0  0  0  0  0  0  0  0  0  0  0  0
   29.6670   54.1990   -3.7150 N   0  0  0  0  0  0  0  0  0  0  0  0
   30.0670   52.1000   -2.7510 C   0  0  0  0  0  0  0  0  0  0  0  0
   29.7110   50.0680   -3.9320 C   0  0  0  0  0  0  0  0  0  0  0  0
   28.9710   49.9190   -6.0470 N   0  0  0  0  0  0  0  0  0  0  0  0
   30.1000   50.7000   -2.7710 C   0  0  0  0  0  0  0  0  0  0  0  0
   29.6370   48.6870   -4.2570 N   0  0  0  0  0  0  0  0  0  0  0  0
   29.0170   48.6130   -5.5430 C   0  0  0  0  0  0  0  0  0  0  0  0
   30.1720   47.6640   -3.4610 C   0  0  0  0  0  0  0  0  0  0  0  0
   28.5860   47.6420   -6.1440 O   0  0  0  0  0  0  0  0  0  0  0  0
   30.4610   46.3230   -4.1670 C   0  0  2  0  0  0  0  0  0  0  0  0
   30.4020   47.8130   -2.2560 O   0  0  0  0  0  0  0  0  0  0  0  0
   29.4640   45.2790   -3.6830 C   0  0  0  0  0  0  0  0  0  0  0  0
   32.2120   45.8150   -3.8660 S   0  0  0  0  0  0  0  0  0  0  0  0
   33.0450   46.6050   -5.2810 C   0  0  0  0  0  0  0  0  0  0  0  0
   33.6610   45.6160   -6.2460 C   0  0  0  0  0  0  0  0  0  0  0  0
   34.8110   45.5490   -6.6460 O   0  0  0  0  0  0  0  0  0  0  0  0
   32.7510   44.7150   -6.6830 O   0  0  0  0  0  0  0  0  0  0  0  0
  1  2  1  0
  2  3  2  0
  2  4  1  0
  4  5  2  0
  3  6  1  0
  4  7  1  0
  5  8  1  0
  6  8  2  0
  5  9  1  0
  7 10  2  0
  7 11  1  0
  9 12  2  0
 10 12  1  0
 10 13  1  0
 11 14  1  0
 13 14  1  0
 13 15  1  0
 14 16  2  0
 15 17  1  0
 15 18  2  0
 17 19  1  1
 17 20  1  0
 20 21  1  0
 21 22  1  0
 22 23  2  0
 22 24  1  0
M  END
