mac-x0284-mac-x0387
     RDKit          3D

 16 17  0  0  0  0  0  0  0  0999 V2000
   27.3960   50.4790   -4.8280 C   0  0  0  0  0  0  0  0  0  0  0  0
   28.8480   50.2820   -5.2960 C   0  0  1  0  0  0  0  0  0  0  0  0
   29.7820   50.7800   -4.2080 C   0  0  0  0  0  0  0  0  0  0  0  0
   29.1950   48.8270   -5.8080 C   0  0  2  0  0  0  0  0  0  0  0  0
   29.6300   47.9170   -4.6040 C   0  0  1  0  0  0  0  0  0  0  0  0
   30.6140   49.9920   -3.5120 C   0  0  0  0  0  0  0  0  0  0  0  0
   30.3500   48.8720   -6.8740 C   0  0  0  0  0  0  0  0  0  0  0  0
   27.9730   48.2020   -6.4890 C   0  0  0  0  0  0  0  0  0  0  0  0
   30.0930   46.5370   -5.0360 C   0  0  0  0  0  0  0  0  0  0  0  0
   30.7340   48.5180   -3.7160 C   0  0  1  0  0  0  0  0  0  0  0  0
   27.8560   48.1210   -7.8260 C   0  0  0  0  0  0  0  0  0  0  0  0
   29.9410   49.4310   -8.1670 N   0  0  0  0  0  0  0  0  0  0  0  0
   30.7290   47.9270   -2.4140 O   0  0  0  0  0  0  0  0  0  0  0  0
   29.5250   45.7540   -5.7770 O   0  0  0  0  0  0  0  0  0  0  0  0
   31.2820   46.1970   -4.4950 O   0  0  0  0  0  0  0  0  0  0  0  0
   28.8930   48.6180   -8.7880 C   0  0  0  0  0  0  0  0  0  0  0  0
  2  1  1  1
  2  3  1  0
  2  4  1  0
  4  5  1  0
  3  6  2  0
  4  7  1  6
  4  8  1  0
  5  9  1  6
  5 10  1  0
  6 10  1  0
  8 11  2  0
  7 12  1  0
 10 13  1  1
  9 14  2  0
  9 15  1  0
 11 16  1  0
 12 16  1  0
M  END
