mac-x0148-mac-x0132
     RDKit          3D

 29 34  0  0  0  0  0  0  0  0999 V2000
   28.8470   51.8890   -6.9720 N   0  0  0  0  0  0  0  0  0  0  0  0
   28.8970   52.9040   -5.9720 C   0  0  0  0  0  0  0  0  0  0  0  0
   28.9060   54.2030   -6.3230 N   0  0  0  0  0  0  0  0  0  0  0  0
   29.5370   50.7630   -6.5790 N   0  0  0  0  0  0  0  0  0  0  0  0
   29.1710   49.4390   -6.7440 C   0  0  0  0  0  0  0  0  0  0  0  0
   30.7370   50.8300   -5.9220 C   0  0  0  0  0  0  0  0  0  0  0  0
   28.9510   52.4860   -4.6170 C   0  0  0  0  0  0  0  0  0  0  0  0
   28.0550   48.9890   -7.3540 N   0  0  0  0  0  0  0  0  0  0  0  0
   30.1650   48.6640   -6.1590 C   0  0  0  0  0  0  0  0  0  0  0  0
   31.1480   49.5540   -5.6490 C   0  0  0  0  0  0  0  0  0  0  0  0
   29.0180   53.5150   -3.6720 C   0  0  0  0  0  0  0  0  0  0  0  0
   28.9690   55.0870   -5.3210 C   0  0  0  0  0  0  0  0  0  0  0  0
   28.9420   51.1350   -4.1620 C   0  0  0  0  0  0  0  0  0  0  0  0
   28.0060   47.6460   -7.3300 C   0  0  0  0  0  0  0  0  0  0  0  0
   30.0080   47.2710   -6.1850 C   0  0  0  0  0  0  0  0  0  0  0  0
   29.0270   54.8070   -4.0120 N   0  0  0  0  0  0  0  0  0  0  0  0
   29.0770   53.1770   -2.3210 C   0  0  0  0  0  0  0  0  0  0  0  0
   29.0030   50.8250   -2.8090 C   0  0  0  0  0  0  0  0  0  0  0  0
   30.9610   46.4180   -5.6000 N   0  0  0  0  0  0  0  0  0  0  0  0
   28.8950   46.7830   -6.7940 N   0  0  0  0  0  0  0  0  0  0  0  0
   29.0730   51.8500   -1.8830 C   0  0  0  0  0  0  0  0  0  0  0  0
   30.8280   46.3480   -4.1120 C   0  0  2  0  0  0  0  0  0  0  0  0
   32.2890   46.5560   -6.2210 C   0  0  0  0  0  0  0  0  0  0  0  0
   30.6380   47.6940   -3.4040 C   0  0  0  0  0  0  0  0  0  0  0  0
   32.0280   45.7310   -3.3600 C   0  0  2  0  0  0  0  0  0  0  0  0
   33.3880   46.7880   -5.1950 C   0  0  0  0  0  0  0  0  0  0  0  0
   32.1380   46.5770   -2.0880 C   0  0  0  0  0  0  0  0  0  0  0  0
   31.0190   47.4670   -2.0430 O   0  0  0  0  0  0  0  0  0  0  0  0
   33.3560   45.7200   -4.1280 C   0  0  0  0  0  0  0  0  0  0  0  0
  1  2  1  0
  2  3  2  0
  1  4  1  0
  4  5  1  0
  4  6  1  0
  2  7  1  0
  5  8  2  0
  5  9  1  0
  6 10  2  0
  9 10  1  0
  7 11  2  0
  3 12  1  0
  7 13  1  0
  8 14  1  0
  9 15  2  0
 11 16  1  0
 12 16  2  0
 11 17  1  0
 13 18  2  0
 15 19  1  0
 14 20  2  0
 15 20  1  0
 17 21  2  0
 18 21  1  0
 19 22  1  0
 19 23  1  0
 22 24  1  1
 22 25  1  0
 23 26  1  0
 25 27  1  1
 24 28  1  0
 27 28  1  0
 25 29  1  0
 26 29  1  0
M  END
