mac-x0188-mac-x0371
     RDKit          3D

 25 28  0  0  0  0  0  0  0  0999 V2000
   32.1500   45.5020   -4.7140 C   0  0  1  0  0  0  0  0  0  0  0  0
   31.9290   45.4280   -6.2290 C   0  0  0  0  0  0  0  0  0  0  0  0
   32.4730   44.5380   -6.8910 O   0  0  0  0  0  0  0  0  0  0  0  0
   31.7060   46.8240   -4.2550 C   0  0  0  0  0  0  0  0  0  0  0  0
   31.5640   44.3070   -3.9550 C   0  0  0  0  0  0  0  0  0  0  0  0
   31.1460   46.3280   -6.8800 O   0  0  0  0  0  0  0  0  0  0  0  0
   31.9330   47.2530   -3.0000 O   0  0  0  0  0  0  0  0  0  0  0  0
   31.0390   47.7720   -4.9750 C   0  0  0  0  0  0  0  0  0  0  0  0
   30.4600   44.4020   -3.0630 C   0  0  0  0  0  0  0  0  0  0  0  0
   32.1250   43.0160   -4.1220 C   0  0  0  0  0  0  0  0  0  0  0  0
   30.7000   47.5090   -6.3460 C   0  0  0  0  0  0  0  0  0  0  0  0
   33.4730   42.7050   -5.1640 Cl  0  0  0  0  0  0  0  0  0  0  0  0
   29.6340   45.8830   -2.7140 Cl  0  0  0  0  0  0  0  0  0  0  0  0
   31.4050   48.5230   -2.8690 N   0  0  0  0  0  0  0  0  0  0  0  0
   30.8610   48.8450   -4.0630 C   0  0  0  0  0  0  0  0  0  0  0  0
   29.9620   43.2750   -2.3920 C   0  0  0  0  0  0  0  0  0  0  0  0
   31.6170   41.8980   -3.4470 C   0  0  0  0  0  0  0  0  0  0  0  0
   30.0430   48.2820   -7.0320 O   0  0  0  0  0  0  0  0  0  0  0  0
   30.2150   50.1490   -4.2350 C   0  0  0  0  0  0  0  0  0  0  0  0
   30.5360   42.0260   -2.5820 C   0  0  0  0  0  0  0  0  0  0  0  0
   29.6770   50.8460   -3.1460 C   0  0  0  0  0  0  0  0  0  0  0  0
   30.1270   50.7250   -5.5150 C   0  0  0  0  0  0  0  0  0  0  0  0
   29.0630   52.0900   -3.3300 C   0  0  0  0  0  0  0  0  0  0  0  0
   29.5140   51.9680   -5.6950 C   0  0  0  0  0  0  0  0  0  0  0  0
   28.9820   52.6500   -4.6040 C   0  0  0  0  0  0  0  0  0  0  0  0
  1  2  1  0
  2  3  2  0
  1  4  1  0
  1  5  1  1
  2  6  1  0
  4  7  1  0
  4  8  2  0
  5  9  2  0
  5 10  1  0
  6 11  1  0
  8 11  1  0
 10 12  1  0
  9 13  1  0
  7 14  1  0
  8 15  1  0
 14 15  2  0
  9 16  1  0
 10 17  2  0
 11 18  2  0
 15 19  1  0
 16 20  2  0
 17 20  1  0
 19 21  2  0
 19 22  1  0
 21 23  1  0
 22 24  2  0
 23 25  2  0
 24 25  1  0
M  END
