mac-x0567-mac-x0137
     RDKit          3D

 19 21  0  0  0  0  0  0  0  0999 V2000
   29.8900   47.5070   -7.9660 N   0  0  0  0  0  0  0  0  0  0  0  0
   29.5080   48.5140   -7.1020 C   0  0  0  0  0  0  0  0  0  0  0  0
   28.7360   49.3850   -7.7290 N   0  0  0  0  0  0  0  0  0  0  0  0
   30.0630   48.4440   -5.6040 C   0  0  1  0  0  0  0  0  0  0  0  0
   28.1880   50.4650   -7.1320 N   0  0  0  0  0  0  0  0  0  0  0  0
   29.6600   49.4220   -4.5130 C   0  0  0  0  0  0  0  0  0  0  0  0
   29.8530   47.1340   -4.7920 C   0  0  0  0  0  0  0  0  0  0  0  0
   31.6030   48.5840   -5.8200 C   0  0  0  0  0  0  0  0  0  0  0  0
   28.7440   51.5930   -6.5160 C   0  0  0  0  0  0  0  0  0  0  0  0
   29.9340   50.6870   -4.3520 C   0  0  0  0  0  0  0  0  0  0  0  0
   30.8610   47.1130   -3.6390 C   0  0  2  0  0  0  0  0  0  0  0  0
   32.4170   47.3120   -5.5780 C   0  0  0  0  0  0  0  0  0  0  0  0
   26.8430   50.5130   -7.0950 N   0  0  0  0  0  0  0  0  0  0  0  0
   30.9010   48.3490   -3.0490 F   0  0  0  0  0  0  0  0  0  0  0  0
   30.1170   51.8480   -6.3860 C   0  0  0  0  0  0  0  0  0  0  0  0
   30.7020   51.4160   -5.2840 C   0  0  0  0  0  0  0  0  0  0  0  0
   32.2570   46.8230   -4.1470 C   0  0  0  0  0  0  0  0  0  0  0  0
   27.6920   52.3480   -6.0830 C   0  0  0  0  0  0  0  0  0  0  0  0
   26.5550   51.6430   -6.4630 C   0  0  0  0  0  0  0  0  0  0  0  0
  1  2  1  0
  2  3  2  0
  4  2  1  0
  3  5  1  0
  4  6  1  1
  4  7  1  0
  4  8  1  0
  5  9  1  0
  6 10  2  0
  7 11  1  0
  8 12  1  0
  5 13  1  0
 11 14  1  6
  9 15  1  0
 10 16  1  0
 15 16  2  0
 11 17  1  0
 12 17  1  0
  9 18  2  0
 13 19  2  0
 18 19  1  0
M  END
