mac-x0282-mac-x0224
     RDKit          3D

 21 23  0  0  0  0  0  0  0  0999 V2000
   26.9320   51.5000   -5.7090 C   0  0  0  0  0  0  0  0  0  0  0  0
   27.2710   49.8390   -6.1570 S   0  0  2  0  0  0  0  0  0  0  0  0
   28.4000   49.1430   -5.0300 C   0  0  0  0  0  0  0  0  0  0  0  0
   28.1160   49.7340   -7.5920 N   0  0  0  0  0  0  0  0  0  0  0  0
   29.2680   50.4020   -7.2690 C   0  0  0  0  0  0  0  0  0  0  0  0
   28.2480   48.4520   -8.1160 C   0  0  0  0  0  0  0  0  0  0  0  0
   28.9260   47.8770   -5.2920 C   0  0  0  0  0  0  0  0  0  0  0  0
   28.7700   49.8570   -3.8970 C   0  0  0  0  0  0  0  0  0  0  0  0
   30.5560   49.6620   -7.1490 C   0  0  0  0  0  0  0  0  0  0  0  0
   29.4410   51.6690   -6.9740 N   0  0  0  0  0  0  0  0  0  0  0  0
   29.4110   47.7700   -8.0980 C   0  0  0  0  0  0  0  0  0  0  0  0
   29.8440   47.3020   -4.4090 C   0  0  0  0  0  0  0  0  0  0  0  0
   29.6860   49.2940   -3.0090 C   0  0  0  0  0  0  0  0  0  0  0  0
   30.3670   45.9400   -4.7630 C   0  0  0  0  0  0  0  0  0  0  0  0
   30.7650   51.7580   -6.5750 C   0  0  0  0  0  0  0  0  0  0  0  0
   31.4640   50.6120   -6.6200 C   0  0  0  0  0  0  0  0  0  0  0  0
   30.6060   48.3870   -7.5380 C   0  0  0  0  0  0  0  0  0  0  0  0
   30.2190   48.0200   -3.2660 C   0  0  0  0  0  0  0  0  0  0  0  0
   31.1190   47.4830   -2.3800 O   0  0  0  0  0  0  0  0  0  0  0  0
   30.1320   45.3960   -5.8310 O   0  0  0  0  0  0  0  0  0  0  0  0
   31.1210   45.3470   -3.8150 O   0  0  0  0  0  0  0  0  0  0  0  0
  2  1  1  1
  2  3  1  0
  2  4  1  0
  4  5  1  0
  4  6  1  0
  3  7  2  0
  3  8  1  0
  5  9  1  0
  5 10  2  0
  6 11  2  0
  7 12  1  0
  8 13  2  0
 12 14  1  0
 10 15  1  0
  9 16  1  0
 15 16  2  0
  9 17  2  0
 11 17  1  0
 12 18  2  0
 13 18  1  0
 18 19  1  0
 14 20  2  0
 14 21  1  0
M  END
