mac-x0360-mac-x0348
     RDKit          3D

 29 31  0  0  0  0  0  0  0  0999 V2000
   32.1280   55.2880   -7.0060 Cl  0  0  0  0  0  0  0  0  0  0  0  0
   32.2150   53.6750   -6.4140 C   0  0  0  0  0  0  0  0  0  0  0  0
   33.4500   53.1230   -6.0840 C   0  0  0  0  0  0  0  0  0  0  0  0
   31.0480   52.9350   -6.2700 C   0  0  0  0  0  0  0  0  0  0  0  0
   31.1150   51.6250   -5.7880 C   0  0  0  0  0  0  0  0  0  0  0  0
   33.5110   51.8150   -5.6050 C   0  0  0  0  0  0  0  0  0  0  0  0
   35.0460   51.1480   -5.2010 Cl  0  0  0  0  0  0  0  0  0  0  0  0
   29.5800   50.7390   -5.6270 S   0  0  0  0  0  0  0  0  0  0  0  0
   32.3490   51.0500   -5.4500 C   0  0  0  0  0  0  0  0  0  0  0  0
   29.9960   49.1820   -5.2100 N   0  0  0  0  0  0  0  0  0  0  0  0
   28.8470   51.3290   -4.5330 O   0  0  0  0  0  0  0  0  0  0  0  0
   29.0030   50.6390   -6.9470 O   0  0  0  0  0  0  0  0  0  0  0  0
   29.0210   48.1350   -5.5140 C   0  0  0  0  0  0  0  0  0  0  0  0
   29.6640   46.7510   -5.5260 C   0  0  0  0  0  0  0  0  0  0  0  0
   30.5790   46.4250   -4.3260 C   0  0  2  0  0  0  0  0  0  0  0  0
   31.6970   45.4490   -4.6970 C   0  0  0  0  0  0  0  0  0  0  0  0
   29.7830   46.1270   -3.0730 C   0  0  0  0  0  0  0  0  0  0  0  0
   32.3130   45.8490   -6.0110 C   0  0  0  0  0  0  0  0  0  0  0  0
   28.9090   45.0890   -2.7990 C   0  0  0  0  0  0  0  0  0  0  0  0
   29.8190   46.9440   -1.9020 C   0  0  0  0  0  0  0  0  0  0  0  0
   31.7850   45.7730   -7.1080 O   0  0  0  0  0  0  0  0  0  0  0  0
   33.5640   46.3300   -5.8860 O   0  0  0  0  0  0  0  0  0  0  0  0
   28.4240   45.2520   -1.5270 N   0  0  0  0  0  0  0  0  0  0  0  0
   28.9640   46.3850   -0.9530 C   0  0  0  0  0  0  0  0  0  0  0  0
   30.5160   48.1260   -1.5820 C   0  0  0  0  0  0  0  0  0  0  0  0
   27.4790   44.3580   -0.8960 C   0  0  0  0  0  0  0  0  0  0  0  0
   30.3460   48.7160   -0.3300 C   0  0  0  0  0  0  0  0  0  0  0  0
   28.7860   46.9690    0.3120 C   0  0  0  0  0  0  0  0  0  0  0  0
   29.4900   48.1430    0.6040 C   0  0  0  0  0  0  0  0  0  0  0  0
  1  2  1  0
  2  3  2  0
  2  4  1  0
  4  5  2  0
  3  6  1  0
  6  7  1  0
  5  8  1  0
  5  9  1  0
  6  9  2  0
  8 10  1  0
  8 11  2  0
  8 12  2  0
 10 13  1  0
 13 14  1  0
 15 14  1  6
 15 16  1  0
 15 17  1  0
 16 18  1  0
 17 19  2  0
 17 20  1  0
 18 21  2  0
 18 22  1  0
 19 23  1  0
 20 24  2  0
 23 24  1  0
 20 25  1  0
 23 26  1  0
 25 27  2  0
 24 28  1  0
 27 29  1  0
 28 29  2  0
M  END
