mac-x0360-mac-x0223
     RDKit          3D

 27 28  0  0  0  0  0  0  0  0999 V2000
   32.2380   55.4920   -7.1470 Cl  0  0  0  0  0  0  0  0  0  0  0  0
   32.2780   53.8870   -6.5230 C   0  0  0  0  0  0  0  0  0  0  0  0
   33.4840   53.3440   -6.0820 C   0  0  0  0  0  0  0  0  0  0  0  0
   31.1000   53.1440   -6.4650 C   0  0  0  0  0  0  0  0  0  0  0  0
   31.1370   51.8430   -5.9570 C   0  0  0  0  0  0  0  0  0  0  0  0
   33.5070   52.0450   -5.5770 C   0  0  0  0  0  0  0  0  0  0  0  0
   34.9960   51.3750   -5.0320 Cl  0  0  0  0  0  0  0  0  0  0  0  0
   29.6370   50.8980   -5.8800 S   0  0  0  0  0  0  0  0  0  0  0  0
   32.3400   51.2870   -5.5100 C   0  0  0  0  0  0  0  0  0  0  0  0
   30.1340   49.4430   -5.2060 N   0  0  0  0  0  0  0  0  0  0  0  0
   28.7330   51.5450   -4.9590 O   0  0  0  0  0  0  0  0  0  0  0  0
   29.2420   50.5830   -7.2360 O   0  0  0  0  0  0  0  0  0  0  0  0
   30.8800   48.4850   -6.0430 C   0  0  0  0  0  0  0  0  0  0  0  0
   30.2580   47.0860   -5.9430 C   0  0  0  0  0  0  0  0  0  0  0  0
   31.1710   46.0410   -6.3340 O   0  0  0  0  0  0  0  0  0  0  0  0
   32.2420   45.8460   -5.5140 C   0  0  0  0  0  0  0  0  0  0  0  0
   31.8880   44.9310   -4.3620 C   0  0  0  0  0  0  0  0  0  0  0  0
   33.3510   46.3380   -5.6830 O   0  0  0  0  0  0  0  0  0  0  0  0
   30.9310   45.5500   -3.3690 C   0  0  0  0  0  0  0  0  0  0  0  0
   31.2560   46.7430   -2.7090 C   0  0  0  0  0  0  0  0  0  0  0  0
   29.6970   44.9290   -3.0950 C   0  0  0  0  0  0  0  0  0  0  0  0
   28.8000   45.4860   -2.1790 C   0  0  0  0  0  0  0  0  0  0  0  0
   30.3690   47.3060   -1.7920 C   0  0  0  0  0  0  0  0  0  0  0  0
   27.5810   44.9540   -1.8490 O   0  0  0  0  0  0  0  0  0  0  0  0
   29.1510   46.6780   -1.5340 C   0  0  0  0  0  0  0  0  0  0  0  0
   27.3800   43.5730   -2.1050 C   0  0  0  0  0  0  0  0  0  0  0  0
   28.2790   47.2330   -0.6310 O   0  0  0  0  0  0  0  0  0  0  0  0
  1  2  1  0
  2  3  2  0
  2  4  1  0
  4  5  2  0
  3  6  1  0
  6  7  1  0
  5  8  1  0
  5  9  1  0
  6  9  2  0
  8 10  1  0
  8 11  2  0
  8 12  2  0
 10 13  1  0
 13 14  1  0
 14 15  1  0
 15 16  1  0
 16 17  1  0
 16 18  2  0
 17 19  1  0
 19 20  2  0
 19 21  1  0
 21 22  2  0
 20 23  1  0
 22 24  1  0
 22 25  1  0
 23 25  2  0
 24 26  1  0
 25 27  1  0
M  END
