mac-x0404-mac-x0271
     RDKit          3D

 28 31  0  0  0  0  0  0  0  0999 V2000
   31.8920   45.3520   -6.9180 O   0  0  0  0  0  0  0  0  0  0  0  0
   32.9300   45.3550   -6.0510 C   0  0  0  0  0  0  0  0  0  0  0  0
   34.0030   45.8230   -6.3980 O   0  0  0  0  0  0  0  0  0  0  0  0
   32.5640   44.7360   -4.7090 C   0  0  0  0  0  0  0  0  0  0  0  0
   31.1510   44.6760   -4.4760 O   0  0  0  0  0  0  0  0  0  0  0  0
   30.7450   45.6340   -3.5740 C   0  0  0  0  0  0  0  0  0  0  0  0
   29.7160   45.3480   -2.6480 C   0  0  0  0  0  0  0  0  0  0  0  0
   31.3700   46.8810   -3.6020 C   0  0  0  0  0  0  0  0  0  0  0  0
   29.3290   46.3620   -1.7410 C   0  0  0  0  0  0  0  0  0  0  0  0
   30.9840   47.8800   -2.7060 C   0  0  0  0  0  0  0  0  0  0  0  0
   29.0570   44.1020   -2.5860 C   0  0  0  0  0  0  0  0  0  0  0  0
   31.6390   49.2350   -2.7200 C   0  0  0  0  0  0  0  0  0  0  0  0
   29.9670   47.6090   -1.7830 C   0  0  0  0  0  0  0  0  0  0  0  0
   28.3100   46.1070   -0.8110 C   0  0  0  0  0  0  0  0  0  0  0  0
   28.0440   43.8670   -1.6560 C   0  0  0  0  0  0  0  0  0  0  0  0
   30.7290   50.2610   -2.3240 O   0  0  0  0  0  0  0  0  0  0  0  0
   27.6700   44.8690   -0.7660 C   0  0  0  0  0  0  0  0  0  0  0  0
   30.2480   51.1410   -3.2480 C   0  0  0  0  0  0  0  0  0  0  0  0
   30.1870   52.5180   -3.0880 C   0  0  0  0  0  0  0  0  0  0  0  0
   29.7860   50.5690   -4.4440 C   0  0  0  0  0  0  0  0  0  0  0  0
   29.6680   53.3010   -4.1150 C   0  0  0  0  0  0  0  0  0  0  0  0
   29.2650   51.3670   -5.4720 C   0  0  0  0  0  0  0  0  0  0  0  0
   29.2050   52.7510   -5.3060 C   0  0  0  0  0  0  0  0  0  0  0  0
   29.6320   54.6910   -3.8920 O   0  0  0  0  0  0  0  0  0  0  0  0
   28.6780   53.6380   -6.3310 C   0  0  0  0  0  0  0  0  0  0  0  0
   29.1000   55.5550   -4.8360 C   0  0  0  0  0  0  0  0  0  0  0  0
   29.0130   56.7620   -4.6460 O   0  0  0  0  0  0  0  0  0  0  0  0
   28.6330   54.9530   -6.0990 C   0  0  0  0  0  0  0  0  0  0  0  0
  1  2  1  0
  2  3  2  0
  2  4  1  0
  4  5  1  0
  5  6  1  0
  6  7  2  0
  6  8  1  0
  7  9  1  0
  8 10  2  0
  7 11  1  0
 10 12  1  0
  9 13  2  0
 10 13  1  0
  9 14  1  0
 11 15  2  0
 12 16  1  0
 14 17  2  0
 15 17  1  0
 16 18  1  0
 18 19  2  0
 18 20  1  0
 19 21  1  0
 20 22  2  0
 21 23  2  0
 22 23  1  0
 21 24  1  0
 23 25  1  0
 24 26  1  0
 26 27  2  0
 25 28  2  0
 26 28  1  0
M  END
