mac-x0567-mac-x0394
     RDKit          3D

 22 24  0  0  0  0  0  0  0  0999 V2000
   30.4920   46.7660   -7.8150 N   0  0  0  0  0  0  0  0  0  0  0  0
   29.7970   47.9080   -7.6180 C   0  0  0  0  0  0  0  0  0  0  0  0
   28.8910   48.3740   -8.5330 N   0  0  0  0  0  0  0  0  0  0  0  0
   29.7660   48.8340   -6.6090 C   0  0  0  0  0  0  0  0  0  0  0  0
   28.2790   49.5290   -8.1890 N   0  0  0  0  0  0  0  0  0  0  0  0
   28.8030   49.8460   -6.9890 C   0  0  0  0  0  0  0  0  0  0  0  0
   30.5260   48.7940   -5.4450 C   0  0  0  0  0  0  0  0  0  0  0  0
   28.5330   50.9540   -6.1500 C   0  0  0  0  0  0  0  0  0  0  0  0
   30.2490   49.9000   -4.6200 C   0  0  0  0  0  0  0  0  0  0  0  0
   27.5410   52.0480   -6.4790 C   0  0  2  0  0  0  0  0  0  0  0  0
   29.3050   50.9250   -4.9520 C   0  0  0  0  0  0  0  0  0  0  0  0
   28.1760   53.3380   -7.0070 C   0  0  0  0  0  0  0  0  0  0  0  0
   26.5670   52.2630   -5.3190 C   0  0  0  0  0  0  0  0  0  0  0  0
   29.3170   53.6770   -6.3590 O   0  0  0  0  0  0  0  0  0  0  0  0
   27.7750   54.0550   -7.9160 O   0  0  0  0  0  0  0  0  0  0  0  0
   26.5620   53.4230   -4.5230 C   0  0  0  0  0  0  0  0  0  0  0  0
   25.6280   51.2520   -5.0280 C   0  0  0  0  0  0  0  0  0  0  0  0
   25.6460   53.5610   -3.4760 C   0  0  0  0  0  0  0  0  0  0  0  0
   24.7210   51.4030   -3.9760 C   0  0  0  0  0  0  0  0  0  0  0  0
   23.5890   50.1510   -3.6440 Cl  0  0  0  0  0  0  0  0  0  0  0  0
   25.6540   54.9910   -2.5150 Cl  0  0  0  0  0  0  0  0  0  0  0  0
   24.7260   52.5550   -3.1970 C   0  0  0  0  0  0  0  0  0  0  0  0
  1  2  1  0
  2  3  1  0
  2  4  2  0
  3  5  1  0
  4  6  1  0
  5  6  2  0
  4  7  1  0
  6  8  1  0
  7  9  2  0
  8 10  1  0
  8 11  2  0
  9 11  1  0
 10 12  1  1
 10 13  1  0
 12 14  1  0
 12 15  2  0
 13 16  2  0
 13 17  1  0
 16 18  1  0
 17 19  2  0
 19 20  1  0
 18 21  1  0
 18 22  2  0
 19 22  1  0
M  END
