mac-x0348-mac-x0433
     RDKit          3D

 25 27  0  0  0  0  0  0  0  0999 V2000
   28.2590   44.1430   -0.3120 C   0  0  0  0  0  0  0  0  0  0  0  0
   28.8000   45.0960   -1.2560 N   0  0  0  0  0  0  0  0  0  0  0  0
   29.2400   44.7870   -2.5120 C   0  0  0  0  0  0  0  0  0  0  0  0
   28.9420   46.4460   -1.0170 C   0  0  0  0  0  0  0  0  0  0  0  0
   29.6830   45.9440   -3.1190 C   0  0  0  0  0  0  0  0  0  0  0  0
   29.4960   47.0040   -2.1740 C   0  0  0  0  0  0  0  0  0  0  0  0
   28.6340   47.2210    0.1110 C   0  0  0  0  0  0  0  0  0  0  0  0
   30.2480   46.0640   -4.5010 C   0  0  0  0  0  0  0  0  0  0  0  0
   29.7500   48.3930   -2.2000 C   0  0  0  0  0  0  0  0  0  0  0  0
   28.8960   48.5940    0.0590 C   0  0  0  0  0  0  0  0  0  0  0  0
   31.7360   45.7200   -4.5460 C   0  0  0  0  0  0  0  0  0  0  0  0
   29.4490   49.1910   -1.0820 C   0  0  0  0  0  0  0  0  0  0  0  0
   32.2710   45.8170   -5.9450 C   0  0  0  0  0  0  0  0  0  0  0  0
   29.7190   50.6810   -1.1080 C   0  0  0  0  0  0  0  0  0  0  0  0
   31.6780   45.5940   -6.9880 O   0  0  0  0  0  0  0  0  0  0  0  0
   33.5630   46.2010   -5.9670 O   0  0  0  0  0  0  0  0  0  0  0  0
   30.6340   51.0390   -2.1720 N   0  0  0  0  0  0  0  0  0  0  0  0
   30.0740   51.7030   -3.2530 C   0  0  0  0  0  0  0  0  0  0  0  0
   29.5540   50.9160   -4.2000 N   0  0  0  0  0  0  0  0  0  0  0  0
   30.0710   53.0440   -3.3110 N   0  0  0  0  0  0  0  0  0  0  0  0
   28.9950   51.5080   -5.2720 C   0  0  0  0  0  0  0  0  0  0  0  0
   29.5060   53.6180   -4.3940 C   0  0  0  0  0  0  0  0  0  0  0  0
   28.4150   50.6130   -6.3240 C   0  0  0  0  0  0  0  0  0  0  0  0
   29.5040   55.1150   -4.4550 C   0  0  0  0  0  0  0  0  0  0  0  0
   28.9470   52.8780   -5.4140 C   0  0  0  0  0  0  0  0  0  0  0  0
  1  2  1  0
  2  3  1  0
  2  4  1  0
  3  5  2  0
  4  6  2  0
  5  6  1  0
  4  7  1  0
  5  8  1  0
  6  9  1  0
  7 10  2  0
  8 11  1  0
  9 12  2  0
 10 12  1  0
 11 13  1  0
 12 14  1  0
 13 15  2  0
 13 16  1  0
 14 17  1  0
 17 18  1  0
 18 19  2  0
 18 20  1  0
 19 21  1  0
 20 22  2  0
 21 23  1  0
 22 24  1  0
 21 25  2  0
 22 25  1  0
M  END
