mac-x0337-mac-x0398
     RDKit          3D

 21 22  0  0  0  0  0  0  0  0999 V2000
   35.5970   52.7610   -5.7210 C   0  0  0  0  0  0  0  0  0  0  0  0
   34.3970   51.8610   -5.5470 C   0  0  0  0  0  0  0  0  0  0  0  0
   33.1440   52.3740   -5.6070 C   0  0  0  0  0  0  0  0  0  0  0  0
   34.5480   50.5110   -5.3260 C   0  0  0  0  0  0  0  0  0  0  0  0
   33.4160   49.7210   -5.1720 C   0  0  0  0  0  0  0  0  0  0  0  0
   32.0450   51.5660   -5.4510 C   0  0  0  0  0  0  0  0  0  0  0  0
   32.1400   50.2090   -5.2260 C   0  0  0  0  0  0  0  0  0  0  0  0
   30.6990   49.2830   -5.0390 S   0  0  0  0  0  0  0  0  0  0  0  0
   29.4340   49.7770   -4.2420 C   0  0  0  0  0  0  0  0  0  0  0  0
   31.3260   48.5670   -3.9040 O   0  0  0  0  0  0  0  0  0  0  0  0
   30.1980   49.6410   -6.4700 N   0  0  0  0  0  0  0  0  0  0  0  0
   29.4050   49.7520   -2.8060 O   0  0  0  0  0  0  0  0  0  0  0  0
   28.2530   48.9900   -4.4470 O   0  0  0  0  0  0  0  0  0  0  0  0
   29.0520   51.1550   -4.6090 C   0  0  0  0  0  0  0  0  0  0  0  0
   29.1970   52.2600   -3.7960 C   0  0  0  0  0  0  0  0  0  0  0  0
   28.5080   51.3890   -5.8660 C   0  0  0  0  0  0  0  0  0  0  0  0
   29.7220   52.1470   -2.5310 O   0  0  0  0  0  0  0  0  0  0  0  0
   28.8200   53.5040   -4.2330 C   0  0  0  0  0  0  0  0  0  0  0  0
   28.1310   52.6190   -6.3100 C   0  0  0  0  0  0  0  0  0  0  0  0
   28.2870   53.7110   -5.4850 C   0  0  0  0  0  0  0  0  0  0  0  0
   27.8910   54.9930   -5.9660 N   0  0  0  0  0  0  0  0  0  0  0  0
  1  2  1  0
  2  3  2  0
  2  4  1  0
  4  5  2  0
  3  6  1  0
  5  7  1  0
  6  7  2  0
  7  8  1  0
  8  9  1  0
  8 10  2  0
  8 11  1  0
  9 12  1  0
  9 13  1  0
  9 14  1  0
 14 15  2  0
 14 16  1  0
 15 17  1  0
 15 18  1  0
 16 19  2  0
 18 20  2  0
 19 20  1  0
 20 21  1  0
M  END
