mac-x0302-mac-x0510
     RDKit          3D

 18 19  0  0  0  0  0  0  0  0999 V2000
   30.9190   44.5770   -4.6730 O   0  0  0  0  0  0  0  0  0  0  0  0
   30.8950   45.8470   -5.1230 C   0  0  0  0  0  0  0  0  0  0  0  0
   31.0730   46.0710   -6.3120 O   0  0  0  0  0  0  0  0  0  0  0  0
   30.6360   46.8590   -4.0250 C   0  0  0  0  0  0  0  0  0  0  0  0
   30.3810   48.1740   -4.5770 N   0  0  0  0  0  0  0  0  0  0  0  0
   29.9550   49.1910   -3.7590 C   0  0  0  0  0  0  0  0  0  0  0  0
   30.1460   49.1450   -2.5420 O   0  0  0  0  0  0  0  0  0  0  0  0
   29.2350   50.3700   -4.4310 C   0  0  1  0  0  0  0  0  0  0  0  0
   30.0170   51.6700   -4.0970 C   0  0  0  0  0  0  0  0  0  0  0  0
   28.8400   50.2530   -5.9450 C   0  0  2  0  0  0  0  0  0  0  0  0
   29.6010   52.9150   -4.8930 C   0  0  2  0  0  0  0  0  0  0  0  0
   28.1070   51.5140   -6.3310 C   0  0  0  0  0  0  0  0  0  0  0  0
   28.0450   49.0230   -6.2200 N   0  0  0  0  0  0  0  0  0  0  0  0
   29.9840   50.0820   -6.9640 C   0  0  0  0  0  0  0  0  0  0  0  0
   29.2470   53.9520   -3.9840 O   0  0  0  0  0  0  0  0  0  0  0  0
   28.4580   52.7180   -5.8460 C   0  0  0  0  0  0  0  0  0  0  0  0
   29.2680   49.4650   -8.0930 N   0  0  0  0  0  0  0  0  0  0  0  0
   28.5430   48.4010   -7.4390 C   0  0  0  0  0  0  0  0  0  0  0  0
  1  2  1  0
  2  3  2  0
  2  4  1  0
  4  5  1  0
  5  6  1  0
  6  7  2  0
  8  6  1  6
  8  9  1  0
  8 10  1  0
  9 11  1  0
 10 12  1  6
 10 13  1  0
 10 14  1  0
 11 15  1  1
 11 16  1  0
 12 16  2  0
 14 17  1  0
 13 18  1  0
 17 18  1  0
M  END
