mac-x0380-mac-x0131
     RDKit          3D

 30 34  0  0  0  0  0  0  0  0999 V2000
   29.9580   50.5190   -2.8330 C   0  0  0  0  0  0  0  0  0  0  0  0
   30.5300   49.4640   -3.3390 N   0  0  0  0  0  0  0  0  0  0  0  0
   30.3700   49.1620   -4.6510 C   0  0  0  0  0  0  0  0  0  0  0  0
   29.0900   51.5380   -3.4620 C   0  0  0  0  0  0  0  0  0  0  0  0
   29.4000   52.9000   -3.4520 C   0  0  0  0  0  0  0  0  0  0  0  0
   27.9190   51.0930   -4.0830 C   0  0  0  0  0  0  0  0  0  0  0  0
   28.5450   53.8230   -4.0640 C   0  0  0  0  0  0  0  0  0  0  0  0
   27.0640   52.0110   -4.6940 C   0  0  0  0  0  0  0  0  0  0  0  0
   30.3530   49.9560   -5.7940 C   0  0  0  0  0  0  0  0  0  0  0  0
   30.1780   47.8510   -5.0550 N   0  0  0  0  0  0  0  0  0  0  0  0
   30.5210   51.4320   -5.8500 C   0  0  0  0  0  0  0  0  0  0  0  0
   27.3720   53.3740   -4.6880 C   0  0  0  0  0  0  0  0  0  0  0  0
   28.9860   55.5440   -4.0250 S   0  0  0  0  0  0  0  0  0  0  0  0
   30.1410   49.0910   -6.9150 C   0  0  0  0  0  0  0  0  0  0  0  0
   30.0370   47.7990   -6.4220 C   0  0  0  0  0  0  0  0  0  0  0  0
   30.1280   46.6890   -4.1750 C   0  0  0  0  0  0  0  0  0  0  0  0
   26.4840   54.2570   -5.3150 N   0  0  0  0  0  0  0  0  0  0  0  0
   28.1590   56.0800   -5.5350 C   0  0  0  0  0  0  0  0  0  0  0  0
   30.0200   49.2380   -8.3100 C   0  0  0  0  0  0  0  0  0  0  0  0
   29.8320   46.6820   -7.1470 N   0  0  0  0  0  0  0  0  0  0  0  0
   31.4150   45.9380   -4.1890 C   0  0  0  0  0  0  0  0  0  0  0  0
   30.0970   50.4530   -8.9790 N   0  0  0  0  0  0  0  0  0  0  0  0
   26.7540   55.5420   -5.6930 C   0  0  0  0  0  0  0  0  0  0  0  0
   29.8160   48.1450   -9.0690 N   0  0  0  0  0  0  0  0  0  0  0  0
   29.7350   46.9500   -8.4580 C   0  0  0  0  0  0  0  0  0  0  0  0
   31.8880   44.8790   -4.9380 C   0  0  0  0  0  0  0  0  0  0  0  0
   32.3730   46.3320   -3.2940 O   0  0  0  0  0  0  0  0  0  0  0  0
   25.8440   56.2370   -6.1530 O   0  0  0  0  0  0  0  0  0  0  0  0
   33.4470   45.5220   -3.4780 C   0  0  0  0  0  0  0  0  0  0  0  0
   33.2010   44.6120   -4.4790 C   0  0  0  0  0  0  0  0  0  0  0  0
  1  2  2  3
  2  3  1  0
  1  4  1  0
  4  5  2  0
  4  6  1  0
  5  7  1  0
  6  8  2  0
  3  9  2  0
  3 10  1  0
  9 11  1  0
  7 12  2  0
  8 12  1  0
  7 13  1  0
  9 14  1  0
 10 15  1  0
 14 15  2  0
 10 16  1  0
 12 17  1  0
 13 18  1  0
 14 19  1  0
 15 20  1  0
 16 21  1  0
 19 22  1  0
 17 23  1  0
 18 23  1  0
 19 24  2  0
 20 25  2  0
 24 25  1  0
 21 26  2  0
 21 27  1  0
 23 28  2  0
 27 29  1  0
 26 30  1  0
 29 30  2  0
M  END
