mac-x0411-mac-x0415
     RDKit          3D

 24 26  0  0  0  0  0  0  0  0999 V2000
   36.0420   43.6280   -3.1890 Cl  0  0  0  0  0  0  0  0  0  0  0  0
   35.9290   45.3510   -3.1250 C   0  0  0  0  0  0  0  0  0  0  0  0
   34.6950   46.0210   -3.2420 C   0  0  0  0  0  0  0  0  0  0  0  0
   37.1190   46.0640   -2.9520 C   0  0  0  0  0  0  0  0  0  0  0  0
   33.5400   45.2740   -3.4140 O   0  0  0  0  0  0  0  0  0  0  0  0
   34.6970   47.4310   -3.1760 C   0  0  0  0  0  0  0  0  0  0  0  0
   37.1010   47.4540   -2.8920 C   0  0  0  0  0  0  0  0  0  0  0  0
   33.2680   48.3890   -3.3000 Cl  0  0  0  0  0  0  0  0  0  0  0  0
   32.6870   45.6860   -4.5070 C   0  0  1  0  0  0  0  0  0  0  0  0
   35.8940   48.1340   -3.0030 C   0  0  0  0  0  0  0  0  0  0  0  0
   33.2430   45.2790   -5.8900 C   0  0  0  0  0  0  0  0  0  0  0  0
   31.2580   45.1300   -4.2730 C   0  0  1  0  0  0  0  0  0  0  0  0
   32.2620   44.9220   -6.9510 N   0  0  0  0  0  0  0  0  0  0  0  0
   34.4340   45.2300   -6.1830 O   0  0  0  0  0  0  0  0  0  0  0  0
   31.1480   43.6660   -3.8010 C   0  0  0  0  0  0  0  0  0  0  0  0
   30.3070   45.8920   -3.3170 C   0  0  1  0  0  0  0  0  0  0  0  0
   31.7920   45.8960   -7.5480 O   0  0  0  0  0  0  0  0  0  0  0  0
   29.9850   43.6590   -2.8920 N   0  0  0  0  0  0  0  0  0  0  0  0
   30.1610   44.9150   -2.1750 C   0  0  2  0  0  0  0  0  0  0  0  0
   30.7700   47.2320   -2.7350 C   0  0  0  0  0  0  0  0  0  0  0  0
   29.0800   45.3650   -1.2710 C   0  0  0  0  0  0  0  0  0  0  0  0
   29.7100   47.7580   -1.7390 C   0  0  2  0  0  0  0  0  0  0  0  0
   30.6040   48.7840   -0.3340 Br  0  0  0  0  0  0  0  0  0  0  0  0
   28.8720   46.6820   -1.0700 C   0  0  0  0  0  0  0  0  0  0  0  0
  1  2  1  0
  2  3  2  0
  2  4  1  0
  3  5  1  0
  3  6  1  0
  4  7  2  0
  6  8  1  0
  9  5  1  1
  6 10  2  0
  7 10  1  0
  9 11  1  0
  9 12  1  0
 11 13  1  0
 11 14  2  0
 12 15  1  1
 12 16  1  0
 13 17  2  0
 15 18  1  0
 16 19  1  0
 18 19  1  0
 16 20  1  1
 19 21  1  6
 20 22  1  0
 22 23  1  1
 21 24  2  0
 22 24  1  0
M  END
