mac-x0212-mac-x0138
     RDKit          3D

 19 20  0  0  0  0  0  0  0  0999 V2000
   30.7980   53.8300   -6.4910 C   0  0  0  0  0  0  0  0  0  0  0  0
   29.2900   53.9640   -5.5550 S   0  0  0  0  0  0  0  0  0  0  0  0
   28.5180   55.0510   -6.1120 O   0  0  0  0  0  0  0  0  0  0  0  0
   29.6480   53.9430   -4.1540 O   0  0  0  0  0  0  0  0  0  0  0  0
   28.5110   52.4990   -6.0180 N   0  0  0  0  0  0  0  0  0  0  0  0
   29.0860   51.2850   -5.4560 C   0  0  0  0  0  0  0  0  0  0  0  0
   29.2110   50.0990   -6.2340 C   0  0  0  0  0  0  0  0  0  0  0  0
   29.5120   51.3250   -4.1150 C   0  0  0  0  0  0  0  0  0  0  0  0
   29.7800   48.9920   -5.6020 C   0  0  0  0  0  0  0  0  0  0  0  0
   30.0760   50.1980   -3.5220 C   0  0  0  0  0  0  0  0  0  0  0  0
   28.8050   50.0160   -7.5300 N   0  0  0  0  0  0  0  0  0  0  0  0
   30.2080   49.0370   -4.2780 C   0  0  0  0  0  0  0  0  0  0  0  0
   28.9740   48.8310   -8.1570 C   0  0  0  0  0  0  0  0  0  0  0  0
   29.8900   47.8540   -6.3610 C   0  0  0  0  0  0  0  0  0  0  0  0
   30.8070   47.8040   -3.7230 C   0  0  0  0  0  0  0  0  0  0  0  0
   28.5790   48.6980   -9.4640 N   0  0  0  0  0  0  0  0  0  0  0  0
   29.4990   47.7490   -7.6210 N   0  0  0  0  0  0  0  0  0  0  0  0
   31.1800   46.8790   -4.4220 O   0  0  0  0  0  0  0  0  0  0  0  0
   30.9040   47.8100   -2.3840 O   0  0  0  0  0  0  0  0  0  0  0  0
  1  2  1  0
  2  3  2  0
  2  4  2  0
  2  5  1  0
  5  6  1  0
  6  7  2  0
  6  8  1  0
  7  9  1  0
  8 10  2  0
  7 11  1  0
  9 12  2  0
 10 12  1  0
 11 13  2  0
  9 14  1  0
 12 15  1  0
 13 16  1  0
 13 17  1  0
 14 17  2  0
 15 18  2  0
 15 19  1  0
M  END
