mac-x0588-mac-x0182
     RDKit          3D

 29 33  0  0  0  0  0  0  0  0999 V2000
   27.6110   51.3210   -6.3040 N   0  0  0  0  0  0  0  0  0  0  0  0
   27.9640   50.1780   -5.4840 C   0  0  1  0  0  0  0  0  0  0  0  0
   28.1670   48.8840   -6.3040 C   0  0  2  0  0  0  0  0  0  0  0  0
   29.2110   50.6010   -4.8880 N   0  0  0  0  0  0  0  0  0  0  0  0
   29.6610   49.5820   -3.9580 C   0  0  0  0  0  0  0  0  0  0  0  0
   28.9210   47.8350   -5.4650 C   0  0  2  0  0  0  0  0  0  0  0  0
   29.0460   49.0660   -7.4900 N   0  0  0  0  0  0  0  0  0  0  0  0
   30.0450   48.4000   -4.7110 N   0  0  0  0  0  0  0  0  0  0  0  0
   29.4460   46.9480   -6.5150 N   0  0  0  0  0  0  0  0  0  0  0  0
   29.5440   47.7260   -7.7440 C   0  0  0  0  0  0  0  0  0  0  0  0
   30.8590   47.4120   -3.9190 C   0  0  2  0  0  0  0  0  0  0  0  0
   31.9530   46.5740   -4.6650 C   0  0  0  0  0  0  0  0  0  0  0  0
   29.9600   46.4290   -3.0920 C   0  0  1  0  0  0  0  0  0  0  0  0
   33.3220   47.0130   -4.2910 N   0  0  0  0  0  0  0  0  0  0  0  0
   28.8890   47.1450   -2.4420 O   0  0  0  0  0  0  0  0  0  0  0  0
   29.2710   45.3230   -3.8810 C   0  0  0  0  0  0  0  0  0  0  0  0
   28.1290   44.9480   -2.9700 C   0  0  0  0  0  0  0  0  0  0  0  0
   27.7440   46.2790   -2.3600 C   0  0  0  0  0  0  0  0  0  0  0  0
   34.5170   46.1980   -4.7780 S   0  0  2  0  0  0  0  0  0  0  0  0
   35.0640   46.0960   -6.1070 O   0  0  0  0  0  0  0  0  0  0  0  0
   34.1320   44.6280   -4.3210 N   0  0  0  0  0  0  0  0  0  0  0  0
   35.8110   46.3800   -3.6420 C   0  0  0  0  0  0  0  0  0  0  0  0
   34.7960   44.2630   -3.1780 C   0  0  0  0  0  0  0  0  0  0  0  0
   35.8470   45.2520   -2.8320 C   0  0  0  0  0  0  0  0  0  0  0  0
   36.6910   47.4350   -3.5080 C   0  0  0  0  0  0  0  0  0  0  0  0
   34.5730   43.2640   -2.5140 O   0  0  0  0  0  0  0  0  0  0  0  0
   37.6530   47.3310   -2.5000 C   0  0  0  0  0  0  0  0  0  0  0  0
   36.7980   45.1400   -1.8310 C   0  0  0  0  0  0  0  0  0  0  0  0
   37.7050   46.1940   -1.6680 C   0  0  0  0  0  0  0  0  0  0  0  0
  2  1  1  6
  2  3  1  0
  2  4  1  0
  4  5  1  0
  3  6  1  0
  3  7  1  6
  5  8  1  0
  6  8  1  0
  6  9  1  6
  7 10  1  0
  9 10  1  0
  8 11  1  0
 11 12  1  6
 11 13  1  0
 12 14  1  0
 13 15  1  0
 13 16  1  6
 16 17  1  0
 15 18  1  0
 17 18  1  0
 14 19  2  0
 19 20  2  0
 19 21  1  1
 19 22  1  0
 21 23  1  0
 22 24  2  0
 23 24  1  0
 22 25  1  0
 23 26  2  0
 25 27  2  0
 24 28  1  0
 27 29  1  0
 28 29  2  0
M  END
