mac-x0439-mac-x0161
     RDKit          3D

 30 34  0  0  0  0  0  0  0  0999 V2000
   30.4120   47.7500   -3.5450 N   0  0  0  0  0  0  0  0  0  0  0  0
   29.7860   46.5830   -3.0440 C   0  0  0  0  0  0  0  0  0  0  0  0
   30.3680   45.2300   -3.3990 C   0  0  2  0  0  0  0  0  0  0  0  0
   29.6010   48.8380   -4.0290 N   0  0  0  0  0  0  0  0  0  0  0  0
   31.6950   47.6940   -4.0590 C   0  0  0  0  0  0  0  0  0  0  0  0
   28.6840   46.5780   -2.2490 C   0  0  0  0  0  0  0  0  0  0  0  0
   29.1890   49.8470   -3.0700 C   0  0  0  0  0  0  0  0  0  0  0  0
   28.6670   48.5560   -5.1230 C   0  0  1  0  0  0  0  0  0  0  0  0
   32.0210   47.7690   -5.3940 C   0  0  0  0  0  0  0  0  0  0  0  0
   32.9760   47.5550   -3.4450 C   0  0  0  0  0  0  0  0  0  0  0  0
   33.2510   47.4390   -2.1230 O   0  0  0  0  0  0  0  0  0  0  0  0
   30.9080   44.9480   -4.7620 C   0  0  0  0  0  0  0  0  0  0  0  0
   29.2150   44.2410   -3.4970 C   0  0  0  0  0  0  0  0  0  0  0  0
   28.0780   45.3440   -1.7580 C   0  0  0  0  0  0  0  0  0  0  0  0
   28.8470   51.1390   -3.6750 N   0  0  0  0  0  0  0  0  0  0  0  0
   27.9210   49.8060   -5.6120 C   0  0  1  0  0  0  0  0  0  0  0  0
   29.2810   48.0310   -6.3510 N   0  0  0  0  0  0  0  0  0  0  0  0
   33.3610   47.6830   -5.5660 O   0  0  0  0  0  0  0  0  0  0  0  0
   33.9740   47.5480   -4.3360 N   0  0  0  0  0  0  0  0  0  0  0  0
   34.5940   47.7590   -1.7700 C   0  0  0  0  0  0  0  0  0  0  0  0
   30.1670   44.0030   -5.3610 C   0  0  0  0  0  0  0  0  0  0  0  0
   29.1140   43.5500   -4.5930 N   0  0  0  0  0  0  0  0  0  0  0  0
   28.3110   44.1580   -2.3430 C   0  0  0  0  0  0  0  0  0  0  0  0
   28.5850   51.1080   -5.0990 C   0  0  1  0  0  0  0  0  0  0  0  0
   27.8820   49.7070   -7.1020 N   0  0  0  0  0  0  0  0  0  0  0  0
   28.3760   48.3860   -7.4180 C   0  0  0  0  0  0  0  0  0  0  0  0
   30.4860   43.5180   -6.7310 C   0  0  0  0  0  0  0  0  0  0  0  0
   27.8250   52.3150   -5.3560 N   0  0  0  0  0  0  0  0  0  0  0  0
   30.1090   42.2430   -6.9330 O   0  0  0  0  0  0  0  0  0  0  0  0
   31.0310   44.1580   -7.6160 O   0  0  0  0  0  0  0  0  0  0  0  0
  1  2  1  0
  2  3  1  0
  1  4  1  0
  1  5  1  0
  2  6  2  0
  4  7  1  0
  4  8  1  0
  5  9  2  0
  5 10  1  0
 10 11  1  0
  3 12  1  6
  3 13  1  0
  6 14  1  0
  7 15  1  0
  8 16  1  0
  8 17  1  6
  9 18  1  0
 10 19  2  0
 18 19  1  0
 11 20  1  0
 12 21  2  0
 13 22  2  0
 21 22  1  0
 13 23  1  0
 14 23  2  0
 15 24  1  0
 16 24  1  0
 16 25  1  6
 17 26  1  0
 25 26  1  0
 21 27  1  0
 24 28  1  1
 27 29  1  0
 27 30  2  0
M  END
