mac-x0567-mac-x0193
     RDKit          3D

 27 29  0  0  0  0  0  0  0  0999 V2000
   29.9590   46.7130   -6.5130 N   0  0  0  0  0  0  0  0  0  0  0  0
   29.8110   48.0500   -6.6840 C   0  0  0  0  0  0  0  0  0  0  0  0
   30.1130   48.6840   -7.8450 N   0  0  0  0  0  0  0  0  0  0  0  0
   29.3880   49.0290   -5.8500 C   0  0  0  0  0  0  0  0  0  0  0  0
   30.6570   47.9780   -8.9870 C   0  0  0  0  0  0  0  0  0  0  0  0
   29.8830   50.0280   -7.8350 N   0  0  0  0  0  0  0  0  0  0  0  0
   29.4350   50.2670   -6.5810 C   0  0  0  0  0  0  0  0  0  0  0  0
   28.9930   48.8390   -4.5340 C   0  0  0  0  0  0  0  0  0  0  0  0
   32.0060   47.3380   -8.5760 C   0  0  0  0  0  0  0  0  0  0  0  0
   29.0480   51.4690   -5.9570 C   0  0  0  0  0  0  0  0  0  0  0  0
   28.6190   50.0540   -3.9330 C   0  0  0  0  0  0  0  0  0  0  0  0
   31.9930   45.8180   -8.2830 C   0  0  0  0  0  0  0  0  0  0  0  0
   28.6430   51.3090   -4.6090 C   0  0  0  0  0  0  0  0  0  0  0  0
   32.0410   45.5060   -6.8250 N   0  0  0  0  0  0  0  0  0  0  0  0
   33.1820   45.2940   -6.2290 C   0  0  0  0  0  0  0  0  0  0  0  0
   34.3660   45.3610   -6.8600 O   0  0  0  0  0  0  0  0  0  0  0  0
   33.2700   44.9340   -4.7360 C   0  0  0  0  0  0  0  0  0  0  0  0
   34.6490   44.6350   -4.3410 N   0  0  0  0  0  0  0  0  0  0  0  0
   34.9350   43.8280   -3.2530 C   0  0  0  0  0  0  0  0  0  0  0  0
   34.3710   42.7630   -3.0470 O   0  0  0  0  0  0  0  0  0  0  0  0
   35.9150   44.3720   -2.4450 N   0  0  0  0  0  0  0  0  0  0  0  0
   37.1070   43.6420   -1.9710 C   0  0  0  0  0  0  0  0  0  0  0  0
   37.3700   42.3480   -2.7450 C   0  0  0  0  0  0  0  0  0  0  0  0
   37.0330   43.3970   -0.4500 C   0  0  0  0  0  0  0  0  0  0  0  0
   38.5640   41.5720   -2.1850 C   0  0  0  0  0  0  0  0  0  0  0  0
   38.1820   42.5560    0.1160 C   0  0  0  0  0  0  0  0  0  0  0  0
   39.2080   42.2090   -0.9550 C   0  0  0  0  0  0  0  0  0  0  0  0
  1  2  1  0
  2  3  1  0
  2  4  2  0
  3  5  1  0
  3  6  1  0
  4  7  1  0
  6  7  2  0
  4  8  1  0
  5  9  1  0
  7 10  1  0
  8 11  2  0
  9 12  1  0
 10 13  2  0
 11 13  1  0
 12 14  1  0
 14 15  2  3
 15 16  1  0
 15 17  1  0
 17 18  1  0
 18 19  1  0
 19 20  2  0
 19 21  1  0
 21 22  1  0
 22 23  1  0
 22 24  1  0
 23 25  1  0
 24 26  1  0
 25 27  1  0
 26 27  1  0
M  END
