mac-x0328-mac-x0212
     RDKit          3D

 14 15  0  0  0  0  0  0  0  0999 V2000
   30.5520   47.4810   -3.3710 O   0  0  0  0  0  0  0  0  0  0  0  0
   30.0280   48.0480   -4.4790 C   0  0  0  0  0  0  0  0  0  0  0  0
   29.6390   47.4120   -5.4420 O   0  0  0  0  0  0  0  0  0  0  0  0
   29.9730   49.5300   -4.4120 C   0  0  0  0  0  0  0  0  0  0  0  0
   29.5580   50.2530   -5.5530 C   0  0  0  0  0  0  0  0  0  0  0  0
   30.3490   50.1310   -3.1660 C   0  0  0  0  0  0  0  0  0  0  0  0
   29.5510   51.6340   -5.3570 C   0  0  0  0  0  0  0  0  0  0  0  0
   30.3580   51.5220   -2.9230 C   0  0  0  0  0  0  0  0  0  0  0  0
   29.1800   52.5480   -6.3430 N   0  0  0  0  0  0  0  0  0  0  0  0
   29.9580   52.3220   -4.0120 C   0  0  0  0  0  0  0  0  0  0  0  0
   29.8730   53.6940   -4.0530 N   0  0  0  0  0  0  0  0  0  0  0  0
   29.3730   53.9180   -5.5370 S   0  0  0  0  0  0  0  0  0  0  0  0
   29.2980   55.6160   -5.4970 C   0  0  0  0  0  0  0  0  0  0  0  0
   28.9250   54.9240   -6.7370 O   0  0  0  0  0  0  0  0  0  0  0  0
  1  2  1  0
  2  3  2  0
  2  4  1  0
  4  5  2  0
  4  6  1  0
  5  7  1  0
  6  8  2  0
  7  9  1  0
  7 10  2  0
  8 10  1  0
 10 11  1  0
  9 12  1  0
 11 12  2  0
 12 13  1  0
 12 14  2  0
M  END
