mac-x0415-mac-x0224
     RDKit          3D

 24 26  0  0  0  0  0  0  0  0999 V2000
   32.0310   44.9340   -6.6950 O   0  0  0  0  0  0  0  0  0  0  0  0
   32.8090   45.4970   -5.6520 C   0  0  1  0  0  0  0  0  0  0  0  0
   32.3730   46.8570   -5.3530 N   0  0  0  0  0  0  0  0  0  0  0  0
   32.6420   44.6550   -4.3680 C   0  0  0  0  0  0  0  0  0  0  0  0
   31.1040   46.9790   -5.1490 C   0  0  0  0  0  0  0  0  0  0  0  0
   31.2550   44.6180   -3.8230 C   0  0  0  0  0  0  0  0  0  0  0  0
   30.1540   43.7920   -4.3490 C   0  0  0  0  0  0  0  0  0  0  0  0
   30.6310   45.2450   -2.8220 C   0  0  0  0  0  0  0  0  0  0  0  0
   30.4900   48.2800   -4.8180 C   0  0  0  0  0  0  0  0  0  0  0  0
   28.9800   43.8630   -3.7790 N   0  0  0  0  0  0  0  0  0  0  0  0
   29.2030   44.8270   -2.6880 C   0  0  2  0  0  0  0  0  0  0  0  0
   31.0820   46.2300   -1.8740 C   0  0  0  0  0  0  0  0  0  0  0  0
   29.4830   48.8090   -5.6350 C   0  0  0  0  0  0  0  0  0  0  0  0
   30.9140   48.9830   -3.6860 C   0  0  0  0  0  0  0  0  0  0  0  0
   31.8980   48.4730   -2.8870 O   0  0  0  0  0  0  0  0  0  0  0  0
   28.3440   46.0500   -2.6750 C   0  0  0  0  0  0  0  0  0  0  0  0
   30.1870   47.1830   -1.5220 C   0  0  0  0  0  0  0  0  0  0  0  0
   28.9000   50.0400   -5.3220 C   0  0  0  0  0  0  0  0  0  0  0  0
   30.3370   50.2090   -3.3680 C   0  0  0  0  0  0  0  0  0  0  0  0
   30.5980   48.5360   -0.3010 Br  0  0  0  0  0  0  0  0  0  0  0  0
   27.6160   50.7680   -6.3240 S   0  0  0  0  0  0  0  0  0  0  0  0
   28.8370   47.1750   -2.1070 C   0  0  0  0  0  0  0  0  0  0  0  0
   29.3330   50.7330   -4.1860 C   0  0  0  0  0  0  0  0  0  0  0  0
   28.2520   52.4590   -6.4960 C   0  0  0  0  0  0  0  0  0  0  0  0
  2  1  1  6
  2  3  1  0
  2  4  1  0
  3  5  2  3
  4  6  1  0
  6  7  1  0
  6  8  2  0
  5  9  1  0
  7 10  2  0
  8 11  1  0
 10 11  1  0
  8 12  1  0
  9 13  2  0
  9 14  1  0
 14 15  1  0
 11 16  1  6
 12 17  2  0
 13 18  1  0
 14 19  2  0
 17 20  1  0
 18 21  1  0
 16 22  2  0
 17 22  1  0
 18 23  2  0
 19 23  1  0
 21 24  1  0
M  END
