mac-x0255-mac-x0380
     RDKit          3D

 28 31  0  0  0  0  0  0  0  0999 V2000
   31.3660   45.3670   -7.5020 O   0  0  0  0  0  0  0  0  0  0  0  0
   32.5090   45.7190   -6.8750 C   0  0  0  0  0  0  0  0  0  0  0  0
   33.3130   46.4290   -7.4490 O   0  0  0  0  0  0  0  0  0  0  0  0
   32.6330   45.1290   -5.4960 C   0  0  0  0  0  0  0  0  0  0  0  0
   31.4960   45.3650   -4.5200 C   0  0  0  0  0  0  0  0  0  0  0  0
   30.2290   45.9770   -4.5750 C   0  0  0  0  0  0  0  0  0  0  0  0
   31.7830   44.7710   -2.9610 S   0  0  0  0  0  0  0  0  0  0  0  0
   29.5550   46.6970   -5.7030 C   0  0  0  0  0  0  0  0  0  0  0  0
   29.5240   45.8810   -3.3280 C   0  0  0  0  0  0  0  0  0  0  0  0
   30.2660   45.2640   -2.3630 C   0  0  0  0  0  0  0  0  0  0  0  0
   29.8070   48.1390   -5.5480 O   0  0  0  0  0  0  0  0  0  0  0  0
   28.2320   46.3250   -2.9850 C   0  0  0  0  0  0  0  0  0  0  0  0
   29.7660   45.0980   -1.0660 C   0  0  0  0  0  0  0  0  0  0  0  0
   29.4170   48.9000   -4.4550 C   0  0  0  0  0  0  0  0  0  0  0  0
   27.7190   46.1570   -1.7050 C   0  0  0  0  0  0  0  0  0  0  0  0
   28.4910   45.5500   -0.7500 C   0  0  0  0  0  0  0  0  0  0  0  0
   29.4350   48.5890   -3.2710 O   0  0  0  0  0  0  0  0  0  0  0  0
   28.9670   50.2510   -4.9290 C   0  0  0  0  0  0  0  0  0  0  0  0
   29.1130   51.4520   -4.1890 C   0  0  0  0  0  0  0  0  0  0  0  0
   28.3690   50.3090   -6.1910 C   0  0  0  0  0  0  0  0  0  0  0  0
   28.6640   52.6780   -4.7290 C   0  0  0  0  0  0  0  0  0  0  0  0
   27.9250   51.5230   -6.7220 C   0  0  0  0  0  0  0  0  0  0  0  0
   28.0740   52.7080   -5.9940 C   0  0  0  0  0  0  0  0  0  0  0  0
   28.8530   54.1880   -3.7990 S   0  0  0  0  0  0  0  0  0  0  0  0
   27.6180   53.9070   -6.5720 N   0  0  0  0  0  0  0  0  0  0  0  0
   29.1080   55.3270   -5.1810 C   0  0  0  0  0  0  0  0  0  0  0  0
   28.1160   55.1570   -6.3110 C   0  0  0  0  0  0  0  0  0  0  0  0
   27.7470   56.1150   -7.0000 O   0  0  0  0  0  0  0  0  0  0  0  0
  1  2  1  0
  2  3  2  0
  2  4  1  0
  4  5  1  0
  5  6  2  0
  5  7  1  0
  6  8  1  0
  6  9  1  0
  7 10  1  0
  9 10  2  0
  8 11  1  0
  9 12  1  0
 10 13  1  0
 11 14  1  0
 12 15  2  0
 13 16  2  0
 15 16  1  0
 14 17  2  0
 14 18  1  0
 18 19  2  0
 18 20  1  0
 19 21  1  0
 20 22  2  0
 21 23  2  0
 22 23  1  0
 21 24  1  0
 23 25  1  0
 24 26  1  0
 25 27  1  0
 26 27  1  0
 27 28  2  0
M  END
