mac-x0204-mac-x0360
     RDKit          3D

 23 24  0  0  0  0  0  0  0  0999 V2000
   31.7520   46.1430   -6.1800 O   0  0  0  0  0  0  0  0  0  0  0  0
   30.7210   46.6800   -5.3620 C   0  0  0  0  0  0  0  0  0  0  0  0
   29.7200   45.6720   -5.3660 O   0  0  0  0  0  0  0  0  0  0  0  0
   30.1450   47.9750   -6.0160 C   0  0  0  0  0  0  0  0  0  0  0  0
   31.2070   46.8940   -3.9370 C   0  0  0  0  0  0  0  0  0  0  0  0
   30.2940   49.1740   -5.1720 N   0  0  0  0  0  0  0  0  0  0  0  0
   30.3300   46.9950   -2.8460 C   0  0  0  0  0  0  0  0  0  0  0  0
   32.5730   46.9980   -3.6550 C   0  0  0  0  0  0  0  0  0  0  0  0
   29.6640   50.6340   -5.6880 S   0  0  0  0  0  0  0  0  0  0  0  0
   30.8390   47.1890   -1.5640 C   0  0  0  0  0  0  0  0  0  0  0  0
   33.0920   47.1860   -2.4200 N   0  0  0  0  0  0  0  0  0  0  0  0
   30.0300   47.2920   -0.4730 O   0  0  0  0  0  0  0  0  0  0  0  0
   28.8680   51.1890   -4.6190 O   0  0  0  0  0  0  0  0  0  0  0  0
   29.1100   50.3950   -7.0050 O   0  0  0  0  0  0  0  0  0  0  0  0
   32.2100   47.2780   -1.3990 C   0  0  0  0  0  0  0  0  0  0  0  0
   31.1160   51.6300   -5.8900 C   0  0  0  0  0  0  0  0  0  0  0  0
   32.3830   51.0800   -5.6550 C   0  0  0  0  0  0  0  0  0  0  0  0
   30.9810   52.9650   -6.2870 C   0  0  0  0  0  0  0  0  0  0  0  0
   33.5130   51.8840   -5.8210 C   0  0  0  0  0  0  0  0  0  0  0  0
   32.1220   53.7480   -6.4460 C   0  0  0  0  0  0  0  0  0  0  0  0
   31.9630   55.3910   -6.9330 Cl  0  0  0  0  0  0  0  0  0  0  0  0
   35.0810   51.2300   -5.5400 Cl  0  0  0  0  0  0  0  0  0  0  0  0
   33.3890   53.2160   -6.2150 C   0  0  0  0  0  0  0  0  0  0  0  0
  2  1  1  0
  2  3  1  0
  2  4  1  0
  2  5  1  0
  4  6  1  0
  5  7  2  0
  5  8  1  0
  9  6  1  0
  7 10  1  0
  8 11  2  0
 10 12  1  0
  9 13  2  0
  9 14  2  0
 10 15  2  0
 11 15  1  0
  9 16  1  0
 16 17  2  0
 16 18  1  0
 17 19  1  0
 18 20  2  0
 20 21  1  0
 19 22  1  0
 19 23  2  0
 20 23  1  0
M  END
