mac-x0138-mac-x0357
     RDKit          3D

 22 24  0  0  0  0  0  0  0  0999 V2000
   31.5200   47.7600   -4.7140 C   0  0  0  0  0  0  0  0  0  0  0  0
   31.5370   46.4830   -4.2900 C   0  0  0  0  0  0  0  0  0  0  0  0
   30.4060   45.7430   -4.0280 O   0  0  0  0  0  0  0  0  0  0  0  0
   30.4160   48.5830   -4.9680 N   0  0  0  0  0  0  0  0  0  0  0  0
   29.5700   49.2270   -4.0770 C   0  0  0  0  0  0  0  0  0  0  0  0
   29.9390   48.9280   -6.2280 C   0  0  0  0  0  0  0  0  0  0  0  0
   32.8160   45.7820   -4.0740 C   0  0  0  0  0  0  0  0  0  0  0  0
   28.6240   49.9310   -4.6640 N   0  0  0  0  0  0  0  0  0  0  0  0
   28.8490   49.7480   -6.0090 C   0  0  0  0  0  0  0  0  0  0  0  0
   30.4290   48.5500   -7.4270 N   0  0  0  0  0  0  0  0  0  0  0  0
   32.9390   44.3700   -4.1080 C   0  0  0  0  0  0  0  0  0  0  0  0
   33.9480   46.5810   -3.8260 C   0  0  0  0  0  0  0  0  0  0  0  0
   31.7550   43.4770   -4.3720 C   0  0  0  0  0  0  0  0  0  0  0  0
   28.1900   50.2270   -7.1500 C   0  0  0  0  0  0  0  0  0  0  0  0
   29.7290   49.0620   -8.4480 C   0  0  0  0  0  0  0  0  0  0  0  0
   35.1950   46.0000   -3.6100 C   0  0  0  0  0  0  0  0  0  0  0  0
   34.2100   43.8170   -3.8860 C   0  0  0  0  0  0  0  0  0  0  0  0
   27.0770   51.0580   -7.0920 N   0  0  0  0  0  0  0  0  0  0  0  0
   30.1530   48.7320   -9.7220 N   0  0  0  0  0  0  0  0  0  0  0  0
   34.4490   42.4710   -3.8910 O   0  0  0  0  0  0  0  0  0  0  0  0
   28.6550   49.8650   -8.3660 N   0  0  0  0  0  0  0  0  0  0  0  0
   35.3250   44.6160   -3.6410 C   0  0  0  0  0  0  0  0  0  0  0  0
  1  2  2  3
  2  3  1  0
  1  4  1  0
  4  5  1  0
  4  6  1  0
  2  7  1  0
  5  8  2  0
  6  9  2  0
  8  9  1  0
  6 10  1  0
  7 11  2  0
  7 12  1  0
 11 13  1  0
  9 14  1  0
 10 15  2  0
 12 16  2  0
 11 17  1  0
 14 18  1  0
 15 19  1  0
 17 20  1  0
 14 21  2  0
 15 21  1  0
 16 22  1  0
 17 22  2  0
M  END
