mac-x0277-mac-x0546
     RDKit          3D

 17 18  0  0  0  0  0  0  0  0999 V2000
   28.2450   45.5550   -0.1470 Cl  0  0  0  0  0  0  0  0  0  0  0  0
   28.8800   45.8440   -1.8010 C   0  0  1  0  0  0  0  0  0  0  0  0
   29.5410   47.2330   -2.0030 C   0  0  1  0  0  0  0  0  0  0  0  0
   29.6730   44.6290   -2.3250 C   0  0  2  0  0  0  0  0  0  0  0  0
   30.5170   47.7600   -0.9270 C   0  0  0  0  0  0  0  0  0  0  0  0
   30.1170   47.4220   -3.4200 C   0  0  0  0  0  0  0  0  0  0  0  0
   30.7100   44.0570   -1.4360 N   0  0  0  0  0  0  0  0  0  0  0  0
   30.3600   44.8870   -3.6830 C   0  0  1  0  0  0  0  0  0  0  0  0
   30.7810   49.2580   -0.9040 C   0  0  0  0  0  0  0  0  0  0  0  0
   29.9380   46.2160   -4.3470 C   0  0  1  0  0  0  0  0  0  0  0  0
   31.8650   44.8330   -3.3250 C   0  0  1  0  0  0  0  0  0  0  0  0
   31.9010   43.7750   -2.2260 C   0  0  0  0  0  0  0  0  0  0  0  0
   28.4950   46.1270   -4.8620 C   0  0  0  0  0  0  0  0  0  0  0  0
   32.6930   44.4310   -4.5660 C   0  0  0  0  0  0  0  0  0  0  0  0
   32.7020   45.4810   -5.6530 C   0  0  0  0  0  0  0  0  0  0  0  0
   33.6900   46.3950   -5.5120 O   0  0  0  0  0  0  0  0  0  0  0  0
   31.9050   45.5140   -6.5790 O   0  0  0  0  0  0  0  0  0  0  0  0
  2  1  1  1
  2  3  1  0
  2  4  1  0
  3  5  1  1
  3  6  1  0
  4  7  1  1
  4  8  1  0
  5  9  1  0
  6 10  1  0
  8 10  1  1
  8 11  1  0
  7 12  1  0
 11 12  1  0
 10 13  1  1
 11 14  1  6
 14 15  1  0
 15 16  1  0
 15 17  2  0
M  END
