mac-x0124-mac-x0347
     RDKit          3D

 18 20  0  0  0  0  0  0  0  0999 V2000
   30.5370   46.5610   -4.9450 C   0  0  0  0  0  0  0  0  0  0  0  0
   30.0980   45.8060   -3.9250 O   0  0  0  0  0  0  0  0  0  0  0  0
   31.5380   46.1970   -5.5540 O   0  0  0  0  0  0  0  0  0  0  0  0
   29.8180   47.6880   -5.2360 N   0  0  0  0  0  0  0  0  0  0  0  0
   29.8610   48.8910   -4.3910 C   0  0  0  0  0  0  0  0  0  0  0  0
   29.3040   48.0420   -6.4850 C   0  0  0  0  0  0  0  0  0  0  0  0
   29.5220   50.1120   -5.3100 C   0  0  0  0  0  0  0  0  0  0  0  0
   29.1260   49.4070   -6.5670 C   0  0  0  0  0  0  0  0  0  0  0  0
   29.0190   47.1960   -7.4730 N   0  0  0  0  0  0  0  0  0  0  0  0
   28.6240   49.9030   -7.7440 C   0  0  0  0  0  0  0  0  0  0  0  0
   28.5390   47.7760   -8.5770 C   0  0  0  0  0  0  0  0  0  0  0  0
   28.3300   50.9230   -4.8240 C   0  0  0  0  0  0  0  0  0  0  0  0
   30.7200   51.0280   -5.5340 C   0  0  0  0  0  0  0  0  0  0  0  0
   28.4010   51.2700   -7.9410 N   0  0  0  0  0  0  0  0  0  0  0  0
   28.3270   49.0900   -8.7640 N   0  0  0  0  0  0  0  0  0  0  0  0
   28.2110   52.2430   -5.0650 C   0  0  0  0  0  0  0  0  0  0  0  0
   30.5890   52.3490   -5.7640 C   0  0  0  0  0  0  0  0  0  0  0  0
   29.2510   53.0270   -5.8180 C   0  0  0  0  0  0  0  0  0  0  0  0
  1  2  1  0
  1  3  2  0
  1  4  1  0
  4  5  1  0
  4  6  1  0
  5  7  1  0
  6  8  2  0
  7  8  1  0
  6  9  1  0
  8 10  1  0
  9 11  2  0
  7 12  1  0
  7 13  1  0
 10 14  1  0
 10 15  2  0
 11 15  1  0
 12 16  2  0
 13 17  2  0
 16 18  1  0
 17 18  1  0
M  END
