mac-x0178-mac-x0358
     RDKit          3D

 15 15  0  0  0  0  0  0  0  0999 V2000
   28.6380   45.2610   -0.2550 N   0  0  0  0  0  0  0  0  0  0  0  0
   29.2720   46.7590   -0.7210 S   0  0  0  0  0  0  0  0  0  0  0  0
   30.2580   47.0460    0.2940 O   0  0  0  0  0  0  0  0  0  0  0  0
   28.1030   47.5730   -0.9530 O   0  0  0  0  0  0  0  0  0  0  0  0
   30.0840   46.4410   -2.2600 C   0  0  0  0  0  0  0  0  0  0  0  0
   29.4070   45.8190   -3.3130 C   0  0  0  0  0  0  0  0  0  0  0  0
   31.4180   46.8200   -2.4210 C   0  0  0  0  0  0  0  0  0  0  0  0
   32.0920   47.4300   -1.4040 O   0  0  0  0  0  0  0  0  0  0  0  0
   30.0670   45.5790   -4.5240 C   0  0  0  0  0  0  0  0  0  0  0  0
   32.0760   46.5790   -3.6350 C   0  0  0  0  0  0  0  0  0  0  0  0
   31.4110   45.9520   -4.7070 C   0  0  0  0  0  0  0  0  0  0  0  0
   32.1070   45.6780   -6.0340 C   0  0  0  0  0  0  0  0  0  0  0  0
   31.1610   45.6630   -7.0860 O   0  0  0  0  0  0  0  0  0  0  0  0
   33.0090   46.7210   -6.3540 O   0  0  0  0  0  0  0  0  0  0  0  0
   32.8570   44.3510   -6.0090 C   0  0  0  0  0  0  0  0  0  0  0  0
  2  1  1  0
  2  3  2  0
  2  4  2  0
  2  5  1  0
  5  6  2  0
  5  7  1  0
  7  8  1  0
  6  9  1  0
  7 10  2  0
  9 11  2  0
 10 11  1  0
 11 12  1  0
 12 13  1  0
 12 14  1  0
 12 15  1  0
M  END
