mac-x0437-mac-x0338
     RDKit          3D

 26 28  0  0  0  0  0  0  0  0999 V2000
   31.7050   45.0130   -6.9620 O   0  0  0  0  0  0  0  0  0  0  0  0
   32.8480   44.8110   -6.2840 C   0  0  0  0  0  0  0  0  0  0  0  0
   33.9260   44.9270   -6.8410 O   0  0  0  0  0  0  0  0  0  0  0  0
   32.6380   44.4730   -4.8340 C   0  0  0  0  0  0  0  0  0  0  0  0
   32.5910   45.7690   -4.0330 C   0  0  1  0  0  0  0  0  0  0  0  0
   31.4460   45.9130   -3.0060 C   0  0  0  0  0  0  0  0  0  0  0  0
   33.9070   46.2260   -3.5740 N   0  0  0  0  0  0  0  0  0  0  0  0
   30.8220   47.3330   -2.9790 C   0  0  0  0  0  0  0  0  0  0  0  0
   34.2000   47.5580   -3.5600 C   0  0  0  0  0  0  0  0  0  0  0  0
   35.0330   45.5450   -3.1190 C   0  0  0  0  0  0  0  0  0  0  0  0
   30.2940   47.8800   -4.3370 C   0  0  0  0  0  0  0  0  0  0  0  0
   35.4100   47.8010   -3.1430 N   0  0  0  0  0  0  0  0  0  0  0  0
   35.9470   46.5760   -2.8670 C   0  0  0  0  0  0  0  0  0  0  0  0
   35.3770   44.2000   -2.8990 C   0  0  0  0  0  0  0  0  0  0  0  0
   37.2330   46.2840   -2.3920 C   0  0  0  0  0  0  0  0  0  0  0  0
   36.6710   43.9300   -2.4210 C   0  0  0  0  0  0  0  0  0  0  0  0
   30.0350   49.3810   -4.3290 C   0  0  0  0  0  0  0  0  0  0  0  0
   37.5860   44.9520   -2.1720 C   0  0  0  0  0  0  0  0  0  0  0  0
   29.5800   50.0440   -5.4470 N   0  0  0  0  0  0  0  0  0  0  0  0
   30.2760   50.0650   -3.1420 C   0  0  0  0  0  0  0  0  0  0  0  0
   29.3950   51.4050   -5.2840 C   0  0  0  0  0  0  0  0  0  0  0  0
   30.0920   51.3930   -2.9930 N   0  0  0  0  0  0  0  0  0  0  0  0
   28.9080   52.2310   -6.4320 C   0  0  0  0  0  0  0  0  0  0  0  0
   29.6480   52.0500   -4.0870 C   0  0  0  0  0  0  0  0  0  0  0  0
   28.5750   51.5590   -7.5780 N   0  0  0  0  0  0  0  0  0  0  0  0
   28.8080   53.4500   -6.3540 O   0  0  0  0  0  0  0  0  0  0  0  0
  1  2  1  0
  2  3  2  0
  2  4  1  0
  5  4  1  1
  5  6  1  0
  5  7  1  0
  6  8  1  0
  7  9  1  0
  7 10  1  0
  8 11  1  0
  9 12  2  0
 10 13  2  0
 12 13  1  0
 10 14  1  0
 13 15  1  0
 14 16  2  0
 11 17  1  0
 15 18  2  0
 16 18  1  0
 17 19  2  0
 17 20  1  0
 19 21  1  0
 20 22  2  0
 21 23  1  0
 21 24  2  0
 22 24  1  0
 23 25  1  0
 23 26  2  0
M  END
