mac-x0124-mac-x0567
     RDKit          3D

 12 13  0  0  0  0  0  0  0  0999 V2000
   30.2350   46.2690   -4.2390 C   0  0  0  0  0  0  0  0  0  0  0  0
   29.8660   47.6170   -4.5990 N   0  0  0  0  0  0  0  0  0  0  0  0
   29.8360   48.6930   -3.7470 C   0  0  0  0  0  0  0  0  0  0  0  0
   29.4900   48.0090   -5.8590 C   0  0  0  0  0  0  0  0  0  0  0  0
   29.4310   49.7950   -4.4790 C   0  0  0  0  0  0  0  0  0  0  0  0
   29.2100   49.3660   -5.8180 C   0  0  0  0  0  0  0  0  0  0  0  0
   29.4090   47.2120   -6.9360 N   0  0  0  0  0  0  0  0  0  0  0  0
   28.8040   49.9500   -7.0240 C   0  0  0  0  0  0  0  0  0  0  0  0
   29.0110   47.8690   -8.0320 C   0  0  0  0  0  0  0  0  0  0  0  0
   28.4860   51.2940   -7.1550 N   0  0  0  0  0  0  0  0  0  0  0  0
   28.8980   47.1240   -9.1900 N   0  0  0  0  0  0  0  0  0  0  0  0
   28.7110   49.1740   -8.1250 N   0  0  0  0  0  0  0  0  0  0  0  0
  1  2  1  0
  2  3  1  0
  2  4  1  0
  3  5  2  0
  4  6  2  0
  5  6  1  0
  4  7  1  0
  6  8  1  0
  7  9  2  0
  8 10  1  0
  9 11  1  0
  8 12  2  0
  9 12  1  0
M  END
