mac-x0319-mac-x1493
     RDKit          3D

 24 26  0  0  0  0  0  0  0  0999 V2000
   34.4070   45.5180   -6.4750 O   0  0  0  0  0  0  0  0  0  0  0  0
   33.2840   44.7790   -6.3270 C   0  0  0  0  0  0  0  0  0  0  0  0
   32.6060   44.5120   -7.3050 O   0  0  0  0  0  0  0  0  0  0  0  0
   33.0540   44.3870   -4.8860 C   0  0  0  0  0  0  0  0  0  0  0  0
   31.8150   44.9740   -4.2430 C   0  0  0  0  0  0  0  0  0  0  0  0
   30.7980   44.1450   -3.7470 C   0  0  0  0  0  0  0  0  0  0  0  0
   31.6630   46.3680   -4.1320 C   0  0  0  0  0  0  0  0  0  0  0  0
   29.6650   44.7050   -3.1570 C   0  0  0  0  0  0  0  0  0  0  0  0
   30.5230   46.9270   -3.5390 C   0  0  0  0  0  0  0  0  0  0  0  0
   28.6630   43.9180   -2.6670 O   0  0  0  0  0  0  0  0  0  0  0  0
   30.4020   48.3220   -3.4470 N   0  0  0  0  0  0  0  0  0  0  0  0
   29.5220   46.0830   -3.0510 C   0  0  0  0  0  0  0  0  0  0  0  0
   29.8450   48.9520   -4.4260 C   0  0  0  0  0  0  0  0  0  0  0  0
   29.3690   48.3420   -5.5320 O   0  0  0  0  0  0  0  0  0  0  0  0
   29.6780   50.4120   -4.4300 C   0  0  0  0  0  0  0  0  0  0  0  0
   29.1520   51.0520   -5.5490 C   0  0  0  0  0  0  0  0  0  0  0  0
   30.0290   51.1880   -3.3400 C   0  0  0  0  0  0  0  0  0  0  0  0
   28.9970   52.4430   -5.5430 C   0  0  0  0  0  0  0  0  0  0  0  0
   29.8930   52.5380   -3.2960 N   0  0  0  0  0  0  0  0  0  0  0  0
   29.3850   53.1540   -4.3850 C   0  0  0  0  0  0  0  0  0  0  0  0
   28.4730   53.1310   -6.6500 C   0  0  0  0  0  0  0  0  0  0  0  0
   29.2320   54.5330   -4.3760 C   0  0  0  0  0  0  0  0  0  0  0  0
   28.3300   54.5150   -6.6170 C   0  0  0  0  0  0  0  0  0  0  0  0
   28.7100   55.2170   -5.4780 C   0  0  0  0  0  0  0  0  0  0  0  0
  1  2  1  0
  2  3  2  0
  2  4  1  0
  4  5  1  0
  5  6  2  0
  5  7  1  0
  6  8  1  0
  7  9  2  0
  8 10  1  0
  9 11  1  0
  8 12  2  0
  9 12  1  0
 11 13  2  3
 13 14  1  0
 13 15  1  0
 15 16  2  0
 15 17  1  0
 16 18  1  0
 17 19  2  0
 18 20  2  0
 19 20  1  0
 18 21  1  0
 20 22  1  0
 21 23  2  0
 22 24  2  0
 23 24  1  0
M  END
