mac-x0282-mac-x0357
     RDKit          3D

 20 22  0  0  0  0  0  0  0  0999 V2000
   31.9890   43.6990   -5.0350 C   0  0  0  0  0  0  0  0  0  0  0  0
   32.9790   44.6580   -4.4380 C   0  0  0  0  0  0  0  0  0  0  0  0
   34.0240   44.1790   -3.6340 C   0  0  0  0  0  0  0  0  0  0  0  0
   32.9050   46.0480   -4.6530 C   0  0  0  0  0  0  0  0  0  0  0  0
   34.1180   42.8300   -3.4100 O   0  0  0  0  0  0  0  0  0  0  0  0
   31.8450   46.6490   -5.4810 C   0  0  0  0  0  0  0  0  0  0  0  0
   33.8470   46.9170   -4.0790 C   0  0  0  0  0  0  0  0  0  0  0  0
   34.9650   45.0370   -3.0600 C   0  0  0  0  0  0  0  0  0  0  0  0
   30.7250   47.2100   -5.1640 N   0  0  0  0  0  0  0  0  0  0  0  0
   32.1610   46.5660   -6.7830 O   0  0  0  0  0  0  0  0  0  0  0  0
   34.8740   46.4080   -3.2850 C   0  0  0  0  0  0  0  0  0  0  0  0
   29.8800   47.7110   -6.1630 C   0  0  0  0  0  0  0  0  0  0  0  0
   29.4480   49.0510   -6.1120 C   0  0  0  0  0  0  0  0  0  0  0  0
   29.4420   46.9170   -7.2210 C   0  0  0  0  0  0  0  0  0  0  0  0
   29.6380   50.1710   -5.2530 C   0  0  0  0  0  0  0  0  0  0  0  0
   28.6070   49.4770   -7.1360 C   0  0  0  0  0  0  0  0  0  0  0  0
   28.6030   47.4800   -8.1730 C   0  0  0  0  0  0  0  0  0  0  0  0
   28.9180   51.2290   -5.7720 C   0  0  0  0  0  0  0  0  0  0  0  0
   28.2980   50.7920   -6.9150 N   0  0  0  0  0  0  0  0  0  0  0  0
   28.1530   48.7570   -8.1800 N   0  0  0  0  0  0  0  0  0  0  0  0
  1  2  1  0
  2  3  2  0
  2  4  1  0
  3  5  1  0
  4  6  1  0
  4  7  2  0
  3  8  1  0
  6  9  2  3
  6 10  1  0
  7 11  1  0
  8 11  2  0
  9 12  1  0
 12 13  1  0
 12 14  2  0
 13 15  1  0
 13 16  2  0
 14 17  1  0
 15 18  2  0
 16 19  1  0
 18 19  1  0
 16 20  1  0
 17 20  2  0
M  END
