mac-x0263-mac-x0347
     RDKit          3D

 22 24  0  0  0  0  0  0  0  0999 V2000
   28.1880   59.5170   -6.3730 O   0  0  0  0  0  0  0  0  0  0  0  0
   27.0300   58.8290   -6.3190 C   0  0  0  0  0  0  0  0  0  0  0  0
   25.9850   59.3690   -6.6570 O   0  0  0  0  0  0  0  0  0  0  0  0
   27.1950   57.4070   -5.8110 C   0  0  0  0  0  0  0  0  0  0  0  0
   28.4850   56.7000   -6.2620 C   0  0  0  0  0  0  0  0  0  0  0  0
   28.4620   55.2000   -6.0430 C   0  0  0  0  0  0  0  0  0  0  0  0
   29.3160   54.5340   -5.1620 N   0  0  0  0  0  0  0  0  0  0  0  0
   27.6590   54.3230   -6.6320 N   0  0  0  0  0  0  0  0  0  0  0  0
   29.0250   53.1800   -5.2200 C   0  0  0  0  0  0  0  0  0  0  0  0
   28.0120   53.1040   -6.1170 C   0  0  0  0  0  0  0  0  0  0  0  0
   29.6580   52.0150   -4.4810 C   0  0  0  0  0  0  0  0  0  0  0  0
   27.4370   51.8460   -6.4200 C   0  0  0  0  0  0  0  0  0  0  0  0
   29.0930   50.5360   -4.8680 C   0  0  1  0  0  0  0  0  0  0  0  0
   27.8960   50.6780   -5.8660 C   0  0  0  0  0  0  0  0  0  0  0  0
   30.1040   49.5060   -5.6070 C   0  0  0  0  0  0  0  0  0  0  0  0
   28.6830   49.8160   -3.5370 C   0  0  0  0  0  0  0  0  0  0  0  0
   30.5980   48.1380   -4.9300 C   0  0  2  0  0  0  0  0  0  0  0  0
   29.7110   49.0110   -2.8510 N   0  0  0  0  0  0  0  0  0  0  0  0
   30.5310   46.8590   -5.7980 C   0  0  0  0  0  0  0  0  0  0  0  0
   30.0200   47.7940   -3.5610 C   0  0  0  0  0  0  0  0  0  0  0  0
   30.3940   45.7120   -5.0750 O   0  0  0  0  0  0  0  0  0  0  0  0
   30.6060   46.8080   -7.0160 O   0  0  0  0  0  0  0  0  0  0  0  0
  1  2  1  0
  2  3  2  0
  2  4  1  0
  4  5  1  0
  5  6  1  0
  6  7  1  0
  6  8  2  0
  7  9  1  0
  8 10  1  0
  9 10  2  0
  9 11  1  0
 10 12  1  0
 13 11  1  1
 12 14  2  0
 13 14  1  0
 13 15  1  0
 13 16  1  0
 15 17  1  0
 16 18  1  0
 17 19  1  6
 17 20  1  0
 18 20  1  0
 19 21  1  0
 19 22  2  0
M  END
