mac-x0193-mac-x0357
     RDKit          3D

 20 21  0  0  0  0  0  0  0  0999 V2000
   32.8660   46.4250   -7.4030 O   0  0  0  0  0  0  0  0  0  0  0  0
   32.0830   46.0580   -6.3030 C   0  0  0  0  0  0  0  0  0  0  0  0
   31.5780   44.7690   -6.5080 O   0  0  0  0  0  0  0  0  0  0  0  0
   30.9900   46.9410   -6.2550 O   0  0  0  0  0  0  0  0  0  0  0  0
   32.8800   46.1170   -5.0130 C   0  0  0  0  0  0  0  0  0  0  0  0
   33.2580   44.9270   -4.3560 C   0  0  0  0  0  0  0  0  0  0  0  0
   33.2650   47.3380   -4.4350 C   0  0  0  0  0  0  0  0  0  0  0  0
   33.9990   47.3740   -3.2480 C   0  0  0  0  0  0  0  0  0  0  0  0
   33.9940   44.9580   -3.1660 C   0  0  0  0  0  0  0  0  0  0  0  0
   34.3570   43.7660   -2.5330 N   0  0  0  0  0  0  0  0  0  0  0  0
   34.3600   46.1850   -2.6180 C   0  0  0  0  0  0  0  0  0  0  0  0
   35.4550   43.1730   -2.8600 C   0  0  0  0  0  0  0  0  0  0  0  0
   36.3680   43.5660   -3.7940 N   0  0  0  0  0  0  0  0  0  0  0  0
   35.8990   42.0110   -2.2990 N   0  0  0  0  0  0  0  0  0  0  0  0
   37.1460   41.8620   -1.5530 C   0  0  0  0  0  0  0  0  0  0  0  0
   38.3620   41.8030   -2.4780 C   0  0  0  0  0  0  0  0  0  0  0  0
   37.2840   42.8780   -0.4060 C   0  0  0  0  0  0  0  0  0  0  0  0
   39.6340   41.5690   -1.6710 C   0  0  0  0  0  0  0  0  0  0  0  0
   38.5820   42.7070    0.3800 C   0  0  0  0  0  0  0  0  0  0  0  0
   39.8030   42.5710   -0.5250 C   0  0  0  0  0  0  0  0  0  0  0  0
  2  1  1  0
  2  3  1  0
  2  4  1  0
  2  5  1  0
  5  6  2  0
  5  7  1  0
  7  8  2  0
  6  9  1  0
  9 10  1  0
  8 11  1  0
  9 11  2  0
 10 12  2  3
 12 13  1  0
 12 14  1  0
 14 15  1  0
 15 16  1  0
 15 17  1  0
 16 18  1  0
 17 19  1  0
 18 20  1  0
 19 20  1  0
M  END
