mac-x0441-mac-x0301
     RDKit          3D

 30 33  0  0  0  0  0  0  0  0999 V2000
   34.2310   44.2940   -6.0370 O   0  0  0  0  0  0  0  0  0  0  0  0
   33.1360   44.6690   -5.3580 C   0  0  0  0  0  0  0  0  0  0  0  0
   32.0300   44.2250   -5.8390 N   0  0  0  0  0  0  0  0  0  0  0  0
   33.3930   45.5390   -4.1560 C   0  0  0  0  0  0  0  0  0  0  0  0
   30.7840   44.5910   -5.1580 C   0  0  0  0  0  0  0  0  0  0  0  0
   34.5950   45.1800   -3.4150 N   0  0  0  0  0  0  0  0  0  0  0  0
   30.1470   45.7540   -5.6980 O   0  0  0  0  0  0  0  0  0  0  0  0
   34.7240   43.9340   -2.9040 N   0  0  0  0  0  0  0  0  0  0  0  0
   35.6760   45.9700   -3.1440 C   0  0  0  0  0  0  0  0  0  0  0  0
   29.2420   46.3310   -4.8640 C   0  0  0  0  0  0  0  0  0  0  0  0
   35.9270   43.9300   -2.2860 C   0  0  0  0  0  0  0  0  0  0  0  0
   36.5550   45.1960   -2.4170 C   0  0  0  0  0  0  0  0  0  0  0  0
   35.8820   47.3870   -3.5440 C   0  0  0  0  0  0  0  0  0  0  0  0
   36.4670   42.7120   -1.5720 C   0  0  0  0  0  0  0  0  0  0  0  0
   28.5840   45.7520   -4.0160 O   0  0  0  0  0  0  0  0  0  0  0  0
   37.8670   45.7020   -1.9270 C   0  0  0  0  0  0  0  0  0  0  0  0
   37.0520   47.9880   -2.7410 C   0  0  0  0  0  0  0  0  0  0  0  0
   29.1850   47.7840   -5.1530 C   0  0  0  0  0  0  0  0  0  0  0  0
   37.5130   42.1230   -2.2170 F   0  0  0  0  0  0  0  0  0  0  0  0
   36.9190   43.0130   -0.3210 F   0  0  0  0  0  0  0  0  0  0  0  0
   35.5160   41.7500   -1.4080 F   0  0  0  0  0  0  0  0  0  0  0  0
   38.2460   47.0200   -2.6290 C   0  0  0  0  0  0  0  0  0  0  0  0
   28.7790   48.2490   -6.3920 C   0  0  0  0  0  0  0  0  0  0  0  0
   29.5400   48.7370   -4.1780 C   0  0  0  0  0  0  0  0  0  0  0  0
   28.7250   49.6010   -6.6610 C   0  0  0  0  0  0  0  0  0  0  0  0
   29.4810   50.1110   -4.4660 C   0  0  0  0  0  0  0  0  0  0  0  0
   28.3960   47.5110   -7.4720 O   0  0  0  0  0  0  0  0  0  0  0  0
   29.0680   50.5530   -5.7240 C   0  0  0  0  0  0  0  0  0  0  0  0
   28.3050   49.8640   -7.9280 O   0  0  0  0  0  0  0  0  0  0  0  0
   28.2670   48.5320   -8.4770 C   0  0  0  0  0  0  0  0  0  0  0  0
  1  2  1  0
  2  3  2  3
  2  4  1  0
  3  5  1  0
  4  6  1  0
  5  7  1  0
  6  8  1  0
  6  9  1  0
  7 10  1  0
  8 11  2  0
  9 12  2  0
 11 12  1  0
  9 13  1  0
 11 14  1  0
 10 15  2  0
 12 16  1  0
 13 17  1  0
 10 18  1  0
 14 19  1  0
 14 20  1  0
 14 21  1  0
 16 22  1  0
 17 22  1  0
 18 23  1  0
 18 24  2  0
 23 25  2  0
 24 26  1  0
 23 27  1  0
 25 28  1  0
 26 28  2  0
 25 29  1  0
 27 30  1  0
 29 30  1  0
M  END
