mac-x0565-mac-x0385
     RDKit          3D

 13 14  0  0  0  0  0  0  0  0999 V2000
   28.7710   52.7280   -5.7160 O   0  0  0  0  0  0  0  0  0  0  0  0
   29.2990   52.6270   -4.4890 C   0  0  0  0  0  0  0  0  0  0  0  0
   29.4660   53.6220   -3.7990 O   0  0  0  0  0  0  0  0  0  0  0  0
   29.6480   51.2330   -4.0820 C   0  0  0  0  0  0  0  0  0  0  0  0
   29.5220   50.0390   -4.8750 C   0  0  0  0  0  0  0  0  0  0  0  0
   30.1510   51.1440   -2.7570 C   0  0  0  0  0  0  0  0  0  0  0  0
   29.0140   49.8880   -6.2840 C   0  0  0  0  0  0  0  0  0  0  0  0
   29.9180   48.8710   -4.2690 C   0  0  0  0  0  0  0  0  0  0  0  0
   30.5320   49.9210   -2.1990 C   0  0  0  0  0  0  0  0  0  0  0  0
   30.4020   48.8000   -2.9870 C   0  0  0  0  0  0  0  0  0  0  0  0
   29.8770   47.6450   -4.8630 O   0  0  0  0  0  0  0  0  0  0  0  0
   30.7180   47.5280   -2.6290 O   0  0  0  0  0  0  0  0  0  0  0  0
   30.1530   46.8010   -3.7350 C   0  0  0  0  0  0  0  0  0  0  0  0
  1  2  1  0
  2  3  2  0
  2  4  1  0
  4  5  2  0
  4  6  1  0
  5  7  1  0
  5  8  1  0
  6  9  2  0
  8 10  2  0
  9 10  1  0
  8 11  1  0
 10 12  1  0
 11 13  1  0
 12 13  1  0
M  END
