mac-x0124-mac-x0182
     RDKit          3D

 24 27  0  0  0  0  0  0  0  0999 V2000
   30.5530   46.0690   -4.7890 C   0  0  0  0  0  0  0  0  0  0  0  0
   30.3430   47.4720   -5.0690 N   0  0  0  0  0  0  0  0  0  0  0  0
   30.9340   48.5380   -4.4170 C   0  0  0  0  0  0  0  0  0  0  0  0
   29.5120   47.9300   -6.0610 C   0  0  0  0  0  0  0  0  0  0  0  0
   31.9390   48.4060   -3.3000 C   0  0  0  0  0  0  0  0  0  0  0  0
   30.4260   49.6930   -5.0060 C   0  0  0  0  0  0  0  0  0  0  0  0
   29.5380   49.3150   -6.0490 C   0  0  0  0  0  0  0  0  0  0  0  0
   28.8050   47.1570   -6.8960 N   0  0  0  0  0  0  0  0  0  0  0  0
   32.6580   47.1070   -3.3390 N   0  0  0  0  0  0  0  0  0  0  0  0
   28.7420   49.9690   -7.0050 C   0  0  0  0  0  0  0  0  0  0  0  0
   28.0920   47.8870   -7.7680 C   0  0  0  0  0  0  0  0  0  0  0  0
   28.6500   51.3500   -7.1250 N   0  0  0  0  0  0  0  0  0  0  0  0
   28.0220   49.2280   -7.8670 N   0  0  0  0  0  0  0  0  0  0  0  0
   33.8430   46.7370   -4.2660 S   0  0  2  0  0  0  0  0  0  0  0  0
   34.0990   47.0880   -5.6450 O   0  0  0  0  0  0  0  0  0  0  0  0
   33.7190   45.0610   -4.2810 N   0  0  0  0  0  0  0  0  0  0  0  0
   35.3640   46.7170   -3.4080 C   0  0  0  0  0  0  0  0  0  0  0  0
   34.4860   44.5070   -3.2890 C   0  0  0  0  0  0  0  0  0  0  0  0
   35.5840   45.4310   -2.9260 C   0  0  0  0  0  0  0  0  0  0  0  0
   36.2560   47.7550   -3.2020 C   0  0  0  0  0  0  0  0  0  0  0  0
   34.3130   43.4170   -2.7690 O   0  0  0  0  0  0  0  0  0  0  0  0
   37.4130   47.4610   -2.4710 C   0  0  0  0  0  0  0  0  0  0  0  0
   36.7300   45.1320   -2.2000 C   0  0  0  0  0  0  0  0  0  0  0  0
   37.6490   46.1650   -1.9750 C   0  0  0  0  0  0  0  0  0  0  0  0
  1  2  1  0
  2  3  1  0
  2  4  1  0
  3  5  1  0
  3  6  2  0
  4  7  2  0
  6  7  1  0
  4  8  1  0
  5  9  1  0
  7 10  1  0
  8 11  2  0
 10 12  1  0
 10 13  2  0
 11 13  1  0
  9 14  2  0
 14 15  2  0
 14 16  1  6
 14 17  1  0
 16 18  1  0
 17 19  2  0
 18 19  1  0
 17 20  1  0
 18 21  2  0
 20 22  2  0
 19 23  1  0
 22 24  1  0
 23 24  2  0
M  END
