mac-x0588-mac-x0228
     RDKit          3D

 27 31  0  0  0  0  0  0  0  0999 V2000
   26.4210   50.8910   -7.4010 N   0  0  0  0  0  0  0  0  0  0  0  0
   26.8370   49.6890   -6.6890 C   0  0  1  0  0  0  0  0  0  0  0  0
   28.1850   49.1370   -7.1810 C   0  0  1  0  0  0  0  0  0  0  0  0
   26.8180   50.0630   -5.2950 N   0  0  0  0  0  0  0  0  0  0  0  0
   27.4970   49.0990   -4.4190 C   0  0  0  0  0  0  0  0  0  0  0  0
   28.5030   47.9250   -6.3040 C   0  0  2  0  0  0  0  0  0  0  0  0
   28.2570   48.6460   -8.5830 N   0  0  0  0  0  0  0  0  0  0  0  0
   28.6540   48.3380   -4.9180 N   0  0  0  0  0  0  0  0  0  0  0  0
   29.6050   47.4130   -7.1260 N   0  0  0  0  0  0  0  0  0  0  0  0
   29.0600   47.4230   -8.4660 C   0  0  0  0  0  0  0  0  0  0  0  0
   29.5970   47.7600   -4.0260 C   0  0  0  0  0  0  0  0  0  0  0  0
   30.5270   48.5110   -3.3690 C   0  0  0  0  0  0  0  0  0  0  0  0
   29.5410   46.2270   -3.8100 C   0  0  2  0  0  0  0  0  0  0  0  0
   31.4470   47.9420   -2.5030 O   0  0  0  0  0  0  0  0  0  0  0  0
   28.2110   45.7110   -3.5520 O   0  0  0  0  0  0  0  0  0  0  0  0
   30.3940   45.7660   -2.6310 C   0  0  0  0  0  0  0  0  0  0  0  0
   30.6760   49.9740   -3.4830 C   0  0  0  0  0  0  0  0  0  0  0  0
   29.7680   44.4350   -2.3020 C   0  0  0  0  0  0  0  0  0  0  0  0
   28.3010   44.7310   -2.5050 C   0  0  0  0  0  0  0  0  0  0  0  0
   30.8340   50.5750   -4.7410 C   0  0  0  0  0  0  0  0  0  0  0  0
   30.6560   50.7650   -2.3150 C   0  0  0  0  0  0  0  0  0  0  0  0
   30.9670   51.9520   -4.7940 C   0  0  0  0  0  0  0  0  0  0  0  0
   30.7930   52.1540   -2.3900 C   0  0  0  0  0  0  0  0  0  0  0  0
   30.9460   52.7210   -3.6400 C   0  0  0  0  0  0  0  0  0  0  0  0
   31.1430   52.8440   -5.9640 C   0  0  0  0  0  0  0  0  0  0  0  0
   31.0890   54.0630   -3.8690 O   0  0  0  0  0  0  0  0  0  0  0  0
   30.8500   54.1850   -5.2920 C   0  0  0  0  0  0  0  0  0  0  0  0
  2  1  1  6
  2  3  1  0
  2  4  1  0
  4  5  1  0
  3  6  1  0
  3  7  1  6
  5  8  1  0
  6  8  1  0
  6  9  1  6
  7 10  1  0
  9 10  1  0
  8 11  1  0
 11 12  2  3
 13 11  1  1
 12 14  1  0
 13 15  1  0
 13 16  1  0
 12 17  1  0
 16 18  1  0
 15 19  1  0
 18 19  1  0
 17 20  2  0
 17 21  1  0
 20 22  1  0
 21 23  2  0
 22 24  2  0
 23 24  1  0
 22 25  1  0
 24 26  1  0
 25 27  1  0
 26 27  1  0
M  END
