mac-x0357-mac-x0354
     RDKit          3D

 18 20  0  0  0  0  0  0  0  0999 V2000
   32.5210   43.5960   -5.1590 C   0  0  0  0  0  0  0  0  0  0  0  0
   32.6700   44.4480   -3.8880 C   0  0  1  0  0  0  0  0  0  0  0  0
   34.0030   44.1350   -3.1970 C   0  0  2  0  0  0  0  0  0  0  0  0
   32.4730   45.9510   -4.2060 C   0  0  2  0  0  0  0  0  0  0  0  0
   33.7550   43.2650   -2.0930 O   0  0  0  0  0  0  0  0  0  0  0  0
   31.6780   46.0680   -5.4980 C   0  0  0  0  0  0  0  0  0  0  0  0
   33.7400   46.7390   -4.6100 C   0  0  2  0  0  0  0  0  0  0  0  0
   34.6750   45.4020   -2.6750 C   0  0  0  0  0  0  0  0  0  0  0  0
   30.4580   46.0980   -5.5560 O   0  0  0  0  0  0  0  0  0  0  0  0
   32.5320   46.1350   -6.5720 N   0  0  0  0  0  0  0  0  0  0  0  0
   33.6630   46.5020   -6.0870 C   0  0  0  0  0  0  0  0  0  0  0  0
   35.0170   46.3870   -3.8070 C   0  0  2  0  0  0  0  0  0  0  0  0
   34.7040   46.6580   -6.8850 O   0  0  0  0  0  0  0  0  0  0  0  0
   35.5960   47.7090   -3.1690 C   0  0  0  0  0  0  0  0  0  0  0  0
   36.0850   45.7680   -4.7060 C   0  0  0  0  0  0  0  0  0  0  0  0
   37.3980   45.9790   -4.5290 C   0  0  0  0  0  0  0  0  0  0  0  0
   37.0550   47.6380   -2.8090 C   0  0  0  0  0  0  0  0  0  0  0  0
   37.8860   46.8160   -3.4630 C   0  0  0  0  0  0  0  0  0  0  0  0
  2  1  1  6
  2  3  1  0
  2  4  1  0
  3  5  1  1
  4  6  1  6
  4  7  1  0
  3  8  1  0
  6  9  2  0
  6 10  1  0
  7 11  1  6
 10 11  2  0
  7 12  1  0
 12  8  1  1
 11 13  1  0
 12 14  1  0
 12 15  1  0
 15 16  2  0
 14 17  1  0
 16 18  1  0
 17 18  2  0
M  END
