mac-x0277-mac-x0284
     RDKit          3D

 19 21  0  0  0  0  0  0  0  0999 V2000
   27.3890   46.5800   -1.3440 Cl  0  0  0  0  0  0  0  0  0  0  0  0
   28.3670   45.6210   -2.4630 C   0  0  1  0  0  0  0  0  0  0  0  0
   29.4210   46.3590   -3.3610 C   0  0  1  0  0  0  0  0  0  0  0  0
   29.1960   44.6310   -1.7130 C   0  0  0  0  0  0  0  0  0  0  0  0
   30.0200   47.6520   -2.7310 C   0  0  0  0  0  0  0  0  0  0  0  0
   30.4350   45.1900   -3.6240 C   0  0  2  0  0  0  0  0  0  0  0  0
   30.3450   44.3870   -2.3520 C   0  0  0  0  0  0  0  0  0  0  0  0
   31.8930   45.4380   -4.0310 C   0  0  0  0  0  0  0  0  0  0  0  0
   30.7600   48.6670   -3.6760 C   0  0  1  0  0  0  0  0  0  0  0  0
   32.1190   45.5210   -5.5410 C   0  0  2  0  0  0  0  0  0  0  0  0
   30.4100   48.6460   -5.2050 C   0  0  1  0  0  0  0  0  0  0  0  0
   30.6990   50.0900   -3.1780 C   0  0  0  0  0  0  0  0  0  0  0  0
   33.4820   45.2660   -5.8160 O   0  0  0  0  0  0  0  0  0  0  0  0
   31.8580   46.8630   -5.9560 N   0  0  0  0  0  0  0  0  0  0  0  0
   30.4740   47.2890   -5.9280 C   0  0  0  0  0  0  0  0  0  0  0  0
   29.0610   49.3620   -5.4270 C   0  0  0  0  0  0  0  0  0  0  0  0
   29.9150   51.0340   -3.7180 C   0  0  0  0  0  0  0  0  0  0  0  0
   28.9940   50.8040   -4.8880 C   0  0  2  0  0  0  0  0  0  0  0  0
   27.5730   51.2550   -4.5550 C   0  0  0  0  0  0  0  0  0  0  0  0
  2  1  1  1
  2  3  1  0
  2  4  1  0
  3  5  1  1
  3  6  1  0
  4  7  2  0
  6  7  1  1
  6  8  1  0
  9  5  1  1
  8 10  1  0
  9 11  1  0
  9 12  1  0
 10 13  1  1
 10 14  1  0
 11 15  1  1
 14 15  1  0
 11 16  1  0
 12 17  2  0
 16 18  1  0
 17 18  1  0
 18 19  1  1
M  END
