mac-x0404-mac-x0354
     RDKit          3D

 27 30  0  0  0  0  0  0  0  0999 V2000
   31.5060   45.3270   -7.3140 O   0  0  0  0  0  0  0  0  0  0  0  0
   32.5770   44.8390   -6.6350 C   0  0  0  0  0  0  0  0  0  0  0  0
   33.2840   44.0040   -7.1820 O   0  0  0  0  0  0  0  0  0  0  0  0
   32.7260   45.4510   -5.2290 C   0  0  1  0  0  0  0  0  0  0  0  0
   31.4240   45.8470   -4.7840 O   0  0  0  0  0  0  0  0  0  0  0  0
   33.4050   44.4760   -4.3040 C   0  0  0  0  0  0  0  0  0  0  0  0
   31.2840   46.4750   -3.5710 C   0  0  0  0  0  0  0  0  0  0  0  0
   33.0470   43.1200   -4.1150 C   0  0  0  0  0  0  0  0  0  0  0  0
   34.4920   44.6620   -3.4540 C   0  0  0  0  0  0  0  0  0  0  0  0
   30.2780   45.9490   -2.7170 C   0  0  0  0  0  0  0  0  0  0  0  0
   32.0570   47.5610   -3.1510 C   0  0  0  0  0  0  0  0  0  0  0  0
   34.6960   43.4460   -2.8420 N   0  0  0  0  0  0  0  0  0  0  0  0
   33.8260   42.4950   -3.2320 N   0  0  0  0  0  0  0  0  0  0  0  0
   35.3030   45.8460   -3.1960 C   0  0  0  0  0  0  0  0  0  0  0  0
   35.7100   43.1190   -1.8670 C   0  0  0  0  0  0  0  0  0  0  0  0
   30.0700   46.5420   -1.4480 C   0  0  0  0  0  0  0  0  0  0  0  0
   31.8450   48.1350   -1.8990 C   0  0  0  0  0  0  0  0  0  0  0  0
   29.4600   44.8560   -3.0780 C   0  0  0  0  0  0  0  0  0  0  0  0
   36.5800   45.9600   -3.7550 C   0  0  0  0  0  0  0  0  0  0  0  0
   34.8110   46.8800   -2.3920 C   0  0  0  0  0  0  0  0  0  0  0  0
   30.8620   47.6280   -1.0550 C   0  0  0  0  0  0  0  0  0  0  0  0
   29.0760   46.0340   -0.5930 C   0  0  0  0  0  0  0  0  0  0  0  0
   28.4770   44.3610   -2.2180 C   0  0  0  0  0  0  0  0  0  0  0  0
   37.3560   47.0940   -3.5110 C   0  0  0  0  0  0  0  0  0  0  0  0
   35.5880   48.0130   -2.1480 C   0  0  0  0  0  0  0  0  0  0  0  0
   28.2850   44.9510   -0.9750 C   0  0  0  0  0  0  0  0  0  0  0  0
   36.8600   48.1200   -2.7090 C   0  0  0  0  0  0  0  0  0  0  0  0
  1  2  1  0
  2  3  2  0
  2  4  1  0
  4  5  1  1
  4  6  1  0
  5  7  1  0
  6  8  1  0
  6  9  2  0
  7 10  1  0
  7 11  2  0
  9 12  1  0
  8 13  2  0
 12 13  1  0
  9 14  1  0
 12 15  1  0
 10 16  2  0
 11 17  1  0
 10 18  1  0
 14 19  2  0
 14 20  1  0
 16 21  1  0
 17 21  2  0
 16 22  1  0
 18 23  2  0
 19 24  1  0
 20 25  2  0
 22 26  2  0
 23 26  1  0
 24 27  2  0
 25 27  1  0
M  END
