mac-x0510-mac-x0179
     RDKit          3D

 29 32  0  0  0  0  0  0  0  0999 V2000
   28.8620   53.2750   -5.8720 O   0  0  0  0  0  0  0  0  0  0  0  0
   28.9430   52.0510   -5.9440 C   0  0  0  0  0  0  0  0  0  0  0  0
   29.2480   51.2890   -4.8350 N   0  0  0  0  0  0  0  0  0  0  0  0
   28.7320   51.3870   -7.1290 N   0  0  0  0  0  0  0  0  0  0  0  0
   28.7910   50.0270   -7.1780 C   0  0  0  0  0  0  0  0  0  0  0  0
   29.2560   49.9120   -4.7820 C   0  0  0  0  0  0  0  0  0  0  0  0
   29.4300   49.1910   -3.7400 N   0  0  0  0  0  0  0  0  0  0  0  0
   29.0430   49.3040   -6.0540 C   0  0  0  0  0  0  0  0  0  0  0  0
   28.6180   49.2480   -8.2730 N   0  0  0  0  0  0  0  0  0  0  0  0
   29.4170   47.7420   -3.8280 C   0  0  0  0  0  0  0  0  0  0  0  0
   29.0260   48.0050   -6.4650 N   0  0  0  0  0  0  0  0  0  0  0  0
   28.7660   48.0200   -7.8130 C   0  0  0  0  0  0  0  0  0  0  0  0
   30.6920   47.3060   -4.5380 C   0  0  0  0  0  0  0  0  0  0  0  0
   30.6410   45.8630   -5.0270 C   0  0  0  0  0  0  0  0  0  0  0  0
   31.8940   45.4700   -5.5960 O   0  0  0  0  0  0  0  0  0  0  0  0
   32.9980   45.7070   -4.8430 C   0  0  0  0  0  0  0  0  0  0  0  0
   34.0720   46.0890   -5.2930 O   0  0  0  0  0  0  0  0  0  0  0  0
   32.7660   45.4400   -3.3610 C   0  0  0  0  0  0  0  0  0  0  0  0
   33.9230   45.7250   -2.5340 N   0  0  0  0  0  0  0  0  0  0  0  0
   34.7060   44.7450   -1.9950 C   0  0  0  0  0  0  0  0  0  0  0  0
   34.5000   46.9590   -2.4290 C   0  0  0  0  0  0  0  0  0  0  0  0
   34.4800   43.5560   -1.9070 O   0  0  0  0  0  0  0  0  0  0  0  0
   34.0620   48.0400   -2.7760 O   0  0  0  0  0  0  0  0  0  0  0  0
   35.9240   45.4010   -1.5250 C   0  0  0  0  0  0  0  0  0  0  0  0
   35.8030   46.7560   -1.7890 C   0  0  0  0  0  0  0  0  0  0  0  0
   37.0490   44.8750   -0.9170 C   0  0  0  0  0  0  0  0  0  0  0  0
   36.7960   47.6540   -1.4620 C   0  0  0  0  0  0  0  0  0  0  0  0
   38.0690   45.7650   -0.5760 C   0  0  0  0  0  0  0  0  0  0  0  0
   37.9470   47.1450   -0.8460 C   0  0  0  0  0  0  0  0  0  0  0  0
  1  2  2  0
  2  3  1  0
  2  4  1  0
  4  5  1  0
  3  6  1  0
  6  7  2  3
  5  8  2  0
  6  8  1  0
  5  9  1  0
  7 10  1  0
  8 11  1  0
  9 12  2  0
 11 12  1  0
 10 13  1  0
 13 14  1  0
 14 15  1  0
 15 16  1  0
 16 17  2  0
 16 18  1  0
 18 19  1  0
 19 20  1  0
 19 21  1  0
 20 22  2  0
 21 23  2  0
 20 24  1  0
 21 25  1  0
 24 25  2  0
 24 26  1  0
 25 27  1  0
 26 28  2  0
 27 29  2  0
 28 29  1  0
M  END
