mac-x0212-mac-x0319
     RDKit          3D

 26 27  0  0  0  0  0  0  0  0999 V2000
   29.9260   54.5480   -6.3050 C   0  0  0  0  0  0  0  0  0  0  0  0
   28.2550   54.1590   -6.7990 S   0  0  0  0  0  0  0  0  0  0  0  0
   28.1420   54.4530   -8.2130 O   0  0  0  0  0  0  0  0  0  0  0  0
   27.3420   54.7360   -5.8350 O   0  0  0  0  0  0  0  0  0  0  0  0
   28.2300   52.4750   -6.6900 N   0  0  0  0  0  0  0  0  0  0  0  0
   29.2230   51.7970   -5.9240 C   0  0  0  0  0  0  0  0  0  0  0  0
   30.5360   51.6620   -6.3780 C   0  0  0  0  0  0  0  0  0  0  0  0
   28.8560   51.2590   -4.6910 C   0  0  0  0  0  0  0  0  0  0  0  0
   31.4830   50.9900   -5.5990 C   0  0  0  0  0  0  0  0  0  0  0  0
   29.8010   50.5870   -3.9090 C   0  0  0  0  0  0  0  0  0  0  0  0
   31.1230   50.4490   -4.3590 C   0  0  0  0  0  0  0  0  0  0  0  0
   32.1070   49.7340   -3.5100 C   0  0  0  0  0  0  0  0  0  0  0  0
   32.5180   48.5270   -3.7120 N   0  0  0  0  0  0  0  0  0  0  0  0
   32.5320   50.5040   -2.4890 O   0  0  0  0  0  0  0  0  0  0  0  0
   31.9890   47.7790   -4.8510 C   0  0  0  0  0  0  0  0  0  0  0  0
   32.9800   46.8370   -5.3570 N   0  0  0  0  0  0  0  0  0  0  0  0
   32.5980   45.6780   -5.7820 C   0  0  0  0  0  0  0  0  0  0  0  0
   33.4410   44.7470   -6.2680 O   0  0  0  0  0  0  0  0  0  0  0  0
   31.1590   45.2290   -5.7890 C   0  0  0  0  0  0  0  0  0  0  0  0
   30.8380   44.4140   -4.5570 C   0  0  0  0  0  0  0  0  0  0  0  0
   29.5780   43.8120   -4.4240 C   0  0  0  0  0  0  0  0  0  0  0  0
   31.7810   44.2470   -3.5340 C   0  0  0  0  0  0  0  0  0  0  0  0
   29.2780   43.0640   -3.2890 C   0  0  0  0  0  0  0  0  0  0  0  0
   31.4690   43.4940   -2.3990 C   0  0  0  0  0  0  0  0  0  0  0  0
   28.0380   42.5020   -3.2100 O   0  0  0  0  0  0  0  0  0  0  0  0
   30.2140   42.8990   -2.2750 C   0  0  0  0  0  0  0  0  0  0  0  0
  1  2  1  0
  2  3  2  0
  2  4  2  0
  2  5  1  0
  5  6  1  0
  6  7  2  0
  6  8  1  0
  7  9  1  0
  8 10  2  0
  9 11  2  0
 10 11  1  0
 11 12  1  0
 12 13  2  3
 12 14  1  0
 13 15  1  0
 15 16  1  0
 16 17  2  3
 17 18  1  0
 17 19  1  0
 19 20  1  0
 20 21  2  0
 20 22  1  0
 21 23  1  0
 22 24  2  0
 23 25  1  0
 23 26  2  0
 24 26  1  0
M  END
