mac-x0204-mac-x0587
     RDKit          3D

 22 24  0  0  0  0  0  0  0  0999 V2000
   32.0030   47.0390   -5.5210 O   0  0  0  0  0  0  0  0  0  0  0  0
   30.9880   46.4200   -4.6170 S   0  0  0  0  0  0  0  0  0  0  0  0
   29.9570   45.6880   -3.8280 O   0  0  0  0  0  0  0  0  0  0  0  0
   33.0700   46.3390   -6.0680 C   0  0  0  0  0  0  0  0  0  0  0  0
   31.2080   44.9590   -5.3780 S   0  0  0  0  0  0  0  0  0  0  0  0
   33.0070   45.0000   -5.4500 C   0  0  0  0  0  0  0  0  0  0  0  0
   33.9500   46.6740   -6.9170 O   0  0  0  0  0  0  0  0  0  0  0  0
   29.8600   47.7080   -4.6340 C   0  0  0  0  0  0  0  0  0  0  0  0
   31.7610   46.8930   -3.2490 C   0  0  0  0  0  0  0  0  0  0  0  0
   29.0420   47.6600   -3.6420 O   0  0  0  0  0  0  0  0  0  0  0  0
   30.9320   46.9580   -2.1860 C   0  0  0  0  0  0  0  0  0  0  0  0
   33.0430   47.2170   -3.1510 C   0  0  0  0  0  0  0  0  0  0  0  0
   29.7590   48.8160   -5.3770 N   0  0  0  0  0  0  0  0  0  0  0  0
   31.4140   47.3680   -0.9940 C   0  0  0  0  0  0  0  0  0  0  0  0
   33.5250   47.6230   -1.9720 N   0  0  0  0  0  0  0  0  0  0  0  0
   29.7220   50.1660   -4.7770 C   0  0  0  0  0  0  0  0  0  0  0  0
   29.1240   48.8630   -6.6170 C   0  0  0  0  0  0  0  0  0  0  0  0
   30.5100   47.4250    0.0780 O   0  0  0  0  0  0  0  0  0  0  0  0
   28.8240   47.8950   -7.3440 O   0  0  0  0  0  0  0  0  0  0  0  0
   32.7350   47.7060   -0.8910 C   0  0  0  0  0  0  0  0  0  0  0  0
   28.9410   50.9840   -5.7630 C   0  0  0  0  0  0  0  0  0  0  0  0
   28.8390   50.2250   -6.9750 N   0  0  0  0  0  0  0  0  0  0  0  0
  1  2  1  0
  2  3  2  0
  1  4  1  0
  2  5  1  0
  4  6  1  0
  5  6  1  0
  4  7  2  0
  2  8  1  0
  2  9  1  0
  8 10  2  0
  9 11  2  0
  9 12  1  0
  8 13  1  0
 11 14  1  0
 12 15  2  0
 13 16  1  0
 13 17  1  0
 14 18  1  0
 17 19  2  0
 14 20  2  0
 15 20  1  0
 16 21  1  0
 17 22  1  0
 21 22  1  0
M  END
