mac-x0212-mac-x0345
     RDKit          3D

 15 15  0  0  0  0  0  0  0  0999 V2000
   30.7900   53.9020   -6.4640 C   0  0  0  0  0  0  0  0  0  0  0  0
   29.3180   54.1700   -5.4970 S   0  0  0  0  0  0  0  0  0  0  0  0
   28.6210   55.3240   -6.0130 O   0  0  0  0  0  0  0  0  0  0  0  0
   29.6860   54.0790   -4.1000 O   0  0  0  0  0  0  0  0  0  0  0  0
   28.4370   52.7590   -5.8310 N   0  0  0  0  0  0  0  0  0  0  0  0
   29.0100   51.5320   -5.3890 C   0  0  0  0  0  0  0  0  0  0  0  0
   29.2610   50.5110   -6.2980 C   0  0  0  0  0  0  0  0  0  0  0  0
   29.3160   51.3670   -4.0390 C   0  0  0  0  0  0  0  0  0  0  0  0
   29.8260   49.3170   -5.8500 C   0  0  0  0  0  0  0  0  0  0  0  0
   29.8830   50.1780   -3.5630 C   0  0  0  0  0  0  0  0  0  0  0  0
   30.1570   50.1200   -2.1780 N   0  0  0  0  0  0  0  0  0  0  0  0
   30.1420   49.1330   -4.4900 C   0  0  0  0  0  0  0  0  0  0  0  0
   30.7420   47.8110   -4.1480 C   0  0  0  0  0  0  0  0  0  0  0  0
   31.0140   46.9320   -4.9490 O   0  0  0  0  0  0  0  0  0  0  0  0
   30.9840   47.6290   -2.8360 O   0  0  0  0  0  0  0  0  0  0  0  0
  1  2  1  0
  2  3  2  0
  2  4  2  0
  2  5  1  0
  5  6  1  0
  6  7  2  0
  6  8  1  0
  7  9  1  0
  8 10  2  0
 10 11  1  0
  9 12  2  0
 10 12  1  0
 12 13  1  0
 13 14  2  0
 13 15  1  0
M  END
