mac-x0306-mac-x0587
     RDKit          3D

 21 22  0  0  0  0  0  0  0  0999 V2000
   29.3020   45.8380   -3.7780 C   0  0  0  0  0  0  0  0  0  0  0  0
   30.4270   46.7950   -4.2000 C   0  0  2  0  0  0  0  0  0  0  0  0
   32.0690   46.0470   -3.7400 S   0  0  0  0  0  0  0  0  0  0  0  0
   30.3060   48.1320   -3.4210 C   0  0  0  0  0  0  0  0  0  0  0  0
   33.1940   46.6990   -5.0110 C   0  0  0  0  0  0  0  0  0  0  0  0
   30.7260   48.1670   -2.2550 O   0  0  0  0  0  0  0  0  0  0  0  0
   29.7330   49.3200   -3.9660 N   0  0  0  0  0  0  0  0  0  0  0  0
   33.2590   45.8680   -6.2730 C   0  0  0  0  0  0  0  0  0  0  0  0
   29.7150   50.3670   -3.0520 C   0  0  0  0  0  0  0  0  0  0  0  0
   29.4670   49.6050   -5.3240 C   0  0  0  0  0  0  0  0  0  0  0  0
   34.2580   45.5700   -6.9040 O   0  0  0  0  0  0  0  0  0  0  0  0
   32.0460   45.4390   -6.6990 O   0  0  0  0  0  0  0  0  0  0  0  0
   29.3150   48.7620   -6.2200 O   0  0  0  0  0  0  0  0  0  0  0  0
   29.5710   51.6440   -3.3830 C   0  0  0  0  0  0  0  0  0  0  0  0
   29.3640   51.0730   -5.6900 C   0  0  0  0  0  0  0  0  0  0  0  0
   29.4170   52.0590   -4.7530 C   0  0  0  0  0  0  0  0  0  0  0  0
   29.3280   53.4460   -5.1310 C   0  0  0  0  0  0  0  0  0  0  0  0
   28.8290   53.8590   -6.3500 N   0  0  0  0  0  0  0  0  0  0  0  0
   29.6850   54.5060   -4.4190 N   0  0  0  0  0  0  0  0  0  0  0  0
   29.4150   55.6070   -5.1870 C   0  0  0  0  0  0  0  0  0  0  0  0
   28.8820   55.2290   -6.3910 C   0  0  0  0  0  0  0  0  0  0  0  0
  2  1  1  1
  2  3  1  0
  2  4  1  0
  3  5  1  0
  4  6  2  0
  4  7  1  0
  5  8  1  0
  7  9  1  0
  7 10  1  0
  8 11  2  0
  8 12  1  0
 10 13  2  0
  9 14  2  0
 10 15  1  0
 14 16  1  0
 15 16  2  0
 16 17  1  0
 17 18  1  0
 17 19  2  0
 19 20  1  0
 18 21  1  0
 20 21  2  0
M  END
