mac-x0319-mac-x0333
     RDKit          3D

 21 23  0  0  0  0  0  0  0  0999 V2000
   34.3080   45.9960   -6.8230 O   0  0  0  0  0  0  0  0  0  0  0  0
   33.0400   45.6310   -6.5070 C   0  0  0  0  0  0  0  0  0  0  0  0
   32.1450   45.6600   -7.3380 O   0  0  0  0  0  0  0  0  0  0  0  0
   32.9110   45.2100   -5.0570 C   0  0  0  0  0  0  0  0  0  0  0  0
   31.6270   45.6150   -4.3670 C   0  0  0  0  0  0  0  0  0  0  0  0
   30.5960   44.6810   -4.1700 C   0  0  0  0  0  0  0  0  0  0  0  0
   31.4470   46.9310   -3.9120 C   0  0  0  0  0  0  0  0  0  0  0  0
   29.4170   45.0680   -3.5300 C   0  0  0  0  0  0  0  0  0  0  0  0
   30.2560   47.3040   -3.2710 C   0  0  0  0  0  0  0  0  0  0  0  0
   28.4030   44.1760   -3.3280 O   0  0  0  0  0  0  0  0  0  0  0  0
   30.0250   48.5770   -2.7980 O   0  0  0  0  0  0  0  0  0  0  0  0
   29.2410   46.3680   -3.0810 C   0  0  0  0  0  0  0  0  0  0  0  0
   29.8040   49.6480   -3.6490 C   0  0  0  0  0  0  0  0  0  0  0  0
   29.9800   50.9640   -3.2040 C   0  0  0  0  0  0  0  0  0  0  0  0
   29.3930   49.3920   -4.9770 C   0  0  0  0  0  0  0  0  0  0  0  0
   29.7420   51.9820   -4.0900 C   0  0  0  0  0  0  0  0  0  0  0  0
   29.1580   50.4570   -5.8590 C   0  0  0  0  0  0  0  0  0  0  0  0
   29.3410   51.7430   -5.3850 C   0  0  0  0  0  0  0  0  0  0  0  0
   29.8640   53.3120   -3.8240 O   0  0  0  0  0  0  0  0  0  0  0  0
   29.1600   52.8940   -6.0900 O   0  0  0  0  0  0  0  0  0  0  0  0
   29.5680   53.8790   -5.1140 C   0  0  0  0  0  0  0  0  0  0  0  0
  1  2  1  0
  2  3  2  0
  2  4  1  0
  4  5  1  0
  5  6  2  0
  5  7  1  0
  6  8  1  0
  7  9  2  0
  8 10  1  0
  9 11  1  0
  8 12  2  0
  9 12  1  0
 11 13  1  0
 13 14  2  0
 13 15  1  0
 14 16  1  0
 15 17  2  0
 16 18  2  0
 17 18  1  0
 16 19  1  0
 18 20  1  0
 19 21  1  0
 20 21  1  0
M  END
