mac-x0179-mac-x0397
     RDKit          3D

 28 31  0  0  0  0  0  0  0  0999 V2000
   32.2710   44.4950   -5.8870 O   0  0  0  0  0  0  0  0  0  0  0  0
   33.2380   44.9240   -5.0480 C   0  0  0  0  0  0  0  0  0  0  0  0
   34.3360   45.2160   -5.5050 O   0  0  0  0  0  0  0  0  0  0  0  0
   32.8440   44.9930   -3.5760 C   0  0  0  0  0  0  0  0  0  0  0  0
   33.8910   45.5150   -2.7010 N   0  0  0  0  0  0  0  0  0  0  0  0
   34.6870   44.6830   -1.9690 C   0  0  0  0  0  0  0  0  0  0  0  0
   34.1340   46.8350   -2.3690 C   0  0  0  0  0  0  0  0  0  0  0  0
   34.5400   43.5040   -1.6980 O   0  0  0  0  0  0  0  0  0  0  0  0
   33.2770   47.7690   -2.5800 N   0  0  0  0  0  0  0  0  0  0  0  0
   35.8120   45.5050   -1.5380 C   0  0  0  0  0  0  0  0  0  0  0  0
   35.4860   46.8350   -1.7790 C   0  0  0  0  0  0  0  0  0  0  0  0
   31.9530   47.6740   -3.1710 C   0  0  0  0  0  0  0  0  0  0  0  0
   37.0150   45.1000   -0.9820 C   0  0  0  0  0  0  0  0  0  0  0  0
   36.3990   47.8250   -1.4550 C   0  0  0  0  0  0  0  0  0  0  0  0
   31.2360   49.0290   -3.1310 C   0  0  0  0  0  0  0  0  0  0  0  0
   37.9330   46.0950   -0.6550 C   0  0  0  0  0  0  0  0  0  0  0  0
   37.6260   47.4470   -0.8900 C   0  0  0  0  0  0  0  0  0  0  0  0
   30.6760   49.4490   -4.4740 C   0  0  0  0  0  0  0  0  0  0  0  0
   30.4550   50.5230   -3.5360 C   0  0  0  0  0  0  0  0  0  0  0  0
   30.0820   50.0510   -5.6510 C   0  0  0  0  0  0  0  0  0  0  0  0
   29.4670   51.3040   -5.8420 C   0  0  0  0  0  0  0  0  0  0  0  0
   29.8550   51.7770   -3.6740 C   0  0  0  0  0  0  0  0  0  0  0  0
   29.7400   52.8510   -2.3490 Cl  0  0  0  0  0  0  0  0  0  0  0  0
   29.3320   52.2180   -4.8550 C   0  0  0  0  0  0  0  0  0  0  0  0
   28.7800   51.9480   -7.2850 S   0  0  0  0  0  0  0  0  0  0  0  0
   28.3680   53.3850   -6.4520 C   0  0  0  0  0  0  0  0  0  0  0  0
   28.7040   53.4120   -5.1910 N   0  0  0  0  0  0  0  0  0  0  0  0
   27.7430   54.4020   -7.0670 N   0  0  0  0  0  0  0  0  0  0  0  0
  1  2  1  0
  2  3  2  0
  2  4  1  0
  4  5  1  0
  5  6  1  0
  5  7  1  0
  6  8  2  0
  7  9  2  3
  6 10  1  0
  7 11  1  0
 10 11  2  0
  9 12  1  0
 10 13  1  0
 11 14  1  0
 12 15  1  0
 13 16  2  0
 14 17  2  0
 16 17  1  0
 15 18  1  0
 18 19  2  0
 18 20  1  0
 20 21  2  0
 19 22  1  0
 22 23  1  0
 21 24  1  0
 22 24  2  0
 21 25  1  0
 25 26  1  0
 24 27  1  0
 26 27  2  0
 26 28  1  0
M  END
