mac-x0116-mac-x0411
     RDKit          3D

 31 34  0  0  0  0  0  0  0  0999 V2000
   29.1750   53.3860   -6.4230 C   0  0  0  0  0  0  0  0  0  0  0  0
   28.7190   52.1000   -6.9430 N   0  0  0  0  0  0  0  0  0  0  0  0
   29.1530   50.9710   -6.2370 C   0  0  0  0  0  0  0  0  0  0  0  0
   30.5240   53.8300   -6.8960 C   0  0  0  0  0  0  0  0  0  0  0  0
   31.6020   53.4030   -6.1750 O   0  0  0  0  0  0  0  0  0  0  0  0
   30.9450   54.6140   -7.9490 C   0  0  0  0  0  0  0  0  0  0  0  0
   32.3600   54.6690   -7.8670 C   0  0  0  0  0  0  0  0  0  0  0  0
   32.7060   53.9160   -6.7720 C   0  0  0  0  0  0  0  0  0  0  0  0
   29.4870   51.0540   -4.9210 N   0  0  0  0  0  0  0  0  0  0  0  0
   29.2600   49.7110   -6.8620 C   0  0  0  0  0  0  0  0  0  0  0  0
   29.9030   49.9390   -4.2860 C   0  0  0  0  0  0  0  0  0  0  0  0
   29.7060   48.6570   -6.0790 C   0  0  0  0  0  0  0  0  0  0  0  0
   29.0040   49.2880   -8.1520 N   0  0  0  0  0  0  0  0  0  0  0  0
   30.0450   48.6980   -4.7830 N   0  0  0  0  0  0  0  0  0  0  0  0
   29.7230   47.5830   -6.9220 N   0  0  0  0  0  0  0  0  0  0  0  0
   29.2930   48.0040   -8.1510 C   0  0  0  0  0  0  0  0  0  0  0  0
   30.1300   46.2310   -6.5890 C   0  0  0  0  0  0  0  0  0  0  0  0
   31.5760   45.9780   -7.0100 C   0  0  0  0  0  0  0  0  0  0  0  0
   32.0930   44.8500   -6.3010 O   0  0  0  0  0  0  0  0  0  0  0  0
   33.2970   45.0410   -5.6870 C   0  0  0  0  0  0  0  0  0  0  0  0
   34.3220   45.3970   -6.2540 O   0  0  0  0  0  0  0  0  0  0  0  0
   33.1660   44.7370   -4.2020 C   0  0  0  0  0  0  0  0  0  0  0  0
   34.4260   44.5680   -3.5430 O   0  0  0  0  0  0  0  0  0  0  0  0
   35.2050   45.6940   -3.3390 C   0  0  0  0  0  0  0  0  0  0  0  0
   34.6350   46.9770   -3.1840 C   0  0  0  0  0  0  0  0  0  0  0  0
   36.6040   45.5800   -3.2790 C   0  0  0  0  0  0  0  0  0  0  0  0
   37.4030   44.0570   -3.4530 Cl  0  0  0  0  0  0  0  0  0  0  0  0
   32.9340   47.2680   -3.2270 Cl  0  0  0  0  0  0  0  0  0  0  0  0
   35.4490   48.0950   -2.9810 C   0  0  0  0  0  0  0  0  0  0  0  0
   37.4100   46.7060   -3.0750 C   0  0  0  0  0  0  0  0  0  0  0  0
   36.8310   47.9640   -2.9260 C   0  0  0  0  0  0  0  0  0  0  0  0
  1  2  1  0
  2  3  1  0
  1  4  1  0
  4  5  1  0
  4  6  2  0
  6  7  1  0
  5  8  1  0
  7  8  2  0
  3  9  2  0
  3 10  1  0
  9 11  1  0
 10 12  2  0
 10 13  1  0
 11 14  2  0
 12 14  1  0
 12 15  1  0
 13 16  2  0
 15 16  1  0
 15 17  1  0
 17 18  1  0
 18 19  1  0
 19 20  1  0
 20 21  2  0
 20 22  1  0
 22 23  1  0
 23 24  1  0
 24 25  2  0
 24 26  1  0
 26 27  1  0
 25 28  1  0
 25 29  1  0
 26 30  2  0
 29 31  2  0
 30 31  1  0
M  END
