mac-x0588-mac-x0321
     RDKit          3D

 18 20  0  0  0  0  0  0  0  0999 V2000
   28.8350   51.8810   -6.3370 N   0  0  0  0  0  0  0  0  0  0  0  0
   29.3180   50.5340   -6.0710 C   0  0  2  0  0  0  0  0  0  0  0  0
   28.3900   49.4270   -6.6560 C   0  0  2  0  0  0  0  0  0  0  0  0
   29.5160   50.5580   -4.6430 N   0  0  0  0  0  0  0  0  0  0  0  0
   28.9520   49.3910   -4.0010 C   0  0  0  0  0  0  0  0  0  0  0  0
   28.5990   48.0390   -6.0120 C   0  0  2  0  0  0  0  0  0  0  0  0
   28.5180   49.2100   -8.1210 N   0  0  0  0  0  0  0  0  0  0  0  0
   29.1170   48.0930   -4.6410 N   0  0  0  0  0  0  0  0  0  0  0  0
   29.3410   47.3220   -7.0610 N   0  0  0  0  0  0  0  0  0  0  0  0
   28.7440   47.7870   -8.2910 C   0  0  0  0  0  0  0  0  0  0  0  0
   30.1130   47.1910   -4.2540 C   0  0  0  0  0  0  0  0  0  0  0  0
   31.2640   47.1720   -4.9230 C   0  0  0  0  0  0  0  0  0  0  0  0
   29.8360   46.2520   -3.0660 C   0  0  1  0  0  0  0  0  0  0  0  0
   32.3040   46.3450   -4.6540 O   0  0  0  0  0  0  0  0  0  0  0  0
   28.8700   46.7990   -2.1430 O   0  0  0  0  0  0  0  0  0  0  0  0
   29.3310   44.8630   -3.4350 C   0  0  0  0  0  0  0  0  0  0  0  0
   28.6740   44.4300   -2.1450 C   0  0  0  0  0  0  0  0  0  0  0  0
   28.0800   45.7200   -1.6250 C   0  0  0  0  0  0  0  0  0  0  0  0
  2  1  1  1
  2  3  1  0
  2  4  1  0
  4  5  1  0
  3  6  1  0
  3  7  1  6
  5  8  1  0
  6  8  1  0
  6  9  1  6
  7 10  1  0
  9 10  1  0
  8 11  1  0
 11 12  2  3
 13 11  1  6
 12 14  1  0
 13 15  1  0
 13 16  1  0
 16 17  1  0
 15 18  1  0
 17 18  1  0
M  END
