mac-x0357-mac-x0255
     RDKit          3D

 21 23  0  0  0  0  0  0  0  0999 V2000
   32.2280   43.8610   -4.7020 C   0  0  0  0  0  0  0  0  0  0  0  0
   33.4180   44.7880   -4.5760 C   0  0  0  0  0  0  0  0  0  0  0  0
   34.4240   44.4760   -3.6350 C   0  0  0  0  0  0  0  0  0  0  0  0
   31.0530   44.3600   -3.9190 C   0  0  0  0  0  0  0  0  0  0  0  0
   33.5670   45.9680   -5.3600 C   0  0  0  0  0  0  0  0  0  0  0  0
   29.8130   43.7810   -3.7570 C   0  0  0  0  0  0  0  0  0  0  0  0
   31.1670   45.8410   -3.0720 S   0  0  0  0  0  0  0  0  0  0  0  0
   34.3620   43.3610   -2.8430 O   0  0  0  0  0  0  0  0  0  0  0  0
   32.5820   46.4420   -6.4150 C   0  0  0  0  0  0  0  0  0  0  0  0
   34.7210   46.7660   -5.1430 C   0  0  0  0  0  0  0  0  0  0  0  0
   35.5430   45.2790   -3.4460 C   0  0  0  0  0  0  0  0  0  0  0  0
   28.9350   44.5570   -2.9260 C   0  0  0  0  0  0  0  0  0  0  0  0
   29.5600   45.7240   -2.4800 C   0  0  0  0  0  0  0  0  0  0  0  0
   31.5840   47.2970   -5.9240 O   0  0  0  0  0  0  0  0  0  0  0  0
   31.8990   45.3640   -6.9900 O   0  0  0  0  0  0  0  0  0  0  0  0
   33.1570   47.1670   -7.4610 O   0  0  0  0  0  0  0  0  0  0  0  0
   35.6920   46.4290   -4.2020 C   0  0  0  0  0  0  0  0  0  0  0  0
   27.6020   44.3200   -2.5180 C   0  0  0  0  0  0  0  0  0  0  0  0
   28.9020   46.6490   -1.6510 C   0  0  0  0  0  0  0  0  0  0  0  0
   26.9420   45.2380   -1.6930 C   0  0  0  0  0  0  0  0  0  0  0  0
   27.5870   46.3890   -1.2640 C   0  0  0  0  0  0  0  0  0  0  0  0
  1  2  1  0
  2  3  2  0
  1  4  1  0
  2  5  1  0
  4  6  2  0
  4  7  1  0
  3  8  1  0
  5  9  1  0
  5 10  2  0
  3 11  1  0
  6 12  1  0
  7 13  1  0
 12 13  2  0
  9 14  1  0
  9 15  1  0
  9 16  1  0
 10 17  1  0
 11 17  2  0
 12 18  1  0
 13 19  1  0
 18 20  2  0
 19 21  2  0
 20 21  1  0
M  END
