mac-x0375-mac-x0437
     RDKit          3D

 15 16  0  0  0  0  0  0  0  0999 V2000
   31.3390   44.6540   -5.1650 O   0  0  0  0  0  0  0  0  0  0  0  0
   32.5160   44.7630   -5.8330 C   0  0  0  0  0  0  0  0  0  0  0  0
   32.7050   44.2660   -6.9330 O   0  0  0  0  0  0  0  0  0  0  0  0
   33.5490   45.5680   -5.0550 C   0  0  0  0  0  0  0  0  0  0  0  0
   34.2570   44.6590   -4.1890 O   0  0  0  0  0  0  0  0  0  0  0  0
   35.6690   44.9240   -4.0310 C   0  0  2  0  0  0  0  0  0  0  0  0
   36.2860   44.7540   -5.4280 C   0  0  0  0  0  0  0  0  0  0  0  0
   36.2870   43.8730   -3.1170 C   0  0  0  0  0  0  0  0  0  0  0  0
   35.9170   46.3270   -3.5410 C   0  0  0  0  0  0  0  0  0  0  0  0
   36.6830   46.5560   -2.3250 C   0  0  0  0  0  0  0  0  0  0  0  0
   35.5730   47.5430   -4.0040 C   0  0  0  0  0  0  0  0  0  0  0  0
   36.9800   44.1770   -2.0040 C   0  0  0  0  0  0  0  0  0  0  0  0
   36.7690   47.9780   -2.0990 C   0  0  0  0  0  0  0  0  0  0  0  0
   36.0990   48.5610   -3.1080 C   0  0  0  0  0  0  0  0  0  0  0  0
   37.1860   45.5520   -1.5970 C   0  0  0  0  0  0  0  0  0  0  0  0
  1  2  1  0
  2  3  2  0
  2  4  1  0
  4  5  1  0
  6  5  1  0
  6  7  1  6
  6  8  1  0
  6  9  1  0
  9 10  1  0
  9 11  2  0
  8 12  2  0
 10 13  1  0
 11 14  1  0
 13 14  2  0
 10 15  2  0
 12 15  1  0
M  END
