mac-x0439-mac-x0319
     RDKit          3D

 17 19  0  0  0  0  0  0  0  0999 V2000
   31.0650   47.4030   -1.8230 Cl  0  0  0  0  0  0  0  0  0  0  0  0
   29.9160   46.1680   -2.0680 C   0  0  0  0  0  0  0  0  0  0  0  0
   29.9810   45.4240   -3.2700 C   0  0  0  0  0  0  0  0  0  0  0  0
   28.9400   45.9110   -1.0960 C   0  0  0  0  0  0  0  0  0  0  0  0
   30.7910   45.3650   -4.4650 C   0  0  0  0  0  0  0  0  0  0  0  0
   29.0060   44.4300   -3.4180 C   0  0  0  0  0  0  0  0  0  0  0  0
   28.0010   44.9080   -1.2940 C   0  0  0  0  0  0  0  0  0  0  0  0
   31.9930   46.1120   -4.9630 C   0  0  0  0  0  0  0  0  0  0  0  0
   30.2750   44.3720   -5.2780 C   0  0  0  0  0  0  0  0  0  0  0  0
   29.2190   43.8410   -4.6130 N   0  0  0  0  0  0  0  0  0  0  0  0
   28.0180   44.1520   -2.4610 C   0  0  0  0  0  0  0  0  0  0  0  0
   30.8480   44.0710   -6.5530 C   0  0  0  0  0  0  0  0  0  0  0  0
   32.7910   45.2960   -6.0160 C   0  0  1  0  0  0  0  0  0  0  0  0
   28.4220   42.8150   -5.0650 O   0  0  0  0  0  0  0  0  0  0  0  0
   30.1000   43.3000   -7.3610 O   0  0  0  0  0  0  0  0  0  0  0  0
   31.9950   44.4810   -6.9530 N   0  0  0  0  0  0  0  0  0  0  0  0
   33.6940   46.1550   -6.7000 O   0  0  0  0  0  0  0  0  0  0  0  0
  1  2  1  0
  2  3  2  0
  2  4  1  0
  3  5  1  0
  3  6  1  0
  4  7  2  0
  5  8  1  0
  5  9  2  0
  6 10  1  0
  9 10  1  0
  6 11  2  0
  7 11  1  0
  9 12  1  0
  8 13  1  0
 10 14  1  0
 12 15  1  0
 12 16  2  0
 13 16  1  0
 13 17  1  6
M  END
