mac-x0179-mac-x0228
     RDKit          3D

 28 31  0  0  0  0  0  0  0  0999 V2000
   31.9880   44.8270   -5.5180 O   0  0  0  0  0  0  0  0  0  0  0  0
   33.1150   45.3330   -4.9710 C   0  0  0  0  0  0  0  0  0  0  0  0
   34.1980   45.0510   -5.4610 O   0  0  0  0  0  0  0  0  0  0  0  0
   32.8870   46.2480   -3.7810 C   0  0  1  0  0  0  0  0  0  0  0  0
   31.4160   46.2750   -3.3280 C   0  0  0  0  0  0  0  0  0  0  0  0
   33.8750   46.1600   -2.6930 N   0  0  0  0  0  0  0  0  0  0  0  0
   31.0200   47.6910   -3.1920 N   0  0  0  0  0  0  0  0  0  0  0  0
   34.4960   45.0200   -2.2230 C   0  0  0  0  0  0  0  0  0  0  0  0
   34.5650   47.2770   -2.3220 C   0  0  0  0  0  0  0  0  0  0  0  0
   34.1250   43.8580   -2.2270 O   0  0  0  0  0  0  0  0  0  0  0  0
   34.2510   48.4430   -2.4430 O   0  0  0  0  0  0  0  0  0  0  0  0
   30.4870   48.2930   -4.1940 C   0  0  0  0  0  0  0  0  0  0  0  0
   35.7820   45.4590   -1.6580 C   0  0  0  0  0  0  0  0  0  0  0  0
   35.8180   46.8370   -1.7240 C   0  0  0  0  0  0  0  0  0  0  0  0
   30.2200   47.7130   -5.3830 O   0  0  0  0  0  0  0  0  0  0  0  0
   36.8390   44.7360   -1.1290 C   0  0  0  0  0  0  0  0  0  0  0  0
   36.8930   47.5770   -1.2770 C   0  0  0  0  0  0  0  0  0  0  0  0
   30.1410   49.7210   -4.1200 C   0  0  0  0  0  0  0  0  0  0  0  0
   37.9450   45.4620   -0.6670 C   0  0  0  0  0  0  0  0  0  0  0  0
   37.9740   46.8700   -0.7390 C   0  0  0  0  0  0  0  0  0  0  0  0
   29.9190   50.4460   -5.2980 C   0  0  0  0  0  0  0  0  0  0  0  0
   30.0500   50.3360   -2.8560 C   0  0  0  0  0  0  0  0  0  0  0  0
   29.6110   51.7930   -5.1740 C   0  0  0  0  0  0  0  0  0  0  0  0
   29.7390   51.6930   -2.7560 C   0  0  0  0  0  0  0  0  0  0  0  0
   29.5270   52.3930   -3.9250 C   0  0  0  0  0  0  0  0  0  0  0  0
   29.3310   52.8080   -6.2150 C   0  0  0  0  0  0  0  0  0  0  0  0
   29.2180   53.7280   -3.9800 O   0  0  0  0  0  0  0  0  0  0  0  0
   29.4850   54.0680   -5.3600 C   0  0  0  0  0  0  0  0  0  0  0  0
  1  2  1  0
  2  3  2  0
  2  4  1  0
  4  5  1  1
  4  6  1  0
  5  7  1  0
  6  8  1  0
  6  9  1  0
  8 10  2  0
  9 11  2  0
  7 12  2  3
  8 13  1  0
  9 14  1  0
 13 14  2  0
 12 15  1  0
 13 16  1  0
 14 17  1  0
 12 18  1  0
 16 19  2  0
 17 20  2  0
 19 20  1  0
 18 21  2  0
 18 22  1  0
 21 23  1  0
 22 24  2  0
 23 25  2  0
 24 25  1  0
 23 26  1  0
 25 27  1  0
 26 28  1  0
 27 28  1  0
M  END
