mac-x0588-mac-x0139
     RDKit          3D

 22 25  0  0  0  0  0  0  0  0999 V2000
   28.6110   51.8610   -6.4820 N   0  0  0  0  0  0  0  0  0  0  0  0
   29.1590   50.5720   -6.1130 C   0  0  2  0  0  0  0  0  0  0  0  0
   28.2220   49.3870   -6.3980 C   0  0  2  0  0  0  0  0  0  0  0  0
   29.3790   50.7090   -4.6980 N   0  0  0  0  0  0  0  0  0  0  0  0
   30.1810   49.5700   -4.2810 C   0  0  0  0  0  0  0  0  0  0  0  0
   28.5250   48.1810   -5.4760 C   0  0  2  0  0  0  0  0  0  0  0  0
   28.3310   48.8690   -7.7770 N   0  0  0  0  0  0  0  0  0  0  0  0
   29.4380   48.3270   -4.3310 N   0  0  0  0  0  0  0  0  0  0  0  0
   29.0640   47.1330   -6.3650 N   0  0  0  0  0  0  0  0  0  0  0  0
   29.3020   47.7900   -7.6520 C   0  0  0  0  0  0  0  0  0  0  0  0
   30.2870   47.1300   -4.3410 C   0  0  2  0  0  0  0  0  0  0  0  0
   30.3350   46.7250   -5.7700 N   0  0  0  0  0  0  0  0  0  0  0  0
   30.6160   45.3220   -6.1340 C   0  0  0  0  0  0  0  0  0  0  0  0
   29.9580   46.0020   -3.2820 C   0  0  1  0  0  0  0  0  0  0  0  0
   31.9530   44.7160   -5.6900 C   0  0  0  0  0  0  0  0  0  0  0  0
   29.3290   46.6140   -2.1190 O   0  0  0  0  0  0  0  0  0  0  0  0
   28.9740   44.9090   -3.6880 C   0  0  0  0  0  0  0  0  0  0  0  0
   32.8350   44.4460   -6.8760 C   0  0  0  0  0  0  0  0  0  0  0  0
   28.4120   44.4500   -2.3660 C   0  0  0  0  0  0  0  0  0  0  0  0
   28.3060   45.7510   -1.6090 C   0  0  0  0  0  0  0  0  0  0  0  0
   32.5180   43.9840   -7.9600 O   0  0  0  0  0  0  0  0  0  0  0  0
   34.1200   44.7790   -6.6390 O   0  0  0  0  0  0  0  0  0  0  0  0
  2  1  1  1
  2  3  1  0
  2  4  1  0
  4  5  1  0
  3  6  1  0
  3  7  1  6
  5  8  1  0
  6  8  1  1
  6  9  1  0
  7 10  1  0
  9 10  1  0
  8 11  1  0
  9 12  1  0
 11 12  1  6
 12 13  1  0
 11 14  1  0
 13 15  1  0
 14 16  1  0
 14 17  1  6
 15 18  1  0
 17 19  1  0
 16 20  1  0
 19 20  1  0
 18 21  2  0
 18 22  1  0
M  END
