mac-x0411-mac-x0357
     RDKit          3D

 18 19  0  0  0  0  0  0  0  0999 V2000
   37.2410   44.4120   -3.6350 Cl  0  0  0  0  0  0  0  0  0  0  0  0
   36.9460   46.0520   -3.1630 C   0  0  0  0  0  0  0  0  0  0  0  0
   35.6430   46.5960   -3.1120 C   0  0  0  0  0  0  0  0  0  0  0  0
   38.0670   46.8250   -2.8310 C   0  0  0  0  0  0  0  0  0  0  0  0
   35.5190   47.9440   -2.7140 C   0  0  0  0  0  0  0  0  0  0  0  0
   37.9150   48.1530   -2.4430 C   0  0  0  0  0  0  0  0  0  0  0  0
   34.4610   45.7930   -3.4580 C   0  0  0  0  0  0  0  0  0  0  0  0
   33.9780   48.7290   -2.6080 Cl  0  0  0  0  0  0  0  0  0  0  0  0
   36.6420   48.7130   -2.3840 C   0  0  0  0  0  0  0  0  0  0  0  0
   33.8640   45.9130   -4.7250 C   0  0  0  0  0  0  0  0  0  0  0  0
   33.9090   44.9000   -2.5330 C   0  0  0  0  0  0  0  0  0  0  0  0
   32.7310   45.1580   -5.0800 C   0  0  0  0  0  0  0  0  0  0  0  0
   32.7860   44.1430   -2.8640 C   0  0  0  0  0  0  0  0  0  0  0  0
   32.0950   45.2940   -6.4510 C   0  0  0  0  0  0  0  0  0  0  0  0
   32.2040   44.2730   -4.1260 C   0  0  0  0  0  0  0  0  0  0  0  0
   31.6020   44.0630   -6.8940 O   0  0  0  0  0  0  0  0  0  0  0  0
   33.0100   45.7520   -7.4080 O   0  0  0  0  0  0  0  0  0  0  0  0
   31.0450   46.2270   -6.4280 O   0  0  0  0  0  0  0  0  0  0  0  0
  1  2  1  0
  2  3  2  0
  2  4  1  0
  3  5  1  0
  4  6  2  0
  3  7  1  0
  5  8  1  0
  5  9  2  0
  6  9  1  0
  7 10  2  0
  7 11  1  0
 10 12  1  0
 11 13  2  0
 12 14  1  0
 12 15  2  0
 13 15  1  0
 14 16  1  0
 14 17  1  0
 14 18  1  0
M  END
