mac-x0190-mac-x0224
     RDKit          3D

 23 25  0  0  0  0  0  0  0  0999 V2000
   28.8610   57.0180   -5.4440 O   0  0  0  0  0  0  0  0  0  0  0  0
   30.0190   56.3310   -4.9670 C   0  0  0  0  0  0  0  0  0  0  0  0
   29.6250   54.9180   -4.7610 C   0  0  0  0  0  0  0  0  0  0  0  0
   29.7140   54.2830   -3.5490 N   0  0  0  0  0  0  0  0  0  0  0  0
   29.1490   54.1180   -5.6860 N   0  0  0  0  0  0  0  0  0  0  0  0
   29.2610   53.0020   -3.7080 C   0  0  0  0  0  0  0  0  0  0  0  0
   28.9190   52.9320   -5.0410 C   0  0  0  0  0  0  0  0  0  0  0  0
   29.1240   51.9270   -2.8260 C   0  0  0  0  0  0  0  0  0  0  0  0
   28.4130   51.7490   -5.5520 C   0  0  0  0  0  0  0  0  0  0  0  0
   28.0650   51.6360   -6.9630 C   0  0  0  0  0  0  0  0  0  0  0  0
   28.6070   50.7400   -3.3520 C   0  0  0  0  0  0  0  0  0  0  0  0
   28.2540   50.6500   -4.6940 C   0  0  0  0  0  0  0  0  0  0  0  0
   29.3410   50.5410   -7.6320 S   0  0  0  0  0  0  0  0  0  0  0  0
   29.8410   49.6590   -6.1390 C   0  0  0  0  0  0  0  0  0  0  0  0
   29.9110   48.2820   -6.2300 C   0  0  0  0  0  0  0  0  0  0  0  0
   30.1690   50.2680   -4.9090 C   0  0  0  0  0  0  0  0  0  0  0  0
   30.2910   47.4990   -5.1430 C   0  0  0  0  0  0  0  0  0  0  0  0
   30.5460   49.4880   -3.8010 C   0  0  0  0  0  0  0  0  0  0  0  0
   30.3500   46.0370   -5.3480 C   0  0  0  0  0  0  0  0  0  0  0  0
   30.6080   48.0990   -3.9220 C   0  0  0  0  0  0  0  0  0  0  0  0
   30.9810   47.3450   -2.8430 O   0  0  0  0  0  0  0  0  0  0  0  0
   30.0910   45.4240   -6.3640 O   0  0  0  0  0  0  0  0  0  0  0  0
   30.7570   45.3790   -4.2470 O   0  0  0  0  0  0  0  0  0  0  0  0
  1  2  1  0
  2  3  1  0
  3  4  1  0
  3  5  2  0
  4  6  1  0
  5  7  1  0
  6  7  2  0
  6  8  1  0
  7  9  1  0
  9 10  1  0
  8 11  2  0
  9 12  2  0
 11 12  1  0
 10 13  1  0
 13 14  1  0
 14 15  2  0
 14 16  1  0
 15 17  1  0
 16 18  2  0
 17 19  1  0
 17 20  2  0
 18 20  1  0
 20 21  1  0
 19 22  2  0
 19 23  1  0
M  END
