mac-x0347-mac-x0182
     RDKit          3D

 27 30  0  0  0  0  0  0  0  0999 V2000
   30.3810   45.0320   -5.0130 O   0  0  0  0  0  0  0  0  0  0  0  0
   30.7080   46.0440   -5.8460 C   0  0  0  0  0  0  0  0  0  0  0  0
   30.8530   45.8320   -7.0360 O   0  0  0  0  0  0  0  0  0  0  0  0
   30.8370   47.3420   -5.1380 C   0  0  0  0  0  0  0  0  0  0  0  0
   30.1340   48.4590   -5.6200 C   0  0  0  0  0  0  0  0  0  0  0  0
   31.6530   47.5440   -4.0130 C   0  0  0  0  0  0  0  0  0  0  0  0
   32.5320   46.5580   -3.4170 N   0  0  0  0  0  0  0  0  0  0  0  0
   30.2560   49.7020   -4.9860 C   0  0  0  0  0  0  0  0  0  0  0  0
   31.7420   48.7160   -3.3610 N   0  0  0  0  0  0  0  0  0  0  0  0
   31.0530   49.7530   -3.8550 C   0  0  0  0  0  0  0  0  0  0  0  0
   29.6220   50.9160   -5.4770 C   0  0  0  0  0  0  0  0  0  0  0  0
   33.8180   46.3220   -4.2550 S   0  0  2  0  0  0  0  0  0  0  0  0
   34.1010   46.6790   -5.6300 O   0  0  0  0  0  0  0  0  0  0  0  0
   28.5280   50.9250   -6.3540 C   0  0  0  0  0  0  0  0  0  0  0  0
   30.1590   52.1470   -5.0670 C   0  0  0  0  0  0  0  0  0  0  0  0
   33.8850   44.6480   -4.2450 N   0  0  0  0  0  0  0  0  0  0  0  0
   35.3140   46.4920   -3.3690 C   0  0  0  0  0  0  0  0  0  0  0  0
   28.0000   52.1370   -6.8050 C   0  0  0  0  0  0  0  0  0  0  0  0
   29.6340   53.3520   -5.5150 C   0  0  0  0  0  0  0  0  0  0  0  0
   34.6180   44.2280   -3.1740 C   0  0  0  0  0  0  0  0  0  0  0  0
   35.6330   45.2550   -2.8270 C   0  0  0  0  0  0  0  0  0  0  0  0
   36.1080   47.6140   -3.1950 C   0  0  0  0  0  0  0  0  0  0  0  0
   34.4820   43.1780   -2.5730 O   0  0  0  0  0  0  0  0  0  0  0  0
   28.5530   53.3470   -6.3880 C   0  0  0  0  0  0  0  0  0  0  0  0
   37.2730   47.4540   -2.4310 C   0  0  0  0  0  0  0  0  0  0  0  0
   36.7800   45.0870   -2.0700 C   0  0  0  0  0  0  0  0  0  0  0  0
   37.6070   46.2030   -1.8730 C   0  0  0  0  0  0  0  0  0  0  0  0
  1  2  1  0
  2  3  2  0
  2  4  1  0
  4  5  2  0
  4  6  1  0
  6  7  1  0
  5  8  1  0
  6  9  2  0
  8 10  2  0
  9 10  1  0
  8 11  1  0
  7 12  2  0
 12 13  2  0
 11 14  2  0
 11 15  1  0
 12 16  1  6
 12 17  1  0
 14 18  1  0
 15 19  2  0
 16 20  1  0
 17 21  2  0
 20 21  1  0
 17 22  1  0
 20 23  2  0
 18 24  2  0
 19 24  1  0
 22 25  2  0
 21 26  1  0
 25 27  1  0
 26 27  2  0
M  END
