mac-x0455-mac-x0365
     RDKit          3D

 20 21  0  0  0  0  0  0  0  0999 V2000
   30.8030   48.3500   -5.7110 C   0  0  0  0  0  0  0  0  0  0  0  0
   30.9510   47.1120   -4.7920 C   0  0  1  0  0  0  0  0  0  0  0  0
   29.9130   47.2610   -3.7750 O   0  0  0  0  0  0  0  0  0  0  0  0
   30.3360   49.6710   -5.1300 C   0  0  0  0  0  0  0  0  0  0  0  0
   30.5520   45.7900   -5.4930 C   0  0  0  0  0  0  0  0  0  0  0  0
   32.2910   47.0430   -4.0560 C   0  0  0  0  0  0  0  0  0  0  0  0
   30.6600   50.0460   -3.8170 C   0  0  0  0  0  0  0  0  0  0  0  0
   29.5630   50.5550   -5.9060 C   0  0  0  0  0  0  0  0  0  0  0  0
   29.7740   44.9640   -5.0270 O   0  0  0  0  0  0  0  0  0  0  0  0
   31.1100   45.5540   -6.6950 O   0  0  0  0  0  0  0  0  0  0  0  0
   33.1340   48.1650   -3.9490 C   0  0  0  0  0  0  0  0  0  0  0  0
   32.7220   45.8410   -3.4600 C   0  0  0  0  0  0  0  0  0  0  0  0
   30.2190   51.2680   -3.3030 C   0  0  0  0  0  0  0  0  0  0  0  0
   29.1240   51.7790   -5.3880 C   0  0  0  0  0  0  0  0  0  0  0  0
   30.5430   51.6040   -2.0430 F   0  0  0  0  0  0  0  0  0  0  0  0
   34.3520   48.0870   -3.2760 C   0  0  0  0  0  0  0  0  0  0  0  0
   33.9470   45.7680   -2.7860 C   0  0  0  0  0  0  0  0  0  0  0  0
   29.4560   52.1300   -4.0820 C   0  0  0  0  0  0  0  0  0  0  0  0
   29.0380   53.3180   -3.5530 O   0  0  0  0  0  0  0  0  0  0  0  0
   34.7600   46.8920   -2.6940 C   0  0  0  0  0  0  0  0  0  0  0  0
  1  2  1  0
  2  3  1  1
  1  4  1  0
  2  5  1  0
  2  6  1  0
  4  7  2  0
  4  8  1  0
  5  9  2  0
  5 10  1  0
  6 11  2  0
  6 12  1  0
  7 13  1  0
  8 14  2  0
 13 15  1  0
 11 16  1  0
 12 17  2  0
 13 18  2  0
 14 18  1  0
 18 19  1  0
 16 20  2  0
 17 20  1  0
M  END
