mac-x0385-mac-x0348
     RDKit          3D

 25 27  0  0  0  0  0  0  0  0999 V2000
   29.1780   51.8670   -2.7660 C   0  0  0  0  0  0  0  0  0  0  0  0
   29.0870   50.7310   -3.7260 C   0  0  0  0  0  0  0  0  0  0  0  0
   29.2950   49.4440   -3.3070 C   0  0  0  0  0  0  0  0  0  0  0  0
   28.7940   50.8740   -5.0730 C   0  0  0  0  0  0  0  0  0  0  0  0
   28.5560   52.1400   -5.6250 N   0  0  0  0  0  0  0  0  0  0  0  0
   28.7220   49.8330   -5.9160 N   0  0  0  0  0  0  0  0  0  0  0  0
   29.2320   48.3780   -4.1100 N   0  0  0  0  0  0  0  0  0  0  0  0
   28.9480   48.6140   -5.3940 C   0  0  0  0  0  0  0  0  0  0  0  0
   28.8830   47.4260   -6.3100 C   0  0  0  0  0  0  0  0  0  0  0  0
   29.4000   46.1150   -5.6880 C   0  0  0  0  0  0  0  0  0  0  0  0
   30.4130   46.2030   -4.5070 C   0  0  2  0  0  0  0  0  0  0  0  0
   31.6910   45.4100   -4.7820 C   0  0  0  0  0  0  0  0  0  0  0  0
   29.7500   46.0790   -3.1430 C   0  0  0  0  0  0  0  0  0  0  0  0
   32.4080   45.8300   -6.0470 C   0  0  0  0  0  0  0  0  0  0  0  0
   28.8400   45.0750   -2.8350 C   0  0  0  0  0  0  0  0  0  0  0  0
   29.8710   46.8780   -1.9490 C   0  0  0  0  0  0  0  0  0  0  0  0
   31.9300   45.7170   -7.1660 O   0  0  0  0  0  0  0  0  0  0  0  0
   33.6400   46.3520   -5.8530 O   0  0  0  0  0  0  0  0  0  0  0  0
   28.4160   45.2310   -1.5470 N   0  0  0  0  0  0  0  0  0  0  0  0
   29.0250   46.3270   -0.9760 C   0  0  0  0  0  0  0  0  0  0  0  0
   30.6110   48.0250   -1.5850 C   0  0  0  0  0  0  0  0  0  0  0  0
   27.4630   44.3700   -0.8860 C   0  0  0  0  0  0  0  0  0  0  0  0
   30.4970   48.5770   -0.3050 C   0  0  0  0  0  0  0  0  0  0  0  0
   28.9020   46.8720    0.3150 C   0  0  0  0  0  0  0  0  0  0  0  0
   29.6490   48.0070    0.6340 C   0  0  0  0  0  0  0  0  0  0  0  0
  1  2  1  0
  2  3  2  0
  2  4  1  0
  4  5  1  0
  4  6  2  0
  3  7  1  0
  6  8  1  0
  7  8  2  0
  8  9  1  0
  9 10  1  0
 11 10  1  6
 11 12  1  0
 11 13  1  0
 12 14  1  0
 13 15  2  0
 13 16  1  0
 14 17  2  0
 14 18  1  0
 15 19  1  0
 16 20  2  0
 19 20  1  0
 16 21  1  0
 19 22  1  0
 21 23  2  0
 20 24  1  0
 23 25  1  0
 24 25  2  0
M  END
