mac-x0509-mac-x0437
     RDKit          3D

 19 21  0  0  0  0  0  0  0  0999 V2000
   37.5090   47.1090   -5.0800 O   0  0  0  0  0  0  0  0  0  0  0  0
   37.5810   46.0450   -4.4790 C   0  0  0  0  0  0  0  0  0  0  0  0
   36.5290   45.3940   -3.5130 C   0  0  1  0  0  0  0  0  0  0  0  0
   38.6640   45.1710   -4.5400 N   0  0  0  0  0  0  0  0  0  0  0  0
   37.3350   44.2550   -2.9300 C   0  0  0  0  0  0  0  0  0  0  0  0
   38.5670   44.1820   -3.5760 C   0  0  0  0  0  0  0  0  0  0  0  0
   36.1030   46.3800   -2.4870 N   0  0  0  0  0  0  0  0  0  0  0  0
   35.2550   44.9930   -4.2660 C   0  0  0  0  0  0  0  0  0  0  0  0
   37.0230   43.3540   -1.9250 C   0  0  0  0  0  0  0  0  0  0  0  0
   39.5230   43.2340   -3.2580 C   0  0  0  0  0  0  0  0  0  0  0  0
   34.1470   45.7070   -3.5780 N   0  0  0  0  0  0  0  0  0  0  0  0
   34.8170   46.8560   -2.9770 C   0  0  0  0  0  0  0  0  0  0  0  0
   33.0650   46.1070   -4.4930 C   0  0  0  0  0  0  0  0  0  0  0  0
   37.9740   42.3850   -1.5840 C   0  0  0  0  0  0  0  0  0  0  0  0
   39.2160   42.3260   -2.2460 C   0  0  0  0  0  0  0  0  0  0  0  0
   32.3060   44.8970   -5.0370 C   0  0  0  0  0  0  0  0  0  0  0  0
   31.7390   45.2360   -6.3840 C   0  0  0  0  0  0  0  0  0  0  0  0
   30.5750   45.9090   -6.3180 O   0  0  0  0  0  0  0  0  0  0  0  0
   32.2340   44.9590   -7.4670 O   0  0  0  0  0  0  0  0  0  0  0  0
  1  2  2  0
  3  2  1  0
  2  4  1  0
  3  5  1  0
  4  6  1  0
  5  6  2  0
  3  7  1  0
  3  8  1  6
  5  9  1  0
  6 10  1  0
  8 11  1  0
  7 12  1  0
 11 12  1  0
 11 13  1  0
  9 14  2  0
 10 15  2  0
 14 15  1  0
 13 16  1  0
 16 17  1  0
 17 18  1  0
 17 19  2  0
M  END
