mac-x0302-mac-x0213
     RDKit          3D

 24 26  0  0  0  0  0  0  0  0999 V2000
   30.1270   45.3640   -5.8260 O   0  0  0  0  0  0  0  0  0  0  0  0
   31.2800   46.1820   -5.2740 S   0  0  0  0  0  0  0  0  0  0  0  0
   32.6200   46.8380   -5.1180 O   0  0  0  0  0  0  0  0  0  0  0  0
   30.4190   47.6070   -5.1270 C   0  0  0  0  0  0  0  0  0  0  0  0
   31.9630   45.8370   -6.8190 O   0  0  0  0  0  0  0  0  0  0  0  0
   31.5560   45.1500   -4.0430 C   0  0  0  0  0  0  0  0  0  0  0  0
   31.0240   48.8460   -4.7760 N   0  0  0  0  0  0  0  0  0  0  0  0
   31.7560   45.8590   -2.6890 C   0  0  0  0  0  0  0  0  0  0  0  0
   30.5800   44.0750   -3.6050 C   0  0  0  0  0  0  0  0  0  0  0  0
   30.3150   49.8340   -4.0780 C   0  0  0  0  0  0  0  0  0  0  0  0
   30.3640   45.8600   -2.1760 C   0  0  0  0  0  0  0  0  0  0  0  0
   29.6600   44.8040   -2.7130 C   0  0  0  0  0  0  0  0  0  0  0  0
   30.2440   49.7520   -2.8040 O   0  0  0  0  0  0  0  0  0  0  0  0
   29.6480   50.9730   -4.6770 C   0  0  0  0  0  0  0  0  0  0  0  0
   29.6990   46.6870   -1.3050 C   0  0  0  0  0  0  0  0  0  0  0  0
   28.3390   44.5910   -2.3860 C   0  0  0  0  0  0  0  0  0  0  0  0
   29.7180   52.2020   -4.0820 C   0  0  0  0  0  0  0  0  0  0  0  0
   28.9400   50.8570   -5.8380 C   0  0  0  0  0  0  0  0  0  0  0  0
   28.3650   46.4790   -0.9680 C   0  0  0  0  0  0  0  0  0  0  0  0
   27.6670   45.4380   -1.4970 C   0  0  0  0  0  0  0  0  0  0  0  0
   29.0960   53.3130   -4.6250 C   0  0  0  0  0  0  0  0  0  0  0  0
   28.3010   51.9650   -6.4100 C   0  0  0  0  0  0  0  0  0  0  0  0
   29.2050   54.5340   -3.9670 O   0  0  0  0  0  0  0  0  0  0  0  0
   28.3840   53.1900   -5.7970 C   0  0  0  0  0  0  0  0  0  0  0  0
  1  2  1  0
  2  3  2  0
  2  4  1  0
  2  5  1  0
  2  6  1  0
  4  7  1  0
  6  8  1  0
  6  9  1  0
  7 10  1  0
  8 11  1  0
  9 12  1  0
 11 12  2  0
 10 13  2  0
 10 14  1  0
 11 15  1  0
 12 16  1  0
 14 17  2  0
 14 18  1  0
 15 19  2  0
 16 20  2  0
 19 20  1  0
 17 21  1  0
 18 22  2  0
 21 23  1  0
 21 24  2  0
 22 24  1  0
M  END
