mac-x0437-mac-x0284
     RDKit          3D

 26 28  0  0  0  0  0  0  0  0999 V2000
   32.2620   43.9010   -7.3600 O   0  0  0  0  0  0  0  0  0  0  0  0
   33.2630   44.5890   -6.7820 C   0  0  0  0  0  0  0  0  0  0  0  0
   33.9040   45.4060   -7.4230 O   0  0  0  0  0  0  0  0  0  0  0  0
   33.4740   44.2280   -5.3390 C   0  0  0  0  0  0  0  0  0  0  0  0
   33.0000   45.3090   -4.3490 C   0  0  2  0  0  0  0  0  0  0  0  0
   31.9040   46.2550   -4.8910 C   0  0  0  0  0  0  0  0  0  0  0  0
   34.1620   46.0280   -3.8000 N   0  0  0  0  0  0  0  0  0  0  0  0
   30.7070   46.1480   -4.0950 O   0  0  0  0  0  0  0  0  0  0  0  0
   34.3680   47.3840   -3.8220 C   0  0  0  0  0  0  0  0  0  0  0  0
   35.2460   45.4530   -3.1670 C   0  0  0  0  0  0  0  0  0  0  0  0
   29.6100   46.7530   -4.6230 C   0  0  0  0  0  0  0  0  0  0  0  0
   35.5030   47.7190   -3.2500 N   0  0  0  0  0  0  0  0  0  0  0  0
   36.0610   46.5380   -2.8390 C   0  0  0  0  0  0  0  0  0  0  0  0
   35.5950   44.1340   -2.8520 C   0  0  0  0  0  0  0  0  0  0  0  0
   28.7520   46.2090   -5.3020 O   0  0  0  0  0  0  0  0  0  0  0  0
   37.2750   46.3140   -2.1720 C   0  0  0  0  0  0  0  0  0  0  0  0
   36.8100   43.9310   -2.1860 C   0  0  0  0  0  0  0  0  0  0  0  0
   29.5540   48.1990   -4.2770 C   0  0  0  0  0  0  0  0  0  0  0  0
   37.6390   45.0040   -1.8500 C   0  0  0  0  0  0  0  0  0  0  0  0
   29.3080   49.1730   -5.2570 C   0  0  0  0  0  0  0  0  0  0  0  0
   29.7500   48.6000   -2.9470 C   0  0  0  0  0  0  0  0  0  0  0  0
   29.9950   47.7300   -1.9170 O   0  0  0  0  0  0  0  0  0  0  0  0
   29.2570   50.5340   -4.9150 C   0  0  0  0  0  0  0  0  0  0  0  0
   29.7020   49.9490   -2.6040 C   0  0  0  0  0  0  0  0  0  0  0  0
   28.9920   51.5760   -5.9620 C   0  0  0  0  0  0  0  0  0  0  0  0
   29.4560   50.9120   -3.5830 C   0  0  0  0  0  0  0  0  0  0  0  0
  1  2  1  0
  2  3  2  0
  2  4  1  0
  5  4  1  6
  5  6  1  0
  5  7  1  0
  6  8  1  0
  7  9  1  0
  7 10  1  0
  8 11  1  0
  9 12  2  0
 10 13  2  0
 12 13  1  0
 10 14  1  0
 11 15  2  0
 13 16  1  0
 14 17  2  0
 11 18  1  0
 16 19  2  0
 17 19  1  0
 18 20  2  0
 18 21  1  0
 21 22  1  0
 20 23  1  0
 21 24  2  0
 23 25  1  0
 23 26  2  0
 24 26  1  0
M  END
