mac-x0116-mac-x0385
     RDKit          3D

 18 20  0  0  0  0  0  0  0  0999 V2000
   29.4580   53.4090   -6.5080 C   0  0  0  0  0  0  0  0  0  0  0  0
   29.1380   52.1010   -7.0540 N   0  0  0  0  0  0  0  0  0  0  0  0
   29.2430   50.9140   -6.3350 C   0  0  0  0  0  0  0  0  0  0  0  0
   30.7240   54.0070   -7.0230 C   0  0  0  0  0  0  0  0  0  0  0  0
   31.8250   53.9210   -6.2180 O   0  0  0  0  0  0  0  0  0  0  0  0
   31.0500   54.6610   -8.1940 C   0  0  0  0  0  0  0  0  0  0  0  0
   32.4220   54.9920   -8.1000 C   0  0  0  0  0  0  0  0  0  0  0  0
   32.8470   54.5210   -6.8800 C   0  0  0  0  0  0  0  0  0  0  0  0
   29.3280   50.9370   -4.9450 N   0  0  0  0  0  0  0  0  0  0  0  0
   29.2600   49.7480   -7.0200 C   0  0  0  0  0  0  0  0  0  0  0  0
   29.4280   49.8130   -4.2860 C   0  0  0  0  0  0  0  0  0  0  0  0
   29.3720   48.5030   -6.2600 C   0  0  0  0  0  0  0  0  0  0  0  0
   29.1900   49.4370   -8.3520 N   0  0  0  0  0  0  0  0  0  0  0  0
   29.5160   49.9310   -2.7780 C   0  0  0  0  0  0  0  0  0  0  0  0
   29.4560   48.5570   -4.8940 N   0  0  0  0  0  0  0  0  0  0  0  0
   29.3710   47.5140   -7.1050 N   0  0  0  0  0  0  0  0  0  0  0  0
   29.2590   48.1380   -8.3420 C   0  0  0  0  0  0  0  0  0  0  0  0
   29.3590   47.3270   -4.1280 C   0  0  0  0  0  0  0  0  0  0  0  0
  1  2  1  0
  2  3  1  0
  1  4  1  0
  4  5  1  0
  4  6  2  0
  6  7  1  0
  5  8  1  0
  7  8  2  0
  3  9  1  0
  3 10  2  0
  9 11  2  0
 10 12  1  0
 10 13  1  0
 11 14  1  0
 11 15  1  0
 12 15  1  0
 12 16  2  0
 13 17  2  0
 16 17  1  0
 15 18  1  0
M  END
