mac-x0123-mac-x0397
     RDKit          3D

 15 17  0  0  0  0  0  0  0  0999 V2000
   28.8490   51.6440   -7.5100 N   0  0  0  0  0  0  0  0  0  0  0  0
   28.6640   52.1820   -6.1620 C   0  0  2  0  0  0  0  0  0  0  0  0
   28.6600   53.7740   -6.0470 C   0  0  1  0  0  0  0  0  0  0  0  0
   29.6470   51.5930   -5.2460 N   0  0  0  0  0  0  0  0  0  0  0  0
   27.3760   54.3200   -6.5260 N   0  0  0  0  0  0  0  0  0  0  0  0
   29.5030   52.1110   -3.9100 C   0  0  2  0  0  0  0  0  0  0  0  0
   28.9650   54.2800   -4.5830 C   0  0  1  0  0  0  0  0  0  0  0  0
   29.6540   54.5500   -6.8450 C   0  0  0  0  0  0  0  0  0  0  0  0
   29.5540   50.1360   -5.0530 N   0  0  0  0  0  0  0  0  0  0  0  0
   29.9170   53.4770   -3.8010 N   0  0  0  0  0  0  0  0  0  0  0  0
   29.4910   55.7120   -4.8080 C   0  0  0  0  0  0  0  0  0  0  0  0
   30.1010   55.6210   -6.1670 C   0  0  0  0  0  0  0  0  0  0  0  0
   30.3290   51.2560   -3.1160 N   0  0  0  0  0  0  0  0  0  0  0  0
   30.0300   49.9330   -3.6620 C   0  0  0  0  0  0  0  0  0  0  0  0
   29.9940   51.4860   -1.4170 Cl  0  0  0  0  0  0  0  0  0  0  0  0
  2  1  1  6
  2  3  1  0
  2  4  1  0
  3  5  1  6
  4  6  1  0
  3  7  1  0
  3  8  1  0
  4  9  1  0
  6 10  1  6
  7 10  1  0
  7 11  1  6
  8 12  2  0
 11 12  1  0
  6 13  1  0
  9 14  1  0
 13 14  1  0
 13 15  1  0
M  END
