mac-x0159-mac-x0392
     RDKit          3D

 20 22  0  0  0  0  0  0  0  0999 V2000
   28.8060   51.7230   -6.5760 N   0  0  0  0  0  0  0  0  0  0  0  0
   28.5450   50.5560   -5.7440 C   0  0  1  0  0  0  0  0  0  0  0  0
   28.2890   49.2880   -6.5900 C   0  0  2  0  0  0  0  0  0  0  0  0
   29.6730   50.5280   -4.8440 N   0  0  0  0  0  0  0  0  0  0  0  0
   29.8610   49.2550   -4.1650 C   0  0  0  0  0  0  0  0  0  0  0  0
   29.3150   48.2020   -6.3020 C   0  0  1  0  0  0  0  0  0  0  0  0
   28.3370   49.3230   -8.0760 N   0  0  0  0  0  0  0  0  0  0  0  0
   30.5010   48.4110   -7.1040 N   0  0  0  0  0  0  0  0  0  0  0  0
   29.4880   48.0310   -4.8690 N   0  0  0  0  0  0  0  0  0  0  0  0
   28.7410   47.1730   -7.1260 N   0  0  0  0  0  0  0  0  0  0  0  0
   28.3940   47.8770   -8.3580 C   0  0  0  0  0  0  0  0  0  0  0  0
   29.9890   46.7980   -4.4720 C   0  0  0  0  0  0  0  0  0  0  0  0
   31.0830   46.4010   -5.0950 C   0  0  0  0  0  0  0  0  0  0  0  0
   29.3240   45.9860   -3.4810 C   0  0  0  0  0  0  0  0  0  0  0  0
   31.6520   45.1990   -4.8360 O   0  0  0  0  0  0  0  0  0  0  0  0
   28.8820   44.7000   -3.6920 C   0  0  0  0  0  0  0  0  0  0  0  0
   29.0840   46.4950   -2.2060 N   0  0  0  0  0  0  0  0  0  0  0  0
   28.4620   45.5830   -1.4830 C   0  0  0  0  0  0  0  0  0  0  0  0
   28.1400   44.0950   -2.2760 S   0  0  0  0  0  0  0  0  0  0  0  0
   28.0370   45.7700   -0.0710 C   0  0  0  0  0  0  0  0  0  0  0  0
  2  1  1  6
  2  3  1  0
  2  4  1  0
  4  5  1  0
  3  6  1  0
  3  7  1  6
  6  8  1  6
  5  9  1  0
  6  9  1  0
  6 10  1  0
  7 11  1  0
 10 11  1  0
  9 12  1  0
 12 13  2  3
 12 14  1  0
 13 15  1  0
 14 16  2  0
 14 17  1  0
 17 18  2  0
 16 19  1  0
 18 19  1  0
 18 20  1  0
M  END
