mac-x0396-mac-x0321
     RDKit          3D

 18 19  0  0  0  0  0  0  0  0999 V2000
   29.0170   50.3440   -4.2590 N   0  0  0  0  0  0  0  0  0  0  0  0
   30.0310   51.2820   -3.8980 C   0  0  0  0  0  0  0  0  0  0  0  0
   31.0570   51.0720   -3.2340 O   0  0  0  0  0  0  0  0  0  0  0  0
   28.8730   49.8370   -5.5790 C   0  0  0  0  0  0  0  0  0  0  0  0
   29.8580   52.6850   -4.3860 C   0  0  0  0  0  0  0  0  0  0  0  0
   29.7040   49.0230   -4.8640 C   0  0  0  0  0  0  0  0  0  0  0  0
   28.0910   50.9330   -5.4870 C   0  0  0  0  0  0  0  0  0  0  0  0
   30.4250   47.8160   -5.3700 C   0  0  0  0  0  0  0  0  0  0  0  0
   29.6950   53.7680   -3.5250 C   0  0  0  0  0  0  0  0  0  0  0  0
   29.8580   52.9480   -5.7580 C   0  0  0  0  0  0  0  0  0  0  0  0
   28.1430   51.4080   -4.1680 C   0  0  0  0  0  0  0  0  0  0  0  0
   29.7410   49.5190   -3.5410 C   0  0  0  0  0  0  0  0  0  0  0  0
   30.1260   47.4960   -6.6440 O   0  0  0  0  0  0  0  0  0  0  0  0
   31.2220   47.1480   -4.7290 O   0  0  0  0  0  0  0  0  0  0  0  0
   29.5380   55.0530   -3.9420 N   0  0  0  0  0  0  0  0  0  0  0  0
   29.6980   54.2550   -6.2130 C   0  0  0  0  0  0  0  0  0  0  0  0
   28.9590   50.6990   -3.2070 C   0  0  0  0  0  0  0  0  0  0  0  0
   29.5430   55.2640   -5.2760 C   0  0  0  0  0  0  0  0  0  0  0  0
  1  2  1  0
  2  3  2  0
  1  4  1  0
  2  5  1  0
  4  6  2  0
  4  7  1  0
  6  8  1  0
  5  9  2  0
  5 10  1  0
  7 11  2  0
  6 12  1  0
  8 13  1  0
  8 14  2  0
  9 15  1  0
 10 16  2  0
 11 17  1  0
 12 17  2  0
 15 18  2  0
 16 18  1  0
M  END
