mac-x0348-mac-x0417
     RDKit          3D

 25 28  0  0  0  0  0  0  0  0999 V2000
   27.8750   44.7800   -1.3610 C   0  0  0  0  0  0  0  0  0  0  0  0
   29.0180   45.5370   -1.8200 N   0  0  0  0  0  0  0  0  0  0  0  0
   29.6060   45.3980   -3.0490 C   0  0  0  0  0  0  0  0  0  0  0  0
   29.6720   46.5020   -1.0850 C   0  0  0  0  0  0  0  0  0  0  0  0
   30.6640   46.2840   -3.1310 C   0  0  0  0  0  0  0  0  0  0  0  0
   30.7090   46.9900   -1.8840 C   0  0  0  0  0  0  0  0  0  0  0  0
   29.4360   46.9880    0.2130 C   0  0  0  0  0  0  0  0  0  0  0  0
   31.5780   46.4600   -4.3110 C   0  0  0  0  0  0  0  0  0  0  0  0
   31.5420   48.0030   -1.3630 C   0  0  0  0  0  0  0  0  0  0  0  0
   30.2780   47.9890    0.7010 C   0  0  0  0  0  0  0  0  0  0  0  0
   32.4350   45.2130   -4.5950 C   0  0  1  0  0  0  0  0  0  0  0  0
   31.3170   48.4920   -0.0710 C   0  0  0  0  0  0  0  0  0  0  0  0
   32.8700   45.1570   -6.0510 C   0  0  0  0  0  0  0  0  0  0  0  0
   33.6170   45.0680   -3.6850 C   0  0  0  0  0  0  0  0  0  0  0  0
   33.1300   44.0880   -6.6060 O   0  0  0  0  0  0  0  0  0  0  0  0
   32.9920   46.3940   -6.8680 N   0  0  0  0  0  0  0  0  0  0  0  0
   34.1810   43.8640   -3.4860 N   0  0  0  0  0  0  0  0  0  0  0  0
   34.2880   46.0780   -2.9380 C   0  0  0  0  0  0  0  0  0  0  0  0
   32.9670   46.1930   -8.0890 O   0  0  0  0  0  0  0  0  0  0  0  0
   35.2280   44.0740   -2.6040 O   0  0  0  0  0  0  0  0  0  0  0  0
   35.2910   45.3900   -2.2760 C   0  0  0  0  0  0  0  0  0  0  0  0
   34.1780   47.4640   -2.7350 C   0  0  0  0  0  0  0  0  0  0  0  0
   36.2110   45.9780   -1.4120 C   0  0  0  0  0  0  0  0  0  0  0  0
   35.0890   48.0890   -1.8710 C   0  0  0  0  0  0  0  0  0  0  0  0
   36.0870   47.3570   -1.2210 C   0  0  0  0  0  0  0  0  0  0  0  0
  1  2  1  0
  2  3  1  0
  2  4  1  0
  3  5  2  0
  4  6  2  0
  5  6  1  0
  4  7  1  0
  5  8  1  0
  6  9  1  0
  7 10  2  0
 11  8  1  6
  9 12  2  0
 10 12  1  0
 11 13  1  0
 11 14  1  0
 13 15  2  0
 13 16  1  0
 14 17  2  0
 14 18  1  0
 16 19  2  0
 17 20  1  0
 18 21  2  0
 20 21  1  0
 18 22  1  0
 21 23  1  0
 22 24  2  0
 23 25  2  0
 24 25  1  0
M  END
