mac-x0319-mac-x0223
     RDKit          3D

 13 13  0  0  0  0  0  0  0  0999 V2000
   34.0890   45.9600   -6.6850 O   0  0  0  0  0  0  0  0  0  0  0  0
   32.8470   45.6970   -6.2290 C   0  0  0  0  0  0  0  0  0  0  0  0
   31.8860   45.8710   -6.9590 O   0  0  0  0  0  0  0  0  0  0  0  0
   32.8700   45.2030   -4.8010 C   0  0  0  0  0  0  0  0  0  0  0  0
   31.6040   45.4730   -4.0150 C   0  0  0  0  0  0  0  0  0  0  0  0
   30.5580   44.5330   -4.0160 C   0  0  0  0  0  0  0  0  0  0  0  0
   31.4480   46.6590   -3.2680 C   0  0  0  0  0  0  0  0  0  0  0  0
   29.3850   44.7750   -3.2870 C   0  0  0  0  0  0  0  0  0  0  0  0
   30.2640   46.8780   -2.5460 C   0  0  0  0  0  0  0  0  0  0  0  0
   28.4090   43.8100   -3.3360 O   0  0  0  0  0  0  0  0  0  0  0  0
   30.0350   48.0000   -1.7970 O   0  0  0  0  0  0  0  0  0  0  0  0
   29.2440   45.9430   -2.5570 C   0  0  0  0  0  0  0  0  0  0  0  0
   27.3780   44.1950   -2.3790 O   0  0  0  0  0  0  0  0  0  0  0  0
  1  2  1  0
  2  3  2  0
  2  4  1  0
  4  5  1  0
  5  6  2  0
  5  7  1  0
  6  8  1  0
  7  9  2  0
  8 10  1  0
  9 11  1  0
  8 12  2  0
  9 12  1  0
 10 13  1  0
M  END
