mac-x0305-mac-x0213
     RDKit          3D

 20 22  0  0  0  0  0  0  0  0999 V2000
   32.2310   47.9440   -7.2780 O   0  0  0  0  0  0  0  0  0  0  0  0
   31.1870   47.8430   -6.3610 C   0  0  0  0  0  0  0  0  0  0  0  0
   30.9950   46.6720   -5.7210 C   0  0  0  0  0  0  0  0  0  0  0  0
   30.4090   49.0770   -6.2090 C   0  0  0  0  0  0  0  0  0  0  0  0
   31.8950   45.6440   -6.0550 O   0  0  0  0  0  0  0  0  0  0  0  0
   29.1520   49.2440   -6.8060 C   0  0  0  0  0  0  0  0  0  0  0  0
   30.9890   50.0480   -5.4470 N   0  0  0  0  0  0  0  0  0  0  0  0
   29.9400   46.2980   -4.6840 C   0  0  0  0  0  0  0  0  0  0  0  0
   28.5870   48.2570   -7.5670 O   0  0  0  0  0  0  0  0  0  0  0  0
   28.4710   50.4440   -6.6140 C   0  0  0  0  0  0  0  0  0  0  0  0
   30.3020   51.1960   -5.2830 C   0  0  0  0  0  0  0  0  0  0  0  0
   29.9680   47.2280   -3.4440 C   0  0  0  0  0  0  0  0  0  0  0  0
   29.9200   44.8400   -4.1600 C   0  0  0  0  0  0  0  0  0  0  0  0
   29.0570   51.4390   -5.8370 C   0  0  0  0  0  0  0  0  0  0  0  0
   29.5360   46.3290   -2.3290 C   0  0  0  0  0  0  0  0  0  0  0  0
   29.5090   44.9930   -2.7300 C   0  0  0  0  0  0  0  0  0  0  0  0
   29.1900   46.6950   -1.0390 C   0  0  0  0  0  0  0  0  0  0  0  0
   29.1350   43.9910   -1.8490 C   0  0  0  0  0  0  0  0  0  0  0  0
   28.8110   45.6930   -0.1430 C   0  0  0  0  0  0  0  0  0  0  0  0
   28.7840   44.3500   -0.5450 C   0  0  0  0  0  0  0  0  0  0  0  0
  1  2  1  0
  2  3  2  3
  2  4  1  0
  3  5  1  0
  4  6  2  0
  4  7  1  0
  3  8  1  0
  6  9  1  0
  6 10  1  0
  7 11  2  0
  8 12  1  0
  8 13  1  0
 10 14  2  0
 11 14  1  0
 12 15  1  0
 13 16  1  0
 15 16  2  0
 15 17  1  0
 16 18  1  0
 17 19  2  0
 18 20  2  0
 19 20  1  0
M  END
