mac-x0224-mac-x0361
     RDKit          3D

 14 15  0  0  0  0  0  0  0  0999 V2000
   28.5070   52.4920   -5.8410 C   0  0  0  0  0  0  0  0  0  0  0  0
   28.7180   51.1320   -7.0310 S   0  0  0  0  0  0  0  0  0  0  0  0
   29.3860   50.0490   -5.8110 C   0  0  0  0  0  0  0  0  0  0  0  0
   29.3980   52.1470   -4.6690 C   0  0  0  0  0  0  0  0  0  0  0  0
   29.8350   52.9850   -3.8750 O   0  0  0  0  0  0  0  0  0  0  0  0
   29.7020   50.6740   -4.6030 C   0  0  0  0  0  0  0  0  0  0  0  0
   29.5990   48.6890   -5.9940 C   0  0  0  0  0  0  0  0  0  0  0  0
   30.2350   49.9220   -3.5370 C   0  0  0  0  0  0  0  0  0  0  0  0
   30.1360   47.9090   -4.9630 C   0  0  0  0  0  0  0  0  0  0  0  0
   30.4470   48.5300   -3.7330 C   0  0  0  0  0  0  0  0  0  0  0  0
   30.9680   47.7660   -2.7170 O   0  0  0  0  0  0  0  0  0  0  0  0
   30.3350   46.4540   -5.2780 C   0  0  0  0  0  0  0  0  0  0  0  0
   30.1310   46.0010   -6.3960 O   0  0  0  0  0  0  0  0  0  0  0  0
   30.7610   45.6790   -4.2630 O   0  0  0  0  0  0  0  0  0  0  0  0
  1  2  1  0
  2  3  1  0
  1  4  1  0
  4  5  2  0
  3  6  2  0
  4  6  1  0
  3  7  1  0
  6  8  1  0
  7  9  2  0
  8 10  2  0
  9 10  1  0
 10 11  1  0
  9 12  1  0
 12 13  2  0
 12 14  1  0
M  END
