mac-x0398-mac-x0277
     RDKit          3D

 24 25  0  0  0  0  0  0  0  0999 V2000
   29.7740   54.2730   -7.0020 N   0  0  0  0  0  0  0  0  0  0  0  0
   29.5530   53.2180   -6.1150 C   0  0  0  0  0  0  0  0  0  0  0  0
   29.1660   51.9610   -6.5920 C   0  0  0  0  0  0  0  0  0  0  0  0
   29.7140   53.3960   -4.7380 C   0  0  0  0  0  0  0  0  0  0  0  0
   29.4920   52.3390   -3.8520 C   0  0  0  0  0  0  0  0  0  0  0  0
   28.9410   50.8960   -5.7120 C   0  0  0  0  0  0  0  0  0  0  0  0
   29.6740   52.6070   -2.5230 O   0  0  0  0  0  0  0  0  0  0  0  0
   29.1040   51.0830   -4.3310 C   0  0  0  0  0  0  0  0  0  0  0  0
   28.8680   49.9710   -3.3790 C   0  0  0  0  0  0  0  0  0  0  0  0
   29.5480   49.8460   -2.2940 N   0  0  0  0  0  0  0  0  0  0  0  0
   27.8920   49.1150   -3.7380 O   0  0  0  0  0  0  0  0  0  0  0  0
   29.2260   48.7100   -1.4170 C   0  0  0  0  0  0  0  0  0  0  0  0
   30.4540   47.8020   -1.2470 C   0  0  0  0  0  0  0  0  0  0  0  0
   30.3350   46.4760   -1.9720 C   0  0  0  0  0  0  0  0  0  0  0  0
   31.2450   46.2040   -3.0120 C   0  0  0  0  0  0  0  0  0  0  0  0
   29.3670   45.5100   -1.6610 C   0  0  0  0  0  0  0  0  0  0  0  0
   28.2010   45.7380   -0.4030 Cl  0  0  0  0  0  0  0  0  0  0  0  0
   31.2020   44.9980   -3.7320 C   0  0  0  0  0  0  0  0  0  0  0  0
   29.3150   44.3080   -2.3720 C   0  0  0  0  0  0  0  0  0  0  0  0
   32.1940   44.7250   -4.8440 C   0  0  0  0  0  0  0  0  0  0  0  0
   30.2240   44.0530   -3.3990 C   0  0  0  0  0  0  0  0  0  0  0  0
   32.2230   45.7520   -5.9600 C   0  0  0  0  0  0  0  0  0  0  0  0
   33.2750   46.6050   -5.8510 O   0  0  0  0  0  0  0  0  0  0  0  0
   31.4250   45.8450   -6.8790 O   0  0  0  0  0  0  0  0  0  0  0  0
  1  2  1  0
  2  3  2  0
  2  4  1  0
  4  5  2  0
  3  6  1  0
  5  7  1  0
  5  8  1  0
  6  8  2  0
  8  9  1  0
  9 10  2  3
  9 11  1  0
 10 12  1  0
 12 13  1  0
 13 14  1  0
 14 15  2  0
 14 16  1  0
 16 17  1  0
 15 18  1  0
 16 19  2  0
 18 20  1  0
 18 21  2  0
 19 21  1  0
 20 22  1  0
 22 23  1  0
 22 24  2  0
M  END
