mac-x0283-mac-x0415
     RDKit          3D

 26 29  0  0  0  0  0  0  0  0999 V2000
   28.7550   54.4230   -6.7830 N   0  0  0  0  0  0  0  0  0  0  0  0
   29.1070   53.8140   -5.6310 C   0  0  0  0  0  0  0  0  0  0  0  0
   29.4370   54.4600   -4.5100 N   0  0  0  0  0  0  0  0  0  0  0  0
   29.1680   52.4080   -5.4610 C   0  0  0  0  0  0  0  0  0  0  0  0
   29.7220   53.4760   -3.5770 O   0  0  0  0  0  0  0  0  0  0  0  0
   29.5610   52.2470   -4.1420 C   0  0  0  0  0  0  0  0  0  0  0  0
   28.9420   51.2610   -6.2420 C   0  0  0  0  0  0  0  0  0  0  0  0
   29.7570   51.0140   -3.5020 C   0  0  0  0  0  0  0  0  0  0  0  0
   29.1260   50.0070   -5.6510 C   0  0  0  0  0  0  0  0  0  0  0  0
   30.1810   50.8910   -2.0600 C   0  0  0  0  0  0  0  0  0  0  0  0
   29.5230   49.8830   -4.3140 C   0  0  0  0  0  0  0  0  0  0  0  0
   31.1740   49.7550   -1.8060 C   0  0  0  0  0  0  0  0  0  0  0  0
   30.6010   48.7830   -0.9090 O   0  0  0  0  0  0  0  0  0  0  0  0
   30.2550   47.6370   -1.5950 C   0  0  0  0  0  0  0  0  0  0  0  0
   28.8210   47.3480   -1.7330 C   0  0  0  0  0  0  0  0  0  0  0  0
   31.1870   46.8170   -2.1330 C   0  0  0  0  0  0  0  0  0  0  0  0
   30.7100   45.6620   -2.8460 C   0  0  0  0  0  0  0  0  0  0  0  0
   28.3990   46.1210   -2.1130 C   0  0  0  0  0  0  0  0  0  0  0  0
   31.2310   44.9920   -3.8780 C   0  0  0  0  0  0  0  0  0  0  0  0
   29.4210   45.0670   -2.3740 C   0  0  1  0  0  0  0  0  0  0  0  0
   32.4820   45.1290   -4.6660 C   0  0  0  0  0  0  0  0  0  0  0  0
   30.1750   43.9890   -4.1070 C   0  0  0  0  0  0  0  0  0  0  0  0
   29.1240   43.9900   -3.3330 N   0  0  0  0  0  0  0  0  0  0  0  0
   32.3640   45.9860   -5.9040 C   0  0  0  0  0  0  0  0  0  0  0  0
   33.4650   46.7440   -6.0910 O   0  0  0  0  0  0  0  0  0  0  0  0
   31.4410   46.0490   -6.6940 O   0  0  0  0  0  0  0  0  0  0  0  0
  1  2  1  0
  2  3  2  0
  2  4  1  0
  3  5  1  0
  4  6  2  0
  5  6  1  0
  4  7  1  0
  6  8  1  0
  7  9  2  0
  8 10  1  0
  8 11  2  0
  9 11  1  0
 10 12  1  0
 12 13  1  0
 13 14  1  0
 14 15  1  0
 14 16  2  0
 16 17  1  0
 15 18  2  0
 17 19  2  0
 17 20  1  0
 20 18  1  6
 19 21  1  0
 19 22  1  0
 20 23  1  0
 22 23  2  0
 21 24  1  0
 24 25  1  0
 24 26  2  0
M  END
