mac-x0373-mac-x0271
     RDKit          3D

 22 24  0  0  0  0  0  0  0  0999 V2000
   30.7790   46.0850   -6.6420 O   0  0  0  0  0  0  0  0  0  0  0  0
   30.2130   46.7690   -5.6230 C   0  0  0  0  0  0  0  0  0  0  0  0
   29.1840   46.3650   -5.1060 O   0  0  0  0  0  0  0  0  0  0  0  0
   30.9830   48.0370   -5.2370 C   0  0  2  0  0  0  0  0  0  0  0  0
   32.2570   47.8300   -4.4260 C   0  0  0  0  0  0  0  0  0  0  0  0
   30.2550   49.4220   -5.0520 C   0  0  2  0  0  0  0  0  0  0  0  0
   32.6040   46.6910   -3.6770 C   0  0  0  0  0  0  0  0  0  0  0  0
   33.1540   48.9070   -4.4640 C   0  0  0  0  0  0  0  0  0  0  0  0
   29.1410   49.7320   -4.0570 C   0  0  0  0  0  0  0  0  0  0  0  0
   29.8230   49.9860   -6.3790 C   0  0  0  0  0  0  0  0  0  0  0  0
   33.8280   46.6520   -2.9960 C   0  0  0  0  0  0  0  0  0  0  0  0
   34.3610   48.8650   -3.7870 C   0  0  0  0  0  0  0  0  0  0  0  0
   28.5150   50.9550   -4.1190 C   0  0  0  0  0  0  0  0  0  0  0  0
   29.2180   51.1770   -6.4400 C   0  0  0  0  0  0  0  0  0  0  0  0
   34.7020   47.7360   -3.0530 C   0  0  0  0  0  0  0  0  0  0  0  0
   28.9320   51.9890   -5.1830 C   0  0  1  0  0  0  0  0  0  0  0  0
   27.9370   53.0830   -5.5820 C   0  0  0  0  0  0  0  0  0  0  0  0
   30.2040   52.7120   -4.6540 C   0  0  0  0  0  0  0  0  0  0  0  0
   28.0690   54.3930   -5.2530 C   0  0  0  0  0  0  0  0  0  0  0  0
   29.9650   53.9350   -3.9030 O   0  0  0  0  0  0  0  0  0  0  0  0
   29.1860   54.8960   -4.4450 C   0  0  0  0  0  0  0  0  0  0  0  0
   29.3720   56.1020   -4.2780 O   0  0  0  0  0  0  0  0  0  0  0  0
  1  2  1  0
  2  3  2  0
  4  2  1  1
  4  5  1  0
  4  6  1  0
  5  7  2  0
  5  8  1  0
  6  9  1  1
  6 10  1  0
  7 11  1  0
  8 12  2  0
  9 13  2  0
 10 14  2  0
 11 15  2  0
 12 15  1  0
 16 13  1  1
 14 16  1  0
 16 17  1  0
 16 18  1  0
 17 19  2  0
 18 20  1  0
 19 21  1  0
 20 21  1  0
 21 22  2  0
M  END
