mac-x0223-mac-x1493
     RDKit          3D

 26 28  0  0  0  0  0  0  0  0999 V2000
   27.3430   43.4760   -2.0520 C   0  0  0  0  0  0  0  0  0  0  0  0
   28.0880   44.4810   -1.3740 O   0  0  0  0  0  0  0  0  0  0  0  0
   29.0650   45.1120   -2.1020 C   0  0  0  0  0  0  0  0  0  0  0  0
   29.0210   46.5120   -2.0600 C   0  0  0  0  0  0  0  0  0  0  0  0
   30.0620   44.4840   -2.8530 C   0  0  0  0  0  0  0  0  0  0  0  0
   28.0350   47.1200   -1.3160 O   0  0  0  0  0  0  0  0  0  0  0  0
   29.9550   47.2930   -2.7570 C   0  0  0  0  0  0  0  0  0  0  0  0
   31.0120   45.2420   -3.5610 C   0  0  0  0  0  0  0  0  0  0  0  0
   32.0910   44.5500   -4.3710 C   0  0  0  0  0  0  0  0  0  0  0  0
   29.9540   48.6960   -2.7500 N   0  0  0  0  0  0  0  0  0  0  0  0
   30.9450   46.6430   -3.5030 C   0  0  0  0  0  0  0  0  0  0  0  0
   32.5450   45.2920   -5.6090 C   0  0  0  0  0  0  0  0  0  0  0  0
   29.6980   49.3480   -3.8320 C   0  0  0  0  0  0  0  0  0  0  0  0
   33.5050   46.0340   -5.7330 O   0  0  0  0  0  0  0  0  0  0  0  0
   31.7420   45.0510   -6.6680 O   0  0  0  0  0  0  0  0  0  0  0  0
   29.4390   48.6270   -4.9380 O   0  0  0  0  0  0  0  0  0  0  0  0
   29.6270   50.7770   -4.1360 C   0  0  0  0  0  0  0  0  0  0  0  0
   29.0410   51.2240   -5.3170 C   0  0  0  0  0  0  0  0  0  0  0  0
   30.1390   51.7190   -3.2630 C   0  0  0  0  0  0  0  0  0  0  0  0
   28.9850   52.5980   -5.5820 C   0  0  0  0  0  0  0  0  0  0  0  0
   30.1030   53.0560   -3.4870 N   0  0  0  0  0  0  0  0  0  0  0  0
   29.5340   53.4850   -4.6280 C   0  0  0  0  0  0  0  0  0  0  0  0
   28.4020   53.0950   -6.7600 C   0  0  0  0  0  0  0  0  0  0  0  0
   29.4780   54.8450   -4.8910 C   0  0  0  0  0  0  0  0  0  0  0  0
   28.3610   54.4670   -6.9970 C   0  0  0  0  0  0  0  0  0  0  0  0
   28.9000   55.3440   -6.0630 C   0  0  0  0  0  0  0  0  0  0  0  0
  1  2  1  0
  2  3  1  0
  3  4  2  0
  3  5  1  0
  4  6  1  0
  4  7  1  0
  5  8  2  0
  8  9  1  0
  7 10  1  0
  7 11  2  0
  8 11  1  0
  9 12  1  0
 10 13  2  3
 12 14  2  0
 12 15  1  0
 13 16  1  0
 13 17  1  0
 17 18  2  0
 17 19  1  0
 18 20  1  0
 19 21  2  0
 20 22  2  0
 21 22  1  0
 20 23  1  0
 22 24  1  0
 23 25  2  0
 24 26  2  0
 25 26  1  0
M  END
