mac-x0341-mac-x0436
     RDKit          3D

 30 33  0  0  0  0  0  0  0  0999 V2000
   27.9020   54.8660   -7.6740 N   0  0  0  0  0  0  0  0  0  0  0  0
   28.3960   53.7890   -7.0190 C   0  0  0  0  0  0  0  0  0  0  0  0
   28.2680   52.6020   -7.5260 N   0  0  0  0  0  0  0  0  0  0  0  0
   29.0170   54.0290   -5.8260 N   0  0  0  0  0  0  0  0  0  0  0  0
   29.3560   53.0290   -4.9590 C   0  0  0  0  0  0  0  0  0  0  0  0
   28.8110   51.5230   -6.8090 C   0  0  0  0  0  0  0  0  0  0  0  0
   29.6400   53.2260   -3.7820 O   0  0  0  0  0  0  0  0  0  0  0  0
   29.3620   51.6890   -5.5390 C   0  0  0  0  0  0  0  0  0  0  0  0
   28.8120   50.2420   -7.3650 C   0  0  0  0  0  0  0  0  0  0  0  0
   29.3620   49.1650   -6.6560 C   0  0  0  0  0  0  0  0  0  0  0  0
   29.9070   50.6390   -4.8300 C   0  0  0  0  0  0  0  0  0  0  0  0
   29.9160   49.3720   -5.3800 C   0  0  0  0  0  0  0  0  0  0  0  0
   30.5310   48.2740   -4.5720 C   0  0  0  0  0  0  0  0  0  0  0  0
   31.9770   48.5950   -4.1330 C   0  0  0  0  0  0  0  0  0  0  0  0
   32.5910   47.3240   -3.8900 N   0  0  0  0  0  0  0  0  0  0  0  0
   33.7630   46.9000   -3.5780 C   0  0  0  0  0  0  0  0  0  0  0  0
   33.9930   45.4010   -3.4160 C   0  0  0  0  0  0  0  0  0  0  0  0
   34.8450   47.7520   -3.3830 N   0  0  0  0  0  0  0  0  0  0  0  0
   32.8470   44.4600   -3.7040 C   0  0  0  0  0  0  0  0  0  0  0  0
   36.0770   47.1670   -2.9530 C   0  0  0  0  0  0  0  0  0  0  0  0
   35.1230   44.8910   -3.0480 N   0  0  0  0  0  0  0  0  0  0  0  0
   32.8230   43.9420   -5.1360 C   0  0  0  0  0  0  0  0  0  0  0  0
   36.1890   45.7620   -2.7950 C   0  0  0  0  0  0  0  0  0  0  0  0
   37.1920   47.9690   -2.6840 C   0  0  0  0  0  0  0  0  0  0  0  0
   32.5870   45.0090   -6.1830 C   0  0  0  0  0  0  0  0  0  0  0  0
   37.3930   45.1990   -2.3770 C   0  0  0  0  0  0  0  0  0  0  0  0
   38.3950   47.3880   -2.2660 C   0  0  0  0  0  0  0  0  0  0  0  0
   33.7160   45.5830   -6.6510 O   0  0  0  0  0  0  0  0  0  0  0  0
   31.4790   45.3250   -6.5930 O   0  0  0  0  0  0  0  0  0  0  0  0
   38.4950   46.0070   -2.1120 C   0  0  0  0  0  0  0  0  0  0  0  0
  1  2  1  0
  2  3  2  0
  2  4  1  0
  4  5  1  0
  3  6  1  0
  5  7  2  0
  5  8  1  0
  6  8  2  0
  6  9  1  0
  9 10  2  0
  8 11  1  0
 10 12  1  0
 11 12  2  0
 12 13  1  0
 13 14  1  0
 14 15  1  0
 15 16  2  3
 16 17  1  0
 16 18  1  0
 17 19  1  0
 18 20  1  0
 17 21  2  0
 19 22  1  0
 20 23  2  0
 21 23  1  0
 20 24  1  0
 22 25  1  0
 23 26  1  0
 24 27  2  0
 25 28  1  0
 25 29  2  0
 26 30  2  0
 27 30  1  0
M  END
