mac-x0373-mac-x0584
     RDKit          3D

 30 34  0  0  0  0  0  0  0  0999 V2000
   32.1880   49.7130   -7.9920 O   0  0  0  0  0  0  0  0  0  0  0  0
   32.1920   48.7680   -7.0300 C   0  0  0  0  0  0  0  0  0  0  0  0
   32.2790   47.5900   -7.3510 O   0  0  0  0  0  0  0  0  0  0  0  0
   32.1030   49.2900   -5.5940 C   0  0  2  0  0  0  0  0  0  0  0  0
   33.3030   48.8730   -4.7450 C   0  0  0  0  0  0  0  0  0  0  0  0
   30.6440   49.2530   -4.9620 C   0  0  1  0  0  0  0  0  0  0  0  0
   33.3530   47.6940   -3.9910 C   0  0  0  0  0  0  0  0  0  0  0  0
   34.4310   49.7180   -4.7100 C   0  0  0  0  0  0  0  0  0  0  0  0
   30.4120   50.5330   -4.1650 C   0  0  0  0  0  0  0  0  0  0  0  0
   29.3240   48.7280   -5.7530 C   0  0  1  0  0  0  0  0  0  0  0  0
   34.4800   47.3680   -3.2320 C   0  0  0  0  0  0  0  0  0  0  0  0
   35.5590   49.3920   -3.9500 C   0  0  0  0  0  0  0  0  0  0  0  0
   29.2060   51.0170   -3.8590 C   0  0  0  0  0  0  0  0  0  0  0  0
   28.0490   49.3160   -5.1230 C   0  0  0  0  0  0  0  0  0  0  0  0
   29.2810   49.1280   -7.2700 C   0  0  0  0  0  0  0  0  0  0  0  0
   29.2280   47.1200   -5.7570 C   0  0  1  0  0  0  0  0  0  0  0  0
   35.5830   48.2160   -3.2110 C   0  0  0  0  0  0  0  0  0  0  0  0
   28.0130   50.3460   -4.2730 C   0  0  0  0  0  0  0  0  0  0  0  0
   29.2640   46.3010   -4.5460 N   0  0  0  0  0  0  0  0  0  0  0  0
   28.0160   46.6320   -6.4350 N   0  0  0  0  0  0  0  0  0  0  0  0
   28.5890   48.1550   -8.1290 N   0  0  0  0  0  0  0  0  0  0  0  0
   30.5290   46.0440   -3.8450 C   0  0  2  0  0  0  0  0  0  0  0  0
   28.1960   46.5190   -3.5720 C   0  0  0  0  0  0  0  0  0  0  0  0
   27.4920   47.5250   -7.4370 C   0  0  0  0  0  0  0  0  0  0  0  0
   31.1920   44.6910   -4.1170 C   0  0  0  0  0  0  0  0  0  0  0  0
   30.1540   46.0950   -2.3510 C   0  0  0  0  0  0  0  0  0  0  0  0
   28.9090   46.9470   -2.3130 C   0  0  0  0  0  0  0  0  0  0  0  0
   31.1700   44.0580   -5.5410 C   0  0  0  0  0  0  0  0  0  0  0  0
   32.7410   44.5330   -4.1720 C   0  0  0  0  0  0  0  0  0  0  0  0
   32.5140   43.3870   -5.1800 C   0  0  0  0  0  0  0  0  0  0  0  0
  1  2  1  0
  2  3  2  0
  4  2  1  6
  4  5  1  0
  4  6  1  0
  5  7  2  0
  5  8  1  0
  6  9  1  6
  6 10  1  0
  7 11  1  0
  8 12  2  0
  9 13  2  0
 10 14  1  1
 10 15  1  0
 10 16  1  0
 11 17  2  0
 12 17  1  0
 13 18  1  0
 14 18  2  0
 16 19  1  1
 16 20  1  0
 15 21  1  0
 19 22  1  0
 19 23  1  0
 20 24  1  0
 21 24  1  0
 22 25  1  6
 22 26  1  0
 23 27  1  0
 26 27  1  0
 25 28  1  0
 25 29  1  0
 28 30  1  0
 29 30  1  0
M  END
