mac-x0345-mac-x0373
     RDKit          3D

 19 20  0  0  0  0  0  0  0  0999 V2000
   28.9360   54.0090   -4.6610 C   0  0  0  0  0  0  0  0  0  0  0  0
   29.3310   52.5610   -4.6640 C   0  0  0  0  0  0  0  0  0  0  0  0
   29.5340   52.0090   -3.4410 N   0  0  0  0  0  0  0  0  0  0  0  0
   29.4810   51.8280   -5.8340 C   0  0  0  0  0  0  0  0  0  0  0  0
   29.2040   52.5710   -7.5540 Br  0  0  0  0  0  0  0  0  0  0  0  0
   29.8530   50.4860   -5.7350 C   0  0  0  0  0  0  0  0  0  0  0  0
   29.8940   50.7140   -3.3500 C   0  0  0  0  0  0  0  0  0  0  0  0
   30.0790   50.2390   -2.0510 N   0  0  0  0  0  0  0  0  0  0  0  0
   30.0690   49.8970   -4.4760 C   0  0  0  0  0  0  0  0  0  0  0  0
   30.4790   48.4300   -4.3240 C   0  0  1  0  0  0  0  0  0  0  0  0
   29.8420   47.5620   -5.4180 C   0  0  0  0  0  0  0  0  0  0  0  0
   31.9760   48.2180   -4.0700 C   0  0  0  0  0  0  0  0  0  0  0  0
   30.7010   47.2910   -6.4360 O   0  0  0  0  0  0  0  0  0  0  0  0
   28.7100   47.1060   -5.4720 O   0  0  0  0  0  0  0  0  0  0  0  0
   32.4960   47.1220   -3.3610 C   0  0  0  0  0  0  0  0  0  0  0  0
   32.8870   49.1710   -4.5690 C   0  0  0  0  0  0  0  0  0  0  0  0
   33.8720   46.9860   -3.1590 C   0  0  0  0  0  0  0  0  0  0  0  0
   34.2610   49.0320   -4.3660 C   0  0  0  0  0  0  0  0  0  0  0  0
   34.7540   47.9390   -3.6600 C   0  0  0  0  0  0  0  0  0  0  0  0
  1  2  1  0
  2  3  2  0
  2  4  1  0
  4  5  1  0
  4  6  2  0
  3  7  1  0
  7  8  1  0
  6  9  1  0
  7  9  2  0
  9 10  1  0
 10 11  1  6
 10 12  1  0
 11 13  1  0
 11 14  2  0
 12 15  2  0
 12 16  1  0
 15 17  1  0
 16 18  2  0
 17 19  2  0
 18 19  1  0
M  END
