mac-x0392-mac-x0587
     RDKit          3D

 17 17  0  0  0  0  0  0  0  0999 V2000
   29.3270   47.2630   -7.3380 N   0  0  0  0  0  0  0  0  0  0  0  0
   29.3060   48.5590   -6.8440 C   0  0  0  0  0  0  0  0  0  0  0  0
   28.9880   49.6250   -7.7160 C   0  0  0  0  0  0  0  0  0  0  0  0
   29.5990   48.7010   -5.5410 C   0  0  0  0  0  0  0  0  0  0  0  0
   30.0290   47.4330   -4.2850 S   0  0  0  0  0  0  0  0  0  0  0  0
   29.5560   50.0430   -5.1280 C   0  0  0  0  0  0  0  0  0  0  0  0
   28.9800   50.8350   -7.2120 N   0  0  0  0  0  0  0  0  0  0  0  0
   30.3080   45.5720   -4.9530 N   0  0  0  0  0  0  0  0  0  0  0  0
   28.6220   46.6350   -4.3750 O   0  0  0  0  0  0  0  0  0  0  0  0
   29.7310   47.8390   -2.4250 C   0  0  0  0  0  0  0  0  0  0  0  0
   32.0290   47.7700   -4.8900 S   0  0  0  0  0  0  0  0  0  0  0  0
   29.2490   51.1060   -5.9560 C   0  0  0  0  0  0  0  0  0  0  0  0
   33.0480   46.4020   -4.8110 C   0  0  0  0  0  0  0  0  0  0  0  0
   30.0710   44.6390   -4.4870 O   0  0  0  0  0  0  0  0  0  0  0  0
   33.7970   45.9130   -5.9790 C   0  0  0  0  0  0  0  0  0  0  0  0
   35.0190   46.2040   -6.1960 O   0  0  0  0  0  0  0  0  0  0  0  0
   33.1920   45.0940   -6.9190 O   0  0  0  0  0  0  0  0  0  0  0  0
  1  2  1  0
  2  3  2  0
  2  4  1  0
  4  5  1  0
  4  6  2  0
  3  7  1  0
  5  8  1  0
  5  9  1  0
  5 10  1  0
  5 11  1  0
  6 12  1  0
  7 12  2  0
 11 13  1  0
  8 14  2  0
 13 15  1  0
 15 16  2  0
 15 17  1  0
M  END
