mac-x0348-mac-x0116
     RDKit          3D

 32 36  0  0  0  0  0  0  0  0999 V2000
   26.8250   44.7490   -0.6340 C   0  0  0  0  0  0  0  0  0  0  0  0
   28.1550   45.0320   -1.1250 N   0  0  0  0  0  0  0  0  0  0  0  0
   28.7440   44.3960   -2.1860 C   0  0  0  0  0  0  0  0  0  0  0  0
   29.0110   45.9740   -0.5990 C   0  0  0  0  0  0  0  0  0  0  0  0
   30.0080   44.9250   -2.3660 C   0  0  0  0  0  0  0  0  0  0  0  0
   30.1850   45.9300   -1.3570 C   0  0  0  0  0  0  0  0  0  0  0  0
   28.8510   46.8600    0.4800 C   0  0  0  0  0  0  0  0  0  0  0  0
   30.9890   44.5100   -3.4220 C   0  0  0  0  0  0  0  0  0  0  0  0
   31.2390   46.8060   -1.0210 C   0  0  0  0  0  0  0  0  0  0  0  0
   29.9100   47.7180    0.7890 C   0  0  0  0  0  0  0  0  0  0  0  0
   31.8870   45.6480   -3.8980 C   0  0  0  0  0  0  0  0  0  0  0  0
   31.0890   47.6920    0.0510 C   0  0  0  0  0  0  0  0  0  0  0  0
   31.6930   45.9470   -5.3590 C   0  0  0  0  0  0  0  0  0  0  0  0
   30.6200   46.5080   -5.7930 N   0  0  0  0  0  0  0  0  0  0  0  0
   32.7100   45.5880   -6.1640 O   0  0  0  0  0  0  0  0  0  0  0  0
   30.5250   46.7660   -7.2360 C   0  0  0  0  0  0  0  0  0  0  0  0
   30.1350   48.1300   -7.5650 N   0  0  0  0  0  0  0  0  0  0  0  0
   29.7360   49.0940   -6.6810 C   0  0  0  0  0  0  0  0  0  0  0  0
   30.1030   48.6780   -8.8210 C   0  0  0  0  0  0  0  0  0  0  0  0
   29.6160   49.0000   -5.3460 N   0  0  0  0  0  0  0  0  0  0  0  0
   29.4760   50.2100   -7.4640 C   0  0  0  0  0  0  0  0  0  0  0  0
   29.7070   49.9360   -8.7990 N   0  0  0  0  0  0  0  0  0  0  0  0
   29.1950   50.1620   -4.8130 C   0  0  0  0  0  0  0  0  0  0  0  0
   29.0410   51.3770   -6.7980 C   0  0  0  0  0  0  0  0  0  0  0  0
   28.7540   52.5550   -7.4990 N   0  0  0  0  0  0  0  0  0  0  0  0
   28.9070   51.3200   -5.4440 N   0  0  0  0  0  0  0  0  0  0  0  0
   29.1790   53.7870   -6.8410 C   0  0  0  0  0  0  0  0  0  0  0  0
   30.4900   54.3330   -7.3020 C   0  0  0  0  0  0  0  0  0  0  0  0
   31.4480   54.5290   -6.3460 O   0  0  0  0  0  0  0  0  0  0  0  0
   30.9800   54.7050   -8.5380 C   0  0  0  0  0  0  0  0  0  0  0  0
   32.3070   55.1510   -8.3270 C   0  0  0  0  0  0  0  0  0  0  0  0
   32.5430   55.0230   -6.9790 C   0  0  0  0  0  0  0  0  0  0  0  0
  1  2  1  0
  2  3  1  0
  2  4  1  0
  3  5  2  0
  4  6  2  0
  5  6  1  0
  4  7  1  0
  5  8  1  0
  6  9  1  0
  7 10  2  0
  8 11  1  0
  9 12  2  0
 10 12  1  0
 11 13  1  0
 13 14  2  3
 13 15  1  0
 14 16  1  0
 16 17  1  0
 17 18  1  0
 17 19  1  0
 18 20  2  0
 18 21  1  0
 19 22  2  0
 21 22  1  0
 20 23  1  0
 21 24  2  0
 24 25  1  0
 23 26  2  0
 24 26  1  0
 25 27  1  0
 27 28  1  0
 28 29  1  0
 28 30  2  0
 30 31  1  0
 29 32  1  0
 31 32  2  0
M  END
