mac-x0345-mac-x0142
     RDKit          3D

 24 28  0  0  0  0  0  0  0  0999 V2000
   28.8060   54.6110   -3.7550 C   0  0  0  0  0  0  0  0  0  0  0  0
   28.9690   53.2210   -4.3210 C   0  0  0  0  0  0  0  0  0  0  0  0
   29.4460   52.2790   -3.4150 N   0  0  0  0  0  0  0  0  0  0  0  0
   28.6810   52.8910   -5.6010 C   0  0  0  0  0  0  0  0  0  0  0  0
   28.0430   54.0380   -6.9200 Br  0  0  0  0  0  0  0  0  0  0  0  0
   28.9080   51.4650   -5.9740 C   0  0  0  0  0  0  0  0  0  0  0  0
   29.6800   50.9540   -3.6980 C   0  0  0  0  0  0  0  0  0  0  0  0
   30.1550   50.1580   -2.6850 N   0  0  0  0  0  0  0  0  0  0  0  0
   29.4290   50.5120   -4.9440 C   0  0  0  0  0  0  0  0  0  0  0  0
   28.7140   50.8790   -7.1290 N   0  0  0  0  0  0  0  0  0  0  0  0
   29.0930   49.5310   -6.9260 C   0  0  0  0  0  0  0  0  0  0  0  0
   29.5320   49.2440   -5.6390 C   0  0  0  0  0  0  0  0  0  0  0  0
   29.0140   48.6530   -7.9270 N   0  0  0  0  0  0  0  0  0  0  0  0
   29.9180   47.9520   -5.3740 C   0  0  0  0  0  0  0  0  0  0  0  0
   30.3760   47.5830   -4.0910 N   0  0  0  0  0  0  0  0  0  0  0  0
   29.8530   47.0330   -6.3590 N   0  0  0  0  0  0  0  0  0  0  0  0
   29.4090   47.4220   -7.5740 C   0  0  0  0  0  0  0  0  0  0  0  0
   31.7180   48.1340   -3.8090 C   0  0  0  0  0  0  0  0  0  0  0  0
   30.2100   46.1520   -3.7710 C   0  0  0  0  0  0  0  0  0  0  0  0
   31.3810   45.2830   -4.1950 C   0  0  0  0  0  0  0  0  0  0  0  0
   32.8340   47.2890   -4.4090 C   0  0  0  0  0  0  0  0  0  0  0  0
   31.2230   43.7730   -4.2040 C   0  0  0  0  0  0  0  0  0  0  0  0
   31.2440   44.5230   -5.5010 C   0  0  0  0  0  0  0  0  0  0  0  0
   32.7400   45.8650   -3.8880 C   0  0  0  0  0  0  0  0  0  0  0  0
  1  2  1  0
  2  3  1  0
  2  4  2  0
  4  5  1  0
  4  6  1  0
  3  7  1  0
  7  8  1  0
  6  9  1  0
  7  9  2  0
  6 10  2  0
 10 11  1  0
  9 12  1  0
 11 12  2  0
 11 13  1  0
 12 14  1  0
 14 15  1  0
 14 16  2  0
 13 17  2  0
 16 17  1  0
 15 18  1  0
 15 19  1  0
 20 19  1  0
 18 21  1  0
 20 22  1  0
 20 23  1  0
 22 23  1  0
 20 24  1  0
 21 24  1  0
M  END
