mac-x0115-mac-x0344
     RDKit          3D

 27 29  0  0  0  0  0  0  0  0999 V2000
   28.1680   45.8010   -1.8130 C   0  0  0  0  0  0  0  0  0  0  0  0
   29.0610   44.7150   -2.4080 C   0  0  0  0  0  0  0  0  0  0  0  0
   28.2110   43.5540   -2.9120 C   0  0  0  0  0  0  0  0  0  0  0  0
   29.7790   45.3170   -3.4960 O   0  0  0  0  0  0  0  0  0  0  0  0
   30.9420   44.5990   -3.9350 C   0  0  0  0  0  0  0  0  0  0  0  0
   31.6650   45.2640   -5.1480 C   0  0  2  0  0  0  0  0  0  0  0  0
   32.1180   44.1390   -5.9480 O   0  0  0  0  0  0  0  0  0  0  0  0
   33.1260   45.8930   -4.9050 C   0  0  0  0  0  0  0  0  0  0  0  0
   30.7370   45.9850   -6.1130 N   0  0  0  0  0  0  0  0  0  0  0  0
   33.6480   46.5350   -5.8250 O   0  0  0  0  0  0  0  0  0  0  0  0
   33.7480   45.6760   -3.6730 N   0  0  0  0  0  0  0  0  0  0  0  0
   30.1910   45.3330   -7.2550 C   0  0  0  0  0  0  0  0  0  0  0  0
   30.2690   47.2820   -5.8830 C   0  0  0  0  0  0  0  0  0  0  0  0
   30.3330   43.7370   -7.7400 S   0  0  0  0  0  0  0  0  0  0  0  0
   29.4230   46.1170   -8.1090 N   0  0  0  0  0  0  0  0  0  0  0  0
   30.0860   48.1920   -7.0570 C   0  0  1  0  0  0  0  0  0  0  0  0
   29.9370   47.9080   -4.7530 C   0  0  0  0  0  0  0  0  0  0  0  0
   34.9830   46.2040   -3.1930 C   0  0  0  0  0  0  0  0  0  0  0  0
   29.2560   47.4900   -8.1100 C   0  0  0  0  0  0  0  0  0  0  0  0
   29.5300   49.4500   -6.5050 N   0  0  0  0  0  0  0  0  0  0  0  0
   29.5030   49.2170   -5.2250 C   0  0  0  0  0  0  0  0  0  0  0  0
   35.9830   45.4440   -2.5730 C   0  0  0  0  0  0  0  0  0  0  0  0
   35.2050   47.5820   -3.3560 C   0  0  0  0  0  0  0  0  0  0  0  0
   28.5070   48.0300   -8.9190 O   0  0  0  0  0  0  0  0  0  0  0  0
   37.1710   46.0450   -2.1280 C   0  0  0  0  0  0  0  0  0  0  0  0
   36.3920   48.1820   -2.9110 C   0  0  0  0  0  0  0  0  0  0  0  0
   37.3760   47.4120   -2.2960 C   0  0  0  0  0  0  0  0  0  0  0  0
  1  2  1  0
  2  3  1  0
  2  4  1  0
  4  5  1  0
  5  6  1  0
  6  7  1  6
  6  8  1  0
  6  9  1  0
  8 10  2  0
  8 11  1  0
  9 12  1  0
  9 13  1  0
 12 14  2  0
 12 15  1  0
 13 16  1  0
 13 17  2  0
 11 18  1  0
 15 19  1  0
 16 19  1  0
 16 20  1  1
 17 21  1  0
 20 21  2  0
 18 22  2  0
 18 23  1  0
 19 24  2  0
 22 25  1  0
 23 26  2  0
 25 27  2  0
 26 27  1  0
M  END
