mac-x0587-mac-x0567
     RDKit          3D

 18 19  0  0  0  0  0  0  0  0999 V2000
   29.4980   45.5970   -3.4870 C   0  0  0  0  0  0  0  0  0  0  0  0
   30.4600   46.5940   -4.1310 C   0  0  2  0  0  0  0  0  0  0  0  0
   32.2060   46.1190   -3.7670 S   0  0  0  0  0  0  0  0  0  0  0  0
   30.1930   48.0070   -3.5690 C   0  0  0  0  0  0  0  0  0  0  0  0
   33.0590   46.8010   -5.2250 C   0  0  0  0  0  0  0  0  0  0  0  0
   30.5800   48.3010   -2.4340 O   0  0  0  0  0  0  0  0  0  0  0  0
   29.5160   48.9020   -4.3850 N   0  0  0  0  0  0  0  0  0  0  0  0
   33.5410   45.7330   -6.1790 C   0  0  0  0  0  0  0  0  0  0  0  0
   29.5830   50.3480   -4.3040 C   0  0  0  0  0  0  0  0  0  0  0  0
   28.9240   48.5380   -5.6040 C   0  0  0  0  0  0  0  0  0  0  0  0
   34.6700   45.6390   -6.6340 O   0  0  0  0  0  0  0  0  0  0  0  0
   32.6090   44.8260   -6.5400 O   0  0  0  0  0  0  0  0  0  0  0  0
   28.3060   47.5100   -5.8360 O   0  0  0  0  0  0  0  0  0  0  0  0
   29.7750   50.8640   -5.7310 C   0  0  0  0  0  0  0  0  0  0  0  0
   29.2240   49.7320   -6.5950 C   0  0  1  0  0  0  0  0  0  0  0  0
   29.9400   49.4130   -7.9350 C   0  0  0  0  0  0  0  0  0  0  0  0
   28.0510   50.1500   -7.4120 N   0  0  0  0  0  0  0  0  0  0  0  0
   28.6410   49.6090   -8.6100 N   0  0  0  0  0  0  0  0  0  0  0  0
  2  1  1  1
  2  3  1  0
  2  4  1  0
  3  5  1  0
  4  6  2  0
  4  7  1  0
  5  8  1  0
  7  9  1  0
  7 10  1  0
  8 11  2  0
  8 12  1  0
 10 13  2  0
  9 14  1  0
 15 10  1  0
 15 14  1  1
 15 16  1  0
 15 17  1  0
 16 18  1  0
 17 18  1  0
M  END
