mac-x0206-mac-x0348
     RDKit          3D

 26 28  0  0  0  0  0  0  0  0999 V2000
   29.4390   49.8090   -5.4580 N   0  0  0  0  0  0  0  0  0  0  0  0
   29.8160   50.8130   -4.6010 C   0  0  0  0  0  0  0  0  0  0  0  0
   30.4730   50.4770   -3.5180 N   0  0  0  0  0  0  0  0  0  0  0  0
   29.4600   52.2140   -5.0090 C   0  0  0  0  0  0  0  0  0  0  0  0
   30.8550   49.0680   -3.1990 C   0  0  0  0  0  0  0  0  0  0  0  0
   29.7830   53.2790   -4.1640 C   0  0  0  0  0  0  0  0  0  0  0  0
   28.8180   52.4730   -6.2280 C   0  0  0  0  0  0  0  0  0  0  0  0
   30.4070   53.1020   -2.9640 O   0  0  0  0  0  0  0  0  0  0  0  0
   29.4750   54.5890   -4.5250 C   0  0  0  0  0  0  0  0  0  0  0  0
   28.5080   53.7910   -6.5900 C   0  0  0  0  0  0  0  0  0  0  0  0
   30.1490   48.3710   -2.0350 C   0  0  0  0  0  0  0  0  0  0  0  0
   28.8380   54.8460   -5.7370 C   0  0  0  0  0  0  0  0  0  0  0  0
   29.6050   47.0500   -2.1570 C   0  0  0  0  0  0  0  0  0  0  0  0
   30.0010   49.0160   -0.7850 C   0  0  0  0  0  0  0  0  0  0  0  0
   29.5570   46.0690   -3.2150 C   0  0  0  0  0  0  0  0  0  0  0  0
   28.9450   46.4760   -1.0580 C   0  0  0  0  0  0  0  0  0  0  0  0
   29.3490   48.4160    0.2910 C   0  0  0  0  0  0  0  0  0  0  0  0
   30.1220   46.1460   -4.6020 C   0  0  0  0  0  0  0  0  0  0  0  0
   28.5060   45.2240   -1.4470 N   0  0  0  0  0  0  0  0  0  0  0  0
   28.8720   44.9750   -2.7330 C   0  0  0  0  0  0  0  0  0  0  0  0
   28.8060   47.1380    0.1700 C   0  0  0  0  0  0  0  0  0  0  0  0
   27.7650   44.2970   -0.6240 C   0  0  0  0  0  0  0  0  0  0  0  0
   31.6300   45.9180   -4.6230 C   0  0  0  0  0  0  0  0  0  0  0  0
   32.2060   46.1420   -5.9980 C   0  0  0  0  0  0  0  0  0  0  0  0
   31.5730   45.9770   -7.0290 O   0  0  0  0  0  0  0  0  0  0  0  0
   33.4970   46.5390   -5.9940 O   0  0  0  0  0  0  0  0  0  0  0  0
  1  2  1  0
  2  3  2  3
  2  4  1  0
  3  5  1  0
  4  6  2  0
  4  7  1  0
  6  8  1  0
  6  9  1  0
  7 10  2  0
  5 11  1  0
  9 12  2  0
 10 12  1  0
 11 13  1  0
 11 14  2  0
 13 15  1  0
 13 16  2  0
 14 17  1  0
 15 18  1  0
 16 19  1  0
 15 20  2  0
 19 20  1  0
 16 21  1  0
 17 21  2  0
 19 22  1  0
 18 23  1  0
 23 24  1  0
 24 25  2  0
 24 26  1  0
M  END
