mac-x0587-mac-x0132
     RDKit          3D

 24 26  0  0  0  0  0  0  0  0999 V2000
   29.4770   45.3490   -3.5970 C   0  0  0  0  0  0  0  0  0  0  0  0
   30.5050   46.3380   -4.1500 C   0  0  2  0  0  0  0  0  0  0  0  0
   32.2040   45.7620   -3.7020 S   0  0  0  0  0  0  0  0  0  0  0  0
   30.2650   47.7340   -3.5530 C   0  0  0  0  0  0  0  0  0  0  0  0
   33.2130   46.6110   -4.9600 C   0  0  0  0  0  0  0  0  0  0  0  0
   30.6020   47.9870   -2.3900 O   0  0  0  0  0  0  0  0  0  0  0  0
   29.6720   48.7120   -4.3110 N   0  0  0  0  0  0  0  0  0  0  0  0
   33.2920   45.8270   -6.2460 C   0  0  0  0  0  0  0  0  0  0  0  0
   29.7010   50.0660   -4.0070 C   0  0  0  0  0  0  0  0  0  0  0  0
   29.3540   48.5840   -5.6870 C   0  0  0  0  0  0  0  0  0  0  0  0
   34.3120   45.5940   -6.8750 O   0  0  0  0  0  0  0  0  0  0  0  0
   32.1020   45.3750   -6.6900 O   0  0  0  0  0  0  0  0  0  0  0  0
   29.3350   47.5980   -6.4010 O   0  0  0  0  0  0  0  0  0  0  0  0
   29.3130   50.7980   -5.1220 C   0  0  0  0  0  0  0  0  0  0  0  0
   29.0350   49.8840   -6.1400 N   0  0  0  0  0  0  0  0  0  0  0  0
   30.0470   50.6630   -2.8270 C   0  0  0  0  0  0  0  0  0  0  0  0
   29.2580   52.2020   -5.0910 C   0  0  0  0  0  0  0  0  0  0  0  0
   30.0000   52.0510   -2.7830 C   0  0  0  0  0  0  0  0  0  0  0  0
   28.8870   53.0720   -6.1240 C   0  0  0  0  0  0  0  0  0  0  0  0
   29.6170   52.8240   -3.8790 C   0  0  0  0  0  0  0  0  0  0  0  0
   28.5020   52.5990   -7.3820 N   0  0  0  0  0  0  0  0  0  0  0  0
   29.6100   54.1450   -3.7190 N   0  0  0  0  0  0  0  0  0  0  0  0
   28.8770   54.4030   -5.9730 N   0  0  0  0  0  0  0  0  0  0  0  0
   29.2410   54.8750   -4.7770 C   0  0  0  0  0  0  0  0  0  0  0  0
  2  1  1  1
  2  3  1  0
  2  4  1  0
  3  5  1  0
  4  6  2  0
  4  7  1  0
  5  8  1  0
  7  9  1  0
  7 10  1  0
  8 11  2  0
  8 12  1  0
 10 13  2  0
  9 14  2  0
 10 15  1  0
 14 15  1  0
  9 16  1  0
 14 17  1  0
 16 18  2  0
 17 19  2  0
 17 20  1  0
 18 20  1  0
 19 21  1  0
 20 22  2  0
 19 23  1  0
 22 24  1  0
 23 24  2  0
M  END
