mac-x0346-mac-x0565
     RDKit          3D

 20 22  0  0  0  0  0  0  0  0999 V2000
   30.1360   54.7830   -4.9870 O   0  0  0  0  0  0  0  0  0  0  0  0
   30.7400   53.5810   -4.4180 N   0  0  0  0  0  0  0  0  0  0  0  0
   29.6850   52.5910   -4.0900 C   0  0  1  0  0  0  0  0  0  0  0  0
   28.8660   53.2290   -3.1030 O   0  0  0  0  0  0  0  0  0  0  0  0
   28.8020   52.1380   -5.2590 C   0  0  0  0  0  0  0  0  0  0  0  0
   30.1930   51.2610   -3.5030 C   0  0  0  0  0  0  0  0  0  0  0  0
   27.9790   51.0110   -5.0620 C   0  0  0  0  0  0  0  0  0  0  0  0
   28.7590   52.7480   -6.5230 C   0  0  0  0  0  0  0  0  0  0  0  0
   30.2480   50.1480   -4.3710 C   0  0  0  0  0  0  0  0  0  0  0  0
   30.5910   51.0880   -2.1510 C   0  0  0  0  0  0  0  0  0  0  0  0
   27.9930   50.3900   -3.8370 O   0  0  0  0  0  0  0  0  0  0  0  0
   27.1590   50.5020   -6.0590 C   0  0  0  0  0  0  0  0  0  0  0  0
   27.9320   52.2420   -7.5350 C   0  0  0  0  0  0  0  0  0  0  0  0
   30.6710   48.9400   -3.8840 C   0  0  0  0  0  0  0  0  0  0  0  0
   31.0220   49.8370   -1.6810 C   0  0  0  0  0  0  0  0  0  0  0  0
   27.1370   51.1210   -7.3020 C   0  0  0  0  0  0  0  0  0  0  0  0
   31.0480   48.7840   -2.5760 C   0  0  0  0  0  0  0  0  0  0  0  0
   30.7680   47.7840   -4.5960 O   0  0  0  0  0  0  0  0  0  0  0  0
   31.4250   47.5040   -2.3110 O   0  0  0  0  0  0  0  0  0  0  0  0
   30.9560   46.8560   -3.5130 C   0  0  0  0  0  0  0  0  0  0  0  0
  1  2  1  0
  2  3  1  0
  3  4  1  1
  3  5  1  0
  3  6  1  0
  5  7  2  0
  5  8  1  0
  6  9  2  0
  6 10  1  0
  7 11  1  0
  7 12  1  0
  8 13  2  0
  9 14  1  0
 10 15  2  0
 12 16  2  0
 13 16  1  0
 14 17  2  0
 15 17  1  0
 14 18  1  0
 17 19  1  0
 18 20  1  0
 19 20  1  0
M  END
