mac-x0402-mac-x1493
     RDKit          3D

 13 14  0  0  0  0  0  0  0  0999 V2000
   30.6780   48.2400   -4.0070 N   0  0  0  0  0  0  0  0  0  0  0  0
   29.8080   47.0930   -4.0830 C   0  0  0  0  0  0  0  0  0  0  0  0
   29.8380   46.5920   -5.4000 O   0  0  0  0  0  0  0  0  0  0  0  0
   30.2410   49.5150   -4.3910 C   0  0  0  0  0  0  0  0  0  0  0  0
   30.1620   50.5030   -3.4030 C   0  0  0  0  0  0  0  0  0  0  0  0
   29.8790   49.8530   -5.7040 C   0  0  0  0  0  0  0  0  0  0  0  0
   29.4510   51.1650   -5.9870 C   0  0  0  0  0  0  0  0  0  0  0  0
   29.7370   51.8080   -3.6850 C   0  0  0  0  0  0  0  0  0  0  0  0
   29.3740   52.1470   -5.0010 C   0  0  0  0  0  0  0  0  0  0  0  0
   28.9520   51.8480   -7.4860 S   0  0  0  0  0  0  0  0  0  0  0  0
   28.6850   53.3520   -6.7150 C   0  0  0  0  0  0  0  0  0  0  0  0
   28.9360   53.3890   -5.4330 N   0  0  0  0  0  0  0  0  0  0  0  0
   28.2450   54.4220   -7.4050 N   0  0  0  0  0  0  0  0  0  0  0  0
  1  2  1  0
  2  3  1  0
  1  4  1  0
  4  5  2  0
  4  6  1  0
  6  7  2  0
  5  8  1  0
  7  9  1  0
  8  9  2  0
  7 10  1  0
 10 11  1  0
  9 12  1  0
 11 12  2  0
 11 13  1  0
M  END
