mac-x0472-mac-x0404
     RDKit          3D

 30 33  0  0  0  0  0  0  0  0999 V2000
   30.0120   51.0710   -3.4180 O   0  0  0  0  0  0  0  0  0  0  0  0
   30.9700   50.0430   -3.7670 S   0  0  1  0  0  0  0  0  0  0  0  0
   31.5420   49.0560   -2.7400 N   0  0  0  0  0  0  0  0  0  0  0  0
   30.1090   49.1620   -4.9160 N   0  0  0  0  0  0  0  0  0  0  0  0
   32.3420   50.8200   -4.5600 C   0  0  0  0  0  0  0  0  0  0  0  0
   29.5250   49.7700   -5.9740 C   0  0  0  0  0  0  0  0  0  0  0  0
   33.4050   50.0130   -4.9760 C   0  0  0  0  0  0  0  0  0  0  0  0
   32.3680   52.1980   -4.7670 C   0  0  0  0  0  0  0  0  0  0  0  0
   30.9490   47.7520   -2.6730 C   0  0  0  0  0  0  0  0  0  0  0  0
   29.2780   49.2870   -7.1790 N   0  0  0  0  0  0  0  0  0  0  0  0
   29.0030   51.4120   -5.8100 S   0  0  0  0  0  0  0  0  0  0  0  0
   34.5060   50.5910   -5.6020 C   0  0  0  0  0  0  0  0  0  0  0  0
   33.4740   52.7720   -5.3940 C   0  0  0  0  0  0  0  0  0  0  0  0
   29.8820   47.5660   -1.8170 C   0  0  0  0  0  0  0  0  0  0  0  0
   31.4390   46.7290   -3.4620 C   0  0  0  0  0  0  0  0  0  0  0  0
   28.4660   51.3470   -7.4320 C   0  0  0  0  0  0  0  0  0  0  0  0
   28.6660   50.1940   -8.0250 N   0  0  0  0  0  0  0  0  0  0  0  0
   34.5390   51.9700   -5.8110 C   0  0  0  0  0  0  0  0  0  0  0  0
   30.8460   45.4750   -3.4100 C   0  0  0  0  0  0  0  0  0  0  0  0
   29.2630   46.3270   -1.7400 C   0  0  0  0  0  0  0  0  0  0  0  0
   31.2650   44.4050   -4.1640 O   0  0  0  0  0  0  0  0  0  0  0  0
   29.7380   45.2590   -2.5430 C   0  0  0  0  0  0  0  0  0  0  0  0
   28.1760   46.1450   -0.8780 C   0  0  0  0  0  0  0  0  0  0  0  0
   32.5710   44.4270   -4.7260 C   0  0  0  0  0  0  0  0  0  0  0  0
   27.5380   44.9120   -0.7960 C   0  0  0  0  0  0  0  0  0  0  0  0
   29.0730   44.0220   -2.4350 C   0  0  0  0  0  0  0  0  0  0  0  0
   32.7810   45.2800   -5.9730 C   0  0  0  0  0  0  0  0  0  0  0  0
   27.9860   43.8510   -1.5740 C   0  0  0  0  0  0  0  0  0  0  0  0
   31.6770   45.4530   -6.7260 O   0  0  0  0  0  0  0  0  0  0  0  0
   33.8400   45.7870   -6.3140 O   0  0  0  0  0  0  0  0  0  0  0  0
  1  2  2  0
  2  3  2  0
  2  4  1  6
  2  5  1  0
  4  6  1  0
  5  7  2  0
  5  8  1  0
  3  9  1  0
  6 10  2  0
  6 11  1  0
  7 12  1  0
  8 13  2  0
  9 14  2  0
  9 15  1  0
 11 16  1  0
 10 17  1  0
 16 17  2  0
 12 18  2  0
 13 18  1  0
 15 19  2  0
 14 20  1  0
 19 21  1  0
 19 22  1  0
 20 22  2  0
 20 23  1  0
 21 24  1  0
 23 25  2  0
 22 26  1  0
 24 27  1  0
 25 28  1  0
 26 28  2  0
 27 29  1  0
 27 30  2  0
M  END
