mac-x0576-mac-x0282
     RDKit          3D

 13 14  0  0  0  0  0  0  0  0999 V2000
   29.1410   47.5290   -9.0350 N   0  0  0  0  0  0  0  0  0  0  0  0
   28.7960   48.1820   -7.8150 C   0  0  2  0  0  0  0  0  0  0  0  0
   28.9680   49.5830   -8.0670 N   0  0  0  0  0  0  0  0  0  0  0  0
   29.7160   47.6910   -6.8810 N   0  0  0  0  0  0  0  0  0  0  0  0
   29.7790   48.2540   -5.6490 C   0  0  0  0  0  0  0  0  0  0  0  0
   29.6270   50.3910   -7.0450 C   0  0  2  0  0  0  0  0  0  0  0  0
   29.7390   47.5530   -4.6410 O   0  0  0  0  0  0  0  0  0  0  0  0
   29.9060   49.7710   -5.6480 C   0  0  1  0  0  0  0  0  0  0  0  0
   28.9190   51.6470   -6.9980 N   0  0  0  0  0  0  0  0  0  0  0  0
   29.0410   52.4980   -5.9290 C   0  0  0  0  0  0  0  0  0  0  0  0
   29.1380   50.4180   -4.5560 N   0  0  0  0  0  0  0  0  0  0  0  0
   28.9000   53.7060   -6.0910 O   0  0  0  0  0  0  0  0  0  0  0  0
   29.3600   51.8760   -4.5680 C   0  0  0  0  0  0  0  0  0  0  0  0
  2  1  1  6
  2  3  1  0
  2  4  1  0
  4  5  1  0
  6  3  1  6
  5  7  2  0
  5  8  1  0
  6  8  1  0
  6  9  1  0
  9 10  1  0
  8 11  1  1
 10 12  2  0
 10 13  1  0
 11 13  1  0
M  END
