mac-x0333-mac-x0402
     RDKit          3D

 11 12  0  0  0  0  0  0  0  0999 V2000
   30.0750   48.5390   -3.8590 O   0  0  0  0  0  0  0  0  0  0  0  0
   29.7370   49.7460   -4.4050 C   0  0  0  0  0  0  0  0  0  0  0  0
   29.1380   49.8250   -5.6710 C   0  0  0  0  0  0  0  0  0  0  0  0
   30.0040   50.8930   -3.6660 C   0  0  0  0  0  0  0  0  0  0  0  0
   29.6550   52.1070   -4.2260 C   0  0  0  0  0  0  0  0  0  0  0  0
   28.7930   51.0710   -6.2160 C   0  0  0  0  0  0  0  0  0  0  0  0
   29.0570   52.2130   -5.4770 C   0  0  0  0  0  0  0  0  0  0  0  0
   29.8450   53.3330   -3.6440 O   0  0  0  0  0  0  0  0  0  0  0  0
   28.8040   53.5700   -5.7920 N   0  0  0  0  0  0  0  0  0  0  0  0
   29.6470   54.2310   -4.7700 C   0  0  0  0  0  0  0  0  0  0  0  0
   28.7310   54.0170   -7.1330 N   0  0  0  0  0  0  0  0  0  0  0  0
  1  2  1  0
  2  3  2  0
  2  4  1  0
  4  5  2  0
  3  6  1  0
  5  7  1  0
  6  7  2  0
  5  8  1  0
  7  9  1  0
  8 10  1  0
  9 10  1  0
  9 11  1  0
M  END
