mac-x0354-mac-x0590
     RDKit          3D

 28 31  0  0  0  0  0  0  0  0999 V2000
   34.7250   44.7920   -1.0660 C   0  0  0  0  0  0  0  0  0  0  0  0
   34.2230   44.9680   -2.4110 N   0  0  0  0  0  0  0  0  0  0  0  0
   32.9520   44.6380   -2.6790 N   0  0  0  0  0  0  0  0  0  0  0  0
   34.9120   45.4530   -3.4930 C   0  0  0  0  0  0  0  0  0  0  0  0
   32.8030   44.9140   -3.9820 C   0  0  0  0  0  0  0  0  0  0  0  0
   34.0090   45.4290   -4.5550 C   0  0  0  0  0  0  0  0  0  0  0  0
   36.3070   45.8760   -3.4100 C   0  0  0  0  0  0  0  0  0  0  0  0
   34.2680   45.8440   -5.9260 C   0  0  0  0  0  0  0  0  0  0  0  0
   31.4830   44.6760   -4.6600 C   0  0  0  0  0  0  0  0  0  0  0  0
   37.3490   44.9650   -3.6310 C   0  0  0  0  0  0  0  0  0  0  0  0
   36.6110   47.2070   -3.1030 C   0  0  0  0  0  0  0  0  0  0  0  0
   34.2940   45.1160   -6.9110 O   0  0  0  0  0  0  0  0  0  0  0  0
   34.4960   47.1660   -6.0940 O   0  0  0  0  0  0  0  0  0  0  0  0
   30.8740   45.8810   -5.3980 C   0  0  0  0  0  0  0  0  0  0  0  0
   38.6780   45.3880   -3.5460 C   0  0  0  0  0  0  0  0  0  0  0  0
   37.9400   47.6260   -3.0180 C   0  0  0  0  0  0  0  0  0  0  0  0
   29.9720   46.7480   -4.5010 C   0  0  0  0  0  0  0  0  0  0  0  0
   38.9710   46.7150   -3.2400 C   0  0  0  0  0  0  0  0  0  0  0  0
   29.7980   48.1410   -4.9900 N   0  0  0  0  0  0  0  0  0  0  0  0
   29.4440   49.0120   -3.8600 C   0  0  0  0  0  0  0  0  0  0  0  0
   28.7370   48.2650   -5.9740 C   0  0  1  0  0  0  0  0  0  0  0  0
   29.3030   50.4100   -4.2970 N   0  0  0  0  0  0  0  0  0  0  0  0
   28.7080   49.6340   -6.6090 C   0  0  2  0  0  0  0  0  0  0  0  0
   28.9360   47.4950   -7.1920 N   0  0  0  0  0  0  0  0  0  0  0  0
   28.4200   50.6010   -5.4400 C   0  0  2  0  0  0  0  0  0  0  0  0
   27.6760   49.4440   -7.6550 N   0  0  0  0  0  0  0  0  0  0  0  0
   27.9380   48.0670   -8.0980 C   0  0  0  0  0  0  0  0  0  0  0  0
   28.5990   51.9900   -5.8210 N   0  0  0  0  0  0  0  0  0  0  0  0
  1  2  1  0
  2  3  1  0
  2  4  1  0
  3  5  2  0
  4  6  2  0
  5  6  1  0
  4  7  1  0
  6  8  1  0
  5  9  1  0
  7 10  2  0
  7 11  1  0
  8 12  2  0
  8 13  1  0
  9 14  1  0
 10 15  1  0
 11 16  2  0
 14 17  1  0
 15 18  2  0
 16 18  1  0
 17 19  1  0
 19 20  1  0
 19 21  1  0
 20 22  1  0
 21 23  1  0
 21 24  1  6
 22 25  1  0
 23 25  1  0
 23 26  1  6
 24 27  1  0
 26 27  1  0
 25 28  1  6
M  END
