mac-x0277-mac-x0161
     RDKit          3D

 29 32  0  0  0  0  0  0  0  0999 V2000
   27.2460   46.1690   -0.9020 Cl  0  0  0  0  0  0  0  0  0  0  0  0
   28.6960   45.6990   -1.7180 C   0  0  0  0  0  0  0  0  0  0  0  0
   29.9670   46.0680   -1.2650 C   0  0  0  0  0  0  0  0  0  0  0  0
   28.5690   44.9180   -2.8710 C   0  0  0  0  0  0  0  0  0  0  0  0
   30.2010   47.0290    0.1550 Cl  0  0  0  0  0  0  0  0  0  0  0  0
   31.1040   45.6530   -1.9690 C   0  0  0  0  0  0  0  0  0  0  0  0
   29.7080   44.5070   -3.5720 C   0  0  0  0  0  0  0  0  0  0  0  0
   30.9870   44.8710   -3.1280 C   0  0  0  0  0  0  0  0  0  0  0  0
   32.2180   44.4260   -3.8850 C   0  0  0  0  0  0  0  0  0  0  0  0
   32.5130   45.2640   -5.1210 C   0  0  0  0  0  0  0  0  0  0  0  0
   32.2140   44.8430   -6.2430 O   0  0  0  0  0  0  0  0  0  0  0  0
   33.1210   46.4920   -4.9150 N   0  0  0  0  0  0  0  0  0  0  0  0
   32.5060   47.5570   -5.6250 O   0  0  0  0  0  0  0  0  0  0  0  0
   33.4510   46.9790   -3.5940 C   0  0  1  0  0  0  0  0  0  0  0  0
   34.7150   47.6430   -3.5750 O   0  0  0  0  0  0  0  0  0  0  0  0
   32.3910   48.0240   -3.3000 C   0  0  0  0  0  0  0  0  0  0  0  0
   31.7920   48.3600   -4.6530 C   0  0  2  0  0  0  0  0  0  0  0  0
   30.2830   48.0760   -4.8000 C   0  0  0  0  0  0  0  0  0  0  0  0
   35.2260   47.8630   -2.2680 C   0  0  0  0  0  0  0  0  0  0  0  0
   29.3540   49.1800   -5.0750 N   0  0  0  0  0  0  0  0  0  0  0  0
   29.2890   50.2110   -4.0380 C   0  0  0  0  0  0  0  0  0  0  0  0
   29.4020   49.7060   -6.4240 C   0  0  2  0  0  0  0  0  0  0  0  0
   28.2570   51.2100   -4.2910 N   0  0  0  0  0  0  0  0  0  0  0  0
   28.2340   50.6400   -6.7130 C   0  0  2  0  0  0  0  0  0  0  0  0
   29.1590   48.6710   -7.4140 N   0  0  0  0  0  0  0  0  0  0  0  0
   28.3110   51.7390   -5.6380 C   0  0  1  0  0  0  0  0  0  0  0  0
   27.1080   49.6960   -6.7530 N   0  0  0  0  0  0  0  0  0  0  0  0
   27.6990   48.5440   -7.4500 C   0  0  0  0  0  0  0  0  0  0  0  0
   27.2290   52.6990   -5.7170 N   0  0  0  0  0  0  0  0  0  0  0  0
  1  2  1  0
  2  3  2  0
  2  4  1  0
  3  5  1  0
  3  6  1  0
  4  7  2  0
  6  8  2  0
  7  8  1  0
  8  9  1  0
  9 10  1  0
 10 11  2  0
 10 12  1  0
 12 13  1  0
 12 14  1  0
 14 15  1  6
 14 16  1  0
 13 17  1  0
 16 17  1  0
 17 18  1  1
 15 19  1  0
 18 20  1  0
 20 21  1  0
 20 22  1  0
 21 23  1  0
 22 24  1  0
 22 25  1  6
 23 26  1  0
 24 26  1  0
 24 27  1  1
 25 28  1  0
 27 28  1  0
 26 29  1  6
M  END
