mac-x0396-mac-x0436
     RDKit          3D

 27 29  0  0  0  0  0  0  0  0999 V2000
   28.4180   50.5170   -6.7180 N   0  0  0  0  0  0  0  0  0  0  0  0
   29.2370   50.5640   -5.6150 C   0  0  0  0  0  0  0  0  0  0  0  0
   29.8060   49.5060   -5.0970 N   0  0  0  0  0  0  0  0  0  0  0  0
   29.4370   51.9420   -5.0500 C   0  0  0  0  0  0  0  0  0  0  0  0
   30.7020   49.5340   -3.9210 C   0  0  0  0  0  0  0  0  0  0  0  0
   29.8040   52.1760   -3.7330 C   0  0  0  0  0  0  0  0  0  0  0  0
   29.2410   53.0520   -5.8810 C   0  0  0  0  0  0  0  0  0  0  0  0
   31.5600   48.2440   -3.8580 C   0  0  0  0  0  0  0  0  0  0  0  0
   29.9830   53.4220   -3.2140 N   0  0  0  0  0  0  0  0  0  0  0  0
   29.4190   54.3360   -5.3710 C   0  0  0  0  0  0  0  0  0  0  0  0
   33.0070   48.5610   -3.7970 N   0  0  0  0  0  0  0  0  0  0  0  0
   29.7870   54.4710   -4.0450 C   0  0  0  0  0  0  0  0  0  0  0  0
   33.9930   47.7060   -3.6120 C   0  0  0  0  0  0  0  0  0  0  0  0
   33.7470   46.1730   -3.4330 C   0  0  0  0  0  0  0  0  0  0  0  0
   35.3080   48.0910   -3.5620 N   0  0  0  0  0  0  0  0  0  0  0  0
   32.3920   45.5660   -3.7160 C   0  0  0  0  0  0  0  0  0  0  0  0
   36.2980   47.2420   -3.0490 C   0  0  0  0  0  0  0  0  0  0  0  0
   34.7090   45.3660   -3.0470 N   0  0  0  0  0  0  0  0  0  0  0  0
   32.4860   44.5940   -4.8880 C   0  0  0  0  0  0  0  0  0  0  0  0
   35.9940   45.8950   -2.7970 C   0  0  0  0  0  0  0  0  0  0  0  0
   37.5820   47.7330   -2.7900 C   0  0  0  0  0  0  0  0  0  0  0  0
   32.5170   45.2950   -6.2260 C   0  0  0  0  0  0  0  0  0  0  0  0
   36.9900   45.0540   -2.2880 C   0  0  0  0  0  0  0  0  0  0  0  0
   38.5670   46.8870   -2.2840 C   0  0  0  0  0  0  0  0  0  0  0  0
   33.7430   45.6850   -6.6280 O   0  0  0  0  0  0  0  0  0  0  0  0
   31.5200   45.4990   -6.9050 O   0  0  0  0  0  0  0  0  0  0  0  0
   38.2740   45.5500   -2.0320 C   0  0  0  0  0  0  0  0  0  0  0  0
  1  2  1  0
  2  3  2  3
  2  4  1  0
  3  5  1  0
  4  6  2  0
  4  7  1  0
  5  8  1  0
  6  9  1  0
  7 10  2  0
  8 11  1  0
  9 12  2  0
 10 12  1  0
 11 13  2  3
 13 14  1  0
 13 15  1  0
 14 16  1  0
 15 17  1  0
 14 18  2  0
 16 19  1  0
 17 20  2  0
 18 20  1  0
 17 21  1  0
 19 22  1  0
 20 23  1  0
 21 24  2  0
 22 25  1  0
 22 26  2  0
 23 27  2  0
 24 27  1  0
M  END
