mac-x0263-mac-x0212
     RDKit          3D

 27 29  0  0  0  0  0  0  0  0999 V2000
   28.2300   59.4520   -6.9190 O   0  0  0  0  0  0  0  0  0  0  0  0
   27.4900   58.5020   -6.3070 C   0  0  0  0  0  0  0  0  0  0  0  0
   26.2910   58.3750   -6.5400 O   0  0  0  0  0  0  0  0  0  0  0  0
   28.2810   57.6840   -5.2860 C   0  0  0  0  0  0  0  0  0  0  0  0
   28.6750   56.2070   -5.5700 C   0  0  0  0  0  0  0  0  0  0  0  0
   29.9700   54.9800   -5.6780 S   0  0  1  0  0  0  0  0  0  0  0  0
   27.9980   55.0610   -5.8030 C   0  0  0  0  0  0  0  0  0  0  0  0
   31.6670   54.6880   -5.5540 C   0  0  0  0  0  0  0  0  0  0  0  0
   31.1150   56.0400   -5.2550 O   0  0  0  0  0  0  0  0  0  0  0  0
   29.5460   53.3380   -6.1040 N   0  0  0  0  0  0  0  0  0  0  0  0
   28.0010   54.2980   -4.7050 N   0  0  0  0  0  0  0  0  0  0  0  0
   27.4580   54.5280   -6.8650 N   0  0  0  0  0  0  0  0  0  0  0  0
   27.4940   53.1410   -5.0090 C   0  0  0  0  0  0  0  0  0  0  0  0
   27.1560   53.2600   -6.3590 C   0  0  0  0  0  0  0  0  0  0  0  0
   29.7920   52.0350   -5.5090 C   0  0  0  0  0  0  0  0  0  0  0  0
   27.3320   52.0250   -4.2180 C   0  0  0  0  0  0  0  0  0  0  0  0
   26.6100   52.1430   -6.9700 C   0  0  0  0  0  0  0  0  0  0  0  0
   29.9440   50.9490   -6.3970 C   0  0  0  0  0  0  0  0  0  0  0  0
   29.8860   51.7540   -4.1300 C   0  0  0  0  0  0  0  0  0  0  0  0
   26.7940   50.9290   -4.8480 C   0  0  0  0  0  0  0  0  0  0  0  0
   26.4400   50.9790   -6.2010 C   0  0  0  0  0  0  0  0  0  0  0  0
   30.1910   49.6470   -5.9520 C   0  0  0  0  0  0  0  0  0  0  0  0
   30.1360   50.4350   -3.6760 C   0  0  0  0  0  0  0  0  0  0  0  0
   30.2970   49.3750   -4.5910 C   0  0  0  0  0  0  0  0  0  0  0  0
   30.5820   47.9650   -4.1920 C   0  0  0  0  0  0  0  0  0  0  0  0
   30.6970   47.0180   -4.9560 O   0  0  0  0  0  0  0  0  0  0  0  0
   30.7300   47.7960   -2.8670 O   0  0  0  0  0  0  0  0  0  0  0  0
  1  2  1  0
  2  3  2  0
  2  4  1  0
  4  5  1  0
  5  6  2  0
  5  7  1  0
  6  8  1  6
  6  9  2  0
  6 10  1  0
  7 11  1  0
  7 12  2  0
 11 13  1  0
 12 14  1  0
 13 14  2  0
 10 15  1  0
 13 16  1  0
 14 17  1  0
 15 18  2  0
 15 19  1  0
 16 20  2  0
 17 21  2  0
 20 21  1  0
 18 22  1  0
 19 23  2  0
 22 24  2  0
 23 24  1  0
 24 25  1  0
 25 26  2  0
 25 27  1  0
M  END
