mac-x0385-mac-x0223
     RDKit          3D

 23 24  0  0  0  0  0  0  0  0999 V2000
   28.9990   52.4120   -3.1060 C   0  0  0  0  0  0  0  0  0  0  0  0
   29.1890   51.2670   -4.0440 C   0  0  0  0  0  0  0  0  0  0  0  0
   30.2350   50.3830   -3.8830 C   0  0  0  0  0  0  0  0  0  0  0  0
   28.3540   51.0070   -5.1210 C   0  0  0  0  0  0  0  0  0  0  0  0
   27.2540   51.8300   -5.4000 N   0  0  0  0  0  0  0  0  0  0  0  0
   28.5440   49.9720   -5.9490 N   0  0  0  0  0  0  0  0  0  0  0  0
   30.4600   49.3360   -4.6910 N   0  0  0  0  0  0  0  0  0  0  0  0
   29.5970   49.1660   -5.7030 C   0  0  0  0  0  0  0  0  0  0  0  0
   29.8260   47.9930   -6.6190 C   0  0  0  0  0  0  0  0  0  0  0  0
   30.0000   46.7020   -5.8250 C   0  0  0  0  0  0  0  0  0  0  0  0
   31.0700   45.9370   -6.4020 O   0  0  0  0  0  0  0  0  0  0  0  0
   32.1150   45.6410   -5.5800 C   0  0  0  0  0  0  0  0  0  0  0  0
   31.7010   44.6700   -4.4950 C   0  0  0  0  0  0  0  0  0  0  0  0
   33.2470   46.0970   -5.6970 O   0  0  0  0  0  0  0  0  0  0  0  0
   30.8330   45.2630   -3.4050 C   0  0  0  0  0  0  0  0  0  0  0  0
   31.2690   46.3760   -2.6680 C   0  0  0  0  0  0  0  0  0  0  0  0
   29.5740   44.7000   -3.1180 C   0  0  0  0  0  0  0  0  0  0  0  0
   28.7650   45.2380   -2.1160 C   0  0  0  0  0  0  0  0  0  0  0  0
   30.4650   46.9190   -1.6660 C   0  0  0  0  0  0  0  0  0  0  0  0
   27.5260   44.7770   -1.7480 O   0  0  0  0  0  0  0  0  0  0  0  0
   29.2260   46.3470   -1.3990 C   0  0  0  0  0  0  0  0  0  0  0  0
   27.2320   43.4290   -2.1080 C   0  0  0  0  0  0  0  0  0  0  0  0
   28.4540   46.8950   -0.4110 O   0  0  0  0  0  0  0  0  0  0  0  0
  1  2  1  0
  2  3  2  0
  2  4  1  0
  4  5  1  0
  4  6  2  0
  3  7  1  0
  6  8  1  0
  7  8  2  0
  8  9  1  0
  9 10  1  0
 10 11  1  0
 11 12  1  0
 12 13  1  0
 12 14  2  0
 13 15  1  0
 15 16  2  0
 15 17  1  0
 17 18  2  0
 16 19  1  0
 18 20  1  0
 18 21  1  0
 19 21  2  0
 20 22  1  0
 21 23  1  0
M  END
