mac-x0373-mac-x0433
     RDKit          3D

 24 26  0  0  0  0  0  0  0  0999 V2000
   31.3950   45.4270   -6.9930 O   0  0  0  0  0  0  0  0  0  0  0  0
   30.6190   46.0210   -6.0550 C   0  0  0  0  0  0  0  0  0  0  0  0
   29.6760   45.4200   -5.5570 O   0  0  0  0  0  0  0  0  0  0  0  0
   31.0400   47.4560   -5.7260 C   0  0  2  0  0  0  0  0  0  0  0  0
   32.2230   47.6120   -4.7610 C   0  0  0  0  0  0  0  0  0  0  0  0
   29.8850   48.3910   -5.4230 C   0  0  0  0  0  0  0  0  0  0  0  0
   32.5980   46.6200   -3.8390 C   0  0  0  0  0  0  0  0  0  0  0  0
   32.9760   48.8000   -4.8030 C   0  0  0  0  0  0  0  0  0  0  0  0
   28.5630   47.9460   -5.4460 C   0  0  0  0  0  0  0  0  0  0  0  0
   30.1110   49.7190   -5.1150 C   0  0  0  0  0  0  0  0  0  0  0  0
   33.6930   46.8120   -2.9890 C   0  0  0  0  0  0  0  0  0  0  0  0
   34.0680   48.9880   -3.9550 C   0  0  0  0  0  0  0  0  0  0  0  0
   27.5090   48.8080   -5.1730 C   0  0  0  0  0  0  0  0  0  0  0  0
   29.0630   50.5830   -4.8350 C   0  0  0  0  0  0  0  0  0  0  0  0
   34.4260   47.9960   -3.0500 C   0  0  0  0  0  0  0  0  0  0  0  0
   27.7610   50.1280   -4.8680 C   0  0  0  0  0  0  0  0  0  0  0  0
   29.3540   51.9360   -4.4860 C   0  0  0  0  0  0  0  0  0  0  0  0
   29.6640   51.9760   -3.1920 N   0  0  0  0  0  0  0  0  0  0  0  0
   29.3300   53.0350   -5.3000 C   0  0  0  0  0  0  0  0  0  0  0  0
   29.9630   53.1350   -2.6790 C   0  0  0  0  0  0  0  0  0  0  0  0
   29.6580   54.2180   -4.6770 C   0  0  0  0  0  0  0  0  0  0  0  0
   29.6730   55.5010   -5.4410 C   0  0  0  0  0  0  0  0  0  0  0  0
   30.2800   53.1430   -1.3410 N   0  0  0  0  0  0  0  0  0  0  0  0
   29.9770   54.2780   -3.3620 N   0  0  0  0  0  0  0  0  0  0  0  0
  1  2  1  0
  2  3  2  0
  4  2  1  1
  4  5  1  0
  4  6  1  0
  5  7  2  0
  5  8  1  0
  6  9  2  0
  6 10  1  0
  7 11  1  0
  8 12  2  0
  9 13  1  0
 10 14  2  0
 11 15  2  0
 12 15  1  0
 13 16  2  0
 14 16  1  0
 14 17  1  0
 17 18  2  0
 17 19  1  0
 18 20  1  0
 19 21  2  0
 21 22  1  0
 20 23  1  0
 20 24  2  0
 21 24  1  0
M  END
