mac-x0411-mac-x0555
     RDKit          3D

 26 28  0  0  0  0  0  0  0  0999 V2000
   37.1300   44.4070   -3.5670 Cl  0  0  0  0  0  0  0  0  0  0  0  0
   36.3140   45.9000   -3.2470 C   0  0  0  0  0  0  0  0  0  0  0  0
   34.9150   46.0640   -3.3710 C   0  0  0  0  0  0  0  0  0  0  0  0
   37.1250   46.9670   -2.8490 C   0  0  0  0  0  0  0  0  0  0  0  0
   34.0730   45.0430   -3.7620 O   0  0  0  0  0  0  0  0  0  0  0  0
   34.3370   47.3260   -3.0840 C   0  0  0  0  0  0  0  0  0  0  0  0
   36.5610   48.2040   -2.5700 C   0  0  0  0  0  0  0  0  0  0  0  0
   32.8470   47.6050   -3.1820 C   0  0  0  0  0  0  0  0  0  0  0  0
   33.1030   45.4390   -4.7380 C   0  0  0  0  0  0  0  0  0  0  0  0
   35.1820   48.3810   -2.6850 C   0  0  0  0  0  0  0  0  0  0  0  0
   33.2100   44.6890   -6.0620 C   0  0  0  0  0  0  0  0  0  0  0  0
   32.3220   48.8150   -2.4030 C   0  0  0  0  0  0  0  0  0  0  0  0
   31.9940   44.4820   -6.6380 O   0  0  0  0  0  0  0  0  0  0  0  0
   34.2370   44.3040   -6.5910 O   0  0  0  0  0  0  0  0  0  0  0  0
   30.7940   48.9910   -2.4100 C   0  0  0  0  0  0  0  0  0  0  0  0
   30.3220   50.0640   -3.3670 C   0  0  0  0  0  0  0  0  0  0  0  0
   30.4500   51.4310   -3.0580 C   0  0  0  0  0  0  0  0  0  0  0  0
   29.7470   49.7040   -4.5890 C   0  0  0  0  0  0  0  0  0  0  0  0
   30.0210   52.4320   -3.9330 C   0  0  0  0  0  0  0  0  0  0  0  0
   29.3110   50.6870   -5.4790 C   0  0  0  0  0  0  0  0  0  0  0  0
   29.4450   52.0480   -5.1610 C   0  0  0  0  0  0  0  0  0  0  0  0
   30.1650   53.7250   -3.5940 N   0  0  0  0  0  0  0  0  0  0  0  0
   29.0160   53.0590   -6.0410 C   0  0  0  0  0  0  0  0  0  0  0  0
   29.7400   54.6630   -4.4680 C   0  0  0  0  0  0  0  0  0  0  0  0
   29.1610   54.4020   -5.7010 C   0  0  0  0  0  0  0  0  0  0  0  0
   28.7430   55.4240   -6.5570 N   0  0  0  0  0  0  0  0  0  0  0  0
  1  2  1  0
  2  3  2  0
  2  4  1  0
  3  5  1  0
  3  6  1  0
  4  7  2  0
  6  8  1  0
  5  9  1  0
  6 10  2  0
  7 10  1  0
  9 11  1  0
  8 12  1  0
 11 13  1  0
 11 14  2  0
 12 15  1  0
 15 16  1  0
 16 17  2  0
 16 18  1  0
 17 19  1  0
 18 20  2  0
 19 21  2  0
 20 21  1  0
 19 22  1  0
 21 23  1  0
 22 24  2  0
 23 25  2  0
 24 25  1  0
 25 26  1  0
M  END
