mac-x0357-mac-x0142
     RDKit          3D

 28 32  0  0  0  0  0  0  0  0999 V2000
   33.9130   43.2210   -3.8080 C   0  0  0  0  0  0  0  0  0  0  0  0
   34.7010   44.4580   -4.1460 C   0  0  0  0  0  0  0  0  0  0  0  0
   36.0720   44.5260   -3.8540 C   0  0  0  0  0  0  0  0  0  0  0  0
   34.1050   45.5770   -4.7590 C   0  0  0  0  0  0  0  0  0  0  0  0
   36.6730   43.4520   -3.2590 O   0  0  0  0  0  0  0  0  0  0  0  0
   32.6740   45.5820   -5.0960 C   0  0  0  0  0  0  0  0  0  0  0  0
   34.8600   46.7180   -5.0650 C   0  0  0  0  0  0  0  0  0  0  0  0
   36.8290   45.6600   -4.1570 C   0  0  0  0  0  0  0  0  0  0  0  0
   31.6770   46.2340   -4.6380 N   0  0  0  0  0  0  0  0  0  0  0  0
   32.4420   44.7060   -6.0850 O   0  0  0  0  0  0  0  0  0  0  0  0
   36.2190   46.7570   -4.7630 C   0  0  0  0  0  0  0  0  0  0  0  0
   30.3290   46.0280   -5.1730 C   0  0  1  0  0  0  0  0  0  0  0  0
   29.7060   44.8240   -4.4650 C   0  0  0  0  0  0  0  0  0  0  0  0
   29.4370   47.1840   -4.9380 N   0  0  0  0  0  0  0  0  0  0  0  0
   29.0020   43.7780   -5.3150 C   0  0  0  0  0  0  0  0  0  0  0  0
   30.2970   43.4360   -4.6390 C   0  0  0  0  0  0  0  0  0  0  0  0
   29.0570   45.1690   -3.1440 C   0  0  0  0  0  0  0  0  0  0  0  0
   29.3980   47.6220   -3.5260 C   0  0  0  0  0  0  0  0  0  0  0  0
   29.2570   48.1540   -5.9340 C   0  0  0  0  0  0  0  0  0  0  0  0
   29.6710   46.4500   -2.5910 C   0  0  0  0  0  0  0  0  0  0  0  0
   29.2660   47.8200   -7.2740 N   0  0  0  0  0  0  0  0  0  0  0  0
   29.0650   49.4570   -5.6640 C   0  0  0  0  0  0  0  0  0  0  0  0
   29.0860   48.7520   -8.2590 C   0  0  0  0  0  0  0  0  0  0  0  0
   28.8810   50.4180   -6.7780 C   0  0  0  0  0  0  0  0  0  0  0  0
   28.9740   50.2750   -4.4990 C   0  0  0  0  0  0  0  0  0  0  0  0
   28.8960   50.0180   -8.0850 N   0  0  0  0  0  0  0  0  0  0  0  0
   28.7070   51.6390   -6.3490 N   0  0  0  0  0  0  0  0  0  0  0  0
   28.7690   51.5190   -4.9640 C   0  0  0  0  0  0  0  0  0  0  0  0
  1  2  1  0
  2  3  2  0
  2  4  1  0
  3  5  1  0
  4  6  1  0
  4  7  2  0
  3  8  1  0
  6  9  2  3
  6 10  1  0
  7 11  1  0
  8 11  2  0
 12  9  1  1
 12 13  1  0
 12 14  1  0
 13 15  1  0
 13 16  1  0
 15 16  1  0
 13 17  1  0
 14 18  1  0
 14 19  1  0
 17 20  1  0
 18 20  1  0
 19 21  1  0
 19 22  2  0
 21 23  1  0
 22 24  1  0
 22 25  1  0
 23 26  2  0
 24 26  1  0
 24 27  2  0
 25 28  2  0
 27 28  1  0
M  END
