mac-x0271-mac-x0346
     RDKit          3D

 16 17  0  0  0  0  0  0  0  0999 V2000
   30.5210   50.2300   -3.6000 O   0  0  0  0  0  0  0  0  0  0  0  0
   29.8320   51.1260   -4.3780 C   0  0  0  0  0  0  0  0  0  0  0  0
   29.2040   50.6490   -5.5340 C   0  0  0  0  0  0  0  0  0  0  0  0
   29.7600   52.4860   -4.0210 C   0  0  0  0  0  0  0  0  0  0  0  0
   30.4230   53.0160   -2.7870 C   0  0  0  0  0  0  0  0  0  0  0  0
   29.0350   53.3480   -4.8670 C   0  0  0  0  0  0  0  0  0  0  0  0
   28.4940   51.5230   -6.3580 C   0  0  0  0  0  0  0  0  0  0  0  0
   31.5460   53.7960   -2.9670 N   0  0  0  0  0  0  0  0  0  0  0  0
   29.9980   52.7740   -1.6610 O   0  0  0  0  0  0  0  0  0  0  0  0
   28.4050   52.8780   -6.0300 C   0  0  0  0  0  0  0  0  0  0  0  0
   28.9300   54.7260   -4.5480 O   0  0  0  0  0  0  0  0  0  0  0  0
   32.6620   53.4360   -2.1670 O   0  0  0  0  0  0  0  0  0  0  0  0
   27.6670   53.8020   -6.8770 C   0  0  0  0  0  0  0  0  0  0  0  0
   28.1290   55.6040   -5.2660 C   0  0  0  0  0  0  0  0  0  0  0  0
   27.9000   56.7530   -4.9090 O   0  0  0  0  0  0  0  0  0  0  0  0
   27.5420   55.0810   -6.5120 C   0  0  0  0  0  0  0  0  0  0  0  0
  1  2  1  0
  2  3  2  0
  2  4  1  0
  4  5  1  0
  4  6  2  0
  3  7  1  0
  5  8  1  0
  5  9  2  0
  6 10  1  0
  7 10  2  0
  6 11  1  0
  8 12  1  0
 10 13  1  0
 11 14  1  0
 14 15  2  0
 13 16  2  0
 14 16  1  0
M  END
