mac-x0392-mac-x0588
     RDKit          3D

 20 22  0  0  0  0  0  0  0  0999 V2000
   29.0930   47.5430   -9.0310 N   0  0  0  0  0  0  0  0  0  0  0  0
   28.8220   48.9140   -8.5960 C   0  0  0  0  0  0  0  0  0  0  0  0
   29.2460   49.1600   -7.1520 C   0  0  1  0  0  0  0  0  0  0  0  0
   29.2170   50.5540   -6.6700 N   0  0  0  0  0  0  0  0  0  0  0  0
   28.5110   48.2380   -6.1930 C   0  0  1  0  0  0  0  0  0  0  0  0
   28.2370   51.4670   -7.0890 N   0  0  0  0  0  0  0  0  0  0  0  0
   29.1740   48.3060   -4.8090 C   0  0  1  0  0  0  0  0  0  0  0  0
   29.6280   50.7150   -5.3770 C   0  0  0  0  0  0  0  0  0  0  0  0
   27.0660   48.6080   -5.8720 C   0  0  0  0  0  0  0  0  0  0  0  0
   30.2970   47.2420   -4.7360 C   0  0  0  0  0  0  0  0  0  0  0  0
   29.6370   49.7140   -4.4740 C   0  0  0  0  0  0  0  0  0  0  0  0
   28.0130   48.0760   -3.9010 N   0  0  0  0  0  0  0  0  0  0  0  0
   26.8700   48.4860   -4.5530 C   0  0  0  0  0  0  0  0  0  0  0  0
   30.6320   46.3400   -3.9110 N   0  0  0  0  0  0  0  0  0  0  0  0
   31.1140   47.2290   -5.7960 O   0  0  0  0  0  0  0  0  0  0  0  0
   29.9330   46.0450   -2.6940 C   0  0  1  0  0  0  0  0  0  0  0  0
   28.7330   46.7630   -2.4270 O   0  0  0  0  0  0  0  0  0  0  0  0
   29.4960   44.5920   -2.8030 C   0  0  0  0  0  0  0  0  0  0  0  0
   28.3190   44.4950   -1.8610 C   0  0  0  0  0  0  0  0  0  0  0  0
   27.9710   45.9390   -1.5470 C   0  0  0  0  0  0  0  0  0  0  0  0
  1  2  1  0
  3  2  1  6
  3  4  1  0
  3  5  1  0
  4  6  1  0
  5  7  1  0
  4  8  1  0
  5  9  1  1
  7 10  1  6
  7 11  1  0
  8 11  2  0
  7 12  1  0
  9 13  2  0
 12 13  1  0
 10 14  2  3
 10 15  1  0
 16 14  1  6
 16 17  1  0
 16 18  1  0
 18 19  1  0
 17 20  1  0
 19 20  1  0
M  END
