mac-x0148-mac-x0302
     RDKit          3D

 26 29  0  0  0  0  0  0  0  0999 V2000
   27.7040   45.1500   -2.2960 O   0  0  0  0  0  0  0  0  0  0  0  0
   27.6190   45.3410   -3.6370 C   0  0  0  0  0  0  0  0  0  0  0  0
   26.9340   44.6210   -4.3520 O   0  0  0  0  0  0  0  0  0  0  0  0
   28.4500   46.5180   -4.1330 C   0  0  0  0  0  0  0  0  0  0  0  0
   28.1510   47.7290   -3.4040 N   0  0  0  0  0  0  0  0  0  0  0  0
   28.9750   48.8290   -3.4950 C   0  0  0  0  0  0  0  0  0  0  0  0
   29.6050   49.2600   -2.5320 O   0  0  0  0  0  0  0  0  0  0  0  0
   29.0330   49.4540   -4.8240 C   0  0  0  0  0  0  0  0  0  0  0  0
   29.8880   49.1540   -5.9420 C   0  0  0  0  0  0  0  0  0  0  0  0
   28.2510   50.4700   -5.2460 C   0  0  0  0  0  0  0  0  0  0  0  0
   27.2860   51.0860   -4.5140 O   0  0  0  0  0  0  0  0  0  0  0  0
   29.4220   50.1310   -6.9640 C   0  0  0  0  0  0  0  0  0  0  0  0
   30.8950   48.3100   -6.2730 C   0  0  0  0  0  0  0  0  0  0  0  0
   28.4610   50.9050   -6.5380 N   0  0  0  0  0  0  0  0  0  0  0  0
   31.4330   47.3420   -5.4120 N   0  0  0  0  0  0  0  0  0  0  0  0
   31.3960   48.4430   -7.5540 N   0  0  0  0  0  0  0  0  0  0  0  0
   29.9610   50.1980   -8.2170 N   0  0  0  0  0  0  0  0  0  0  0  0
   31.9620   47.7450   -4.0690 C   0  0  2  0  0  0  0  0  0  0  0  0
   32.1160   46.2020   -6.0570 C   0  0  0  0  0  0  0  0  0  0  0  0
   30.9120   49.3570   -8.4420 C   0  0  0  0  0  0  0  0  0  0  0  0
   32.9560   48.9190   -4.1240 C   0  0  0  0  0  0  0  0  0  0  0  0
   32.8680   46.7110   -3.4070 C   0  0  2  0  0  0  0  0  0  0  0  0
   33.6060   46.2190   -5.7730 C   0  0  0  0  0  0  0  0  0  0  0  0
   33.5090   47.5660   -2.3250 C   0  0  0  0  0  0  0  0  0  0  0  0
   33.8060   48.8170   -2.9610 O   0  0  0  0  0  0  0  0  0  0  0  0
   33.8600   45.9770   -4.2980 C   0  0  0  0  0  0  0  0  0  0  0  0
  1  2  1  0
  2  3  2  0
  2  4  1  0
  4  5  1  0
  5  6  1  0
  6  7  2  0
  6  8  1  0
  8  9  1  0
  8 10  2  0
 10 11  1  0
  9 12  1  0
  9 13  2  0
 10 14  1  0
 12 14  2  0
 13 15  1  0
 13 16  1  0
 12 17  1  0
 15 18  1  0
 15 19  1  0
 16 20  1  0
 17 20  2  0
 18 21  1  6
 18 22  1  0
 19 23  1  0
 22 24  1  1
 21 25  1  0
 24 25  1  0
 22 26  1  0
 23 26  1  0
M  END
