mac-x0564-mac-x0379
     RDKit          3D

 17 20  0  0  0  0  0  0  0  0999 V2000
   29.3020   46.7260   -5.2490 N   0  0  0  0  0  0  0  0  0  0  0  0
   28.8290   47.9670   -5.6430 C   0  0  0  0  0  0  0  0  0  0  0  0
   27.6600   48.1980   -5.8910 O   0  0  0  0  0  0  0  0  0  0  0  0
   30.5450   46.8860   -4.9810 C   0  0  0  0  0  0  0  0  0  0  0  0
   31.0970   48.2460   -5.1760 C   0  0  1  0  0  0  0  0  0  0  0  0
   31.3850   45.9150   -4.5100 N   0  0  0  0  0  0  0  0  0  0  0  0
   29.9300   49.0300   -5.7290 C   0  0  1  0  0  0  0  0  0  0  0  0
   30.1010   49.4370   -7.1910 C   0  0  0  0  0  0  0  0  0  0  0  0
   31.1810   48.5940   -3.7220 C   0  0  0  0  0  0  0  0  0  0  0  0
   32.0360   46.3980   -3.4840 C   0  0  0  0  0  0  0  0  0  0  0  0
   29.9150   50.2630   -4.7950 C   0  0  1  0  0  0  0  0  0  0  0  0
   31.8920   47.6870   -2.9700 N   0  0  0  0  0  0  0  0  0  0  0  0
   28.6430   51.0280   -4.5590 C   0  0  0  0  0  0  0  0  0  0  0  0
   30.5170   49.7340   -3.4990 C   0  0  0  0  0  0  0  0  0  0  0  0
   30.3040   50.4740   -2.2850 C   0  0  0  0  0  0  0  0  0  0  0  0
   28.3590   51.5230   -3.3410 C   0  0  0  0  0  0  0  0  0  0  0  0
   29.2670   51.3310   -2.2210 C   0  0  0  0  0  0  0  0  0  0  0  0
  1  2  1  0
  2  3  2  0
  1  4  2  0
  5  4  1  1
  4  6  1  0
  2  7  1  0
  5  7  1  0
  7  8  1  6
  5  9  1  0
  6 10  2  0
  7 11  1  0
  9 12  1  0
 10 12  1  0
 11 13  1  1
  9 14  2  0
 11 14  1  0
 14 15  1  0
 13 16  2  0
 15 17  2  0
 16 17  1  0
M  END
