mac-x0360-mac-x0131
     RDKit          3D

 27 30  0  0  0  0  0  0  0  0999 V2000
   32.6860   55.8310   -7.5220 Cl  0  0  0  0  0  0  0  0  0  0  0  0
   32.6700   54.2790   -6.7730 C   0  0  0  0  0  0  0  0  0  0  0  0
   33.8370   53.5200   -6.7440 C   0  0  0  0  0  0  0  0  0  0  0  0
   31.4940   53.7930   -6.2030 C   0  0  0  0  0  0  0  0  0  0  0  0
   31.4740   52.5310   -5.5940 C   0  0  0  0  0  0  0  0  0  0  0  0
   33.8200   52.2670   -6.1380 C   0  0  0  0  0  0  0  0  0  0  0  0
   35.2670   51.3270   -6.1030 Cl  0  0  0  0  0  0  0  0  0  0  0  0
   29.9990   51.8050   -4.8220 S   0  0  0  0  0  0  0  0  0  0  0  0
   32.6510   51.7690   -5.5650 C   0  0  0  0  0  0  0  0  0  0  0  0
   30.5990   51.9890   -3.2830 N   0  0  0  0  0  0  0  0  0  0  0  0
   30.5190   50.1840   -4.9980 N   0  0  0  0  0  0  0  0  0  0  0  0
   29.5290   49.2330   -4.4850 C   0  0  2  0  0  0  0  0  0  0  0  0
   30.1300   47.9710   -3.7760 C   0  0  1  0  0  0  0  0  0  0  0  0
   28.6730   48.6370   -5.6160 C   0  0  2  0  0  0  0  0  0  0  0  0
   29.8020   47.8520   -2.2790 C   0  0  0  0  0  0  0  0  0  0  0  0
   29.3030   47.2780   -5.8200 C   0  0  1  0  0  0  0  0  0  0  0  0
   29.5830   46.7490   -4.4850 N   0  0  0  0  0  0  0  0  0  0  0  0
   28.7040   49.3520   -6.9560 C   0  0  0  0  0  0  0  0  0  0  0  0
   30.5610   45.6420   -4.4780 C   0  0  0  0  0  0  0  0  0  0  0  0
   28.5170   48.3930   -8.0640 N   0  0  0  0  0  0  0  0  0  0  0  0
   28.5660   46.4040   -6.7290 N   0  0  0  0  0  0  0  0  0  0  0  0
   27.7780   47.2040   -7.6530 C   0  0  0  0  0  0  0  0  0  0  0  0
   31.9850   46.1130   -4.5080 C   0  0  0  0  0  0  0  0  0  0  0  0
   32.8180   46.5350   -5.5270 C   0  0  0  0  0  0  0  0  0  0  0  0
   32.6540   46.1610   -3.3170 O   0  0  0  0  0  0  0  0  0  0  0  0
   33.9050   46.6110   -3.5840 C   0  0  0  0  0  0  0  0  0  0  0  0
   34.0570   46.8560   -4.9270 C   0  0  0  0  0  0  0  0  0  0  0  0
  1  2  1  0
  2  3  2  0
  2  4  1  0
  4  5  2  0
  3  6  1  0
  6  7  1  0
  5  8  1  0
  5  9  1  0
  6  9  2  0
  8 10  1  1
  8 11  2  3
 12 11  1  6
 12 13  1  0
 12 14  1  0
 13 15  1  1
 14 16  1  0
 13 17  1  0
 16 17  1  0
 14 18  1  6
 17 19  1  0
 18 20  1  0
 16 21  1  1
 20 22  1  0
 21 22  1  0
 19 23  1  0
 23 24  2  0
 23 25  1  0
 25 26  1  0
 24 27  1  0
 26 27  2  0
M  END
