mac-x0301-mac-x0131
     RDKit          3D

 20 22  0  0  0  0  0  0  0  0999 V2000
   30.0100   45.4550   -5.0000 O   0  0  0  0  0  0  0  0  0  0  0  0
   30.5810   46.5670   -4.3240 C   0  0  0  0  0  0  0  0  0  0  0  0
   30.2680   46.3570   -2.9540 O   0  0  0  0  0  0  0  0  0  0  0  0
   30.0790   47.9540   -4.7680 C   0  0  0  0  0  0  0  0  0  0  0  0
   32.0660   46.3980   -4.5300 C   0  0  0  0  0  0  0  0  0  0  0  0
   29.5410   48.1670   -6.0430 C   0  0  0  0  0  0  0  0  0  0  0  0
   30.1260   49.1050   -3.9160 C   0  0  0  0  0  0  0  0  0  0  0  0
   32.7970   45.6490   -5.4340 C   0  0  0  0  0  0  0  0  0  0  0  0
   32.9270   47.0810   -3.7100 O   0  0  0  0  0  0  0  0  0  0  0  0
   30.6830   49.0250   -2.5080 C   0  0  0  0  0  0  0  0  0  0  0  0
   29.0740   49.3900   -6.4960 C   0  0  0  0  0  0  0  0  0  0  0  0
   29.6430   50.3720   -4.3790 C   0  0  0  0  0  0  0  0  0  0  0  0
   29.4020   47.2000   -7.0160 O   0  0  0  0  0  0  0  0  0  0  0  0
   34.1880   46.7660   -4.0980 C   0  0  0  0  0  0  0  0  0  0  0  0
   34.1650   45.8860   -5.1540 C   0  0  0  0  0  0  0  0  0  0  0  0
   29.6730   51.6080   -3.5160 C   0  0  0  0  0  0  0  0  0  0  0  0
   29.1190   50.5000   -5.6760 C   0  0  0  0  0  0  0  0  0  0  0  0
   28.5840   49.3270   -7.8180 N   0  0  0  0  0  0  0  0  0  0  0  0
   28.7090   47.8840   -8.0930 C   0  0  0  0  0  0  0  0  0  0  0  0
   27.4360   50.0690   -8.1330 N   0  0  0  0  0  0  0  0  0  0  0  0
  2  1  1  0
  2  3  1  0
  2  4  1  0
  2  5  1  0
  4  6  1  0
  4  7  2  0
  5  8  2  0
  5  9  1  0
  7 10  1  0
  6 11  2  0
  7 12  1  0
  6 13  1  0
  9 14  1  0
  8 15  1  0
 14 15  2  0
 12 16  1  0
 11 17  1  0
 12 17  2  0
 11 18  1  0
 13 19  1  0
 18 19  1  0
 18 20  1  0
M  END
