mac-x0142-mac-x0344
     RDKit          3D

 29 33  0  0  0  0  0  0  0  0999 V2000
   33.2300   43.2300   -4.5520 O   0  0  0  0  0  0  0  0  0  0  0  0
   33.3040   44.5430   -5.0950 C   0  0  0  0  0  0  0  0  0  0  0  0
   33.1320   44.3940   -6.4930 O   0  0  0  0  0  0  0  0  0  0  0  0
   34.7560   45.0710   -4.8000 C   0  0  0  0  0  0  0  0  0  0  0  0
   32.2380   45.4820   -4.4590 C   0  0  2  0  0  0  0  0  0  0  0  0
   35.5240   45.3000   -5.7340 O   0  0  0  0  0  0  0  0  0  0  0  0
   35.0070   45.2250   -3.4460 N   0  0  0  0  0  0  0  0  0  0  0  0
   30.7700   45.0870   -4.7480 C   0  0  0  0  0  0  0  0  0  0  0  0
   32.4310   46.9550   -4.8930 C   0  0  0  0  0  0  0  0  0  0  0  0
   30.3760   43.6440   -5.0230 C   0  0  0  0  0  0  0  0  0  0  0  0
   30.4220   44.6180   -6.1580 C   0  0  0  0  0  0  0  0  0  0  0  0
   31.4020   47.8820   -4.2530 C   0  0  0  0  0  0  0  0  0  0  0  0
   29.7640   46.0200   -4.1000 C   0  0  0  0  0  0  0  0  0  0  0  0
   35.7900   46.2020   -2.8100 C   0  0  0  0  0  0  0  0  0  0  0  0
   30.0340   47.4050   -4.5240 N   0  0  0  0  0  0  0  0  0  0  0  0
   36.8430   45.7500   -2.0040 C   0  0  0  0  0  0  0  0  0  0  0  0
   35.5770   47.5770   -2.9380 C   0  0  0  0  0  0  0  0  0  0  0  0
   29.1890   48.0940   -5.4050 C   0  0  0  0  0  0  0  0  0  0  0  0
   37.6720   46.6580   -1.3360 C   0  0  0  0  0  0  0  0  0  0  0  0
   36.4060   48.4860   -2.2680 C   0  0  0  0  0  0  0  0  0  0  0  0
   28.4690   47.3980   -6.3640 N   0  0  0  0  0  0  0  0  0  0  0  0
   28.9950   49.4280   -5.4160 C   0  0  0  0  0  0  0  0  0  0  0  0
   37.4510   48.0270   -1.4700 C   0  0  0  0  0  0  0  0  0  0  0  0
   27.6310   48.0120   -7.2520 C   0  0  0  0  0  0  0  0  0  0  0  0
   28.0680   50.0330   -6.4110 C   0  0  0  0  0  0  0  0  0  0  0  0
   29.4550   50.5680   -4.6860 C   0  0  0  0  0  0  0  0  0  0  0  0
   27.3930   49.2790   -7.3300 N   0  0  0  0  0  0  0  0  0  0  0  0
   27.9830   51.3310   -6.2930 N   0  0  0  0  0  0  0  0  0  0  0  0
   28.8380   51.6240   -5.2380 C   0  0  0  0  0  0  0  0  0  0  0  0
  2  1  1  0
  2  3  1  0
  2  4  1  0
  5  2  1  6
  4  6  2  0
  4  7  1  0
  5  8  1  0
  5  9  1  0
  8 10  1  0
  8 11  1  0
 10 11  1  0
  9 12  1  0
  8 13  1  0
  7 14  1  0
 12 15  1  0
 13 15  1  0
 14 16  2  0
 14 17  1  0
 15 18  1  0
 16 19  1  0
 17 20  2  0
 18 21  1  0
 18 22  2  0
 19 23  2  0
 20 23  1  0
 21 24  1  0
 22 25  1  0
 22 26  1  0
 24 27  2  0
 25 27  1  0
 25 28  2  0
 26 29  2  0
 28 29  1  0
M  END
