mac-x0564-mac-x0182
     RDKit          3D

 26 30  0  0  0  0  0  0  0  0999 V2000
   28.8590   46.5300   -7.0680 O   0  0  0  0  0  0  0  0  0  0  0  0
   29.4700   46.6680   -6.0160 C   0  0  0  0  0  0  0  0  0  0  0  0
   30.0410   45.6080   -5.3240 N   0  0  0  0  0  0  0  0  0  0  0  0
   29.6890   47.9260   -5.3470 C   0  0  0  0  0  0  0  0  0  0  0  0
   30.6400   48.1490   -4.3800 C   0  0  0  0  0  0  0  0  0  0  0  0
   30.9380   45.8840   -4.4210 C   0  0  0  0  0  0  0  0  0  0  0  0
   28.9720   49.0520   -5.5940 O   0  0  0  0  0  0  0  0  0  0  0  0
   31.4520   47.1200   -4.0090 N   0  0  0  0  0  0  0  0  0  0  0  0
   29.4780   50.0140   -4.7650 C   0  0  0  0  0  0  0  0  0  0  0  0
   30.5210   49.5040   -3.9840 C   0  0  0  0  0  0  0  0  0  0  0  0
   32.8390   47.3070   -3.5110 N   0  0  0  0  0  0  0  0  0  0  0  0
   31.1490   50.3750   -3.0710 C   0  0  0  0  0  0  0  0  0  0  0  0
   29.0210   51.3290   -4.6990 C   0  0  0  0  0  0  0  0  0  0  0  0
   30.7070   51.7050   -2.9860 C   0  0  0  0  0  0  0  0  0  0  0  0
   29.6610   52.1730   -3.7880 C   0  0  0  0  0  0  0  0  0  0  0  0
   34.0060   46.5870   -4.2080 S   0  0  2  0  0  0  0  0  0  0  0  0
   34.3590   46.6020   -5.6070 O   0  0  0  0  0  0  0  0  0  0  0  0
   33.8080   44.9540   -3.8350 N   0  0  0  0  0  0  0  0  0  0  0  0
   35.4370   46.7950   -3.2590 C   0  0  0  0  0  0  0  0  0  0  0  0
   34.8410   44.4850   -3.0630 C   0  0  0  0  0  0  0  0  0  0  0  0
   35.7790   45.5710   -2.6950 C   0  0  0  0  0  0  0  0  0  0  0  0
   36.1670   47.9490   -3.0530 C   0  0  0  0  0  0  0  0  0  0  0  0
   34.9880   43.3260   -2.7160 O   0  0  0  0  0  0  0  0  0  0  0  0
   37.2960   47.8460   -2.2370 C   0  0  0  0  0  0  0  0  0  0  0  0
   36.8950   45.4600   -1.8830 C   0  0  0  0  0  0  0  0  0  0  0  0
   37.6570   46.6120   -1.6570 C   0  0  0  0  0  0  0  0  0  0  0  0
  1  2  2  0
  2  3  1  0
  2  4  1  0
  4  5  2  0
  3  6  2  0
  4  7  1  0
  5  8  1  0
  6  8  1  0
  7  9  1  0
  5 10  1  0
  9 10  2  0
  8 11  1  0
 10 12  1  0
  9 13  1  0
 12 14  2  0
 13 15  2  0
 14 15  1  0
 11 16  2  0
 16 17  2  0
 16 18  1  1
 16 19  1  0
 18 20  1  0
 19 21  2  0
 20 21  1  0
 19 22  1  0
 20 23  2  0
 22 24  2  0
 21 25  1  0
 24 26  1  0
 25 26  2  0
M  END
