mac-x0148-mac-x0397
     RDKit          3D

 23 27  0  0  0  0  0  0  0  0999 V2000
   29.2220   50.6300   -3.3860 Cl  0  0  0  0  0  0  0  0  0  0  0  0
   29.8680   50.4430   -5.0610 C   0  0  1  0  0  0  0  0  0  0  0  0
   29.5050   49.1780   -5.8640 C   0  0  0  0  0  0  0  0  0  0  0  0
   29.1780   51.5170   -5.9740 C   0  0  1  0  0  0  0  0  0  0  0  0
   28.5290   49.5170   -6.8090 C   0  0  0  0  0  0  0  0  0  0  0  0
   29.9040   47.8350   -5.8920 C   0  0  0  0  0  0  0  0  0  0  0  0
   28.1770   50.8580   -6.6850 N   0  0  0  0  0  0  0  0  0  0  0  0
   28.7640   52.8200   -5.4900 N   0  0  0  0  0  0  0  0  0  0  0  0
   30.1000   52.4070   -7.2200 S   0  0  0  0  0  0  0  0  0  0  0  0
   30.8670   47.2250   -5.0550 N   0  0  0  0  0  0  0  0  0  0  0  0
   29.3590   46.9980   -6.8000 N   0  0  0  0  0  0  0  0  0  0  0  0
   27.9860   48.7100   -7.7100 N   0  0  0  0  0  0  0  0  0  0  0  0
   28.6300   53.3620   -6.8180 C   0  0  2  0  0  0  0  0  0  0  0  0
   28.8480   54.7820   -6.8400 N   0  0  0  0  0  0  0  0  0  0  0  0
   31.2200   47.9180   -3.7830 C   0  0  1  0  0  0  0  0  0  0  0  0
   31.8810   46.5470   -5.8970 C   0  0  0  0  0  0  0  0  0  0  0  0
   28.4430   47.4690   -7.6560 C   0  0  0  0  0  0  0  0  0  0  0  0
   30.2190   47.7820   -2.6380 C   0  0  0  0  0  0  0  0  0  0  0  0
   32.5280   47.3990   -3.1470 C   0  0  1  0  0  0  0  0  0  0  0  0
   33.2160   46.2850   -5.2130 C   0  0  0  0  0  0  0  0  0  0  0  0
   32.2330   47.2920   -1.6620 C   0  0  0  0  0  0  0  0  0  0  0  0
   30.9800   47.9320   -1.4300 O   0  0  0  0  0  0  0  0  0  0  0  0
   33.0280   46.0870   -3.7360 C   0  0  0  0  0  0  0  0  0  0  0  0
  2  1  1  1
  2  3  1  0
  2  4  1  0
  3  5  2  0
  3  6  1  0
  4  7  1  6
  5  7  1  0
  4  8  1  0
  4  9  1  0
  6 10  1  0
  6 11  2  0
  5 12  1  0
  8 13  1  0
  9 13  1  0
 13 14  1  1
 10 15  1  0
 10 16  1  0
 11 17  1  0
 12 17  2  0
 15 18  1  1
 15 19  1  0
 16 20  1  0
 19 21  1  1
 18 22  1  0
 21 22  1  0
 19 23  1  0
 20 23  1  0
M  END
