mac-x0584-mac-x0283
     RDKit          3D

 23 27  0  0  0  0  0  0  0  0999 V2000
   27.6650   52.8000   -4.1040 N   0  0  0  0  0  0  0  0  0  0  0  0
   28.6160   53.0430   -5.1730 C   0  0  1  0  0  0  0  0  0  0  0  0
   29.6900   53.7860   -4.5220 N   0  0  0  0  0  0  0  0  0  0  0  0
   29.2770   51.7880   -5.8140 C   0  0  2  0  0  0  0  0  0  0  0  0
   28.6530   51.3430   -7.0670 N   0  0  0  0  0  0  0  0  0  0  0  0
   29.2300   50.5590   -4.8610 C   0  0  0  0  0  0  0  0  0  0  0  0
   30.9450   53.1150   -4.8760 O   0  0  0  0  0  0  0  0  0  0  0  0
   30.6920   52.2840   -6.0140 C   0  0  0  0  0  0  0  0  0  0  0  0
   28.9420   49.9550   -7.0990 C   0  0  0  0  0  0  0  0  0  0  0  0
   29.2830   49.4400   -5.8500 C   0  0  0  0  0  0  0  0  0  0  0  0
   28.8800   49.2580   -8.2250 N   0  0  0  0  0  0  0  0  0  0  0  0
   29.5820   48.1000   -5.7640 C   0  0  0  0  0  0  0  0  0  0  0  0
   29.9380   47.4110   -4.6280 N   0  0  0  0  0  0  0  0  0  0  0  0
   29.5230   47.3700   -6.9030 N   0  0  0  0  0  0  0  0  0  0  0  0
   29.1830   47.9710   -8.0590 C   0  0  0  0  0  0  0  0  0  0  0  0
   31.2520   46.9190   -4.2250 C   0  0  2  0  0  0  0  0  0  0  0  0
   29.0480   47.5730   -3.4670 C   0  0  0  0  0  0  0  0  0  0  0  0
   31.8120   45.8190   -5.1410 C   0  0  0  0  0  0  0  0  0  0  0  0
   30.9960   46.3590   -2.8140 C   0  0  0  0  0  0  0  0  0  0  0  0
   29.9160   47.2650   -2.2510 C   0  0  0  0  0  0  0  0  0  0  0  0
   32.5070   44.5610   -4.5370 C   0  0  0  0  0  0  0  0  0  0  0  0
   33.1380   46.0250   -5.9390 C   0  0  0  0  0  0  0  0  0  0  0  0
   33.8520   45.2640   -4.8050 C   0  0  0  0  0  0  0  0  0  0  0  0
  2  1  1  1
  2  3  1  0
  2  4  1  0
  4  5  1  0
  4  6  1  1
  3  7  1  0
  4  8  1  0
  7  8  1  0
  5  9  1  0
  6 10  1  0
  9 10  2  0
  9 11  1  0
 10 12  1  0
 12 13  1  0
 12 14  2  0
 11 15  2  0
 14 15  1  0
 13 16  1  0
 13 17  1  0
 16 18  1  6
 16 19  1  0
 17 20  1  0
 19 20  1  0
 18 21  1  0
 18 22  1  0
 21 23  1  0
 22 23  1  0
M  END
