mac-x0148-mac-x0375
     RDKit          3D

 29 33  0  0  0  0  0  0  0  0999 V2000
   32.3470   43.5280   -5.8590 O   0  0  0  0  0  0  0  0  0  0  0  0
   33.4500   44.2600   -5.5640 C   0  0  0  0  0  0  0  0  0  0  0  0
   34.3970   44.3360   -6.3330 O   0  0  0  0  0  0  0  0  0  0  0  0
   33.3780   44.9640   -4.1950 C   0  0  1  0  0  0  0  0  0  0  0  0
   34.5190   44.6370   -3.3870 O   0  0  0  0  0  0  0  0  0  0  0  0
   33.2790   46.5070   -4.3630 C   0  0  2  0  0  0  0  0  0  0  0  0
   32.1760   47.2780   -3.6100 C   0  0  2  0  0  0  0  0  0  0  0  0
   33.1530   46.8640   -5.8620 C   0  0  0  0  0  0  0  0  0  0  0  0
   35.4550   45.6200   -3.2000 C   0  0  0  0  0  0  0  0  0  0  0  0
   31.9320   47.1620   -2.1210 C   0  0  0  0  0  0  0  0  0  0  0  0
   30.7830   47.0150   -4.1540 C   0  0  1  0  0  0  0  0  0  0  0  0
   31.7460   46.6050   -6.4030 C   0  0  0  0  0  0  0  0  0  0  0  0
   36.7270   45.6360   -3.7650 C   0  0  0  0  0  0  0  0  0  0  0  0
   35.0550   46.6700   -2.3690 C   0  0  0  0  0  0  0  0  0  0  0  0
   30.6370   47.7620   -1.9100 O   0  0  0  0  0  0  0  0  0  0  0  0
   30.0000   47.9140   -3.2010 C   0  0  0  0  0  0  0  0  0  0  0  0
   30.7360   47.3210   -5.5990 N   0  0  0  0  0  0  0  0  0  0  0  0
   37.5940   46.7000   -3.4990 C   0  0  0  0  0  0  0  0  0  0  0  0
   35.9180   47.7300   -2.1060 C   0  0  0  0  0  0  0  0  0  0  0  0
   29.7090   48.0190   -6.2380 C   0  0  0  0  0  0  0  0  0  0  0  0
   37.1900   47.7450   -2.6720 C   0  0  0  0  0  0  0  0  0  0  0  0
   28.8860   47.3740   -7.1450 N   0  0  0  0  0  0  0  0  0  0  0  0
   29.4380   49.3270   -6.0600 C   0  0  0  0  0  0  0  0  0  0  0  0
   27.8840   48.0150   -7.8160 C   0  0  0  0  0  0  0  0  0  0  0  0
   28.3290   49.9600   -6.8140 C   0  0  0  0  0  0  0  0  0  0  0  0
   29.9560   50.4050   -5.2800 C   0  0  0  0  0  0  0  0  0  0  0  0
   27.5650   49.2610   -7.7010 N   0  0  0  0  0  0  0  0  0  0  0  0
   28.1950   51.2290   -6.5300 N   0  0  0  0  0  0  0  0  0  0  0  0
   29.1950   51.4670   -5.5980 C   0  0  0  0  0  0  0  0  0  0  0  0
  1  2  1  0
  2  3  2  0
  2  4  1  0
  4  5  1  1
  4  6  1  0
  6  7  1  0
  6  8  1  6
  5  9  1  0
  7 10  1  1
  7 11  1  0
  8 12  1  0
  9 13  2  0
  9 14  1  0
 10 15  1  0
 11 16  1  1
 15 16  1  0
 11 17  1  0
 12 17  1  0
 13 18  1  0
 14 19  2  0
 17 20  1  0
 18 21  2  0
 19 21  1  0
 20 22  1  0
 20 23  2  0
 22 24  1  0
 23 25  1  0
 23 26  1  0
 24 27  2  0
 25 27  1  0
 25 28  2  0
 26 29  2  0
 28 29  1  0
M  END
