mac-x0255-mac-x0472
     RDKit          3D

 29 32  0  0  0  0  0  0  0  0999 V2000
   31.4890   44.4670   -7.0920 O   0  0  0  0  0  0  0  0  0  0  0  0
   32.4370   44.4700   -6.1270 C   0  0  0  0  0  0  0  0  0  0  0  0
   33.3200   43.6290   -6.1520 O   0  0  0  0  0  0  0  0  0  0  0  0
   32.2170   45.5920   -5.1230 C   0  0  0  0  0  0  0  0  0  0  0  0
   30.9250   45.4980   -4.3360 C   0  0  0  0  0  0  0  0  0  0  0  0
   30.1800   44.4090   -4.4310 C   0  0  0  0  0  0  0  0  0  0  0  0
   30.3630   46.8890   -3.2230 S   0  0  0  0  0  0  0  0  0  0  0  0
   31.9090   47.0850   -4.1680 C   0  0  0  0  0  0  0  0  0  0  0  0
   28.9600   44.3480   -3.6770 C   0  0  2  0  0  0  0  0  0  0  0  0
   29.0280   45.6650   -2.9910 C   0  0  0  0  0  0  0  0  0  0  0  0
   32.4930   48.4150   -3.9740 N   0  0  0  0  0  0  0  0  0  0  0  0
   28.8430   43.3140   -2.6060 C   0  0  0  0  0  0  0  0  0  0  0  0
   27.9270   45.9590   -2.0700 C   0  0  0  0  0  0  0  0  0  0  0  0
   31.6160   49.6500   -4.1690 S   0  0  2  0  0  0  0  0  0  0  0  0
   28.1490   43.5950   -1.4910 C   0  0  0  0  0  0  0  0  0  0  0  0
   27.5270   44.9020   -1.3460 C   0  0  0  0  0  0  0  0  0  0  0  0
   30.8050   50.2810   -3.1490 O   0  0  0  0  0  0  0  0  0  0  0  0
   30.5510   49.1730   -5.3780 N   0  0  0  0  0  0  0  0  0  0  0  0
   32.6130   50.9240   -4.9120 C   0  0  0  0  0  0  0  0  0  0  0  0
   29.9200   50.0600   -6.1880 C   0  0  0  0  0  0  0  0  0  0  0  0
   33.6180   50.5910   -5.8250 C   0  0  0  0  0  0  0  0  0  0  0  0
   32.3770   52.2590   -4.5700 C   0  0  0  0  0  0  0  0  0  0  0  0
   29.2590   49.6650   -7.2640 N   0  0  0  0  0  0  0  0  0  0  0  0
   29.8610   51.7760   -5.9820 S   0  0  0  0  0  0  0  0  0  0  0  0
   34.3890   51.6030   -6.3970 C   0  0  0  0  0  0  0  0  0  0  0  0
   33.1500   53.2650   -5.1480 C   0  0  0  0  0  0  0  0  0  0  0  0
   28.9210   51.8570   -7.4050 C   0  0  0  0  0  0  0  0  0  0  0  0
   28.6800   50.6980   -7.9700 N   0  0  0  0  0  0  0  0  0  0  0  0
   34.1560   52.9370   -6.0610 C   0  0  0  0  0  0  0  0  0  0  0  0
  1  2  1  0
  2  3  2  0
  2  4  1  0
  4  5  1  0
  5  6  2  0
  5  7  1  0
  7  8  1  0
  9  6  1  1
  7 10  2  0
  9 10  1  0
  8 11  1  0
  9 12  1  0
 10 13  1  0
 11 14  2  0
 12 15  2  0
 13 16  2  0
 15 16  1  0
 14 17  2  0
 14 18  1  6
 14 19  1  0
 18 20  1  0
 19 21  2  0
 19 22  1  0
 20 23  2  0
 20 24  1  0
 21 25  1  0
 22 26  2  0
 24 27  1  0
 23 28  1  0
 27 28  2  0
 25 29  2  0
 26 29  1  0
M  END
