mac-x0301-mac-x0348
     RDKit          3D

 25 28  0  0  0  0  0  0  0  0999 V2000
   30.2270   45.7950   -4.2120 O   0  0  0  0  0  0  0  0  0  0  0  0
   31.1050   46.8220   -4.6290 C   0  0  1  0  0  0  0  0  0  0  0  0
   31.9360   47.2190   -3.5300 O   0  0  0  0  0  0  0  0  0  0  0  0
   29.3200   46.1940   -3.1850 C   0  0  1  0  0  0  0  0  0  0  0  0
   32.0280   46.3310   -5.8130 C   0  0  0  0  0  0  0  0  0  0  0  0
   30.2140   48.0020   -5.0150 C   0  0  0  0  0  0  0  0  0  0  0  0
   28.5380   44.9650   -2.7220 C   0  0  0  0  0  0  0  0  0  0  0  0
   30.0460   46.5650   -1.8810 C   0  0  2  0  0  0  0  0  0  0  0  0
   31.6960   45.7760   -6.8510 O   0  0  0  0  0  0  0  0  0  0  0  0
   33.3520   46.5890   -5.6010 O   0  0  0  0  0  0  0  0  0  0  0  0
   29.6500   48.1190   -6.2740 C   0  0  0  0  0  0  0  0  0  0  0  0
   29.9090   49.0520   -4.1110 C   0  0  0  0  0  0  0  0  0  0  0  0
   27.9760   45.4010   -1.4370 N   0  0  0  0  0  0  0  0  0  0  0  0
   29.1060   46.0370   -0.7350 C   0  0  2  0  0  0  0  0  0  0  0  0
   30.6380   47.9450   -1.6640 C   0  0  0  0  0  0  0  0  0  0  0  0
   27.3900   44.2810   -0.7190 C   0  0  0  0  0  0  0  0  0  0  0  0
   28.8500   49.1860   -6.6310 C   0  0  0  0  0  0  0  0  0  0  0  0
   29.0910   50.1400   -4.4750 C   0  0  0  0  0  0  0  0  0  0  0  0
   29.7910   47.2420   -7.3040 O   0  0  0  0  0  0  0  0  0  0  0  0
   30.2820   48.7130   -0.6250 C   0  0  0  0  0  0  0  0  0  0  0  0
   28.7550   47.0600    0.3170 C   0  0  0  0  0  0  0  0  0  0  0  0
   28.5530   50.2100   -5.7600 C   0  0  0  0  0  0  0  0  0  0  0  0
   28.4090   49.0960   -7.9170 O   0  0  0  0  0  0  0  0  0  0  0  0
   28.8550   47.7740   -8.2590 C   0  0  0  0  0  0  0  0  0  0  0  0
   29.3090   48.2810    0.3490 C   0  0  0  0  0  0  0  0  0  0  0  0
  2  1  1  0
  2  3  1  1
  4  1  1  6
  2  5  1  0
  2  6  1  0
  4  7  1  0
  4  8  1  0
  5  9  2  0
  5 10  1  0
  6 11  1  0
  6 12  2  0
  7 13  1  0
  8 14  1  0
 13 14  1  0
  8 15  1  1
 13 16  1  0
 11 17  2  0
 12 18  1  0
 11 19  1  0
 15 20  2  0
 14 21  1  6
 17 22  1  0
 18 22  2  0
 17 23  1  0
 19 24  1  0
 23 24  1  0
 20 25  1  0
 21 25  2  0
M  END
