mac-x0131-mac-x0115
     RDKit          3D

 28 30  0  0  0  0  0  0  0  0999 V2000
   31.3300   49.1550   -2.6680 C   0  0  0  0  0  0  0  0  0  0  0  0
   30.3970   48.7940   -3.8450 C   0  0  2  0  0  0  0  0  0  0  0  0
   29.5610   50.0800   -4.2170 C   0  0  1  0  0  0  0  0  0  0  0  0
   29.5200   47.6340   -3.5820 N   0  0  0  0  0  0  0  0  0  0  0  0
   30.4280   51.3500   -4.1940 C   0  0  0  0  0  0  0  0  0  0  0  0
   29.9620   46.2300   -3.8820 C   0  0  1  0  0  0  0  0  0  0  0  0
   28.6670   50.0620   -5.4870 C   0  0  0  0  0  0  0  0  0  0  0  0
   28.1310   47.8810   -4.0000 C   0  0  0  0  0  0  0  0  0  0  0  0
   29.4890   45.2900   -2.6510 C   0  0  0  0  0  0  0  0  0  0  0  0
   29.2590   45.5730   -5.0900 C   0  0  0  0  0  0  0  0  0  0  0  0
   29.1740   49.4620   -6.8110 C   0  0  2  0  0  0  0  0  0  0  0  0
   31.5060   46.1090   -4.1130 C   0  0  0  0  0  0  0  0  0  0  0  0
   28.7840   50.4190   -7.8500 N   0  0  0  0  0  0  0  0  0  0  0  0
   29.8340   45.8060   -1.2400 C   0  0  0  0  0  0  0  0  0  0  0  0
   29.9100   43.8160   -2.7540 C   0  0  0  0  0  0  0  0  0  0  0  0
   29.1890   45.5480   -6.4250 C   0  0  0  0  0  0  0  0  0  0  0  0
   28.4990   48.2770   -7.2900 N   0  0  0  0  0  0  0  0  0  0  0  0
   32.2990   45.1420   -4.7130 C   0  0  0  0  0  0  0  0  0  0  0  0
   32.3220   47.1200   -3.6640 O   0  0  0  0  0  0  0  0  0  0  0  0
   29.2540   47.3780   -8.1090 C   0  0  2  0  0  0  0  0  0  0  0  0
   33.5990   46.7930   -3.9810 C   0  0  0  0  0  0  0  0  0  0  0  0
   33.6430   45.5840   -4.6270 C   0  0  0  0  0  0  0  0  0  0  0  0
   29.8360   46.2160   -7.4670 N   0  0  0  0  0  0  0  0  0  0  0  0
   30.2750   48.1350   -8.6900 O   0  0  0  0  0  0  0  0  0  0  0  0
   30.1360   45.3710   -8.5520 C   0  0  0  0  0  0  0  0  0  0  0  0
   28.5150   46.9080   -9.2340 N   0  0  0  0  0  0  0  0  0  0  0  0
   31.2220   44.0980   -8.6070 S   0  0  0  0  0  0  0  0  0  0  0  0
   29.2840   45.7750   -9.7240 C   0  0  0  0  0  0  0  0  0  0  0  0
  2  1  1  1
  2  3  1  0
  2  4  1  0
  3  5  1  6
  4  6  1  0
  3  7  1  0
  4  8  1  0
  6  9  1  1
  6 10  1  0
  7 11  1  0
  6 12  1  0
 11 13  1  6
  9 14  1  0
  9 15  1  0
 10 16  2  0
 11 17  1  0
 12 18  2  0
 12 19  1  0
 17 20  1  0
 19 21  1  0
 18 22  1  0
 21 22  2  0
 16 23  1  0
 20 23  1  0
 20 24  1  6
 23 25  1  0
 20 26  1  0
 25 27  2  0
 25 28  1  0
 26 28  1  0
M  END
