mac-x0496-mac-x0567
     RDKit          3D

 24 26  0  0  0  0  0  0  0  0999 V2000
   24.5950   58.4970   -6.1310 C   0  0  0  0  0  0  0  0  0  0  0  0
   25.9280   58.2660   -5.5410 C   0  0  0  0  0  0  0  0  0  0  0  0
   26.3150   58.8150   -4.3810 N   0  0  0  0  0  0  0  0  0  0  0  0
   26.8610   57.4690   -6.1420 N   0  0  0  0  0  0  0  0  0  0  0  0
   27.6170   58.3290   -4.2180 O   0  0  0  0  0  0  0  0  0  0  0  0
   27.8720   57.5360   -5.3040 C   0  0  0  0  0  0  0  0  0  0  0  0
   29.2040   56.8850   -5.3780 C   0  0  0  0  0  0  0  0  0  0  0  0
   29.0800   55.4850   -5.7540 N   0  0  0  0  0  0  0  0  0  0  0  0
   29.0880   54.4950   -4.7940 C   0  0  0  0  0  0  0  0  0  0  0  0
   29.0400   54.7530   -3.5950 O   0  0  0  0  0  0  0  0  0  0  0  0
   29.1790   53.0560   -5.3470 C   0  0  2  0  0  0  0  0  0  0  0  0
   27.9640   52.6070   -6.0930 C   0  0  0  0  0  0  0  0  0  0  0  0
   29.4910   52.0050   -4.2810 C   0  0  0  0  0  0  0  0  0  0  0  0
   27.8370   51.3300   -6.4770 C   0  0  0  0  0  0  0  0  0  0  0  0
   29.7260   50.5860   -4.8730 C   0  0  1  0  0  0  0  0  0  0  0  0
   29.5780   49.5350   -3.7690 C   0  0  0  0  0  0  0  0  0  0  0  0
   28.9080   50.2950   -6.1990 C   0  0  2  0  0  0  0  0  0  0  0  0
   29.4970   48.3240   -3.8710 O   0  0  0  0  0  0  0  0  0  0  0  0
   29.5470   50.0790   -2.5330 O   0  0  0  0  0  0  0  0  0  0  0  0
   29.7640   50.4070   -7.4110 N   0  0  0  0  0  0  0  0  0  0  0  0
   28.4540   48.8360   -6.3820 C   0  0  0  0  0  0  0  0  0  0  0  0
   28.6630   48.4540   -7.8400 C   0  0  1  0  0  0  0  0  0  0  0  0
   29.1110   49.6650   -8.4800 N   0  0  0  0  0  0  0  0  0  0  0  0
   29.7300   47.4900   -8.0460 N   0  0  0  0  0  0  0  0  0  0  0  0
  1  2  1  0
  2  3  2  0
  2  4  1  0
  3  5  1  0
  4  6  2  0
  5  6  1  0
  6  7  1  0
  7  8  1  0
  8  9  1  0
  9 10  2  0
 11  9  1  1
 11 12  1  0
 11 13  1  0
 12 14  2  0
 13 15  1  0
 15 16  1  1
 17 14  1  6
 15 17  1  0
 16 18  2  0
 16 19  1  0
 17 20  1  0
 17 21  1  0
 21 22  1  0
 20 23  1  0
 22 23  1  0
 22 24  1  1
M  END
