mac-x0451-mac-x0404
     RDKit          3D

 27 30  0  0  0  0  0  0  0  0999 V2000
   28.2480   53.9470   -7.6760 N   0  0  0  0  0  0  0  0  0  0  0  0
   28.7660   52.8140   -7.1700 C   0  0  0  0  0  0  0  0  0  0  0  0
   28.8370   52.5790   -5.8840 N   0  0  0  0  0  0  0  0  0  0  0  0
   29.3780   51.5830   -8.1930 S   0  0  0  0  0  0  0  0  0  0  0  0
   29.4150   51.3380   -5.6650 C   0  0  0  0  0  0  0  0  0  0  0  0
   29.7810   50.6400   -6.8130 C   0  0  0  0  0  0  0  0  0  0  0  0
   29.6550   50.7440   -4.4090 C   0  0  0  0  0  0  0  0  0  0  0  0
   30.3780   49.3710   -6.7460 C   0  0  0  0  0  0  0  0  0  0  0  0
   30.2500   49.4790   -4.3320 C   0  0  0  0  0  0  0  0  0  0  0  0
   30.6120   48.7930   -5.4940 C   0  0  0  0  0  0  0  0  0  0  0  0
   31.2000   47.5590   -5.5560 O   0  0  0  0  0  0  0  0  0  0  0  0
   30.4580   46.4660   -6.0970 C   0  0  0  0  0  0  0  0  0  0  0  0
   31.2910   45.4110   -6.5900 O   0  0  0  0  0  0  0  0  0  0  0  0
   32.5630   45.3910   -6.0860 C   0  0  0  0  0  0  0  0  0  0  0  0
   33.5430   45.8720   -6.6350 O   0  0  0  0  0  0  0  0  0  0  0  0
   32.5580   44.6710   -4.7410 C   0  0  0  0  0  0  0  0  0  0  0  0
   31.2790   44.7440   -4.1250 O   0  0  0  0  0  0  0  0  0  0  0  0
   31.0550   45.7310   -3.1920 C   0  0  0  0  0  0  0  0  0  0  0  0
   29.8260   45.6460   -2.4880 C   0  0  0  0  0  0  0  0  0  0  0  0
   31.9470   46.7750   -2.9150 C   0  0  0  0  0  0  0  0  0  0  0  0
   29.5200   46.6250   -1.5130 C   0  0  0  0  0  0  0  0  0  0  0  0
   31.6340   47.7310   -1.9520 C   0  0  0  0  0  0  0  0  0  0  0  0
   28.8820   44.6210   -2.7170 C   0  0  0  0  0  0  0  0  0  0  0  0
   30.4290   47.6590   -1.2560 C   0  0  0  0  0  0  0  0  0  0  0  0
   28.3070   46.5560   -0.8080 C   0  0  0  0  0  0  0  0  0  0  0  0
   27.6810   44.5620   -2.0090 C   0  0  0  0  0  0  0  0  0  0  0  0
   27.3930   45.5300   -1.0540 C   0  0  0  0  0  0  0  0  0  0  0  0
  1  2  1  0
  2  3  2  0
  2  4  1  0
  3  5  1  0
  4  6  1  0
  5  6  2  0
  5  7  1  0
  6  8  1  0
  7  9  2  0
  8 10  2  0
  9 10  1  0
 10 11  1  0
 11 12  1  0
 12 13  1  0
 13 14  1  0
 14 15  2  0
 14 16  1  0
 16 17  1  0
 17 18  1  0
 18 19  1  0
 18 20  2  0
 19 21  2  0
 20 22  1  0
 19 23  1  0
 21 24  1  0
 22 24  2  0
 21 25  1  0
 23 26  2  0
 25 27  2  0
 26 27  1  0
M  END
