mac-x0510-mac-x0415
     RDKit          3D

 27 30  0  0  0  0  0  0  0  0999 V2000
   28.8740   53.2550   -5.8600 O   0  0  0  0  0  0  0  0  0  0  0  0
   28.9300   52.0310   -5.9440 C   0  0  0  0  0  0  0  0  0  0  0  0
   29.2010   51.2500   -4.8410 N   0  0  0  0  0  0  0  0  0  0  0  0
   28.7280   51.3760   -7.1320 N   0  0  0  0  0  0  0  0  0  0  0  0
   28.7900   50.0160   -7.1870 C   0  0  0  0  0  0  0  0  0  0  0  0
   29.2700   49.8760   -4.7930 C   0  0  0  0  0  0  0  0  0  0  0  0
   29.5100   49.3860   -3.6440 N   0  0  0  0  0  0  0  0  0  0  0  0
   29.0520   49.2670   -6.0660 C   0  0  0  0  0  0  0  0  0  0  0  0
   28.6100   49.2640   -8.3060 N   0  0  0  0  0  0  0  0  0  0  0  0
   29.6970   50.1750   -2.4240 C   0  0  0  0  0  0  0  0  0  0  0  0
   29.0320   47.9800   -6.5260 N   0  0  0  0  0  0  0  0  0  0  0  0
   28.7630   48.0250   -7.8720 C   0  0  0  0  0  0  0  0  0  0  0  0
   30.9420   49.7570   -1.6370 C   0  0  0  0  0  0  0  0  0  0  0  0
   30.5730   48.6850   -0.7610 O   0  0  0  0  0  0  0  0  0  0  0  0
   30.2830   47.5110   -1.4300 C   0  0  0  0  0  0  0  0  0  0  0  0
   29.3030   46.6300   -0.7900 C   0  0  0  0  0  0  0  0  0  0  0  0
   30.8600   47.1670   -2.6090 C   0  0  0  0  0  0  0  0  0  0  0  0
   30.4630   45.9110   -3.1810 C   0  0  0  0  0  0  0  0  0  0  0  0
   28.7070   45.6380   -1.4940 C   0  0  0  0  0  0  0  0  0  0  0  0
   31.1570   45.0490   -3.9230 C   0  0  0  0  0  0  0  0  0  0  0  0
   29.0570   45.4710   -2.9380 C   0  0  2  0  0  0  0  0  0  0  0  0
   32.5450   45.0460   -4.4530 C   0  0  0  0  0  0  0  0  0  0  0  0
   30.1560   43.9790   -4.0900 C   0  0  0  0  0  0  0  0  0  0  0  0
   28.9800   44.1270   -3.5440 N   0  0  0  0  0  0  0  0  0  0  0  0
   32.6280   45.8160   -5.7650 C   0  0  0  0  0  0  0  0  0  0  0  0
   33.7250   46.5890   -5.9060 O   0  0  0  0  0  0  0  0  0  0  0  0
   31.7760   45.7580   -6.6490 O   0  0  0  0  0  0  0  0  0  0  0  0
  1  2  2  0
  2  3  1  0
  2  4  1  0
  4  5  1  0
  3  6  1  0
  6  7  2  3
  5  8  2  0
  6  8  1  0
  5  9  1  0
  7 10  1  0
  8 11  1  0
  9 12  2  0
 11 12  1  0
 10 13  1  0
 13 14  1  0
 14 15  1  0
 15 16  1  0
 15 17  2  0
 17 18  1  0
 16 19  2  0
 18 20  2  0
 18 21  1  0
 21 19  1  1
 20 22  1  0
 20 23  1  0
 21 24  1  0
 23 24  2  0
 22 25  1  0
 25 26  1  0
 25 27  2  0
M  END
