mac-x0392-mac-x0572
     RDKit          3D

 18 19  0  0  0  0  0  0  0  0999 V2000
   29.2150   47.8190   -7.9040 N   0  0  0  0  0  0  0  0  0  0  0  0
   28.9380   48.7240   -6.7680 C   0  0  2  0  0  0  0  0  0  0  0  0
   28.2370   50.0460   -7.1920 C   0  0  0  0  0  0  0  0  0  0  0  0
   30.1810   48.9320   -5.8920 C   0  0  2  0  0  0  0  0  0  0  0  0
   30.3660   47.7550   -4.9350 C   0  0  0  0  0  0  0  0  0  0  0  0
   30.2250   50.2890   -5.1040 C   0  0  0  0  0  0  0  0  0  0  0  0
   28.1060   51.0830   -6.1390 N   0  0  0  0  0  0  0  0  0  0  0  0
   30.7230   47.7930   -3.7700 O   0  0  0  0  0  0  0  0  0  0  0  0
   30.0920   46.5590   -5.5060 O   0  0  0  0  0  0  0  0  0  0  0  0
   29.4260   51.5330   -5.6680 C   0  0  1  0  0  0  0  0  0  0  0  0
   29.4730   52.7950   -4.6780 C   0  0  0  0  0  0  0  0  0  0  0  0
   29.9860   52.1240   -6.9730 C   0  0  0  0  0  0  0  0  0  0  0  0
   29.1920   52.7320   -3.4750 O   0  0  0  0  0  0  0  0  0  0  0  0
   29.9500   54.1920   -5.1910 C   0  0  2  0  0  0  0  0  0  0  0  0
   29.1720   53.2680   -7.4080 N   0  0  0  0  0  0  0  0  0  0  0  0
   29.4950   55.2660   -4.3600 O   0  0  0  0  0  0  0  0  0  0  0  0
   29.5420   54.4690   -6.6560 C   0  0  1  0  0  0  0  0  0  0  0  0
   28.4820   55.5760   -6.7830 C   0  0  0  0  0  0  0  0  0  0  0  0
  2  1  1  6
  2  3  1  0
  2  4  1  0
  4  5  1  1
  4  6  1  0
  3  7  1  0
  5  8  2  0
  5  9  1  0
 10  6  1  1
  7 10  1  0
 10 11  1  0
 10 12  1  0
 11 13  2  0
 11 14  1  0
 12 15  1  0
 14 16  1  1
 14 17  1  0
 15 17  1  0
 17 18  1  1
M  END
