mac-x0179-mac-x0337
     RDKit          3D

 29 31  0  0  0  0  0  0  0  0999 V2000
   31.8850   45.0210   -5.7120 O   0  0  0  0  0  0  0  0  0  0  0  0
   33.0020   45.3340   -5.0240 C   0  0  0  0  0  0  0  0  0  0  0  0
   34.0740   45.4000   -5.6130 O   0  0  0  0  0  0  0  0  0  0  0  0
   32.8010   45.5820   -3.5340 C   0  0  0  0  0  0  0  0  0  0  0  0
   34.0360   45.8710   -2.8150 N   0  0  0  0  0  0  0  0  0  0  0  0
   34.6290   44.8460   -2.1050 C   0  0  0  0  0  0  0  0  0  0  0  0
   34.5550   47.0800   -2.4110 C   0  0  0  0  0  0  0  0  0  0  0  0
   34.2740   43.6870   -1.9840 O   0  0  0  0  0  0  0  0  0  0  0  0
   34.2060   48.3000   -2.5580 N   0  0  0  0  0  0  0  0  0  0  0  0
   35.8220   45.4020   -1.4760 C   0  0  0  0  0  0  0  0  0  0  0  0
   35.7760   46.7650   -1.6620 C   0  0  0  0  0  0  0  0  0  0  0  0
   33.0600   48.8320   -3.2660 C   0  0  0  0  0  0  0  0  0  0  0  0
   36.8580   44.7830   -0.8020 C   0  0  0  0  0  0  0  0  0  0  0  0
   36.7710   47.5980   -1.1810 C   0  0  0  0  0  0  0  0  0  0  0  0
   31.7670   48.6580   -2.4740 C   0  0  0  0  0  0  0  0  0  0  0  0
   37.8780   45.6030   -0.3060 C   0  0  0  0  0  0  0  0  0  0  0  0
   37.8340   47.0000   -0.4950 C   0  0  0  0  0  0  0  0  0  0  0  0
   30.5680   48.4320   -3.3980 C   0  0  0  0  0  0  0  0  0  0  0  0
   29.8170   49.6940   -3.5500 N   0  0  0  0  0  0  0  0  0  0  0  0
   29.8290   50.3800   -4.9160 S   0  0  1  0  0  0  0  0  0  0  0  0
   29.2910   49.8640   -6.1510 O   0  0  0  0  0  0  0  0  0  0  0  0
   28.7730   51.6370   -4.5700 N   0  0  0  0  0  0  0  0  0  0  0  0
   31.4400   51.0370   -5.2020 C   0  0  0  0  0  0  0  0  0  0  0  0
   32.4420   50.1960   -5.6870 C   0  0  0  0  0  0  0  0  0  0  0  0
   31.7020   52.3830   -4.9430 C   0  0  0  0  0  0  0  0  0  0  0  0
   33.7220   50.7080   -5.9130 C   0  0  0  0  0  0  0  0  0  0  0  0
   32.9840   52.8910   -5.1700 C   0  0  0  0  0  0  0  0  0  0  0  0
   34.0020   52.0570   -5.6550 C   0  0  0  0  0  0  0  0  0  0  0  0
   35.3790   52.6040   -5.8970 C   0  0  0  0  0  0  0  0  0  0  0  0
  1  2  1  0
  2  3  2  0
  2  4  1  0
  4  5  1  0
  5  6  1  0
  5  7  1  0
  6  8  2  0
  7  9  2  3
  6 10  1  0
  7 11  1  0
 10 11  2  0
  9 12  1  0
 10 13  1  0
 11 14  1  0
 12 15  1  0
 13 16  2  0
 14 17  2  0
 16 17  1  0
 15 18  1  0
 18 19  1  0
 19 20  2  0
 20 21  2  0
 20 22  1  1
 20 23  1  0
 23 24  2  0
 23 25  1  0
 24 26  1  0
 25 27  2  0
 26 28  2  0
 27 28  1  0
 28 29  1  0
M  END
