mac-x0190-mac-x0131
     RDKit          3D

 28 32  0  0  0  0  0  0  0  0999 V2000
   31.3650   55.9140   -5.7470 O   0  0  0  0  0  0  0  0  0  0  0  0
   31.7150   54.5770   -5.4070 C   0  0  0  0  0  0  0  0  0  0  0  0
   30.4670   53.8860   -4.9900 C   0  0  0  0  0  0  0  0  0  0  0  0
   30.3260   52.5240   -5.0460 N   0  0  0  0  0  0  0  0  0  0  0  0
   29.3720   54.4600   -4.5270 N   0  0  0  0  0  0  0  0  0  0  0  0
   29.0670   52.2000   -4.5980 C   0  0  0  0  0  0  0  0  0  0  0  0
   28.4970   53.4290   -4.2800 C   0  0  0  0  0  0  0  0  0  0  0  0
   28.3850   50.9840   -4.4370 C   0  0  0  0  0  0  0  0  0  0  0  0
   27.1860   53.4710   -3.7790 C   0  0  0  0  0  0  0  0  0  0  0  0
   27.0770   51.0470   -3.9350 C   0  0  0  0  0  0  0  0  0  0  0  0
   26.4850   52.2710   -3.6130 C   0  0  0  0  0  0  0  0  0  0  0  0
   29.0170   49.7230   -4.7790 C   0  0  0  0  0  0  0  0  0  0  0  0
   29.8070   49.0020   -3.8860 C   0  0  0  0  0  0  0  0  0  0  0  0
   28.9690   48.9940   -6.0130 C   0  0  0  0  0  0  0  0  0  0  0  0
   30.1910   49.2940   -2.4720 C   0  0  0  0  0  0  0  0  0  0  0  0
   29.7330   47.8490   -5.8310 C   0  0  0  0  0  0  0  0  0  0  0  0
   30.2340   47.8610   -4.5490 N   0  0  0  0  0  0  0  0  0  0  0  0
   28.3730   49.1480   -7.2790 C   0  0  0  0  0  0  0  0  0  0  0  0
   27.5790   50.2260   -7.6420 N   0  0  0  0  0  0  0  0  0  0  0  0
   31.0860   46.8060   -4.0050 C   0  0  0  0  0  0  0  0  0  0  0  0
   28.5700   48.2020   -8.2210 N   0  0  0  0  0  0  0  0  0  0  0  0
   29.9530   46.8840   -6.7440 N   0  0  0  0  0  0  0  0  0  0  0  0
   29.3360   47.1410   -7.9070 C   0  0  0  0  0  0  0  0  0  0  0  0
   32.4900   46.9020   -4.4820 C   0  0  0  0  0  0  0  0  0  0  0  0
   33.1320   46.6690   -5.6840 C   0  0  0  0  0  0  0  0  0  0  0  0
   33.4010   47.3150   -3.5450 O   0  0  0  0  0  0  0  0  0  0  0  0
   34.6130   47.3420   -4.1530 C   0  0  0  0  0  0  0  0  0  0  0  0
   34.5030   46.9530   -5.4690 C   0  0  0  0  0  0  0  0  0  0  0  0
  1  2  1  0
  2  3  1  0
  3  4  1  0
  3  5  2  0
  4  6  1  0
  5  7  1  0
  6  7  2  0
  6  8  1  0
  7  9  1  0
  8 10  2  0
  9 11  2  0
 10 11  1  0
  8 12  1  0
 12 13  2  0
 12 14  1  0
 13 15  1  0
 14 16  2  0
 13 17  1  0
 16 17  1  0
 14 18  1  0
 18 19  1  0
 17 20  1  0
 18 21  2  0
 16 22  1  0
 21 23  1  0
 22 23  2  0
 20 24  1  0
 24 25  2  0
 24 26  1  0
 26 27  1  0
 25 28  1  0
 27 28  2  0
M  END
