mac-x0303-mac-x0510
     RDKit          3D

 18 20  0  0  0  0  0  0  0  0999 V2000
   30.5800   56.7820   -6.1530 N   0  0  0  0  0  0  0  0  0  0  0  0
   29.3450   56.3040   -5.1140 S   0  0  0  0  0  0  0  0  0  0  0  0
   28.0770   56.7510   -5.6400 O   0  0  0  0  0  0  0  0  0  0  0  0
   29.7780   56.6180   -3.7720 O   0  0  0  0  0  0  0  0  0  0  0  0
   29.2770   54.5390   -5.1850 C   0  0  0  0  0  0  0  0  0  0  0  0
   29.8640   53.7350   -4.2370 N   0  0  0  0  0  0  0  0  0  0  0  0
   28.6740   53.8250   -6.1320 N   0  0  0  0  0  0  0  0  0  0  0  0
   29.6160   52.4450   -4.6050 C   0  0  0  0  0  0  0  0  0  0  0  0
   28.8860   52.5160   -5.7690 C   0  0  0  0  0  0  0  0  0  0  0  0
   30.0420   51.3050   -3.9080 C   0  0  0  0  0  0  0  0  0  0  0  0
   28.4520   51.2920   -6.4340 C   0  0  0  0  0  0  0  0  0  0  0  0
   27.6130   51.2810   -7.3340 O   0  0  0  0  0  0  0  0  0  0  0  0
   29.8190   50.1300   -4.5290 C   0  0  0  0  0  0  0  0  0  0  0  0
   29.1500   49.9810   -5.8990 C   0  0  1  0  0  0  0  0  0  0  0  0
   28.1630   48.8680   -5.8110 N   0  0  0  0  0  0  0  0  0  0  0  0
   30.1600   49.4890   -6.9570 C   0  0  0  0  0  0  0  0  0  0  0  0
   29.5520   48.2650   -7.5210 N   0  0  0  0  0  0  0  0  0  0  0  0
   28.8290   47.7170   -6.3890 C   0  0  0  0  0  0  0  0  0  0  0  0
  2  1  1  0
  2  3  2  0
  2  4  2  0
  2  5  1  0
  5  6  1  0
  5  7  2  0
  6  8  1  0
  7  9  1  0
  8  9  2  0
  8 10  1  0
  9 11  1  0
 11 12  2  0
 10 13  2  0
 14 11  1  0
 14 13  1  1
 14 15  1  0
 14 16  1  0
 16 17  1  0
 15 18  1  0
 17 18  1  0
M  END
