mac-x0124-mac-x0228
     RDKit          3D

 22 25  0  0  0  0  0  0  0  0999 V2000
   30.1800   47.1690   -4.3400 C   0  0  0  0  0  0  0  0  0  0  0  0
   31.1220   48.0770   -3.5960 C   0  0  0  0  0  0  0  0  0  0  0  0
   32.1280   47.6530   -3.0250 O   0  0  0  0  0  0  0  0  0  0  0  0
   29.2750   48.0880   -4.9650 N   0  0  0  0  0  0  0  0  0  0  0  0
   28.4780   48.9470   -4.2540 C   0  0  0  0  0  0  0  0  0  0  0  0
   29.0820   48.2640   -6.3070 C   0  0  0  0  0  0  0  0  0  0  0  0
   30.7760   49.5460   -3.5700 C   0  0  0  0  0  0  0  0  0  0  0  0
   27.7680   49.6990   -5.1530 C   0  0  0  0  0  0  0  0  0  0  0  0
   28.1480   49.2790   -6.4540 C   0  0  0  0  0  0  0  0  0  0  0  0
   29.6900   47.5870   -7.2950 N   0  0  0  0  0  0  0  0  0  0  0  0
   30.6120   50.2170   -4.8050 C   0  0  0  0  0  0  0  0  0  0  0  0
   30.5970   50.2670   -2.3730 C   0  0  0  0  0  0  0  0  0  0  0  0
   27.8100   49.6350   -7.7600 C   0  0  0  0  0  0  0  0  0  0  0  0
   29.2800   48.0160   -8.5010 C   0  0  0  0  0  0  0  0  0  0  0  0
   30.2780   51.5650   -4.8060 C   0  0  0  0  0  0  0  0  0  0  0  0
   30.2630   51.6300   -2.3960 C   0  0  0  0  0  0  0  0  0  0  0  0
   26.9020   50.6370   -8.0630 N   0  0  0  0  0  0  0  0  0  0  0  0
   28.3910   48.9870   -8.7860 N   0  0  0  0  0  0  0  0  0  0  0  0
   30.1070   52.2510   -3.6190 C   0  0  0  0  0  0  0  0  0  0  0  0
   30.0460   52.4820   -5.9460 C   0  0  0  0  0  0  0  0  0  0  0  0
   29.7790   53.5730   -3.7800 O   0  0  0  0  0  0  0  0  0  0  0  0
   29.9500   53.8140   -5.1980 C   0  0  0  0  0  0  0  0  0  0  0  0
  1  2  1  0
  2  3  2  0
  1  4  1  0
  4  5  1  0
  4  6  1  0
  2  7  1  0
  5  8  2  0
  6  9  2  0
  8  9  1  0
  6 10  1  0
  7 11  2  0
  7 12  1  0
  9 13  1  0
 10 14  2  0
 11 15  1  0
 12 16  2  0
 13 17  1  0
 13 18  2  0
 14 18  1  0
 15 19  2  0
 16 19  1  0
 15 20  1  0
 19 21  1  0
 20 22  1  0
 21 22  1  0
M  END
