mac-x0124-mac-x0496
     RDKit          3D

 29 32  0  0  0  0  0  0  0  0999 V2000
   30.5920   45.4320   -5.2430 C   0  0  0  0  0  0  0  0  0  0  0  0
   30.2520   46.8180   -5.4460 N   0  0  0  0  0  0  0  0  0  0  0  0
   30.5610   47.8480   -4.5970 C   0  0  0  0  0  0  0  0  0  0  0  0
   29.5620   47.3000   -6.5330 C   0  0  0  0  0  0  0  0  0  0  0  0
   30.0610   49.0070   -5.1470 C   0  0  0  0  0  0  0  0  0  0  0  0
   29.4210   48.6680   -6.3790 C   0  0  0  0  0  0  0  0  0  0  0  0
   29.1070   46.5630   -7.5580 N   0  0  0  0  0  0  0  0  0  0  0  0
   28.7290   49.3680   -7.3950 C   0  0  0  0  0  0  0  0  0  0  0  0
   28.4700   47.3200   -8.4660 C   0  0  0  0  0  0  0  0  0  0  0  0
   28.5570   50.7480   -7.2730 N   0  0  0  0  0  0  0  0  0  0  0  0
   28.2580   48.6500   -8.4460 N   0  0  0  0  0  0  0  0  0  0  0  0
   28.6450   51.5040   -6.1060 C   0  0  0  0  0  0  0  0  0  0  0  0
   29.0400   52.8400   -6.0380 C   0  0  0  0  0  0  0  0  0  0  0  0
   28.3110   50.8500   -4.9120 C   0  0  0  0  0  0  0  0  0  0  0  0
   28.3680   51.4880   -3.6700 C   0  0  0  0  0  0  0  0  0  0  0  0
   29.1020   53.5020   -4.8040 C   0  0  0  0  0  0  0  0  0  0  0  0
   29.5230   54.9240   -4.6920 C   0  0  0  0  0  0  0  0  0  0  0  0
   28.0050   50.7310   -2.4240 C   0  0  0  0  0  0  0  0  0  0  0  0
   28.7670   52.8230   -3.6270 C   0  0  0  0  0  0  0  0  0  0  0  0
   29.1090   55.7740   -5.6930 N   0  0  0  0  0  0  0  0  0  0  0  0
   30.2040   55.2810   -3.7370 O   0  0  0  0  0  0  0  0  0  0  0  0
   29.1700   50.4700   -1.6510 O   0  0  0  0  0  0  0  0  0  0  0  0
   29.1540   57.2160   -5.5300 C   0  0  0  0  0  0  0  0  0  0  0  0
   27.7760   57.7600   -5.4250 C   0  0  0  0  0  0  0  0  0  0  0  0
   27.4840   58.4580   -4.2850 O   0  0  0  0  0  0  0  0  0  0  0  0
   26.7600   57.6860   -6.2590 N   0  0  0  0  0  0  0  0  0  0  0  0
   25.7870   58.3810   -5.5910 C   0  0  0  0  0  0  0  0  0  0  0  0
   26.1560   58.8720   -4.4010 N   0  0  0  0  0  0  0  0  0  0  0  0
   24.4330   58.5740   -6.1440 C   0  0  0  0  0  0  0  0  0  0  0  0
  1  2  1  0
  2  3  1  0
  2  4  1  0
  3  5  2  0
  4  6  2  0
  5  6  1  0
  4  7  1  0
  6  8  1  0
  7  9  2  0
  8 10  1  0
  8 11  2  0
  9 11  1  0
 10 12  1  0
 12 13  2  0
 12 14  1  0
 14 15  2  0
 13 16  1  0
 16 17  1  0
 15 18  1  0
 15 19  1  0
 16 19  2  0
 17 20  1  0
 17 21  2  0
 18 22  1  0
 20 23  1  0
 23 24  1  0
 24 25  1  0
 24 26  2  0
 26 27  1  0
 25 28  1  0
 27 28  2  0
 27 29  1  0
M  END
