mac-x0137-mac-x0361
     RDKit          3D

 25 28  0  0  0  0  0  0  0  0999 V2000
   30.9570   48.1500   -2.6810 F   0  0  0  0  0  0  0  0  0  0  0  0
   31.8120   48.2660   -3.7320 C   0  0  1  0  0  0  0  0  0  0  0  0
   32.4190   46.9070   -4.0380 C   0  0  0  0  0  0  0  0  0  0  0  0
   31.1390   48.9010   -4.9790 C   0  0  1  0  0  0  0  0  0  0  0  0
   29.9900   48.0340   -5.4230 N   0  0  0  0  0  0  0  0  0  0  0  0
   31.4960   46.0680   -4.9210 C   0  0  0  0  0  0  0  0  0  0  0  0
   30.7360   50.3730   -4.7960 C   0  0  0  0  0  0  0  0  0  0  0  0
   30.0720   46.6200   -4.9700 C   0  0  0  0  0  0  0  0  0  0  0  0
   29.1420   48.3830   -6.5010 C   0  0  0  0  0  0  0  0  0  0  0  0
   31.0320   51.3650   -5.7460 C   0  0  0  0  0  0  0  0  0  0  0  0
   30.0420   50.7720   -3.6360 C   0  0  0  0  0  0  0  0  0  0  0  0
   29.2730   47.7310   -7.7250 N   0  0  0  0  0  0  0  0  0  0  0  0
   28.1660   49.3250   -6.4920 C   0  0  0  0  0  0  0  0  0  0  0  0
   30.6560   52.7010   -5.5580 C   0  0  0  0  0  0  0  0  0  0  0  0
   29.6640   52.1060   -3.4420 C   0  0  0  0  0  0  0  0  0  0  0  0
   28.5000   48.0030   -8.8150 C   0  0  0  0  0  0  0  0  0  0  0  0
   27.3550   49.5720   -7.7230 C   0  0  0  0  0  0  0  0  0  0  0  0
   27.6000   50.2660   -5.5710 C   0  0  0  0  0  0  0  0  0  0  0  0
   29.9680   53.0760   -4.3990 C   0  0  0  0  0  0  0  0  0  0  0  0
   29.5450   54.4810   -4.1470 C   0  0  0  0  0  0  0  0  0  0  0  0
   27.5540   48.8790   -8.8790 N   0  0  0  0  0  0  0  0  0  0  0  0
   26.4530   50.5010   -7.5600 N   0  0  0  0  0  0  0  0  0  0  0  0
   26.6270   50.9030   -6.2460 C   0  0  0  0  0  0  0  0  0  0  0  0
   29.4360   55.3160   -5.2240 N   0  0  0  0  0  0  0  0  0  0  0  0
   29.2990   54.8850   -3.0160 O   0  0  0  0  0  0  0  0  0  0  0  0
  2  1  1  1
  2  3  1  0
  2  4  1  0
  4  5  1  0
  3  6  1  0
  4  7  1  1
  5  8  1  0
  6  8  1  0
  5  9  1  0
  7 10  2  0
  7 11  1  0
  9 12  1  0
  9 13  2  0
 10 14  1  0
 11 15  2  0
 12 16  1  0
 13 17  1  0
 13 18  1  0
 14 19  2  0
 15 19  1  0
 19 20  1  0
 16 21  2  0
 17 21  1  0
 17 22  2  0
 18 23  2  0
 22 23  1  0
 20 24  1  0
 20 25  2  0
M  END
