mac-x0303-mac-x0161
     RDKit          3D

 26 29  0  0  0  0  0  0  0  0999 V2000
   30.5730   56.2350   -6.7570 N   0  0  0  0  0  0  0  0  0  0  0  0
   29.2880   55.9350   -5.7090 S   0  0  0  0  0  0  0  0  0  0  0  0
   28.0760   56.1440   -6.4680 O   0  0  0  0  0  0  0  0  0  0  0  0
   29.5300   56.6010   -4.4530 O   0  0  0  0  0  0  0  0  0  0  0  0
   29.3270   54.1980   -5.3660 C   0  0  0  0  0  0  0  0  0  0  0  0
   29.6970   53.6660   -4.1440 N   0  0  0  0  0  0  0  0  0  0  0  0
   28.9990   53.2520   -6.2460 N   0  0  0  0  0  0  0  0  0  0  0  0
   29.5930   52.3020   -4.2570 C   0  0  0  0  0  0  0  0  0  0  0  0
   29.1580   52.0690   -5.5660 C   0  0  0  0  0  0  0  0  0  0  0  0
   29.8740   51.2480   -3.2030 C   0  0  0  0  0  0  0  0  0  0  0  0
   28.8960   50.6670   -6.0750 C   0  0  1  0  0  0  0  0  0  0  0  0
   29.6110   49.8750   -3.8950 C   0  0  2  0  0  0  0  0  0  0  0  0
   28.3400   50.0780   -4.7710 C   0  0  2  0  0  0  0  0  0  0  0  0
   27.9490   50.5050   -7.2120 N   0  0  0  0  0  0  0  0  0  0  0  0
   30.0350   49.7980   -6.5920 C   0  0  0  0  0  0  0  0  0  0  0  0
   27.4770   48.9330   -4.9990 N   0  0  0  0  0  0  0  0  0  0  0  0
   29.8850   48.4770   -3.2430 C   0  0  0  0  0  0  0  0  0  0  0  0
   29.3240   48.5780   -7.0160 N   0  0  0  0  0  0  0  0  0  0  0  0
   28.1200   49.1050   -7.6390 C   0  0  0  0  0  0  0  0  0  0  0  0
   31.2500   47.9310   -3.5250 C   0  0  0  0  0  0  0  0  0  0  0  0
   32.4340   47.9480   -2.8360 C   0  0  0  0  0  0  0  0  0  0  0  0
   31.4510   47.2680   -4.7100 O   0  0  0  0  0  0  0  0  0  0  0  0
   32.7760   46.8530   -4.8000 N   0  0  0  0  0  0  0  0  0  0  0  0
   33.3390   47.2750   -3.6680 C   0  0  0  0  0  0  0  0  0  0  0  0
   34.6420   47.0680   -3.3810 O   0  0  0  0  0  0  0  0  0  0  0  0
   35.1310   47.8600   -2.3070 C   0  0  0  0  0  0  0  0  0  0  0  0
  2  1  1  0
  2  3  2  0
  2  4  2  0
  2  5  1  0
  5  6  1  0
  5  7  2  0
  6  8  1  0
  7  9  1  0
  8  9  2  0
  8 10  1  0
  9 11  1  0
 10 12  1  0
 11 13  1  0
 12 13  1  0
 11 14  1  0
 11 15  1  6
 13 16  1  6
 12 17  1  1
 15 18  1  0
 14 19  1  0
 18 19  1  0
 17 20  1  0
 20 21  2  0
 20 22  1  0
 22 23  1  0
 21 24  1  0
 23 24  2  0
 24 25  1  0
 25 26  1  0
M  END
