mac-x0392-mac-x0472
     RDKit          3D

 18 19  0  0  0  0  0  0  0  0999 V2000
   29.6590   47.2120   -7.8560 N   0  0  0  0  0  0  0  0  0  0  0  0
   29.4430   48.4520   -7.2320 C   0  0  0  0  0  0  0  0  0  0  0  0
   28.9350   49.5310   -7.9550 C   0  0  0  0  0  0  0  0  0  0  0  0
   29.7070   48.7070   -5.8800 C   0  0  0  0  0  0  0  0  0  0  0  0
   30.2430   47.6800   -4.9760 C   0  0  0  0  0  0  0  0  0  0  0  0
   29.4650   49.9710   -5.3310 C   0  0  0  0  0  0  0  0  0  0  0  0
   28.6890   50.7680   -7.4560 N   0  0  0  0  0  0  0  0  0  0  0  0
   30.8720   47.7650   -3.8560 N   0  0  0  0  0  0  0  0  0  0  0  0
   29.9980   46.4490   -5.4680 O   0  0  0  0  0  0  0  0  0  0  0  0
   28.9620   50.9550   -6.1520 C   0  0  0  0  0  0  0  0  0  0  0  0
   31.2520   49.2680   -3.1120 S   0  0  0  0  0  0  0  0  0  0  0  0
   29.9620   50.0370   -2.9310 O   0  0  0  0  0  0  0  0  0  0  0  0
   32.3510   50.2300   -4.1940 C   0  0  0  0  0  0  0  0  0  0  0  0
   33.3960   49.5880   -4.8600 C   0  0  0  0  0  0  0  0  0  0  0  0
   32.1600   51.6080   -4.3600 C   0  0  0  0  0  0  0  0  0  0  0  0
   34.2520   50.3180   -5.6870 C   0  0  0  0  0  0  0  0  0  0  0  0
   33.0190   52.3340   -5.1890 C   0  0  0  0  0  0  0  0  0  0  0  0
   34.0630   51.6930   -5.8500 C   0  0  0  0  0  0  0  0  0  0  0  0
  1  2  1  0
  2  3  2  0
  2  4  1  0
  4  5  1  0
  4  6  2  0
  3  7  1  0
  5  8  2  3
  5  9  1  0
  6 10  1  0
  7 10  2  0
 11  8  1  6
 11 12  2  0
 11 13  1  0
 13 14  2  0
 13 15  1  0
 14 16  1  0
 15 17  2  0
 16 18  2  0
 17 18  1  0
M  END
