mac-x0124-mac-x0302
     RDKit          3D

 24 26  0  0  0  0  0  0  0  0999 V2000
   30.3310   46.6410   -4.8000 C   0  0  0  0  0  0  0  0  0  0  0  0
   29.6640   45.5160   -4.2100 O   0  0  0  0  0  0  0  0  0  0  0  0
   31.0420   46.1720   -5.9410 O   0  0  0  0  0  0  0  0  0  0  0  0
   31.3610   47.1500   -3.7520 C   0  0  0  0  0  0  0  0  0  0  0  0
   29.3650   47.6710   -5.2080 N   0  0  0  0  0  0  0  0  0  0  0  0
   31.6740   48.5790   -3.8830 N   0  0  0  0  0  0  0  0  0  0  0  0
   28.6520   48.5010   -4.3750 C   0  0  0  0  0  0  0  0  0  0  0  0
   29.0260   47.9690   -6.5170 C   0  0  0  0  0  0  0  0  0  0  0  0
   31.0480   49.5630   -3.1450 C   0  0  0  0  0  0  0  0  0  0  0  0
   27.8640   49.3280   -5.1440 C   0  0  0  0  0  0  0  0  0  0  0  0
   28.0960   48.9980   -6.5040 C   0  0  0  0  0  0  0  0  0  0  0  0
   29.5220   47.3560   -7.6110 N   0  0  0  0  0  0  0  0  0  0  0  0
   30.9370   49.5210   -1.9230 O   0  0  0  0  0  0  0  0  0  0  0  0
   27.6290   49.4490   -7.7460 C   0  0  0  0  0  0  0  0  0  0  0  0
   28.9980   47.8720   -8.7420 C   0  0  0  0  0  0  0  0  0  0  0  0
   30.4970   50.7260   -3.9060 C   0  0  0  0  0  0  0  0  0  0  0  0
   26.7040   50.4670   -7.8940 N   0  0  0  0  0  0  0  0  0  0  0  0
   28.0980   48.8650   -8.8680 N   0  0  0  0  0  0  0  0  0  0  0  0
   29.9980   51.8640   -3.2550 C   0  0  0  0  0  0  0  0  0  0  0  0
   30.4840   50.6640   -5.3070 C   0  0  0  0  0  0  0  0  0  0  0  0
   29.4960   52.9180   -4.0150 C   0  0  0  0  0  0  0  0  0  0  0  0
   29.9760   51.7320   -6.0550 C   0  0  0  0  0  0  0  0  0  0  0  0
   29.0000   54.0470   -3.4300 O   0  0  0  0  0  0  0  0  0  0  0  0
   29.4810   52.8610   -5.4050 C   0  0  0  0  0  0  0  0  0  0  0  0
  1  2  1  0
  1  3  1  0
  1  4  1  0
  1  5  1  0
  4  6  1  0
  5  7  1  0
  5  8  1  0
  6  9  1  0
  7 10  2  0
  8 11  2  0
 10 11  1  0
  8 12  1  0
  9 13  2  0
 11 14  1  0
 12 15  2  0
  9 16  1  0
 14 17  1  0
 14 18  2  0
 15 18  1  0
 16 19  2  0
 16 20  1  0
 19 21  1  0
 20 22  2  0
 21 23  1  0
 21 24  2  0
 22 24  1  0
M  END
