mac-x0357-mac-x0411
     RDKit          3D

 20 21  0  0  0  0  0  0  0  0999 V2000
   32.2300   43.8960   -4.1720 C   0  0  0  0  0  0  0  0  0  0  0  0
   32.9480   45.0830   -4.7590 C   0  0  0  0  0  0  0  0  0  0  0  0
   34.1420   45.5550   -4.1660 C   0  0  0  0  0  0  0  0  0  0  0  0
   32.4430   45.7490   -5.9140 C   0  0  0  0  0  0  0  0  0  0  0  0
   34.7370   45.0070   -3.0490 O   0  0  0  0  0  0  0  0  0  0  0  0
   31.1720   45.3280   -6.6290 C   0  0  0  0  0  0  0  0  0  0  0  0
   33.1630   46.8590   -6.4170 C   0  0  0  0  0  0  0  0  0  0  0  0
   34.8240   46.6580   -4.6970 C   0  0  0  0  0  0  0  0  0  0  0  0
   30.0630   46.1110   -6.2830 O   0  0  0  0  0  0  0  0  0  0  0  0
   30.7760   44.0080   -6.3640 O   0  0  0  0  0  0  0  0  0  0  0  0
   31.3090   45.3930   -8.0200 O   0  0  0  0  0  0  0  0  0  0  0  0
   34.3350   47.3070   -5.8180 C   0  0  0  0  0  0  0  0  0  0  0  0
   35.7540   45.6970   -2.4270 C   0  0  0  0  0  0  0  0  0  0  0  0
   35.3610   46.7700   -1.6020 C   0  0  0  0  0  0  0  0  0  0  0  0
   37.1260   45.4180   -2.5540 C   0  0  0  0  0  0  0  0  0  0  0  0
   37.7680   44.1400   -3.5260 Cl  0  0  0  0  0  0  0  0  0  0  0  0
   33.6930   47.1870   -1.3850 Cl  0  0  0  0  0  0  0  0  0  0  0  0
   36.3090   47.5410   -0.9250 C   0  0  0  0  0  0  0  0  0  0  0  0
   38.0670   46.2000   -1.8690 C   0  0  0  0  0  0  0  0  0  0  0  0
   37.6640   47.2560   -1.0570 C   0  0  0  0  0  0  0  0  0  0  0  0
  1  2  1  0
  2  3  2  0
  2  4  1  0
  3  5  1  0
  4  6  1  0
  4  7  2  0
  3  8  1  0
  6  9  1  0
  6 10  1  0
  6 11  1  0
  7 12  1  0
  8 12  2  0
  5 13  1  0
 13 14  2  0
 13 15  1  0
 15 16  1  0
 14 17  1  0
 14 18  1  0
 15 19  2  0
 18 20  2  0
 19 20  1  0
M  END
