mac-x0397-mac-x0123
     RDKit          3D

 15 17  0  0  0  0  0  0  0  0999 V2000
   27.6600   51.9260   -3.5590 Cl  0  0  0  0  0  0  0  0  0  0  0  0
   29.3800   51.4730   -3.6670 C   0  0  2  0  0  0  0  0  0  0  0  0
   30.1410   52.1100   -4.8620 C   0  0  2  0  0  0  0  0  0  0  0  0
   29.5680   49.9880   -3.5490 C   0  0  0  0  0  0  0  0  0  0  0  0
   29.9610   53.5500   -5.1280 N   0  0  0  0  0  0  0  0  0  0  0  0
   29.8190   51.2940   -6.1270 C   0  0  2  0  0  0  0  0  0  0  0  0
   29.9090   49.2320   -4.6000 C   0  0  0  0  0  0  0  0  0  0  0  0
   28.1080   51.5550   -6.7090 S   0  0  0  0  0  0  0  0  0  0  0  0
   30.1370   49.7840   -5.9850 C   0  0  0  0  0  0  0  0  0  0  0  0
   30.5590   54.5750   -4.4480 C   0  0  0  0  0  0  0  0  0  0  0  0
   29.1300   54.1010   -6.1320 C   0  0  0  0  0  0  0  0  0  0  0  0
   28.2980   53.3130   -7.1060 C   0  0  2  0  0  0  0  0  0  0  0  0
   29.2580   55.4770   -6.0300 C   0  0  0  0  0  0  0  0  0  0  0  0
   30.1480   55.7700   -4.9820 C   0  0  0  0  0  0  0  0  0  0  0  0
   26.9640   53.8700   -7.2230 N   0  0  0  0  0  0  0  0  0  0  0  0
  2  1  1  6
  2  3  1  0
  2  4  1  0
  3  5  1  6
  3  6  1  0
  4  7  2  0
  6  8  1  0
  6  9  1  1
  7  9  1  0
  5 10  1  0
  5 11  1  0
  8 12  1  0
 11 12  1  0
 11 13  2  0
 10 14  2  0
 13 14  1  0
 12 15  1  1
M  END
