mac-x0436-mac-x0319
     RDKit          3D

 23 25  0  0  0  0  0  0  0  0999 V2000
   31.7110   44.1480   -7.7440 O   0  0  0  0  0  0  0  0  0  0  0  0
   31.3470   44.8230   -6.6250 C   0  0  0  0  0  0  0  0  0  0  0  0
   30.2580   45.3760   -6.5490 O   0  0  0  0  0  0  0  0  0  0  0  0
   32.4080   44.8210   -5.5180 C   0  0  1  0  0  0  0  0  0  0  0  0
   33.6860   45.5370   -6.0010 C   0  0  0  0  0  0  0  0  0  0  0  0
   31.9120   45.3690   -4.1760 C   0  0  0  0  0  0  0  0  0  0  0  0
   34.4990   46.0570   -4.8370 C   0  0  0  0  0  0  0  0  0  0  0  0
   31.3310   44.5260   -3.2170 C   0  0  0  0  0  0  0  0  0  0  0  0
   32.0320   46.7400   -3.8830 C   0  0  0  0  0  0  0  0  0  0  0  0
   35.2650   47.3730   -5.0340 C   0  0  0  0  0  0  0  0  0  0  0  0
   34.5240   45.3880   -3.7210 N   0  0  0  0  0  0  0  0  0  0  0  0
   30.8860   45.0460   -2.0040 C   0  0  0  0  0  0  0  0  0  0  0  0
   31.5840   47.2490   -2.6630 C   0  0  0  0  0  0  0  0  0  0  0  0
   35.0870   48.0760   -6.0160 O   0  0  0  0  0  0  0  0  0  0  0  0
   30.3280   44.1850   -1.1060 O   0  0  0  0  0  0  0  0  0  0  0  0
   36.1500   47.6890   -4.0360 N   0  0  0  0  0  0  0  0  0  0  0  0
   35.2800   45.9110   -2.6570 C   0  0  0  0  0  0  0  0  0  0  0  0
   31.0100   46.4010   -1.7170 C   0  0  0  0  0  0  0  0  0  0  0  0
   36.0890   47.0490   -2.7970 C   0  0  0  0  0  0  0  0  0  0  0  0
   35.2210   45.2760   -1.4210 C   0  0  0  0  0  0  0  0  0  0  0  0
   35.9560   45.7660   -0.3370 C   0  0  0  0  0  0  0  0  0  0  0  0
   36.8260   47.5450   -1.7230 C   0  0  0  0  0  0  0  0  0  0  0  0
   36.7570   46.8990   -0.4910 C   0  0  0  0  0  0  0  0  0  0  0  0
  1  2  1  0
  2  3  2  0
  2  4  1  0
  4  5  1  6
  4  6  1  0
  5  7  1  0
  6  8  2  0
  6  9  1  0
  7 10  1  0
  7 11  2  0
  8 12  1  0
  9 13  2  0
 10 14  2  0
 12 15  1  0
 10 16  1  0
 11 17  1  0
 12 18  2  0
 13 18  1  0
 16 19  1  0
 17 19  2  0
 17 20  1  0
 20 21  2  0
 19 22  1  0
 21 23  1  0
 22 23  2  0
M  END
