mac-x0567-mac-x0555
     RDKit          3D

 16 18  0  0  0  0  0  0  0  0999 V2000
   29.5840   47.4240   -7.9220 N   0  0  0  0  0  0  0  0  0  0  0  0
   29.4340   48.7050   -7.5240 C   0  0  0  0  0  0  0  0  0  0  0  0
   29.1790   49.7220   -8.4090 N   0  0  0  0  0  0  0  0  0  0  0  0
   29.4800   49.3020   -6.2870 C   0  0  0  0  0  0  0  0  0  0  0  0
   29.0560   50.9370   -7.8280 N   0  0  0  0  0  0  0  0  0  0  0  0
   29.2440   50.6780   -6.5250 C   0  0  0  0  0  0  0  0  0  0  0  0
   29.7060   48.7740   -4.9220 C   0  0  0  0  0  0  0  0  0  0  0  0
   29.2080   51.7130   -5.3970 C   0  0  2  0  0  0  0  0  0  0  0  0
   28.9690   49.6520   -3.9310 C   0  0  0  0  0  0  0  0  0  0  0  0
   28.7360   50.9670   -4.1370 C   0  0  0  0  0  0  0  0  0  0  0  0
   28.2840   52.9210   -5.7610 C   0  0  0  0  0  0  0  0  0  0  0  0
   30.6280   52.2550   -5.0330 C   0  0  0  0  0  0  0  0  0  0  0  0
   29.1380   54.1900   -5.9600 C   0  0  1  0  0  0  0  0  0  0  0  0
   30.5690   53.3620   -4.0560 N   0  0  0  0  0  0  0  0  0  0  0  0
   28.3500   55.3420   -6.4280 N   0  0  0  0  0  0  0  0  0  0  0  0
   29.8700   54.5160   -4.6390 C   0  0  0  0  0  0  0  0  0  0  0  0
  1  2  1  0
  2  3  1  0
  2  4  2  0
  3  5  1  0
  4  6  1  0
  5  6  2  0
  4  7  1  0
  6  8  1  0
  7  9  1  0
  8 10  1  1
  9 10  2  0
  8 11  1  0
  8 12  1  0
 11 13  1  0
 12 14  1  0
 13 15  1  1
 13 16  1  0
 14 16  1  0
M  END
