mac-x0131-mac-x0190
     RDKit          3D

 28 32  0  0  0  0  0  0  0  0999 V2000
   30.2190   49.2620   -2.5120 C   0  0  0  0  0  0  0  0  0  0  0  0
   29.8130   48.9670   -3.9180 C   0  0  0  0  0  0  0  0  0  0  0  0
   29.0170   49.6980   -4.7990 C   0  0  0  0  0  0  0  0  0  0  0  0
   30.2140   47.8200   -4.5850 N   0  0  0  0  0  0  0  0  0  0  0  0
   31.0600   46.7550   -4.0550 C   0  0  0  0  0  0  0  0  0  0  0  0
   28.9400   48.9690   -6.0300 C   0  0  0  0  0  0  0  0  0  0  0  0
   29.6920   47.8140   -5.8590 C   0  0  0  0  0  0  0  0  0  0  0  0
   28.4120   50.9680   -4.4410 C   0  0  0  0  0  0  0  0  0  0  0  0
   28.3250   49.1300   -7.2860 C   0  0  0  0  0  0  0  0  0  0  0  0
   29.8830   46.8460   -6.7740 N   0  0  0  0  0  0  0  0  0  0  0  0
   32.4740   46.9510   -4.4590 C   0  0  0  0  0  0  0  0  0  0  0  0
   29.1040   52.1770   -4.5990 C   0  0  0  0  0  0  0  0  0  0  0  0
   27.1090   51.0420   -3.9210 C   0  0  0  0  0  0  0  0  0  0  0  0
   27.5390   50.2190   -7.6390 N   0  0  0  0  0  0  0  0  0  0  0  0
   28.4950   48.1810   -8.2280 N   0  0  0  0  0  0  0  0  0  0  0  0
   29.2510   47.1120   -7.9260 C   0  0  0  0  0  0  0  0  0  0  0  0
   33.1450   46.8170   -5.6580 C   0  0  0  0  0  0  0  0  0  0  0  0
   33.3430   47.3440   -3.4840 O   0  0  0  0  0  0  0  0  0  0  0  0
   30.3600   52.4960   -5.0630 N   0  0  0  0  0  0  0  0  0  0  0  0
   28.5490   53.4100   -4.2650 C   0  0  0  0  0  0  0  0  0  0  0  0
   26.5360   52.2680   -3.5810 C   0  0  0  0  0  0  0  0  0  0  0  0
   34.5650   47.4620   -4.0650 C   0  0  0  0  0  0  0  0  0  0  0  0
   34.4950   47.1480   -5.4010 C   0  0  0  0  0  0  0  0  0  0  0  0
   30.5150   53.8560   -4.9950 C   0  0  0  0  0  0  0  0  0  0  0  0
   29.4310   54.4340   -4.5140 N   0  0  0  0  0  0  0  0  0  0  0  0
   27.2470   53.4620   -3.7490 C   0  0  0  0  0  0  0  0  0  0  0  0
   31.7630   54.5380   -5.4220 C   0  0  0  0  0  0  0  0  0  0  0  0
   31.4100   55.8700   -5.7770 O   0  0  0  0  0  0  0  0  0  0  0  0
  1  2  1  0
  2  3  2  0
  2  4  1  0
  4  5  1  0
  3  6  1  0
  4  7  1  0
  6  7  2  0
  3  8  1  0
  6  9  1  0
  7 10  1  0
  5 11  1  0
  8 12  1  0
  8 13  2  0
  9 14  1  0
  9 15  2  0
 10 16  2  0
 15 16  1  0
 11 17  2  0
 11 18  1  0
 12 19  1  0
 12 20  2  0
 13 21  1  0
 18 22  1  0
 17 23  1  0
 22 23  2  0
 19 24  1  0
 20 25  1  0
 24 25  2  0
 20 26  1  0
 21 26  2  0
 24 27  1  0
 27 28  1  0
M  END
