mac-x0411-mac-x0223
     RDKit          3D

 23 24  0  0  0  0  0  0  0  0999 V2000
   36.4620   43.9710   -3.3510 Cl  0  0  0  0  0  0  0  0  0  0  0  0
   36.2490   45.6860   -3.3340 C   0  0  0  0  0  0  0  0  0  0  0  0
   34.9760   46.2810   -3.2640 C   0  0  0  0  0  0  0  0  0  0  0  0
   37.4050   46.4690   -3.3930 C   0  0  0  0  0  0  0  0  0  0  0  0
   33.8370   45.4950   -3.2050 O   0  0  0  0  0  0  0  0  0  0  0  0
   34.8950   47.6930   -3.2510 C   0  0  0  0  0  0  0  0  0  0  0  0
   37.3090   47.8590   -3.3820 C   0  0  0  0  0  0  0  0  0  0  0  0
   33.4070   48.5610   -3.1630 Cl  0  0  0  0  0  0  0  0  0  0  0  0
   32.7390   45.9100   -4.0470 C   0  0  1  0  0  0  0  0  0  0  0  0
   36.0610   48.4640   -3.3110 C   0  0  0  0  0  0  0  0  0  0  0  0
   32.4670   44.9290   -5.2060 C   0  0  0  0  0  0  0  0  0  0  0  0
   31.4870   46.0720   -3.1820 C   0  0  0  0  0  0  0  0  0  0  0  0
   31.8020   45.5280   -6.2490 O   0  0  0  0  0  0  0  0  0  0  0  0
   32.7950   43.7430   -5.2240 O   0  0  0  0  0  0  0  0  0  0  0  0
   31.5360   46.8080   -1.9850 C   0  0  0  0  0  0  0  0  0  0  0  0
   30.2600   45.4870   -3.5650 C   0  0  0  0  0  0  0  0  0  0  0  0
   32.1840   44.8400   -7.4960 O   0  0  0  0  0  0  0  0  0  0  0  0
   29.1120   45.6330   -2.7730 C   0  0  0  0  0  0  0  0  0  0  0  0
   30.3980   46.9600   -1.1930 C   0  0  0  0  0  0  0  0  0  0  0  0
   27.8810   45.1010   -3.0600 O   0  0  0  0  0  0  0  0  0  0  0  0
   29.1980   46.3750   -1.5870 C   0  0  0  0  0  0  0  0  0  0  0  0
   27.5220   43.8920   -2.4100 C   0  0  0  0  0  0  0  0  0  0  0  0
   28.0810   46.5260   -0.8070 O   0  0  0  0  0  0  0  0  0  0  0  0
  1  2  1  0
  2  3  2  0
  2  4  1  0
  3  5  1  0
  3  6  1  0
  4  7  2  0
  6  8  1  0
  9  5  1  1
  6 10  2  0
  7 10  1  0
  9 11  1  0
  9 12  1  0
 11 13  1  0
 11 14  2  0
 12 15  2  0
 12 16  1  0
 13 17  1  0
 16 18  2  0
 15 19  1  0
 18 20  1  0
 18 21  1  0
 19 21  2  0
 20 22  1  0
 21 23  1  0
M  END
