mac-x0358-mac-x0284
     RDKit          3D

 21 22  0  0  0  0  0  0  0  0999 V2000
   31.4030   44.6520   -6.3610 O   0  0  0  0  0  0  0  0  0  0  0  0
   32.3800   45.4960   -5.9390 C   0  0  0  0  0  0  0  0  0  0  0  0
   33.5520   45.2850   -6.2390 O   0  0  0  0  0  0  0  0  0  0  0  0
   31.9320   46.6920   -5.1000 C   0  0  1  0  0  0  0  0  0  0  0  0
   30.4510   47.0110   -5.2510 C   0  0  0  0  0  0  0  0  0  0  0  0
   32.2670   46.5680   -3.6140 C   0  0  0  0  0  0  0  0  0  0  0  0
   29.6630   46.2170   -5.7790 O   0  0  0  0  0  0  0  0  0  0  0  0
   33.4020   47.2020   -3.0740 C   0  0  0  0  0  0  0  0  0  0  0  0
   31.4540   45.8250   -2.7410 C   0  0  0  0  0  0  0  0  0  0  0  0
   29.9370   48.3110   -4.7550 C   0  0  0  0  0  0  0  0  0  0  0  0
   34.2150   47.9310   -3.8970 O   0  0  0  0  0  0  0  0  0  0  0  0
   33.7130   47.1010   -1.7180 C   0  0  0  0  0  0  0  0  0  0  0  0
   31.7640   45.7220   -1.3830 C   0  0  0  0  0  0  0  0  0  0  0  0
   29.6200   49.2880   -5.7070 C   0  0  0  0  0  0  0  0  0  0  0  0
   29.7640   48.5800   -3.3950 C   0  0  0  0  0  0  0  0  0  0  0  0
   30.0650   47.6350   -2.4580 O   0  0  0  0  0  0  0  0  0  0  0  0
   32.8910   46.3600   -0.8720 C   0  0  0  0  0  0  0  0  0  0  0  0
   29.1300   50.5370   -5.3000 C   0  0  0  0  0  0  0  0  0  0  0  0
   29.2800   49.8180   -2.9810 C   0  0  0  0  0  0  0  0  0  0  0  0
   28.7890   51.5850   -6.3160 C   0  0  0  0  0  0  0  0  0  0  0  0
   28.9660   50.7910   -3.9340 C   0  0  0  0  0  0  0  0  0  0  0  0
  1  2  1  0
  2  3  2  0
  4  2  1  6
  4  5  1  0
  4  6  1  0
  5  7  2  0
  6  8  2  0
  6  9  1  0
  5 10  1  0
  8 11  1  0
  8 12  1  0
  9 13  2  0
 10 14  2  0
 10 15  1  0
 15 16  1  0
 12 17  2  0
 13 17  1  0
 14 18  1  0
 15 19  2  0
 18 20  1  0
 18 21  2  0
 19 21  1  0
M  END
