mac-x0397-mac-x0321
     RDKit          3D

 15 16  0  0  0  0  0  0  0  0999 V2000
   29.5920   52.5460   -2.2530 Cl  0  0  0  0  0  0  0  0  0  0  0  0
   29.6100   51.5530   -3.6430 C   0  0  0  0  0  0  0  0  0  0  0  0
   29.2520   52.1670   -4.8620 C   0  0  0  0  0  0  0  0  0  0  0  0
   29.9600   50.2080   -3.5740 C   0  0  0  0  0  0  0  0  0  0  0  0
   28.8810   53.4900   -5.0710 N   0  0  0  0  0  0  0  0  0  0  0  0
   29.2610   51.3700   -6.0140 C   0  0  0  0  0  0  0  0  0  0  0  0
   29.9640   49.4260   -4.7350 C   0  0  0  0  0  0  0  0  0  0  0  0
   30.3540   48.0010   -4.5460 C   0  0  0  0  0  0  0  0  0  0  0  0
   28.6180   53.7060   -6.3270 C   0  0  0  0  0  0  0  0  0  0  0  0
   28.7870   52.3540   -7.3570 S   0  0  0  0  0  0  0  0  0  0  0  0
   29.6130   49.9980   -5.9740 C   0  0  0  0  0  0  0  0  0  0  0  0
   28.2390   54.9030   -6.8010 N   0  0  0  0  0  0  0  0  0  0  0  0
   29.5950   49.0860   -7.4430 Cl  0  0  0  0  0  0  0  0  0  0  0  0
   29.7710   47.1140   -5.3780 O   0  0  0  0  0  0  0  0  0  0  0  0
   31.1540   47.6630   -3.6880 O   0  0  0  0  0  0  0  0  0  0  0  0
  1  2  1  0
  2  3  2  0
  2  4  1  0
  3  5  1  0
  3  6  1  0
  4  7  2  0
  7  8  1  0
  5  9  2  0
  6 10  1  0
  9 10  1  0
  6 11  2  0
  7 11  1  0
  9 12  1  0
 11 13  1  0
  8 14  1  0
  8 15  2  0
M  END
