mac-x0509-mac-x0226
     RDKit          3D

 23 26  0  0  0  0  0  0  0  0999 V2000
   40.1080   46.9860   -4.6690 O   0  0  0  0  0  0  0  0  0  0  0  0
   39.6390   45.9600   -4.2110 C   0  0  0  0  0  0  0  0  0  0  0  0
   38.5110   45.8550   -3.2020 C   0  0  0  0  0  0  0  0  0  0  0  0
   40.0460   44.6740   -4.5280 N   0  0  0  0  0  0  0  0  0  0  0  0
   38.6480   44.3960   -2.7350 C   0  0  2  0  0  0  0  0  0  0  0  0
   39.0740   43.7390   -4.0370 C   0  0  2  0  0  0  0  0  0  0  0  0
   37.4240   43.6690   -2.0760 C   0  0  1  0  0  0  0  0  0  0  0  0
   39.4870   42.2830   -3.8780 C   0  0  0  0  0  0  0  0  0  0  0  0
   37.8180   42.1900   -1.9850 C   0  0  0  0  0  0  0  0  0  0  0  0
   38.7300   41.5880   -2.7820 C   0  0  0  0  0  0  0  0  0  0  0  0
   37.2270   44.2300   -0.6270 C   0  0  0  0  0  0  0  0  0  0  0  0
   36.0980   43.7820   -2.8910 C   0  0  0  0  0  0  0  0  0  0  0  0
   36.1690   45.2900   -0.4530 C   0  0  0  0  0  0  0  0  0  0  0  0
   35.4090   45.1630   -2.8380 C   0  0  1  0  0  0  0  0  0  0  0  0
   34.1180   45.1880   -3.5450 N   0  0  0  0  0  0  0  0  0  0  0  0
   35.3570   45.7070   -1.4340 C   0  0  0  0  0  0  0  0  0  0  0  0
   33.0610   44.5450   -3.0060 N   0  0  0  0  0  0  0  0  0  0  0  0
   33.8090   45.7980   -4.7370 C   0  0  0  0  0  0  0  0  0  0  0  0
   32.4740   45.5370   -4.9860 C   0  0  0  0  0  0  0  0  0  0  0  0
   32.0740   44.7580   -3.8770 C   0  0  0  0  0  0  0  0  0  0  0  0
   31.6350   45.9390   -6.0990 C   0  0  0  0  0  0  0  0  0  0  0  0
   30.4300   45.3200   -6.1770 O   0  0  0  0  0  0  0  0  0  0  0  0
   31.9750   46.7770   -6.9220 O   0  0  0  0  0  0  0  0  0  0  0  0
  1  2  2  0
  2  3  1  0
  2  4  1  0
  5  3  1  6
  4  6  1  0
  5  6  1  0
  5  7  1  0
  6  8  1  1
  7  9  1  1
  8 10  1  0
  9 10  2  0
  7 11  1  0
  7 12  1  0
 11 13  1  0
 12 14  1  0
 14 15  1  1
 13 16  2  0
 14 16  1  0
 15 17  1  0
 15 18  1  0
 18 19  2  0
 17 20  2  0
 19 20  1  0
 19 21  1  0
 21 22  1  0
 21 23  2  0
M  END
