mac-x0116-mac-x0337
     RDKit          3D

 27 30  0  0  0  0  0  0  0  0999 V2000
   29.1480   53.0710   -6.8780 C   0  0  0  0  0  0  0  0  0  0  0  0
   28.8720   51.7670   -7.4930 N   0  0  0  0  0  0  0  0  0  0  0  0
   28.9480   50.5020   -6.8750 C   0  0  0  0  0  0  0  0  0  0  0  0
   30.4520   53.6900   -7.2640 C   0  0  0  0  0  0  0  0  0  0  0  0
   31.5970   53.1040   -6.7930 O   0  0  0  0  0  0  0  0  0  0  0  0
   30.7840   54.7840   -8.0330 C   0  0  0  0  0  0  0  0  0  0  0  0
   32.1970   54.8700   -8.0330 C   0  0  0  0  0  0  0  0  0  0  0  0
   32.6470   53.8260   -7.2670 C   0  0  0  0  0  0  0  0  0  0  0  0
   28.6690   50.3940   -5.5080 N   0  0  0  0  0  0  0  0  0  0  0  0
   29.2680   49.3520   -7.4900 C   0  0  0  0  0  0  0  0  0  0  0  0
   29.1080   51.5420   -4.7250 N   0  0  0  0  0  0  0  0  0  0  0  0
   28.7620   49.1570   -4.8800 C   0  0  0  0  0  0  0  0  0  0  0  0
   29.3240   48.0990   -6.7220 C   0  0  0  0  0  0  0  0  0  0  0  0
   29.5830   49.0320   -8.7790 N   0  0  0  0  0  0  0  0  0  0  0  0
   30.1070   51.1600   -3.6680 S   0  0  2  0  0  0  0  0  0  0  0  0
   29.0740   48.0200   -5.3980 N   0  0  0  0  0  0  0  0  0  0  0  0
   29.6410   47.1180   -7.4980 N   0  0  0  0  0  0  0  0  0  0  0  0
   29.7830   47.7440   -8.7250 C   0  0  0  0  0  0  0  0  0  0  0  0
   30.1010   49.9500   -2.8780 O   0  0  0  0  0  0  0  0  0  0  0  0
   29.7970   52.3370   -2.5170 N   0  0  0  0  0  0  0  0  0  0  0  0
   31.7200   51.3910   -4.3410 C   0  0  0  0  0  0  0  0  0  0  0  0
   32.5080   50.2910   -4.6830 C   0  0  0  0  0  0  0  0  0  0  0  0
   32.1810   52.6910   -4.5140 C   0  0  0  0  0  0  0  0  0  0  0  0
   33.7880   50.5100   -5.2060 C   0  0  0  0  0  0  0  0  0  0  0  0
   33.4560   52.9010   -5.0350 C   0  0  0  0  0  0  0  0  0  0  0  0
   34.2660   51.8150   -5.3820 C   0  0  0  0  0  0  0  0  0  0  0  0
   35.6390   52.0550   -5.9390 C   0  0  0  0  0  0  0  0  0  0  0  0
  1  2  1  0
  2  3  1  0
  1  4  1  0
  4  5  1  0
  4  6  2  0
  6  7  1  0
  5  8  1  0
  7  8  2  0
  3  9  1  0
  3 10  2  0
  9 11  1  0
  9 12  1  0
 10 13  1  0
 10 14  1  0
 11 15  2  0
 12 16  2  0
 13 16  1  0
 13 17  2  0
 14 18  2  0
 17 18  1  0
 15 19  2  0
 15 20  1  1
 15 21  1  0
 21 22  2  0
 21 23  1  0
 22 24  1  0
 23 25  2  0
 24 26  2  0
 25 26  1  0
 26 27  1  0
M  END
