mac-x0182
     RDKit          3D

 12 13  0  0  0  0  0  0  0  0999 V2000
   34.3590   43.3240   -2.7860 O   0  0  0  0  0  0  0  0  0  0  0  0
   34.4240   44.4160   -3.2400 C   0  0  0  0  0  0  0  0  0  0  0  0
   33.4910   45.1890   -4.1680 N   0  0  0  0  0  0  0  0  0  0  0  0
   34.1490   46.5990   -4.4640 S   0  0  2  0  0  0  0  0  0  0  0  0
   33.1740   47.5740   -4.0290 O   0  0  0  0  0  0  0  0  0  0  0  0
   34.4790   46.6580   -5.8600 O   0  0  0  0  0  0  0  0  0  0  0  0
   35.5630   46.6280   -3.5150 C   0  0  0  0  0  0  0  0  0  0  0  0
   36.5240   47.6150   -3.3460 C   0  0  0  0  0  0  0  0  0  0  0  0
   37.6290   47.3770   -2.5270 C   0  0  0  0  0  0  0  0  0  0  0  0
   37.7750   46.1480   -1.8720 C   0  0  0  0  0  0  0  0  0  0  0  0
   36.8130   45.1500   -2.0310 C   0  0  0  0  0  0  0  0  0  0  0  0
   35.7310   45.3940   -2.8640 C   0  0  0  0  0  0  0  0  0  0  0  0
  1  2  2  0
  2  3  1  0
  4  3  1  6
  4  5  2  0
  4  6  2  0
  4  7  1  0
  7  8  2  0
  8  9  1  0
  9 10  2  0
 10 11  1  0
  2 12  1  0
  7 12  1  0
 11 12  2  0
M  END
