mac-x0277-mac-x0417
     RDKit          3D

 22 24  0  0  0  0  0  0  0  0999 V2000
   27.8230   45.7920   -0.8090 Cl  0  0  0  0  0  0  0  0  0  0  0  0
   29.2230   45.8970   -1.8150 C   0  0  0  0  0  0  0  0  0  0  0  0
   30.1430   46.9420   -1.7160 C   0  0  0  0  0  0  0  0  0  0  0  0
   29.4260   44.8890   -2.7600 C   0  0  0  0  0  0  0  0  0  0  0  0
   29.9670   48.2290   -0.5770 Cl  0  0  0  0  0  0  0  0  0  0  0  0
   31.2590   46.9710   -2.5640 C   0  0  0  0  0  0  0  0  0  0  0  0
   30.5430   44.9200   -3.6060 C   0  0  0  0  0  0  0  0  0  0  0  0
   31.4820   45.9630   -3.5250 C   0  0  0  0  0  0  0  0  0  0  0  0
   32.7220   46.0710   -4.4160 C   0  0  2  0  0  0  0  0  0  0  0  0
   32.6400   45.5020   -5.8230 C   0  0  0  0  0  0  0  0  0  0  0  0
   33.8760   45.5160   -3.6300 C   0  0  0  0  0  0  0  0  0  0  0  0
   33.3930   46.2050   -6.8990 N   0  0  0  0  0  0  0  0  0  0  0  0
   31.9960   44.5090   -6.1500 O   0  0  0  0  0  0  0  0  0  0  0  0
   33.9260   44.1980   -3.3590 N   0  0  0  0  0  0  0  0  0  0  0  0
   35.0080   46.1900   -3.0840 C   0  0  0  0  0  0  0  0  0  0  0  0
   33.8830   45.4520   -7.7490 O   0  0  0  0  0  0  0  0  0  0  0  0
   35.0880   43.9980   -2.6350 O   0  0  0  0  0  0  0  0  0  0  0  0
   35.7330   45.1810   -2.4710 C   0  0  0  0  0  0  0  0  0  0  0  0
   35.5100   47.5030   -3.0270 C   0  0  0  0  0  0  0  0  0  0  0  0
   36.9360   45.3720   -1.7960 C   0  0  0  0  0  0  0  0  0  0  0  0
   36.7210   47.7310   -2.3550 C   0  0  0  0  0  0  0  0  0  0  0  0
   37.4200   46.6830   -1.7510 C   0  0  0  0  0  0  0  0  0  0  0  0
  1  2  1  0
  2  3  2  0
  2  4  1  0
  3  5  1  0
  3  6  1  0
  4  7  2  0
  6  8  2  0
  7  8  1  0
  8  9  1  0
  9 10  1  6
  9 11  1  0
 10 12  1  0
 10 13  2  0
 11 14  2  0
 11 15  1  0
 12 16  2  0
 14 17  1  0
 15 18  2  0
 17 18  1  0
 15 19  1  0
 18 20  1  0
 19 21  2  0
 20 22  2  0
 21 22  1  0
M  END
