mac-x0333
     RDKit          3D

 10 11  0  0  0  0  0  0  0  0999 V2000
   29.9810   48.3910   -3.8120 O   0  0  0  0  0  0  0  0  0  0  0  0
   29.7200   49.6780   -4.3410 C   0  0  0  0  0  0  0  0  0  0  0  0
   29.2290   49.7830   -5.6300 C   0  0  0  0  0  0  0  0  0  0  0  0
   28.9580   51.0160   -6.1980 C   0  0  0  0  0  0  0  0  0  0  0  0
   29.1780   52.1960   -5.4480 C   0  0  0  0  0  0  0  0  0  0  0  0
   29.0040   53.5630   -5.7640 O   0  0  0  0  0  0  0  0  0  0  0  0
   29.7150   54.2450   -4.7630 C   0  0  0  0  0  0  0  0  0  0  0  0
   29.7900   53.3130   -3.7140 O   0  0  0  0  0  0  0  0  0  0  0  0
   29.6680   52.1070   -4.1790 C   0  0  0  0  0  0  0  0  0  0  0  0
   29.9440   50.8370   -3.6070 C   0  0  0  0  0  0  0  0  0  0  0  0
  1  2  1  0
  2  3  2  0
  3  4  1  0
  4  5  2  0
  5  6  1  0
  6  7  1  0
  7  8  1  0
  5  9  1  0
  8  9  1  0
  2 10  1  0
  9 10  2  0
M  END
