mac-x0373-mac-x0394
     RDKit          3D

 28 30  0  0  0  0  0  0  0  0999 V2000
   31.4490   46.4140   -6.6560 O   0  0  0  0  0  0  0  0  0  0  0  0
   30.4890   46.3310   -5.7080 C   0  0  0  0  0  0  0  0  0  0  0  0
   29.6050   45.5010   -5.8370 O   0  0  0  0  0  0  0  0  0  0  0  0
   30.6730   47.3490   -4.5840 C   0  0  1  0  0  0  0  0  0  0  0  0
   32.1230   47.5620   -4.1820 C   0  0  0  0  0  0  0  0  0  0  0  0
   30.0120   48.6660   -4.9130 C   0  0  0  0  0  0  0  0  0  0  0  0
   32.8130   46.5530   -3.4940 C   0  0  0  0  0  0  0  0  0  0  0  0
   32.7990   48.7560   -4.4830 C   0  0  0  0  0  0  0  0  0  0  0  0
   29.7180   49.5830   -3.8980 C   0  0  0  0  0  0  0  0  0  0  0  0
   29.6920   48.9770   -6.2350 C   0  0  0  0  0  0  0  0  0  0  0  0
   34.1450   46.7340   -3.1190 C   0  0  0  0  0  0  0  0  0  0  0  0
   34.1300   48.9350   -4.1070 C   0  0  0  0  0  0  0  0  0  0  0  0
   29.1120   50.7920   -4.2140 C   0  0  0  0  0  0  0  0  0  0  0  0
   29.0890   50.1800   -6.5500 C   0  0  0  0  0  0  0  0  0  0  0  0
   34.8030   47.9240   -3.4250 C   0  0  0  0  0  0  0  0  0  0  0  0
   28.7970   51.0870   -5.5480 C   0  0  0  0  0  0  0  0  0  0  0  0
   28.1320   52.3740   -5.9140 C   0  0  1  0  0  0  0  0  0  0  0  0
   28.0210   52.7280   -7.3960 C   0  0  0  0  0  0  0  0  0  0  0  0
   26.8930   52.4020   -5.0660 C   0  0  0  0  0  0  0  0  0  0  0  0
   29.0770   53.4090   -7.8840 O   0  0  0  0  0  0  0  0  0  0  0  0
   27.0920   52.4660   -8.1470 O   0  0  0  0  0  0  0  0  0  0  0  0
   26.7020   53.5140   -4.2620 C   0  0  0  0  0  0  0  0  0  0  0  0
   25.9530   51.3560   -5.0430 C   0  0  0  0  0  0  0  0  0  0  0  0
   25.5960   53.5940   -3.4420 C   0  0  0  0  0  0  0  0  0  0  0  0
   24.8390   51.4480   -4.2100 C   0  0  0  0  0  0  0  0  0  0  0  0
   23.6800   50.1750   -4.1690 Cl  0  0  0  0  0  0  0  0  0  0  0  0
   25.4120   54.9930   -2.4650 Cl  0  0  0  0  0  0  0  0  0  0  0  0
   24.6550   52.5700   -3.4050 C   0  0  0  0  0  0  0  0  0  0  0  0
  1  2  1  0
  2  3  2  0
  4  2  1  6
  4  5  1  0
  4  6  1  0
  5  7  2  0
  5  8  1  0
  6  9  2  0
  6 10  1  0
  7 11  1  0
  8 12  2  0
  9 13  1  0
 10 14  2  0
 11 15  2  0
 12 15  1  0
 13 16  2  0
 14 16  1  0
 16 17  1  0
 17 18  1  6
 17 19  1  0
 18 20  1  0
 18 21  2  0
 19 22  2  0
 19 23  1  0
 22 24  1  0
 23 25  2  0
 25 26  1  0
 24 27  1  0
 24 28  2  0
 25 28  1  0
M  END
