mac-x0255-mac-x0116
     RDKit          3D

 31 35  0  0  0  0  0  0  0  0999 V2000
   31.6330   44.6160   -7.8190 O   0  0  0  0  0  0  0  0  0  0  0  0
   32.3120   45.1530   -6.6880 C   0  0  0  0  0  0  0  0  0  0  0  0
   33.6380   45.3530   -7.1600 O   0  0  0  0  0  0  0  0  0  0  0  0
   32.3860   44.1200   -5.5310 C   0  0  0  0  0  0  0  0  0  0  0  0
   31.6830   46.5210   -6.3620 C   0  0  0  0  0  0  0  0  0  0  0  0
   30.2370   46.7530   -6.8180 C   0  0  0  0  0  0  0  0  0  0  0  0
   31.4390   44.3440   -4.3850 C   0  0  0  0  0  0  0  0  0  0  0  0
   30.1310   43.9280   -4.2780 C   0  0  0  0  0  0  0  0  0  0  0  0
   31.9190   45.2040   -2.9880 S   0  0  0  0  0  0  0  0  0  0  0  0
   29.8960   48.1100   -7.1830 N   0  0  0  0  0  0  0  0  0  0  0  0
   29.5010   44.3090   -3.0510 C   0  0  0  0  0  0  0  0  0  0  0  0
   30.3810   45.0260   -2.2370 C   0  0  0  0  0  0  0  0  0  0  0  0
   29.6450   49.1420   -6.3140 C   0  0  0  0  0  0  0  0  0  0  0  0
   29.7650   48.6010   -8.4560 C   0  0  0  0  0  0  0  0  0  0  0  0
   28.1890   44.0740   -2.5780 C   0  0  0  0  0  0  0  0  0  0  0  0
   29.9860   45.5100   -0.9750 C   0  0  0  0  0  0  0  0  0  0  0  0
   29.6600   49.1100   -4.9740 N   0  0  0  0  0  0  0  0  0  0  0  0
   29.3710   50.2270   -7.1270 C   0  0  0  0  0  0  0  0  0  0  0  0
   29.4480   49.8790   -8.4620 N   0  0  0  0  0  0  0  0  0  0  0  0
   27.7910   44.5520   -1.3260 C   0  0  0  0  0  0  0  0  0  0  0  0
   28.6840   45.2630   -0.5340 C   0  0  0  0  0  0  0  0  0  0  0  0
   29.3620   50.3180   -4.4620 C   0  0  0  0  0  0  0  0  0  0  0  0
   29.0740   51.4460   -6.4820 C   0  0  0  0  0  0  0  0  0  0  0  0
   28.7820   52.6080   -7.2130 N   0  0  0  0  0  0  0  0  0  0  0  0
   29.0770   51.4590   -5.1230 N   0  0  0  0  0  0  0  0  0  0  0  0
   29.3220   53.8340   -6.6280 C   0  0  0  0  0  0  0  0  0  0  0  0
   30.5970   54.3440   -7.2240 C   0  0  0  0  0  0  0  0  0  0  0  0
   31.6340   54.5600   -6.3620 O   0  0  0  0  0  0  0  0  0  0  0  0
   30.9890   54.6630   -8.5130 C   0  0  0  0  0  0  0  0  0  0  0  0
   32.3340   55.0950   -8.4250 C   0  0  0  0  0  0  0  0  0  0  0  0
   32.6800   55.0140   -7.1000 C   0  0  0  0  0  0  0  0  0  0  0  0
  2  1  1  0
  2  3  1  0
  2  4  1  0
  2  5  1  0
  5  6  1  0
  4  7  1  0
  7  8  2  0
  7  9  1  0
  6 10  1  0
  8 11  1  0
  9 12  1  0
 11 12  2  0
 10 13  1  0
 10 14  1  0
 11 15  1  0
 12 16  1  0
 13 17  2  0
 13 18  1  0
 14 19  2  0
 18 19  1  0
 15 20  2  0
 16 21  2  0
 20 21  1  0
 17 22  1  0
 18 23  2  0
 23 24  1  0
 22 25  2  0
 23 25  1  0
 24 26  1  0
 26 27  1  0
 27 28  1  0
 27 29  2  0
 29 30  1  0
 28 31  1  0
 30 31  2  0
M  END
