mac-x0509-mac-x0404
     RDKit          3D

 27 30  0  0  0  0  0  0  0  0999 V2000
   38.3260   47.1240   -5.1870 O   0  0  0  0  0  0  0  0  0  0  0  0
   37.9720   45.9850   -4.9090 C   0  0  0  0  0  0  0  0  0  0  0  0
   36.6720   45.5450   -4.2410 C   0  0  2  0  0  0  0  0  0  0  0  0
   38.6470   44.7950   -5.1270 N   0  0  0  0  0  0  0  0  0  0  0  0
   35.9160   46.6330   -3.5140 C   0  0  0  0  0  0  0  0  0  0  0  0
   37.1810   44.3570   -3.4520 C   0  0  0  0  0  0  0  0  0  0  0  0
   38.3650   43.9420   -4.0630 C   0  0  0  0  0  0  0  0  0  0  0  0
   34.3950   46.4720   -3.6560 C   0  0  0  0  0  0  0  0  0  0  0  0
   36.6860   43.6890   -2.3410 C   0  0  0  0  0  0  0  0  0  0  0  0
   39.0840   42.8560   -3.6240 C   0  0  0  0  0  0  0  0  0  0  0  0
   33.8980   46.5600   -5.0460 N   0  0  0  0  0  0  0  0  0  0  0  0
   37.4060   42.5820   -1.8740 C   0  0  0  0  0  0  0  0  0  0  0  0
   38.5900   42.1670   -2.5120 C   0  0  0  0  0  0  0  0  0  0  0  0
   33.0220   45.7380   -5.5260 C   0  0  0  0  0  0  0  0  0  0  0  0
   32.4860   45.7730   -6.7650 O   0  0  0  0  0  0  0  0  0  0  0  0
   32.4770   44.5900   -4.6980 C   0  0  0  0  0  0  0  0  0  0  0  0
   31.1260   44.8250   -4.3250 O   0  0  0  0  0  0  0  0  0  0  0  0
   30.9210   45.7350   -3.3170 C   0  0  0  0  0  0  0  0  0  0  0  0
   29.7660   45.5630   -2.5260 C   0  0  0  0  0  0  0  0  0  0  0  0
   31.7930   46.7930   -3.0620 C   0  0  0  0  0  0  0  0  0  0  0  0
   29.5130   46.4780   -1.4800 C   0  0  0  0  0  0  0  0  0  0  0  0
   31.5410   47.6890   -2.0310 C   0  0  0  0  0  0  0  0  0  0  0  0
   28.8520   44.5120   -2.7400 C   0  0  0  0  0  0  0  0  0  0  0  0
   30.4040   47.5320   -1.2430 C   0  0  0  0  0  0  0  0  0  0  0  0
   28.3660   46.3230   -0.6870 C   0  0  0  0  0  0  0  0  0  0  0  0
   27.7180   44.3710   -1.9430 C   0  0  0  0  0  0  0  0  0  0  0  0
   27.4760   45.2750   -0.9180 C   0  0  0  0  0  0  0  0  0  0  0  0
  1  2  2  0
  2  3  1  0
  2  4  1  0
  3  5  1  1
  3  6  1  0
  4  7  1  0
  6  7  2  0
  5  8  1  0
  6  9  1  0
  7 10  1  0
  8 11  1  0
  9 12  2  0
 10 13  2  0
 12 13  1  0
 11 14  2  3
 14 15  1  0
 14 16  1  0
 16 17  1  0
 17 18  1  0
 18 19  1  0
 18 20  2  0
 19 21  2  0
 20 22  1  0
 19 23  1  0
 21 24  1  0
 22 24  2  0
 21 25  1  0
 23 26  2  0
 25 27  2  0
 26 27  1  0
M  END
