mac-x0453-mac-x0568
     RDKit          3D

 17 18  0  0  0  0  0  0  0  0999 V2000
   29.4240   54.0500   -6.7490 N   0  0  0  0  0  0  0  0  0  0  0  0
   30.5300   53.4360   -7.5000 C   0  0  0  0  0  0  0  0  0  0  0  0
   30.2700   51.9720   -7.8740 C   0  0  0  0  0  0  0  0  0  0  0  0
   29.0650   53.5420   -5.4990 C   0  0  0  0  0  0  0  0  0  0  0  0
   29.1130   54.3470   -4.3590 C   0  0  0  0  0  0  0  0  0  0  0  0
   28.6460   52.2240   -5.2990 C   0  0  0  0  0  0  0  0  0  0  0  0
   30.9000   50.9570   -6.9750 C   0  0  0  0  0  0  0  0  0  0  0  0
   28.7900   53.9490   -3.1030 N   0  0  0  0  0  0  0  0  0  0  0  0
   28.3020   51.7660   -4.0260 C   0  0  0  0  0  0  0  0  0  0  0  0
   27.8550   50.3800   -3.7550 C   0  0  0  0  0  0  0  0  0  0  0  0
   30.4690   49.6740   -6.6990 C   0  0  0  0  0  0  0  0  0  0  0  0
   32.0660   51.2200   -6.2830 N   0  0  0  0  0  0  0  0  0  0  0  0
   28.3920   52.6630   -2.9700 C   0  0  0  0  0  0  0  0  0  0  0  0
   28.2810   49.7470   -2.7950 O   0  0  0  0  0  0  0  0  0  0  0  0
   26.9440   49.8170   -4.6050 N   0  0  0  0  0  0  0  0  0  0  0  0
   31.3880   49.1580   -5.8280 N   0  0  0  0  0  0  0  0  0  0  0  0
   32.3250   50.1250   -5.6050 C   0  0  0  0  0  0  0  0  0  0  0  0
  1  2  1  0
  2  3  1  0
  1  4  1  0
  4  5  2  0
  4  6  1  0
  3  7  1  0
  5  8  1  0
  6  9  2  0
  9 10  1  0
  7 11  2  0
  7 12  1  0
  8 13  2  0
  9 13  1  0
 10 14  2  0
 10 15  1  0
 11 16  1  0
 12 17  2  0
 16 17  1  0
M  END
