mac-x0226-mac-x0204
     RDKit          3D

 23 25  0  0  0  0  0  0  0  0999 V2000
   32.5520   46.7220   -5.7340 O   0  0  0  0  0  0  0  0  0  0  0  0
   32.8160   45.4330   -6.0900 C   0  0  0  0  0  0  0  0  0  0  0  0
   32.5280   44.8810   -7.1420 O   0  0  0  0  0  0  0  0  0  0  0  0
   31.2790   47.0430   -5.4150 C   0  0  0  0  0  0  0  0  0  0  0  0
   30.2640   46.9140   -6.0760 O   0  0  0  0  0  0  0  0  0  0  0  0
   33.5210   44.7230   -5.0350 C   0  0  0  0  0  0  0  0  0  0  0  0
   31.2400   47.6270   -4.0480 C   0  0  0  0  0  0  0  0  0  0  0  0
   33.4020   43.3630   -4.7030 C   0  0  0  0  0  0  0  0  0  0  0  0
   34.4510   45.2020   -4.1310 C   0  0  0  0  0  0  0  0  0  0  0  0
   30.7320   46.8560   -2.9930 C   0  0  0  0  0  0  0  0  0  0  0  0
   31.6840   48.9110   -3.7590 C   0  0  0  0  0  0  0  0  0  0  0  0
   34.1850   43.0060   -3.6810 N   0  0  0  0  0  0  0  0  0  0  0  0
   34.8340   44.1440   -3.3270 N   0  0  0  0  0  0  0  0  0  0  0  0
   30.6930   47.4030   -1.7130 C   0  0  0  0  0  0  0  0  0  0  0  0
   31.6570   49.4650   -2.5200 N   0  0  0  0  0  0  0  0  0  0  0  0
   30.2120   46.7040   -0.6490 O   0  0  0  0  0  0  0  0  0  0  0  0
   35.7700   44.1510   -2.2540 C   0  0  0  0  0  0  0  0  0  0  0  0
   31.1600   48.6950   -1.5250 C   0  0  0  0  0  0  0  0  0  0  0  0
   36.5410   45.2990   -2.0240 C   0  0  0  0  0  0  0  0  0  0  0  0
   35.9340   43.0340   -1.4230 C   0  0  0  0  0  0  0  0  0  0  0  0
   37.4650   45.3310   -0.9750 C   0  0  0  0  0  0  0  0  0  0  0  0
   36.8630   43.0730   -0.3750 C   0  0  0  0  0  0  0  0  0  0  0  0
   37.6230   44.2170   -0.1540 C   0  0  0  0  0  0  0  0  0  0  0  0
  1  2  1  0
  2  3  2  0
  1  4  1  0
  4  5  2  0
  2  6  1  0
  4  7  1  0
  6  8  1  0
  6  9  2  0
  7 10  2  0
  7 11  1  0
  8 12  2  0
  9 13  1  0
 12 13  1  0
 10 14  1  0
 11 15  2  0
 14 16  1  0
 13 17  1  0
 14 18  2  0
 15 18  1  0
 17 19  2  0
 17 20  1  0
 19 21  1  0
 20 22  2  0
 21 23  2  0
 22 23  1  0
M  END
