mac-x0439-mac-x0139
     RDKit          3D

 27 30  0  0  0  0  0  0  0  0999 V2000
   30.1440   47.3610   -1.4200 Cl  0  0  0  0  0  0  0  0  0  0  0  0
   29.3970   45.8340   -1.7150 C   0  0  0  0  0  0  0  0  0  0  0  0
   28.7790   45.5780   -3.0470 C   0  0  1  0  0  0  0  0  0  0  0  0
   29.3600   44.8730   -0.7810 C   0  0  0  0  0  0  0  0  0  0  0  0
   29.3910   46.0750   -4.2850 C   0  0  0  0  0  0  0  0  0  0  0  0
   28.9990   44.1140   -3.3550 C   0  0  0  0  0  0  0  0  0  0  0  0
   28.7260   43.5910   -1.0740 C   0  0  0  0  0  0  0  0  0  0  0  0
   29.8250   45.0650   -5.0610 C   0  0  0  0  0  0  0  0  0  0  0  0
   29.5850   43.8210   -4.4810 N   0  0  0  0  0  0  0  0  0  0  0  0
   28.5280   43.1660   -2.3360 C   0  0  0  0  0  0  0  0  0  0  0  0
   30.4910   45.3040   -6.4440 C   0  0  2  0  0  0  0  0  0  0  0  0
   29.5630   44.8330   -7.4120 O   0  0  0  0  0  0  0  0  0  0  0  0
   31.6800   44.4820   -6.6400 N   0  0  0  0  0  0  0  0  0  0  0  0
   30.6460   46.7500   -6.6750 N   0  0  0  0  0  0  0  0  0  0  0  0
   31.2500   47.4620   -5.5480 C   0  0  0  0  0  0  0  0  0  0  0  0
   32.7890   44.6380   -6.0310 C   0  0  0  0  0  0  0  0  0  0  0  0
   29.7640   47.5180   -7.4500 C   0  0  0  0  0  0  0  0  0  0  0  0
   33.2310   45.6120   -4.9850 C   0  0  0  0  0  0  0  0  0  0  0  0
   33.7770   43.7780   -6.3720 O   0  0  0  0  0  0  0  0  0  0  0  0
   29.4990   48.8270   -7.1880 C   0  0  0  0  0  0  0  0  0  0  0  0
   29.1520   46.8610   -8.5270 N   0  0  0  0  0  0  0  0  0  0  0  0
   28.5490   49.5360   -8.0760 C   0  0  0  0  0  0  0  0  0  0  0  0
   28.3320   47.5340   -9.2710 C   0  0  0  0  0  0  0  0  0  0  0  0
   29.8750   49.8360   -6.2450 C   0  0  0  0  0  0  0  0  0  0  0  0
   28.0010   48.8400   -9.0990 N   0  0  0  0  0  0  0  0  0  0  0  0
   28.3800   50.7810   -7.7240 N   0  0  0  0  0  0  0  0  0  0  0  0
   29.1950   50.9320   -6.6120 C   0  0  0  0  0  0  0  0  0  0  0  0
  1  2  1  0
  2  3  1  0
  2  4  2  0
  3  5  1  6
  3  6  1  0
  4  7  1  0
  5  8  2  0
  6  9  2  0
  8  9  1  0
  6 10  1  0
  7 10  2  0
  8 11  1  0
 11 12  1  6
 11 13  1  0
 11 14  1  0
 14 15  1  0
 13 16  2  3
 14 17  1  0
 16 18  1  0
 16 19  1  0
 17 20  2  0
 17 21  1  0
 20 22  1  0
 21 23  2  0
 20 24  1  0
 22 25  1  0
 23 25  1  0
 22 26  2  0
 24 27  2  0
 26 27  1  0
M  END
