mac-x0365-mac-x0282
     RDKit          3D

 16 17  0  0  0  0  0  0  0  0999 V2000
   30.8260   47.3020   -5.3460 O   0  0  0  0  0  0  0  0  0  0  0  0
   30.7180   48.0730   -4.2490 C   0  0  0  0  0  0  0  0  0  0  0  0
   30.9470   47.6030   -3.1440 O   0  0  0  0  0  0  0  0  0  0  0  0
   30.2960   49.4980   -4.5520 C   0  0  2  0  0  0  0  0  0  0  0  0
   29.7570   50.1440   -3.2540 C   0  0  0  0  0  0  0  0  0  0  0  0
   29.3410   49.6080   -5.7930 C   0  0  2  0  0  0  0  0  0  0  0  0
   29.4510   51.6260   -3.4080 C   0  0  1  0  0  0  0  0  0  0  0  0
   28.6070   50.9730   -5.7390 C   0  0  0  0  0  0  0  0  0  0  0  0
   28.2770   48.5100   -5.8840 C   0  0  0  0  0  0  0  0  0  0  0  0
   30.2060   49.5460   -7.0990 C   0  0  0  0  0  0  0  0  0  0  0  0
   30.4690   52.3550   -2.8560 F   0  0  0  0  0  0  0  0  0  0  0  0
   29.3110   52.0340   -4.8770 C   0  0  1  0  0  0  0  0  0  0  0  0
   27.9340   47.9620   -7.0640 C   0  0  0  0  0  0  0  0  0  0  0  0
   29.3800   49.5520   -8.3130 N   0  0  0  0  0  0  0  0  0  0  0  0
   28.5480   53.2450   -4.9770 O   0  0  0  0  0  0  0  0  0  0  0  0
   28.5390   48.3560   -8.3810 C   0  0  0  0  0  0  0  0  0  0  0  0
  1  2  1  0
  2  3  2  0
  4  2  1  1
  4  5  1  0
  4  6  1  0
  5  7  1  0
  6  8  1  1
  6  9  1  0
  6 10  1  0
  7 11  1  6
  7 12  1  0
  8 12  1  0
  9 13  2  0
 10 14  1  0
 12 15  1  1
 13 16  1  0
 14 16  1  0
M  END
