mac-x0223-mac-x0302
     RDKit          3D

 24 25  0  0  0  0  0  0  0  0999 V2000
   27.3490   43.3260   -2.1950 C   0  0  0  0  0  0  0  0  0  0  0  0
   27.3080   44.7330   -1.9940 O   0  0  0  0  0  0  0  0  0  0  0  0
   28.4810   45.4160   -2.1950 C   0  0  0  0  0  0  0  0  0  0  0  0
   28.6640   46.5290   -1.3700 C   0  0  0  0  0  0  0  0  0  0  0  0
   29.4700   45.0970   -3.1280 C   0  0  0  0  0  0  0  0  0  0  0  0
   27.7100   46.8670   -0.4480 O   0  0  0  0  0  0  0  0  0  0  0  0
   29.8020   47.3210   -1.4600 C   0  0  0  0  0  0  0  0  0  0  0  0
   30.6330   45.8890   -3.2330 C   0  0  0  0  0  0  0  0  0  0  0  0
   31.7070   45.5390   -4.2460 C   0  0  0  0  0  0  0  0  0  0  0  0
   30.7860   47.0010   -2.3910 C   0  0  0  0  0  0  0  0  0  0  0  0
   31.7210   46.3930   -5.5380 C   0  0  0  0  0  0  0  0  0  0  0  0
   33.0570   46.7510   -5.8730 O   0  0  0  0  0  0  0  0  0  0  0  0
   31.2260   45.6560   -6.6430 O   0  0  0  0  0  0  0  0  0  0  0  0
   30.8920   47.7030   -5.3410 C   0  0  0  0  0  0  0  0  0  0  0  0
   31.6510   48.8460   -4.8550 N   0  0  0  0  0  0  0  0  0  0  0  0
   31.0770   49.7690   -3.9940 C   0  0  0  0  0  0  0  0  0  0  0  0
   31.3130   49.8270   -2.7920 O   0  0  0  0  0  0  0  0  0  0  0  0
   30.1260   50.7380   -4.6050 C   0  0  0  0  0  0  0  0  0  0  0  0
   30.0590   52.0200   -4.0460 C   0  0  0  0  0  0  0  0  0  0  0  0
   29.3120   50.4110   -5.7000 C   0  0  0  0  0  0  0  0  0  0  0  0
   29.1870   52.9590   -4.5860 C   0  0  0  0  0  0  0  0  0  0  0  0
   28.4400   51.3660   -6.2300 C   0  0  0  0  0  0  0  0  0  0  0  0
   29.0940   54.2190   -4.0690 O   0  0  0  0  0  0  0  0  0  0  0  0
   28.3780   52.6430   -5.6730 C   0  0  0  0  0  0  0  0  0  0  0  0
  1  2  1  0
  2  3  1  0
  3  4  2  0
  3  5  1  0
  4  6  1  0
  4  7  1  0
  5  8  2  0
  8  9  1  0
  7 10  2  0
  8 10  1  0
  9 11  1  0
 11 12  1  0
 11 13  1  0
 11 14  1  0
 14 15  1  0
 15 16  1  0
 16 17  2  0
 16 18  1  0
 18 19  2  0
 18 20  1  0
 19 21  1  0
 20 22  2  0
 21 23  1  0
 21 24  2  0
 22 24  1  0
M  END
