mac-x0283-mac-x0402
     RDKit          3D

 11 12  0  0  0  0  0  0  0  0999 V2000
   28.5410   54.4090   -6.7060 N   0  0  0  0  0  0  0  0  0  0  0  0
   29.0200   53.7850   -5.6110 C   0  0  0  0  0  0  0  0  0  0  0  0
   29.4150   54.4080   -4.4980 N   0  0  0  0  0  0  0  0  0  0  0  0
   29.1710   52.3760   -5.4980 C   0  0  0  0  0  0  0  0  0  0  0  0
   29.8340   53.4130   -3.6310 O   0  0  0  0  0  0  0  0  0  0  0  0
   29.6900   52.1990   -4.2290 C   0  0  0  0  0  0  0  0  0  0  0  0
   28.9390   51.2420   -6.2960 C   0  0  0  0  0  0  0  0  0  0  0  0
   30.0100   50.9610   -3.6690 C   0  0  0  0  0  0  0  0  0  0  0  0
   29.2490   49.9770   -5.7700 C   0  0  0  0  0  0  0  0  0  0  0  0
   29.7770   49.8420   -4.4790 C   0  0  0  0  0  0  0  0  0  0  0  0
   30.1530   48.2630   -3.8730 Cl  0  0  0  0  0  0  0  0  0  0  0  0
  1  2  1  0
  2  3  2  0
  2  4  1  0
  3  5  1  0
  4  6  2  0
  5  6  1  0
  4  7  1  0
  6  8  1  0
  7  9  2  0
  8 10  2  0
  9 10  1  0
 10 11  1  0
M  END
