mac-x0306-mac-x0385
     RDKit          3D

 13 14  0  0  0  0  0  0  0  0999 V2000
   28.7070   48.6690   -6.1800 C   0  0  0  0  0  0  0  0  0  0  0  0
   29.1590   49.7670   -5.2590 C   0  0  0  0  0  0  0  0  0  0  0  0
   29.7170   49.3640   -4.0860 N   0  0  0  0  0  0  0  0  0  0  0  0
   29.0000   51.1180   -5.6160 C   0  0  0  0  0  0  0  0  0  0  0  0
   28.4050   51.4590   -6.8620 N   0  0  0  0  0  0  0  0  0  0  0  0
   30.1300   50.3290   -3.2420 C   0  0  0  0  0  0  0  0  0  0  0  0
   29.4450   52.1100   -4.7040 C   0  0  0  0  0  0  0  0  0  0  0  0
   29.3090   53.5520   -5.0140 C   0  0  0  0  0  0  0  0  0  0  0  0
   30.0180   51.6860   -3.5000 C   0  0  0  0  0  0  0  0  0  0  0  0
   28.8260   54.0700   -6.1960 N   0  0  0  0  0  0  0  0  0  0  0  0
   29.6290   54.5500   -4.2040 N   0  0  0  0  0  0  0  0  0  0  0  0
   29.3500   55.7110   -4.8740 C   0  0  0  0  0  0  0  0  0  0  0  0
   28.8480   55.4330   -6.1180 C   0  0  0  0  0  0  0  0  0  0  0  0
  1  2  1  0
  2  3  2  0
  2  4  1  0
  4  5  1  0
  3  6  1  0
  4  7  2  0
  7  8  1  0
  6  9  2  0
  7  9  1  0
  8 10  1  0
  8 11  2  0
 11 12  1  0
 10 13  1  0
 12 13  2  0
M  END
