mac-x0360-mac-x0204
     RDKit          3D

 23 24  0  0  0  0  0  0  0  0999 V2000
   31.9420   55.4110   -6.7710 Cl  0  0  0  0  0  0  0  0  0  0  0  0
   32.0620   53.7330   -6.4090 C   0  0  0  0  0  0  0  0  0  0  0  0
   33.3210   53.1480   -6.2800 C   0  0  0  0  0  0  0  0  0  0  0  0
   30.9050   52.9780   -6.2520 C   0  0  0  0  0  0  0  0  0  0  0  0
   31.0140   51.6140   -5.9600 C   0  0  0  0  0  0  0  0  0  0  0  0
   33.4170   51.7860   -5.9870 C   0  0  0  0  0  0  0  0  0  0  0  0
   34.9700   51.0650   -5.8260 Cl  0  0  0  0  0  0  0  0  0  0  0  0
   29.5270   50.6610   -5.7630 S   0  0  0  0  0  0  0  0  0  0  0  0
   32.2680   51.0080   -5.8240 C   0  0  0  0  0  0  0  0  0  0  0  0
   30.0750   49.2080   -5.1570 N   0  0  0  0  0  0  0  0  0  0  0  0
   28.7230   51.2930   -4.7380 O   0  0  0  0  0  0  0  0  0  0  0  0
   29.0090   50.3940   -7.0850 O   0  0  0  0  0  0  0  0  0  0  0  0
   30.5610   48.1480   -6.0620 C   0  0  0  0  0  0  0  0  0  0  0  0
   30.7810   46.7870   -5.3180 C   0  0  0  0  0  0  0  0  0  0  0  0
   31.6930   46.0060   -6.0770 O   0  0  0  0  0  0  0  0  0  0  0  0
   29.5750   46.0240   -5.3650 O   0  0  0  0  0  0  0  0  0  0  0  0
   31.2670   46.9080   -3.8860 C   0  0  0  0  0  0  0  0  0  0  0  0
   30.3910   47.0340   -2.7950 C   0  0  0  0  0  0  0  0  0  0  0  0
   32.6330   46.8970   -3.5910 C   0  0  0  0  0  0  0  0  0  0  0  0
   30.8980   47.1400   -1.5030 C   0  0  0  0  0  0  0  0  0  0  0  0
   33.1520   46.9980   -2.3400 N   0  0  0  0  0  0  0  0  0  0  0  0
   30.0850   47.2650   -0.4170 O   0  0  0  0  0  0  0  0  0  0  0  0
   32.2690   47.1190   -1.3250 C   0  0  0  0  0  0  0  0  0  0  0  0
  1  2  1  0
  2  3  2  0
  2  4  1  0
  4  5  2  0
  3  6  1  0
  6  7  1  0
  5  8  1  0
  5  9  1  0
  6  9  2  0
  8 10  1  0
  8 11  2  0
  8 12  2  0
 10 13  1  0
 13 14  1  0
 14 15  1  0
 14 16  1  0
 14 17  1  0
 17 18  2  0
 17 19  1  0
 18 20  1  0
 19 21  2  0
 20 22  1  0
 20 23  2  0
 21 23  1  0
M  END
