mac-x0223-mac-x0379
     RDKit          3D

 21 22  0  0  0  0  0  0  0  0999 V2000
   26.7060   43.6730   -2.6350 C   0  0  0  0  0  0  0  0  0  0  0  0
   28.0360   43.3220   -2.2720 O   0  0  0  0  0  0  0  0  0  0  0  0
   28.9310   44.3580   -2.1530 C   0  0  0  0  0  0  0  0  0  0  0  0
   29.5890   44.4320   -0.9200 C   0  0  0  0  0  0  0  0  0  0  0  0
   29.2270   45.3110   -3.1320 C   0  0  0  0  0  0  0  0  0  0  0  0
   29.3200   43.5150    0.0590 O   0  0  0  0  0  0  0  0  0  0  0  0
   30.5220   45.4240   -0.6490 C   0  0  0  0  0  0  0  0  0  0  0  0
   30.1700   46.3250   -2.8740 C   0  0  0  0  0  0  0  0  0  0  0  0
   30.4880   47.3390   -3.9100 C   0  0  0  0  0  0  0  0  0  0  0  0
   30.8130   46.3710   -1.6280 C   0  0  0  0  0  0  0  0  0  0  0  0
   31.4330   46.9940   -5.0100 C   0  0  0  0  0  0  0  0  0  0  0  0
   29.9400   48.5880   -3.8870 C   0  0  0  0  0  0  0  0  0  0  0  0
   32.6470   47.1430   -4.9740 O   0  0  0  0  0  0  0  0  0  0  0  0
   30.8390   46.4730   -6.0980 O   0  0  0  0  0  0  0  0  0  0  0  0
   29.0520   49.0270   -2.9180 O   0  0  0  0  0  0  0  0  0  0  0  0
   30.2030   49.6150   -4.8470 C   0  0  0  0  0  0  0  0  0  0  0  0
   31.3350   50.3860   -5.0780 C   0  0  0  0  0  0  0  0  0  0  0  0
   28.9900   50.0960   -5.9860 S   0  0  0  0  0  0  0  0  0  0  0  0
   30.0650   51.2540   -6.6560 C   0  0  0  0  0  0  0  0  0  0  0  0
   31.2560   51.3120   -6.1030 N   0  0  0  0  0  0  0  0  0  0  0  0
   29.6230   52.1060   -7.7910 C   0  0  0  0  0  0  0  0  0  0  0  0
  1  2  1  0
  2  3  1  0
  3  4  2  0
  3  5  1  0
  4  6  1  0
  4  7  1  0
  5  8  2  0
  8  9  1  0
  7 10  2  0
  8 10  1  0
  9 11  1  0
  9 12  2  3
 11 13  2  0
 11 14  1  0
 12 15  1  0
 12 16  1  0
 16 17  2  0
 16 18  1  0
 18 19  1  0
 17 20  1  0
 19 20  2  0
 19 21  1  0
M  END
