mac-x0137-mac-x0116
     RDKit          3D

 27 31  0  0  0  0  0  0  0  0999 V2000
   31.1130   48.0240   -2.1130 F   0  0  0  0  0  0  0  0  0  0  0  0
   31.1180   48.0460   -3.4770 C   0  0  1  0  0  0  0  0  0  0  0  0
   31.9190   46.8560   -3.9830 C   0  0  0  0  0  0  0  0  0  0  0  0
   29.6700   48.0510   -4.0080 C   0  0  0  0  0  0  0  0  0  0  0  0
   29.6020   47.8960   -5.4710 N   0  0  0  0  0  0  0  0  0  0  0  0
   31.7350   46.6790   -5.4860 C   0  0  0  0  0  0  0  0  0  0  0  0
   30.2490   46.6490   -5.8630 C   0  0  0  0  0  0  0  0  0  0  0  0
   29.7160   49.0960   -6.3310 C   0  0  1  0  0  0  0  0  0  0  0  0
   29.9200   48.6000   -7.6810 N   0  0  0  0  0  0  0  0  0  0  0  0
   28.6790   50.3230   -6.4440 C   0  0  1  0  0  0  0  0  0  0  0  0
   30.9780   49.6780   -5.8830 N   0  0  0  0  0  0  0  0  0  0  0  0
   28.6990   48.0530   -8.3040 C   0  0  0  0  0  0  0  0  0  0  0  0
   27.5590   49.8830   -7.4190 C   0  0  1  0  0  0  0  0  0  0  0  0
   27.6100   50.7610   -5.3390 C   0  0  0  0  0  0  0  0  0  0  0  0
   30.8530   50.6640   -4.8000 C   0  0  0  0  0  0  0  0  0  0  0  0
   29.4800   51.6620   -6.4850 C   0  0  1  0  0  0  0  0  0  0  0  0
   28.8210   52.9340   -6.7100 N   0  0  0  0  0  0  0  0  0  0  0  0
   27.4380   48.4690   -7.6400 N   0  0  0  0  0  0  0  0  0  0  0  0
   26.5310   50.9190   -7.3100 N   0  0  0  0  0  0  0  0  0  0  0  0
   26.4410   51.0780   -5.9360 C   0  0  0  0  0  0  0  0  0  0  0  0
   30.1190   51.8370   -5.1880 N   0  0  0  0  0  0  0  0  0  0  0  0
   29.5190   54.1250   -6.2460 C   0  0  0  0  0  0  0  0  0  0  0  0
   30.8150   54.3720   -6.9390 C   0  0  0  0  0  0  0  0  0  0  0  0
   31.9490   54.2050   -6.1990 O   0  0  0  0  0  0  0  0  0  0  0  0
   31.1430   54.7510   -8.2240 C   0  0  0  0  0  0  0  0  0  0  0  0
   32.5590   54.8170   -8.2700 C   0  0  0  0  0  0  0  0  0  0  0  0
   32.9990   54.4770   -7.0140 C   0  0  0  0  0  0  0  0  0  0  0  0
  2  1  1  1
  2  3  1  0
  2  4  1  0
  4  5  1  0
  3  6  1  0
  5  7  1  0
  6  7  1  0
  8  5  1  1
  8  9  1  0
  8 10  1  0
  8 11  1  0
  9 12  1  0
 10 13  1  0
 10 14  1  1
 11 15  1  0
 10 16  1  0
 16 17  1  1
 12 18  1  0
 13 18  1  1
 13 19  1  0
 14 20  2  0
 19 20  1  0
 15 21  1  0
 16 21  1  0
 17 22  1  0
 22 23  1  0
 23 24  1  0
 23 25  2  0
 25 26  1  0
 24 27  1  0
 26 27  2  0
M  END
