mac-x0546-mac-x0131
     RDKit          3D

 32 36  0  0  0  0  0  0  0  0999 V2000
   30.6760   49.2820   -2.4330 C   0  0  0  0  0  0  0  0  0  0  0  0
   29.9290   48.3930   -1.5950 O   0  0  0  0  0  0  0  0  0  0  0  0
   30.0740   47.0350   -1.6980 C   0  0  0  0  0  0  0  0  0  0  0  0
   30.0590   49.4090   -3.8030 C   0  0  0  0  0  0  0  0  0  0  0  0
   29.3220   50.4770   -4.3180 C   0  0  0  0  0  0  0  0  0  0  0  0
   30.1330   48.4470   -4.8070 N   0  0  0  0  0  0  0  0  0  0  0  0
   28.9940   51.7370   -3.5850 C   0  0  0  0  0  0  0  0  0  0  0  0
   30.7940   47.1510   -4.7690 C   0  0  0  0  0  0  0  0  0  0  0  0
   31.1070   46.3440   -2.2380 C   0  0  0  0  0  0  0  0  0  0  0  0
   28.9370   46.3120   -1.1300 C   0  0  0  0  0  0  0  0  0  0  0  0
   28.9470   50.1400   -5.6610 C   0  0  0  0  0  0  0  0  0  0  0  0
   29.4640   48.8840   -5.9230 C   0  0  0  0  0  0  0  0  0  0  0  0
   31.0730   44.8460   -2.2600 C   0  0  1  0  0  0  0  0  0  0  0  0
   28.6590   45.0350   -1.4410 C   0  0  0  0  0  0  0  0  0  0  0  0
   28.2270   50.7340   -6.7150 C   0  0  0  0  0  0  0  0  0  0  0  0
   29.3420   48.1940   -7.0700 N   0  0  0  0  0  0  0  0  0  0  0  0
   32.2790   47.2710   -4.7840 C   0  0  0  0  0  0  0  0  0  0  0  0
   27.6290   51.9930   -6.6570 N   0  0  0  0  0  0  0  0  0  0  0  0
   29.6050   44.4590   -2.4020 C   0  0  0  0  0  0  0  0  0  0  0  0
   31.5350   44.0640   -3.4600 C   0  0  0  0  0  0  0  0  0  0  0  0
   28.0810   50.0790   -7.8790 N   0  0  0  0  0  0  0  0  0  0  0  0
   28.6380   48.8630   -7.9920 C   0  0  0  0  0  0  0  0  0  0  0  0
   33.3020   46.6370   -5.4620 C   0  0  0  0  0  0  0  0  0  0  0  0
   32.8060   48.2200   -3.9490 O   0  0  0  0  0  0  0  0  0  0  0  0
   32.9420   44.0040   -3.9570 C   0  0  0  0  0  0  0  0  0  0  0  0
   29.2930   43.6510   -3.3690 N   0  0  0  0  0  0  0  0  0  0  0  0
   30.4870   43.4270   -4.0040 C   0  0  0  0  0  0  0  0  0  0  0  0
   34.1530   48.1800   -4.0990 C   0  0  0  0  0  0  0  0  0  0  0  0
   34.5110   47.2250   -5.0150 C   0  0  0  0  0  0  0  0  0  0  0  0
   33.0830   43.5940   -5.4100 C   0  0  0  0  0  0  0  0  0  0  0  0
   32.1670   43.2260   -6.1300 O   0  0  0  0  0  0  0  0  0  0  0  0
   34.3480   43.6690   -5.8690 O   0  0  0  0  0  0  0  0  0  0  0  0
  1  2  1  0
  2  3  1  0
  1  4  1  0
  4  5  2  0
  4  6  1  0
  5  7  1  0
  6  8  1  0
  3  9  2  0
  3 10  1  0
  5 11  1  0
  6 12  1  0
 11 12  2  0
 13  9  1  6
 10 14  2  0
 11 15  1  0
 12 16  1  0
  8 17  1  0
 15 18  1  0
 13 19  1  0
 14 19  1  0
 13 20  1  0
 15 21  2  0
 16 22  2  0
 21 22  1  0
 17 23  2  0
 17 24  1  0
 20 25  1  0
 19 26  2  0
 20 27  2  0
 26 27  1  0
 24 28  1  0
 23 29  1  0
 28 29  2  0
 25 30  1  0
 30 31  2  0
 30 32  1  0
M  END
