mac-x0305-mac-x0303
     RDKit          3D

 18 19  0  0  0  0  0  0  0  0999 V2000
   30.7840   47.3120   -7.3290 O   0  0  0  0  0  0  0  0  0  0  0  0
   30.3580   47.2820   -6.0450 C   0  0  0  0  0  0  0  0  0  0  0  0
   30.6450   46.3300   -5.3350 O   0  0  0  0  0  0  0  0  0  0  0  0
   29.5220   48.5100   -5.6350 C   0  0  2  0  0  0  0  0  0  0  0  0
   29.2120   49.4720   -6.7900 C   0  0  1  0  0  0  0  0  0  0  0  0
   30.1750   49.2050   -4.4980 N   0  0  0  0  0  0  0  0  0  0  0  0
   28.5410   48.8330   -7.8760 O   0  0  0  0  0  0  0  0  0  0  0  0
   28.4510   50.7000   -6.2630 C   0  0  0  0  0  0  0  0  0  0  0  0
   30.5020   50.6170   -4.7680 C   0  0  0  0  0  0  0  0  0  0  0  0
   29.3050   51.5140   -5.2520 C   0  0  2  0  0  0  0  0  0  0  0  0
   28.5600   52.0530   -4.0070 C   0  0  0  0  0  0  0  0  0  0  0  0
   29.7480   52.7970   -5.9210 N   0  0  0  0  0  0  0  0  0  0  0  0
   28.9180   53.8540   -5.2940 C   0  0  1  0  0  0  0  0  0  0  0  0
   28.9820   53.4610   -3.8920 N   0  0  0  0  0  0  0  0  0  0  0  0
   29.1930   55.7400   -5.7350 S   0  0  0  0  0  0  0  0  0  0  0  0
   30.5680   55.8150   -6.6980 N   0  0  0  0  0  0  0  0  0  0  0  0
   28.1170   56.1960   -6.5860 O   0  0  0  0  0  0  0  0  0  0  0  0
   29.5350   56.5010   -4.5500 O   0  0  0  0  0  0  0  0  0  0  0  0
  1  2  1  0
  2  3  2  0
  4  2  1  6
  4  5  1  0
  4  6  1  0
  5  7  1  6
  5  8  1  0
  6  9  1  0
 10  8  1  6
  9 10  1  0
 10 11  1  0
 10 12  1  0
 12 13  1  0
 11 14  1  0
 13 14  1  0
 13 15  1  1
 15 16  1  0
 15 17  2  0
 15 18  2  0
M  END
