mac-x0496-mac-x0224
     RDKit          3D

 31 33  0  0  0  0  0  0  0  0999 V2000
   24.4510   58.6140   -6.0560 C   0  0  0  0  0  0  0  0  0  0  0  0
   25.8180   58.3550   -5.5660 C   0  0  0  0  0  0  0  0  0  0  0  0
   26.2690   58.8370   -4.4020 N   0  0  0  0  0  0  0  0  0  0  0  0
   26.7190   57.6010   -6.2730 N   0  0  0  0  0  0  0  0  0  0  0  0
   27.5790   58.3550   -4.3430 O   0  0  0  0  0  0  0  0  0  0  0  0
   27.7730   57.6320   -5.4840 C   0  0  0  0  0  0  0  0  0  0  0  0
   29.1040   57.0030   -5.6680 C   0  0  0  0  0  0  0  0  0  0  0  0
   28.9430   55.5680   -5.7960 N   0  0  0  0  0  0  0  0  0  0  0  0
   29.2590   54.7490   -4.7390 C   0  0  0  0  0  0  0  0  0  0  0  0
   29.9570   55.1210   -3.8060 O   0  0  0  0  0  0  0  0  0  0  0  0
   28.7220   53.3620   -4.7500 C   0  0  0  0  0  0  0  0  0  0  0  0
   27.8670   52.8650   -5.7460 C   0  0  0  0  0  0  0  0  0  0  0  0
   29.1110   52.5360   -3.6950 C   0  0  0  0  0  0  0  0  0  0  0  0
   27.4050   51.5460   -5.6780 C   0  0  0  0  0  0  0  0  0  0  0  0
   28.6550   51.2230   -3.6220 C   0  0  0  0  0  0  0  0  0  0  0  0
   29.1120   50.4000   -2.4790 C   0  0  0  0  0  0  0  0  0  0  0  0
   27.7960   50.7200   -4.6170 C   0  0  0  0  0  0  0  0  0  0  0  0
   29.7150   49.2760   -2.6330 N   0  0  0  0  0  0  0  0  0  0  0  0
   28.8570   50.9370   -1.2730 O   0  0  0  0  0  0  0  0  0  0  0  0
   29.8890   48.8730   -3.9550 C   0  0  0  0  0  0  0  0  0  0  0  0
   30.2380   47.5540   -4.2220 C   0  0  0  0  0  0  0  0  0  0  0  0
   29.7110   49.7710   -5.0080 C   0  0  0  0  0  0  0  0  0  0  0  0
   30.4080   46.7080   -3.1540 O   0  0  0  0  0  0  0  0  0  0  0  0
   29.8650   49.3640   -6.3260 C   0  0  0  0  0  0  0  0  0  0  0  0
   30.3990   47.1330   -5.5330 C   0  0  0  0  0  0  0  0  0  0  0  0
   29.6260   50.5030   -7.6780 S   0  0  0  0  0  0  0  0  0  0  0  0
   30.7610   45.7540   -5.8830 C   0  0  0  0  0  0  0  0  0  0  0  0
   30.2120   48.0390   -6.5880 C   0  0  0  0  0  0  0  0  0  0  0  0
   30.1620   52.0530   -6.9060 C   0  0  0  0  0  0  0  0  0  0  0  0
   30.6580   45.2610   -6.9900 O   0  0  0  0  0  0  0  0  0  0  0  0
   31.2290   45.0590   -4.8350 O   0  0  0  0  0  0  0  0  0  0  0  0
  1  2  1  0
  2  3  2  0
  2  4  1  0
  3  5  1  0
  4  6  2  0
  5  6  1  0
  6  7  1  0
  7  8  1  0
  8  9  1  0
  9 10  2  0
  9 11  1  0
 11 12  2  0
 11 13  1  0
 12 14  1  0
 13 15  2  0
 15 16  1  0
 14 17  2  0
 15 17  1  0
 16 18  2  3
 16 19  1  0
 18 20  1  0
 20 21  2  0
 20 22  1  0
 21 23  1  0
 22 24  2  0
 21 25  1  0
 24 26  1  0
 25 27  1  0
 24 28  1  0
 25 28  2  0
 26 29  1  0
 27 30  2  0
 27 31  1  0
M  END
