mac-x0161-mac-x0137
     RDKit          3D

 23 26  0  0  0  0  0  0  0  0999 V2000
   28.4750   52.8450   -4.8700 N   0  0  0  0  0  0  0  0  0  0  0  0
   28.3680   51.4080   -4.7430 C   0  0  1  0  0  0  0  0  0  0  0  0
   28.8270   50.5540   -5.9160 C   0  0  1  0  0  0  0  0  0  0  0  0
   29.1830   51.1420   -3.5650 N   0  0  0  0  0  0  0  0  0  0  0  0
   29.4320   49.7260   -3.2380 C   0  0  0  0  0  0  0  0  0  0  0  0
   28.8990   49.1170   -5.4580 C   0  0  2  0  0  0  0  0  0  0  0  0
   28.0130   50.4010   -7.2010 C   0  0  1  0  0  0  0  0  0  0  0  0
   29.8920   48.9560   -4.3980 N   0  0  0  0  0  0  0  0  0  0  0  0
   29.2650   48.3570   -6.6470 N   0  0  0  0  0  0  0  0  0  0  0  0
   28.4980   49.0210   -7.7280 C   0  0  0  0  0  0  0  0  0  0  0  0
   26.5510   50.3050   -6.8510 N   0  0  0  0  0  0  0  0  0  0  0  0
   28.0500   51.4970   -8.2220 C   0  0  0  0  0  0  0  0  0  0  0  0
   30.0880   47.5330   -4.0720 C   0  0  0  0  0  0  0  0  0  0  0  0
   26.8430   52.0000   -8.4750 C   0  0  0  0  0  0  0  0  0  0  0  0
   25.9930   51.2130   -7.5930 C   0  0  0  0  0  0  0  0  0  0  0  0
   31.5160   47.1550   -3.8880 C   0  0  0  0  0  0  0  0  0  0  0  0
   32.5000   47.4830   -2.9960 C   0  0  0  0  0  0  0  0  0  0  0  0
   32.0420   46.2700   -4.7880 O   0  0  0  0  0  0  0  0  0  0  0  0
   32.3950   48.3220   -1.9570 F   0  0  0  0  0  0  0  0  0  0  0  0
   33.3760   46.0210   -4.4810 N   0  0  0  0  0  0  0  0  0  0  0  0
   33.6280   46.7640   -3.3980 C   0  0  0  0  0  0  0  0  0  0  0  0
   34.8480   46.7750   -2.8100 O   0  0  0  0  0  0  0  0  0  0  0  0
   34.9980   47.7470   -1.7790 C   0  0  0  0  0  0  0  0  0  0  0  0
  2  1  1  6
  3  2  1  1
  2  4  1  0
  4  5  1  0
  3  6  1  0
  3  7  1  0
  5  8  1  0
  6  8  1  0
  6  9  1  6
  7 10  1  6
  9 10  1  0
  7 11  1  0
  7 12  1  0
  8 13  1  0
 12 14  2  0
 11 15  2  0
 14 15  1  0
 13 16  1  0
 16 17  2  0
 16 18  1  0
 17 19  1  0
 18 20  1  0
 17 21  1  0
 20 21  2  0
 21 22  1  0
 22 23  1  0
M  END
