mac-x0357-mac-x0398
     RDKit          3D

 23 24  0  0  0  0  0  0  0  0999 V2000
   32.2410   43.3500   -4.9140 C   0  0  0  0  0  0  0  0  0  0  0  0
   33.0740   44.5070   -4.4400 C   0  0  0  0  0  0  0  0  0  0  0  0
   34.1650   44.3060   -3.5830 C   0  0  0  0  0  0  0  0  0  0  0  0
   32.8000   45.8300   -4.8310 C   0  0  0  0  0  0  0  0  0  0  0  0
   34.5340   43.0700   -3.1290 O   0  0  0  0  0  0  0  0  0  0  0  0
   31.6810   46.1520   -5.7220 C   0  0  0  0  0  0  0  0  0  0  0  0
   33.5840   46.9050   -4.3820 C   0  0  0  0  0  0  0  0  0  0  0  0
   34.9510   45.3690   -3.1300 C   0  0  0  0  0  0  0  0  0  0  0  0
   30.6160   46.8250   -5.5160 N   0  0  0  0  0  0  0  0  0  0  0  0
   31.8530   45.6260   -6.9430 O   0  0  0  0  0  0  0  0  0  0  0  0
   34.6600   46.6690   -3.5300 C   0  0  0  0  0  0  0  0  0  0  0  0
   30.4550   47.3890   -4.1720 C   0  0  0  0  0  0  0  0  0  0  0  0
   29.4890   48.4320   -4.0900 O   0  0  0  0  0  0  0  0  0  0  0  0
   29.9100   49.5440   -3.4510 C   0  0  0  0  0  0  0  0  0  0  0  0
   30.4510   49.6160   -2.3640 O   0  0  0  0  0  0  0  0  0  0  0  0
   29.6000   50.7090   -4.2950 C   0  0  0  0  0  0  0  0  0  0  0  0
   29.6180   51.9990   -3.7580 C   0  0  0  0  0  0  0  0  0  0  0  0
   29.2860   50.5090   -5.6460 C   0  0  0  0  0  0  0  0  0  0  0  0
   29.9260   52.1850   -2.4380 O   0  0  0  0  0  0  0  0  0  0  0  0
   29.3200   53.0980   -4.5710 C   0  0  0  0  0  0  0  0  0  0  0  0
   28.9870   51.6160   -6.4560 C   0  0  0  0  0  0  0  0  0  0  0  0
   29.0020   52.9140   -5.9220 C   0  0  0  0  0  0  0  0  0  0  0  0
   28.7020   54.0220   -6.7310 N   0  0  0  0  0  0  0  0  0  0  0  0
  1  2  1  0
  2  3  2  0
  2  4  1  0
  3  5  1  0
  4  6  1  0
  4  7  2  0
  3  8  1  0
  6  9  2  3
  6 10  1  0
  7 11  1  0
  8 11  2  0
  9 12  1  0
 12 13  1  0
 13 14  1  0
 14 15  2  0
 14 16  1  0
 16 17  2  0
 16 18  1  0
 17 19  1  0
 17 20  1  0
 18 21  2  0
 20 22  2  0
 21 22  1  0
 22 23  1  0
M  END
