mac-x0565-mac-x0387
     RDKit          3D

 18 20  0  0  0  0  0  0  0  0999 V2000
   29.2580   53.4040   -5.2490 O   0  0  0  0  0  0  0  0  0  0  0  0
   29.7640   53.0960   -4.0360 C   0  0  0  0  0  0  0  0  0  0  0  0
   30.0430   53.9320   -3.1980 O   0  0  0  0  0  0  0  0  0  0  0  0
   29.9350   51.6380   -3.8290 C   0  0  0  0  0  0  0  0  0  0  0  0
   29.5900   50.7440   -4.8390 C   0  0  0  0  0  0  0  0  0  0  0  0
   30.4450   51.1610   -2.6010 C   0  0  0  0  0  0  0  0  0  0  0  0
   29.7490   49.3880   -4.6200 C   0  0  0  0  0  0  0  0  0  0  0  0
   30.6070   49.7820   -2.3880 C   0  0  0  0  0  0  0  0  0  0  0  0
   30.2480   48.9240   -3.4130 C   0  0  0  0  0  0  0  0  0  0  0  0
   29.4270   48.2460   -5.5360 C   0  0  1  0  0  0  0  0  0  0  0  0
   30.3340   47.5570   -3.3600 O   0  0  0  0  0  0  0  0  0  0  0  0
   29.4310   47.1460   -4.4280 C   0  0  0  0  0  0  0  0  0  0  0  0
   28.0320   48.5470   -6.1260 C   0  0  0  0  0  0  0  0  0  0  0  0
   30.3900   47.9320   -6.6700 C   0  0  0  0  0  0  0  0  0  0  0  0
   28.1650   49.5390   -7.3050 C   0  0  2  0  0  0  0  0  0  0  0  0
   30.0850   48.2340   -7.9510 C   0  0  0  0  0  0  0  0  0  0  0  0
   26.9250   50.1760   -7.6880 N   0  0  0  0  0  0  0  0  0  0  0  0
   28.9140   48.8450   -8.3170 N   0  0  0  0  0  0  0  0  0  0  0  0
  1  2  1  0
  2  3  2  0
  2  4  1  0
  4  5  2  0
  4  6  1  0
  5  7  1  0
  6  8  2  0
  7  9  2  0
  8  9  1  0
  7 10  1  0
  9 11  1  0
 10 12  1  1
 11 12  1  0
 10 13  1  0
 10 14  1  0
 13 15  1  0
 14 16  2  0
 15 17  1  6
 15 18  1  0
 16 18  1  0
M  END
