mac-x0565-mac-x0190
     RDKit          3D

 23 26  0  0  0  0  0  0  0  0999 V2000
   29.2350   53.6920   -2.2880 O   0  0  0  0  0  0  0  0  0  0  0  0
   30.0580   53.0700   -3.2550 C   0  0  0  0  0  0  0  0  0  0  0  0
   31.2940   53.7560   -3.1700 O   0  0  0  0  0  0  0  0  0  0  0  0
   30.2490   51.5750   -2.9880 C   0  0  0  0  0  0  0  0  0  0  0  0
   29.4220   53.2350   -4.5620 N   0  0  0  0  0  0  0  0  0  0  0  0
   30.6360   50.7100   -4.0430 C   0  0  0  0  0  0  0  0  0  0  0  0
   30.0420   51.0170   -1.7030 C   0  0  0  0  0  0  0  0  0  0  0  0
   29.4460   54.3600   -5.3750 C   0  0  0  0  0  0  0  0  0  0  0  0
   28.6850   52.2690   -5.2050 C   0  0  0  0  0  0  0  0  0  0  0  0
   30.1360   55.6500   -5.0560 C   0  0  0  0  0  0  0  0  0  0  0  0
   30.7900   49.3660   -3.7770 C   0  0  0  0  0  0  0  0  0  0  0  0
   30.2090   49.6450   -1.4650 C   0  0  0  0  0  0  0  0  0  0  0  0
   28.2990   52.8600   -6.3970 C   0  0  0  0  0  0  0  0  0  0  0  0
   28.7690   54.1440   -6.4920 N   0  0  0  0  0  0  0  0  0  0  0  0
   28.3190   50.9530   -4.8720 C   0  0  0  0  0  0  0  0  0  0  0  0
   29.3000   56.7130   -5.5220 O   0  0  0  0  0  0  0  0  0  0  0  0
   30.5820   48.8480   -2.5220 C   0  0  0  0  0  0  0  0  0  0  0  0
   31.1510   48.4040   -4.6720 O   0  0  0  0  0  0  0  0  0  0  0  0
   27.5510   50.2420   -5.7890 C   0  0  0  0  0  0  0  0  0  0  0  0
   27.5250   52.1290   -7.3100 C   0  0  0  0  0  0  0  0  0  0  0  0
   30.7850   47.5040   -2.4810 O   0  0  0  0  0  0  0  0  0  0  0  0
   30.8790   47.2220   -3.8910 C   0  0  0  0  0  0  0  0  0  0  0  0
   27.1570   50.8170   -6.9940 C   0  0  0  0  0  0  0  0  0  0  0  0
  2  1  1  0
  2  3  1  0
  2  4  1  0
  2  5  1  0
  4  6  2  0
  4  7  1  0
  5  8  1  0
  5  9  1  0
  8 10  1  0
  6 11  1  0
  7 12  2  0
  9 13  2  0
  8 14  2  0
 13 14  1  0
  9 15  1  0
 10 16  1  0
 11 17  2  0
 12 17  1  0
 11 18  1  0
 15 19  2  0
 13 20  1  0
 17 21  1  0
 18 22  1  0
 21 22  1  0
 19 23  1  0
 20 23  2  0
M  END
