mac-x0213-mac-x0584
     RDKit          3D

 23 27  0  0  0  0  0  0  0  0999 V2000
   32.8450   48.0140   -7.0520 O   0  0  0  0  0  0  0  0  0  0  0  0
   32.1560   46.9810   -6.7650 C   0  0  0  0  0  0  0  0  0  0  0  0
   31.7650   46.2470   -7.7330 O   0  0  0  0  0  0  0  0  0  0  0  0
   31.6110   46.3130   -4.9460 S   0  0  0  0  0  0  0  0  0  0  0  0
   29.9430   47.0960   -4.9850 C   0  0  2  0  0  0  0  0  0  0  0  0
   30.1940   45.1640   -4.7820 C   0  0  0  0  0  0  0  0  0  0  0  0
   33.0220   45.2320   -4.9840 C   0  0  0  0  0  0  0  0  0  0  0  0
   32.6970   45.9750   -3.4410 C   0  0  0  0  0  0  0  0  0  0  0  0
   29.3060   46.7930   -3.6330 C   0  0  0  0  0  0  0  0  0  0  0  0
   29.5050   45.4960   -3.5540 C   0  0  0  0  0  0  0  0  0  0  0  0
   33.9570   46.0900   -4.2720 C   0  0  0  0  0  0  0  0  0  0  0  0
   28.9310   46.7580   -5.8580 N   0  0  0  0  0  0  0  0  0  0  0  0
   29.9000   48.5500   -5.2830 C   0  0  2  0  0  0  0  0  0  0  0  0
   28.6720   47.4840   -2.6340 C   0  0  0  0  0  0  0  0  0  0  0  0
   29.0370   44.8430   -2.4040 C   0  0  0  0  0  0  0  0  0  0  0  0
   27.7470   47.4230   -5.7120 C   0  0  0  0  0  0  0  0  0  0  0  0
   29.1710   48.9240   -6.5990 C   0  0  1  0  0  0  0  0  0  0  0  0
   31.1350   49.2960   -5.5260 C   0  0  0  0  0  0  0  0  0  0  0  0
   28.1990   46.8440   -1.4820 C   0  0  0  0  0  0  0  0  0  0  0  0
   28.3940   45.4980   -1.3780 C   0  0  0  0  0  0  0  0  0  0  0  0
   27.7870   48.6550   -6.5550 N   0  0  0  0  0  0  0  0  0  0  0  0
   29.3950   50.3760   -6.4810 N   0  0  0  0  0  0  0  0  0  0  0  0
   30.8180   50.3700   -6.2300 C   0  0  0  0  0  0  0  0  0  0  0  0
  1  2  1  0
  2  3  2  0
  2  4  1  0
  4  5  1  0
  4  6  1  0
  4  7  1  0
  4  8  1  0
  5  9  1  0
  6 10  1  0
  9 10  2  0
  7 11  1  0
  8 11  1  0
  5 12  1  6
  5 13  1  0
  9 14  1  0
 10 15  1  0
 12 16  1  0
 13 17  1  0
 13 18  1  6
 14 19  2  0
 15 20  2  0
 19 20  1  0
 16 21  1  0
 17 21  1  1
 17 22  1  0
 18 23  2  0
 22 23  1  0
M  END
