mac-x0337-mac-x0182
     RDKit          3D

 25 27  0  0  0  0  0  0  0  0999 V2000
   36.3090   51.8130   -4.0720 C   0  0  0  0  0  0  0  0  0  0  0  0
   34.8780   51.3700   -4.1900 C   0  0  0  0  0  0  0  0  0  0  0  0
   34.1690   51.5460   -5.3850 C   0  0  0  0  0  0  0  0  0  0  0  0
   34.2400   50.7740   -3.0950 C   0  0  0  0  0  0  0  0  0  0  0  0
   32.9110   50.3620   -3.1920 C   0  0  0  0  0  0  0  0  0  0  0  0
   32.8400   51.1350   -5.4870 C   0  0  0  0  0  0  0  0  0  0  0  0
   32.2150   50.5450   -4.3880 C   0  0  0  0  0  0  0  0  0  0  0  0
   30.5370   50.0190   -4.4870 S   0  0  2  0  0  0  0  0  0  0  0  0
   30.3600   48.7150   -3.7140 N   0  0  0  0  0  0  0  0  0  0  0  0
   30.0050   50.3280   -5.7890 O   0  0  0  0  0  0  0  0  0  0  0  0
   29.5910   50.9700   -3.4800 N   0  0  0  0  0  0  0  0  0  0  0  0
   30.1930   47.4770   -4.5220 C   0  0  0  0  0  0  0  0  0  0  0  0
   31.4710   47.1430   -5.3190 C   0  0  0  0  0  0  0  0  0  0  0  0
   31.9650   45.7770   -4.9780 N   0  0  0  0  0  0  0  0  0  0  0  0
   33.4270   45.4630   -5.2660 S   0  0  2  0  0  0  0  0  0  0  0  0
   33.9740   44.7660   -6.4070 O   0  0  0  0  0  0  0  0  0  0  0  0
   33.8440   44.5200   -3.9360 N   0  0  0  0  0  0  0  0  0  0  0  0
   34.4690   46.7830   -4.8440 C   0  0  0  0  0  0  0  0  0  0  0  0
   34.4850   45.2780   -2.9880 C   0  0  0  0  0  0  0  0  0  0  0  0
   34.9740   46.5460   -3.5730 C   0  0  0  0  0  0  0  0  0  0  0  0
   34.7890   47.9000   -5.5820 C   0  0  0  0  0  0  0  0  0  0  0  0
   34.6460   44.9650   -1.8180 O   0  0  0  0  0  0  0  0  0  0  0  0
   35.6640   48.8170   -4.9970 C   0  0  0  0  0  0  0  0  0  0  0  0
   35.8420   47.4510   -2.9830 C   0  0  0  0  0  0  0  0  0  0  0  0
   36.1860   48.5960   -3.7100 C   0  0  0  0  0  0  0  0  0  0  0  0
  1  2  1  0
  2  3  2  0
  2  4  1  0
  4  5  2  0
  3  6  1  0
  5  7  1  0
  6  7  2  0
  7  8  1  0
  8  9  2  0
  8 10  2  0
  8 11  1  1
  9 12  1  0
 12 13  1  0
 13 14  1  0
 14 15  2  0
 15 16  2  0
 15 17  1  1
 15 18  1  0
 17 19  1  0
 18 20  2  0
 19 20  1  0
 18 21  1  0
 19 22  2  0
 21 23  2  0
 20 24  1  0
 23 25  1  0
 24 25  2  0
M  END
