mac-x0439-mac-x0375
     RDKit          3D

 23 25  0  0  0  0  0  0  0  0999 V2000
   30.4130   47.5730   -2.2430 Cl  0  0  0  0  0  0  0  0  0  0  0  0
   29.3750   46.2040   -2.3750 C   0  0  0  0  0  0  0  0  0  0  0  0
   28.9360   45.7520   -3.7340 C   0  0  1  0  0  0  0  0  0  0  0  0
   28.9520   45.5400   -1.2800 C   0  0  0  0  0  0  0  0  0  0  0  0
   29.8500   45.7380   -4.9150 C   0  0  0  0  0  0  0  0  0  0  0  0
   28.7780   44.2420   -3.6480 C   0  0  0  0  0  0  0  0  0  0  0  0
   28.0690   44.3860   -1.4050 C   0  0  0  0  0  0  0  0  0  0  0  0
   30.0500   44.4690   -5.3130 C   0  0  0  0  0  0  0  0  0  0  0  0
   29.3940   43.5340   -4.5410 N   0  0  0  0  0  0  0  0  0  0  0  0
   27.9470   43.7090   -2.5580 C   0  0  0  0  0  0  0  0  0  0  0  0
   30.9080   44.1210   -6.4860 C   0  0  0  0  0  0  0  0  0  0  0  0
   30.2050   43.3980   -7.3810 O   0  0  0  0  0  0  0  0  0  0  0  0
   32.1480   44.4540   -6.6390 N   0  0  0  0  0  0  0  0  0  0  0  0
   32.8170   45.1930   -5.6940 C   0  0  0  0  0  0  0  0  0  0  0  0
   32.6880   46.4110   -5.5530 O   0  0  0  0  0  0  0  0  0  0  0  0
   33.7620   44.3790   -4.8110 C   0  0  0  0  0  0  0  0  0  0  0  0
   33.9960   45.0430   -3.5750 O   0  0  0  0  0  0  0  0  0  0  0  0
   35.1270   45.8100   -3.4770 C   0  0  0  0  0  0  0  0  0  0  0  0
   36.4370   45.3400   -3.3890 C   0  0  0  0  0  0  0  0  0  0  0  0
   34.8910   47.1870   -3.4700 C   0  0  0  0  0  0  0  0  0  0  0  0
   37.5000   46.2440   -3.2940 C   0  0  0  0  0  0  0  0  0  0  0  0
   35.9510   48.0900   -3.3770 C   0  0  0  0  0  0  0  0  0  0  0  0
   37.2590   47.6180   -3.2880 C   0  0  0  0  0  0  0  0  0  0  0  0
  1  2  1  0
  2  3  1  0
  2  4  2  0
  3  5  1  6
  3  6  1  0
  4  7  1  0
  5  8  2  0
  6  9  2  0
  8  9  1  0
  6 10  1  0
  7 10  2  0
  8 11  1  0
 11 12  1  0
 11 13  2  3
 13 14  1  0
 14 15  2  0
 14 16  1  0
 16 17  1  0
 17 18  1  0
 18 19  2  0
 18 20  1  0
 19 21  1  0
 20 22  2  0
 21 23  2  0
 22 23  1  0
M  END
