mac-x0179-mac-x0321
     RDKit          3D

 26 28  0  0  0  0  0  0  0  0999 V2000
   32.0600   44.6480   -5.4700 O   0  0  0  0  0  0  0  0  0  0  0  0
   33.1340   45.3240   -5.0150 C   0  0  0  0  0  0  0  0  0  0  0  0
   34.2250   45.2010   -5.5650 O   0  0  0  0  0  0  0  0  0  0  0  0
   32.9370   46.2460   -3.8080 C   0  0  1  0  0  0  0  0  0  0  0  0
   31.4650   46.2340   -3.3520 C   0  0  0  0  0  0  0  0  0  0  0  0
   33.9170   46.2400   -2.7030 N   0  0  0  0  0  0  0  0  0  0  0  0
   31.0050   47.6160   -3.1860 N   0  0  0  0  0  0  0  0  0  0  0  0
   34.5050   45.0910   -2.2090 C   0  0  0  0  0  0  0  0  0  0  0  0
   34.6240   47.3330   -2.2900 C   0  0  0  0  0  0  0  0  0  0  0  0
   34.0900   43.9460   -2.2080 O   0  0  0  0  0  0  0  0  0  0  0  0
   34.3150   48.5070   -2.3850 O   0  0  0  0  0  0  0  0  0  0  0  0
   30.4250   48.2370   -4.1440 C   0  0  0  0  0  0  0  0  0  0  0  0
   35.7970   45.4840   -1.6410 C   0  0  0  0  0  0  0  0  0  0  0  0
   35.8660   46.8620   -1.6930 C   0  0  0  0  0  0  0  0  0  0  0  0
   30.2370   47.5830   -5.2990 O   0  0  0  0  0  0  0  0  0  0  0  0
   36.8300   44.7270   -1.1220 C   0  0  0  0  0  0  0  0  0  0  0  0
   36.9620   47.5660   -1.2370 C   0  0  0  0  0  0  0  0  0  0  0  0
   29.9000   49.6040   -4.2260 C   0  0  0  0  0  0  0  0  0  0  0  0
   37.9540   45.4150   -0.6510 C   0  0  0  0  0  0  0  0  0  0  0  0
   38.0200   46.8240   -0.7070 C   0  0  0  0  0  0  0  0  0  0  0  0
   29.4650   50.1170   -5.4500 C   0  0  0  0  0  0  0  0  0  0  0  0
   29.8470   50.3820   -3.0650 C   0  0  0  0  0  0  0  0  0  0  0  0
   28.9740   51.4210   -5.4990 C   0  0  0  0  0  0  0  0  0  0  0  0
   29.3540   51.6860   -3.1270 C   0  0  0  0  0  0  0  0  0  0  0  0
   28.4310   52.0720   -6.9970 Cl  0  0  0  0  0  0  0  0  0  0  0  0
   28.9170   52.2050   -4.3460 C   0  0  0  0  0  0  0  0  0  0  0  0
  1  2  1  0
  2  3  2  0
  2  4  1  0
  4  5  1  1
  4  6  1  0
  5  7  1  0
  6  8  1  0
  6  9  1  0
  8 10  2  0
  9 11  2  0
  7 12  2  3
  8 13  1  0
  9 14  1  0
 13 14  2  0
 12 15  1  0
 13 16  1  0
 14 17  1  0
 12 18  1  0
 16 19  2  0
 17 20  2  0
 19 20  1  0
 18 21  2  0
 18 22  1  0
 21 23  1  0
 22 24  2  0
 23 25  1  0
 23 26  2  0
 24 26  1  0
M  END
