mac-x0348-mac-x0124
     RDKit          3D

 25 28  0  0  0  0  0  0  0  0999 V2000
   27.4700   44.2850   -0.9370 C   0  0  0  0  0  0  0  0  0  0  0  0
   28.4260   45.2010   -1.5160 N   0  0  0  0  0  0  0  0  0  0  0  0
   28.9680   45.0700   -2.7740 C   0  0  0  0  0  0  0  0  0  0  0  0
   28.9280   46.3320   -0.8960 C   0  0  0  0  0  0  0  0  0  0  0  0
   29.8320   46.1320   -2.9740 C   0  0  0  0  0  0  0  0  0  0  0  0
   29.8070   46.9200   -1.7940 C   0  0  0  0  0  0  0  0  0  0  0  0
   28.6930   46.8960    0.3700 C   0  0  0  0  0  0  0  0  0  0  0  0
   30.6970   46.5430   -4.1340 C   0  0  1  0  0  0  0  0  0  0  0  0
   30.4790   48.1050   -1.4320 C   0  0  0  0  0  0  0  0  0  0  0  0
   29.3720   48.0770    0.7070 C   0  0  0  0  0  0  0  0  0  0  0  0
   31.0360   45.4630   -5.1550 C   0  0  0  0  0  0  0  0  0  0  0  0
   30.2560   48.6750   -0.1830 C   0  0  0  0  0  0  0  0  0  0  0  0
   30.2230   47.8320   -4.6960 N   0  0  0  0  0  0  0  0  0  0  0  0
   32.1020   45.9160   -6.1230 C   0  0  0  0  0  0  0  0  0  0  0  0
   30.4510   49.0840   -4.1480 C   0  0  0  0  0  0  0  0  0  0  0  0
   29.7070   48.0330   -6.0680 C   0  0  2  0  0  0  0  0  0  0  0  0
   31.9410   45.8650   -7.3310 O   0  0  0  0  0  0  0  0  0  0  0  0
   33.2510   46.3800   -5.5860 O   0  0  0  0  0  0  0  0  0  0  0  0
   29.7450   50.0260   -4.7790 C   0  0  0  0  0  0  0  0  0  0  0  0
   28.9410   49.3540   -5.8660 C   0  0  1  0  0  0  0  0  0  0  0  0
   28.9370   47.1670   -6.9310 N   0  0  0  0  0  0  0  0  0  0  0  0
   28.8620   50.0250   -7.2340 C   0  0  2  0  0  0  0  0  0  0  0  0
   28.7670   47.7810   -8.2400 C   0  0  0  0  0  0  0  0  0  0  0  0
   28.2000   51.3110   -7.3330 N   0  0  0  0  0  0  0  0  0  0  0  0
   28.1950   49.1340   -8.1670 N   0  0  0  0  0  0  0  0  0  0  0  0
  1  2  1  0
  2  3  1  0
  2  4  1  0
  3  5  2  0
  4  6  2  0
  5  6  1  0
  4  7  1  0
  5  8  1  0
  6  9  1  0
  7 10  2  0
  8 11  1  6
  9 12  2  0
 10 12  1  0
  8 13  1  0
 11 14  1  0
 13 15  1  0
 13 16  1  0
 14 17  2  0
 14 18  1  0
 15 19  2  0
 16 20  1  0
 20 19  1  1
 16 21  1  1
 20 22  1  0
 21 23  1  0
 22 24  1  1
 22 25  1  0
 23 25  1  0
M  END
