mac-x0344-mac-x1493
     RDKit          3D

 27 29  0  0  0  0  0  0  0  0999 V2000
   31.9540   44.1180   -4.4950 O   0  0  0  0  0  0  0  0  0  0  0  0
   32.1740   45.2410   -5.1900 C   0  0  0  0  0  0  0  0  0  0  0  0
   31.3280   45.8620   -5.9350 N   0  0  0  0  0  0  0  0  0  0  0  0
   33.6060   45.7630   -5.0200 C   0  0  0  0  0  0  0  0  0  0  0  0
   34.1620   46.2570   -5.9870 O   0  0  0  0  0  0  0  0  0  0  0  0
   34.0960   45.6030   -3.7370 N   0  0  0  0  0  0  0  0  0  0  0  0
   31.6940   47.0950   -6.6410 C   0  0  0  0  0  0  0  0  0  0  0  0
   30.6220   48.2030   -6.5280 C   0  0  0  0  0  0  0  0  0  0  0  0
   35.2200   46.2640   -3.2050 C   0  0  0  0  0  0  0  0  0  0  0  0
   29.7010   47.9820   -5.4390 O   0  0  0  0  0  0  0  0  0  0  0  0
   36.1810   45.4910   -2.5370 C   0  0  0  0  0  0  0  0  0  0  0  0
   35.4210   47.6410   -3.3140 C   0  0  0  0  0  0  0  0  0  0  0  0
   29.9370   48.6260   -4.2620 C   0  0  0  0  0  0  0  0  0  0  0  0
   37.3210   46.0890   -1.9910 C   0  0  0  0  0  0  0  0  0  0  0  0
   36.5610   48.2390   -2.7680 C   0  0  0  0  0  0  0  0  0  0  0  0
   30.2320   48.0940   -3.2000 O   0  0  0  0  0  0  0  0  0  0  0  0
   37.5100   47.4650   -2.1050 C   0  0  0  0  0  0  0  0  0  0  0  0
   29.7950   50.0990   -4.3840 C   0  0  0  0  0  0  0  0  0  0  0  0
   29.2090   50.6760   -5.5120 C   0  0  0  0  0  0  0  0  0  0  0  0
   30.2360   50.9570   -3.3870 C   0  0  0  0  0  0  0  0  0  0  0  0
   29.0880   52.0740   -5.6010 C   0  0  0  0  0  0  0  0  0  0  0  0
   30.1360   52.3090   -3.4400 N   0  0  0  0  0  0  0  0  0  0  0  0
   29.5730   52.8580   -4.5300 C   0  0  0  0  0  0  0  0  0  0  0  0
   28.5060   52.6940   -6.7200 C   0  0  0  0  0  0  0  0  0  0  0  0
   29.4560   54.2390   -4.6170 C   0  0  0  0  0  0  0  0  0  0  0  0
   28.4020   54.0830   -6.7810 C   0  0  0  0  0  0  0  0  0  0  0  0
   28.8780   54.8570   -5.7290 C   0  0  0  0  0  0  0  0  0  0  0  0
  1  2  1  0
  2  3  2  3
  2  4  1  0
  4  5  2  0
  4  6  1  0
  3  7  1  0
  7  8  1  0
  6  9  1  0
  8 10  1  0
  9 11  2  0
  9 12  1  0
 10 13  1  0
 11 14  1  0
 12 15  2  0
 13 16  2  0
 14 17  2  0
 15 17  1  0
 13 18  1  0
 18 19  2  0
 18 20  1  0
 19 21  1  0
 20 22  2  0
 21 23  2  0
 22 23  1  0
 21 24  1  0
 23 25  1  0
 24 26  2  0
 25 27  2  0
 26 27  1  0
M  END
