mac-x0124-mac-x0436
     RDKit          3D

 28 31  0  0  0  0  0  0  0  0999 V2000
   29.4190   46.0820   -4.4710 C   0  0  0  0  0  0  0  0  0  0  0  0
   29.7020   47.4550   -4.8220 N   0  0  0  0  0  0  0  0  0  0  0  0
   30.6000   48.2890   -4.1800 C   0  0  0  0  0  0  0  0  0  0  0  0
   29.1000   48.1180   -5.8620 C   0  0  0  0  0  0  0  0  0  0  0  0
   31.4220   47.8610   -3.0000 C   0  0  0  0  0  0  0  0  0  0  0  0
   30.5500   49.5090   -4.8430 C   0  0  0  0  0  0  0  0  0  0  0  0
   29.6070   49.4070   -5.9040 C   0  0  0  0  0  0  0  0  0  0  0  0
   28.1780   47.5990   -6.6940 N   0  0  0  0  0  0  0  0  0  0  0  0
   32.7860   48.3430   -3.1430 N   0  0  0  0  0  0  0  0  0  0  0  0
   29.1090   50.2490   -6.9090 C   0  0  0  0  0  0  0  0  0  0  0  0
   27.7800   48.4950   -7.6120 C   0  0  0  0  0  0  0  0  0  0  0  0
   29.5130   51.5670   -7.0830 N   0  0  0  0  0  0  0  0  0  0  0  0
   28.1850   49.7690   -7.7650 N   0  0  0  0  0  0  0  0  0  0  0  0
   33.8100   47.6060   -3.4380 C   0  0  0  0  0  0  0  0  0  0  0  0
   33.8500   46.0810   -3.7130 C   0  0  0  0  0  0  0  0  0  0  0  0
   35.0400   48.2230   -3.5140 N   0  0  0  0  0  0  0  0  0  0  0  0
   32.6670   45.3320   -4.2870 C   0  0  0  0  0  0  0  0  0  0  0  0
   36.1160   47.5040   -2.9600 C   0  0  0  0  0  0  0  0  0  0  0  0
   34.9320   45.4000   -3.4550 N   0  0  0  0  0  0  0  0  0  0  0  0
   33.1140   44.0800   -5.0350 C   0  0  0  0  0  0  0  0  0  0  0  0
   36.0480   46.0900   -2.9350 C   0  0  0  0  0  0  0  0  0  0  0  0
   37.2420   48.1550   -2.4380 C   0  0  0  0  0  0  0  0  0  0  0  0
   32.7750   44.1730   -6.5000 C   0  0  0  0  0  0  0  0  0  0  0  0
   37.1020   45.3600   -2.3890 C   0  0  0  0  0  0  0  0  0  0  0  0
   38.2910   47.4120   -1.8950 C   0  0  0  0  0  0  0  0  0  0  0  0
   33.7940   44.6490   -7.2410 O   0  0  0  0  0  0  0  0  0  0  0  0
   31.7150   43.8610   -7.0170 O   0  0  0  0  0  0  0  0  0  0  0  0
   38.2240   46.0150   -1.8690 C   0  0  0  0  0  0  0  0  0  0  0  0
  1  2  1  0
  2  3  1  0
  2  4  1  0
  3  5  1  0
  3  6  2  0
  4  7  2  0
  6  7  1  0
  4  8  1  0
  5  9  1  0
  7 10  1  0
  8 11  2  0
 10 12  1  0
 10 13  2  0
 11 13  1  0
  9 14  2  3
 14 15  1  0
 14 16  1  0
 15 17  1  0
 16 18  1  0
 15 19  2  0
 17 20  1  0
 18 21  2  0
 19 21  1  0
 18 22  1  0
 20 23  1  0
 21 24  1  0
 22 25  2  0
 23 26  1  0
 23 27  2  0
 24 28  2  0
 25 28  1  0
M  END
