mac-x0226-mac-x0348
     RDKit          3D

 26 29  0  0  0  0  0  0  0  0999 V2000
   32.5580   45.7230   -6.9270 O   0  0  0  0  0  0  0  0  0  0  0  0
   32.6750   45.8510   -5.5890 C   0  0  0  0  0  0  0  0  0  0  0  0
   32.0300   46.5820   -4.8140 N   0  0  0  0  0  0  0  0  0  0  0  0
   33.5000   45.0820   -4.7610 C   0  0  0  0  0  0  0  0  0  0  0  0
   30.9520   47.4120   -5.2120 C   0  0  0  0  0  0  0  0  0  0  0  0
   33.5320   43.6900   -4.6710 C   0  0  0  0  0  0  0  0  0  0  0  0
   34.4070   45.5180   -3.8370 C   0  0  0  0  0  0  0  0  0  0  0  0
   29.7030   46.5700   -4.8940 C   0  0  0  0  0  0  0  0  0  0  0  0
   34.3850   43.2670   -3.7530 N   0  0  0  0  0  0  0  0  0  0  0  0
   34.9130   44.4010   -3.2380 N   0  0  0  0  0  0  0  0  0  0  0  0
   35.8550   44.3560   -2.1990 C   0  0  0  0  0  0  0  0  0  0  0  0
   29.3300   46.3200   -3.4370 C   0  0  0  0  0  0  0  0  0  0  0  0
   36.6500   45.4780   -1.9490 C   0  0  0  0  0  0  0  0  0  0  0  0
   35.9900   43.2090   -1.4170 C   0  0  0  0  0  0  0  0  0  0  0  0
   28.5800   45.2340   -3.0120 C   0  0  0  0  0  0  0  0  0  0  0  0
   29.6230   47.0850   -2.2470 C   0  0  0  0  0  0  0  0  0  0  0  0
   37.5820   45.4500   -0.9150 C   0  0  0  0  0  0  0  0  0  0  0  0
   36.9230   43.1860   -0.3850 C   0  0  0  0  0  0  0  0  0  0  0  0
   28.4020   45.3080   -1.6620 N   0  0  0  0  0  0  0  0  0  0  0  0
   29.0230   46.4290   -1.1570 C   0  0  0  0  0  0  0  0  0  0  0  0
   30.3350   48.2770   -1.9860 C   0  0  0  0  0  0  0  0  0  0  0  0
   27.6580   44.3410   -0.8860 C   0  0  0  0  0  0  0  0  0  0  0  0
   37.7160   44.3040   -0.1350 C   0  0  0  0  0  0  0  0  0  0  0  0
   30.4260   48.7720   -0.6790 C   0  0  0  0  0  0  0  0  0  0  0  0
   29.1080   46.9180    0.1580 C   0  0  0  0  0  0  0  0  0  0  0  0
   29.8170   48.1020    0.3770 C   0  0  0  0  0  0  0  0  0  0  0  0
  1  2  1  0
  2  3  2  3
  2  4  1  0
  3  5  1  0
  4  6  1  0
  4  7  2  0
  5  8  1  0
  6  9  2  0
  7 10  1  0
  9 10  1  0
 10 11  1  0
  8 12  1  0
 11 13  2  0
 11 14  1  0
 12 15  2  0
 12 16  1  0
 13 17  1  0
 14 18  2  0
 15 19  1  0
 16 20  2  0
 19 20  1  0
 16 21  1  0
 19 22  1  0
 17 23  2  0
 18 23  1  0
 21 24  2  0
 20 25  1  0
 24 26  1  0
 25 26  2  0
M  END
