mac-x0510-mac-x0412
     RDKit          3D

 16 18  0  0  0  0  0  0  0  0999 V2000
   27.6830   52.6550   -4.9200 O   0  0  0  0  0  0  0  0  0  0  0  0
   28.8000   51.8390   -5.1650 C   0  0  1  0  0  0  0  0  0  0  0  0
   28.6670   50.6850   -4.3500 N   0  0  0  0  0  0  0  0  0  0  0  0
   28.7690   51.5960   -6.5700 N   0  0  0  0  0  0  0  0  0  0  0  0
   29.9640   52.6620   -4.7560 C   0  0  0  0  0  0  0  0  0  0  0  0
   28.8600   50.2940   -7.0070 C   0  0  0  0  0  0  0  0  0  0  0  0
   29.2400   49.5170   -4.7170 C   0  0  0  0  0  0  0  0  0  0  0  0
   29.5700   53.9910   -5.2370 C   0  0  0  0  0  0  0  0  0  0  0  0
   28.9790   52.7990   -7.3670 C   0  0  0  0  0  0  0  0  0  0  0  0
   29.8050   48.7810   -3.9240 O   0  0  0  0  0  0  0  0  0  0  0  0
   29.7430   55.0120   -4.5810 O   0  0  0  0  0  0  0  0  0  0  0  0
   29.0900   49.2900   -6.1000 C   0  0  0  0  0  0  0  0  0  0  0  0
   28.7530   49.7870   -8.2680 N   0  0  0  0  0  0  0  0  0  0  0  0
   28.9660   53.9660   -6.4780 N   0  0  0  0  0  0  0  0  0  0  0  0
   29.1280   48.1330   -6.8110 N   0  0  0  0  0  0  0  0  0  0  0  0
   28.9180   48.4780   -8.1180 C   0  0  0  0  0  0  0  0  0  0  0  0
  2  1  1  1
  2  3  1  0
  2  4  1  0
  2  5  1  0
  4  6  1  0
  3  7  1  0
  5  8  1  0
  4  9  1  0
  7 10  2  0
  8 11  2  0
  6 12  2  0
  7 12  1  0
  6 13  1  0
  8 14  1  0
  9 14  1  0
 12 15  1  0
 13 16  2  0
 15 16  1  0
M  END
