mac-x0142-mac-x0138
     RDKit          3D

 20 23  0  0  0  0  0  0  0  0999 V2000
   29.2590   49.5950   -2.6720 C   0  0  0  0  0  0  0  0  0  0  0  0
   28.9840   49.9110   -4.0910 C   0  0  0  0  0  0  0  0  0  0  0  0
   29.2760   49.0800   -5.2220 C   0  0  0  0  0  0  0  0  0  0  0  0
   28.4170   51.0160   -4.6100 C   0  0  0  0  0  0  0  0  0  0  0  0
   28.7960   49.8790   -6.3760 C   0  0  0  0  0  0  0  0  0  0  0  0
   29.8270   47.8680   -5.4680 C   0  0  0  0  0  0  0  0  0  0  0  0
   28.2870   51.0270   -5.9940 N   0  0  0  0  0  0  0  0  0  0  0  0
   30.2890   47.0950   -4.3890 N   0  0  0  0  0  0  0  0  0  0  0  0
   29.9520   47.3610   -6.7680 N   0  0  0  0  0  0  0  0  0  0  0  0
   28.9440   49.3300   -7.6230 N   0  0  0  0  0  0  0  0  0  0  0  0
   28.5890   50.1080   -8.7590 N   0  0  0  0  0  0  0  0  0  0  0  0
   31.3890   47.6510   -3.5740 C   0  0  0  0  0  0  0  0  0  0  0  0
   30.2070   45.6220   -4.4730 C   0  0  0  0  0  0  0  0  0  0  0  0
   29.5190   48.0830   -7.7680 C   0  0  0  0  0  0  0  0  0  0  0  0
   29.6250   47.6170   -9.0480 N   0  0  0  0  0  0  0  0  0  0  0  0
   31.5560   44.9870   -4.7410 C   0  0  0  0  0  0  0  0  0  0  0  0
   32.7290   47.0760   -4.0070 C   0  0  0  0  0  0  0  0  0  0  0  0
   31.6030   43.5090   -5.0740 C   0  0  0  0  0  0  0  0  0  0  0  0
   31.8560   44.5180   -6.1530 C   0  0  0  0  0  0  0  0  0  0  0  0
   32.6920   45.5530   -3.9200 C   0  0  0  0  0  0  0  0  0  0  0  0
  1  2  1  0
  2  3  1  0
  2  4  2  0
  3  5  1  0
  3  6  2  0
  4  7  1  0
  5  7  2  0
  6  8  1  0
  6  9  1  0
  5 10  1  0
 10 11  1  0
  8 12  1  0
  8 13  1  0
  9 14  2  0
 10 14  1  0
 14 15  1  0
 16 13  1  0
 12 17  1  0
 16 18  1  0
 16 19  1  0
 18 19  1  0
 16 20  1  0
 17 20  1  0
M  END
