mac-x0572-mac-x0341
     RDKit          3D

 13 14  0  0  0  0  0  0  0  0999 V2000
   28.8390   55.9190   -7.2190 C   0  0  0  0  0  0  0  0  0  0  0  0
   29.0620   54.7150   -6.3310 C   0  0  0  0  0  0  0  0  0  0  0  0
   28.7340   53.5220   -6.9520 N   0  0  0  0  0  0  0  0  0  0  0  0
   29.5340   54.8300   -5.0700 C   0  0  0  0  0  0  0  0  0  0  0  0
   29.8640   56.0170   -4.4500 O   0  0  0  0  0  0  0  0  0  0  0  0
   29.7090   53.5690   -4.2800 C   0  0  0  0  0  0  0  0  0  0  0  0
   28.6510   52.4300   -6.2460 C   0  0  0  0  0  0  0  0  0  0  0  0
   30.4630   53.5290   -3.3080 O   0  0  0  0  0  0  0  0  0  0  0  0
   28.8940   52.3790   -4.7450 C   0  0  1  0  0  0  0  0  0  0  0  0
   28.2980   51.1550   -6.9320 C   0  0  0  0  0  0  0  0  0  0  0  0
   28.6240   49.9980   -6.3360 C   0  0  0  0  0  0  0  0  0  0  0  0
   29.4450   51.0420   -4.3140 C   0  0  0  0  0  0  0  0  0  0  0  0
   29.3060   49.9430   -5.0650 C   0  0  0  0  0  0  0  0  0  0  0  0
  1  2  1  0
  2  3  1  0
  2  4  2  0
  4  5  1  0
  4  6  1  0
  3  7  2  0
  6  8  2  0
  6  9  1  0
  7  9  1  0
  7 10  1  0
 10 11  2  0
  9 12  1  6
 11 13  1  0
 12 13  2  0
M  END
