mac-x0137-mac-x0277
     RDKit          3D

 28 31  0  0  0  0  0  0  0  0999 V2000
   31.9040   50.2960   -4.0240 F   0  0  0  0  0  0  0  0  0  0  0  0
   31.4450   49.0400   -3.7510 C   0  0  2  0  0  0  0  0  0  0  0  0
   32.4550   48.0330   -4.2770 C   0  0  0  0  0  0  0  0  0  0  0  0
   30.0730   48.8490   -4.4180 C   0  0  0  0  0  0  0  0  0  0  0  0
   30.1460   48.6380   -5.8930 N   0  0  0  0  0  0  0  0  0  0  0  0
   31.7280   46.9780   -5.1150 C   0  0  2  0  0  0  0  0  0  0  0  0
   32.4660   45.6470   -5.3590 C   0  0  0  0  0  0  0  0  0  0  0  0
   31.0780   47.5850   -6.3430 C   0  0  0  0  0  0  0  0  0  0  0  0
   29.1490   49.1040   -6.7480 C   0  0  0  0  0  0  0  0  0  0  0  0
   33.8720   45.8750   -5.3150 O   0  0  0  0  0  0  0  0  0  0  0  0
   32.2030   45.1970   -6.6780 O   0  0  0  0  0  0  0  0  0  0  0  0
   32.1270   44.5800   -4.2910 C   0  0  0  0  0  0  0  0  0  0  0  0
   28.7500   48.3500   -7.8370 N   0  0  0  0  0  0  0  0  0  0  0  0
   28.5070   50.2820   -6.6100 C   0  0  0  0  0  0  0  0  0  0  0  0
   27.7910   48.7630   -8.7100 C   0  0  0  0  0  0  0  0  0  0  0  0
   27.4690   50.6690   -7.5950 C   0  0  0  0  0  0  0  0  0  0  0  0
   28.5260   51.3880   -5.7070 C   0  0  0  0  0  0  0  0  0  0  0  0
   30.9720   44.9560   -3.3960 C   0  0  0  0  0  0  0  0  0  0  0  0
   27.1340   49.8740   -8.6490 N   0  0  0  0  0  0  0  0  0  0  0  0
   26.9440   51.8350   -7.3280 N   0  0  0  0  0  0  0  0  0  0  0  0
   27.6030   52.2440   -6.1770 C   0  0  0  0  0  0  0  0  0  0  0  0
   31.1150   45.9810   -2.4440 C   0  0  0  0  0  0  0  0  0  0  0  0
   29.7360   44.3060   -3.4950 C   0  0  0  0  0  0  0  0  0  0  0  0
   30.0520   46.3510   -1.6170 C   0  0  0  0  0  0  0  0  0  0  0  0
   28.6720   44.6740   -2.6680 C   0  0  0  0  0  0  0  0  0  0  0  0
   30.3200   47.6260   -0.4800 Cl  0  0  0  0  0  0  0  0  0  0  0  0
   28.8250   45.6960   -1.7290 C   0  0  0  0  0  0  0  0  0  0  0  0
   27.4680   46.0990   -0.7430 Cl  0  0  0  0  0  0  0  0  0  0  0  0
  2  1  1  6
  2  3  1  0
  2  4  1  0
  4  5  1  0
  3  6  1  0
  6  7  1  6
  5  8  1  0
  6  8  1  0
  5  9  1  0
  7 10  1  0
  7 11  1  0
  7 12  1  0
  9 13  1  0
  9 14  2  0
 13 15  1  0
 14 16  1  0
 14 17  1  0
 12 18  1  0
 15 19  2  0
 16 19  1  0
 16 20  2  0
 17 21  2  0
 20 21  1  0
 18 22  2  0
 18 23  1  0
 22 24  1  0
 23 25  2  0
 24 26  1  0
 24 27  2  0
 25 27  1  0
 27 28  1  0
M  END
