mac-x0455-mac-x0137
     RDKit          3D

 26 29  0  0  0  0  0  0  0  0999 V2000
   31.1610   45.8250   -3.8110 C   0  0  1  0  0  0  0  0  0  0  0  0
   30.2840   46.5900   -2.9640 O   0  0  0  0  0  0  0  0  0  0  0  0
   30.6910   45.8850   -5.3080 C   0  0  0  0  0  0  0  0  0  0  0  0
   32.6250   46.1070   -3.5380 C   0  0  0  0  0  0  0  0  0  0  0  0
   29.3990   45.3180   -5.4470 O   0  0  0  0  0  0  0  0  0  0  0  0
   31.5560   45.0320   -6.0790 O   0  0  0  0  0  0  0  0  0  0  0  0
   33.1440   47.3530   -3.1360 C   0  0  0  0  0  0  0  0  0  0  0  0
   33.5070   45.0440   -3.7060 C   0  0  0  0  0  0  0  0  0  0  0  0
   30.8760   47.2920   -5.9140 C   0  0  1  0  0  0  0  0  0  0  0  0
   34.5150   47.5140   -2.9170 C   0  0  0  0  0  0  0  0  0  0  0  0
   34.8710   45.2040   -3.4840 C   0  0  0  0  0  0  0  0  0  0  0  0
   29.8610   48.3120   -5.5570 N   0  0  0  0  0  0  0  0  0  0  0  0
   32.2840   47.8650   -5.6490 C   0  0  0  0  0  0  0  0  0  0  0  0
   35.3750   46.4390   -3.0910 C   0  0  0  0  0  0  0  0  0  0  0  0
   29.8040   48.7130   -4.1380 C   0  0  0  0  0  0  0  0  0  0  0  0
   32.2910   48.9770   -4.5950 C   0  0  0  0  0  0  0  0  0  0  0  0
   29.0640   48.9130   -6.5090 C   0  0  0  0  0  0  0  0  0  0  0  0
   31.1930   48.8800   -3.5310 C   0  0  0  0  0  0  0  0  0  0  0  0
   28.7870   48.2050   -7.6500 N   0  0  0  0  0  0  0  0  0  0  0  0
   28.5320   50.1360   -6.4420 C   0  0  0  0  0  0  0  0  0  0  0  0
   28.0360   48.7010   -8.6620 C   0  0  0  0  0  0  0  0  0  0  0  0
   27.7120   50.6260   -7.5720 C   0  0  0  0  0  0  0  0  0  0  0  0
   28.5110   51.2260   -5.5250 C   0  0  0  0  0  0  0  0  0  0  0  0
   27.4840   49.8670   -8.6880 N   0  0  0  0  0  0  0  0  0  0  0  0
   27.2600   51.8310   -7.3640 N   0  0  0  0  0  0  0  0  0  0  0  0
   27.7600   52.1670   -6.1160 C   0  0  0  0  0  0  0  0  0  0  0  0
  1  2  1  1
  1  3  1  0
  1  4  1  0
  3  5  1  0
  3  6  1  0
  4  7  2  0
  4  8  1  0
  9  3  1  1
  7 10  1  0
  8 11  2  0
  9 12  1  0
  9 13  1  0
 10 14  2  0
 11 14  1  0
 12 15  1  0
 13 16  1  0
 12 17  1  0
 15 18  1  0
 16 18  1  0
 17 19  1  0
 17 20  2  0
 19 21  1  0
 20 22  1  0
 20 23  1  0
 21 24  2  0
 22 24  1  0
 22 25  2  0
 23 26  2  0
 25 26  1  0
M  END
