mac-x0341-mac-x0394
     RDKit          3D

 23 25  0  0  0  0  0  0  0  0999 V2000
   28.3350   53.8010   -7.3730 N   0  0  0  0  0  0  0  0  0  0  0  0
   27.0110   54.1560   -7.5920 C   0  0  0  0  0  0  0  0  0  0  0  0
   26.7670   55.3120   -7.9450 O   0  0  0  0  0  0  0  0  0  0  0  0
   29.0110   52.7940   -6.7430 C   0  0  0  0  0  0  0  0  0  0  0  0
   25.9300   53.1060   -7.3920 C   0  0  0  0  0  0  0  0  0  0  0  0
   29.9080   53.0600   -5.7660 N   0  0  0  0  0  0  0  0  0  0  0  0
   28.7240   51.6010   -7.1410 N   0  0  0  0  0  0  0  0  0  0  0  0
   30.3830   52.0780   -4.9320 C   0  0  0  0  0  0  0  0  0  0  0  0
   29.3720   50.5230   -6.5190 C   0  0  0  0  0  0  0  0  0  0  0  0
   25.5180   52.8830   -5.9500 C   0  0  0  0  0  0  0  0  0  0  0  0
   30.9130   52.3420   -3.8590 O   0  0  0  0  0  0  0  0  0  0  0  0
   30.2090   50.7000   -5.4160 C   0  0  0  0  0  0  0  0  0  0  0  0
   29.1780   49.2330   -7.0120 C   0  0  0  0  0  0  0  0  0  0  0  0
   25.5260   53.9380   -5.0220 C   0  0  0  0  0  0  0  0  0  0  0  0
   25.1180   51.6080   -5.5170 C   0  0  0  0  0  0  0  0  0  0  0  0
   29.8110   48.1410   -6.4090 C   0  0  0  0  0  0  0  0  0  0  0  0
   30.8480   49.6190   -4.8030 C   0  0  0  0  0  0  0  0  0  0  0  0
   25.1420   53.7140   -3.6960 C   0  0  0  0  0  0  0  0  0  0  0  0
   24.7370   51.4000   -4.1880 C   0  0  0  0  0  0  0  0  0  0  0  0
   24.2500   49.8290   -3.6810 Cl  0  0  0  0  0  0  0  0  0  0  0  0
   25.1590   55.0200   -2.5730 Cl  0  0  0  0  0  0  0  0  0  0  0  0
   30.6450   48.3340   -5.3060 C   0  0  0  0  0  0  0  0  0  0  0  0
   24.7460   52.4490   -3.2730 C   0  0  0  0  0  0  0  0  0  0  0  0
  1  2  1  0
  2  3  2  0
  1  4  1  0
  2  5  1  0
  4  6  1  0
  4  7  2  0
  6  8  1  0
  7  9  1  0
  5 10  1  0
  8 11  2  0
  8 12  1  0
  9 12  2  0
  9 13  1  0
 10 14  2  0
 10 15  1  0
 13 16  2  0
 12 17  1  0
 14 18  1  0
 15 19  2  0
 19 20  1  0
 18 21  1  0
 16 22  1  0
 17 22  2  0
 18 23  2  0
 19 23  1  0
M  END
