mac-x0396-mac-x0411
     RDKit          3D

 25 26  0  0  0  0  0  0  0  0999 V2000
   28.5540   50.3340   -6.4640 N   0  0  0  0  0  0  0  0  0  0  0  0
   29.4610   50.6870   -5.4920 C   0  0  0  0  0  0  0  0  0  0  0  0
   30.3250   49.8850   -4.9660 N   0  0  0  0  0  0  0  0  0  0  0  0
   29.4550   52.1030   -5.0020 C   0  0  0  0  0  0  0  0  0  0  0  0
   31.2550   50.3420   -3.9370 C   0  0  0  0  0  0  0  0  0  0  0  0
   29.2620   52.4110   -3.6590 C   0  0  0  0  0  0  0  0  0  0  0  0
   29.6460   53.1680   -5.8880 C   0  0  0  0  0  0  0  0  0  0  0  0
   32.6540   49.8360   -4.2850 C   0  0  0  0  0  0  0  0  0  0  0  0
   29.2480   53.6760   -3.1630 N   0  0  0  0  0  0  0  0  0  0  0  0
   29.6360   54.4730   -5.4070 C   0  0  0  0  0  0  0  0  0  0  0  0
   32.6770   48.3160   -4.4600 C   0  0  0  0  0  0  0  0  0  0  0  0
   29.4350   54.6770   -4.0510 C   0  0  0  0  0  0  0  0  0  0  0  0
   33.0520   47.6080   -3.1540 C   0  0  0  0  0  0  0  0  0  0  0  0
   34.5330   47.2940   -3.0860 C   0  0  0  0  0  0  0  0  0  0  0  0
   35.0650   46.0350   -3.4400 C   0  0  0  0  0  0  0  0  0  0  0  0
   35.4100   48.3000   -2.6490 C   0  0  0  0  0  0  0  0  0  0  0  0
   34.2040   45.0510   -3.8700 O   0  0  0  0  0  0  0  0  0  0  0  0
   36.7810   48.0670   -2.5630 C   0  0  0  0  0  0  0  0  0  0  0  0
   36.4500   45.8070   -3.3490 C   0  0  0  0  0  0  0  0  0  0  0  0
   37.1620   44.2880   -3.7630 Cl  0  0  0  0  0  0  0  0  0  0  0  0
   33.4140   45.4850   -4.9850 C   0  0  0  0  0  0  0  0  0  0  0  0
   37.3020   46.8230   -2.9120 C   0  0  0  0  0  0  0  0  0  0  0  0
   33.2070   44.3560   -5.9790 C   0  0  0  0  0  0  0  0  0  0  0  0
   31.8980   44.0480   -6.1340 O   0  0  0  0  0  0  0  0  0  0  0  0
   34.0490   43.7410   -6.6130 O   0  0  0  0  0  0  0  0  0  0  0  0
  1  2  1  0
  2  3  2  3
  2  4  1  0
  3  5  1  0
  4  6  2  0
  4  7  1  0
  5  8  1  0
  6  9  1  0
  7 10  2  0
  8 11  1  0
  9 12  2  0
 10 12  1  0
 11 13  1  0
 13 14  1  0
 14 15  2  0
 14 16  1  0
 15 17  1  0
 16 18  2  0
 15 19  1  0
 19 20  1  0
 17 21  1  0
 18 22  1  0
 19 22  2  0
 21 23  1  0
 23 24  1  0
 23 25  2  0
M  END
