mac-x0223-mac-x0346
     RDKit          3D

 26 27  0  0  0  0  0  0  0  0999 V2000
   27.5610   43.8210   -2.1330 C   0  0  0  0  0  0  0  0  0  0  0  0
   27.6650   45.2150   -1.8570 O   0  0  0  0  0  0  0  0  0  0  0  0
   28.8330   45.8000   -2.2750 C   0  0  0  0  0  0  0  0  0  0  0  0
   29.1170   47.1010   -1.8320 C   0  0  0  0  0  0  0  0  0  0  0  0
   29.7510   45.1630   -3.1210 C   0  0  0  0  0  0  0  0  0  0  0  0
   28.2790   47.8100   -1.0040 O   0  0  0  0  0  0  0  0  0  0  0  0
   30.2870   47.7480   -2.2190 C   0  0  0  0  0  0  0  0  0  0  0  0
   30.9350   45.8130   -3.5180 C   0  0  0  0  0  0  0  0  0  0  0  0
   31.9320   45.1440   -4.4330 C   0  0  0  0  0  0  0  0  0  0  0  0
   28.6480   49.2120   -1.0170 C   0  0  0  0  0  0  0  0  0  0  0  0
   31.1890   47.1050   -3.0570 C   0  0  0  0  0  0  0  0  0  0  0  0
   32.2980   45.9540   -5.6640 C   0  0  0  0  0  0  0  0  0  0  0  0
   28.2350   49.8110   -2.3650 C   0  0  0  0  0  0  0  0  0  0  0  0
   33.3160   46.6090   -5.8230 O   0  0  0  0  0  0  0  0  0  0  0  0
   31.3470   45.8820   -6.6290 O   0  0  0  0  0  0  0  0  0  0  0  0
   29.3640   50.4260   -3.0330 O   0  0  0  0  0  0  0  0  0  0  0  0
   29.0960   50.7410   -4.3420 C   0  0  0  0  0  0  0  0  0  0  0  0
   29.2250   52.0770   -4.7760 C   0  0  0  0  0  0  0  0  0  0  0  0
   28.6900   49.7620   -5.2590 C   0  0  0  0  0  0  0  0  0  0  0  0
   29.6570   53.1860   -3.8750 C   0  0  0  0  0  0  0  0  0  0  0  0
   28.4090   50.0970   -6.5830 C   0  0  0  0  0  0  0  0  0  0  0  0
   28.9370   52.4040   -6.1150 C   0  0  0  0  0  0  0  0  0  0  0  0
   29.9330   54.4450   -4.3670 N   0  0  0  0  0  0  0  0  0  0  0  0
   29.7830   52.9660   -2.6720 O   0  0  0  0  0  0  0  0  0  0  0  0
   28.5300   51.4150   -7.0130 C   0  0  0  0  0  0  0  0  0  0  0  0
   29.1210   54.9570   -5.4030 O   0  0  0  0  0  0  0  0  0  0  0  0
  1  2  1  0
  2  3  1  0
  3  4  2  0
  3  5  1  0
  4  6  1  0
  4  7  1  0
  5  8  2  0
  8  9  1  0
  6 10  1  0
  7 11  2  0
  8 11  1  0
  9 12  1  0
 10 13  1  0
 12 14  2  0
 12 15  1  0
 13 16  1  0
 16 17  1  0
 17 18  2  0
 17 19  1  0
 18 20  1  0
 19 21  2  0
 18 22  1  0
 20 23  1  0
 20 24  2  0
 21 25  1  0
 22 25  2  0
 23 26  1  0
M  END
