mac-x0301-mac-x0347
     RDKit          3D

 19 21  0  0  0  0  0  0  0  0999 V2000
   30.6780   45.5520   -5.2120 C   0  0  0  0  0  0  0  0  0  0  0  0
   30.5060   46.7520   -4.2710 C   0  0  0  0  0  0  0  0  0  0  0  0
   30.6220   46.5790   -3.0590 O   0  0  0  0  0  0  0  0  0  0  0  0
   30.4010   44.3900   -4.6070 O   0  0  0  0  0  0  0  0  0  0  0  0
   31.0280   45.6200   -6.3740 O   0  0  0  0  0  0  0  0  0  0  0  0
   30.2110   48.1180   -4.8730 C   0  0  1  0  0  0  0  0  0  0  0  0
   30.1380   48.1650   -6.4060 C   0  0  2  0  0  0  0  0  0  0  0  0
   29.0710   48.8140   -4.1950 C   0  0  0  0  0  0  0  0  0  0  0  0
   29.5860   49.4890   -6.9710 C   0  0  2  0  0  0  0  0  0  0  0  0
   28.6180   49.9710   -4.6750 C   0  0  0  0  0  0  0  0  0  0  0  0
   29.3770   47.1220   -7.0400 O   0  0  0  0  0  0  0  0  0  0  0  0
   29.2370   50.6120   -5.9010 C   0  0  0  0  0  0  0  0  0  0  0  0
   28.4360   49.1060   -7.7490 O   0  0  0  0  0  0  0  0  0  0  0  0
   28.7070   47.7650   -8.1270 C   0  0  0  0  0  0  0  0  0  0  0  0
   28.2890   51.7040   -6.4010 C   0  0  0  0  0  0  0  0  0  0  0  0
   30.5710   51.2200   -5.4630 C   0  0  0  0  0  0  0  0  0  0  0  0
   28.5400   53.0240   -6.3080 C   0  0  0  0  0  0  0  0  0  0  0  0
   30.8090   52.5380   -5.3730 C   0  0  0  0  0  0  0  0  0  0  0  0
   29.7900   53.5860   -5.6980 C   0  0  0  0  0  0  0  0  0  0  0  0
  1  2  1  0
  2  3  2  0
  1  4  1  0
  1  5  2  0
  6  2  1  6
  6  7  1  0
  6  8  1  0
  7  9  1  0
  8 10  2  0
  7 11  1  1
  9 12  1  0
 12 10  1  0
  9 13  1  1
 11 14  1  0
 13 14  1  0
 12 15  1  0
 12 16  1  0
 15 17  2  0
 16 18  2  0
 17 19  1  0
 18 19  1  0
M  END
