mac-x0271-mac-x0204
     RDKit          3D

 23 25  0  0  0  0  0  0  0  0999 V2000
   30.9030   50.0550   -2.4080 O   0  0  0  0  0  0  0  0  0  0  0  0
   30.2290   50.7860   -3.3240 C   0  0  0  0  0  0  0  0  0  0  0  0
   29.3580   50.1440   -4.2170 C   0  0  0  0  0  0  0  0  0  0  0  0
   30.4400   52.1510   -3.3340 C   0  0  0  0  0  0  0  0  0  0  0  0
   29.1580   48.6080   -4.1400 C   0  0  0  0  0  0  0  0  0  0  0  0
   29.7750   52.9280   -4.2540 C   0  0  0  0  0  0  0  0  0  0  0  0
   28.6830   50.9750   -5.1680 C   0  0  0  0  0  0  0  0  0  0  0  0
   28.8980   52.3790   -5.1850 C   0  0  0  0  0  0  0  0  0  0  0  0
   30.0300   54.3100   -4.2030 O   0  0  0  0  0  0  0  0  0  0  0  0
   30.3290   47.8080   -3.5380 C   0  0  0  0  0  0  0  0  0  0  0  0
   28.2500   53.3010   -6.1180 C   0  0  0  0  0  0  0  0  0  0  0  0
   29.1740   55.1930   -4.8270 C   0  0  0  0  0  0  0  0  0  0  0  0
   31.1140   46.9120   -4.2980 C   0  0  0  0  0  0  0  0  0  0  0  0
   30.6910   47.9290   -2.1720 C   0  0  0  0  0  0  0  0  0  0  0  0
   29.0650   56.3670   -4.4860 O   0  0  0  0  0  0  0  0  0  0  0  0
   30.9150   46.5800   -5.7160 C   0  0  0  0  0  0  0  0  0  0  0  0
   29.9840   48.7380   -1.3290 O   0  0  0  0  0  0  0  0  0  0  0  0
   28.3880   54.6290   -5.9400 C   0  0  0  0  0  0  0  0  0  0  0  0
   31.7780   47.2210   -1.6690 C   0  0  0  0  0  0  0  0  0  0  0  0
   32.1820   46.2520   -3.6960 C   0  0  0  0  0  0  0  0  0  0  0  0
   32.0080   46.7750   -6.4680 O   0  0  0  0  0  0  0  0  0  0  0  0
   29.8800   46.1500   -6.1940 O   0  0  0  0  0  0  0  0  0  0  0  0
   32.5400   46.3910   -2.4010 N   0  0  0  0  0  0  0  0  0  0  0  0
  1  2  1  0
  2  3  2  0
  2  4  1  0
  3  5  1  0
  4  6  2  0
  3  7  1  0
  6  8  1  0
  7  8  2  0
  6  9  1  0
  5 10  1  0
  8 11  1  0
  9 12  1  0
 10 13  2  0
 10 14  1  0
 12 15  2  0
 13 16  1  0
 14 17  1  0
 11 18  2  0
 12 18  1  0
 14 19  2  0
 13 20  1  0
 16 21  1  0
 16 22  2  0
 19 23  1  0
 20 23  2  0
M  END
