mac-x0568-mac-x0455
     RDKit          3D

 21 22  0  0  0  0  0  0  0  0999 V2000
   29.4090   55.4660   -5.2440 C   0  0  0  0  0  0  0  0  0  0  0  0
   29.5220   53.9680   -5.2270 C   0  0  0  0  0  0  0  0  0  0  0  0
   29.2040   53.2220   -6.3600 C   0  0  0  0  0  0  0  0  0  0  0  0
   29.9430   53.3860   -4.0780 N   0  0  0  0  0  0  0  0  0  0  0  0
   30.0570   52.0270   -4.0490 C   0  0  0  0  0  0  0  0  0  0  0  0
   29.3260   51.8280   -6.3120 C   0  0  0  0  0  0  0  0  0  0  0  0
   29.7640   51.2070   -5.1310 C   0  0  0  0  0  0  0  0  0  0  0  0
   29.9020   49.7080   -5.0980 C   0  0  0  0  0  0  0  0  0  0  0  0
   30.6960   48.9800   -4.3460 N   0  0  0  0  0  0  0  0  0  0  0  0
   29.1070   49.0250   -5.9810 N   0  0  0  0  0  0  0  0  0  0  0  0
   30.9470   47.4850   -4.2460 C   0  0  1  0  0  0  0  0  0  0  0  0
   30.1680   46.9380   -3.1630 O   0  0  0  0  0  0  0  0  0  0  0  0
   30.4180   46.6800   -5.4890 C   0  0  0  0  0  0  0  0  0  0  0  0
   32.3880   47.1260   -3.8360 C   0  0  0  0  0  0  0  0  0  0  0  0
   29.3090   46.1650   -5.5930 O   0  0  0  0  0  0  0  0  0  0  0  0
   31.2780   46.5280   -6.5200 O   0  0  0  0  0  0  0  0  0  0  0  0
   33.3810   48.0920   -3.6130 C   0  0  0  0  0  0  0  0  0  0  0  0
   32.7670   45.7690   -3.6720 C   0  0  0  0  0  0  0  0  0  0  0  0
   34.6840   47.7280   -3.2470 C   0  0  0  0  0  0  0  0  0  0  0  0
   34.0700   45.4050   -3.3060 C   0  0  0  0  0  0  0  0  0  0  0  0
   35.0300   46.3890   -3.0940 C   0  0  0  0  0  0  0  0  0  0  0  0
  1  2  1  0
  2  3  2  0
  2  4  1  0
  4  5  2  0
  3  6  1  0
  5  7  1  0
  6  7  2  0
  7  8  1  0
  8  9  2  3
  8 10  1  0
 11  9  1  0
 11 12  1  1
 11 13  1  0
 11 14  1  0
 13 15  2  0
 13 16  1  0
 14 17  2  0
 14 18  1  0
 17 19  1  0
 18 20  2  0
 19 21  2  0
 20 21  1  0
M  END
