mac-x0453-mac-x0178
     RDKit          3D

 22 23  0  0  0  0  0  0  0  0999 V2000
   29.1930   54.7900   -6.9820 N   0  0  0  0  0  0  0  0  0  0  0  0
   29.8510   53.6100   -6.4180 C   0  0  0  0  0  0  0  0  0  0  0  0
   28.8830   52.4490   -6.1250 C   0  0  0  0  0  0  0  0  0  0  0  0
   29.5540   51.3830   -5.3250 C   0  0  0  0  0  0  0  0  0  0  0  0
   30.4730   50.4440   -5.7440 C   0  0  0  0  0  0  0  0  0  0  0  0
   29.3060   51.2330   -3.9800 N   0  0  0  0  0  0  0  0  0  0  0  0
   30.7980   49.7240   -4.6250 N   0  0  0  0  0  0  0  0  0  0  0  0
   30.0640   50.2340   -3.5920 C   0  0  0  0  0  0  0  0  0  0  0  0
   31.7530   48.6200   -4.5230 C   0  0  0  0  0  0  0  0  0  0  0  0
   31.0820   47.3740   -4.0090 C   0  0  0  0  0  0  0  0  0  0  0  0
   31.0810   46.1560   -4.7100 C   0  0  0  0  0  0  0  0  0  0  0  0
   30.4190   47.4500   -2.7690 C   0  0  0  0  0  0  0  0  0  0  0  0
   31.7740   46.0070   -6.0170 C   0  0  0  0  0  0  0  0  0  0  0  0
   29.7550   46.3460   -2.2440 C   0  0  0  0  0  0  0  0  0  0  0  0
   30.4040   45.0490   -4.1670 C   0  0  0  0  0  0  0  0  0  0  0  0
   28.9260   46.5070   -0.6850 S   0  0  0  0  0  0  0  0  0  0  0  0
   31.2650   45.7020   -7.0770 O   0  0  0  0  0  0  0  0  0  0  0  0
   33.0940   46.2570   -5.9210 O   0  0  0  0  0  0  0  0  0  0  0  0
   29.7400   45.1410   -2.9390 C   0  0  0  0  0  0  0  0  0  0  0  0
   28.5350   44.9210   -0.3080 N   0  0  0  0  0  0  0  0  0  0  0  0
   29.8740   46.9390    0.3140 O   0  0  0  0  0  0  0  0  0  0  0  0
   27.6760   47.1930   -0.9060 O   0  0  0  0  0  0  0  0  0  0  0  0
  1  2  1  0
  2  3  1  0
  3  4  1  0
  4  5  2  0
  4  6  1  0
  5  7  1  0
  6  8  2  0
  7  8  1  0
  7  9  1  0
  9 10  1  0
 10 11  2  0
 10 12  1  0
 11 13  1  0
 12 14  2  0
 11 15  1  0
 14 16  1  0
 13 17  2  0
 13 18  1  0
 14 19  1  0
 15 19  2  0
 16 20  1  0
 16 21  2  0
 16 22  2  0
M  END
