mac-x0472-mac-x0397
     RDKit          3D

 25 28  0  0  0  0  0  0  0  0999 V2000
   30.8210   50.0240   -2.2150 O   0  0  0  0  0  0  0  0  0  0  0  0
   30.9450   49.6150   -3.5950 S   0  0  0  0  0  0  0  0  0  0  0  0
   30.7300   48.2270   -3.9550 O   0  0  0  0  0  0  0  0  0  0  0  0
   32.4850   50.2160   -4.2420 C   0  0  0  0  0  0  0  0  0  0  0  0
   29.9810   50.6810   -4.6070 C   0  0  0  0  0  0  0  0  0  0  0  0
   33.5330   49.3590   -4.5730 C   0  0  0  0  0  0  0  0  0  0  0  0
   32.6160   51.6020   -4.4280 C   0  0  0  0  0  0  0  0  0  0  0  0
   29.7570   51.9940   -4.1390 C   0  0  0  0  0  0  0  0  0  0  0  0
   29.4420   50.3520   -5.8560 C   0  0  0  0  0  0  0  0  0  0  0  0
   34.7100   49.8970   -5.0910 C   0  0  0  0  0  0  0  0  0  0  0  0
   33.7910   52.1280   -4.9440 C   0  0  0  0  0  0  0  0  0  0  0  0
   30.2830   52.6650   -2.6440 Cl  0  0  0  0  0  0  0  0  0  0  0  0
   29.3830   49.2430   -6.7130 C   0  0  0  0  0  0  0  0  0  0  0  0
   29.0410   52.9280   -4.9330 C   0  0  0  0  0  0  0  0  0  0  0  0
   28.7510   51.2580   -6.5960 C   0  0  0  0  0  0  0  0  0  0  0  0
   34.8400   51.2780   -5.2780 C   0  0  0  0  0  0  0  0  0  0  0  0
   30.3450   48.5470   -7.2330 N   0  0  0  0  0  0  0  0  0  0  0  0
   27.7890   48.8320   -7.1530 S   0  0  0  0  0  0  0  0  0  0  0  0
   28.7300   54.2550   -4.6840 N   0  0  0  0  0  0  0  0  0  0  0  0
   28.5650   52.5030   -6.1530 C   0  0  0  0  0  0  0  0  0  0  0  0
   28.5090   47.6440   -8.1240 C   0  0  0  0  0  0  0  0  0  0  0  0
   29.8190   47.5990   -8.0760 N   0  0  0  0  0  0  0  0  0  0  0  0
   28.0660   54.7620   -5.6930 C   0  0  0  0  0  0  0  0  0  0  0  0
   27.7440   53.7250   -6.9950 S   0  0  0  0  0  0  0  0  0  0  0  0
   27.6470   56.0260   -5.7370 N   0  0  0  0  0  0  0  0  0  0  0  0
  1  2  2  0
  2  3  2  0
  2  4  1  0
  2  5  1  0
  4  6  2  0
  4  7  1  0
  5  8  2  0
  5  9  1  0
  6 10  1  0
  7 11  2  0
  8 12  1  0
  9 13  1  0
  8 14  1  0
  9 15  2  0
 10 16  2  0
 11 16  1  0
 13 17  2  0
 13 18  1  0
 14 19  1  0
 14 20  2  0
 15 20  1  0
 18 21  1  0
 17 22  1  0
 21 22  2  0
 19 23  2  0
 20 24  1  0
 23 24  1  0
 23 25  1  0
M  END
