mac-x0572-mac-x0137
     RDKit          3D

 24 27  0  0  0  0  0  0  0  0999 V2000
   28.6020   55.6300   -7.8190 C   0  0  0  0  0  0  0  0  0  0  0  0
   28.8150   54.6820   -6.6650 C   0  0  0  0  0  0  0  0  0  0  0  0
   28.7280   53.3470   -6.9980 N   0  0  0  0  0  0  0  0  0  0  0  0
   29.0720   55.0890   -5.3990 C   0  0  0  0  0  0  0  0  0  0  0  0
   29.1730   56.4080   -4.9980 O   0  0  0  0  0  0  0  0  0  0  0  0
   29.2640   54.0380   -4.3380 C   0  0  0  0  0  0  0  0  0  0  0  0
   29.0030   52.2990   -6.0920 C   0  0  0  0  0  0  0  0  0  0  0  0
   29.4080   54.3320   -3.1520 O   0  0  0  0  0  0  0  0  0  0  0  0
   29.2740   52.6140   -4.7550 C   0  0  0  0  0  0  0  0  0  0  0  0
   29.0030   50.9640   -6.5360 C   0  0  0  0  0  0  0  0  0  0  0  0
   29.2820   49.9340   -5.6100 C   0  0  0  0  0  0  0  0  0  0  0  0
   29.5490   51.6110   -3.8380 C   0  0  0  0  0  0  0  0  0  0  0  0
   28.7350   50.7190   -7.8310 N   0  0  0  0  0  0  0  0  0  0  0  0
   29.5530   50.2840   -4.2600 C   0  0  0  0  0  0  0  0  0  0  0  0
   28.7420   49.4440   -8.2190 C   0  0  0  0  0  0  0  0  0  0  0  0
   29.2590   48.6140   -6.1440 C   0  0  0  0  0  0  0  0  0  0  0  0
   29.5150   47.4490   -5.3500 N   0  0  0  0  0  0  0  0  0  0  0  0
   28.9890   48.3840   -7.4450 N   0  0  0  0  0  0  0  0  0  0  0  0
   29.9530   47.7200   -3.9520 C   0  0  0  0  0  0  0  0  0  0  0  0
   30.2710   46.4070   -6.0600 C   0  0  0  0  0  0  0  0  0  0  0  0
   31.4730   47.9130   -3.7840 C   0  0  2  0  0  0  0  0  0  0  0  0
   31.7610   46.7420   -6.0000 C   0  0  0  0  0  0  0  0  0  0  0  0
   31.8370   49.1550   -4.2050 F   0  0  0  0  0  0  0  0  0  0  0  0
   32.2740   46.8850   -4.5670 C   0  0  0  0  0  0  0  0  0  0  0  0
  1  2  1  0
  2  3  1  0
  2  4  2  0
  4  5  1  0
  4  6  1  0
  3  7  1  0
  6  8  2  0
  6  9  1  0
  7  9  2  0
  7 10  1  0
 10 11  2  0
  9 12  1  0
 10 13  1  0
 11 14  1  0
 12 14  2  0
 13 15  2  0
 11 16  1  0
 16 17  1  0
 15 18  1  0
 16 18  2  0
 17 19  1  0
 17 20  1  0
 19 21  1  0
 20 22  1  0
 21 23  1  6
 21 24  1  0
 22 24  1  0
M  END
