mac-x0302-mac-x0385
     RDKit          3D

 23 24  0  0  0  0  0  0  0  0999 V2000
   31.5600   45.3650   -3.7110 O   0  0  0  0  0  0  0  0  0  0  0  0
   32.6120   46.1290   -4.1850 C   0  0  0  0  0  0  0  0  0  0  0  0
   32.8260   46.1970   -5.4050 O   0  0  0  0  0  0  0  0  0  0  0  0
   33.4610   46.8370   -3.1870 C   0  0  0  0  0  0  0  0  0  0  0  0
   33.2140   48.2220   -3.1650 N   0  0  0  0  0  0  0  0  0  0  0  0
   32.9860   49.5420   -3.1300 C   0  0  0  0  0  0  0  0  0  0  0  0
   33.7090   50.4310   -2.6050 O   0  0  0  0  0  0  0  0  0  0  0  0
   31.7450   50.1360   -3.7620 C   0  0  0  0  0  0  0  0  0  0  0  0
   31.3480   51.4320   -3.5090 C   0  0  0  0  0  0  0  0  0  0  0  0
   30.9870   49.3890   -4.6050 C   0  0  0  0  0  0  0  0  0  0  0  0
   30.2120   51.9520   -4.0910 C   0  0  0  0  0  0  0  0  0  0  0  0
   29.8370   49.9160   -5.1940 C   0  0  0  0  0  0  0  0  0  0  0  0
   29.8130   53.2760   -3.8230 O   0  0  0  0  0  0  0  0  0  0  0  0
   29.4140   51.1950   -4.9610 C   0  0  0  0  0  0  0  0  0  0  0  0
   28.2440   51.7170   -5.5500 N   0  0  0  0  0  0  0  0  0  0  0  0
   27.1320   50.8810   -5.7630 C   0  0  0  0  0  0  0  0  0  0  0  0
   26.4370   50.5270   -4.6070 C   0  0  0  0  0  0  0  0  0  0  0  0
   26.7160   50.4100   -6.9590 N   0  0  0  0  0  0  0  0  0  0  0  0
   26.8670   51.0260   -3.2910 C   0  0  0  0  0  0  0  0  0  0  0  0
   25.6520   49.6050   -7.0820 C   0  0  0  0  0  0  0  0  0  0  0  0
   25.3500   49.7060   -4.7460 C   0  0  0  0  0  0  0  0  0  0  0  0
   25.2280   49.0980   -8.4260 C   0  0  0  0  0  0  0  0  0  0  0  0
   24.9890   49.2690   -5.9660 N   0  0  0  0  0  0  0  0  0  0  0  0
  1  2  1  0
  2  3  2  0
  2  4  1  0
  4  5  1  0
  5  6  1  0
  6  7  2  0
  6  8  1  0
  8  9  2  0
  8 10  1  0
  9 11  1  0
 10 12  2  0
 11 13  1  0
 11 14  2  0
 12 14  1  0
 14 15  1  0
 15 16  1  0
 16 17  2  0
 16 18  1  0
 17 19  1  0
 18 20  2  0
 17 21  1  0
 20 22  1  0
 20 23  1  0
 21 23  2  0
M  END
