mac-x0565
     RDKit          3D

 12 13  0  0  0  0  0  0  0  0999 V2000
   28.9020   53.0530   -5.4550 O   0  0  0  0  0  0  0  0  0  0  0  0
   29.3540   52.8970   -4.3090 C   0  0  0  0  0  0  0  0  0  0  0  0
   29.5880   53.9240   -3.6090 O   0  0  0  0  0  0  0  0  0  0  0  0
   29.6920   51.4800   -3.8470 C   0  0  0  0  0  0  0  0  0  0  0  0
   30.0840   51.2540   -2.5570 C   0  0  0  0  0  0  0  0  0  0  0  0
   30.4190   49.9740   -2.1550 C   0  0  0  0  0  0  0  0  0  0  0  0
   30.3560   48.9170   -3.0660 C   0  0  0  0  0  0  0  0  0  0  0  0
   30.6330   47.5460   -2.9650 O   0  0  0  0  0  0  0  0  0  0  0  0
   29.9560   46.9400   -4.0220 C   0  0  0  0  0  0  0  0  0  0  0  0
   30.0060   47.8950   -5.0390 O   0  0  0  0  0  0  0  0  0  0  0  0
   29.9730   49.1340   -4.3510 C   0  0  0  0  0  0  0  0  0  0  0  0
   29.6200   50.4150   -4.7440 C   0  0  0  0  0  0  0  0  0  0  0  0
  1  2  1  0
  2  3  2  0
  2  4  1  0
  4  5  2  0
  5  6  1  0
  6  7  2  0
  7  8  1  0
  8  9  1  0
  9 10  1  0
  7 11  1  0
 10 11  1  0
  4 12  1  0
 11 12  2  0
M  END
