mac-x0231-mac-x0354
     RDKit          3D

 27 30  0  0  0  0  0  0  0  0999 V2000
   33.3230   43.5670   -7.6470 O   0  0  0  0  0  0  0  0  0  0  0  0
   32.2150   43.0810   -7.0340 C   0  0  0  0  0  0  0  0  0  0  0  0
   31.1310   43.2330   -7.5750 O   0  0  0  0  0  0  0  0  0  0  0  0
   32.5530   42.4070   -5.7190 C   0  0  0  0  0  0  0  0  0  0  0  0
   33.5940   43.1860   -4.9960 C   0  0  0  0  0  0  0  0  0  0  0  0
   34.8800   42.8620   -5.1320 N   0  0  0  0  0  0  0  0  0  0  0  0
   33.4050   44.2990   -4.1320 C   0  0  0  0  0  0  0  0  0  0  0  0
   32.1180   44.8760   -3.7660 C   0  0  0  0  0  0  0  0  0  0  0  0
   35.5250   43.7630   -4.3780 N   0  0  0  0  0  0  0  0  0  0  0  0
   34.7070   44.6690   -3.7530 C   0  0  0  0  0  0  0  0  0  0  0  0
   36.9650   43.6940   -4.3040 C   0  0  0  0  0  0  0  0  0  0  0  0
   31.9470   46.2680   -3.2900 C   0  0  0  0  0  0  0  0  0  0  0  0
   31.1210   44.0410   -3.8710 N   0  0  0  0  0  0  0  0  0  0  0  0
   35.2460   45.7340   -2.9110 C   0  0  0  0  0  0  0  0  0  0  0  0
   30.7000   46.5860   -2.7500 C   0  0  0  0  0  0  0  0  0  0  0  0
   29.8810   44.4760   -3.5250 N   0  0  0  0  0  0  0  0  0  0  0  0
   32.9380   47.2550   -3.3480 C   0  0  0  0  0  0  0  0  0  0  0  0
   36.4710   46.3170   -3.2700 C   0  0  0  0  0  0  0  0  0  0  0  0
   34.5840   46.1940   -1.7700 C   0  0  0  0  0  0  0  0  0  0  0  0
   29.6580   45.5450   -2.7000 C   0  0  0  0  0  0  0  0  0  0  0  0
   30.4370   47.8700   -2.2640 C   0  0  0  0  0  0  0  0  0  0  0  0
   32.6780   48.5390   -2.8640 C   0  0  0  0  0  0  0  0  0  0  0  0
   37.0260   47.3400   -2.5060 C   0  0  0  0  0  0  0  0  0  0  0  0
   35.1420   47.2210   -1.0050 C   0  0  0  0  0  0  0  0  0  0  0  0
   28.6710   45.6340   -1.9770 O   0  0  0  0  0  0  0  0  0  0  0  0
   31.4300   48.8460   -2.3220 C   0  0  0  0  0  0  0  0  0  0  0  0
   36.3620   47.7930   -1.3730 C   0  0  0  0  0  0  0  0  0  0  0  0
  1  2  1  0
  2  3  2  0
  2  4  1  0
  4  5  1  0
  5  6  2  0
  5  7  1  0
  7  8  1  0
  6  9  1  0
  7 10  2  0
  9 10  1  0
  9 11  1  0
  8 12  1  0
  8 13  2  0
 10 14  1  0
 12 15  2  0
 13 16  1  0
 12 17  1  0
 14 18  2  0
 14 19  1  0
 15 20  1  0
 16 20  1  0
 15 21  1  0
 17 22  2  0
 18 23  1  0
 19 24  2  0
 20 25  2  0
 21 26  2  0
 22 26  1  0
 23 27  2  0
 24 27  1  0
M  END
