mac-x0564-mac-x0193
     RDKit          3D

 29 32  0  0  0  0  0  0  0  0999 V2000
   29.5160   46.7540   -7.1990 O   0  0  0  0  0  0  0  0  0  0  0  0
   29.9240   47.0040   -6.0650 C   0  0  0  0  0  0  0  0  0  0  0  0
   30.5850   46.0670   -5.2820 N   0  0  0  0  0  0  0  0  0  0  0  0
   29.7990   48.2450   -5.3770 C   0  0  0  0  0  0  0  0  0  0  0  0
   31.0450   44.8560   -5.9210 C   0  0  0  0  0  0  0  0  0  0  0  0
   30.0970   48.4080   -4.0560 C   0  0  0  0  0  0  0  0  0  0  0  0
   30.7720   46.2630   -3.9140 C   0  0  0  0  0  0  0  0  0  0  0  0
   29.3730   49.4060   -5.9350 O   0  0  0  0  0  0  0  0  0  0  0  0
   32.2530   44.3560   -5.3030 N   0  0  0  0  0  0  0  0  0  0  0  0
   30.5580   47.3650   -3.2450 N   0  0  0  0  0  0  0  0  0  0  0  0
   29.4050   50.3310   -4.9260 C   0  0  0  0  0  0  0  0  0  0  0  0
   29.8500   49.7560   -3.7320 C   0  0  0  0  0  0  0  0  0  0  0  0
   33.4250   44.6480   -5.7360 C   0  0  0  0  0  0  0  0  0  0  0  0
   29.9450   50.5640   -2.5860 C   0  0  0  0  0  0  0  0  0  0  0  0
   29.0450   51.6720   -5.0530 C   0  0  0  0  0  0  0  0  0  0  0  0
   33.7170   45.4360   -6.7960 O   0  0  0  0  0  0  0  0  0  0  0  0
   34.6710   44.1010   -5.0630 C   0  0  0  0  0  0  0  0  0  0  0  0
   29.5880   51.9180   -2.6880 C   0  0  0  0  0  0  0  0  0  0  0  0
   29.1460   52.4580   -3.9010 C   0  0  0  0  0  0  0  0  0  0  0  0
   34.7480   44.5380   -3.6830 N   0  0  0  0  0  0  0  0  0  0  0  0
   35.2470   43.6900   -2.7340 C   0  0  0  0  0  0  0  0  0  0  0  0
   34.8200   42.5620   -2.5270 O   0  0  0  0  0  0  0  0  0  0  0  0
   36.2830   44.2790   -2.0520 N   0  0  0  0  0  0  0  0  0  0  0  0
   37.4590   43.5260   -1.6460 C   0  0  0  0  0  0  0  0  0  0  0  0
   37.6950   42.3020   -2.5360 C   0  0  0  0  0  0  0  0  0  0  0  0
   37.3440   43.1240   -0.1680 C   0  0  0  0  0  0  0  0  0  0  0  0
   38.8670   41.4530   -2.0400 C   0  0  0  0  0  0  0  0  0  0  0  0
   38.5140   42.2720    0.3290 C   0  0  0  0  0  0  0  0  0  0  0  0
   39.5300   41.9990   -0.7710 C   0  0  0  0  0  0  0  0  0  0  0  0
  1  2  2  0
  2  3  1  0
  2  4  1  0
  3  5  1  0
  4  6  2  0
  3  7  1  0
  4  8  1  0
  5  9  1  0
  6 10  1  0
  7 10  2  0
  8 11  1  0
  6 12  1  0
 11 12  2  0
  9 13  2  3
 12 14  1  0
 11 15  1  0
 13 16  1  0
 13 17  1  0
 14 18  2  0
 15 19  2  0
 18 19  1  0
 17 20  1  0
 20 21  1  0
 21 22  2  0
 21 23  1  0
 23 24  1  0
 24 25  1  0
 24 26  1  0
 25 27  1  0
 26 28  1  0
 27 29  1  0
 28 29  1  0
M  END
