mac-x0138-mac-x0371
     RDKit          3D

 23 25  0  0  0  0  0  0  0  0999 V2000
   31.5910   47.7040   -4.7550 C   0  0  0  0  0  0  0  0  0  0  0  0
   30.5000   48.6620   -4.8430 N   0  0  0  0  0  0  0  0  0  0  0  0
   29.9770   49.3940   -3.8080 C   0  0  0  0  0  0  0  0  0  0  0  0
   31.1080   46.2950   -4.4290 C   0  0  0  0  0  0  0  0  0  0  0  0
   29.8050   49.0040   -5.9740 C   0  0  0  0  0  0  0  0  0  0  0  0
   31.9710   45.1720   -4.2670 C   0  0  0  0  0  0  0  0  0  0  0  0
   29.7150   46.1150   -4.2810 C   0  0  0  0  0  0  0  0  0  0  0  0
   33.4820   45.2900   -4.4080 C   0  0  0  0  0  0  0  0  0  0  0  0
   28.9990   50.1790   -4.2020 N   0  0  0  0  0  0  0  0  0  0  0  0
   28.8820   49.9440   -5.5570 C   0  0  0  0  0  0  0  0  0  0  0  0
   29.9710   48.5400   -7.2240 N   0  0  0  0  0  0  0  0  0  0  0  0
   29.1650   44.8710   -3.9820 C   0  0  0  0  0  0  0  0  0  0  0  0
   31.3820   43.9180   -3.9630 C   0  0  0  0  0  0  0  0  0  0  0  0
   32.3270   42.4810   -3.7420 Cl  0  0  0  0  0  0  0  0  0  0  0  0
   33.9690   45.4640   -5.8330 C   0  0  0  0  0  0  0  0  0  0  0  0
   28.0330   50.4630   -6.5460 C   0  0  0  0  0  0  0  0  0  0  0  0
   29.1120   49.0970   -8.0890 C   0  0  0  0  0  0  0  0  0  0  0  0
   30.0010   43.7720   -3.8230 C   0  0  0  0  0  0  0  0  0  0  0  0
   27.0540   51.4160   -6.2860 N   0  0  0  0  0  0  0  0  0  0  0  0
   29.2000   48.6830   -9.4050 N   0  0  0  0  0  0  0  0  0  0  0  0
   33.4300   44.6060   -6.7300 O   0  0  0  0  0  0  0  0  0  0  0  0
   34.7910   46.3120   -6.1590 O   0  0  0  0  0  0  0  0  0  0  0  0
   28.1690   50.0180   -7.8160 N   0  0  0  0  0  0  0  0  0  0  0  0
  1  2  1  0
  2  3  1  0
  1  4  1  0
  2  5  1  0
  4  6  2  0
  4  7  1  0
  6  8  1  0
  3  9  2  0
  5 10  2  0
  9 10  1  0
  5 11  1  0
  7 12  2  0
  6 13  1  0
 13 14  1  0
  8 15  1  0
 10 16  1  0
 11 17  2  0
 12 18  1  0
 13 18  2  0
 16 19  1  0
 17 20  1  0
 15 21  1  0
 15 22  2  0
 16 23  2  0
 17 23  1  0
M  END
