mac-x0379-mac-x0433
     RDKit          3D

 18 19  0  0  0  0  0  0  0  0999 V2000
   30.9260   50.8690   -5.9240 C   0  0  0  0  0  0  0  0  0  0  0  0
   30.5820   49.5410   -5.2550 C   0  0  1  0  0  0  0  0  0  0  0  0
   29.4020   49.6170   -4.3970 N   0  0  0  0  0  0  0  0  0  0  0  0
   30.1170   48.3270   -6.5330 S   0  0  0  0  0  0  0  0  0  0  0  0
   28.4540   50.6850   -4.7330 C   0  0  0  0  0  0  0  0  0  0  0  0
   28.8010   48.2830   -4.1940 C   0  0  0  0  0  0  0  0  0  0  0  0
   29.2580   47.3080   -5.2850 C   0  0  2  0  0  0  0  0  0  0  0  0
   30.1500   46.2280   -4.6960 C   0  0  0  0  0  0  0  0  0  0  0  0
   28.8390   52.0670   -4.2560 C   0  0  0  0  0  0  0  0  0  0  0  0
   30.8190   46.3860   -3.6840 O   0  0  0  0  0  0  0  0  0  0  0  0
   30.1490   45.0530   -5.3700 O   0  0  0  0  0  0  0  0  0  0  0  0
   29.2190   52.1730   -2.9630 N   0  0  0  0  0  0  0  0  0  0  0  0
   28.8030   53.1530   -5.1040 C   0  0  0  0  0  0  0  0  0  0  0  0
   29.5670   53.3820   -2.5300 C   0  0  0  0  0  0  0  0  0  0  0  0
   29.1810   54.3660   -4.5640 C   0  0  0  0  0  0  0  0  0  0  0  0
   29.1790   55.6030   -5.4030 C   0  0  0  0  0  0  0  0  0  0  0  0
   29.9580   53.4950   -1.2150 N   0  0  0  0  0  0  0  0  0  0  0  0
   29.5640   54.4900   -3.2750 N   0  0  0  0  0  0  0  0  0  0  0  0
  2  1  1  6
  2  3  1  0
  2  4  1  0
  3  5  1  0
  3  6  1  0
  4  7  1  0
  6  7  1  0
  7  8  1  1
  5  9  1  0
  8 10  2  0
  8 11  1  0
  9 12  2  0
  9 13  1  0
 12 14  1  0
 13 15  2  0
 15 16  1  0
 14 17  1  0
 14 18  2  0
 15 18  1  0
M  END
