mac-x0263-mac-x0392
     RDKit          3D

 23 25  0  0  0  0  0  0  0  0999 V2000
   28.0650   59.8940   -6.4850 O   0  0  0  0  0  0  0  0  0  0  0  0
   26.9650   59.1250   -6.3750 C   0  0  0  0  0  0  0  0  0  0  0  0
   25.8700   59.5660   -6.6900 O   0  0  0  0  0  0  0  0  0  0  0  0
   27.2350   57.7450   -5.8380 C   0  0  0  0  0  0  0  0  0  0  0  0
   28.2460   56.9360   -6.6470 C   0  0  0  0  0  0  0  0  0  0  0  0
   28.2110   55.4910   -6.2590 C   0  0  0  0  0  0  0  0  0  0  0  0
   28.7060   55.0490   -5.0460 N   0  0  0  0  0  0  0  0  0  0  0  0
   27.7280   54.4780   -6.9750 N   0  0  0  0  0  0  0  0  0  0  0  0
   28.5160   53.7060   -5.0170 C   0  0  0  0  0  0  0  0  0  0  0  0
   27.9160   53.3640   -6.1950 C   0  0  0  0  0  0  0  0  0  0  0  0
   28.8710   52.8430   -3.9820 C   0  0  0  0  0  0  0  0  0  0  0  0
   27.5630   51.9270   -6.4700 C   0  0  0  0  0  0  0  0  0  0  0  0
   28.9320   51.5420   -4.3260 C   0  0  0  0  0  0  0  0  0  0  0  0
   28.6240   50.9730   -5.7300 C   0  0  1  0  0  0  0  0  0  0  0  0
   28.1280   49.5000   -5.4880 C   0  0  0  0  0  0  0  0  0  0  0  0
   29.7600   50.9520   -6.6580 N   0  0  0  0  0  0  0  0  0  0  0  0
   28.9870   48.2830   -5.9740 C   0  0  2  0  0  0  0  0  0  0  0  0
   29.5780   49.9790   -7.7360 C   0  0  0  0  0  0  0  0  0  0  0  0
   29.8480   47.5820   -4.9280 C   0  0  0  0  0  0  0  0  0  0  0  0
   29.8000   48.5480   -7.2430 C   0  0  2  0  0  0  0  0  0  0  0  0
   29.4510   47.5660   -8.2940 N   0  0  0  0  0  0  0  0  0  0  0  0
   30.3520   48.0340   -3.9140 O   0  0  0  0  0  0  0  0  0  0  0  0
   30.0410   46.2810   -5.2350 O   0  0  0  0  0  0  0  0  0  0  0  0
  1  2  1  0
  2  3  2  0
  2  4  1  0
  4  5  1  0
  5  6  1  0
  6  7  1  0
  6  8  2  0
  7  9  1  0
  8 10  1  0
  9 10  2  0
  9 11  1  0
 10 12  1  0
 11 13  2  0
 14 12  1  6
 14 13  1  0
 14 15  1  0
 14 16  1  0
 15 17  1  0
 16 18  1  0
 17 19  1  1
 17 20  1  0
 18 20  1  0
 20 21  1  6
 19 22  2  0
 19 23  1  0
M  END
