mac-x0584-mac-x0437
     RDKit          3D

 32 37  0  0  0  0  0  0  0  0999 V2000
   31.7230   43.5220   -5.9740 O   0  0  0  0  0  0  0  0  0  0  0  0
   32.9360   43.7120   -5.4170 C   0  0  0  0  0  0  0  0  0  0  0  0
   33.9050   43.9110   -6.1320 O   0  0  0  0  0  0  0  0  0  0  0  0
   32.8930   43.6430   -3.9050 C   0  0  0  0  0  0  0  0  0  0  0  0
   32.6840   44.9580   -3.1000 C   0  0  2  0  0  0  0  0  0  0  0  0
   31.2810   45.6550   -3.3360 C   0  0  2  0  0  0  0  0  0  0  0  0
   33.8780   45.7940   -2.9890 N   0  0  0  0  0  0  0  0  0  0  0  0
   30.9730   46.1400   -4.7730 C   0  0  2  0  0  0  0  0  0  0  0  0
   31.1140   46.9480   -2.4880 C   0  0  0  0  0  0  0  0  0  0  0  0
   33.9630   47.1530   -3.1710 C   0  0  0  0  0  0  0  0  0  0  0  0
   35.1540   45.3530   -2.6840 C   0  0  0  0  0  0  0  0  0  0  0  0
   32.2880   46.2850   -5.5270 C   0  0  0  0  0  0  0  0  0  0  0  0
   30.0750   47.2820   -4.6130 N   0  0  0  0  0  0  0  0  0  0  0  0
   30.4930   48.0090   -3.4010 C   0  0  0  0  0  0  0  0  0  0  0  0
   35.1840   47.6120   -3.0060 N   0  0  0  0  0  0  0  0  0  0  0  0
   35.9360   46.5100   -2.7050 C   0  0  0  0  0  0  0  0  0  0  0  0
   35.6980   44.0920   -2.3980 C   0  0  0  0  0  0  0  0  0  0  0  0
   32.2850   45.8220   -7.0160 C   0  0  0  0  0  0  0  0  0  0  0  0
   32.9230   47.5940   -6.0860 C   0  0  0  0  0  0  0  0  0  0  0  0
   29.5230   47.9980   -5.6650 C   0  0  0  0  0  0  0  0  0  0  0  0
   37.3100   46.4260   -2.4350 C   0  0  0  0  0  0  0  0  0  0  0  0
   37.0720   44.0300   -2.1320 C   0  0  0  0  0  0  0  0  0  0  0  0
   33.5620   46.6730   -7.1500 C   0  0  0  0  0  0  0  0  0  0  0  0
   29.1650   47.2860   -6.7900 N   0  0  0  0  0  0  0  0  0  0  0  0
   29.2920   49.3200   -5.7240 C   0  0  0  0  0  0  0  0  0  0  0  0
   37.8650   45.1760   -2.1500 C   0  0  0  0  0  0  0  0  0  0  0  0
   28.6250   47.8730   -7.8960 C   0  0  0  0  0  0  0  0  0  0  0  0
   28.6940   49.8980   -6.9570 C   0  0  0  0  0  0  0  0  0  0  0  0
   29.4640   50.4600   -4.8800 C   0  0  0  0  0  0  0  0  0  0  0  0
   28.3710   49.1310   -8.0390 N   0  0  0  0  0  0  0  0  0  0  0  0
   28.5260   51.1900   -6.8660 N   0  0  0  0  0  0  0  0  0  0  0  0
   29.0020   51.4990   -5.5970 C   0  0  0  0  0  0  0  0  0  0  0  0
  1  2  1  0
  2  3  2  0
  2  4  1  0
  5  4  1  6
  5  6  1  0
  5  7  1  0
  6  8  1  0
  6  9  1  1
  7 10  1  0
  7 11  1  0
  8 12  1  1
  8 13  1  0
  9 14  1  0
 13 14  1  0
 10 15  2  0
 11 16  2  0
 15 16  1  0
 11 17  1  0
 12 18  1  0
 12 19  1  0
 13 20  1  0
 16 21  1  0
 17 22  2  0
 18 23  1  0
 19 23  1  0
 20 24  1  0
 20 25  2  0
 21 26  2  0
 22 26  1  0
 24 27  1  0
 25 28  1  0
 25 29  1  0
 27 30  2  0
 28 30  1  0
 28 31  2  0
 29 32  2  0
 31 32  1  0
M  END
