mac-x0411-mac-x0472
     RDKit          3D

 29 31  0  0  0  0  0  0  0  0999 V2000
   37.4560   44.5640   -3.9010 Cl  0  0  0  0  0  0  0  0  0  0  0  0
   36.5550   45.9670   -3.4450 C   0  0  0  0  0  0  0  0  0  0  0  0
   35.1520   46.0020   -3.4780 C   0  0  0  0  0  0  0  0  0  0  0  0
   37.2760   47.0900   -3.0350 C   0  0  0  0  0  0  0  0  0  0  0  0
   34.3990   44.9210   -3.8790 O   0  0  0  0  0  0  0  0  0  0  0  0
   34.4640   47.1730   -3.0890 C   0  0  0  0  0  0  0  0  0  0  0  0
   36.6030   48.2500   -2.6550 C   0  0  0  0  0  0  0  0  0  0  0  0
   32.9480   47.2550   -3.1020 C   0  0  0  0  0  0  0  0  0  0  0  0
   33.3660   45.2970   -4.7980 C   0  0  0  0  0  0  0  0  0  0  0  0
   35.2130   48.2910   -2.6800 C   0  0  0  0  0  0  0  0  0  0  0  0
   33.3490   44.4020   -6.0190 C   0  0  0  0  0  0  0  0  0  0  0  0
   32.3650   48.4960   -2.4180 C   0  0  0  0  0  0  0  0  0  0  0  0
   32.0910   44.1250   -6.4310 O   0  0  0  0  0  0  0  0  0  0  0  0
   34.3000   43.9430   -6.6300 O   0  0  0  0  0  0  0  0  0  0  0  0
   30.9590   48.6550   -2.8440 N   0  0  0  0  0  0  0  0  0  0  0  0
   30.5880   49.7710   -3.8230 S   0  0  2  0  0  0  0  0  0  0  0  0
   29.7510   50.9180   -3.5590 O   0  0  0  0  0  0  0  0  0  0  0  0
   29.9000   49.0000   -5.1490 N   0  0  0  0  0  0  0  0  0  0  0  0
   32.1450   50.4110   -4.4340 C   0  0  0  0  0  0  0  0  0  0  0  0
   29.4210   49.7110   -6.1920 C   0  0  0  0  0  0  0  0  0  0  0  0
   33.0610   49.5610   -5.0620 C   0  0  0  0  0  0  0  0  0  0  0  0
   32.4260   51.7700   -4.2740 C   0  0  0  0  0  0  0  0  0  0  0  0
   29.0850   49.2740   -7.3910 N   0  0  0  0  0  0  0  0  0  0  0  0
   29.1840   51.4180   -6.0200 S   0  0  0  0  0  0  0  0  0  0  0  0
   34.2690   50.0810   -5.5270 C   0  0  0  0  0  0  0  0  0  0  0  0
   33.6350   52.2840   -4.7460 C   0  0  0  0  0  0  0  0  0  0  0  0
   28.6270   51.4390   -7.6360 C   0  0  0  0  0  0  0  0  0  0  0  0
   28.6250   50.2690   -8.2320 N   0  0  0  0  0  0  0  0  0  0  0  0
   34.5530   51.4380   -5.3700 C   0  0  0  0  0  0  0  0  0  0  0  0
  1  2  1  0
  2  3  2  0
  2  4  1  0
  3  5  1  0
  3  6  1  0
  4  7  2  0
  6  8  1  0
  5  9  1  0
  6 10  2  0
  7 10  1  0
  9 11  1  0
  8 12  1  0
 11 13  1  0
 11 14  2  0
 12 15  1  0
 15 16  2  0
 16 17  2  0
 16 18  1  6
 16 19  1  0
 18 20  1  0
 19 21  2  0
 19 22  1  0
 20 23  2  0
 20 24  1  0
 21 25  1  0
 22 26  2  0
 24 27  1  0
 23 28  1  0
 27 28  2  0
 25 29  2  0
 26 29  1  0
M  END
