mac-x0178-mac-x0572
     RDKit          3D

 29 31  0  0  0  0  0  0  0  0999 V2000
   28.5750   44.9390   -0.3700 N   0  0  0  0  0  0  0  0  0  0  0  0
   28.9630   46.5340   -0.6950 S   0  0  0  0  0  0  0  0  0  0  0  0
   29.8730   46.9580    0.3410 O   0  0  0  0  0  0  0  0  0  0  0  0
   27.7130   47.2170   -0.9370 O   0  0  0  0  0  0  0  0  0  0  0  0
   29.8490   46.4220   -2.2220 C   0  0  0  0  0  0  0  0  0  0  0  0
   29.2870   45.7340   -3.3000 C   0  0  0  0  0  0  0  0  0  0  0  0
   31.0990   47.0240   -2.3360 C   0  0  0  0  0  0  0  0  0  0  0  0
   29.9880   45.6580   -4.5080 C   0  0  0  0  0  0  0  0  0  0  0  0
   31.7910   46.9440   -3.5440 C   0  0  0  0  0  0  0  0  0  0  0  0
   31.2480   46.2640   -4.6530 C   0  0  0  0  0  0  0  0  0  0  0  0
   32.0290   46.2220   -5.9600 C   0  0  0  0  0  0  0  0  0  0  0  0
   31.4440   45.3600   -6.9140 O   0  0  0  0  0  0  0  0  0  0  0  0
   33.3260   45.7090   -5.7020 O   0  0  0  0  0  0  0  0  0  0  0  0
   32.2120   47.6150   -6.5650 C   0  0  0  0  0  0  0  0  0  0  0  0
   31.7830   48.7840   -5.6750 C   0  0  0  0  0  0  0  0  0  0  0  0
   30.3570   48.7890   -5.1110 C   0  0  0  0  0  0  0  0  0  0  0  0
   29.5810   50.0620   -5.2740 C   0  0  0  0  0  0  0  0  0  0  0  0
   28.6550   50.0920   -6.3960 C   0  0  0  0  0  0  0  0  0  0  0  0
   29.6990   51.1440   -4.4920 C   0  0  0  0  0  0  0  0  0  0  0  0
   28.9130   52.3940   -4.7490 C   0  0  1  0  0  0  0  0  0  0  0  0
   28.1490   51.2300   -6.8830 C   0  0  0  0  0  0  0  0  0  0  0  0
   29.6330   53.6280   -4.2580 C   0  0  0  0  0  0  0  0  0  0  0  0
   28.5610   52.4920   -6.2240 C   0  0  0  0  0  0  0  0  0  0  0  0
   30.3260   53.6760   -3.2400 O   0  0  0  0  0  0  0  0  0  0  0  0
   29.4840   54.8680   -5.0640 C   0  0  0  0  0  0  0  0  0  0  0  0
   28.6000   53.5910   -6.9260 N   0  0  0  0  0  0  0  0  0  0  0  0
   29.8660   56.0590   -4.4800 O   0  0  0  0  0  0  0  0  0  0  0  0
   28.9880   54.7680   -6.3130 C   0  0  0  0  0  0  0  0  0  0  0  0
   28.8120   55.9940   -7.1760 C   0  0  0  0  0  0  0  0  0  0  0  0
  2  1  1  0
  2  3  2  0
  2  4  2  0
  2  5  1  0
  5  6  2  0
  5  7  1  0
  6  8  1  0
  7  9  2  0
  8 10  2  0
  9 10  1  0
 10 11  1  0
 11 12  1  0
 11 13  1  0
 11 14  1  0
 14 15  1  0
 15 16  1  0
 16 17  1  0
 17 18  1  0
 17 19  2  0
 20 19  1  6
 18 21  2  0
 20 22  1  0
 20 23  1  0
 21 23  1  0
 22 24  2  0
 22 25  1  0
 23 26  2  0
 25 27  1  0
 25 28  2  0
 26 28  1  0
 28 29  1  0
M  END
