mac-x0204-mac-x0116
     RDKit          3D

 27 30  0  0  0  0  0  0  0  0999 V2000
   30.8690   44.6130   -5.6660 O   0  0  0  0  0  0  0  0  0  0  0  0
   30.6090   45.9730   -5.3350 C   0  0  0  0  0  0  0  0  0  0  0  0
   29.1920   46.0450   -5.3760 O   0  0  0  0  0  0  0  0  0  0  0  0
   31.2400   46.8600   -6.4380 C   0  0  0  0  0  0  0  0  0  0  0  0
   31.1420   46.2420   -3.9370 C   0  0  0  0  0  0  0  0  0  0  0  0
   30.2740   46.4020   -2.8410 C   0  0  0  0  0  0  0  0  0  0  0  0
   32.5090   46.3390   -3.6770 C   0  0  0  0  0  0  0  0  0  0  0  0
   30.4870   48.0470   -6.8050 N   0  0  0  0  0  0  0  0  0  0  0  0
   30.8020   46.6460   -1.5740 C   0  0  0  0  0  0  0  0  0  0  0  0
   33.0450   46.5760   -2.4510 N   0  0  0  0  0  0  0  0  0  0  0  0
   30.3570   49.1880   -6.0570 C   0  0  0  0  0  0  0  0  0  0  0  0
   29.7820   48.2300   -7.9660 C   0  0  0  0  0  0  0  0  0  0  0  0
   30.0010   46.8070   -0.4820 O   0  0  0  0  0  0  0  0  0  0  0  0
   32.1740   46.7240   -1.4280 C   0  0  0  0  0  0  0  0  0  0  0  0
   30.8860   49.4440   -4.8500 N   0  0  0  0  0  0  0  0  0  0  0  0
   29.5620   50.0260   -6.8190 C   0  0  0  0  0  0  0  0  0  0  0  0
   29.2080   49.4150   -8.0100 N   0  0  0  0  0  0  0  0  0  0  0  0
   30.5400   50.6730   -4.4260 C   0  0  0  0  0  0  0  0  0  0  0  0
   29.2660   51.2930   -6.2760 C   0  0  0  0  0  0  0  0  0  0  0  0
   28.4750   52.2290   -6.9610 N   0  0  0  0  0  0  0  0  0  0  0  0
   29.7780   51.5920   -5.0520 N   0  0  0  0  0  0  0  0  0  0  0  0
   28.8400   53.6170   -6.6570 C   0  0  0  0  0  0  0  0  0  0  0  0
   30.1580   54.0640   -7.2130 C   0  0  0  0  0  0  0  0  0  0  0  0
   31.1110   54.4600   -6.3160 O   0  0  0  0  0  0  0  0  0  0  0  0
   30.6520   54.1730   -8.4960 C   0  0  0  0  0  0  0  0  0  0  0  0
   31.9760   54.6590   -8.3800 C   0  0  0  0  0  0  0  0  0  0  0  0
   32.2070   54.8160   -7.0320 C   0  0  0  0  0  0  0  0  0  0  0  0
  2  1  1  0
  2  3  1  0
  2  4  1  0
  2  5  1  0
  5  6  2  0
  5  7  1  0
  4  8  1  0
  6  9  1  0
  7 10  2  0
  8 11  1  0
  8 12  1  0
  9 13  1  0
  9 14  2  0
 10 14  1  0
 11 15  2  0
 11 16  1  0
 12 17  2  0
 16 17  1  0
 15 18  1  0
 16 19  2  0
 19 20  1  0
 18 21  2  0
 19 21  1  0
 20 22  1  0
 22 23  1  0
 23 24  1  0
 23 25  2  0
 25 26  1  0
 24 27  1  0
 26 27  2  0
M  END
