mac-x0303-mac-x0357
     RDKit          3D

 26 28  0  0  0  0  0  0  0  0999 V2000
   30.5010   56.2840   -6.7850 N   0  0  0  0  0  0  0  0  0  0  0  0
   29.1920   55.9930   -5.7630 S   0  0  0  0  0  0  0  0  0  0  0  0
   28.0040   56.2070   -6.5530 O   0  0  0  0  0  0  0  0  0  0  0  0
   29.4560   56.7240   -4.5430 O   0  0  0  0  0  0  0  0  0  0  0  0
   29.2320   54.2840   -5.3230 C   0  0  0  0  0  0  0  0  0  0  0  0
   29.5660   53.8780   -4.0590 N   0  0  0  0  0  0  0  0  0  0  0  0
   28.9660   53.2470   -6.1060 N   0  0  0  0  0  0  0  0  0  0  0  0
   29.5090   52.5110   -4.0170 C   0  0  0  0  0  0  0  0  0  0  0  0
   29.1310   52.1430   -5.3060 C   0  0  0  0  0  0  0  0  0  0  0  0
   29.7490   51.6020   -2.9910 C   0  0  0  0  0  0  0  0  0  0  0  0
   28.9760   50.7760   -5.6040 C   0  0  0  0  0  0  0  0  0  0  0  0
   29.5890   50.2490   -3.3080 C   0  0  0  0  0  0  0  0  0  0  0  0
   29.2070   49.8270   -4.5880 C   0  0  0  0  0  0  0  0  0  0  0  0
   29.0470   48.3460   -4.8480 C   0  0  0  0  0  0  0  0  0  0  0  0
   30.3000   47.5190   -4.5320 C   0  0  0  0  0  0  0  0  0  0  0  0
   30.6410   46.8020   -5.7430 N   0  0  0  0  0  0  0  0  0  0  0  0
   31.6880   46.0910   -5.9060 C   0  0  0  0  0  0  0  0  0  0  0  0
   31.9460   45.4560   -7.0600 O   0  0  0  0  0  0  0  0  0  0  0  0
   32.7670   45.8420   -4.9090 C   0  0  0  0  0  0  0  0  0  0  0  0
   33.0640   44.5300   -4.4680 C   0  0  0  0  0  0  0  0  0  0  0  0
   33.5010   46.9370   -4.4090 C   0  0  0  0  0  0  0  0  0  0  0  0
   32.2980   43.3410   -4.9790 C   0  0  0  0  0  0  0  0  0  0  0  0
   34.5250   46.7430   -3.4800 C   0  0  0  0  0  0  0  0  0  0  0  0
   34.0990   44.3680   -3.5340 C   0  0  0  0  0  0  0  0  0  0  0  0
   34.4640   43.1390   -3.0460 O   0  0  0  0  0  0  0  0  0  0  0  0
   34.8220   45.4550   -3.0430 C   0  0  0  0  0  0  0  0  0  0  0  0
  2  1  1  0
  2  3  2  0
  2  4  2  0
  2  5  1  0
  5  6  1  0
  5  7  2  0
  6  8  1  0
  7  9  1  0
  8  9  2  0
  8 10  1  0
  9 11  1  0
 10 12  2  0
 11 13  2  0
 12 13  1  0
 13 14  1  0
 14 15  1  0
 15 16  1  0
 16 17  2  3
 17 18  1  0
 17 19  1  0
 19 20  2  0
 19 21  1  0
 20 22  1  0
 21 23  2  0
 20 24  1  0
 24 25  1  0
 23 26  1  0
 24 26  2  0
M  END
