mac-x0116-mac-x0284
     RDKit          3D

 20 22  0  0  0  0  0  0  0  0999 V2000
   29.5050   52.9180   -5.8200 C   0  0  0  0  0  0  0  0  0  0  0  0
   28.9070   51.7620   -6.4760 N   0  0  0  0  0  0  0  0  0  0  0  0
   29.2510   50.4310   -6.2160 C   0  0  0  0  0  0  0  0  0  0  0  0
   30.6360   53.5560   -6.5570 C   0  0  0  0  0  0  0  0  0  0  0  0
   31.8900   53.3710   -6.0420 O   0  0  0  0  0  0  0  0  0  0  0  0
   30.7110   54.3300   -7.6990 C   0  0  0  0  0  0  0  0  0  0  0  0
   32.0820   54.6340   -7.8900 C   0  0  0  0  0  0  0  0  0  0  0  0
   32.7560   54.0270   -6.8560 C   0  0  0  0  0  0  0  0  0  0  0  0
   29.4320   49.9630   -4.8970 N   0  0  0  0  0  0  0  0  0  0  0  0
   29.3880   49.6030   -7.2820 C   0  0  0  0  0  0  0  0  0  0  0  0
   29.7640   48.6890   -4.7440 C   0  0  0  0  0  0  0  0  0  0  0  0
   29.7480   48.2080   -7.0460 C   0  0  0  0  0  0  0  0  0  0  0  0
   29.2560   49.7660   -8.6350 N   0  0  0  0  0  0  0  0  0  0  0  0
   29.9490   48.0900   -3.3670 C   0  0  0  0  0  0  0  0  0  0  0  0
   29.9510   47.8190   -5.7720 N   0  0  0  0  0  0  0  0  0  0  0  0
   29.8050   47.5780   -8.1730 N   0  0  0  0  0  0  0  0  0  0  0  0
   29.4980   48.5720   -9.0960 C   0  0  0  0  0  0  0  0  0  0  0  0
   30.8280   46.7600   -5.5460 O   0  0  0  0  0  0  0  0  0  0  0  0
   29.0480   47.9000   -2.5880 O   0  0  0  0  0  0  0  0  0  0  0  0
   31.2250   47.7650   -3.1250 O   0  0  0  0  0  0  0  0  0  0  0  0
  1  2  1  0
  2  3  1  0
  1  4  1  0
  4  5  1  0
  4  6  2  0
  6  7  1  0
  5  8  1  0
  7  8  2  0
  3  9  1  0
  3 10  2  0
  9 11  2  0
 10 12  1  0
 10 13  1  0
 11 14  1  0
 11 15  1  0
 12 15  1  0
 12 16  2  0
 13 17  2  0
 16 17  1  0
 15 18  1  0
 14 19  2  0
 14 20  1  0
M  END
