mac-x0588-mac-x0433
     RDKit          3D

 24 27  0  0  0  0  0  0  0  0999 V2000
   28.7070   51.2810   -6.0990 N   0  0  0  0  0  0  0  0  0  0  0  0
   28.8400   49.9070   -5.5900 C   0  0  1  0  0  0  0  0  0  0  0  0
   29.3060   48.9930   -6.7570 C   0  0  1  0  0  0  0  0  0  0  0  0
   29.0500   52.2990   -5.2060 C   0  0  0  0  0  0  0  0  0  0  0  0
   29.7920   49.6790   -4.4940 N   0  0  0  0  0  0  0  0  0  0  0  0
   29.2050   51.9350   -3.9250 N   0  0  0  0  0  0  0  0  0  0  0  0
   29.2200   53.6010   -5.6230 C   0  0  0  0  0  0  0  0  0  0  0  0
   29.7830   48.2850   -4.0290 C   0  0  0  0  0  0  0  0  0  0  0  0
   29.2050   47.5920   -6.2440 C   0  0  2  0  0  0  0  0  0  0  0  0
   28.4770   48.8790   -7.9810 N   0  0  0  0  0  0  0  0  0  0  0  0
   29.5360   52.8910   -3.0540 C   0  0  0  0  0  0  0  0  0  0  0  0
   29.5610   54.5200   -4.6510 C   0  0  0  0  0  0  0  0  0  0  0  0
   29.7660   55.9580   -5.0140 C   0  0  0  0  0  0  0  0  0  0  0  0
   29.6980   52.5230   -1.7350 N   0  0  0  0  0  0  0  0  0  0  0  0
   30.0020   47.3130   -5.0830 N   0  0  0  0  0  0  0  0  0  0  0  0
   29.6470   46.8910   -7.4460 N   0  0  0  0  0  0  0  0  0  0  0  0
   28.8770   47.5680   -8.4970 C   0  0  0  0  0  0  0  0  0  0  0  0
   29.7220   54.1760   -3.3600 N   0  0  0  0  0  0  0  0  0  0  0  0
   30.0520   45.9040   -4.6870 C   0  0  0  0  0  0  0  0  0  0  0  0
   29.8070   45.4280   -3.2350 C   0  0  1  0  0  0  0  0  0  0  0  0
   29.0030   46.3340   -2.4610 O   0  0  0  0  0  0  0  0  0  0  0  0
   29.2110   44.0430   -3.0620 C   0  0  0  0  0  0  0  0  0  0  0  0
   28.6430   44.1300   -1.6660 C   0  0  0  0  0  0  0  0  0  0  0  0
   28.1420   45.5540   -1.6140 C   0  0  0  0  0  0  0  0  0  0  0  0
  2  1  1  6
  2  3  1  0
  1  4  1  0
  2  5  1  0
  4  6  2  0
  4  7  1  0
  5  8  1  0
  3  9  1  0
  3 10  1  6
  6 11  1  0
  7 12  2  0
 12 13  1  0
 11 14  1  0
  8 15  1  0
  9 15  1  0
  9 16  1  6
 10 17  1  0
 16 17  1  0
 11 18  2  0
 12 18  1  0
 15 19  1  0
 20 19  1  6
 20 21  1  0
 20 22  1  0
 22 23  1  0
 21 24  1  0
 23 24  1  0
M  END
