mac-x0411-mac-x0178
     RDKit          3D

 24 25  0  0  0  0  0  0  0  0999 V2000
   37.3150   43.9220   -3.0560 Cl  0  0  0  0  0  0  0  0  0  0  0  0
   36.7230   45.5400   -2.9690 C   0  0  0  0  0  0  0  0  0  0  0  0
   35.6850   45.9870   -3.7970 C   0  0  0  0  0  0  0  0  0  0  0  0
   37.3100   46.4090   -2.0450 C   0  0  0  0  0  0  0  0  0  0  0  0
   35.1110   45.1300   -4.7110 O   0  0  0  0  0  0  0  0  0  0  0  0
   35.2450   47.3160   -3.6830 C   0  0  0  0  0  0  0  0  0  0  0  0
   36.8660   47.7250   -1.9400 C   0  0  0  0  0  0  0  0  0  0  0  0
   33.9760   47.9490   -4.6630 Cl  0  0  0  0  0  0  0  0  0  0  0  0
   33.7030   44.9900   -4.5010 C   0  0  0  0  0  0  0  0  0  0  0  0
   35.8350   48.1780   -2.7580 C   0  0  0  0  0  0  0  0  0  0  0  0
   33.0460   45.0520   -5.8550 C   0  0  0  0  0  0  0  0  0  0  0  0
   31.6360   45.5750   -5.8590 C   0  0  0  0  0  0  0  0  0  0  0  0
   33.5650   44.7140   -6.9140 O   0  0  0  0  0  0  0  0  0  0  0  0
   31.0890   45.7380   -6.9450 O   0  0  0  0  0  0  0  0  0  0  0  0
   30.9580   45.8720   -4.5670 C   0  0  0  0  0  0  0  0  0  0  0  0
   30.0520   44.9270   -4.0670 C   0  0  0  0  0  0  0  0  0  0  0  0
   31.2000   47.0500   -3.8460 C   0  0  0  0  0  0  0  0  0  0  0  0
   29.3890   45.1500   -2.8570 C   0  0  0  0  0  0  0  0  0  0  0  0
   30.5380   47.2770   -2.6330 C   0  0  0  0  0  0  0  0  0  0  0  0
   29.6400   46.3280   -2.1470 C   0  0  0  0  0  0  0  0  0  0  0  0
   28.8060   46.6280   -0.6060 S   0  0  0  0  0  0  0  0  0  0  0  0
   28.3490   45.0680   -0.1580 N   0  0  0  0  0  0  0  0  0  0  0  0
   29.7770   47.0970    0.3560 O   0  0  0  0  0  0  0  0  0  0  0  0
   27.5780   47.3350   -0.8810 O   0  0  0  0  0  0  0  0  0  0  0  0
  1  2  1  0
  2  3  2  0
  2  4  1  0
  3  5  1  0
  3  6  1  0
  4  7  2  0
  6  8  1  0
  5  9  1  0
  6 10  2  0
  7 10  1  0
  9 11  1  0
 11 12  1  0
 11 13  2  0
 12 14  2  0
 12 15  1  0
 15 16  2  0
 15 17  1  0
 16 18  1  0
 17 19  2  0
 18 20  2  0
 19 20  1  0
 20 21  1  0
 21 22  1  0
 21 23  2  0
 21 24  2  0
M  END
