mac-x0306-mac-x0179
     RDKit          3D

 29 32  0  0  0  0  0  0  0  0999 V2000
   31.7730   45.6660   -5.5650 O   0  0  0  0  0  0  0  0  0  0  0  0
   32.9170   45.7900   -4.8330 C   0  0  0  0  0  0  0  0  0  0  0  0
   34.0130   46.0500   -5.3130 O   0  0  0  0  0  0  0  0  0  0  0  0
   30.5040   45.8500   -4.9160 C   0  0  0  0  0  0  0  0  0  0  0  0
   32.7040   45.5670   -3.3380 C   0  0  0  0  0  0  0  0  0  0  0  0
   30.0090   47.2500   -5.2550 C   0  0  0  0  0  0  0  0  0  0  0  0
   29.6960   48.0530   -3.9880 C   0  0  0  0  0  0  0  0  0  0  0  0
   33.9080   45.7810   -2.5600 N   0  0  0  0  0  0  0  0  0  0  0  0
   29.6590   49.4950   -4.2880 N   0  0  0  0  0  0  0  0  0  0  0  0
   34.6720   44.7780   -2.0300 C   0  0  0  0  0  0  0  0  0  0  0  0
   34.5130   46.9990   -2.4380 C   0  0  0  0  0  0  0  0  0  0  0  0
   34.4230   43.5900   -1.9580 O   0  0  0  0  0  0  0  0  0  0  0  0
   34.1040   48.0890   -2.7790 O   0  0  0  0  0  0  0  0  0  0  0  0
   30.0210   50.4410   -3.3350 C   0  0  0  0  0  0  0  0  0  0  0  0
   29.4220   49.9590   -5.5770 C   0  0  0  0  0  0  0  0  0  0  0  0
   35.9020   45.4060   -1.5430 C   0  0  0  0  0  0  0  0  0  0  0  0
   35.8040   46.7650   -1.7940 C   0  0  0  0  0  0  0  0  0  0  0  0
   29.6850   51.7340   -3.4590 C   0  0  0  0  0  0  0  0  0  0  0  0
   29.0550   51.2270   -5.8200 C   0  0  0  0  0  0  0  0  0  0  0  0
   37.0160   44.8570   -0.9360 C   0  0  0  0  0  0  0  0  0  0  0  0
   36.8080   47.6480   -1.4540 C   0  0  0  0  0  0  0  0  0  0  0  0
   28.8820   52.1950   -4.6620 C   0  0  0  0  0  0  0  0  0  0  0  0
   38.0480   45.7330   -0.5810 C   0  0  0  0  0  0  0  0  0  0  0  0
   37.9470   47.1170   -0.8360 C   0  0  0  0  0  0  0  0  0  0  0  0
   29.1250   53.6380   -5.0260 C   0  0  0  0  0  0  0  0  0  0  0  0
   28.7730   54.1440   -6.2560 N   0  0  0  0  0  0  0  0  0  0  0  0
   29.6700   54.5790   -4.2730 N   0  0  0  0  0  0  0  0  0  0  0  0
   29.6630   55.7130   -5.0420 C   0  0  0  0  0  0  0  0  0  0  0  0
   29.1110   55.4670   -6.2760 C   0  0  0  0  0  0  0  0  0  0  0  0
  1  2  1  0
  2  3  2  0
  1  4  1  0
  2  5  1  0
  4  6  1  0
  6  7  1  0
  5  8  1  0
  7  9  1  0
  8 10  1  0
  8 11  1  0
 10 12  2  0
 11 13  2  0
  9 14  1  0
  9 15  1  0
 10 16  1  0
 11 17  1  0
 16 17  2  0
 14 18  2  0
 15 19  2  0
 16 20  1  0
 17 21  1  0
 18 22  1  0
 19 22  1  0
 20 23  2  0
 21 24  2  0
 23 24  1  0
 22 25  1  0
 25 26  1  0
 25 27  2  0
 27 28  1  0
 26 29  1  0
 28 29  2  0
M  END
