mac-x0436-mac-x0282
     RDKit          3D

 26 29  0  0  0  0  0  0  0  0999 V2000
   32.9970   45.5670   -6.9940 O   0  0  0  0  0  0  0  0  0  0  0  0
   32.0990   45.0860   -6.1200 C   0  0  0  0  0  0  0  0  0  0  0  0
   30.8640   45.2210   -6.4270 N   0  0  0  0  0  0  0  0  0  0  0  0
   32.7320   44.4620   -4.9100 C   0  0  0  0  0  0  0  0  0  0  0  0
   32.6050   45.3810   -3.7000 C   0  0  0  0  0  0  0  0  0  0  0  0
   30.4740   45.8760   -7.6710 C   0  0  0  0  0  0  0  0  0  0  0  0
   33.9420   46.0060   -3.3840 C   0  0  0  0  0  0  0  0  0  0  0  0
   29.8860   47.2470   -7.4280 C   0  0  0  0  0  0  0  0  0  0  0  0
   34.0590   47.5280   -3.4760 C   0  0  0  0  0  0  0  0  0  0  0  0
   34.9400   45.2400   -3.0520 N   0  0  0  0  0  0  0  0  0  0  0  0
   30.0240   47.9000   -6.1930 C   0  0  0  0  0  0  0  0  0  0  0  0
   29.1820   47.9060   -8.4400 C   0  0  0  0  0  0  0  0  0  0  0  0
   33.0700   48.2270   -3.6370 O   0  0  0  0  0  0  0  0  0  0  0  0
   35.3290   48.0300   -3.3630 N   0  0  0  0  0  0  0  0  0  0  0  0
   36.1750   45.8480   -2.7740 C   0  0  0  0  0  0  0  0  0  0  0  0
   29.4500   49.1750   -6.0490 C   0  0  0  0  0  0  0  0  0  0  0  0
   28.6090   49.1340   -8.3550 N   0  0  0  0  0  0  0  0  0  0  0  0
   36.3850   47.2270   -2.9240 C   0  0  0  0  0  0  0  0  0  0  0  0
   37.2340   45.0510   -2.3330 C   0  0  0  0  0  0  0  0  0  0  0  0
   29.3620   50.1410   -5.0110 C   0  0  0  0  0  0  0  0  0  0  0  0
   28.7810   49.7020   -7.1470 C   0  0  0  0  0  0  0  0  0  0  0  0
   38.4760   45.6190   -2.0480 C   0  0  0  0  0  0  0  0  0  0  0  0
   37.6220   47.8030   -2.6420 C   0  0  0  0  0  0  0  0  0  0  0  0
   28.6510   51.2180   -5.5010 C   0  0  0  0  0  0  0  0  0  0  0  0
   28.3050   50.9360   -6.7990 N   0  0  0  0  0  0  0  0  0  0  0  0
   38.6710   46.9950   -2.2030 C   0  0  0  0  0  0  0  0  0  0  0  0
  1  2  1  0
  2  3  2  3
  2  4  1  0
  4  5  1  0
  3  6  1  0
  5  7  1  0
  6  8  1  0
  7  9  1  0
  7 10  2  0
  8 11  2  0
  8 12  1  0
  9 13  2  0
  9 14  1  0
 10 15  1  0
 11 16  1  0
 12 17  2  0
 14 18  1  0
 15 18  2  0
 15 19  1  0
 16 20  1  0
 16 21  2  0
 17 21  1  0
 19 22  2  0
 18 23  1  0
 20 24  2  0
 21 25  1  0
 24 25  1  0
 22 26  1  0
 23 26  2  0
M  END
