mac-x0387-mac-x0436
     RDKit          3D

 28 31  0  0  0  0  0  0  0  0999 V2000
   27.8180   51.7320   -7.0150 N   0  0  0  0  0  0  0  0  0  0  0  0
   28.1120   50.3620   -7.1190 C   0  0  0  0  0  0  0  0  0  0  0  0
   27.4810   49.7080   -8.1120 N   0  0  0  0  0  0  0  0  0  0  0  0
   29.0160   49.7310   -6.2300 C   0  0  0  0  0  0  0  0  0  0  0  0
   29.2510   48.3510   -6.4120 C   0  0  0  0  0  0  0  0  0  0  0  0
   27.7300   48.3930   -8.2550 C   0  0  0  0  0  0  0  0  0  0  0  0
   29.6980   50.3880   -5.1770 C   0  0  0  0  0  0  0  0  0  0  0  0
   28.5920   47.6800   -7.4460 C   0  0  0  0  0  0  0  0  0  0  0  0
   30.1400   47.6700   -5.5610 C   0  0  0  0  0  0  0  0  0  0  0  0
   30.5770   49.6990   -4.3400 C   0  0  0  0  0  0  0  0  0  0  0  0
   30.8090   48.3330   -4.5220 C   0  0  0  0  0  0  0  0  0  0  0  0
   31.7560   47.5740   -3.6220 C   0  0  0  0  0  0  0  0  0  0  0  0
   33.0460   48.2350   -3.4080 N   0  0  0  0  0  0  0  0  0  0  0  0
   34.1850   47.6200   -3.4950 C   0  0  0  0  0  0  0  0  0  0  0  0
   34.2100   46.1080   -3.8440 C   0  0  0  0  0  0  0  0  0  0  0  0
   35.4310   48.1600   -3.2940 N   0  0  0  0  0  0  0  0  0  0  0  0
   33.0950   45.4750   -4.6480 C   0  0  0  0  0  0  0  0  0  0  0  0
   36.3780   47.3580   -2.6380 C   0  0  0  0  0  0  0  0  0  0  0  0
   35.2060   45.3560   -3.4610 N   0  0  0  0  0  0  0  0  0  0  0  0
   33.5960   44.1760   -5.2690 C   0  0  0  0  0  0  0  0  0  0  0  0
   36.2490   45.9580   -2.7300 C   0  0  0  0  0  0  0  0  0  0  0  0
   37.4280   47.9170   -1.9050 C   0  0  0  0  0  0  0  0  0  0  0  0
   32.6540   43.6480   -6.3240 C   0  0  0  0  0  0  0  0  0  0  0  0
   37.1790   45.1430   -2.0820 C   0  0  0  0  0  0  0  0  0  0  0  0
   38.3510   47.0900   -1.2630 C   0  0  0  0  0  0  0  0  0  0  0  0
   33.0530   43.9720   -7.5780 O   0  0  0  0  0  0  0  0  0  0  0  0
   31.6450   42.9940   -6.1120 O   0  0  0  0  0  0  0  0  0  0  0  0
   38.2250   45.7030   -1.3510 C   0  0  0  0  0  0  0  0  0  0  0  0
  1  2  1  0
  2  3  2  0
  2  4  1  0
  4  5  2  0
  3  6  1  0
  4  7  1  0
  5  8  1  0
  6  8  2  0
  5  9  1  0
  7 10  2  0
  9 11  2  0
 10 11  1  0
 11 12  1  0
 12 13  1  0
 13 14  2  3
 14 15  1  0
 14 16  1  0
 15 17  1  0
 16 18  1  0
 15 19  2  0
 17 20  1  0
 18 21  2  0
 19 21  1  0
 18 22  1  0
 20 23  1  0
 21 24  1  0
 22 25  2  0
 23 26  1  0
 23 27  2  0
 24 28  2  0
 25 28  1  0
M  END
