mac-x0415-mac-x0365
     RDKit          3D

 26 28  0  0  0  0  0  0  0  0999 V2000
   32.7170   44.3690   -6.5730 O   0  0  0  0  0  0  0  0  0  0  0  0
   32.0750   45.3050   -5.8450 C   0  0  0  0  0  0  0  0  0  0  0  0
   31.3300   46.1260   -6.4890 N   0  0  0  0  0  0  0  0  0  0  0  0
   32.3500   45.2300   -4.3560 C   0  0  0  0  0  0  0  0  0  0  0  0
   30.6010   47.1680   -5.7710 C   0  0  0  0  0  0  0  0  0  0  0  0
   31.1370   44.8090   -3.6110 C   0  0  0  0  0  0  0  0  0  0  0  0
   30.6150   48.4770   -6.3630 O   0  0  0  0  0  0  0  0  0  0  0  0
   30.1320   43.8290   -4.0690 C   0  0  0  0  0  0  0  0  0  0  0  0
   30.6170   45.1540   -2.4340 C   0  0  0  0  0  0  0  0  0  0  0  0
   31.2650   49.3950   -5.6000 C   0  0  0  0  0  0  0  0  0  0  0  0
   29.1080   43.5760   -3.3040 N   0  0  0  0  0  0  0  0  0  0  0  0
   29.3520   44.4240   -2.1240 C   0  0  2  0  0  0  0  0  0  0  0  0
   31.0560   46.0990   -1.4380 C   0  0  0  0  0  0  0  0  0  0  0  0
   32.4290   49.3210   -5.2350 O   0  0  0  0  0  0  0  0  0  0  0  0
   28.2960   45.4330   -1.7880 C   0  0  0  0  0  0  0  0  0  0  0  0
   30.0850   46.7980   -0.8050 C   0  0  0  0  0  0  0  0  0  0  0  0
   30.3840   50.5430   -5.2500 C   0  0  0  0  0  0  0  0  0  0  0  0
   30.4720   48.0630    0.5140 Br  0  0  0  0  0  0  0  0  0  0  0  0
   28.6750   46.5670   -1.1520 C   0  0  0  0  0  0  0  0  0  0  0  0
   30.3830   51.1320   -3.9740 C   0  0  0  0  0  0  0  0  0  0  0  0
   29.5220   51.0470   -6.2430 C   0  0  0  0  0  0  0  0  0  0  0  0
   29.5320   52.2050   -3.7100 C   0  0  0  0  0  0  0  0  0  0  0  0
   28.6700   52.1240   -5.9740 C   0  0  0  0  0  0  0  0  0  0  0  0
   29.5460   52.7570   -2.4840 F   0  0  0  0  0  0  0  0  0  0  0  0
   28.6800   52.7000   -4.7020 C   0  0  0  0  0  0  0  0  0  0  0  0
   27.8630   53.7530   -4.3990 O   0  0  0  0  0  0  0  0  0  0  0  0
  1  2  1  0
  2  3  2  3
  2  4  1  0
  3  5  1  0
  4  6  1  0
  5  7  1  0
  6  8  1  0
  6  9  2  0
  7 10  1  0
  8 11  2  0
  9 12  1  0
 11 12  1  0
  9 13  1  0
 10 14  2  0
 12 15  1  6
 13 16  2  0
 10 17  1  0
 16 18  1  0
 15 19  2  0
 16 19  1  0
 17 20  2  0
 17 21  1  0
 20 22  1  0
 21 23  2  0
 22 24  1  0
 22 25  2  0
 23 25  1  0
 25 26  1  0
M  END
