mac-x0588-mac-x0284
     RDKit          3D

 19 21  0  0  0  0  0  0  0  0999 V2000
   28.6470   51.8100   -6.0480 N   0  0  0  0  0  0  0  0  0  0  0  0
   28.5870   50.5020   -5.4130 C   0  0  1  0  0  0  0  0  0  0  0  0
   28.3600   49.3660   -6.4520 C   0  0  2  0  0  0  0  0  0  0  0  0
   29.8740   50.4090   -4.7790 N   0  0  0  0  0  0  0  0  0  0  0  0
   30.0680   49.1180   -4.1720 C   0  0  2  0  0  0  0  0  0  0  0  0
   28.7690   47.9940   -5.9100 C   0  0  2  0  0  0  0  0  0  0  0  0
   29.1780   49.5020   -7.6790 N   0  0  0  0  0  0  0  0  0  0  0  0
   31.3540   49.1580   -3.6040 O   0  0  0  0  0  0  0  0  0  0  0  0
   29.9660   47.9800   -5.0710 N   0  0  0  0  0  0  0  0  0  0  0  0
   28.9440   47.2090   -7.1340 N   0  0  0  0  0  0  0  0  0  0  0  0
   29.3310   48.1480   -8.1850 C   0  0  0  0  0  0  0  0  0  0  0  0
   30.2300   46.6980   -4.3360 C   0  0  2  0  0  0  0  0  0  0  0  0
   30.8920   45.6630   -5.2500 C   0  0  0  0  0  0  0  0  0  0  0  0
   29.0030   46.0280   -3.6500 C   0  0  2  0  0  0  0  0  0  0  0  0
   30.5170   44.4920   -5.3460 O   0  0  0  0  0  0  0  0  0  0  0  0
   28.7000   46.6890   -2.4020 O   0  0  0  0  0  0  0  0  0  0  0  0
   29.1190   44.5370   -3.3150 C   0  0  0  0  0  0  0  0  0  0  0  0
   28.6830   44.4220   -1.8690 C   0  0  0  0  0  0  0  0  0  0  0  0
   27.9990   45.7390   -1.5940 C   0  0  0  0  0  0  0  0  0  0  0  0
  2  1  1  6
  2  3  1  0
  2  4  1  0
  4  5  1  0
  3  6  1  0
  3  7  1  6
  5  8  1  6
  5  9  1  0
  6  9  1  0
  6 10  1  6
  7 11  1  0
 10 11  1  0
  9 12  1  0
 12 13  1  6
 12 14  1  0
 13 15  2  0
 14 16  1  0
 14 17  1  1
 17 18  1  0
 16 19  1  0
 18 19  1  0
M  END
