mac-x0337-mac-x0555
     RDKit          3D

 22 24  0  0  0  0  0  0  0  0999 V2000
   35.0880   52.4750   -4.9510 C   0  0  0  0  0  0  0  0  0  0  0  0
   33.8260   51.7270   -5.2660 C   0  0  0  0  0  0  0  0  0  0  0  0
   32.7430   52.3790   -5.8690 C   0  0  0  0  0  0  0  0  0  0  0  0
   33.7200   50.3640   -4.9580 C   0  0  0  0  0  0  0  0  0  0  0  0
   32.5520   49.6590   -5.2470 C   0  0  0  0  0  0  0  0  0  0  0  0
   31.5710   51.6800   -6.1630 C   0  0  0  0  0  0  0  0  0  0  0  0
   31.4790   50.3180   -5.8510 C   0  0  0  0  0  0  0  0  0  0  0  0
   29.9860   49.4170   -6.2240 S   0  0  0  0  0  0  0  0  0  0  0  0
   29.9200   48.2750   -5.3360 O   0  0  0  0  0  0  0  0  0  0  0  0
   29.8780   49.2770   -7.6580 O   0  0  0  0  0  0  0  0  0  0  0  0
   28.7980   50.5100   -5.7820 N   0  0  0  0  0  0  0  0  0  0  0  0
   29.1170   51.2110   -4.6050 C   0  0  0  0  0  0  0  0  0  0  0  0
   29.2840   52.6100   -4.6030 C   0  0  0  0  0  0  0  0  0  0  0  0
   29.2710   50.4540   -3.4500 C   0  0  0  0  0  0  0  0  0  0  0  0
   29.1420   53.4330   -5.7460 C   0  0  0  0  0  0  0  0  0  0  0  0
   29.6150   53.2390   -3.3910 C   0  0  0  0  0  0  0  0  0  0  0  0
   29.5960   51.0820   -2.2630 C   0  0  0  0  0  0  0  0  0  0  0  0
   29.3250   54.8090   -5.6610 C   0  0  0  0  0  0  0  0  0  0  0  0
   29.7950   54.5640   -3.2900 N   0  0  0  0  0  0  0  0  0  0  0  0
   29.7640   52.4650   -2.2470 C   0  0  0  0  0  0  0  0  0  0  0  0
   29.1840   55.6260   -6.7890 N   0  0  0  0  0  0  0  0  0  0  0  0
   29.6490   55.3090   -4.4110 C   0  0  0  0  0  0  0  0  0  0  0  0
  1  2  1  0
  2  3  2  0
  2  4  1  0
  4  5  2  0
  3  6  1  0
  5  7  1  0
  6  7  2  0
  7  8  1  0
  8  9  2  0
  8 10  2  0
  8 11  1  0
 11 12  1  0
 12 13  1  0
 12 14  2  0
 13 15  2  0
 13 16  1  0
 14 17  1  0
 15 18  1  0
 16 19  2  0
 16 20  1  0
 17 20  2  0
 18 21  1  0
 18 22  2  0
 19 22  1  0
M  END
