mac-x0565-mac-x0115
     RDKit          3D

 28 31  0  0  0  0  0  0  0  0999 V2000
   27.3940   51.8550   -4.5790 O   0  0  0  0  0  0  0  0  0  0  0  0
   28.0280   51.7800   -3.3960 C   0  0  0  0  0  0  0  0  0  0  0  0
   27.6680   52.4450   -2.4410 O   0  0  0  0  0  0  0  0  0  0  0  0
   29.1670   50.8230   -3.4110 C   0  0  0  0  0  0  0  0  0  0  0  0
   29.5680   50.1640   -4.5850 C   0  0  0  0  0  0  0  0  0  0  0  0
   29.8480   50.5890   -2.1980 C   0  0  0  0  0  0  0  0  0  0  0  0
   30.6440   49.2890   -4.5150 C   0  0  0  0  0  0  0  0  0  0  0  0
   30.9280   49.7040   -2.1450 C   0  0  0  0  0  0  0  0  0  0  0  0
   31.3060   49.0690   -3.3130 C   0  0  0  0  0  0  0  0  0  0  0  0
   31.2920   48.4620   -5.5680 C   0  0  1  0  0  0  0  0  0  0  0  0
   32.3460   48.1830   -3.3930 O   0  0  0  0  0  0  0  0  0  0  0  0
   32.5170   47.9300   -4.8150 C   0  0  0  0  0  0  0  0  0  0  0  0
   30.4570   47.5160   -6.3970 C   0  0  0  0  0  0  0  0  0  0  0  0
   31.7570   49.3310   -6.7180 C   0  0  0  0  0  0  0  0  0  0  0  0
   29.7020   46.4100   -5.9900 N   0  0  0  0  0  0  0  0  0  0  0  0
   30.5470   47.9100   -7.6760 C   0  0  0  0  0  0  0  0  0  0  0  0
   31.3310   49.0110   -7.9010 N   0  0  0  0  0  0  0  0  0  0  0  0
   29.3900   46.2240   -4.5520 C   0  0  0  0  0  0  0  0  0  0  0  0
   29.0630   45.6180   -6.9700 C   0  0  0  0  0  0  0  0  0  0  0  0
   29.8250   47.1650   -8.7290 C   0  0  0  0  0  0  0  0  0  0  0  0
   29.2970   44.7480   -4.1290 C   0  0  0  0  0  0  0  0  0  0  0  0
   29.8470   47.4610   -9.9170 O   0  0  0  0  0  0  0  0  0  0  0  0
   28.2520   44.1660   -6.7490 S   0  0  0  0  0  0  0  0  0  0  0  0
   29.1090   46.0930   -8.2620 N   0  0  0  0  0  0  0  0  0  0  0  0
   29.6290   44.6420   -2.7420 O   0  0  0  0  0  0  0  0  0  0  0  0
   28.5100   44.7890   -1.8580 C   0  0  0  0  0  0  0  0  0  0  0  0
   27.9130   46.1870   -1.9710 C   0  0  0  0  0  0  0  0  0  0  0  0
   27.4830   43.7340   -2.2570 C   0  0  0  0  0  0  0  0  0  0  0  0
  1  2  1  0
  2  3  2  0
  2  4  1  0
  4  5  2  0
  4  6  1  0
  5  7  1  0
  6  8  2  0
  7  9  2  0
  8  9  1  0
  7 10  1  0
  9 11  1  0
 10 12  1  1
 11 12  1  0
 10 13  1  0
 10 14  1  0
 13 15  1  0
 13 16  2  0
 14 17  2  0
 16 17  1  0
 15 18  1  0
 15 19  1  0
 16 20  1  0
 18 21  1  0
 20 22  2  0
 19 23  2  0
 19 24  1  0
 20 24  1  0
 21 25  1  0
 25 26  1  0
 26 27  1  0
 26 28  1  0
M  END
