mac-x0587-mac-x0263
     RDKit          3D

 28 30  0  0  0  0  0  0  0  0999 V2000
   29.4520   45.7170   -3.4970 C   0  0  0  0  0  0  0  0  0  0  0  0
   30.5200   46.6470   -4.0590 C   0  0  2  0  0  0  0  0  0  0  0  0
   32.2040   46.0500   -3.6040 S   0  0  0  0  0  0  0  0  0  0  0  0
   30.3390   48.1510   -3.7570 C   0  0  0  0  0  0  0  0  0  0  0  0
   33.2000   46.7500   -4.9830 C   0  0  0  0  0  0  0  0  0  0  0  0
   30.5150   48.5100   -2.5870 O   0  0  0  0  0  0  0  0  0  0  0  0
   29.9900   49.0350   -4.7690 N   0  0  0  0  0  0  0  0  0  0  0  0
   33.2310   45.8670   -6.2210 C   0  0  0  0  0  0  0  0  0  0  0  0
   30.2370   50.4670   -4.9120 C   0  0  0  0  0  0  0  0  0  0  0  0
   29.1070   48.7140   -5.8070 C   0  0  0  0  0  0  0  0  0  0  0  0
   34.2620   45.5800   -6.8090 O   0  0  0  0  0  0  0  0  0  0  0  0
   32.0240   45.4170   -6.6420 O   0  0  0  0  0  0  0  0  0  0  0  0
   28.9840   47.6760   -6.4320 O   0  0  0  0  0  0  0  0  0  0  0  0
   28.8960   51.0250   -5.4500 C   0  0  1  0  0  0  0  0  0  0  0  0
   28.3230   49.8490   -6.0480 N   0  0  0  0  0  0  0  0  0  0  0  0
   28.1170   51.4790   -4.2320 C   0  0  0  0  0  0  0  0  0  0  0  0
   29.0220   52.1180   -6.4970 C   0  0  0  0  0  0  0  0  0  0  0  0
   28.6620   53.3890   -6.2450 C   0  0  0  0  0  0  0  0  0  0  0  0
   27.7600   52.7510   -3.9800 C   0  0  0  0  0  0  0  0  0  0  0  0
   28.1090   53.7860   -4.9560 C   0  0  0  0  0  0  0  0  0  0  0  0
   28.7430   54.5180   -7.0160 N   0  0  0  0  0  0  0  0  0  0  0  0
   28.4010   55.4730   -6.1840 C   0  0  0  0  0  0  0  0  0  0  0  0
   28.0100   55.0800   -4.9090 N   0  0  0  0  0  0  0  0  0  0  0  0
   28.3720   56.9380   -6.5380 C   0  0  0  0  0  0  0  0  0  0  0  0
   27.1890   57.6270   -5.8690 C   0  0  0  0  0  0  0  0  0  0  0  0
   26.9710   59.0440   -6.3580 C   0  0  0  0  0  0  0  0  0  0  0  0
   28.0980   59.7850   -6.4330 O   0  0  0  0  0  0  0  0  0  0  0  0
   25.8750   59.4950   -6.6560 O   0  0  0  0  0  0  0  0  0  0  0  0
  2  1  1  1
  2  3  1  0
  2  4  1  0
  3  5  1  0
  4  6  2  0
  4  7  1  0
  5  8  1  0
  7  9  1  0
  7 10  1  0
  8 11  2  0
  8 12  1  0
 10 13  2  0
 14  9  1  1
 10 15  1  0
 14 15  1  0
 14 16  1  0
 14 17  1  0
 17 18  2  0
 16 19  2  0
 18 20  1  0
 19 20  1  0
 18 21  1  0
 21 22  2  0
 20 23  2  0
 22 23  1  0
 22 24  1  0
 24 25  1  0
 25 26  1  0
 26 27  1  0
 26 28  2  0
M  END
