mac-x0302-mac-x0404
     RDKit          3D

 26 28  0  0  0  0  0  0  0  0999 V2000
   31.2280   45.2670   -4.2610 N   0  0  0  0  0  0  0  0  0  0  0  0
   31.2060   46.3770   -5.2260 C   0  0  0  0  0  0  0  0  0  0  0  0
   30.0740   46.2510   -6.0580 O   0  0  0  0  0  0  0  0  0  0  0  0
   32.2400   44.2220   -4.4690 C   0  0  0  0  0  0  0  0  0  0  0  0
   30.9760   45.5100   -2.8970 C   0  0  0  0  0  0  0  0  0  0  0  0
   31.4130   47.8330   -4.6550 C   0  0  0  0  0  0  0  0  0  0  0  0
   32.3370   46.1430   -6.0490 O   0  0  0  0  0  0  0  0  0  0  0  0
   29.7600   45.2030   -2.2030 C   0  0  0  0  0  0  0  0  0  0  0  0
   32.0360   46.1070   -2.1890 C   0  0  0  0  0  0  0  0  0  0  0  0
   30.8520   48.9470   -5.4230 N   0  0  0  0  0  0  0  0  0  0  0  0
   29.6730   45.5170   -0.8170 C   0  0  0  0  0  0  0  0  0  0  0  0
   31.9310   46.4050   -0.8360 C   0  0  0  0  0  0  0  0  0  0  0  0
   28.6190   44.6050   -2.7900 C   0  0  0  0  0  0  0  0  0  0  0  0
   31.0540   50.2570   -5.0320 C   0  0  0  0  0  0  0  0  0  0  0  0
   30.7560   46.1120   -0.1560 C   0  0  0  0  0  0  0  0  0  0  0  0
   28.5000   45.2350   -0.0950 C   0  0  0  0  0  0  0  0  0  0  0  0
   27.4610   44.3300   -2.0600 C   0  0  0  0  0  0  0  0  0  0  0  0
   32.0680   50.6120   -4.4340 O   0  0  0  0  0  0  0  0  0  0  0  0
   29.9870   51.2430   -5.3700 C   0  0  0  0  0  0  0  0  0  0  0  0
   27.3990   44.6440   -0.7150 C   0  0  0  0  0  0  0  0  0  0  0  0
   29.8410   52.3660   -4.5410 C   0  0  0  0  0  0  0  0  0  0  0  0
   29.1410   51.0770   -6.4760 C   0  0  0  0  0  0  0  0  0  0  0  0
   28.8560   53.3060   -4.8290 C   0  0  0  0  0  0  0  0  0  0  0  0
   28.1570   52.0290   -6.7500 C   0  0  0  0  0  0  0  0  0  0  0  0
   28.6830   54.4110   -4.0470 O   0  0  0  0  0  0  0  0  0  0  0  0
   28.0140   53.1450   -5.9260 C   0  0  0  0  0  0  0  0  0  0  0  0
  1  2  1  0
  2  3  1  0
  1  4  1  0
  1  5  1  0
  2  6  1  0
  2  7  1  0
  5  8  1  0
  5  9  2  0
  6 10  1  0
  8 11  2  0
  9 12  1  0
  8 13  1  0
 10 14  1  0
 11 15  1  0
 12 15  2  0
 11 16  1  0
 13 17  2  0
 14 18  2  0
 14 19  1  0
 16 20  2  0
 17 20  1  0
 19 21  2  0
 19 22  1  0
 21 23  1  0
 22 24  2  0
 23 25  1  0
 23 26  2  0
 24 26  1  0
M  END
