mac-x0190-mac-x0338
     RDKit          3D

 14 15  0  0  0  0  0  0  0  0999 V2000
   28.9160   57.0430   -5.1570 O   0  0  0  0  0  0  0  0  0  0  0  0
   29.8900   56.3890   -4.3480 C   0  0  0  0  0  0  0  0  0  0  0  0
   29.6720   54.9300   -4.4920 C   0  0  0  0  0  0  0  0  0  0  0  0
   29.8820   54.0570   -3.4530 N   0  0  0  0  0  0  0  0  0  0  0  0
   29.2730   54.2920   -5.5670 N   0  0  0  0  0  0  0  0  0  0  0  0
   29.5990   52.7870   -3.8880 C   0  0  0  0  0  0  0  0  0  0  0  0
   29.2200   52.9570   -5.2130 C   0  0  0  0  0  0  0  0  0  0  0  0
   29.6400   51.5410   -3.2540 C   0  0  0  0  0  0  0  0  0  0  0  0
   28.8570   51.8380   -5.9730 C   0  0  0  0  0  0  0  0  0  0  0  0
   28.4500   51.9870   -7.3810 C   0  0  0  0  0  0  0  0  0  0  0  0
   29.2750   50.4290   -4.0260 C   0  0  0  0  0  0  0  0  0  0  0  0
   28.8890   50.5700   -5.3630 C   0  0  0  0  0  0  0  0  0  0  0  0
   28.3380   50.8620   -8.1410 N   0  0  0  0  0  0  0  0  0  0  0  0
   28.2200   53.0950   -7.8570 O   0  0  0  0  0  0  0  0  0  0  0  0
  1  2  1  0
  2  3  1  0
  3  4  1  0
  3  5  2  0
  4  6  1  0
  5  7  1  0
  6  7  2  0
  6  8  1  0
  7  9  1  0
  9 10  1  0
  8 11  2  0
  9 12  2  0
 11 12  1  0
 10 13  1  0
 10 14  2  0
M  END
