mac-x0179-mac-x0284
     RDKit          3D

 25 27  0  0  0  0  0  0  0  0999 V2000
   31.0220   45.9990   -4.6190 O   0  0  0  0  0  0  0  0  0  0  0  0
   32.3770   45.9200   -4.5100 C   0  0  0  0  0  0  0  0  0  0  0  0
   33.2280   46.1260   -5.3710 O   0  0  0  0  0  0  0  0  0  0  0  0
   30.4540   46.8470   -5.5020 C   0  0  0  0  0  0  0  0  0  0  0  0
   32.7540   45.5040   -3.0860 C   0  0  0  0  0  0  0  0  0  0  0  0
   30.2490   46.6890   -6.6940 O   0  0  0  0  0  0  0  0  0  0  0  0
   30.0640   48.1040   -4.8050 C   0  0  0  0  0  0  0  0  0  0  0  0
   34.1470   45.7050   -2.7260 N   0  0  0  0  0  0  0  0  0  0  0  0
   29.5180   49.1290   -5.6000 C   0  0  0  0  0  0  0  0  0  0  0  0
   30.2040   48.3220   -3.4260 C   0  0  0  0  0  0  0  0  0  0  0  0
   30.7250   47.3590   -2.6100 O   0  0  0  0  0  0  0  0  0  0  0  0
   34.8890   44.7280   -2.1190 C   0  0  0  0  0  0  0  0  0  0  0  0
   34.6910   46.9450   -2.5180 C   0  0  0  0  0  0  0  0  0  0  0  0
   29.1190   50.3480   -5.0340 C   0  0  0  0  0  0  0  0  0  0  0  0
   29.8120   49.5330   -2.8550 C   0  0  0  0  0  0  0  0  0  0  0  0
   34.6560   43.5370   -2.0230 O   0  0  0  0  0  0  0  0  0  0  0  0
   34.2590   48.0380   -2.8330 O   0  0  0  0  0  0  0  0  0  0  0  0
   28.5360   51.4310   -5.8920 C   0  0  0  0  0  0  0  0  0  0  0  0
   36.0750   45.3800   -1.5730 C   0  0  0  0  0  0  0  0  0  0  0  0
   35.9550   46.7360   -1.8150 C   0  0  0  0  0  0  0  0  0  0  0  0
   29.2720   50.5410   -3.6560 C   0  0  0  0  0  0  0  0  0  0  0  0
   37.1690   44.8490   -0.9200 C   0  0  0  0  0  0  0  0  0  0  0  0
   36.9180   47.6380   -1.4190 C   0  0  0  0  0  0  0  0  0  0  0  0
   38.1610   45.7420   -0.5090 C   0  0  0  0  0  0  0  0  0  0  0  0
   38.0390   47.1280   -0.7550 C   0  0  0  0  0  0  0  0  0  0  0  0
  1  2  1  0
  2  3  2  0
  1  4  1  0
  2  5  1  0
  4  6  2  0
  4  7  1  0
  5  8  1  0
  7  9  2  0
  7 10  1  0
 10 11  1  0
  8 12  1  0
  8 13  1  0
  9 14  1  0
 10 15  2  0
 12 16  2  0
 13 17  2  0
 14 18  1  0
 12 19  1  0
 13 20  1  0
 19 20  2  0
 14 21  2  0
 15 21  1  0
 19 22  1  0
 20 23  1  0
 22 24  2  0
 23 25  2  0
 24 25  1  0
M  END
