mac-x0284-mac-x0148
     RDKit          3D

 28 32  0  0  0  0  0  0  0  0999 V2000
   26.0280   50.8790   -4.1700 C   0  0  0  0  0  0  0  0  0  0  0  0
   27.3080   50.1530   -3.8840 C   0  0  0  0  0  0  0  0  0  0  0  0
   28.4780   50.8650   -3.6440 C   0  0  0  0  0  0  0  0  0  0  0  0
   27.3490   48.7540   -3.8550 C   0  0  0  0  0  0  0  0  0  0  0  0
   28.5470   48.0610   -3.5900 C   0  0  0  0  0  0  0  0  0  0  0  0
   29.6720   50.1940   -3.3830 C   0  0  0  0  0  0  0  0  0  0  0  0
   28.4780   46.5690   -3.5790 C   0  0  0  0  0  0  0  0  0  0  0  0
   29.7460   48.7870   -3.3500 C   0  0  0  0  0  0  0  0  0  0  0  0
   28.0300   45.9050   -4.5020 O   0  0  0  0  0  0  0  0  0  0  0  0
   28.9520   46.0160   -2.4410 O   0  0  0  0  0  0  0  0  0  0  0  0
   31.0980   48.1550   -3.0630 C   0  0  1  0  0  0  0  0  0  0  0  0
   31.0270   46.8540   -2.4350 O   0  0  0  0  0  0  0  0  0  0  0  0
   32.1050   47.9720   -4.2310 C   0  0  1  0  0  0  0  0  0  0  0  0
   32.3440   46.2960   -2.5060 C   0  0  0  0  0  0  0  0  0  0  0  0
   33.1550   47.1270   -3.4990 C   0  0  1  0  0  0  0  0  0  0  0  0
   31.5860   47.2920   -5.4710 N   0  0  0  0  0  0  0  0  0  0  0  0
   34.0710   46.2940   -4.3940 C   0  0  0  0  0  0  0  0  0  0  0  0
   31.8480   45.8560   -5.5560 C   0  0  0  0  0  0  0  0  0  0  0  0
   30.9350   47.9740   -6.5120 C   0  0  0  0  0  0  0  0  0  0  0  0
   33.3590   45.6450   -5.5810 C   0  0  0  0  0  0  0  0  0  0  0  0
   30.5030   47.2730   -7.6280 N   0  0  0  0  0  0  0  0  0  0  0  0
   30.6730   49.2960   -6.5460 C   0  0  0  0  0  0  0  0  0  0  0  0
   29.8600   47.8670   -8.6770 C   0  0  0  0  0  0  0  0  0  0  0  0
   29.9700   49.8850   -7.7150 C   0  0  0  0  0  0  0  0  0  0  0  0
   30.8930   50.4280   -5.7030 C   0  0  0  0  0  0  0  0  0  0  0  0
   29.5730   49.1230   -8.7820 N   0  0  0  0  0  0  0  0  0  0  0  0
   29.7890   51.1730   -7.5970 N   0  0  0  0  0  0  0  0  0  0  0  0
   30.3580   51.4730   -6.3620 C   0  0  0  0  0  0  0  0  0  0  0  0
  1  2  1  0
  2  3  2  0
  2  4  1  0
  4  5  2  0
  3  6  1  0
  5  7  1  0
  5  8  1  0
  6  8  2  0
  7  9  2  0
  7 10  1  0
 11  8  1  6
 11 12  1  0
 11 13  1  0
 12 14  1  0
 13 15  1  0
 15 14  1  1
 13 16  1  6
 15 17  1  0
 16 18  1  0
 16 19  1  0
 17 20  1  0
 18 20  1  0
 19 21  1  0
 19 22  2  0
 21 23  1  0
 22 24  1  0
 22 25  1  0
 23 26  2  0
 24 26  1  0
 24 27  2  0
 25 28  2  0
 27 28  1  0
M  END
