mac-x0188-mac-x0124
     RDKit          3D

 21 23  0  0  0  0  0  0  0  0999 V2000
   32.2130   44.4900   -3.6810 C   0  0  0  0  0  0  0  0  0  0  0  0
   31.8360   45.9180   -3.7310 C   0  0  0  0  0  0  0  0  0  0  0  0
   32.1990   46.6840   -2.6810 O   0  0  0  0  0  0  0  0  0  0  0  0
   31.1630   46.6790   -4.6560 C   0  0  0  0  0  0  0  0  0  0  0  0
   30.6560   46.1170   -5.8710 C   0  0  0  0  0  0  0  0  0  0  0  0
   31.7790   47.9770   -2.8910 N   0  0  0  0  0  0  0  0  0  0  0  0
   31.1470   48.0020   -4.0910 C   0  0  0  0  0  0  0  0  0  0  0  0
   29.5570   45.5920   -5.9940 O   0  0  0  0  0  0  0  0  0  0  0  0
   31.4860   46.1860   -6.9350 O   0  0  0  0  0  0  0  0  0  0  0  0
   30.5780   49.3420   -4.6020 C   0  0  2  0  0  0  0  0  0  0  0  0
   30.4670   50.2720   -3.3810 C   0  0  0  0  0  0  0  0  0  0  0  0
   29.2900   49.3930   -5.5780 C   0  0  1  0  0  0  0  0  0  0  0  0
   29.3990   51.0260   -3.1070 C   0  0  0  0  0  0  0  0  0  0  0  0
   28.1660   50.2870   -5.0560 C   0  0  0  0  0  0  0  0  0  0  0  0
   29.4550   49.8780   -7.0660 C   0  0  2  0  0  0  0  0  0  0  0  0
   28.6870   47.9630   -5.7610 C   0  0  0  0  0  0  0  0  0  0  0  0
   29.3060   51.3000   -7.2740 N   0  0  0  0  0  0  0  0  0  0  0  0
   28.2390   51.0200   -3.9450 C   0  0  0  0  0  0  0  0  0  0  0  0
   28.4490   49.3750   -7.9850 N   0  0  0  0  0  0  0  0  0  0  0  0
   29.1060   47.3270   -7.0190 N   0  0  0  0  0  0  0  0  0  0  0  0
   28.5210   47.9490   -8.1840 C   0  0  0  0  0  0  0  0  0  0  0  0
  1  2  1  0
  2  3  1  0
  2  4  2  0
  4  5  1  0
  3  6  1  0
  4  7  1  0
  6  7  2  0
  5  8  2  0
  5  9  1  0
 10  7  1  1
 10 11  1  0
 10 12  1  0
 11 13  2  0
 12 14  1  1
 12 15  1  0
 12 16  1  0
 15 17  1  1
 13 18  1  0
 14 18  2  0
 15 19  1  0
 16 20  1  0
 19 21  1  0
 20 21  1  0
M  END
