mac-x0148-mac-x1494
     RDKit          3D

 25 29  0  0  0  0  0  0  0  0999 V2000
   28.1730   51.6880   -7.5480 O   0  0  0  0  0  0  0  0  0  0  0  0
   28.3410   50.9070   -6.4510 N   0  0  1  0  0  0  0  0  0  0  0  0
   28.7140   49.5230   -6.7990 C   0  0  0  0  0  0  0  0  0  0  0  0
   29.5140   51.3350   -5.6120 C   0  0  0  0  0  0  0  0  0  0  0  0
   28.1950   48.8550   -7.8360 N   0  0  0  0  0  0  0  0  0  0  0  0
   29.6610   49.0230   -5.9210 C   0  0  0  0  0  0  0  0  0  0  0  0
   30.0080   50.0600   -4.8730 C   0  0  1  0  0  0  0  0  0  0  0  0
   28.6740   47.6150   -7.9770 C   0  0  0  0  0  0  0  0  0  0  0  0
   30.0950   47.7280   -6.1570 C   0  0  0  0  0  0  0  0  0  0  0  0
   31.5380   50.1650   -4.5640 C   0  0  0  0  0  0  0  0  0  0  0  0
   29.1390   49.8830   -3.6310 C   0  0  0  0  0  0  0  0  0  0  0  0
   31.0650   47.1210   -5.3380 N   0  0  0  0  0  0  0  0  0  0  0  0
   29.5940   47.0230   -7.1920 N   0  0  0  0  0  0  0  0  0  0  0  0
   31.9510   50.0840   -3.0800 C   0  0  1  0  0  0  0  0  0  0  0  0
   29.5530   50.1870   -2.3990 C   0  0  0  0  0  0  0  0  0  0  0  0
   33.5660   50.8100   -2.8090 Cl  0  0  0  0  0  0  0  0  0  0  0  0
   30.8640   47.2670   -3.8850 C   0  0  1  0  0  0  0  0  0  0  0  0
   31.5160   45.8110   -5.8170 C   0  0  0  0  0  0  0  0  0  0  0  0
   30.9190   50.7270   -2.1490 C   0  0  0  0  0  0  0  0  0  0  0  0
   29.7990   46.3930   -3.2160 C   0  0  0  0  0  0  0  0  0  0  0  0
   32.1320   46.8530   -3.1410 C   0  0  1  0  0  0  0  0  0  0  0  0
   32.8460   45.4400   -5.1640 C   0  0  0  0  0  0  0  0  0  0  0  0
   31.5730   46.7030   -1.7390 C   0  0  0  0  0  0  0  0  0  0  0  0
   30.2760   46.1090   -1.8830 O   0  0  0  0  0  0  0  0  0  0  0  0
   32.7930   45.5520   -3.6460 C   0  0  0  0  0  0  0  0  0  0  0  0
  2  1  1  6
  2  3  1  0
  2  4  1  0
  3  5  2  0
  3  6  1  0
  7  4  1  6
  6  7  1  0
  5  8  1  0
  6  9  2  0
  7 10  1  0
  7 11  1  0
  9 12  1  0
  8 13  2  0
  9 13  1  0
 10 14  1  0
 11 15  2  0
 14 16  1  6
 12 17  1  0
 12 18  1  0
 14 19  1  0
 15 19  1  0
 17 20  1  1
 17 21  1  0
 18 22  1  0
 21 23  1  1
 20 24  1  0
 23 24  1  0
 21 25  1  0
 22 25  1  0
M  CHG  2   1  -1   2   1
M  END
