mac-x0341-mac-x0178
     RDKit          3D

 27 29  0  0  0  0  0  0  0  0999 V2000
   28.2990   54.8450   -7.3850 N   0  0  0  0  0  0  0  0  0  0  0  0
   28.6290   53.6310   -6.8790 C   0  0  0  0  0  0  0  0  0  0  0  0
   28.6940   52.5950   -7.6560 N   0  0  0  0  0  0  0  0  0  0  0  0
   28.8820   53.5700   -5.5410 N   0  0  0  0  0  0  0  0  0  0  0  0
   29.2260   52.4140   -4.8810 C   0  0  0  0  0  0  0  0  0  0  0  0
   29.0500   51.3530   -7.0820 C   0  0  0  0  0  0  0  0  0  0  0  0
   29.4600   52.4000   -3.6780 O   0  0  0  0  0  0  0  0  0  0  0  0
   29.3150   51.2040   -5.7190 C   0  0  0  0  0  0  0  0  0  0  0  0
   29.1490   50.2270   -7.9140 C   0  0  0  0  0  0  0  0  0  0  0  0
   29.5050   48.9570   -7.4200 C   0  0  0  0  0  0  0  0  0  0  0  0
   29.6580   49.9550   -5.1830 C   0  0  0  0  0  0  0  0  0  0  0  0
   29.6190   47.7720   -8.4080 C   0  0  0  0  0  0  0  0  0  0  0  0
   29.7510   48.8400   -6.0280 C   0  0  0  0  0  0  0  0  0  0  0  0
   30.8330   46.8340   -8.1760 C   0  0  0  0  0  0  0  0  0  0  0  0
   30.7800   46.6390   -6.7580 N   0  0  0  0  0  0  0  0  0  0  0  0
   31.6020   46.3600   -5.8380 C   0  0  0  0  0  0  0  0  0  0  0  0
   32.9120   46.1190   -6.0120 O   0  0  0  0  0  0  0  0  0  0  0  0
   31.0930   46.3600   -4.4900 C   0  0  0  0  0  0  0  0  0  0  0  0
   29.8650   45.7240   -4.3160 C   0  0  0  0  0  0  0  0  0  0  0  0
   31.7550   46.9890   -3.4390 C   0  0  0  0  0  0  0  0  0  0  0  0
   29.2620   45.7280   -3.0780 C   0  0  0  0  0  0  0  0  0  0  0  0
   31.1500   46.9970   -2.1830 C   0  0  0  0  0  0  0  0  0  0  0  0
   29.9000   46.3720   -2.0230 C   0  0  0  0  0  0  0  0  0  0  0  0
   29.0890   46.4080   -0.4560 S   0  0  0  0  0  0  0  0  0  0  0  0
   28.6660   44.8030   -0.2120 N   0  0  0  0  0  0  0  0  0  0  0  0
   30.0440   46.8200    0.5410 O   0  0  0  0  0  0  0  0  0  0  0  0
   27.8400   47.1110   -0.6560 O   0  0  0  0  0  0  0  0  0  0  0  0
  1  2  1  0
  2  3  2  0
  2  4  1  0
  4  5  1  0
  3  6  1  0
  5  7  2  0
  5  8  1  0
  6  8  2  0
  6  9  1  0
  9 10  2  0
  8 11  1  0
 10 12  1  0
 10 13  1  0
 11 13  2  0
 12 14  1  0
 14 15  1  0
 15 16  2  3
 16 17  1  0
 16 18  1  0
 18 19  2  0
 18 20  1  0
 19 21  1  0
 20 22  2  0
 21 23  2  0
 22 23  1  0
 23 24  1  0
 24 25  1  0
 24 26  2  0
 24 27  2  0
M  END
