mac-x0321-mac-x0375
     RDKit          3D

 22 23  0  0  0  0  0  0  0  0999 V2000
   28.5810   52.0130   -7.1210 Cl  0  0  0  0  0  0  0  0  0  0  0  0
   29.1250   51.3420   -5.6310 C   0  0  0  0  0  0  0  0  0  0  0  0
   29.3090   49.9630   -5.5180 C   0  0  0  0  0  0  0  0  0  0  0  0
   29.3770   52.1850   -4.5490 C   0  0  0  0  0  0  0  0  0  0  0  0
   29.7510   49.4200   -4.3020 C   0  0  0  0  0  0  0  0  0  0  0  0
   29.8170   51.6510   -3.3390 C   0  0  0  0  0  0  0  0  0  0  0  0
   29.9670   47.9600   -4.1050 C   0  0  0  0  0  0  0  0  0  0  0  0
   30.0040   50.2720   -3.2150 C   0  0  0  0  0  0  0  0  0  0  0  0
   30.4750   47.3910   -5.2240 O   0  0  0  0  0  0  0  0  0  0  0  0
   29.7130   47.3750   -3.0670 O   0  0  0  0  0  0  0  0  0  0  0  0
   30.6860   45.9840   -5.0970 C   0  0  0  0  0  0  0  0  0  0  0  0
   31.4670   45.4880   -6.1960 O   0  0  0  0  0  0  0  0  0  0  0  0
   32.8220   45.5090   -6.0020 C   0  0  0  0  0  0  0  0  0  0  0  0
   33.6350   45.8730   -6.8440 O   0  0  0  0  0  0  0  0  0  0  0  0
   33.1630   45.0100   -4.5990 C   0  0  0  0  0  0  0  0  0  0  0  0
   34.5320   44.6880   -4.3930 O   0  0  0  0  0  0  0  0  0  0  0  0
   35.3720   45.6240   -3.8390 C   0  0  0  0  0  0  0  0  0  0  0  0
   36.6710   45.3850   -3.3790 C   0  0  0  0  0  0  0  0  0  0  0  0
   34.8510   46.9200   -3.7440 C   0  0  0  0  0  0  0  0  0  0  0  0
   37.4310   46.4260   -2.8340 C   0  0  0  0  0  0  0  0  0  0  0  0
   35.6080   47.9590   -3.1990 C   0  0  0  0  0  0  0  0  0  0  0  0
   36.9000   47.7100   -2.7440 C   0  0  0  0  0  0  0  0  0  0  0  0
  1  2  1  0
  2  3  2  0
  2  4  1  0
  3  5  1  0
  4  6  2  0
  5  7  1  0
  5  8  2  0
  6  8  1  0
  7  9  1  0
  7 10  2  0
  9 11  1  0
 11 12  1  0
 12 13  1  0
 13 14  2  0
 13 15  1  0
 15 16  1  0
 16 17  1  0
 17 18  2  0
 17 19  1  0
 18 20  1  0
 19 21  2  0
 20 22  2  0
 21 22  1  0
M  END
