mac-x0397-mac-x0124
     RDKit          3D

 18 20  0  0  0  0  0  0  0  0999 V2000
   29.3360   52.3530   -2.3470 Cl  0  0  0  0  0  0  0  0  0  0  0  0
   29.9030   51.3300   -3.6960 C   0  0  2  0  0  0  0  0  0  0  0  0
   29.6130   51.9540   -5.0180 C   0  0  0  0  0  0  0  0  0  0  0  0
   29.2220   49.9550   -3.6240 C   0  0  0  0  0  0  0  0  0  0  0  0
   29.5450   53.3300   -5.1940 N   0  0  0  0  0  0  0  0  0  0  0  0
   29.3890   51.2030   -6.1540 C   0  0  0  0  0  0  0  0  0  0  0  0
   29.6640   49.0380   -4.7990 C   0  0  1  0  0  0  0  0  0  0  0  0
   29.1010   47.6230   -4.5710 C   0  0  0  0  0  0  0  0  0  0  0  0
   29.2750   53.6080   -6.4440 C   0  0  0  0  0  0  0  0  0  0  0  0
   29.0900   52.2550   -7.4710 S   0  0  0  0  0  0  0  0  0  0  0  0
   29.3890   49.6650   -6.2500 C   0  0  1  0  0  0  0  0  0  0  0  0
   29.1470   54.8630   -6.9080 N   0  0  0  0  0  0  0  0  0  0  0  0
   28.0120   49.1950   -6.8430 C   0  0  2  0  0  0  0  0  0  0  0  0
   30.4580   49.1940   -7.2820 C   0  0  0  0  0  0  0  0  0  0  0  0
   26.8420   49.4870   -6.0500 N   0  0  0  0  0  0  0  0  0  0  0  0
   27.9630   47.7860   -7.1240 N   0  0  0  0  0  0  0  0  0  0  0  0
   30.3410   47.7640   -7.5930 N   0  0  0  0  0  0  0  0  0  0  0  0
   29.0140   47.3910   -8.0460 C   0  0  0  0  0  0  0  0  0  0  0  0
  2  1  1  1
  2  3  1  0
  2  4  1  0
  3  5  1  0
  3  6  2  0
  4  7  1  0
  7  8  1  6
  5  9  2  0
  6 10  1  0
  9 10  1  0
  6 11  1  0
  7 11  1  0
  9 12  1  0
 11 13  1  0
 11 14  1  6
 13 15  1  1
 13 16  1  0
 14 17  1  0
 16 18  1  0
 17 18  1  0
M  END
