mac-x0182-mac-x0302
     RDKit          3D

 27 29  0  0  0  0  0  0  0  0999 V2000
   34.4830   43.3700   -2.7080 O   0  0  0  0  0  0  0  0  0  0  0  0
   34.6280   44.4790   -3.1960 C   0  0  0  0  0  0  0  0  0  0  0  0
   33.7990   45.0760   -4.1080 N   0  0  0  0  0  0  0  0  0  0  0  0
   35.7680   45.3730   -2.8590 C   0  0  0  0  0  0  0  0  0  0  0  0
   34.2520   46.6510   -4.4400 S   0  0  2  0  0  0  0  0  0  0  0  0
   35.6860   46.6090   -3.4830 C   0  0  0  0  0  0  0  0  0  0  0  0
   36.8340   45.0840   -2.0270 C   0  0  0  0  0  0  0  0  0  0  0  0
   33.2460   47.5430   -3.7170 N   0  0  0  0  0  0  0  0  0  0  0  0
   34.6150   46.6810   -5.8350 O   0  0  0  0  0  0  0  0  0  0  0  0
   36.6270   47.6090   -3.3250 C   0  0  0  0  0  0  0  0  0  0  0  0
   37.8110   46.0760   -1.8430 C   0  0  0  0  0  0  0  0  0  0  0  0
   31.8720   47.0310   -3.5150 C   0  0  0  0  0  0  0  0  0  0  0  0
   37.7050   47.3260   -2.4850 C   0  0  0  0  0  0  0  0  0  0  0  0
   30.9620   47.3660   -4.6990 C   0  0  1  0  0  0  0  0  0  0  0  0
   30.6100   46.0660   -5.4020 C   0  0  0  0  0  0  0  0  0  0  0  0
   29.7280   48.0710   -4.3260 N   0  0  0  0  0  0  0  0  0  0  0  0
   30.4670   45.0010   -4.5910 O   0  0  0  0  0  0  0  0  0  0  0  0
   30.4670   45.9440   -6.6070 O   0  0  0  0  0  0  0  0  0  0  0  0
   29.7480   49.2670   -3.6520 C   0  0  0  0  0  0  0  0  0  0  0  0
   29.9990   49.3410   -2.4530 O   0  0  0  0  0  0  0  0  0  0  0  0
   29.4480   50.5050   -4.4230 C   0  0  0  0  0  0  0  0  0  0  0  0
   29.6390   51.7390   -3.7880 C   0  0  0  0  0  0  0  0  0  0  0  0
   28.9840   50.4740   -5.7510 C   0  0  0  0  0  0  0  0  0  0  0  0
   29.3690   52.9180   -4.4730 C   0  0  0  0  0  0  0  0  0  0  0  0
   28.7170   51.6700   -6.4240 C   0  0  0  0  0  0  0  0  0  0  0  0
   29.5440   54.1350   -3.8860 O   0  0  0  0  0  0  0  0  0  0  0  0
   28.9090   52.8920   -5.7860 C   0  0  0  0  0  0  0  0  0  0  0  0
  1  2  2  0
  2  3  1  0
  2  4  1  0
  5  3  1  6
  4  6  2  0
  5  6  1  0
  4  7  1  0
  5  8  2  0
  5  9  2  0
  6 10  1  0
  7 11  2  0
  8 12  1  0
 10 13  2  0
 11 13  1  0
 14 12  1  1
 14 15  1  0
 14 16  1  0
 15 17  1  0
 15 18  2  0
 16 19  1  0
 19 20  2  0
 19 21  1  0
 21 22  2  0
 21 23  1  0
 22 24  1  0
 23 25  2  0
 24 26  1  0
 24 27  2  0
 25 27  1  0
M  END
