mac-x1493-mac-x0263
     RDKit          3D

 22 24  0  0  0  0  0  0  0  0999 V2000
   30.0960   48.0760   -5.1380 O   0  0  0  0  0  0  0  0  0  0  0  0
   30.4120   48.7300   -3.9950 C   0  0  0  0  0  0  0  0  0  0  0  0
   30.6770   48.1640   -2.9550 O   0  0  0  0  0  0  0  0  0  0  0  0
   30.3900   50.1980   -4.1400 C   0  0  0  0  0  0  0  0  0  0  0  0
   29.3190   50.7550   -4.7470 C   0  0  0  0  0  0  0  0  0  0  0  0
   31.3710   51.0760   -3.7060 C   0  0  0  0  0  0  0  0  0  0  0  0
   29.2300   52.1350   -4.9240 C   0  0  0  0  0  0  0  0  0  0  0  0
   31.3140   52.4400   -3.8720 N   0  0  0  0  0  0  0  0  0  0  0  0
   30.2400   52.9690   -4.4890 C   0  0  0  0  0  0  0  0  0  0  0  0
   28.1330   52.6410   -5.5190 C   0  0  0  0  0  0  0  0  0  0  0  0
   30.1100   54.3630   -4.7060 C   0  0  0  0  0  0  0  0  0  0  0  0
   27.9720   54.0250   -5.7360 C   0  0  0  0  0  0  0  0  0  0  0  0
   27.1780   51.7070   -5.8810 C   0  0  0  0  0  0  0  0  0  0  0  0
   28.9690   54.9450   -5.3490 C   0  0  0  0  0  0  0  0  0  0  0  0
   26.0380   52.0990   -6.4530 C   0  0  0  0  0  0  0  0  0  0  0  0
   26.7970   54.3880   -6.3310 C   0  0  0  0  0  0  0  0  0  0  0  0
   28.8660   56.4960   -5.5760 C   0  0  0  0  0  0  0  0  0  0  0  0
   25.8500   53.4420   -6.6740 C   0  0  0  0  0  0  0  0  0  0  0  0
   27.4730   57.0410   -6.0160 C   0  0  0  0  0  0  0  0  0  0  0  0
   27.2960   58.5500   -6.2030 C   0  0  0  0  0  0  0  0  0  0  0  0
   28.4310   59.2740   -6.2100 O   0  0  0  0  0  0  0  0  0  0  0  0
   26.2230   59.1300   -6.3480 O   0  0  0  0  0  0  0  0  0  0  0  0
  1  2  1  0
  2  3  2  0
  2  4  1  0
  4  5  2  0
  4  6  1  0
  5  7  1  0
  6  8  2  0
  7  9  2  0
  8  9  1  0
  7 10  1  0
  9 11  1  0
 10 12  2  0
 10 13  1  0
 11 14  2  0
 12 14  1  0
 13 15  2  0
 12 16  1  0
 14 17  1  0
 15 18  1  0
 16 18  2  0
 17 19  1  0
 19 20  1  0
 20 21  1  0
 20 22  2  0
M  END
