mac-x0206-mac-x0231
     RDKit          3D

 27 29  0  0  0  0  0  0  0  0999 V2000
   29.2080   49.8560   -5.1220 N   0  0  0  0  0  0  0  0  0  0  0  0
   29.2910   50.9690   -4.3140 C   0  0  0  0  0  0  0  0  0  0  0  0
   29.3660   50.9990   -3.0100 N   0  0  0  0  0  0  0  0  0  0  0  0
   29.2670   52.3450   -4.9390 C   0  0  0  0  0  0  0  0  0  0  0  0
   29.3390   49.8170   -2.1300 C   0  0  0  0  0  0  0  0  0  0  0  0
   29.7980   53.4270   -4.2310 C   0  0  0  0  0  0  0  0  0  0  0  0
   28.7170   52.5760   -6.2110 C   0  0  0  0  0  0  0  0  0  0  0  0
   30.3520   53.2840   -2.9890 O   0  0  0  0  0  0  0  0  0  0  0  0
   30.7340   49.3790   -1.6420 C   0  0  0  0  0  0  0  0  0  0  0  0
   29.7850   54.7140   -4.7620 C   0  0  0  0  0  0  0  0  0  0  0  0
   28.7040   53.8720   -6.7470 C   0  0  0  0  0  0  0  0  0  0  0  0
   29.2350   54.9360   -6.0230 C   0  0  0  0  0  0  0  0  0  0  0  0
   31.0530   48.0770   -2.3080 C   0  0  0  0  0  0  0  0  0  0  0  0
   30.0750   47.0780   -2.3220 C   0  0  0  0  0  0  0  0  0  0  0  0
   32.2830   47.8460   -2.9270 C   0  0  0  0  0  0  0  0  0  0  0  0
   30.3160   45.8700   -2.9670 C   0  0  0  0  0  0  0  0  0  0  0  0
   32.5220   46.6340   -3.5740 C   0  0  0  0  0  0  0  0  0  0  0  0
   31.5290   45.6450   -3.6050 C   0  0  0  0  0  0  0  0  0  0  0  0
   29.2810   44.8200   -2.9870 C   0  0  0  0  0  0  0  0  0  0  0  0
   28.1790   44.9920   -2.4750 O   0  0  0  0  0  0  0  0  0  0  0  0
   31.6920   44.3530   -4.3010 C   0  0  0  0  0  0  0  0  0  0  0  0
   29.6310   43.6460   -3.6080 N   0  0  0  0  0  0  0  0  0  0  0  0
   32.9510   44.1000   -5.1020 C   0  0  0  0  0  0  0  0  0  0  0  0
   30.7840   43.4160   -4.2970 N   0  0  0  0  0  0  0  0  0  0  0  0
   33.0440   44.9930   -6.3160 C   0  0  0  0  0  0  0  0  0  0  0  0
   34.3030   45.4260   -6.5680 O   0  0  0  0  0  0  0  0  0  0  0  0
   32.1020   45.3150   -7.0280 O   0  0  0  0  0  0  0  0  0  0  0  0
  1  2  1  0
  2  3  2  3
  2  4  1  0
  3  5  1  0
  4  6  2  0
  4  7  1  0
  6  8  1  0
  5  9  1  0
  6 10  1  0
  7 11  2  0
 10 12  2  0
 11 12  1  0
  9 13  1  0
 13 14  2  0
 13 15  1  0
 14 16  1  0
 15 17  2  0
 16 18  2  0
 17 18  1  0
 16 19  1  0
 19 20  2  0
 18 21  1  0
 19 22  1  0
 21 23  1  0
 21 24  2  0
 22 24  1  0
 23 25  1  0
 25 26  1  0
 25 27  2  0
M  END
