mac-x0385-mac-x0138
     RDKit          3D

 15 16  0  0  0  0  0  0  0  0999 V2000
   29.4950   51.3890   -2.6090 C   0  0  0  0  0  0  0  0  0  0  0  0
   29.1180   50.2060   -3.5170 C   0  0  2  0  0  0  0  0  0  0  0  0
   30.3620   49.4180   -3.9290 C   0  0  0  0  0  0  0  0  0  0  0  0
   28.2870   50.5850   -4.7620 C   0  0  1  0  0  0  0  0  0  0  0  0
   28.5600   51.9810   -5.1000 N   0  0  0  0  0  0  0  0  0  0  0  0
   28.5080   49.7240   -5.9240 N   0  0  0  0  0  0  0  0  0  0  0  0
   30.0870   48.2200   -4.7150 N   0  0  0  0  0  0  0  0  0  0  0  0
   30.1070   47.0000   -3.9080 C   0  0  0  0  0  0  0  0  0  0  0  0
   28.9950   48.3690   -5.6950 C   0  0  1  0  0  0  0  0  0  0  0  0
   29.2270   50.3510   -7.0140 C   0  0  0  0  0  0  0  0  0  0  0  0
   27.7980   47.4860   -5.2310 C   0  0  0  0  0  0  0  0  0  0  0  0
   28.8120   49.6950   -8.2410 N   0  0  0  0  0  0  0  0  0  0  0  0
   29.4930   47.8060   -6.9190 N   0  0  0  0  0  0  0  0  0  0  0  0
   29.0130   48.2860   -8.1590 C   0  0  2  0  0  0  0  0  0  0  0  0
   29.9720   47.9520   -9.1560 N   0  0  0  0  0  0  0  0  0  0  0  0
  2  1  1  6
  2  3  1  0
  2  4  1  0
  4  5  1  6
  4  6  1  0
  3  7  1  0
  7  8  1  0
  9  6  1  0
  7  9  1  0
  6 10  1  0
  9 11  1  1
 10 12  1  0
  9 13  1  0
 12 14  1  0
 13 14  1  0
 14 15  1  6
M  END
