mac-x0228-mac-x0338
     RDKit          3D

 15 16  0  0  0  0  0  0  0  0999 V2000
   29.3190   47.8430   -4.8160 O   0  0  0  0  0  0  0  0  0  0  0  0
   30.4080   48.6310   -4.9060 C   0  0  0  0  0  0  0  0  0  0  0  0
   31.4860   48.2020   -5.2840 O   0  0  0  0  0  0  0  0  0  0  0  0
   30.1080   50.0150   -4.4900 C   0  0  0  0  0  0  0  0  0  0  0  0
   29.7670   51.0390   -5.3990 C   0  0  0  0  0  0  0  0  0  0  0  0
   30.1790   50.2860   -3.1030 C   0  0  0  0  0  0  0  0  0  0  0  0
   29.6580   50.8930   -6.8750 C   0  0  0  0  0  0  0  0  0  0  0  0
   29.5080   52.3060   -4.8730 C   0  0  0  0  0  0  0  0  0  0  0  0
   29.9150   51.5610   -2.6040 C   0  0  0  0  0  0  0  0  0  0  0  0
   28.4460   50.5770   -7.4130 N   0  0  0  0  0  0  0  0  0  0  0  0
   30.6390   51.0560   -7.5980 O   0  0  0  0  0  0  0  0  0  0  0  0
   29.5840   52.5490   -3.5070 C   0  0  0  0  0  0  0  0  0  0  0  0
   29.1320   53.5730   -5.5540 C   0  0  0  0  0  0  0  0  0  0  0  0
   29.3040   53.8430   -3.1510 O   0  0  0  0  0  0  0  0  0  0  0  0
   29.3660   54.5570   -4.4080 C   0  0  0  0  0  0  0  0  0  0  0  0
  1  2  1  0
  2  3  2  0
  2  4  1  0
  4  5  2  0
  4  6  1  0
  5  7  1  0
  5  8  1  0
  6  9  2  0
  7 10  1  0
  7 11  2  0
  8 12  2  0
  9 12  1  0
  8 13  1  0
 12 14  1  0
 13 15  1  0
 14 15  1  0
M  END
