mac-x0178-mac-x0555
     RDKit          3D

 26 28  0  0  0  0  0  0  0  0999 V2000
   28.3130   45.2020   -0.3120 N   0  0  0  0  0  0  0  0  0  0  0  0
   29.0730   46.6390   -0.7200 S   0  0  2  0  0  0  0  0  0  0  0  0
   30.0170   46.8150    0.3540 O   0  0  0  0  0  0  0  0  0  0  0  0
   27.8570   47.5160   -0.9980 N   0  0  0  0  0  0  0  0  0  0  0  0
   29.9340   46.4520   -2.2470 C   0  0  0  0  0  0  0  0  0  0  0  0
   28.0980   48.9290   -1.3930 C   0  0  0  0  0  0  0  0  0  0  0  0
   29.3390   45.7510   -3.2990 C   0  0  0  0  0  0  0  0  0  0  0  0
   31.2040   47.0230   -2.3810 C   0  0  0  0  0  0  0  0  0  0  0  0
   29.4210   49.0980   -2.1670 C   0  0  0  0  0  0  0  0  0  0  0  0
   30.0250   45.6220   -4.5070 C   0  0  0  0  0  0  0  0  0  0  0  0
   31.8840   46.8920   -3.5930 C   0  0  0  0  0  0  0  0  0  0  0  0
   31.2970   46.1950   -4.6570 C   0  0  0  0  0  0  0  0  0  0  0  0
   29.3560   50.1720   -3.2310 C   0  0  0  0  0  0  0  0  0  0  0  0
   31.9810   46.0350   -5.9640 C   0  0  0  0  0  0  0  0  0  0  0  0
   29.6180   51.5210   -2.9220 C   0  0  0  0  0  0  0  0  0  0  0  0
   29.0280   49.8300   -4.5520 C   0  0  0  0  0  0  0  0  0  0  0  0
   31.4520   45.7010   -7.0090 O   0  0  0  0  0  0  0  0  0  0  0  0
   33.2970   46.3100   -5.8960 O   0  0  0  0  0  0  0  0  0  0  0  0
   29.5530   52.5200   -3.8840 C   0  0  0  0  0  0  0  0  0  0  0  0
   28.9580   50.8160   -5.5300 C   0  0  0  0  0  0  0  0  0  0  0  0
   29.2160   52.1620   -5.2070 C   0  0  0  0  0  0  0  0  0  0  0  0
   29.8070   53.7930   -3.5300 N   0  0  0  0  0  0  0  0  0  0  0  0
   29.1430   53.1750   -6.1730 C   0  0  0  0  0  0  0  0  0  0  0  0
   29.7250   54.7390   -4.4960 C   0  0  0  0  0  0  0  0  0  0  0  0
   29.3990   54.5010   -5.8270 C   0  0  0  0  0  0  0  0  0  0  0  0
   29.3260   55.5210   -6.7810 N   0  0  0  0  0  0  0  0  0  0  0  0
  2  1  1  1
  2  3  2  0
  2  4  2  0
  2  5  1  0
  4  6  1  0
  5  7  2  0
  5  8  1  0
  6  9  1  0
  7 10  1  0
  8 11  2  0
 10 12  2  0
 11 12  1  0
  9 13  1  0
 12 14  1  0
 13 15  2  0
 13 16  1  0
 14 17  2  0
 14 18  1  0
 15 19  1  0
 16 20  2  0
 19 21  2  0
 20 21  1  0
 19 22  1  0
 21 23  1  0
 22 24  2  0
 23 25  2  0
 24 25  1  0
 25 26  1  0
M  END
