mac-x0361-mac-x0284
     RDKit          3D

 14 14  0  0  0  0  0  0  0  0999 V2000
   28.2050   53.2070   -5.7640 N   0  0  0  0  0  0  0  0  0  0  0  0
   29.4130   53.0090   -5.1550 C   0  0  0  0  0  0  0  0  0  0  0  0
   30.2570   53.8910   -5.1000 O   0  0  0  0  0  0  0  0  0  0  0  0
   29.6400   51.6590   -4.5680 C   0  0  0  0  0  0  0  0  0  0  0  0
   29.6180   50.4790   -5.3560 C   0  0  0  0  0  0  0  0  0  0  0  0
   29.8770   51.6040   -3.1860 C   0  0  0  0  0  0  0  0  0  0  0  0
   29.3590   50.5690   -6.8410 C   0  0  0  0  0  0  0  0  0  0  0  0
   29.8440   49.2310   -4.7120 C   0  0  0  0  0  0  0  0  0  0  0  0
   30.0960   50.3840   -2.5600 C   0  0  0  0  0  0  0  0  0  0  0  0
   29.8340   47.9440   -5.5000 C   0  0  0  0  0  0  0  0  0  0  0  0
   30.0800   49.2130   -3.3180 C   0  0  0  0  0  0  0  0  0  0  0  0
   30.3020   48.0180   -2.6730 O   0  0  0  0  0  0  0  0  0  0  0  0
   29.1850   47.7710   -6.5140 O   0  0  0  0  0  0  0  0  0  0  0  0
   30.6150   46.9660   -4.9930 O   0  0  0  0  0  0  0  0  0  0  0  0
  1  2  1  0
  2  3  2  0
  2  4  1  0
  4  5  2  0
  4  6  1  0
  5  7  1  0
  5  8  1  0
  6  9  2  0
  8 10  1  0
  8 11  2  0
  9 11  1  0
 11 12  1  0
 10 13  2  0
 10 14  1  0
M  END
