mac-x0361-mac-x0584
     RDKit          3D

 27 31  0  0  0  0  0  0  0  0999 V2000
   29.4610   54.6530   -5.2550 N   0  0  0  0  0  0  0  0  0  0  0  0
   29.5550   53.9960   -4.0560 C   0  0  0  0  0  0  0  0  0  0  0  0
   29.2780   54.5570   -3.0030 O   0  0  0  0  0  0  0  0  0  0  0  0
   30.0090   52.5830   -4.0940 C   0  0  0  0  0  0  0  0  0  0  0  0
   30.8220   52.0990   -5.1200 C   0  0  0  0  0  0  0  0  0  0  0  0
   29.6070   51.7240   -3.0670 C   0  0  0  0  0  0  0  0  0  0  0  0
   31.2280   50.7610   -5.1180 C   0  0  0  0  0  0  0  0  0  0  0  0
   30.0150   50.3870   -3.0680 C   0  0  0  0  0  0  0  0  0  0  0  0
   30.8300   49.8840   -4.0920 C   0  0  0  0  0  0  0  0  0  0  0  0
   31.2970   48.4330   -4.1340 C   0  0  2  0  0  0  0  0  0  0  0  0
   30.3390   47.5330   -4.8050 N   0  0  0  0  0  0  0  0  0  0  0  0
   31.4950   47.8240   -2.7350 C   0  0  0  0  0  0  0  0  0  0  0  0
   30.9130   46.4150   -2.8000 C   0  0  0  0  0  0  0  0  0  0  0  0
   30.5410   46.1800   -4.2730 C   0  0  2  0  0  0  0  0  0  0  0  0
   29.6900   47.8190   -6.0140 C   0  0  0  0  0  0  0  0  0  0  0  0
   31.6390   45.3720   -4.9910 C   0  0  0  0  0  0  0  0  0  0  0  0
   30.0320   47.1480   -7.1780 N   0  0  0  0  0  0  0  0  0  0  0  0
   28.7110   48.7360   -6.1670 C   0  0  0  0  0  0  0  0  0  0  0  0
   32.2390   44.0740   -4.3830 C   0  0  0  0  0  0  0  0  0  0  0  0
   33.0770   45.9510   -5.0100 C   0  0  0  0  0  0  0  0  0  0  0  0
   29.4300   47.3950   -8.3800 C   0  0  0  0  0  0  0  0  0  0  0  0
   28.0960   48.9530   -7.5040 C   0  0  0  0  0  0  0  0  0  0  0  0
   28.0040   49.6690   -5.3430 C   0  0  0  0  0  0  0  0  0  0  0  0
   33.6280   44.5260   -4.8610 C   0  0  0  0  0  0  0  0  0  0  0  0
   28.4890   48.2500   -8.6060 N   0  0  0  0  0  0  0  0  0  0  0  0
   27.1590   49.8650   -7.4870 N   0  0  0  0  0  0  0  0  0  0  0  0
   27.1310   50.2790   -6.1630 C   0  0  0  0  0  0  0  0  0  0  0  0
  1  2  1  0
  2  3  2  0
  2  4  1  0
  4  5  2  0
  4  6  1  0
  5  7  1  0
  6  8  2  0
  7  9  2  0
  8  9  1  0
 10  9  1  1
 10 11  1  0
 10 12  1  0
 12 13  1  0
 11 14  1  0
 13 14  1  0
 11 15  1  0
 14 16  1  6
 15 17  1  0
 15 18  2  0
 16 19  1  0
 16 20  1  0
 17 21  1  0
 18 22  1  0
 18 23  1  0
 19 24  1  0
 20 24  1  0
 21 25  2  0
 22 25  1  0
 22 26  2  0
 23 27  2  0
 26 27  1  0
M  END
