mac-x0277-mac-x0255
     RDKit          3D

 18 20  0  0  0  0  0  0  0  0999 V2000
   27.0090   41.8090   -2.8540 Cl  0  0  0  0  0  0  0  0  0  0  0  0
   28.6570   42.1330   -3.3630 C   0  0  0  0  0  0  0  0  0  0  0  0
   29.2480   43.3620   -3.0390 C   0  0  0  0  0  0  0  0  0  0  0  0
   29.1860   41.2080   -4.0430 C   0  0  0  0  0  0  0  0  0  0  0  0
   28.1660   44.2950   -2.1110 Cl  0  0  0  0  0  0  0  0  0  0  0  0
   30.5530   44.1610   -3.1970 C   0  0  0  0  0  0  0  0  0  0  0  0
   30.3880   41.6910   -4.4630 C   0  0  0  0  0  0  0  0  0  0  0  0
   31.1340   42.9020   -4.2130 C   0  0  0  0  0  0  0  0  0  0  0  0
   32.1260   45.0710   -3.4240 S   0  0  0  0  0  0  0  0  0  0  0  0
   31.0390   41.0110   -5.3150 C   0  0  0  0  0  0  0  0  0  0  0  0
   32.4290   42.7720   -5.0540 C   0  0  0  0  0  0  0  0  0  0  0  0
   31.6440   40.3790   -6.1070 C   0  0  0  0  0  0  0  0  0  0  0  0
   33.8560   44.7040   -3.9610 C   0  0  0  0  0  0  0  0  0  0  0  0
   32.2290   43.7650   -4.3260 C   0  0  0  0  0  0  0  0  0  0  0  0
   34.7620   44.7860   -2.7390 C   0  0  0  0  0  0  0  0  0  0  0  0
   32.3680   41.5350   -5.8250 C   0  0  0  0  0  0  0  0  0  0  0  0
   34.0340   44.6630   -1.6090 O   0  0  0  0  0  0  0  0  0  0  0  0
   35.9570   44.9520   -2.6590 O   0  0  0  0  0  0  0  0  0  0  0  0
  1  2  1  0
  2  3  2  0
  2  4  1  0
  3  5  1  0
  3  6  1  0
  4  7  2  0
  6  8  2  0
  7  8  1  0
  6  9  1  0
  7 10  1  0
  8 11  1  0
 10 12  2  0
  9 13  1  0
  9 14  2  0
 11 14  1  0
 13 15  1  0
 11 16  2  0
 12 16  1  0
 15 17  1  0
 15 18  2  0
M  END
