mac-x0415-mac-x0496
     RDKit          3D

 34 37  0  0  0  0  0  0  0  0999 V2000
   33.6570   46.5670   -5.9340 O   0  0  0  0  0  0  0  0  0  0  0  0
   32.5370   45.8290   -5.7960 C   0  0  0  0  0  0  0  0  0  0  0  0
   31.6630   45.8830   -6.6470 O   0  0  0  0  0  0  0  0  0  0  0  0
   32.5240   44.9930   -4.5350 C   0  0  0  0  0  0  0  0  0  0  0  0
   31.1650   45.0210   -3.9530 C   0  0  0  0  0  0  0  0  0  0  0  0
   30.1790   43.9350   -4.0800 C   0  0  0  0  0  0  0  0  0  0  0  0
   30.4840   45.8890   -3.2080 C   0  0  0  0  0  0  0  0  0  0  0  0
   29.0120   44.0720   -3.5110 N   0  0  0  0  0  0  0  0  0  0  0  0
   29.0900   45.4260   -2.9320 C   0  0  1  0  0  0  0  0  0  0  0  0
   30.8590   47.1640   -2.6620 C   0  0  0  0  0  0  0  0  0  0  0  0
   28.7380   45.6220   -1.4980 C   0  0  0  0  0  0  0  0  0  0  0  0
   30.2830   47.5400   -1.4920 C   0  0  0  0  0  0  0  0  0  0  0  0
   30.4960   48.7090   -0.8070 O   0  0  0  0  0  0  0  0  0  0  0  0
   29.3190   46.6460   -0.8310 C   0  0  0  0  0  0  0  0  0  0  0  0
   30.5500   49.9110   -1.5710 C   0  0  0  0  0  0  0  0  0  0  0  0
   29.3640   50.1360   -2.3380 O   0  0  0  0  0  0  0  0  0  0  0  0
   29.3740   49.6470   -3.6030 C   0  0  0  0  0  0  0  0  0  0  0  0
   29.5920   48.5020   -3.9510 O   0  0  0  0  0  0  0  0  0  0  0  0
   29.0650   50.7330   -4.5650 C   0  0  0  0  0  0  0  0  0  0  0  0
   28.5900   50.3820   -5.8390 C   0  0  0  0  0  0  0  0  0  0  0  0
   29.2350   52.0770   -4.2330 C   0  0  0  0  0  0  0  0  0  0  0  0
   28.2870   51.3790   -6.7720 C   0  0  0  0  0  0  0  0  0  0  0  0
   28.9300   53.0740   -5.1670 C   0  0  0  0  0  0  0  0  0  0  0  0
   29.1300   54.4880   -4.7550 C   0  0  0  0  0  0  0  0  0  0  0  0
   28.4550   52.7230   -6.4400 C   0  0  0  0  0  0  0  0  0  0  0  0
   29.1040   55.4430   -5.7520 N   0  0  0  0  0  0  0  0  0  0  0  0
   29.3070   54.7520   -3.5730 O   0  0  0  0  0  0  0  0  0  0  0  0
   29.2200   56.8530   -5.4050 C   0  0  0  0  0  0  0  0  0  0  0  0
   27.8870   57.5100   -5.3200 C   0  0  0  0  0  0  0  0  0  0  0  0
   27.6360   58.2980   -4.2270 O   0  0  0  0  0  0  0  0  0  0  0  0
   26.8730   57.4540   -6.1540 N   0  0  0  0  0  0  0  0  0  0  0  0
   25.9420   58.2490   -5.5440 C   0  0  0  0  0  0  0  0  0  0  0  0
   26.3360   58.7880   -4.3820 N   0  0  0  0  0  0  0  0  0  0  0  0
   24.6110   58.4850   -6.1330 C   0  0  0  0  0  0  0  0  0  0  0  0
  1  2  1  0
  2  3  2  0
  2  4  1  0
  4  5  1  0
  5  6  1  0
  5  7  2  0
  6  8  2  0
  7  9  1  0
  8  9  1  0
  7 10  1  0
  9 11  1  1
 10 12  2  0
 12 13  1  0
 11 14  2  0
 12 14  1  0
 13 15  1  0
 15 16  1  0
 16 17  1  0
 17 18  2  0
 17 19  1  0
 19 20  2  0
 19 21  1  0
 20 22  1  0
 21 23  2  0
 23 24  1  0
 22 25  2  0
 23 25  1  0
 24 26  1  0
 24 27  2  0
 26 28  1  0
 28 29  1  0
 29 30  1  0
 29 31  2  0
 31 32  1  0
 30 33  1  0
 32 33  2  0
 32 34  1  0
M  END
