mac-x0392-mac-x0348
     RDKit          3D

 24 26  0  0  0  0  0  0  0  0999 V2000
   29.6210   47.3270   -7.5390 N   0  0  0  0  0  0  0  0  0  0  0  0
   29.3360   48.4390   -6.7390 C   0  0  0  0  0  0  0  0  0  0  0  0
   28.4550   49.4210   -7.1940 C   0  0  0  0  0  0  0  0  0  0  0  0
   29.8830   48.6620   -5.4680 C   0  0  0  0  0  0  0  0  0  0  0  0
   30.8310   47.7070   -4.8680 C   0  0  0  0  0  0  0  0  0  0  0  0
   29.5500   49.7980   -4.7280 C   0  0  0  0  0  0  0  0  0  0  0  0
   28.1060   50.5380   -6.5070 N   0  0  0  0  0  0  0  0  0  0  0  0
   31.9860   48.0990   -4.6800 O   0  0  0  0  0  0  0  0  0  0  0  0
   30.4540   46.4040   -4.5190 N   0  0  0  0  0  0  0  0  0  0  0  0
   28.6630   50.6980   -5.2920 C   0  0  0  0  0  0  0  0  0  0  0  0
   30.7570   45.4000   -5.5510 C   0  0  0  0  0  0  0  0  0  0  0  0
   30.1870   45.8640   -3.1580 C   0  0  2  0  0  0  0  0  0  0  0  0
   32.1910   45.5550   -6.0640 C   0  0  0  0  0  0  0  0  0  0  0  0
   28.9220   44.9780   -2.9650 C   0  0  0  0  0  0  0  0  0  0  0  0
   30.1650   46.7990   -1.9420 C   0  0  2  0  0  0  0  0  0  0  0  0
   32.5320   45.3140   -7.2200 O   0  0  0  0  0  0  0  0  0  0  0  0
   33.0760   45.9810   -5.1200 O   0  0  0  0  0  0  0  0  0  0  0  0
   28.4590   45.1750   -1.5630 N   0  0  0  0  0  0  0  0  0  0  0  0
   28.7560   46.5950   -1.3490 C   0  0  1  0  0  0  0  0  0  0  0  0
   30.5730   48.2430   -1.9110 C   0  0  0  0  0  0  0  0  0  0  0  0
   27.0490   44.8190   -1.4060 C   0  0  0  0  0  0  0  0  0  0  0  0
   30.1650   48.9800   -0.8600 C   0  0  0  0  0  0  0  0  0  0  0  0
   28.6710   47.2460    0.0020 C   0  0  0  0  0  0  0  0  0  0  0  0
   29.3600   48.3890    0.2060 C   0  0  0  0  0  0  0  0  0  0  0  0
  1  2  1  0
  2  3  2  0
  2  4  1  0
  4  5  1  0
  4  6  2  0
  3  7  1  0
  5  8  2  0
  5  9  1  0
  6 10  1  0
  7 10  2  0
  9 11  1  0
 12  9  1  6
 11 13  1  0
 12 14  1  0
 12 15  1  0
 13 16  2  0
 13 17  1  0
 14 18  1  0
 15 19  1  0
 18 19  1  0
 15 20  1  6
 18 21  1  0
 20 22  2  0
 19 23  1  1
 22 24  1  0
 23 24  2  0
M  END
