mac-x0204-mac-x0412
     RDKit          3D

 23 25  0  0  0  0  0  0  0  0999 V2000
   31.7970   45.9790   -6.1990 O   0  0  0  0  0  0  0  0  0  0  0  0
   30.7190   46.2200   -5.3100 C   0  0  0  0  0  0  0  0  0  0  0  0
   30.0820   44.9680   -5.1570 O   0  0  0  0  0  0  0  0  0  0  0  0
   29.7470   47.2070   -5.9600 C   0  0  0  0  0  0  0  0  0  0  0  0
   31.2430   46.7620   -3.9970 C   0  0  0  0  0  0  0  0  0  0  0  0
   28.9380   48.0030   -4.9300 C   0  0  0  0  0  0  0  0  0  0  0  0
   30.4730   46.7360   -2.8230 C   0  0  0  0  0  0  0  0  0  0  0  0
   32.5190   47.3180   -3.9030 C   0  0  0  0  0  0  0  0  0  0  0  0
   30.9940   47.2560   -1.6450 C   0  0  0  0  0  0  0  0  0  0  0  0
   33.0500   47.8310   -2.7650 N   0  0  0  0  0  0  0  0  0  0  0  0
   29.0550   49.5110   -4.9880 C   0  0  0  0  0  0  0  0  0  0  0  0
   30.2810   47.2540   -0.4860 O   0  0  0  0  0  0  0  0  0  0  0  0
   32.2720   47.7870   -1.6600 C   0  0  0  0  0  0  0  0  0  0  0  0
   28.5850   50.2590   -5.9930 C   0  0  0  0  0  0  0  0  0  0  0  0
   29.7210   50.1550   -3.8560 C   0  0  0  0  0  0  0  0  0  0  0  0
   28.7020   51.7020   -5.9900 C   0  0  0  0  0  0  0  0  0  0  0  0
   29.6360   51.4850   -3.6780 C   0  0  0  0  0  0  0  0  0  0  0  0
   28.8510   52.3620   -4.6270 C   0  0  1  0  0  0  0  0  0  0  0  0
   28.6630   52.4070   -7.1220 C   0  0  0  0  0  0  0  0  0  0  0  0
   29.4040   53.8080   -4.7620 C   0  0  0  0  0  0  0  0  0  0  0  0
   28.7740   53.8660   -6.9810 C   0  0  0  0  0  0  0  0  0  0  0  0
   30.0740   54.3210   -3.8700 O   0  0  0  0  0  0  0  0  0  0  0  0
   29.1060   54.5160   -5.9180 N   0  0  0  0  0  0  0  0  0  0  0  0
  2  1  1  0
  2  3  1  0
  2  4  1  0
  2  5  1  0
  4  6  1  0
  5  7  2  0
  5  8  1  0
  7  9  1  0
  8 10  2  0
  6 11  1  0
  9 12  1  0
  9 13  2  0
 10 13  1  0
 11 14  2  0
 11 15  1  0
 14 16  1  0
 15 17  2  0
 16 18  1  0
 18 17  1  1
 16 19  2  0
 18 20  1  0
 19 21  1  0
 20 22  2  0
 20 23  1  0
 21 23  2  0
M  END
