mac-x0284-mac-x0385
     RDKit          3D

 12 12  0  0  0  0  0  0  0  0999 V2000
   28.3450   51.3920   -5.6390 C   0  0  0  0  0  0  0  0  0  0  0  0
   29.0740   50.3390   -4.8450 C   0  0  0  0  0  0  0  0  0  0  0  0
   29.5550   50.6020   -3.5460 C   0  0  0  0  0  0  0  0  0  0  0  0
   29.2760   49.0670   -5.4120 C   0  0  0  0  0  0  0  0  0  0  0  0
   29.3640   51.9440   -2.8930 C   0  0  0  0  0  0  0  0  0  0  0  0
   29.9490   48.0600   -4.7050 C   0  0  0  0  0  0  0  0  0  0  0  0
   30.2280   49.5890   -2.8460 C   0  0  0  0  0  0  0  0  0  0  0  0
   30.1630   46.7180   -5.2970 C   0  0  0  0  0  0  0  0  0  0  0  0
   30.4230   48.3320   -3.4180 C   0  0  0  0  0  0  0  0  0  0  0  0
   31.0900   47.4180   -2.6470 O   0  0  0  0  0  0  0  0  0  0  0  0
   29.9880   46.4490   -6.4740 O   0  0  0  0  0  0  0  0  0  0  0  0
   30.5810   45.7930   -4.4180 O   0  0  0  0  0  0  0  0  0  0  0  0
  1  2  1  0
  2  3  2  0
  2  4  1  0
  3  5  1  0
  4  6  2  0
  3  7  1  0
  6  8  1  0
  6  9  1  0
  7  9  2  0
  9 10  1  0
  8 11  2  0
  8 12  1  0
M  END
