mac-x0567-mac-x0373
     RDKit          3D

 20 22  0  0  0  0  0  0  0  0999 V2000
   29.8590   47.6790   -8.3680 N   0  0  0  0  0  0  0  0  0  0  0  0
   29.3500   48.7670   -7.7520 C   0  0  0  0  0  0  0  0  0  0  0  0
   28.5050   49.6090   -8.4250 N   0  0  0  0  0  0  0  0  0  0  0  0
   29.4580   49.3200   -6.4960 C   0  0  0  0  0  0  0  0  0  0  0  0
   28.0590   50.6550   -7.7110 N   0  0  0  0  0  0  0  0  0  0  0  0
   28.6280   50.5080   -6.5030 C   0  0  0  0  0  0  0  0  0  0  0  0
   30.2120   48.8500   -5.4170 C   0  0  0  0  0  0  0  0  0  0  0  0
   31.1020   47.6400   -5.3950 C   0  0  2  0  0  0  0  0  0  0  0  0
   28.5060   51.3180   -5.3570 C   0  0  0  0  0  0  0  0  0  0  0  0
   30.0590   49.6960   -4.2760 C   0  0  0  0  0  0  0  0  0  0  0  0
   30.4260   46.3140   -5.6880 C   0  0  0  0  0  0  0  0  0  0  0  0
   29.2480   50.8690   -4.2460 C   0  0  0  0  0  0  0  0  0  0  0  0
   32.3260   47.6510   -4.4980 C   0  0  0  0  0  0  0  0  0  0  0  0
   31.0950   45.6490   -6.6540 O   0  0  0  0  0  0  0  0  0  0  0  0
   29.4230   45.8240   -5.1980 O   0  0  0  0  0  0  0  0  0  0  0  0
   32.7540   46.6010   -3.6740 C   0  0  0  0  0  0  0  0  0  0  0  0
   33.0930   48.8280   -4.5260 C   0  0  0  0  0  0  0  0  0  0  0  0
   33.9170   46.7330   -2.9080 C   0  0  0  0  0  0  0  0  0  0  0  0
   34.2480   48.9590   -3.7680 C   0  0  0  0  0  0  0  0  0  0  0  0
   34.6620   47.9100   -2.9590 C   0  0  0  0  0  0  0  0  0  0  0  0
  1  2  1  0
  2  3  1  0
  2  4  2  0
  3  5  1  0
  4  6  1  0
  5  6  2  0
  4  7  1  0
  7  8  1  0
  6  9  1  0
  7 10  2  0
  8 11  1  1
  9 12  2  0
 10 12  1  0
  8 13  1  0
 11 14  1  0
 11 15  2  0
 13 16  2  0
 13 17  1  0
 16 18  1  0
 17 19  2  0
 18 20  2  0
 19 20  1  0
M  END
