mac-x0397-mac-x0139
     RDKit          3D

 26 29  0  0  0  0  0  0  0  0999 V2000
   30.5010   52.3210   -2.4530 Cl  0  0  0  0  0  0  0  0  0  0  0  0
   29.1450   51.6770   -3.4090 C   0  0  1  0  0  0  0  0  0  0  0  0
   29.2580   52.0810   -4.8550 C   0  0  0  0  0  0  0  0  0  0  0  0
   29.0840   50.1690   -3.2290 C   0  0  0  0  0  0  0  0  0  0  0  0
   29.5070   53.3890   -5.2370 N   0  0  0  0  0  0  0  0  0  0  0  0
   29.1090   51.1920   -5.9020 C   0  0  0  0  0  0  0  0  0  0  0  0
   28.9210   49.2930   -4.2390 C   0  0  0  0  0  0  0  0  0  0  0  0
   29.5380   53.4690   -6.5450 C   0  0  0  0  0  0  0  0  0  0  0  0
   29.2930   51.9990   -7.3920 S   0  0  0  0  0  0  0  0  0  0  0  0
   28.7910   49.7300   -5.7010 C   0  0  2  0  0  0  0  0  0  0  0  0
   29.7440   54.6230   -7.2010 N   0  0  0  0  0  0  0  0  0  0  0  0
   29.0970   48.7010   -6.7630 C   0  0  0  0  0  0  0  0  0  0  0  0
   27.2890   49.8000   -6.1010 C   0  0  0  0  0  0  0  0  0  0  0  0
   29.9530   47.6260   -6.9200 C   0  0  0  0  0  0  0  0  0  0  0  0
   28.2400   48.9600   -7.8260 C   0  0  0  0  0  0  0  0  0  0  0  0
   27.3960   50.0430   -7.5380 N   0  0  0  0  0  0  0  0  0  0  0  0
   30.8940   47.1820   -5.9370 N   0  0  0  0  0  0  0  0  0  0  0  0
   28.1790   48.2930   -8.9680 N   0  0  0  0  0  0  0  0  0  0  0  0
   29.9130   46.9200   -8.0730 N   0  0  0  0  0  0  0  0  0  0  0  0
   30.9450   48.0810   -4.7770 C   0  0  0  0  0  0  0  0  0  0  0  0
   30.6400   45.7560   -5.6320 C   0  0  0  0  0  0  0  0  0  0  0  0
   29.0430   47.2850   -9.0280 C   0  0  0  0  0  0  0  0  0  0  0  0
   31.9040   44.9040   -5.5530 C   0  0  0  0  0  0  0  0  0  0  0  0
   32.6260   44.7730   -6.8570 C   0  0  0  0  0  0  0  0  0  0  0  0
   32.1240   44.4040   -7.9060 O   0  0  0  0  0  0  0  0  0  0  0  0
   33.9300   45.0980   -6.8030 O   0  0  0  0  0  0  0  0  0  0  0  0
  2  1  1  1
  2  3  1  0
  2  4  1  0
  3  5  1  0
  3  6  2  0
  4  7  2  0
  5  8  2  0
  6  9  1  0
  8  9  1  0
  6 10  1  0
 10  7  1  1
  8 11  1  0
 10 12  1  0
 10 13  1  0
 12 14  2  0
 12 15  1  0
 13 16  1  0
 15 16  1  0
 14 17  1  0
 15 18  2  0
 14 19  1  0
 17 20  1  0
 17 21  1  0
 18 22  1  0
 19 22  2  0
 21 23  1  0
 23 24  1  0
 24 25  2  0
 24 26  1  0
M  END
