mac-x0348
     RDKit          3D

 15 16  0  0  0  0  0  0  0  0999 V2000
   27.3810   44.3470   -1.0840 C   0  0  0  0  0  0  0  0  0  0  0  0
   28.3610   45.2890   -1.5140 N   0  0  0  0  0  0  0  0  0  0  0  0
   28.8230   45.0360   -2.6760 C   0  0  0  0  0  0  0  0  0  0  0  0
   29.7080   45.9840   -3.0530 C   0  0  0  0  0  0  0  0  0  0  0  0
   30.3530   45.9880   -4.4450 C   0  0  0  0  0  0  0  0  0  0  0  0
   31.8300   45.8210   -4.5200 C   0  0  0  0  0  0  0  0  0  0  0  0
   32.2420   46.1940   -5.9170 C   0  0  0  0  0  0  0  0  0  0  0  0
   31.5410   46.0330   -6.9040 O   0  0  0  0  0  0  0  0  0  0  0  0
   33.3850   46.5890   -5.9800 O   0  0  0  0  0  0  0  0  0  0  0  0
   29.8200   46.8670   -1.9750 C   0  0  0  0  0  0  0  0  0  0  0  0
   30.5570   48.0210   -1.7210 C   0  0  0  0  0  0  0  0  0  0  0  0
   30.4340   48.7650   -0.5610 C   0  0  0  0  0  0  0  0  0  0  0  0
   29.5420   48.2870    0.4550 C   0  0  0  0  0  0  0  0  0  0  0  0
   28.8470   47.0760    0.2320 C   0  0  0  0  0  0  0  0  0  0  0  0
   28.9400   46.4030   -1.0180 C   0  0  0  0  0  0  0  0  0  0  0  0
  1  2  1  0
  2  3  1  0
  3  4  2  0
  4  5  1  0
  5  6  1  0
  6  7  1  0
  7  8  2  0
  7  9  1  0
  4 10  1  0
 10 11  1  0
 11 12  2  0
 12 13  1  0
 13 14  2  0
  2 15  1  0
 10 15  2  0
 14 15  1  0
M  END
