mac-x0188-mac-x0255
     RDKit          3D

 26 30  0  0  0  0  0  0  0  0999 V2000
   31.9580   45.6250   -4.3980 C   0  0  1  0  0  0  0  0  0  0  0  0
   31.6810   45.2980   -5.8680 C   0  0  0  0  0  0  0  0  0  0  0  0
   32.1500   44.2770   -6.3810 O   0  0  0  0  0  0  0  0  0  0  0  0
   31.7830   47.0660   -4.2400 C   0  0  0  0  0  0  0  0  0  0  0  0
   31.0150   44.8400   -3.5200 C   0  0  0  0  0  0  0  0  0  0  0  0
   30.9190   46.1230   -6.6380 O   0  0  0  0  0  0  0  0  0  0  0  0
   32.3010   47.7320   -3.1930 O   0  0  0  0  0  0  0  0  0  0  0  0
   31.1130   47.9060   -5.0690 C   0  0  0  0  0  0  0  0  0  0  0  0
   30.2430   43.7330   -3.8190 C   0  0  0  0  0  0  0  0  0  0  0  0
   30.7970   45.3170   -1.8910 S   0  0  0  0  0  0  0  0  0  0  0  0
   30.4950   47.3650   -6.2430 C   0  0  0  0  0  0  0  0  0  0  0  0
   31.9660   49.0680   -3.3220 N   0  0  0  0  0  0  0  0  0  0  0  0
   31.2430   49.1830   -4.4580 C   0  0  0  0  0  0  0  0  0  0  0  0
   29.4620   43.2670   -2.7070 C   0  0  0  0  0  0  0  0  0  0  0  0
   29.6730   44.0550   -1.5750 C   0  0  0  0  0  0  0  0  0  0  0  0
   29.6300   47.9530   -6.8810 O   0  0  0  0  0  0  0  0  0  0  0  0
   30.7380   50.4930   -4.8690 C   0  0  0  0  0  0  0  0  0  0  0  0
   28.5600   42.1810   -2.6080 C   0  0  0  0  0  0  0  0  0  0  0  0
   29.0140   43.7920   -0.3590 C   0  0  0  0  0  0  0  0  0  0  0  0
   30.3480   51.4510   -3.9230 C   0  0  0  0  0  0  0  0  0  0  0  0
   30.6340   50.8110   -6.2320 C   0  0  0  0  0  0  0  0  0  0  0  0
   27.9020   41.9160   -1.4030 C   0  0  0  0  0  0  0  0  0  0  0  0
   28.1290   42.7150   -0.2910 C   0  0  0  0  0  0  0  0  0  0  0  0
   29.8660   52.6990   -4.3320 C   0  0  0  0  0  0  0  0  0  0  0  0
   30.1520   52.0590   -6.6390 C   0  0  0  0  0  0  0  0  0  0  0  0
   29.7680   53.0010   -5.6880 C   0  0  0  0  0  0  0  0  0  0  0  0
  1  2  1  0
  2  3  2  0
  1  4  1  0
  1  5  1  1
  2  6  1  0
  4  7  1  0
  4  8  2  0
  5  9  2  0
  5 10  1  0
  6 11  1  0
  8 11  1  0
  7 12  1  0
  8 13  1  0
 12 13  2  0
  9 14  1  0
 10 15  1  0
 14 15  2  0
 11 16  2  0
 13 17  1  0
 14 18  1  0
 15 19  1  0
 17 20  2  0
 17 21  1  0
 18 22  2  0
 19 23  2  0
 22 23  1  0
 20 24  1  0
 21 25  2  0
 24 26  2  0
 25 26  1  0
M  END
