mac-x0588-mac-x0417
     RDKit          3D

 30 34  0  0  0  0  0  0  0  0999 V2000
   28.9030   51.7110   -6.1610 N   0  0  0  0  0  0  0  0  0  0  0  0
   28.8620   50.3480   -5.6640 C   0  0  1  0  0  0  0  0  0  0  0  0
   29.3080   49.3290   -6.7190 C   0  0  1  0  0  0  0  0  0  0  0  0
   29.7300   50.2900   -4.5000 N   0  0  0  0  0  0  0  0  0  0  0  0
   29.9260   48.9440   -3.9150 C   0  0  0  0  0  0  0  0  0  0  0  0
   29.2630   48.0050   -5.9970 C   0  0  2  0  0  0  0  0  0  0  0  0
   28.4390   49.0610   -7.8840 N   0  0  0  0  0  0  0  0  0  0  0  0
   30.2390   47.9100   -4.9190 N   0  0  0  0  0  0  0  0  0  0  0  0
   29.4670   47.0750   -7.0950 N   0  0  0  0  0  0  0  0  0  0  0  0
   28.8260   47.6940   -8.2500 C   0  0  0  0  0  0  0  0  0  0  0  0
   30.4410   46.5240   -4.3700 C   0  0  1  0  0  0  0  0  0  0  0  0
   31.7930   46.3960   -3.5670 C   0  0  0  0  0  0  0  0  0  0  0  0
   29.2260   45.9170   -3.5940 C   0  0  2  0  0  0  0  0  0  0  0  0
   33.1230   46.1170   -4.3530 C   0  0  2  0  0  0  0  0  0  0  0  0
   28.9220   46.6870   -2.4140 O   0  0  0  0  0  0  0  0  0  0  0  0
   29.4560   44.5140   -3.0540 C   0  0  0  0  0  0  0  0  0  0  0  0
   33.1030   45.3790   -5.6860 C   0  0  0  0  0  0  0  0  0  0  0  0
   28.4170   44.4080   -1.9680 C   0  0  0  0  0  0  0  0  0  0  0  0
   28.3540   45.8180   -1.4240 C   0  0  0  0  0  0  0  0  0  0  0  0
   34.2510   45.5200   -3.5360 C   0  0  0  0  0  0  0  0  0  0  0  0
   31.9150   44.9710   -6.1550 O   0  0  0  0  0  0  0  0  0  0  0  0
   34.0990   45.1450   -6.3590 O   0  0  0  0  0  0  0  0  0  0  0  0
   34.2990   44.2280   -3.1360 N   0  0  0  0  0  0  0  0  0  0  0  0
   35.3930   46.2230   -3.0970 C   0  0  0  0  0  0  0  0  0  0  0  0
   35.4950   44.0930   -2.4310 O   0  0  0  0  0  0  0  0  0  0  0  0
   36.1450   45.2900   -2.4130 C   0  0  0  0  0  0  0  0  0  0  0  0
   35.8640   47.5350   -3.2100 C   0  0  0  0  0  0  0  0  0  0  0  0
   37.3710   45.5740   -1.8140 C   0  0  0  0  0  0  0  0  0  0  0  0
   37.0890   47.8580   -2.6230 C   0  0  0  0  0  0  0  0  0  0  0  0
   37.8300   46.8950   -1.9380 C   0  0  0  0  0  0  0  0  0  0  0  0
  2  1  1  6
  2  3  1  0
  2  4  1  0
  4  5  1  0
  3  6  1  0
  3  7  1  6
  5  8  1  0
  6  8  1  0
  6  9  1  6
  7 10  1  0
  9 10  1  0
  8 11  1  0
 11 12  1  1
 11 13  1  0
 14 12  1  1
 13 15  1  0
 13 16  1  1
 14 17  1  0
 16 18  1  0
 15 19  1  0
 18 19  1  0
 14 20  1  0
 17 21  1  0
 17 22  2  0
 20 23  2  0
 20 24  1  0
 23 25  1  0
 24 26  2  0
 25 26  1  0
 24 27  1  0
 26 28  1  0
 27 29  2  0
 28 30  2  0
 29 30  1  0
M  END
