mac-x0305-mac-x0178
     RDKit          3D

 21 22  0  0  0  0  0  0  0  0999 V2000
   31.6030   47.6300   -7.8950 O   0  0  0  0  0  0  0  0  0  0  0  0
   31.0900   47.5460   -6.6140 C   0  0  0  0  0  0  0  0  0  0  0  0
   31.4010   46.5370   -5.7720 C   0  0  0  0  0  0  0  0  0  0  0  0
   30.1650   48.6510   -6.2040 C   0  0  0  0  0  0  0  0  0  0  0  0
   32.2580   45.4920   -6.0660 O   0  0  0  0  0  0  0  0  0  0  0  0
   29.1250   49.1710   -6.9880 C   0  0  0  0  0  0  0  0  0  0  0  0
   30.4150   49.1470   -4.9490 N   0  0  0  0  0  0  0  0  0  0  0  0
   30.8260   46.4780   -4.4310 C   0  0  0  0  0  0  0  0  0  0  0  0
   28.8460   48.7030   -8.2430 O   0  0  0  0  0  0  0  0  0  0  0  0
   28.3410   50.2070   -6.4750 C   0  0  0  0  0  0  0  0  0  0  0  0
   29.6370   50.1480   -4.4840 C   0  0  0  0  0  0  0  0  0  0  0  0
   29.6240   45.7960   -4.2190 C   0  0  0  0  0  0  0  0  0  0  0  0
   31.4710   47.1110   -3.3630 C   0  0  0  0  0  0  0  0  0  0  0  0
   28.6000   50.7050   -5.2030 C   0  0  0  0  0  0  0  0  0  0  0  0
   29.0560   45.7500   -2.9480 C   0  0  0  0  0  0  0  0  0  0  0  0
   30.9090   47.0680   -2.0880 C   0  0  0  0  0  0  0  0  0  0  0  0
   29.7050   46.3920   -1.8910 C   0  0  0  0  0  0  0  0  0  0  0  0
   28.9860   46.3500   -0.2810 S   0  0  0  0  0  0  0  0  0  0  0  0
   28.6590   44.7150   -0.0840 N   0  0  0  0  0  0  0  0  0  0  0  0
   29.9930   46.6830    0.6970 O   0  0  0  0  0  0  0  0  0  0  0  0
   27.7030   47.0110   -0.3270 O   0  0  0  0  0  0  0  0  0  0  0  0
  1  2  1  0
  2  3  2  3
  2  4  1  0
  3  5  1  0
  4  6  2  0
  4  7  1  0
  3  8  1  0
  6  9  1  0
  6 10  1  0
  7 11  2  0
  8 12  2  0
  8 13  1  0
 10 14  2  0
 11 14  1  0
 12 15  1  0
 13 16  2  0
 15 17  2  0
 16 17  1  0
 17 18  1  0
 18 19  1  0
 18 20  2  0
 18 21  2  0
M  END
