mac-x0392-mac-x1493
     RDKit          3D

 21 23  0  0  0  0  0  0  0  0999 V2000
   31.1460   46.3680   -7.6760 N   0  0  0  0  0  0  0  0  0  0  0  0
   29.8230   46.8050   -7.4890 C   0  0  0  0  0  0  0  0  0  0  0  0
   28.8880   46.7160   -8.5270 C   0  0  0  0  0  0  0  0  0  0  0  0
   29.3830   47.3480   -6.2680 C   0  0  0  0  0  0  0  0  0  0  0  0
   30.3160   47.4890   -5.0830 C   0  0  1  0  0  0  0  0  0  0  0  0
   28.0380   47.7620   -6.1730 C   0  0  0  0  0  0  0  0  0  0  0  0
   27.5950   47.1110   -8.4490 N   0  0  0  0  0  0  0  0  0  0  0  0
   30.3240   48.8220   -4.4920 N   0  0  0  0  0  0  0  0  0  0  0  0
   29.9040   46.5210   -4.1230 O   0  0  0  0  0  0  0  0  0  0  0  0
   27.2020   47.6250   -7.2700 C   0  0  0  0  0  0  0  0  0  0  0  0
   30.0180   49.8670   -5.1800 C   0  0  0  0  0  0  0  0  0  0  0  0
   29.9620   51.2820   -4.7860 C   0  0  0  0  0  0  0  0  0  0  0  0
   29.3410   52.2600   -5.5540 C   0  0  0  0  0  0  0  0  0  0  0  0
   30.5540   51.6600   -3.5920 C   0  0  0  0  0  0  0  0  0  0  0  0
   29.3330   53.5870   -5.1020 C   0  0  0  0  0  0  0  0  0  0  0  0
   30.5640   52.9330   -3.1290 N   0  0  0  0  0  0  0  0  0  0  0  0
   29.9620   53.8810   -3.8710 C   0  0  0  0  0  0  0  0  0  0  0  0
   28.7170   54.6080   -5.8470 C   0  0  0  0  0  0  0  0  0  0  0  0
   29.9510   55.1960   -3.4300 C   0  0  0  0  0  0  0  0  0  0  0  0
   28.7230   55.9200   -5.3760 C   0  0  0  0  0  0  0  0  0  0  0  0
   29.3400   56.2160   -4.1670 C   0  0  0  0  0  0  0  0  0  0  0  0
  1  2  1  0
  2  3  2  0
  2  4  1  0
  4  5  1  0
  4  6  2  0
  3  7  1  0
  5  8  1  0
  5  9  1  1
  6 10  1  0
  7 10  2  0
  8 11  2  3
 11 12  1  0
 12 13  2  0
 12 14  1  0
 13 15  1  0
 14 16  2  0
 15 17  2  0
 16 17  1  0
 15 18  1  0
 17 19  1  0
 18 20  2  0
 19 21  2  0
 20 21  1  0
M  END
