mac-x0132-mac-x0283
     RDKit          3D

 12 13  0  0  0  0  0  0  0  0999 V2000
   28.3540   52.4420   -7.2820 N   0  0  0  0  0  0  0  0  0  0  0  0
   29.0680   52.7990   -6.0580 C   0  0  1  0  0  0  0  0  0  0  0  0
   28.7000   54.1970   -5.8070 N   0  0  0  0  0  0  0  0  0  0  0  0
   28.7100   51.9120   -4.8570 C   0  0  2  0  0  0  0  0  0  0  0  0
   28.8820   54.9640   -7.0420 N   0  0  0  0  0  0  0  0  0  0  0  0
   29.2590   52.6210   -3.5810 C   0  0  2  0  0  0  0  0  0  0  0  0
   29.4040   54.7830   -4.6560 C   0  0  0  0  0  0  0  0  0  0  0  0
   29.1610   50.4770   -5.0440 C   0  0  0  0  0  0  0  0  0  0  0  0
   30.1290   53.7780   -3.8870 N   0  0  0  0  0  0  0  0  0  0  0  0
   29.9520   51.7070   -2.6000 C   0  0  0  0  0  0  0  0  0  0  0  0
   29.8470   49.8080   -4.1130 C   0  0  0  0  0  0  0  0  0  0  0  0
   30.2110   50.4160   -2.8610 C   0  0  0  0  0  0  0  0  0  0  0  0
  2  1  1  6
  2  3  1  0
  2  4  1  0
  3  5  1  0
  4  6  1  0
  3  7  1  0
  4  8  1  6
  6  9  1  0
  7  9  1  0
  6 10  1  6
  8 11  2  0
 10 12  2  0
 11 12  1  0
M  END
