mac-x0588-mac-x0394
     RDKit          3D

 27 30  0  0  0  0  0  0  0  0999 V2000
   28.1330   51.6520   -6.2190 N   0  0  0  0  0  0  0  0  0  0  0  0
   28.2150   52.4840   -7.3420 C   0  0  0  0  0  0  0  0  0  0  0  0
   29.3110   53.2600   -7.4200 O   0  0  0  0  0  0  0  0  0  0  0  0
   29.1230   50.5890   -5.8750 C   0  0  1  0  0  0  0  0  0  0  0  0
   27.0490   51.9080   -5.2870 C   0  0  0  0  0  0  0  0  0  0  0  0
   27.4040   52.5990   -8.2560 O   0  0  0  0  0  0  0  0  0  0  0  0
   29.0020   50.2100   -4.4440 N   0  0  0  0  0  0  0  0  0  0  0  0
   29.2520   49.3570   -6.8180 C   0  0  1  0  0  0  0  0  0  0  0  0
   27.0150   53.0920   -4.5290 C   0  0  0  0  0  0  0  0  0  0  0  0
   25.9960   50.9940   -5.1050 C   0  0  0  0  0  0  0  0  0  0  0  0
   29.9570   49.1840   -3.9850 C   0  0  0  0  0  0  0  0  0  0  0  0
   29.1940   48.0840   -6.0020 C   0  0  2  0  0  0  0  0  0  0  0  0
   28.3930   49.0530   -7.9700 N   0  0  0  0  0  0  0  0  0  0  0  0
   25.9710   53.3470   -3.6340 C   0  0  0  0  0  0  0  0  0  0  0  0
   24.9580   51.2610   -4.2040 C   0  0  0  0  0  0  0  0  0  0  0  0
   23.6810   50.1220   -4.0040 Cl  0  0  0  0  0  0  0  0  0  0  0  0
   25.9670   54.8130   -2.7290 Cl  0  0  0  0  0  0  0  0  0  0  0  0
   30.1880   48.0990   -4.9500 N   0  0  0  0  0  0  0  0  0  0  0  0
   29.4900   47.1430   -7.0770 N   0  0  0  0  0  0  0  0  0  0  0  0
   28.6870   47.6300   -8.1990 C   0  0  0  0  0  0  0  0  0  0  0  0
   24.9390   52.4360   -3.4650 C   0  0  0  0  0  0  0  0  0  0  0  0
   30.5280   46.7570   -4.3980 C   0  0  0  0  0  0  0  0  0  0  0  0
   29.8400   46.1750   -3.1350 C   0  0  1  0  0  0  0  0  0  0  0  0
   28.6930   46.8610   -2.6180 O   0  0  0  0  0  0  0  0  0  0  0  0
   29.4040   44.7260   -3.2440 C   0  0  0  0  0  0  0  0  0  0  0  0
   28.5770   44.5540   -1.9870 C   0  0  0  0  0  0  0  0  0  0  0  0
   28.1170   45.9650   -1.6480 C   0  0  0  0  0  0  0  0  0  0  0  0
  1  2  1  0
  2  3  1  0
  4  1  1  6
  1  5  1  0
  2  6  2  0
  4  7  1  0
  4  8  1  0
  5  9  2  0
  5 10  1  0
  7 11  1  0
  8 12  1  0
  8 13  1  6
  9 14  1  0
 10 15  2  0
 15 16  1  0
 14 17  1  0
 11 18  1  0
 12 18  1  0
 12 19  1  6
 13 20  1  0
 19 20  1  0
 14 21  2  0
 15 21  1  0
 18 22  1  0
 23 22  1  6
 23 24  1  0
 23 25  1  0
 25 26  1  0
 24 27  1  0
 26 27  1  0
M  END
