mac-x0587-mac-x0282
     RDKit          3D

 19 20  0  0  0  0  0  0  0  0999 V2000
   29.5210   45.6700   -2.9490 C   0  0  0  0  0  0  0  0  0  0  0  0
   30.4920   46.4630   -3.8140 C   0  0  2  0  0  0  0  0  0  0  0  0
   32.2500   45.9210   -3.6320 S   0  0  0  0  0  0  0  0  0  0  0  0
   30.3270   47.9790   -3.5760 C   0  0  0  0  0  0  0  0  0  0  0  0
   33.0580   46.7030   -5.0720 C   0  0  0  0  0  0  0  0  0  0  0  0
   30.5100   48.4590   -2.4530 O   0  0  0  0  0  0  0  0  0  0  0  0
   29.9710   48.7760   -4.6530 N   0  0  0  0  0  0  0  0  0  0  0  0
   33.7710   45.6970   -5.9540 C   0  0  0  0  0  0  0  0  0  0  0  0
   30.0080   50.1610   -4.7220 C   0  0  0  0  0  0  0  0  0  0  0  0
   29.1890   48.2650   -5.7880 C   0  0  1  0  0  0  0  0  0  0  0  0
   34.9250   45.7120   -6.3500 O   0  0  0  0  0  0  0  0  0  0  0  0
   32.9620   44.6730   -6.3060 O   0  0  0  0  0  0  0  0  0  0  0  0
   28.0820   47.5340   -5.3220 O   0  0  0  0  0  0  0  0  0  0  0  0
   29.2390   50.5920   -5.7230 C   0  0  0  0  0  0  0  0  0  0  0  0
   28.6390   49.5380   -6.3910 N   0  0  0  0  0  0  0  0  0  0  0  0
   29.9500   47.4900   -6.8140 C   0  0  0  0  0  0  0  0  0  0  0  0
   29.6770   47.6080   -8.1240 C   0  0  0  0  0  0  0  0  0  0  0  0
   28.4810   49.7530   -7.8000 N   0  0  0  0  0  0  0  0  0  0  0  0
   28.5950   48.5280   -8.5970 C   0  0  0  0  0  0  0  0  0  0  0  0
  2  1  1  1
  2  3  1  0
  2  4  1  0
  3  5  1  0
  4  6  2  0
  4  7  1  0
  5  8  1  0
  7  9  1  0
  7 10  1  0
  8 11  2  0
  8 12  1  0
 10 13  1  1
  9 14  2  0
 10 15  1  0
 14 15  1  0
 10 16  1  0
 16 17  2  0
 15 18  1  0
 17 19  1  0
 18 19  1  0
M  END
