mac-x0139-mac-x0337
     RDKit          3D

 26 28  0  0  0  0  0  0  0  0999 V2000
   29.7040   47.0440   -4.5570 C   0  0  0  0  0  0  0  0  0  0  0  0
   29.9750   46.9560   -5.9730 N   0  0  0  0  0  0  0  0  0  0  0  0
   30.9400   45.9680   -6.4240 C   0  0  0  0  0  0  0  0  0  0  0  0
   29.2140   47.6430   -6.9480 C   0  0  0  0  0  0  0  0  0  0  0  0
   32.2700   46.0810   -5.7190 C   0  0  0  0  0  0  0  0  0  0  0  0
   28.8960   48.9740   -7.0080 C   0  0  0  0  0  0  0  0  0  0  0  0
   28.7330   46.8500   -7.9780 N   0  0  0  0  0  0  0  0  0  0  0  0
   33.1440   44.9660   -6.1960 C   0  0  0  0  0  0  0  0  0  0  0  0
   28.0920   49.4940   -8.1100 C   0  0  0  0  0  0  0  0  0  0  0  0
   28.0010   47.3290   -8.9820 C   0  0  0  0  0  0  0  0  0  0  0  0
   29.1870   50.0770   -6.1760 C   0  0  0  0  0  0  0  0  0  0  0  0
   32.8820   43.7690   -5.9060 O   0  0  0  0  0  0  0  0  0  0  0  0
   34.2860   45.2070   -6.9750 O   0  0  0  0  0  0  0  0  0  0  0  0
   27.6730   48.6490   -9.0590 N   0  0  0  0  0  0  0  0  0  0  0  0
   27.9260   50.7820   -7.9420 N   0  0  0  0  0  0  0  0  0  0  0  0
   28.5470   51.1410   -6.8370 C   0  0  0  0  0  0  0  0  0  0  0  0
   30.1080   50.0930   -4.7080 S   0  0  0  0  0  0  0  0  0  0  0  0
   29.4310   49.7660   -3.3250 O   0  0  0  0  0  0  0  0  0  0  0  0
   29.7410   51.6620   -4.3150 N   0  0  0  0  0  0  0  0  0  0  0  0
   31.7410   50.6890   -4.9200 C   0  0  0  0  0  0  0  0  0  0  0  0
   32.7750   50.0580   -4.3650 C   0  0  0  0  0  0  0  0  0  0  0  0
   31.8890   51.8060   -5.6650 C   0  0  0  0  0  0  0  0  0  0  0  0
   34.0830   50.5280   -4.5300 C   0  0  0  0  0  0  0  0  0  0  0  0
   33.1710   52.2800   -5.8360 C   0  0  0  0  0  0  0  0  0  0  0  0
   34.2710   51.6690   -5.2860 C   0  0  0  0  0  0  0  0  0  0  0  0
   35.6570   52.2200   -5.4950 C   0  0  0  0  0  0  0  0  0  0  0  0
  1  2  1  0
  2  3  1  0
  2  4  1  0
  3  5  1  0
  4  6  2  0
  4  7  1  0
  5  8  1  0
  6  9  1  0
  7 10  2  0
  6 11  1  0
  8 12  2  0
  8 13  1  0
  9 14  1  0
 10 14  1  0
  9 15  2  0
 11 16  2  0
 15 16  1  0
 11 17  1  0
 17 18  2  0
 17 19  1  0
 17 20  1  0
 20 21  2  0
 20 22  1  0
 21 23  1  0
 22 24  2  0
 23 25  2  0
 24 25  1  0
 25 26  1  0
M  END
