mac-x0348-mac-x0206
     RDKit          3D

 27 29  0  0  0  0  0  0  0  0999 V2000
   27.4700   44.2930   -1.2200 C   0  0  0  0  0  0  0  0  0  0  0  0
   28.4240   45.2660   -1.7050 N   0  0  0  0  0  0  0  0  0  0  0  0
   28.9330   45.2920   -2.9740 C   0  0  0  0  0  0  0  0  0  0  0  0
   28.9490   46.2960   -0.9590 C   0  0  0  0  0  0  0  0  0  0  0  0
   29.8120   46.3560   -3.0770 C   0  0  0  0  0  0  0  0  0  0  0  0
   29.8260   46.9990   -1.7920 C   0  0  0  0  0  0  0  0  0  0  0  0
   28.7250   46.6670    0.3780 C   0  0  0  0  0  0  0  0  0  0  0  0
   30.5850   46.7230   -4.3290 C   0  0  1  0  0  0  0  0  0  0  0  0
   30.5010   48.1180   -1.2570 C   0  0  0  0  0  0  0  0  0  0  0  0
   29.4090   47.7780    0.8780 C   0  0  0  0  0  0  0  0  0  0  0  0
   31.0860   45.4580   -5.0490 C   0  0  0  0  0  0  0  0  0  0  0  0
   29.7770   47.6480   -5.2700 C   0  0  0  0  0  0  0  0  0  0  0  0
   30.2860   48.4950    0.0730 C   0  0  0  0  0  0  0  0  0  0  0  0
   32.1060   45.7600   -6.1120 C   0  0  0  0  0  0  0  0  0  0  0  0
   29.0160   48.7480   -4.5240 C   0  0  0  0  0  0  0  0  0  0  0  0
   31.8990   45.8050   -7.3140 O   0  0  0  0  0  0  0  0  0  0  0  0
   33.3380   45.9890   -5.6200 O   0  0  0  0  0  0  0  0  0  0  0  0
   29.0900   50.0110   -5.2330 N   0  0  0  0  0  0  0  0  0  0  0  0
   29.8630   51.0580   -4.7800 C   0  0  0  0  0  0  0  0  0  0  0  0
   30.8590   50.8970   -4.0790 O   0  0  0  0  0  0  0  0  0  0  0  0
   29.4480   52.4430   -5.1800 C   0  0  0  0  0  0  0  0  0  0  0  0
   29.6670   53.5980   -4.4080 C   0  0  0  0  0  0  0  0  0  0  0  0
   28.7920   52.5800   -6.4160 C   0  0  0  0  0  0  0  0  0  0  0  0
   30.3000   53.5290   -3.1920 O   0  0  0  0  0  0  0  0  0  0  0  0
   29.2410   54.8520   -4.8630 C   0  0  0  0  0  0  0  0  0  0  0  0
   28.3680   53.8320   -6.8690 C   0  0  0  0  0  0  0  0  0  0  0  0
   28.5930   54.9660   -6.0930 C   0  0  0  0  0  0  0  0  0  0  0  0
  1  2  1  0
  2  3  1  0
  2  4  1  0
  3  5  2  0
  4  6  2  0
  5  6  1  0
  4  7  1  0
  5  8  1  0
  6  9  1  0
  7 10  2  0
  8 11  1  6
  8 12  1  0
  9 13  2  0
 10 13  1  0
 11 14  1  0
 12 15  1  0
 14 16  2  0
 14 17  1  0
 15 18  1  0
 18 19  1  0
 19 20  2  0
 19 21  1  0
 21 22  2  0
 21 23  1  0
 22 24  1  0
 22 25  1  0
 23 26  2  0
 25 27  2  0
 26 27  1  0
M  END
