mac-x0346-mac-x0148
     RDKit          3D

 25 28  0  0  0  0  0  0  0  0999 V2000
   29.0570   54.9260   -5.5330 O   0  0  0  0  0  0  0  0  0  0  0  0
   29.9410   54.5090   -4.5100 N   0  0  0  0  0  0  0  0  0  0  0  0
   29.6890   53.2710   -3.9690 C   0  0  0  0  0  0  0  0  0  0  0  0
   29.4560   53.1460   -2.7660 O   0  0  0  0  0  0  0  0  0  0  0  0
   29.7470   52.0580   -4.9100 C   0  0  1  0  0  0  0  0  0  0  0  0
   29.2860   50.7340   -4.2470 C   0  0  1  0  0  0  0  0  0  0  0  0
   29.1870   52.3050   -6.3030 C   0  0  0  0  0  0  0  0  0  0  0  0
   28.9210   50.8860   -2.8800 O   0  0  0  0  0  0  0  0  0  0  0  0
   28.1880   50.0450   -5.0740 C   0  0  0  0  0  0  0  0  0  0  0  0
   28.7200   51.2930   -7.0560 C   0  0  0  0  0  0  0  0  0  0  0  0
   28.7130   49.8760   -6.5150 C   0  0  2  0  0  0  0  0  0  0  0  0
   27.8920   48.9270   -7.2930 N   0  0  0  0  0  0  0  0  0  0  0  0
   30.0970   49.2570   -6.4400 C   0  0  0  0  0  0  0  0  0  0  0  0
   28.6430   47.8410   -7.9380 C   0  0  0  0  0  0  0  0  0  0  0  0
   29.8720   47.8510   -5.8730 C   0  0  2  0  0  0  0  0  0  0  0  0
   31.0540   47.3530   -5.1300 N   0  0  0  0  0  0  0  0  0  0  0  0
   29.3860   47.0320   -6.9720 N   0  0  0  0  0  0  0  0  0  0  0  0
   30.7920   46.8880   -3.7280 C   0  0  2  0  0  0  0  0  0  0  0  0
   31.9360   46.4280   -5.8420 C   0  0  0  0  0  0  0  0  0  0  0  0
   30.3060   47.9190   -2.6860 C   0  0  0  0  0  0  0  0  0  0  0  0
   32.0620   46.3640   -3.0020 C   0  0  2  0  0  0  0  0  0  0  0  0
   33.3060   46.3710   -5.1770 C   0  0  0  0  0  0  0  0  0  0  0  0
   32.5290   47.5570   -2.1990 C   0  0  0  0  0  0  0  0  0  0  0  0
   31.3360   48.1590   -1.7150 O   0  0  0  0  0  0  0  0  0  0  0  0
   33.1820   45.7150   -3.8220 C   0  0  0  0  0  0  0  0  0  0  0  0
  1  2  1  0
  2  3  1  0
  3  4  2  0
  5  3  1  1
  5  6  1  0
  5  7  1  0
  6  8  1  1
  6  9  1  0
  7 10  2  0
 11  9  1  1
 11 10  1  0
 11 12  1  0
 11 13  1  0
 12 14  1  0
 13 15  1  0
 15 16  1  6
 14 17  1  0
 15 17  1  0
 16 18  1  0
 16 19  1  0
 18 20  1  1
 18 21  1  0
 19 22  1  0
 21 23  1  6
 20 24  1  0
 23 24  1  0
 21 25  1  0
 22 25  1  0
M  END
