mac-x0255-mac-x0379
     RDKit          3D

 22 24  0  0  0  0  0  0  0  0999 V2000
   31.9250   43.8500   -6.9810 O   0  0  0  0  0  0  0  0  0  0  0  0
   32.5880   45.0160   -6.7970 C   0  0  0  0  0  0  0  0  0  0  0  0
   32.8720   45.6960   -7.7710 O   0  0  0  0  0  0  0  0  0  0  0  0
   32.8830   45.2790   -5.3400 C   0  0  0  0  0  0  0  0  0  0  0  0
   31.7040   45.0390   -4.4370 C   0  0  0  0  0  0  0  0  0  0  0  0
   30.9060   45.9590   -3.7910 C   0  0  0  0  0  0  0  0  0  0  0  0
   31.1950   43.4450   -4.0870 S   0  0  0  0  0  0  0  0  0  0  0  0
   31.1160   47.3400   -3.9130 N   0  0  0  0  0  0  0  0  0  0  0  0
   29.8600   45.3740   -2.9950 C   0  0  0  0  0  0  0  0  0  0  0  0
   29.9090   43.9810   -3.0720 C   0  0  0  0  0  0  0  0  0  0  0  0
   30.0940   48.0770   -4.2070 C   0  0  0  0  0  0  0  0  0  0  0  0
   28.8480   45.9590   -2.1920 C   0  0  0  0  0  0  0  0  0  0  0  0
   28.9870   43.1720   -2.3770 C   0  0  0  0  0  0  0  0  0  0  0  0
   28.9010   47.4490   -4.3790 O   0  0  0  0  0  0  0  0  0  0  0  0
   27.9320   45.1610   -1.5010 C   0  0  0  0  0  0  0  0  0  0  0  0
   28.0030   43.7810   -1.5940 C   0  0  0  0  0  0  0  0  0  0  0  0
   29.9610   49.4920   -4.3980 C   0  0  0  0  0  0  0  0  0  0  0  0
   30.3540   50.5090   -3.5460 C   0  0  0  0  0  0  0  0  0  0  0  0
   29.2520   50.1700   -5.7950 S   0  0  0  0  0  0  0  0  0  0  0  0
   29.5190   51.7440   -5.1660 C   0  0  0  0  0  0  0  0  0  0  0  0
   30.1010   51.7900   -3.9860 N   0  0  0  0  0  0  0  0  0  0  0  0
   29.0990   52.9370   -5.9480 C   0  0  0  0  0  0  0  0  0  0  0  0
  1  2  1  0
  2  3  2  0
  2  4  1  0
  4  5  1  0
  5  6  2  0
  5  7  1  0
  6  8  1  0
  6  9  1  0
  7 10  1  0
  9 10  2  0
  8 11  2  3
  9 12  1  0
 10 13  1  0
 11 14  1  0
 12 15  2  0
 13 16  2  0
 15 16  1  0
 11 17  1  0
 17 18  2  0
 17 19  1  0
 19 20  1  0
 18 21  1  0
 20 21  2  0
 20 22  1  0
M  END
