mac-x0188-mac-x0346
     RDKit          3D

 19 20  0  0  0  0  0  0  0  0999 V2000
   32.1770   44.2390   -4.0280 C   0  0  0  0  0  0  0  0  0  0  0  0
   31.7720   45.6480   -3.8580 C   0  0  0  0  0  0  0  0  0  0  0  0
   32.2000   46.2350   -2.7170 O   0  0  0  0  0  0  0  0  0  0  0  0
   31.0380   46.5490   -4.6050 C   0  0  0  0  0  0  0  0  0  0  0  0
   30.4210   46.2840   -5.8780 C   0  0  0  0  0  0  0  0  0  0  0  0
   31.7630   47.5280   -2.6890 N   0  0  0  0  0  0  0  0  0  0  0  0
   31.0650   47.7410   -3.8180 C   0  0  0  0  0  0  0  0  0  0  0  0
   29.2570   45.9410   -6.0030 O   0  0  0  0  0  0  0  0  0  0  0  0
   31.2360   46.4290   -6.9590 O   0  0  0  0  0  0  0  0  0  0  0  0
   30.5200   49.0790   -4.0050 C   0  0  0  0  0  0  0  0  0  0  0  0
   30.5370   49.8940   -2.8760 C   0  0  0  0  0  0  0  0  0  0  0  0
   30.0140   49.5940   -5.2130 C   0  0  0  0  0  0  0  0  0  0  0  0
   30.0930   51.1940   -2.9260 C   0  0  0  0  0  0  0  0  0  0  0  0
   29.5570   50.9270   -5.2660 C   0  0  0  0  0  0  0  0  0  0  0  0
   29.6160   51.7260   -4.1060 C   0  0  0  0  0  0  0  0  0  0  0  0
   29.2050   53.1450   -4.0690 C   0  0  0  0  0  0  0  0  0  0  0  0
   29.5480   53.9380   -5.1410 N   0  0  0  0  0  0  0  0  0  0  0  0
   28.6380   53.5900   -3.0810 O   0  0  0  0  0  0  0  0  0  0  0  0
   28.9730   55.2300   -5.1550 O   0  0  0  0  0  0  0  0  0  0  0  0
  1  2  1  0
  2  3  1  0
  2  4  2  0
  4  5  1  0
  3  6  1  0
  4  7  1  0
  6  7  2  0
  5  8  2  0
  5  9  1  0
  7 10  1  0
 10 11  2  0
 10 12  1  0
 11 13  1  0
 12 14  2  0
 13 15  2  0
 14 15  1  0
 15 16  1  0
 16 17  1  0
 16 18  2  0
 17 19  1  0
M  END
