mac-x0357-mac-x0337
     RDKit          3D

 24 25  0  0  0  0  0  0  0  0999 V2000
   32.2380   43.3380   -4.9050 C   0  0  0  0  0  0  0  0  0  0  0  0
   33.0550   44.5090   -4.4310 C   0  0  0  0  0  0  0  0  0  0  0  0
   34.1460   44.3260   -3.5690 C   0  0  0  0  0  0  0  0  0  0  0  0
   32.7520   45.8240   -4.8360 C   0  0  0  0  0  0  0  0  0  0  0  0
   34.5340   43.0970   -3.1110 O   0  0  0  0  0  0  0  0  0  0  0  0
   31.6220   46.1340   -5.7390 C   0  0  0  0  0  0  0  0  0  0  0  0
   33.5270   46.9090   -4.3850 C   0  0  0  0  0  0  0  0  0  0  0  0
   34.9140   45.4030   -3.1220 C   0  0  0  0  0  0  0  0  0  0  0  0
   30.5750   46.7580   -5.3640 N   0  0  0  0  0  0  0  0  0  0  0  0
   31.8430   45.6750   -6.9820 O   0  0  0  0  0  0  0  0  0  0  0  0
   34.6050   46.6980   -3.5300 C   0  0  0  0  0  0  0  0  0  0  0  0
   30.3580   47.2470   -4.0070 C   0  0  0  0  0  0  0  0  0  0  0  0
   29.1390   48.1840   -3.9220 C   0  0  0  0  0  0  0  0  0  0  0  0
   29.4970   49.6130   -3.8380 N   0  0  0  0  0  0  0  0  0  0  0  0
   29.7610   50.3860   -5.1310 S   0  0  1  0  0  0  0  0  0  0  0  0
   29.2690   50.0320   -6.4430 O   0  0  0  0  0  0  0  0  0  0  0  0
   28.8190   51.7340   -4.7720 N   0  0  0  0  0  0  0  0  0  0  0  0
   31.4340   50.9400   -5.2160 C   0  0  0  0  0  0  0  0  0  0  0  0
   32.4720   50.0110   -5.1120 C   0  0  0  0  0  0  0  0  0  0  0  0
   31.7160   52.2970   -5.3840 C   0  0  0  0  0  0  0  0  0  0  0  0
   33.7970   50.4440   -5.1770 C   0  0  0  0  0  0  0  0  0  0  0  0
   33.0430   52.7260   -5.4490 C   0  0  0  0  0  0  0  0  0  0  0  0
   34.0920   51.8010   -5.3460 C   0  0  0  0  0  0  0  0  0  0  0  0
   35.5180   52.2680   -5.4180 C   0  0  0  0  0  0  0  0  0  0  0  0
  1  2  1  0
  2  3  2  0
  2  4  1  0
  3  5  1  0
  4  6  1  0
  4  7  2  0
  3  8  1  0
  6  9  2  3
  6 10  1  0
  7 11  1  0
  8 11  2  0
  9 12  1  0
 12 13  1  0
 13 14  1  0
 14 15  2  0
 15 16  2  0
 15 17  1  1
 15 18  1  0
 18 19  2  0
 18 20  1  0
 19 21  1  0
 20 22  2  0
 21 23  2  0
 22 23  1  0
 23 24  1  0
M  END
