mac-x0472-mac-x0301
     RDKit          3D

 26 29  0  0  0  0  0  0  0  0999 V2000
   30.7270   51.5460   -4.3590 O   0  0  0  0  0  0  0  0  0  0  0  0
   31.2470   50.1340   -4.5310 S   0  0  0  0  0  0  0  0  0  0  0  0
   31.5860   48.6750   -4.4780 N   0  0  0  0  0  0  0  0  0  0  0  0
   30.4640   49.9630   -5.9820 N   0  0  0  0  0  0  0  0  0  0  0  0
   32.8380   50.6530   -4.5330 C   0  0  0  0  0  0  0  0  0  0  0  0
   30.9260   47.5860   -4.6090 C   0  0  0  0  0  0  0  0  0  0  0  0
   29.6600   50.9420   -6.6530 C   0  0  0  0  0  0  0  0  0  0  0  0
   33.9080   49.8280   -4.7370 C   0  0  0  0  0  0  0  0  0  0  0  0
   33.1560   51.9960   -4.3200 C   0  0  0  0  0  0  0  0  0  0  0  0
   31.4330   46.3150   -4.5230 O   0  0  0  0  0  0  0  0  0  0  0  0
   29.8800   51.5060   -7.8500 N   0  0  0  0  0  0  0  0  0  0  0  0
   28.1930   51.7300   -6.2210 S   0  0  0  0  0  0  0  0  0  0  0  0
   35.2280   50.2630   -4.7400 C   0  0  0  0  0  0  0  0  0  0  0  0
   34.4680   52.4530   -4.3170 C   0  0  0  0  0  0  0  0  0  0  0  0
   29.5050   47.7800   -4.8730 C   0  0  0  0  0  0  0  0  0  0  0  0
   28.0010   52.7020   -7.6140 C   0  0  0  0  0  0  0  0  0  0  0  0
   29.0780   52.3550   -8.3120 N   0  0  0  0  0  0  0  0  0  0  0  0
   35.5080   51.5940   -4.5270 C   0  0  0  0  0  0  0  0  0  0  0  0
   28.9260   47.1910   -5.9960 C   0  0  0  0  0  0  0  0  0  0  0  0
   28.6560   48.5220   -4.0810 C   0  0  0  0  0  0  0  0  0  0  0  0
   27.5940   47.3590   -6.2680 C   0  0  0  0  0  0  0  0  0  0  0  0
   27.3090   48.6980   -4.3440 C   0  0  0  0  0  0  0  0  0  0  0  0
   29.4560   46.3940   -6.9970 O   0  0  0  0  0  0  0  0  0  0  0  0
   26.7720   48.1030   -5.4620 C   0  0  0  0  0  0  0  0  0  0  0  0
   27.2950   46.6640   -7.4430 O   0  0  0  0  0  0  0  0  0  0  0  0
   28.5290   46.3760   -8.0800 C   0  0  0  0  0  0  0  0  0  0  0  0
  1  2  2  0
  2  3  1  0
  2  4  1  0
  2  5  1  0
  3  6  2  3
  4  7  1  0
  5  8  2  0
  5  9  1  0
  6 10  1  0
  7 11  2  0
  7 12  1  0
  8 13  1  0
  9 14  2  0
  6 15  1  0
 12 16  1  0
 11 17  1  0
 16 17  2  0
 13 18  2  0
 14 18  1  0
 15 19  1  0
 15 20  2  0
 19 21  2  0
 20 22  1  0
 19 23  1  0
 21 24  1  0
 22 24  2  0
 21 25  1  0
 23 26  1  0
 25 26  1  0
M  END
