mac-x0193-mac-x0213
     RDKit          3D

 24 26  0  0  0  0  0  0  0  0999 V2000
   34.0800   45.3520   -7.0610 O   0  0  0  0  0  0  0  0  0  0  0  0
   33.5410   45.5100   -5.7470 C   0  0  1  0  0  0  0  0  0  0  0  0
   32.0390   45.7320   -5.7810 C   0  0  0  0  0  0  0  0  0  0  0  0
   33.8550   44.2630   -4.9200 C   0  0  0  0  0  0  0  0  0  0  0  0
   34.3940   44.6270   -3.6230 N   0  0  0  0  0  0  0  0  0  0  0  0
   31.4410   45.9500   -6.8430 O   0  0  0  0  0  0  0  0  0  0  0  0
   31.3620   45.6710   -4.4310 C   0  0  0  0  0  0  0  0  0  0  0  0
   35.0720   43.6970   -2.8790 C   0  0  0  0  0  0  0  0  0  0  0  0
   31.0600   47.0430   -3.8030 C   0  0  0  0  0  0  0  0  0  0  0  0
   30.0200   44.9250   -4.4580 C   0  0  0  0  0  0  0  0  0  0  0  0
   34.6980   42.5430   -2.7340 O   0  0  0  0  0  0  0  0  0  0  0  0
   36.1960   44.2640   -2.3330 N   0  0  0  0  0  0  0  0  0  0  0  0
   30.0140   46.6450   -2.8130 C   0  0  0  0  0  0  0  0  0  0  0  0
   29.4210   45.4350   -3.1870 C   0  0  0  0  0  0  0  0  0  0  0  0
   37.3390   43.5160   -1.8150 C   0  0  0  0  0  0  0  0  0  0  0  0
   29.6190   47.3090   -1.6650 C   0  0  0  0  0  0  0  0  0  0  0  0
   28.4230   44.8590   -2.4240 C   0  0  0  0  0  0  0  0  0  0  0  0
   37.6260   42.2600   -2.6270 C   0  0  0  0  0  0  0  0  0  0  0  0
   37.1860   43.2110   -0.3160 C   0  0  0  0  0  0  0  0  0  0  0  0
   28.6100   46.7360   -0.8870 C   0  0  0  0  0  0  0  0  0  0  0  0
   28.0170   45.5200   -1.2640 C   0  0  0  0  0  0  0  0  0  0  0  0
   38.7890   41.4560   -2.0370 C   0  0  0  0  0  0  0  0  0  0  0  0
   38.3630   42.4250    0.2690 C   0  0  0  0  0  0  0  0  0  0  0  0
   39.4080   42.0850   -0.7830 C   0  0  0  0  0  0  0  0  0  0  0  0
  2  1  1  6
  2  3  1  0
  2  4  1  0
  4  5  1  0
  3  6  2  0
  3  7  1  0
  5  8  1  0
  7  9  1  0
  7 10  1  0
  8 11  2  0
  8 12  1  0
  9 13  1  0
 10 14  1  0
 13 14  2  0
 12 15  1  0
 13 16  1  0
 14 17  1  0
 15 18  1  0
 15 19  1  0
 16 20  2  0
 17 21  2  0
 20 21  1  0
 18 22  1  0
 19 23  1  0
 22 24  1  0
 23 24  1  0
M  END
