mac-x0354-mac-x0358
     RDKit          3D

 23 25  0  0  0  0  0  0  0  0999 V2000
   36.1940   42.7240   -2.3230 C   0  0  0  0  0  0  0  0  0  0  0  0
   35.1150   43.1670   -3.1720 N   0  0  0  0  0  0  0  0  0  0  0  0
   34.2450   42.2640   -3.6550 N   0  0  0  0  0  0  0  0  0  0  0  0
   34.8530   44.4580   -3.5700 C   0  0  0  0  0  0  0  0  0  0  0  0
   33.4010   42.9990   -4.3810 C   0  0  0  0  0  0  0  0  0  0  0  0
   33.7160   44.3810   -4.3750 C   0  0  0  0  0  0  0  0  0  0  0  0
   35.6660   45.6010   -3.1690 C   0  0  0  0  0  0  0  0  0  0  0  0
   32.9570   45.4690   -5.0940 C   0  0  2  0  0  0  0  0  0  0  0  0
   36.9440   45.7790   -3.7100 C   0  0  0  0  0  0  0  0  0  0  0  0
   35.1780   46.5290   -2.2440 C   0  0  0  0  0  0  0  0  0  0  0  0
   31.7420   44.9440   -5.6880 O   0  0  0  0  0  0  0  0  0  0  0  0
   33.6920   46.0640   -6.1620 O   0  0  0  0  0  0  0  0  0  0  0  0
   37.7240   46.8720   -3.3300 C   0  0  0  0  0  0  0  0  0  0  0  0
   35.9580   47.6230   -1.8660 C   0  0  0  0  0  0  0  0  0  0  0  0
   32.6390   46.5170   -4.0270 C   0  0  0  0  0  0  0  0  0  0  0  0
   31.7690   45.2720   -7.1230 O   0  0  0  0  0  0  0  0  0  0  0  0
   37.2300   47.7940   -2.4090 C   0  0  0  0  0  0  0  0  0  0  0  0
   33.0290   47.8680   -4.1190 C   0  0  0  0  0  0  0  0  0  0  0  0
   31.9170   46.1420   -2.8720 C   0  0  0  0  0  0  0  0  0  0  0  0
   33.7300   48.3090   -5.2080 O   0  0  0  0  0  0  0  0  0  0  0  0
   32.7150   48.7890   -3.1130 C   0  0  0  0  0  0  0  0  0  0  0  0
   31.6020   47.0580   -1.8660 C   0  0  0  0  0  0  0  0  0  0  0  0
   32.0030   48.3830   -1.9870 C   0  0  0  0  0  0  0  0  0  0  0  0
  1  2  1  0
  2  3  1  0
  2  4  1  0
  3  5  2  0
  4  6  2  0
  5  6  1  0
  4  7  1  0
  6  8  1  0
  7  9  2  0
  7 10  1  0
  8 11  1  0
  8 12  1  6
  9 13  1  0
 10 14  2  0
  8 15  1  0
 11 16  1  0
 13 17  2  0
 14 17  1  0
 15 18  2  0
 15 19  1  0
 18 20  1  0
 18 21  1  0
 19 22  2  0
 21 23  2  0
 22 23  1  0
M  END
