mac-x0380-mac-x0271
     RDKit          3D

 15 16  0  0  0  0  0  0  0  0999 V2000
   29.5040   48.1920   -4.7320 O   0  0  0  0  0  0  0  0  0  0  0  0
   29.4000   49.2460   -3.9070 C   0  0  0  0  0  0  0  0  0  0  0  0
   29.6520   49.1510   -2.7210 O   0  0  0  0  0  0  0  0  0  0  0  0
   28.9580   50.4900   -4.5910 C   0  0  0  0  0  0  0  0  0  0  0  0
   28.9060   51.7150   -3.9170 C   0  0  0  0  0  0  0  0  0  0  0  0
   28.5830   50.4300   -5.9450 C   0  0  0  0  0  0  0  0  0  0  0  0
   28.4850   52.8660   -4.5880 C   0  0  0  0  0  0  0  0  0  0  0  0
   28.1650   51.5860   -6.6140 C   0  0  0  0  0  0  0  0  0  0  0  0
   28.1200   52.8040   -5.9290 C   0  0  0  0  0  0  0  0  0  0  0  0
   28.4160   54.4130   -3.7260 S   0  0  0  0  0  0  0  0  0  0  0  0
   27.7060   53.9630   -6.5920 N   0  0  0  0  0  0  0  0  0  0  0  0
   28.8570   55.5490   -4.9550 C   0  0  0  0  0  0  0  0  0  0  0  0
   29.6460   56.4560   -4.7890 O   0  0  0  0  0  0  0  0  0  0  0  0
   28.0890   55.2560   -6.2620 C   0  0  0  0  0  0  0  0  0  0  0  0
   27.8180   56.1940   -7.0120 O   0  0  0  0  0  0  0  0  0  0  0  0
  1  2  1  0
  2  3  2  0
  2  4  1  0
  4  5  2  0
  4  6  1  0
  5  7  1  0
  6  8  2  0
  7  9  2  0
  8  9  1  0
  7 10  1  0
  9 11  1  0
 10 12  1  0
 12 13  2  0
 11 14  1  0
 12 14  1  0
 14 15  2  0
M  END
