mac-x1493-mac-x0567
     RDKit          3D

 18 20  0  0  0  0  0  0  0  0999 V2000
   28.7880   48.0030   -4.0440 O   0  0  0  0  0  0  0  0  0  0  0  0
   30.0250   48.5290   -4.1190 C   0  0  0  0  0  0  0  0  0  0  0  0
   30.9900   47.7980   -3.9390 O   0  0  0  0  0  0  0  0  0  0  0  0
   30.0910   50.0130   -4.4170 C   0  0  1  0  0  0  0  0  0  0  0  0
   29.5010   50.4210   -5.8010 C   0  0  2  0  0  0  0  0  0  0  0  0
   29.4400   50.8250   -3.3070 C   0  0  0  0  0  0  0  0  0  0  0  0
   29.2980   51.9530   -5.8690 C   0  0  0  0  0  0  0  0  0  0  0  0
   29.7950   52.2290   -3.4700 N   0  0  0  0  0  0  0  0  0  0  0  0
   28.1930   49.7380   -6.0530 N   0  0  0  0  0  0  0  0  0  0  0  0
   30.4180   49.9050   -6.9440 C   0  0  0  0  0  0  0  0  0  0  0  0
   29.4520   52.7630   -4.7250 C   0  0  0  0  0  0  0  0  0  0  0  0
   28.9510   52.5810   -7.0870 C   0  0  0  0  0  0  0  0  0  0  0  0
   29.5590   48.9080   -7.7130 C   0  0  1  0  0  0  0  0  0  0  0  0
   28.2050   49.3430   -7.4500 N   0  0  0  0  0  0  0  0  0  0  0  0
   29.7800   48.9480   -9.1380 N   0  0  0  0  0  0  0  0  0  0  0  0
   29.2600   54.1480   -4.8230 C   0  0  0  0  0  0  0  0  0  0  0  0
   28.7660   53.9600   -7.1680 C   0  0  0  0  0  0  0  0  0  0  0  0
   28.9200   54.7470   -6.0350 C   0  0  0  0  0  0  0  0  0  0  0  0
  1  2  1  0
  2  3  2  0
  4  2  1  1
  4  5  1  0
  4  6  1  0
  5  7  1  0
  6  8  1  0
  5  9  1  0
  5 10  1  6
  7 11  2  0
  8 11  1  0
  7 12  1  0
 10 13  1  0
  9 14  1  0
 13 14  1  0
 13 15  1  6
 11 16  1  0
 12 17  2  0
 16 18  2  0
 17 18  1  0
M  END
