mac-x0224-mac-x1494
     RDKit          3D

 16 18  0  0  0  0  0  0  0  0999 V2000
   28.2860   51.7650   -7.0330 C   0  0  0  0  0  0  0  0  0  0  0  0
   29.4400   51.0460   -6.4490 N   0  0  0  0  0  0  0  0  0  0  0  0
   30.1060   51.9070   -5.4800 C   0  0  0  0  0  0  0  0  0  0  0  0
   27.2540   50.7310   -7.4480 C   0  0  0  0  0  0  0  0  0  0  0  0
   27.1730   49.6880   -5.9870 S   0  0  0  0  0  0  0  0  0  0  0  0
   28.9620   49.8960   -5.6360 C   0  0  1  0  0  0  0  0  0  0  0  0
   29.6910   48.6190   -6.0610 C   0  0  0  0  0  0  0  0  0  0  0  0
   29.1900   50.3030   -4.1540 C   0  0  2  0  0  0  0  0  0  0  0  0
   29.4860   51.7120   -4.2210 O   0  0  0  0  0  0  0  0  0  0  0  0
   29.8770   47.6280   -4.9160 C   0  0  1  0  0  0  0  0  0  0  0  0
   30.3230   49.6230   -3.3560 C   0  0  0  0  0  0  0  0  0  0  0  0
   30.4110   46.3010   -5.4270 C   0  0  0  0  0  0  0  0  0  0  0  0
   30.7560   48.2230   -3.8150 C   0  0  1  0  0  0  0  0  0  0  0  0
   30.7680   47.3440   -2.6850 O   0  0  0  0  0  0  0  0  0  0  0  0
   30.3960   45.8790   -6.5690 O   0  0  0  0  0  0  0  0  0  0  0  0
   30.9480   45.5490   -4.4450 O   0  0  0  0  0  0  0  0  0  0  0  0
  1  2  1  0
  2  3  1  0
  1  4  1  0
  4  5  1  0
  2  6  1  0
  6  5  1  0
  6  7  1  6
  6  8  1  0
  3  9  1  0
  8  9  1  0
  7 10  1  0
  8 11  1  6
 10 12  1  6
 10 13  1  0
 11 13  1  0
 13 14  1  1
 12 15  2  0
 12 16  1  0
M  END
