mac-x0402-mac-x0271
     RDKit          3D

 17 19  0  0  0  0  0  0  0  0999 V2000
   30.5500   48.5280   -3.3160 Cl  0  0  0  0  0  0  0  0  0  0  0  0
   29.7360   49.8310   -4.2390 C   0  0  1  0  0  0  0  0  0  0  0  0
   29.9410   51.2110   -3.5810 C   0  0  0  0  0  0  0  0  0  0  0  0
   30.1770   49.8060   -5.7140 C   0  0  0  0  0  0  0  0  0  0  0  0
   29.7320   51.0380   -6.4180 C   0  0  0  0  0  0  0  0  0  0  0  0
   29.3010   52.4320   -4.3220 C   0  0  2  0  0  0  0  0  0  0  0  0
   29.3400   52.2160   -5.8180 C   0  0  0  0  0  0  0  0  0  0  0  0
   29.6390   51.1830   -8.1150 S   0  0  0  0  0  0  0  0  0  0  0  0
   30.1280   53.5890   -3.9980 O   0  0  0  0  0  0  0  0  0  0  0  0
   27.8690   52.6650   -3.9170 C   0  0  0  0  0  0  0  0  0  0  0  0
   29.0830   52.8010   -7.9310 C   0  0  0  0  0  0  0  0  0  0  0  0
   28.9710   53.2210   -6.6950 N   0  0  0  0  0  0  0  0  0  0  0  0
   27.3470   53.8880   -3.8610 C   0  0  0  0  0  0  0  0  0  0  0  0
   29.6580   54.8580   -3.9850 C   0  0  0  0  0  0  0  0  0  0  0  0
   28.7880   53.5680   -8.9910 N   0  0  0  0  0  0  0  0  0  0  0  0
   30.4180   55.8080   -3.7990 O   0  0  0  0  0  0  0  0  0  0  0  0
   28.1760   55.0720   -4.1930 C   0  0  0  0  0  0  0  0  0  0  0  0
  2  1  1  1
  2  3  1  0
  2  4  1  0
  4  5  1  0
  6  3  1  1
  5  7  2  0
  6  7  1  0
  5  8  1  0
  6  9  1  0
  6 10  1  0
  8 11  1  0
  7 12  1  0
 11 12  2  0
 10 13  2  0
  9 14  1  0
 11 15  1  0
 14 16  2  0
 13 17  1  0
 14 17  1  0
M  END
