mac-x0412-mac-x0555
     RDKit          3D

 12 13  0  0  0  0  0  0  0  0999 V2000
   29.5580   54.4510   -3.8540 O   0  0  0  0  0  0  0  0  0  0  0  0
   29.2990   53.7560   -4.8350 C   0  0  0  0  0  0  0  0  0  0  0  0
   28.8800   54.2790   -6.0740 N   0  0  0  0  0  0  0  0  0  0  0  0
   29.4200   52.2690   -4.7680 C   0  0  0  0  0  0  0  0  0  0  0  0
   29.2180   55.6060   -6.3990 N   0  0  0  0  0  0  0  0  0  0  0  0
   29.0400   51.4990   -5.8780 C   0  0  0  0  0  0  0  0  0  0  0  0
   28.4710   53.4980   -7.1260 C   0  0  0  0  0  0  0  0  0  0  0  0
   29.9090   51.6510   -3.6090 C   0  0  0  0  0  0  0  0  0  0  0  0
   28.5300   52.1610   -7.0800 C   0  0  0  0  0  0  0  0  0  0  0  0
   29.1540   50.1070   -5.8180 C   0  0  0  0  0  0  0  0  0  0  0  0
   30.0180   50.2600   -3.5590 C   0  0  0  0  0  0  0  0  0  0  0  0
   29.6420   49.4880   -4.6620 C   0  0  0  0  0  0  0  0  0  0  0  0
  1  2  2  0
  2  3  1  0
  2  4  1  0
  3  5  1  0
  4  6  2  0
  3  7  1  0
  4  8  1  0
  6  9  1  0
  7  9  2  0
  6 10  1  0
  8 11  2  0
 10 12  2  0
 11 12  1  0
M  END
