mac-x0142-mac-x0358
     RDKit          3D

 22 25  0  0  0  0  0  0  0  0999 V2000
   33.6820   44.9170   -6.9010 O   0  0  0  0  0  0  0  0  0  0  0  0
   34.0830   45.6060   -5.8060 C   0  0  0  0  0  0  0  0  0  0  0  0
   34.6480   46.6850   -5.9030 O   0  0  0  0  0  0  0  0  0  0  0  0
   33.7670   44.8840   -4.5080 C   0  0  0  0  0  0  0  0  0  0  0  0
   32.4730   45.3450   -3.7760 C   0  0  2  0  0  0  0  0  0  0  0  0
   31.1760   44.9650   -4.5030 C   0  0  0  0  0  0  0  0  0  0  0  0
   32.4180   46.8590   -3.4720 C   0  0  1  0  0  0  0  0  0  0  0  0
   33.7180   47.3880   -3.2110 O   0  0  0  0  0  0  0  0  0  0  0  0
   30.8450   43.4820   -4.5550 C   0  0  0  0  0  0  0  0  0  0  0  0
   31.2290   44.2000   -5.8130 C   0  0  0  0  0  0  0  0  0  0  0  0
   31.7360   47.6280   -4.6140 C   0  0  0  0  0  0  0  0  0  0  0  0
   29.9970   45.9020   -4.2510 C   0  0  0  0  0  0  0  0  0  0  0  0
   30.3030   47.2660   -4.7110 N   0  0  0  0  0  0  0  0  0  0  0  0
   29.4660   47.9720   -5.5890 C   0  0  0  0  0  0  0  0  0  0  0  0
   28.8500   47.2870   -6.6240 N   0  0  0  0  0  0  0  0  0  0  0  0
   29.1810   49.2880   -5.5380 C   0  0  0  0  0  0  0  0  0  0  0  0
   28.0230   47.8930   -7.5260 C   0  0  0  0  0  0  0  0  0  0  0  0
   28.2700   49.8860   -6.5530 C   0  0  0  0  0  0  0  0  0  0  0  0
   29.5220   50.4130   -4.7210 C   0  0  0  0  0  0  0  0  0  0  0  0
   27.7030   49.1430   -7.5470 N   0  0  0  0  0  0  0  0  0  0  0  0
   28.0930   51.1670   -6.3730 N   0  0  0  0  0  0  0  0  0  0  0  0
   28.8640   51.4560   -5.2550 C   0  0  0  0  0  0  0  0  0  0  0  0
  1  2  1  0
  2  3  2  0
  2  4  1  0
  5  4  1  6
  5  6  1  0
  5  7  1  0
  7  8  1  6
  6  9  1  0
  6 10  1  0
  9 10  1  0
  7 11  1  0
  6 12  1  0
 11 13  1  0
 12 13  1  0
 13 14  1  0
 14 15  1  0
 14 16  2  0
 15 17  1  0
 16 18  1  0
 16 19  1  0
 17 20  2  0
 18 20  1  0
 18 21  2  0
 19 22  2  0
 21 22  1  0
M  END
