mac-x0271-mac-x0212
     RDKit          3D

 20 21  0  0  0  0  0  0  0  0999 V2000
   30.2970   49.7790   -2.1310 O   0  0  0  0  0  0  0  0  0  0  0  0
   29.9030   50.7580   -3.0020 C   0  0  0  0  0  0  0  0  0  0  0  0
   29.8850   50.5960   -4.3950 C   0  0  0  0  0  0  0  0  0  0  0  0
   29.5180   51.9600   -2.4100 C   0  0  0  0  0  0  0  0  0  0  0  0
   30.3110   49.2940   -4.9970 C   0  0  0  0  0  0  0  0  0  0  0  0
   29.1050   53.0120   -3.2190 C   0  0  0  0  0  0  0  0  0  0  0  0
   29.4570   51.6900   -5.2110 C   0  0  0  0  0  0  0  0  0  0  0  0
   29.4180   51.6040   -6.6610 N   0  0  0  0  0  0  0  0  0  0  0  0
   30.1580   48.9550   -6.1570 O   0  0  0  0  0  0  0  0  0  0  0  0
   30.9070   48.4680   -4.1100 O   0  0  0  0  0  0  0  0  0  0  0  0
   29.0590   52.9090   -4.6070 C   0  0  0  0  0  0  0  0  0  0  0  0
   28.7270   54.2100   -2.5720 O   0  0  0  0  0  0  0  0  0  0  0  0
   30.0340   53.0400   -7.3910 S   0  0  0  0  0  0  0  0  0  0  0  0
   28.5930   54.0900   -5.3450 C   0  0  0  0  0  0  0  0  0  0  0  0
   28.7150   55.3990   -3.2860 C   0  0  0  0  0  0  0  0  0  0  0  0
   28.9170   56.4950   -2.7770 O   0  0  0  0  0  0  0  0  0  0  0  0
   31.3060   52.3600   -8.4260 C   0  0  0  0  0  0  0  0  0  0  0  0
   30.6670   53.8340   -6.3620 O   0  0  0  0  0  0  0  0  0  0  0  0
   29.0070   53.6080   -8.2310 O   0  0  0  0  0  0  0  0  0  0  0  0
   28.4350   55.2590   -4.7160 C   0  0  0  0  0  0  0  0  0  0  0  0
  1  2  1  0
  2  3  2  0
  2  4  1  0
  3  5  1  0
  4  6  2  0
  3  7  1  0
  7  8  1  0
  5  9  2  0
  5 10  1  0
  6 11  1  0
  7 11  2  0
  6 12  1  0
 13  8  1  0
 11 14  1  0
 12 15  1  0
 15 16  2  0
 13 17  1  0
 13 18  2  0
 13 19  2  0
 14 20  2  0
 15 20  1  0
M  END
