mac-x0567-mac-x0344
     RDKit          3D

 24 26  0  0  0  0  0  0  0  0999 V2000
   29.6960   46.9650   -6.0060 N   0  0  0  0  0  0  0  0  0  0  0  0
   29.6170   48.2380   -6.4800 C   0  0  0  0  0  0  0  0  0  0  0  0
   29.9500   48.5110   -7.8700 N   0  0  0  0  0  0  0  0  0  0  0  0
   29.2410   49.3110   -5.7370 C   0  0  0  0  0  0  0  0  0  0  0  0
   30.1650   47.0720   -7.7940 C   0  0  0  0  0  0  0  0  0  0  0  0
   29.6910   49.8950   -7.7530 N   0  0  0  0  0  0  0  0  0  0  0  0
   29.2990   50.3760   -6.5910 C   0  0  0  0  0  0  0  0  0  0  0  0
   28.8760   49.3190   -4.3920 C   0  0  0  0  0  0  0  0  0  0  0  0
   31.5960   46.6440   -7.4300 C   0  0  0  0  0  0  0  0  0  0  0  0
   28.9750   51.6800   -6.1770 C   0  0  0  0  0  0  0  0  0  0  0  0
   28.5480   50.6190   -3.9620 C   0  0  0  0  0  0  0  0  0  0  0  0
   31.5890   45.3230   -6.8090 N   0  0  0  0  0  0  0  0  0  0  0  0
   28.5950   51.7600   -4.8190 C   0  0  0  0  0  0  0  0  0  0  0  0
   32.5310   44.9370   -6.0220 C   0  0  0  0  0  0  0  0  0  0  0  0
   32.4630   43.7030   -5.4800 O   0  0  0  0  0  0  0  0  0  0  0  0
   33.7980   45.6510   -5.5500 C   0  0  0  0  0  0  0  0  0  0  0  0
   34.5420   46.0560   -6.4400 O   0  0  0  0  0  0  0  0  0  0  0  0
   33.9610   45.7570   -4.1840 N   0  0  0  0  0  0  0  0  0  0  0  0
   35.0480   46.3400   -3.4940 C   0  0  0  0  0  0  0  0  0  0  0  0
   35.9240   45.4750   -2.8280 C   0  0  0  0  0  0  0  0  0  0  0  0
   35.2930   47.7150   -3.4390 C   0  0  0  0  0  0  0  0  0  0  0  0
   37.0250   45.9680   -2.1220 C   0  0  0  0  0  0  0  0  0  0  0  0
   36.3930   48.2100   -2.7320 C   0  0  0  0  0  0  0  0  0  0  0  0
   37.2580   47.3410   -2.0750 C   0  0  0  0  0  0  0  0  0  0  0  0
  1  2  1  0
  2  3  1  0
  2  4  2  0
  3  5  1  0
  3  6  1  0
  4  7  1  0
  6  7  2  0
  4  8  1  0
  5  9  1  0
  7 10  1  0
  8 11  2  0
  9 12  1  0
 10 13  2  0
 11 13  1  0
 12 14  2  3
 14 15  1  0
 14 16  1  0
 16 17  2  0
 16 18  1  0
 18 19  1  0
 19 20  2  0
 19 21  1  0
 20 22  1  0
 21 23  2  0
 22 24  2  0
 23 24  1  0
M  END
