mac-x0453-mac-x0348
     RDKit          3D

 25 27  0  0  0  0  0  0  0  0999 V2000
   29.4150   54.9520   -6.9900 N   0  0  0  0  0  0  0  0  0  0  0  0
   29.8970   53.7450   -6.3160 C   0  0  0  0  0  0  0  0  0  0  0  0
   28.7480   52.8240   -5.8890 C   0  0  0  0  0  0  0  0  0  0  0  0
   29.2800   51.5350   -5.3820 C   0  0  0  0  0  0  0  0  0  0  0  0
   29.6860   50.4400   -6.1020 C   0  0  0  0  0  0  0  0  0  0  0  0
   29.4320   51.3070   -4.0350 N   0  0  0  0  0  0  0  0  0  0  0  0
   30.0930   49.5390   -5.1770 N   0  0  0  0  0  0  0  0  0  0  0  0
   29.9230   50.0930   -3.9420 C   0  0  0  0  0  0  0  0  0  0  0  0
   30.6150   48.2330   -5.4640 C   0  0  0  0  0  0  0  0  0  0  0  0
   29.6370   47.0760   -5.2980 C   0  0  0  0  0  0  0  0  0  0  0  0
   30.2170   45.9050   -4.4820 C   0  0  1  0  0  0  0  0  0  0  0  0
   31.7510   45.8080   -4.4890 C   0  0  0  0  0  0  0  0  0  0  0  0
   29.5820   45.8660   -3.1110 C   0  0  0  0  0  0  0  0  0  0  0  0
   32.3560   46.0310   -5.8510 C   0  0  0  0  0  0  0  0  0  0  0  0
   28.6800   44.9140   -2.6880 C   0  0  0  0  0  0  0  0  0  0  0  0
   29.7660   46.7750   -2.0070 C   0  0  0  0  0  0  0  0  0  0  0  0
   31.7910   45.8720   -6.9250 O   0  0  0  0  0  0  0  0  0  0  0  0
   33.6360   46.4470   -5.8280 O   0  0  0  0  0  0  0  0  0  0  0  0
   28.3110   45.1970   -1.4110 N   0  0  0  0  0  0  0  0  0  0  0  0
   28.9540   46.3300   -0.9590 C   0  0  0  0  0  0  0  0  0  0  0  0
   30.5450   47.9360   -1.8030 C   0  0  0  0  0  0  0  0  0  0  0  0
   27.3700   44.4060   -0.6520 C   0  0  0  0  0  0  0  0  0  0  0  0
   30.4870   48.6070   -0.5760 C   0  0  0  0  0  0  0  0  0  0  0  0
   28.8910   46.9970    0.2750 C   0  0  0  0  0  0  0  0  0  0  0  0
   29.6690   48.1430    0.4480 C   0  0  0  0  0  0  0  0  0  0  0  0
  1  2  1  0
  2  3  1  0
  3  4  1  0
  4  5  2  0
  4  6  1  0
  5  7  1  0
  6  8  2  0
  7  8  1  0
  7  9  1  0
  9 10  1  0
 11 10  1  1
 11 12  1  0
 11 13  1  0
 12 14  1  0
 13 15  2  0
 13 16  1  0
 14 17  2  0
 14 18  1  0
 15 19  1  0
 16 20  2  0
 19 20  1  0
 16 21  1  0
 19 22  1  0
 21 23  2  0
 20 24  1  0
 23 25  1  0
 24 25  2  0
M  END
