mac-x0345-mac-x0392
     RDKit          3D

 21 22  0  0  0  0  0  0  0  0999 V2000
   29.8080   54.8540   -4.3970 C   0  0  0  0  0  0  0  0  0  0  0  0
   29.2370   53.4790   -4.2120 C   0  0  0  0  0  0  0  0  0  0  0  0
   29.7440   52.7650   -3.1690 N   0  0  0  0  0  0  0  0  0  0  0  0
   28.2460   52.9690   -5.0510 C   0  0  0  0  0  0  0  0  0  0  0  0
   27.5210   53.9450   -6.5020 Br  0  0  0  0  0  0  0  0  0  0  0  0
   27.7690   51.6830   -4.8110 C   0  0  0  0  0  0  0  0  0  0  0  0
   29.2720   51.5250   -2.9520 C   0  0  0  0  0  0  0  0  0  0  0  0
   29.8420   50.8490   -1.8640 N   0  0  0  0  0  0  0  0  0  0  0  0
   28.2880   50.9510   -3.7480 C   0  0  0  0  0  0  0  0  0  0  0  0
   29.9320   49.3890   -2.0820 C   0  0  0  0  0  0  0  0  0  0  0  0
   30.7100   49.1200   -3.3760 C   0  0  0  0  0  0  0  0  0  0  0  0
   30.7060   47.7010   -3.7450 N   0  0  0  0  0  0  0  0  0  0  0  0
   30.5250   47.3010   -4.9540 C   0  0  0  0  0  0  0  0  0  0  0  0
   30.5170   46.0060   -5.3190 O   0  0  0  0  0  0  0  0  0  0  0  0
   30.2940   48.2120   -6.1110 C   0  0  0  0  0  0  0  0  0  0  0  0
   29.3500   47.9620   -7.1220 C   0  0  0  0  0  0  0  0  0  0  0  0
   31.0830   49.3700   -6.1770 C   0  0  0  0  0  0  0  0  0  0  0  0
   28.5130   46.8290   -7.1510 N   0  0  0  0  0  0  0  0  0  0  0  0
   30.9020   50.2410   -7.2360 C   0  0  0  0  0  0  0  0  0  0  0  0
   29.2650   48.9140   -8.1380 C   0  0  0  0  0  0  0  0  0  0  0  0
   30.0100   50.0400   -8.2230 N   0  0  0  0  0  0  0  0  0  0  0  0
  1  2  1  0
  2  3  2  0
  2  4  1  0
  4  5  1  0
  4  6  2  0
  3  7  1  0
  7  8  1  0
  6  9  1  0
  7  9  2  0
  8 10  1  0
 10 11  1  0
 11 12  1  0
 12 13  2  3
 13 14  1  0
 13 15  1  0
 15 16  2  0
 15 17  1  0
 16 18  1  0
 17 19  2  0
 16 20  1  0
 19 21  1  0
 20 21  2  0
M  END
