mac-x0305-mac-x0365
     RDKit          3D

 13 13  0  0  0  0  0  0  0  0999 V2000
   30.7590   47.2080   -7.1250 O   0  0  0  0  0  0  0  0  0  0  0  0
   30.1530   47.3520   -5.8270 C   0  0  1  0  0  0  0  0  0  0  0  0
   30.9510   46.8800   -4.6440 N   0  0  0  0  0  0  0  0  0  0  0  0
   29.7640   48.8170   -5.6250 C   0  0  0  0  0  0  0  0  0  0  0  0
   30.5630   45.7860   -4.2030 O   0  0  0  0  0  0  0  0  0  0  0  0
   29.1040   49.5400   -6.6290 C   0  0  0  0  0  0  0  0  0  0  0  0
   30.0950   49.3790   -4.4170 N   0  0  0  0  0  0  0  0  0  0  0  0
   28.7930   48.9450   -7.8160 O   0  0  0  0  0  0  0  0  0  0  0  0
   28.7680   50.8750   -6.4050 C   0  0  0  0  0  0  0  0  0  0  0  0
   29.7520   50.6750   -4.2360 C   0  0  0  0  0  0  0  0  0  0  0  0
   30.0660   51.2430   -3.0640 F   0  0  0  0  0  0  0  0  0  0  0  0
   29.0970   51.4500   -5.1870 C   0  0  0  0  0  0  0  0  0  0  0  0
   28.7670   52.7560   -4.9670 O   0  0  0  0  0  0  0  0  0  0  0  0
  2  1  1  6
  2  3  1  0
  2  4  1  0
  3  5  2  0
  4  6  2  0
  4  7  1  0
  6  8  1  0
  6  9  1  0
  7 10  2  0
 10 11  1  0
  9 12  2  0
 10 12  1  0
 12 13  1  0
M  END
