mac-x0178-mac-x0347
     RDKit          3D

 26 28  0  0  0  0  0  0  0  0999 V2000
   28.0270   43.6790    0.3620 N   0  0  0  0  0  0  0  0  0  0  0  0
   28.3720   45.3400    0.0730 S   0  0  0  0  0  0  0  0  0  0  0  0
   29.2790   45.9150    1.1190 O   0  0  0  0  0  0  0  0  0  0  0  0
   27.0810   46.0990    0.1330 O   0  0  0  0  0  0  0  0  0  0  0  0
   29.1510   45.5640   -1.4900 C   0  0  0  0  0  0  0  0  0  0  0  0
   28.8030   44.7930   -2.5900 C   0  0  0  0  0  0  0  0  0  0  0  0
   30.1170   46.5150   -1.6500 C   0  0  0  0  0  0  0  0  0  0  0  0
   29.4210   44.9900   -3.8190 C   0  0  0  0  0  0  0  0  0  0  0  0
   30.7410   46.7260   -2.8640 C   0  0  0  0  0  0  0  0  0  0  0  0
   30.3660   45.9540   -3.9060 C   0  0  0  0  0  0  0  0  0  0  0  0
   31.1940   46.3200   -5.3800 S   0  0  0  0  0  0  0  0  0  0  0  0
   29.9940   46.4080   -6.0610 O   0  0  0  0  0  0  0  0  0  0  0  0
   32.5270   45.8900   -4.5840 O   0  0  0  0  0  0  0  0  0  0  0  0
   31.6930   45.1810   -6.4190 O   0  0  0  0  0  0  0  0  0  0  0  0
   31.6150   47.9010   -5.3890 C   0  0  0  0  0  0  0  0  0  0  0  0
   30.7440   48.9300   -5.6930 C   0  0  0  0  0  0  0  0  0  0  0  0
   32.8970   48.3350   -5.0630 C   0  0  0  0  0  0  0  0  0  0  0  0
   31.0690   50.2650   -5.6830 C   0  0  0  0  0  0  0  0  0  0  0  0
   33.2550   49.6220   -5.0430 N   0  0  0  0  0  0  0  0  0  0  0  0
   32.3560   50.6020   -5.3490 C   0  0  0  0  0  0  0  0  0  0  0  0
   30.1140   51.3180   -6.0060 C   0  0  0  0  0  0  0  0  0  0  0  0
   29.0200   51.0640   -6.8300 C   0  0  0  0  0  0  0  0  0  0  0  0
   30.2270   52.6040   -5.5300 C   0  0  0  0  0  0  0  0  0  0  0  0
   28.1230   52.0690   -7.1310 C   0  0  0  0  0  0  0  0  0  0  0  0
   29.3470   53.6150   -5.8180 C   0  0  0  0  0  0  0  0  0  0  0  0
   28.2580   53.3480   -6.6440 C   0  0  0  0  0  0  0  0  0  0  0  0
  2  1  1  0
  2  3  2  0
  2  4  2  0
  2  5  1  0
  5  6  2  0
  5  7  1  0
  6  8  1  0
  7  9  2  0
  8 10  2  0
  9 10  1  0
 10 11  1  0
 11 12  2  0
 11 13  1  0
 11 14  1  0
 11 15  1  0
 15 16  2  0
 15 17  1  0
 16 18  1  0
 17 19  2  0
 18 20  2  0
 19 20  1  0
 18 21  1  0
 21 22  2  0
 21 23  1  0
 22 24  1  0
 23 25  2  0
 24 26  2  0
 25 26  1  0
M  END
