mac-x0139-mac-x0397
     RDKit          3D

 26 29  0  0  0  0  0  0  0  0999 V2000
   30.9950   48.5350   -5.1850 C   0  0  0  0  0  0  0  0  0  0  0  0
   30.8890   47.5310   -6.2590 N   0  0  0  0  0  0  0  0  0  0  0  0
   30.7880   46.1370   -5.7570 C   0  0  0  0  0  0  0  0  0  0  0  0
   29.7990   47.8160   -7.1420 C   0  0  0  0  0  0  0  0  0  0  0  0
   32.1600   45.5870   -5.3550 C   0  0  0  0  0  0  0  0  0  0  0  0
   28.7990   48.7540   -6.8810 C   0  0  0  0  0  0  0  0  0  0  0  0
   29.7620   47.1150   -8.2960 N   0  0  0  0  0  0  0  0  0  0  0  0
   32.8110   44.7530   -6.4330 C   0  0  0  0  0  0  0  0  0  0  0  0
   27.8130   48.8900   -7.8550 C   0  0  0  0  0  0  0  0  0  0  0  0
   28.7550   47.3440   -9.1550 C   0  0  0  0  0  0  0  0  0  0  0  0
   28.4730   49.7210   -5.7530 C   0  0  2  0  0  0  0  0  0  0  0  0
   32.2760   43.8590   -7.0710 O   0  0  0  0  0  0  0  0  0  0  0  0
   34.1060   45.1000   -6.6420 O   0  0  0  0  0  0  0  0  0  0  0  0
   27.7570   48.2120   -8.9950 N   0  0  0  0  0  0  0  0  0  0  0  0
   26.8350   49.8500   -7.5120 N   0  0  0  0  0  0  0  0  0  0  0  0
   26.9410   49.8620   -6.0580 C   0  0  0  0  0  0  0  0  0  0  0  0
   29.1070   51.0970   -5.8690 C   0  0  0  0  0  0  0  0  0  0  0  0
   28.6370   49.1420   -4.3360 C   0  0  0  0  0  0  0  0  0  0  0  0
   29.7670   51.7430   -4.8350 C   0  0  0  0  0  0  0  0  0  0  0  0
   29.1140   52.0890   -7.2610 S   0  0  0  0  0  0  0  0  0  0  0  0
   29.2860   49.7850   -3.3370 C   0  0  0  0  0  0  0  0  0  0  0  0
   29.9810   53.2910   -6.3970 C   0  0  0  0  0  0  0  0  0  0  0  0
   30.2640   52.9990   -5.1510 N   0  0  0  0  0  0  0  0  0  0  0  0
   29.9420   51.1490   -3.4670 C   0  0  2  0  0  0  0  0  0  0  0  0
   29.1920   52.2310   -2.2580 Cl  0  0  0  0  0  0  0  0  0  0  0  0
   30.3370   54.4490   -6.9760 N   0  0  0  0  0  0  0  0  0  0  0  0
  1  2  1  0
  2  3  1  0
  2  4  1  0
  3  5  1  0
  4  6  2  0
  4  7  1  0
  5  8  1  0
  6  9  1  0
  7 10  2  0
  6 11  1  0
  8 12  2  0
  8 13  1  0
  9 14  2  0
 10 14  1  0
  9 15  1  0
 11 16  1  6
 15 16  1  0
 11 17  1  0
 11 18  1  0
 17 19  2  0
 17 20  1  0
 18 21  2  0
 20 22  1  0
 19 23  1  0
 22 23  2  0
 19 24  1  0
 21 24  1  0
 24 25  1  1
 22 26  1  0
M  END
