mac-x0568-mac-x0131
     RDKit          3D

 25 28  0  0  0  0  0  0  0  0999 V2000
   30.9490   55.3280   -5.2800 C   0  0  0  0  0  0  0  0  0  0  0  0
   30.3380   53.9650   -5.1530 C   0  0  0  0  0  0  0  0  0  0  0  0
   29.2080   53.6360   -5.8820 C   0  0  0  0  0  0  0  0  0  0  0  0
   30.9260   53.0910   -4.3130 N   0  0  0  0  0  0  0  0  0  0  0  0
   30.3720   51.8550   -4.1970 C   0  0  0  0  0  0  0  0  0  0  0  0
   28.6630   52.3590   -5.7400 C   0  0  0  0  0  0  0  0  0  0  0  0
   29.2340   51.4070   -4.8800 C   0  0  0  0  0  0  0  0  0  0  0  0
   28.6170   49.9870   -4.7220 C   0  0  2  0  0  0  0  0  0  0  0  0
   29.4730   49.0880   -3.7380 C   0  0  0  0  0  0  0  0  0  0  0  0
   28.6980   49.1420   -6.0370 C   0  0  2  0  0  0  0  0  0  0  0  0
   27.1510   50.1020   -4.1590 C   0  0  0  0  0  0  0  0  0  0  0  0
   29.8450   48.1720   -5.8210 C   0  0  1  0  0  0  0  0  0  0  0  0
   29.7540   47.8120   -4.4250 N   0  0  0  0  0  0  0  0  0  0  0  0
   28.9580   49.7400   -7.4150 C   0  0  2  0  0  0  0  0  0  0  0  0
   26.7060   49.1520   -3.1390 N   0  0  0  0  0  0  0  0  0  0  0  0
   27.8840   50.5940   -7.8670 N   0  0  0  0  0  0  0  0  0  0  0  0
   30.7590   46.9460   -3.8050 C   0  0  0  0  0  0  0  0  0  0  0  0
   29.0920   48.7120   -8.4400 N   0  0  0  0  0  0  0  0  0  0  0  0
   29.8760   47.1170   -6.8160 N   0  0  0  0  0  0  0  0  0  0  0  0
   30.0590   47.6600   -8.1480 C   0  0  0  0  0  0  0  0  0  0  0  0
   32.1060   46.8250   -4.4510 C   0  0  0  0  0  0  0  0  0  0  0  0
   32.5870   46.0220   -5.4630 C   0  0  0  0  0  0  0  0  0  0  0  0
   33.1050   47.6390   -3.9990 O   0  0  0  0  0  0  0  0  0  0  0  0
   34.2160   47.3510   -4.7220 C   0  0  0  0  0  0  0  0  0  0  0  0
   33.9510   46.3620   -5.6370 C   0  0  0  0  0  0  0  0  0  0  0  0
  1  2  1  0
  2  3  2  0
  2  4  1  0
  4  5  2  0
  3  6  1  0
  5  7  1  0
  6  7  2  0
  7  8  1  0
  8  9  1  0
  8 10  1  0
  8 11  1  1
 10 12  1  0
  9 13  1  0
 12 13  1  0
 10 14  1  6
 11 15  1  0
 14 16  1  6
 13 17  1  0
 14 18  1  0
 12 19  1  6
 18 20  1  0
 19 20  1  0
 17 21  1  0
 21 22  2  0
 21 23  1  0
 23 24  1  0
 22 25  1  0
 24 25  2  0
M  END
