mac-x0138-mac-x0277
     RDKit          3D

 26 28  0  0  0  0  0  0  0  0999 V2000
   29.5260   48.7400   -3.6170 C   0  0  0  0  0  0  0  0  0  0  0  0
   29.1920   49.7890   -4.5470 N   0  0  0  0  0  0  0  0  0  0  0  0
   28.7450   51.0450   -4.2400 C   0  0  0  0  0  0  0  0  0  0  0  0
   29.2680   49.6960   -5.9070 C   0  0  0  0  0  0  0  0  0  0  0  0
   28.5280   51.7640   -5.3220 N   0  0  0  0  0  0  0  0  0  0  0  0
   28.8540   50.9280   -6.3710 C   0  0  0  0  0  0  0  0  0  0  0  0
   29.6580   48.6440   -6.6390 N   0  0  0  0  0  0  0  0  0  0  0  0
   28.8430   51.0900   -7.7650 C   0  0  0  0  0  0  0  0  0  0  0  0
   29.6150   48.8880   -7.9620 C   0  0  0  0  0  0  0  0  0  0  0  0
   28.4530   52.2650   -8.3850 N   0  0  0  0  0  0  0  0  0  0  0  0
   30.0150   47.8240   -8.7620 N   0  0  0  0  0  0  0  0  0  0  0  0
   29.2290   50.0490   -8.5390 N   0  0  0  0  0  0  0  0  0  0  0  0
   29.9360   46.4900   -8.1680 C   0  0  0  0  0  0  0  0  0  0  0  0
   31.3240   45.9040   -7.8430 C   0  0  0  0  0  0  0  0  0  0  0  0
   31.2200   44.9880   -6.6990 N   0  0  0  0  0  0  0  0  0  0  0  0
   32.1400   44.9510   -5.8060 C   0  0  0  0  0  0  0  0  0  0  0  0
   33.1780   45.7840   -6.0020 O   0  0  0  0  0  0  0  0  0  0  0  0
   32.2770   44.1270   -4.5520 C   0  0  0  0  0  0  0  0  0  0  0  0
   31.2690   44.4790   -3.4770 C   0  0  0  0  0  0  0  0  0  0  0  0
   31.6280   45.2960   -2.3910 C   0  0  0  0  0  0  0  0  0  0  0  0
   29.9560   43.9920   -3.5500 C   0  0  0  0  0  0  0  0  0  0  0  0
   30.6930   45.6210   -1.3990 C   0  0  0  0  0  0  0  0  0  0  0  0
   29.0230   44.3160   -2.5610 C   0  0  0  0  0  0  0  0  0  0  0  0
   31.2160   46.6310   -0.0970 Cl  0  0  0  0  0  0  0  0  0  0  0  0
   29.3880   45.1290   -1.4850 C   0  0  0  0  0  0  0  0  0  0  0  0
   28.1790   45.4850   -0.3030 Cl  0  0  0  0  0  0  0  0  0  0  0  0
  1  2  1  0
  2  3  1  0
  2  4  1  0
  3  5  2  0
  4  6  2  0
  5  6  1  0
  4  7  1  0
  6  8  1  0
  7  9  2  0
  8 10  1  0
  9 11  1  0
  8 12  2  0
  9 12  1  0
 11 13  1  0
 13 14  1  0
 14 15  1  0
 15 16  2  3
 16 17  1  0
 16 18  1  0
 18 19  1  0
 19 20  2  0
 19 21  1  0
 20 22  1  0
 21 23  2  0
 22 24  1  0
 22 25  2  0
 23 25  1  0
 25 26  1  0
M  END
