mac-x0584-mac-x0306
     RDKit          3D

 22 26  0  0  0  0  0  0  0  0999 V2000
   33.7350   45.6340   -5.8720 C   0  0  0  0  0  0  0  0  0  0  0  0
   32.9000   46.8750   -5.5030 C   0  0  0  0  0  0  0  0  0  0  0  0
   32.1240   45.9660   -4.5030 C   0  0  0  0  0  0  0  0  0  0  0  0
   32.5190   44.7890   -5.4450 C   0  0  0  0  0  0  0  0  0  0  0  0
   30.6380   46.2980   -4.3000 C   0  0  1  0  0  0  0  0  0  0  0  0
   30.2570   45.9480   -2.8430 C   0  0  0  0  0  0  0  0  0  0  0  0
   30.3150   47.7410   -4.4050 N   0  0  0  0  0  0  0  0  0  0  0  0
   29.7470   48.2480   -3.1520 C   0  0  0  0  0  0  0  0  0  0  0  0
   30.2810   47.2780   -2.1130 C   0  0  0  0  0  0  0  0  0  0  0  0
   29.7950   48.2520   -5.5830 C   0  0  0  0  0  0  0  0  0  0  0  0
   29.5200   47.4120   -6.6000 N   0  0  0  0  0  0  0  0  0  0  0  0
   29.5490   49.5950   -5.7430 C   0  0  0  0  0  0  0  0  0  0  0  0
   29.0140   47.9380   -7.7330 C   0  0  0  0  0  0  0  0  0  0  0  0
   29.0310   50.0290   -6.9470 C   0  0  0  0  0  0  0  0  0  0  0  0
   29.7400   50.7570   -4.8300 C   0  0  0  0  0  0  0  0  0  0  0  0
   28.7480   49.2290   -7.9690 N   0  0  0  0  0  0  0  0  0  0  0  0
   28.8180   51.4300   -6.9980 N   0  0  0  0  0  0  0  0  0  0  0  0
   29.3270   51.9230   -5.7500 C   0  0  0  0  0  0  0  0  0  0  0  0
   28.3030   52.7770   -5.1570 N   0  0  0  0  0  0  0  0  0  0  0  0
   30.4000   52.8860   -5.9870 N   0  0  0  0  0  0  0  0  0  0  0  0
   29.9210   54.1690   -5.7930 C   0  0  0  0  0  0  0  0  0  0  0  0
   28.6810   54.1050   -5.3010 C   0  0  0  0  0  0  0  0  0  0  0  0
  1  2  1  0
  2  3  1  0
  1  4  1  0
  3  4  1  0
  5  3  1  1
  5  6  1  0
  5  7  1  0
  7  8  1  0
  6  9  1  0
  8  9  1  0
  7 10  1  0
 10 11  2  0
 10 12  1  0
 11 13  1  0
 12 14  2  0
 12 15  1  0
 13 16  2  0
 14 16  1  0
 14 17  1  0
 15 18  1  0
 18 17  1  0
 18 19  1  0
 18 20  1  0
 20 21  1  0
 19 22  1  0
 21 22  2  0
M  END
