mac-x0411-mac-x0283
     RDKit          3D

 25 27  0  0  0  0  0  0  0  0999 V2000
   37.1650   44.9020   -3.6480 Cl  0  0  0  0  0  0  0  0  0  0  0  0
   36.1970   46.3100   -3.3860 C   0  0  0  0  0  0  0  0  0  0  0  0
   34.8160   46.3250   -3.6400 C   0  0  0  0  0  0  0  0  0  0  0  0
   36.8340   47.4550   -2.9080 C   0  0  0  0  0  0  0  0  0  0  0  0
   34.1660   45.2070   -4.1110 O   0  0  0  0  0  0  0  0  0  0  0  0
   34.0660   47.4960   -3.4100 C   0  0  0  0  0  0  0  0  0  0  0  0
   36.1000   48.6180   -2.6810 C   0  0  0  0  0  0  0  0  0  0  0  0
   32.5780   47.5650   -3.6640 C   0  0  0  0  0  0  0  0  0  0  0  0
   33.8560   45.3340   -5.5030 C   0  0  0  0  0  0  0  0  0  0  0  0
   34.7290   48.6390   -2.9280 C   0  0  0  0  0  0  0  0  0  0  0  0
   33.0860   44.1240   -6.0060 C   0  0  0  0  0  0  0  0  0  0  0  0
   31.8140   48.4500   -2.6710 C   0  0  0  0  0  0  0  0  0  0  0  0
   31.9020   44.4190   -6.5770 O   0  0  0  0  0  0  0  0  0  0  0  0
   33.4530   42.9600   -5.9290 O   0  0  0  0  0  0  0  0  0  0  0  0
   30.3240   48.5710   -3.0030 C   0  0  0  0  0  0  0  0  0  0  0  0
   30.0350   49.8320   -3.7860 C   0  0  0  0  0  0  0  0  0  0  0  0
   30.2270   51.0880   -3.1870 C   0  0  0  0  0  0  0  0  0  0  0  0
   29.5750   49.7400   -5.1110 C   0  0  0  0  0  0  0  0  0  0  0  0
   29.9380   52.2030   -3.9700 C   0  0  0  0  0  0  0  0  0  0  0  0
   29.2930   50.8880   -5.8700 C   0  0  0  0  0  0  0  0  0  0  0  0
   30.0520   53.5030   -3.5880 O   0  0  0  0  0  0  0  0  0  0  0  0
   29.4850   52.1480   -5.2740 C   0  0  0  0  0  0  0  0  0  0  0  0
   29.3380   53.5110   -5.6370 C   0  0  0  0  0  0  0  0  0  0  0  0
   29.6760   54.3290   -4.6370 N   0  0  0  0  0  0  0  0  0  0  0  0
   28.9100   53.9290   -6.8460 N   0  0  0  0  0  0  0  0  0  0  0  0
  1  2  1  0
  2  3  2  0
  2  4  1  0
  3  5  1  0
  3  6  1  0
  4  7  2  0
  6  8  1  0
  5  9  1  0
  6 10  2  0
  7 10  1  0
  9 11  1  0
  8 12  1  0
 11 13  1  0
 11 14  2  0
 12 15  1  0
 15 16  1  0
 16 17  2  0
 16 18  1  0
 17 19  1  0
 18 20  2  0
 19 21  1  0
 19 22  2  0
 20 22  1  0
 22 23  1  0
 21 24  1  0
 23 24  2  0
 23 25  1  0
M  END
