mac-x0337-mac-x0231
     RDKit          3D

 27 29  0  0  0  0  0  0  0  0999 V2000
   35.5110   52.2420   -5.6020 C   0  0  0  0  0  0  0  0  0  0  0  0
   34.0980   51.7890   -5.3740 C   0  0  0  0  0  0  0  0  0  0  0  0
   33.0620   52.7270   -5.2880 C   0  0  0  0  0  0  0  0  0  0  0  0
   33.8040   50.4250   -5.2480 C   0  0  0  0  0  0  0  0  0  0  0  0
   32.4900   50.0020   -5.0340 C   0  0  0  0  0  0  0  0  0  0  0  0
   31.7480   52.3100   -5.0740 C   0  0  0  0  0  0  0  0  0  0  0  0
   31.4710   50.9490   -4.9450 C   0  0  0  0  0  0  0  0  0  0  0  0
   29.8060   50.4380   -4.6670 S   0  0  2  0  0  0  0  0  0  0  0  0
   29.5480   50.1540   -3.1680 N   0  0  0  0  0  0  0  0  0  0  0  0
   29.3490   49.6870   -5.8180 O   0  0  0  0  0  0  0  0  0  0  0  0
   28.8270   51.7950   -4.7960 N   0  0  0  0  0  0  0  0  0  0  0  0
   30.5620   49.5880   -2.2290 C   0  0  0  0  0  0  0  0  0  0  0  0
   30.9150   48.2090   -2.6920 C   0  0  0  0  0  0  0  0  0  0  0  0
   29.9590   47.1870   -2.6040 C   0  0  0  0  0  0  0  0  0  0  0  0
   32.1700   47.9330   -3.2350 C   0  0  0  0  0  0  0  0  0  0  0  0
   30.2580   45.9170   -3.0930 C   0  0  0  0  0  0  0  0  0  0  0  0
   32.4640   46.6650   -3.7250 C   0  0  0  0  0  0  0  0  0  0  0  0
   31.4950   45.6590   -3.6700 C   0  0  0  0  0  0  0  0  0  0  0  0
   29.2590   44.8340   -3.0180 C   0  0  0  0  0  0  0  0  0  0  0  0
   28.1400   45.0290   -2.5520 O   0  0  0  0  0  0  0  0  0  0  0  0
   31.7150   44.3100   -4.2230 C   0  0  0  0  0  0  0  0  0  0  0  0
   29.6640   43.6110   -3.4900 N   0  0  0  0  0  0  0  0  0  0  0  0
   32.9950   44.0480   -4.9860 C   0  0  0  0  0  0  0  0  0  0  0  0
   30.8370   43.3500   -4.1340 N   0  0  0  0  0  0  0  0  0  0  0  0
   33.0740   44.8790   -6.2410 C   0  0  0  0  0  0  0  0  0  0  0  0
   34.3290   45.3040   -6.5030 O   0  0  0  0  0  0  0  0  0  0  0  0
   32.1620   45.1870   -6.9920 O   0  0  0  0  0  0  0  0  0  0  0  0
  1  2  1  0
  2  3  2  0
  2  4  1  0
  4  5  2  0
  3  6  1  0
  5  7  1  0
  6  7  2  0
  7  8  1  0
  8  9  2  0
  8 10  2  0
  8 11  1  6
  9 12  1  0
 12 13  1  0
 13 14  2  0
 13 15  1  0
 14 16  1  0
 15 17  2  0
 16 18  2  0
 17 18  1  0
 16 19  1  0
 19 20  2  0
 18 21  1  0
 19 22  1  0
 21 23  1  0
 21 24  2  0
 22 24  1  0
 23 25  1  0
 25 26  1  0
 25 27  2  0
M  END
