mac-x0212-mac-x0375
     RDKit          3D

 26 27  0  0  0  0  0  0  0  0999 V2000
   30.8700   53.7570   -6.3790 C   0  0  0  0  0  0  0  0  0  0  0  0
   29.4770   54.2370   -5.3790 S   0  0  0  0  0  0  0  0  0  0  0  0
   28.8510   55.3780   -6.0170 O   0  0  0  0  0  0  0  0  0  0  0  0
   29.8790   54.2800   -3.9940 O   0  0  0  0  0  0  0  0  0  0  0  0
   28.4150   52.9450   -5.6470 N   0  0  0  0  0  0  0  0  0  0  0  0
   28.8800   51.6350   -5.3310 C   0  0  0  0  0  0  0  0  0  0  0  0
   29.1140   50.7200   -6.3590 C   0  0  0  0  0  0  0  0  0  0  0  0
   29.0990   51.2690   -4.0030 C   0  0  0  0  0  0  0  0  0  0  0  0
   29.5660   49.4360   -6.0550 C   0  0  0  0  0  0  0  0  0  0  0  0
   29.5530   49.9830   -3.6980 C   0  0  0  0  0  0  0  0  0  0  0  0
   29.7890   49.0550   -4.7240 C   0  0  0  0  0  0  0  0  0  0  0  0
   30.2660   47.6800   -4.4430 C   0  0  0  0  0  0  0  0  0  0  0  0
   30.3540   46.7760   -5.3470 N   0  0  0  0  0  0  0  0  0  0  0  0
   30.5820   47.5130   -3.1470 O   0  0  0  0  0  0  0  0  0  0  0  0
   30.8140   45.4150   -5.0870 C   0  0  0  0  0  0  0  0  0  0  0  0
   31.6790   44.8120   -6.0600 O   0  0  0  0  0  0  0  0  0  0  0  0
   33.0140   44.9890   -5.8350 C   0  0  0  0  0  0  0  0  0  0  0  0
   33.8300   45.3080   -6.6910 O   0  0  0  0  0  0  0  0  0  0  0  0
   33.3710   44.7360   -4.3760 C   0  0  0  0  0  0  0  0  0  0  0  0
   34.7770   44.5600   -4.2310 O   0  0  0  0  0  0  0  0  0  0  0  0
   35.5210   45.6040   -3.7500 C   0  0  0  0  0  0  0  0  0  0  0  0
   36.8310   45.5130   -3.2770 C   0  0  0  0  0  0  0  0  0  0  0  0
   34.8870   46.8560   -3.7470 C   0  0  0  0  0  0  0  0  0  0  0  0
   37.4970   46.6490   -2.8110 C   0  0  0  0  0  0  0  0  0  0  0  0
   35.5520   47.9910   -3.2810 C   0  0  0  0  0  0  0  0  0  0  0  0
   36.8570   47.8870   -2.8120 C   0  0  0  0  0  0  0  0  0  0  0  0
  1  2  1  0
  2  3  2  0
  2  4  2  0
  2  5  1  0
  5  6  1  0
  6  7  2  0
  6  8  1  0
  7  9  1  0
  8 10  2  0
  9 11  2  0
 10 11  1  0
 11 12  1  0
 12 13  2  3
 12 14  1  0
 13 15  1  0
 15 16  1  0
 16 17  1  0
 17 18  2  0
 17 19  1  0
 19 20  1  0
 20 21  1  0
 21 22  2  0
 21 23  1  0
 22 24  1  0
 23 25  2  0
 24 26  2  0
 25 26  1  0
M  END
