mac-x0392-mac-x0565
     RDKit          3D

 21 23  0  0  0  0  0  0  0  0999 V2000
   30.4740   47.6320   -8.0490 N   0  0  0  0  0  0  0  0  0  0  0  0
   29.3880   48.4510   -7.6810 C   0  0  0  0  0  0  0  0  0  0  0  0
   28.8410   49.3470   -8.6070 C   0  0  0  0  0  0  0  0  0  0  0  0
   28.8140   48.4030   -6.3930 C   0  0  0  0  0  0  0  0  0  0  0  0
   29.3370   47.4580   -5.3170 C   0  0  1  0  0  0  0  0  0  0  0  0
   27.7310   49.2660   -6.1400 C   0  0  0  0  0  0  0  0  0  0  0  0
   27.8010   50.1780   -8.3710 N   0  0  0  0  0  0  0  0  0  0  0  0
   29.9340   46.3000   -5.8850 O   0  0  0  0  0  0  0  0  0  0  0  0
   27.2700   50.1170   -7.1370 C   0  0  0  0  0  0  0  0  0  0  0  0
   30.3340   47.9680   -4.4150 N   0  0  0  0  0  0  0  0  0  0  0  0
   30.3240   49.1970   -3.7840 C   0  0  0  0  0  0  0  0  0  0  0  0
   30.9820   47.1100   -3.4300 C   0  0  0  0  0  0  0  0  0  0  0  0
   30.0640   50.4630   -4.2810 C   0  0  0  0  0  0  0  0  0  0  0  0
   30.6360   49.0370   -2.4380 C   0  0  0  0  0  0  0  0  0  0  0  0
   30.8650   47.7250   -2.1200 O   0  0  0  0  0  0  0  0  0  0  0  0
   30.1260   51.5550   -3.3940 C   0  0  0  0  0  0  0  0  0  0  0  0
   30.7030   50.0870   -1.5440 C   0  0  0  0  0  0  0  0  0  0  0  0
   29.8620   52.9430   -3.8520 C   0  0  0  0  0  0  0  0  0  0  0  0
   30.4430   51.3650   -2.0340 C   0  0  0  0  0  0  0  0  0  0  0  0
   30.8650   53.4590   -4.5940 O   0  0  0  0  0  0  0  0  0  0  0  0
   28.8410   53.5500   -3.5770 O   0  0  0  0  0  0  0  0  0  0  0  0
  1  2  1  0
  2  3  2  0
  2  4  1  0
  4  5  1  0
  4  6  2  0
  3  7  1  0
  5  8  1  6
  6  9  1  0
  7  9  2  0
  5 10  1  0
 10 11  1  0
 10 12  1  0
 11 13  2  0
 11 14  1  0
 12 15  1  0
 14 15  1  0
 13 16  1  0
 14 17  2  0
 16 18  1  0
 16 19  2  0
 17 19  1  0
 18 20  1  0
 18 21  2  0
M  END
