mac-x0361-mac-x0116
     RDKit          3D

 20 23  0  0  0  0  0  0  0  0999 V2000
   30.0840   53.1280   -6.3450 N   0  0  0  0  0  0  0  0  0  0  0  0
   29.6220   53.2130   -5.0140 C   0  0  0  0  0  0  0  0  0  0  0  0
   29.5140   54.1670   -4.2610 O   0  0  0  0  0  0  0  0  0  0  0  0
   29.8870   51.8410   -6.9100 N   0  0  0  0  0  0  0  0  0  0  0  0
   31.0030   53.9950   -6.8870 C   0  0  0  0  0  0  0  0  0  0  0  0
   29.2510   51.7820   -4.6510 C   0  0  1  0  0  0  0  0  0  0  0  0
   30.0370   50.9970   -5.7160 C   0  0  1  0  0  0  0  0  0  0  0  0
   32.2590   54.0470   -6.3620 O   0  0  0  0  0  0  0  0  0  0  0  0
   30.9030   54.8900   -7.9350 C   0  0  0  0  0  0  0  0  0  0  0  0
   29.6260   49.5020   -5.6750 C   0  0  2  0  0  0  0  0  0  0  0  0
   29.5320   51.2400   -3.2840 C   0  0  0  0  0  0  0  0  0  0  0  0
   32.1680   55.5180   -8.0530 C   0  0  0  0  0  0  0  0  0  0  0  0
   32.9570   54.9700   -7.0710 C   0  0  0  0  0  0  0  0  0  0  0  0
   30.1010   48.9790   -4.2540 C   0  0  1  0  0  0  0  0  0  0  0  0
   29.9190   49.9620   -3.1130 C   0  0  0  0  0  0  0  0  0  0  0  0
   30.2740   48.7010   -6.7580 N   0  0  0  0  0  0  0  0  0  0  0  0
   28.1180   49.2660   -5.9130 C   0  0  0  0  0  0  0  0  0  0  0  0
   29.4770   47.7390   -3.9210 O   0  0  0  0  0  0  0  0  0  0  0  0
   28.0370   48.6340   -7.2380 N   0  0  0  0  0  0  0  0  0  0  0  0
   29.2420   47.8330   -7.2860 C   0  0  0  0  0  0  0  0  0  0  0  0
  1  2  1  0
  2  3  2  0
  1  4  1  0
  1  5  1  0
  2  6  1  0
  7  4  1  6
  6  7  1  0
  5  8  1  0
  5  9  2  0
  7 10  1  0
  6 11  1  1
  9 12  1  0
  8 13  1  0
 12 13  2  0
 10 14  1  0
 11 15  2  0
 14 15  1  0
 10 16  1  0
 10 17  1  1
 14 18  1  1
 17 19  1  0
 16 20  1  0
 19 20  1  0
M  END
