mac-x0375-mac-x0301
     RDKit          3D

 24 26  0  0  0  0  0  0  0  0999 V2000
   32.5100   43.5200   -6.3630 O   0  0  0  0  0  0  0  0  0  0  0  0
   33.3580   44.5670   -6.2470 C   0  0  0  0  0  0  0  0  0  0  0  0
   34.1510   44.7960   -7.1490 O   0  0  0  0  0  0  0  0  0  0  0  0
   33.2130   45.3610   -4.9530 C   0  0  2  0  0  0  0  0  0  0  0  0
   34.2390   44.9190   -4.0580 O   0  0  0  0  0  0  0  0  0  0  0  0
   31.8220   45.1140   -4.3690 C   0  0  0  0  0  0  0  0  0  0  0  0
   30.8870   46.0330   -4.9640 O   0  0  0  0  0  0  0  0  0  0  0  0
   35.1830   45.8100   -3.6270 C   0  0  0  0  0  0  0  0  0  0  0  0
   30.1890   46.8060   -4.0960 C   0  0  0  0  0  0  0  0  0  0  0  0
   36.5480   45.5610   -3.4660 C   0  0  0  0  0  0  0  0  0  0  0  0
   34.6870   47.0860   -3.3320 C   0  0  0  0  0  0  0  0  0  0  0  0
   29.9720   46.5360   -2.9250 O   0  0  0  0  0  0  0  0  0  0  0  0
   37.4000   46.5740   -3.0180 C   0  0  0  0  0  0  0  0  0  0  0  0
   35.5380   48.0970   -2.8850 C   0  0  0  0  0  0  0  0  0  0  0  0
   29.7020   48.0530   -4.7430 C   0  0  0  0  0  0  0  0  0  0  0  0
   36.8970   47.8410   -2.7270 C   0  0  0  0  0  0  0  0  0  0  0  0
   29.2570   48.1410   -6.0560 C   0  0  0  0  0  0  0  0  0  0  0  0
   29.6920   49.2280   -3.9720 C   0  0  0  0  0  0  0  0  0  0  0  0
   28.8220   49.3460   -6.5740 C   0  0  0  0  0  0  0  0  0  0  0  0
   29.2440   50.4470   -4.5130 C   0  0  0  0  0  0  0  0  0  0  0  0
   29.1750   47.1490   -6.9850 O   0  0  0  0  0  0  0  0  0  0  0  0
   28.8020   50.5090   -5.8350 C   0  0  0  0  0  0  0  0  0  0  0  0
   28.4220   49.2460   -7.8750 O   0  0  0  0  0  0  0  0  0  0  0  0
   28.7480   47.8740   -8.1540 C   0  0  0  0  0  0  0  0  0  0  0  0
  1  2  1  0
  2  3  2  0
  2  4  1  0
  4  5  1  0
  4  6  1  1
  6  7  1  0
  5  8  1  0
  7  9  1  0
  8 10  2  0
  8 11  1  0
  9 12  2  0
 10 13  1  0
 11 14  2  0
  9 15  1  0
 13 16  2  0
 14 16  1  0
 15 17  1  0
 15 18  2  0
 17 19  2  0
 18 20  1  0
 17 21  1  0
 19 22  1  0
 20 22  2  0
 19 23  1  0
 21 24  1  0
 23 24  1  0
M  END
