mac-x0338-mac-x0179
     RDKit          3D

 26 28  0  0  0  0  0  0  0  0999 V2000
   28.4350   51.7190   -7.4850 N   0  0  0  0  0  0  0  0  0  0  0  0
   28.7970   52.3860   -6.3430 C   0  0  0  0  0  0  0  0  0  0  0  0
   28.6070   53.5890   -6.2120 O   0  0  0  0  0  0  0  0  0  0  0  0
   29.4300   51.5570   -5.2820 C   0  0  0  0  0  0  0  0  0  0  0  0
   29.4510   50.2040   -5.4630 N   0  0  0  0  0  0  0  0  0  0  0  0
   29.9720   52.1650   -4.1600 C   0  0  0  0  0  0  0  0  0  0  0  0
   30.0420   49.5060   -4.4620 C   0  0  0  0  0  0  0  0  0  0  0  0
   30.5610   51.4560   -3.1640 N   0  0  0  0  0  0  0  0  0  0  0  0
   30.5910   50.1070   -3.3290 C   0  0  0  0  0  0  0  0  0  0  0  0
   31.2390   49.2950   -2.2380 C   0  0  0  0  0  0  0  0  0  0  0  0
   32.0190   48.0950   -2.7770 C   0  0  0  0  0  0  0  0  0  0  0  0
   33.3940   48.0900   -2.2720 N   0  0  0  0  0  0  0  0  0  0  0  0
   34.1750   47.0690   -2.2190 C   0  0  0  0  0  0  0  0  0  0  0  0
   33.7670   45.8240   -2.6520 N   0  0  0  0  0  0  0  0  0  0  0  0
   35.5550   46.8860   -1.7410 C   0  0  0  0  0  0  0  0  0  0  0  0
   32.7620   45.4920   -3.6720 C   0  0  0  0  0  0  0  0  0  0  0  0
   34.5050   44.8560   -2.0300 C   0  0  0  0  0  0  0  0  0  0  0  0
   35.7470   45.5160   -1.6260 C   0  0  0  0  0  0  0  0  0  0  0  0
   36.5850   47.7540   -1.4180 C   0  0  0  0  0  0  0  0  0  0  0  0
   33.2890   45.4690   -5.1060 C   0  0  0  0  0  0  0  0  0  0  0  0
   34.2430   43.6890   -1.8230 O   0  0  0  0  0  0  0  0  0  0  0  0
   36.9330   44.9440   -1.1990 C   0  0  0  0  0  0  0  0  0  0  0  0
   37.8020   47.2050   -0.9810 C   0  0  0  0  0  0  0  0  0  0  0  0
   32.3620   45.1420   -6.0420 O   0  0  0  0  0  0  0  0  0  0  0  0
   34.4450   45.7200   -5.4220 O   0  0  0  0  0  0  0  0  0  0  0  0
   37.9750   45.8130   -0.8730 C   0  0  0  0  0  0  0  0  0  0  0  0
  1  2  1  0
  2  3  2  0
  2  4  1  0
  4  5  2  0
  4  6  1  0
  5  7  1  0
  6  8  2  0
  7  9  2  0
  8  9  1  0
  9 10  1  0
 10 11  1  0
 11 12  1  0
 12 13  2  3
 13 14  1  0
 13 15  1  0
 14 16  1  0
 14 17  1  0
 15 18  2  0
 17 18  1  0
 15 19  1  0
 16 20  1  0
 17 21  2  0
 18 22  1  0
 19 23  2  0
 20 24  1  0
 20 25  2  0
 22 26  2  0
 23 26  1  0
M  END
