mac-x0584-mac-x0346
     RDKit          3D

 23 26  0  0  0  0  0  0  0  0999 V2000
   29.5490   55.1590   -5.2330 O   0  0  0  0  0  0  0  0  0  0  0  0
   29.1770   53.8350   -5.5790 N   0  0  0  0  0  0  0  0  0  0  0  0
   29.6600   52.8580   -4.7340 C   0  0  0  0  0  0  0  0  0  0  0  0
   30.1440   53.1240   -3.6390 O   0  0  0  0  0  0  0  0  0  0  0  0
   29.5340   51.4710   -5.2720 C   0  0  0  0  0  0  0  0  0  0  0  0
   29.1800   51.2210   -6.5990 N   0  0  0  0  0  0  0  0  0  0  0  0
   29.7490   50.3670   -4.5300 C   0  0  0  0  0  0  0  0  0  0  0  0
   30.1030   50.2280   -3.2200 O   0  0  0  0  0  0  0  0  0  0  0  0
   29.1760   49.9170   -6.6810 C   0  0  0  0  0  0  0  0  0  0  0  0
   29.5290   49.2460   -5.3980 C   0  0  0  0  0  0  0  0  0  0  0  0
   28.8810   49.2100   -7.8150 N   0  0  0  0  0  0  0  0  0  0  0  0
   29.5560   47.8990   -5.3560 C   0  0  0  0  0  0  0  0  0  0  0  0
   29.8600   47.1030   -4.2570 N   0  0  0  0  0  0  0  0  0  0  0  0
   29.2430   47.2570   -6.5360 N   0  0  0  0  0  0  0  0  0  0  0  0
   28.9310   47.9240   -7.6790 C   0  0  0  0  0  0  0  0  0  0  0  0
   30.5320   45.7900   -4.3960 C   0  0  1  0  0  0  0  0  0  0  0  0
   30.2720   47.7030   -2.9850 C   0  0  0  0  0  0  0  0  0  0  0  0
   31.6780   45.8920   -5.4020 C   0  0  0  0  0  0  0  0  0  0  0  0
   31.0690   45.4580   -2.9910 C   0  0  0  0  0  0  0  0  0  0  0  0
   30.4580   46.5040   -2.0710 C   0  0  0  0  0  0  0  0  0  0  0  0
   32.6990   44.7180   -5.4120 C   0  0  0  0  0  0  0  0  0  0  0  0
   32.8750   46.8050   -5.0100 C   0  0  0  0  0  0  0  0  0  0  0  0
   33.7990   45.7660   -5.6760 C   0  0  0  0  0  0  0  0  0  0  0  0
  1  2  1  0
  2  3  1  0
  3  4  2  0
  3  5  1  0
  5  6  1  0
  5  7  2  0
  7  8  1  0
  6  9  2  0
  7 10  1  0
  9 10  1  0
  9 11  1  0
 10 12  2  0
 12 13  1  0
 12 14  1  0
 11 15  2  0
 14 15  1  0
 13 16  1  0
 13 17  1  0
 16 18  1  6
 16 19  1  0
 17 20  1  0
 19 20  1  0
 18 21  1  0
 18 22  1  0
 21 23  1  0
 22 23  1  0
M  END
