mac-x0584-mac-x0284
     RDKit          3D

 28 32  0  0  0  0  0  0  0  0999 V2000
   25.4940   50.6450   -2.6110 C   0  0  0  0  0  0  0  0  0  0  0  0
   26.8210   49.9700   -2.7910 C   0  0  0  0  0  0  0  0  0  0  0  0
   27.9640   50.7100   -3.0700 C   0  0  0  0  0  0  0  0  0  0  0  0
   26.9300   48.5790   -2.6820 C   0  0  0  0  0  0  0  0  0  0  0  0
   28.1660   47.9150   -2.8510 C   0  0  0  0  0  0  0  0  0  0  0  0
   29.1930   50.0740   -3.2390 C   0  0  0  0  0  0  0  0  0  0  0  0
   28.1730   46.4180   -2.7120 C   0  0  0  0  0  0  0  0  0  0  0  0
   29.3360   48.6740   -3.1390 C   0  0  0  0  0  0  0  0  0  0  0  0
   27.6670   45.6000   -3.4580 O   0  0  0  0  0  0  0  0  0  0  0  0
   28.8260   46.0000   -1.6050 O   0  0  0  0  0  0  0  0  0  0  0  0
   30.7150   48.0340   -3.3370 C   0  0  1  0  0  0  0  0  0  0  0  0
   30.6690   46.7250   -4.1360 C   0  0  0  0  0  0  0  0  0  0  0  0
   31.7830   48.8650   -4.0900 C   0  0  0  0  0  0  0  0  0  0  0  0
   32.0130   46.6350   -4.8680 C   0  0  2  0  0  0  0  0  0  0  0  0
   32.2900   48.0370   -5.2110 N   0  0  0  0  0  0  0  0  0  0  0  0
   31.9210   45.7420   -6.1160 C   0  0  0  0  0  0  0  0  0  0  0  0
   32.1200   48.5140   -6.5060 C   0  0  0  0  0  0  0  0  0  0  0  0
   31.6150   44.2360   -5.8540 C   0  0  0  0  0  0  0  0  0  0  0  0
   33.2630   45.2570   -6.7410 C   0  0  0  0  0  0  0  0  0  0  0  0
   33.0950   48.2390   -7.4470 N   0  0  0  0  0  0  0  0  0  0  0  0
   31.0710   49.2280   -6.9520 C   0  0  0  0  0  0  0  0  0  0  0  0
   33.1280   43.9670   -5.9080 C   0  0  0  0  0  0  0  0  0  0  0  0
   32.9930   48.6550   -8.7430 C   0  0  0  0  0  0  0  0  0  0  0  0
   31.0280   49.6600   -8.3690 C   0  0  0  0  0  0  0  0  0  0  0  0
   29.8590   49.7470   -6.4100 C   0  0  0  0  0  0  0  0  0  0  0  0
   32.0250   49.3480   -9.2550 N   0  0  0  0  0  0  0  0  0  0  0  0
   29.9510   50.3480   -8.6390 N   0  0  0  0  0  0  0  0  0  0  0  0
   29.2630   50.3840   -7.4290 C   0  0  0  0  0  0  0  0  0  0  0  0
  1  2  1  0
  2  3  2  0
  2  4  1  0
  4  5  2  0
  3  6  1  0
  5  7  1  0
  5  8  1  0
  6  8  2  0
  7  9  2  0
  7 10  1  0
 11  8  1  6
 11 12  1  0
 11 13  1  0
 12 14  1  0
 13 15  1  0
 14 15  1  0
 14 16  1  6
 15 17  1  0
 16 18  1  0
 16 19  1  0
 17 20  1  0
 17 21  2  0
 18 22  1  0
 19 22  1  0
 20 23  1  0
 21 24  1  0
 21 25  1  0
 23 26  2  0
 24 26  1  0
 24 27  2  0
 25 28  2  0
 27 28  1  0
M  END
