mac-x0572-mac-x0337
     RDKit          3D

 24 26  0  0  0  0  0  0  0  0999 V2000
   29.4290   56.2660   -7.2590 C   0  0  0  0  0  0  0  0  0  0  0  0
   29.1210   55.0330   -6.4510 C   0  0  0  0  0  0  0  0  0  0  0  0
   28.4210   54.0800   -7.1560 N   0  0  0  0  0  0  0  0  0  0  0  0
   29.5110   54.9240   -5.1680 C   0  0  0  0  0  0  0  0  0  0  0  0
   30.2110   55.9110   -4.4960 O   0  0  0  0  0  0  0  0  0  0  0  0
   29.1730   53.6910   -4.4210 C   0  0  0  0  0  0  0  0  0  0  0  0
   28.0210   53.0020   -6.5550 C   0  0  0  0  0  0  0  0  0  0  0  0
   29.6430   53.5500   -3.2870 O   0  0  0  0  0  0  0  0  0  0  0  0
   28.2660   52.6900   -5.0890 C   0  0  1  0  0  0  0  0  0  0  0  0
   27.2690   51.9830   -7.3340 C   0  0  0  0  0  0  0  0  0  0  0  0
   27.3960   50.7060   -6.9620 C   0  0  0  0  0  0  0  0  0  0  0  0
   28.6530   51.2390   -4.9650 C   0  0  0  0  0  0  0  0  0  0  0  0
   29.4850   50.7400   -3.9170 N   0  0  0  0  0  0  0  0  0  0  0  0
   28.2320   50.3190   -5.8510 C   0  0  0  0  0  0  0  0  0  0  0  0
   30.5850   49.5000   -4.3750 S   0  0  0  0  0  0  0  0  0  0  0  0
   30.8850   48.7680   -3.1650 O   0  0  0  0  0  0  0  0  0  0  0  0
   30.1330   48.8150   -5.5680 O   0  0  0  0  0  0  0  0  0  0  0  0
   32.0280   50.4380   -4.7990 C   0  0  0  0  0  0  0  0  0  0  0  0
   33.2820   49.8330   -4.7340 C   0  0  0  0  0  0  0  0  0  0  0  0
   31.8960   51.7720   -5.1940 C   0  0  0  0  0  0  0  0  0  0  0  0
   34.4190   50.5710   -5.0680 C   0  0  0  0  0  0  0  0  0  0  0  0
   33.0360   52.5050   -5.5250 C   0  0  0  0  0  0  0  0  0  0  0  0
   34.3050   51.9090   -5.4640 C   0  0  0  0  0  0  0  0  0  0  0  0
   35.5310   52.6950   -5.8200 C   0  0  0  0  0  0  0  0  0  0  0  0
  1  2  1  0
  2  3  1  0
  2  4  2  0
  4  5  1  0
  4  6  1  0
  3  7  2  0
  6  8  2  0
  9  6  1  6
  7  9  1  0
  7 10  1  0
 10 11  2  0
  9 12  1  0
 12 13  1  0
 11 14  1  0
 12 14  2  0
 15 13  1  0
 15 16  2  0
 15 17  2  0
 15 18  1  0
 18 19  2  0
 18 20  1  0
 19 21  1  0
 20 22  2  0
 21 23  2  0
 22 23  1  0
 23 24  1  0
M  END
