mac-x0188-mac-x0437
     RDKit          3D

 27 31  0  0  0  0  0  0  0  0999 V2000
   32.0640   44.8100   -4.1990 C   0  0  1  0  0  0  0  0  0  0  0  0
   32.3640   44.9090   -5.6870 C   0  0  0  0  0  0  0  0  0  0  0  0
   33.1130   44.0770   -6.2130 O   0  0  0  0  0  0  0  0  0  0  0  0
   33.3280   44.4430   -3.3900 C   0  0  0  0  0  0  0  0  0  0  0  0
   31.4270   46.0610   -3.7860 C   0  0  0  0  0  0  0  0  0  0  0  0
   31.8250   45.8850   -6.4630 O   0  0  0  0  0  0  0  0  0  0  0  0
   31.3010   46.4030   -2.4920 O   0  0  0  0  0  0  0  0  0  0  0  0
   30.8910   47.0150   -4.5930 C   0  0  0  0  0  0  0  0  0  0  0  0
   34.4780   45.3290   -3.5560 N   0  0  0  0  0  0  0  0  0  0  0  0
   30.9330   46.8200   -6.0100 C   0  0  0  0  0  0  0  0  0  0  0  0
   30.6600   47.6270   -2.4250 N   0  0  0  0  0  0  0  0  0  0  0  0
   30.4060   48.0100   -3.6950 C   0  0  0  0  0  0  0  0  0  0  0  0
   34.5290   46.5020   -4.2590 C   0  0  0  0  0  0  0  0  0  0  0  0
   35.7220   45.1090   -3.0080 C   0  0  0  0  0  0  0  0  0  0  0  0
   30.2230   47.4330   -6.7980 O   0  0  0  0  0  0  0  0  0  0  0  0
   29.7290   49.2810   -3.9540 C   0  0  0  0  0  0  0  0  0  0  0  0
   35.7240   47.0520   -4.1980 N   0  0  0  0  0  0  0  0  0  0  0  0
   36.4760   46.2040   -3.4270 C   0  0  0  0  0  0  0  0  0  0  0  0
   36.2490   44.0900   -2.2070 C   0  0  0  0  0  0  0  0  0  0  0  0
   29.0650   49.9700   -2.9260 C   0  0  0  0  0  0  0  0  0  0  0  0
   29.7310   49.8380   -5.2430 C   0  0  0  0  0  0  0  0  0  0  0  0
   37.8210   46.3030   -3.0390 C   0  0  0  0  0  0  0  0  0  0  0  0
   37.5940   44.2070   -1.8300 C   0  0  0  0  0  0  0  0  0  0  0  0
   28.4230   51.1820   -3.1850 C   0  0  0  0  0  0  0  0  0  0  0  0
   29.0870   51.0490   -5.5000 C   0  0  0  0  0  0  0  0  0  0  0  0
   38.3690   45.2950   -2.2400 C   0  0  0  0  0  0  0  0  0  0  0  0
   28.4320   51.7220   -4.4690 C   0  0  0  0  0  0  0  0  0  0  0  0
  1  2  1  0
  2  3  2  0
  1  4  1  1
  1  5  1  0
  2  6  1  0
  5  7  1  0
  5  8  2  0
  4  9  1  0
  6 10  1  0
  8 10  1  0
  7 11  1  0
  8 12  1  0
 11 12  2  0
  9 13  1  0
  9 14  1  0
 10 15  2  0
 12 16  1  0
 13 17  2  0
 14 18  2  0
 17 18  1  0
 14 19  1  0
 16 20  2  0
 16 21  1  0
 18 22  1  0
 19 23  2  0
 20 24  1  0
 21 25  2  0
 22 26  2  0
 23 26  1  0
 24 27  2  0
 25 27  1  0
M  END
