mac-x0188-mac-x0357
     RDKit          3D

 22 25  0  0  0  0  0  0  0  0999 V2000
   30.7500   46.5670   -5.6980 C   0  0  0  0  0  0  0  0  0  0  0  0
   31.7270   46.4310   -6.6130 O   0  0  0  0  0  0  0  0  0  0  0  0
   33.0310   46.8130   -6.1550 C   0  0  0  0  0  0  0  0  0  0  0  0
   29.5830   46.2730   -5.9580 O   0  0  0  0  0  0  0  0  0  0  0  0
   31.1960   47.0550   -4.4110 C   0  0  0  0  0  0  0  0  0  0  0  0
   32.2390   46.5620   -3.6870 C   0  0  0  0  0  0  0  0  0  0  0  0
   30.7920   48.1510   -3.6090 C   0  0  0  0  0  0  0  0  0  0  0  0
   32.3920   47.2070   -2.5220 O   0  0  0  0  0  0  0  0  0  0  0  0
   31.4860   48.2090   -2.4610 N   0  0  0  0  0  0  0  0  0  0  0  0
   29.8310   49.1870   -3.8650 C   0  0  0  0  0  0  0  0  0  0  0  0
   33.2250   45.5860   -3.9310 C   0  0  0  0  0  0  0  0  0  0  0  0
   33.6540   45.7760   -5.2460 C   0  0  0  0  0  0  0  0  0  0  0  0
   29.4200   50.0590   -2.8620 C   0  0  0  0  0  0  0  0  0  0  0  0
   29.3370   49.3380   -5.1680 C   0  0  0  0  0  0  0  0  0  0  0  0
   34.6740   45.0150   -5.7220 C   0  0  0  0  0  0  0  0  0  0  0  0
   33.8090   44.6010   -3.1190 C   0  0  0  0  0  0  0  0  0  0  0  0
   33.5020   44.2860   -1.8390 O   0  0  0  0  0  0  0  0  0  0  0  0
   28.5240   51.0800   -3.1550 C   0  0  0  0  0  0  0  0  0  0  0  0
   28.4420   50.3580   -5.4610 C   0  0  0  0  0  0  0  0  0  0  0  0
   35.2640   44.0660   -4.9140 C   0  0  0  0  0  0  0  0  0  0  0  0
   34.8330   43.8510   -3.6230 C   0  0  0  0  0  0  0  0  0  0  0  0
   28.0360   51.2310   -4.4550 C   0  0  0  0  0  0  0  0  0  0  0  0
  1  2  1  0
  2  3  1  0
  1  4  2  0
  1  5  1  0
  5  6  2  0
  5  7  1  0
  6  8  1  0
  7  9  2  0
  8  9  1  0
  7 10  1  0
  6 11  1  0
  3 12  1  0
 11 12  2  0
 10 13  2  0
 10 14  1  0
 12 15  1  0
 11 16  1  0
 16 17  1  0
 13 18  1  0
 14 19  2  0
 15 20  2  0
 16 21  2  0
 20 21  1  0
 18 22  2  0
 19 22  1  0
M  END
