mac-x0341-mac-x0345
     RDKit          3D

 14 15  0  0  0  0  0  0  0  0999 V2000
   28.3150   54.8100   -7.1050 N   0  0  0  0  0  0  0  0  0  0  0  0
   28.9110   53.5770   -6.6080 C   0  0  2  0  0  0  0  0  0  0  0  0
   28.5040   52.4180   -7.3490 N   0  0  0  0  0  0  0  0  0  0  0  0
   28.8250   53.6030   -5.1440 N   0  0  0  0  0  0  0  0  0  0  0  0
   29.4890   54.8320   -4.6850 C   0  0  0  0  0  0  0  0  0  0  0  0
   29.4390   52.3900   -4.5820 C   0  0  1  0  0  0  0  0  0  0  0  0
   28.8280   51.1980   -6.7420 C   0  0  0  0  0  0  0  0  0  0  0  0
   30.8010   52.6380   -4.4200 O   0  0  0  0  0  0  0  0  0  0  0  0
   29.0780   52.1900   -3.1870 N   0  0  0  0  0  0  0  0  0  0  0  0
   29.2850   51.1280   -5.4100 C   0  0  0  0  0  0  0  0  0  0  0  0
   28.6890   50.0180   -7.4920 C   0  0  0  0  0  0  0  0  0  0  0  0
   28.9980   48.7790   -6.9370 C   0  0  0  0  0  0  0  0  0  0  0  0
   29.5910   49.8660   -4.8700 C   0  0  0  0  0  0  0  0  0  0  0  0
   29.4480   48.7020   -5.6240 C   0  0  0  0  0  0  0  0  0  0  0  0
  2  1  1  6
  2  3  1  0
  2  4  1  0
  4  5  1  0
  4  6  1  0
  3  7  1  0
  6  8  1  0
  6  9  1  1
  6 10  1  0
  7 10  2  0
  7 11  1  0
 11 12  2  0
 10 13  1  0
 12 14  1  0
 13 14  2  0
M  END
