mac-x0394-mac-x0263
     RDKit          3D

 25 27  0  0  0  0  0  0  0  0999 V2000
   24.0560   48.5600   -4.3160 Cl  0  0  0  0  0  0  0  0  0  0  0  0
   24.8880   50.0480   -4.2570 C   0  0  0  0  0  0  0  0  0  0  0  0
   24.3460   51.0200   -3.3800 C   0  0  0  0  0  0  0  0  0  0  0  0
   26.0520   50.2590   -5.0640 C   0  0  0  0  0  0  0  0  0  0  0  0
   26.5730   51.5100   -4.8990 C   0  0  0  0  0  0  0  0  0  0  0  0
   24.9490   52.2400   -3.2830 C   0  0  0  0  0  0  0  0  0  0  0  0
   24.4560   53.5540   -2.2820 Cl  0  0  0  0  0  0  0  0  0  0  0  0
   26.0120   52.4300   -4.0330 C   0  0  0  0  0  0  0  0  0  0  0  0
   27.4820   52.4720   -5.1910 C   0  0  0  0  0  0  0  0  0  0  0  0
   28.1190   52.7710   -4.0010 C   0  0  0  0  0  0  0  0  0  0  0  0
   27.6610   53.1500   -6.3750 C   0  0  0  0  0  0  0  0  0  0  0  0
   28.3990   54.2800   -6.2420 C   0  0  0  0  0  0  0  0  0  0  0  0
   28.9250   53.8440   -3.8790 C   0  0  0  0  0  0  0  0  0  0  0  0
   27.1160   52.8930   -7.6830 C   0  0  0  0  0  0  0  0  0  0  0  0
   28.9820   54.5960   -5.0220 C   0  0  0  0  0  0  0  0  0  0  0  0
   28.6320   55.2330   -7.1750 N   0  0  0  0  0  0  0  0  0  0  0  0
   28.1260   53.0460   -8.5620 O   0  0  0  0  0  0  0  0  0  0  0  0
   25.9960   52.5910   -8.0100 O   0  0  0  0  0  0  0  0  0  0  0  0
   29.2770   56.1450   -6.5150 C   0  0  0  0  0  0  0  0  0  0  0  0
   29.5590   55.7820   -5.2330 N   0  0  0  0  0  0  0  0  0  0  0  0
   29.6600   57.4740   -6.9900 C   0  0  0  0  0  0  0  0  0  0  0  0
   28.8220   58.4180   -6.0850 C   0  0  0  0  0  0  0  0  0  0  0  0
   27.6640   59.2220   -6.6470 C   0  0  0  0  0  0  0  0  0  0  0  0
   28.0110   60.4400   -7.0860 O   0  0  0  0  0  0  0  0  0  0  0  0
   26.4860   58.8880   -6.7120 O   0  0  0  0  0  0  0  0  0  0  0  0
  1  2  1  0
  2  3  2  0
  2  4  1  0
  4  5  2  0
  3  6  1  0
  6  7  1  0
  5  8  1  0
  6  8  2  0
  5  9  1  0
  9 10  2  0
  9 11  1  0
 11 12  2  0
 10 13  1  0
 11 14  1  0
 12 15  1  0
 13 15  2  0
 12 16  1  0
 14 17  1  0
 14 18  2  0
 16 19  2  0
 15 20  1  0
 19 20  1  0
 19 21  1  0
 21 22  1  0
 22 23  1  0
 23 24  1  0
 23 25  2  0
M  END
