mac-x0379-mac-x0398
     RDKit          3D

 19 20  0  0  0  0  0  0  0  0999 V2000
   31.9280   51.3550   -7.4570 C   0  0  0  0  0  0  0  0  0  0  0  0
   31.6710   50.5040   -6.2660 C   0  0  0  0  0  0  0  0  0  0  0  0
   32.5290   50.3090   -5.2860 N   0  0  0  0  0  0  0  0  0  0  0  0
   30.1680   49.7050   -6.1170 S   0  0  0  0  0  0  0  0  0  0  0  0
   31.9570   49.4780   -4.3400 C   0  0  0  0  0  0  0  0  0  0  0  0
   30.6770   49.0480   -4.6090 C   0  0  0  0  0  0  0  0  0  0  0  0
   29.7770   48.1810   -3.8090 C   0  0  0  0  0  0  0  0  0  0  0  0
   30.5380   47.4740   -2.8400 O   0  0  0  0  0  0  0  0  0  0  0  0
   29.1910   47.1990   -4.6420 O   0  0  0  0  0  0  0  0  0  0  0  0
   28.7350   49.1240   -3.1730 C   0  0  0  0  0  0  0  0  0  0  0  0
   28.1000   48.8330   -2.1600 O   0  0  0  0  0  0  0  0  0  0  0  0
   28.5490   50.4300   -3.8630 C   0  0  0  0  0  0  0  0  0  0  0  0
   28.9990   51.6250   -3.2900 C   0  0  0  0  0  0  0  0  0  0  0  0
   27.9190   50.4540   -5.1120 C   0  0  0  0  0  0  0  0  0  0  0  0
   29.6140   51.6160   -2.0700 O   0  0  0  0  0  0  0  0  0  0  0  0
   28.8230   52.8350   -3.9670 C   0  0  0  0  0  0  0  0  0  0  0  0
   27.7470   51.6690   -5.7810 C   0  0  0  0  0  0  0  0  0  0  0  0
   28.1960   52.8670   -5.2200 C   0  0  0  0  0  0  0  0  0  0  0  0
   28.0220   54.0760   -5.8980 N   0  0  0  0  0  0  0  0  0  0  0  0
  1  2  1  0
  2  3  2  0
  2  4  1  0
  3  5  1  0
  4  6  1  0
  5  6  2  0
  6  7  1  0
  7  8  1  0
  7  9  1  0
  7 10  1  0
 10 11  2  0
 10 12  1  0
 12 13  2  0
 12 14  1  0
 13 15  1  0
 13 16  1  0
 14 17  2  0
 16 18  2  0
 17 18  1  0
 18 19  1  0
M  END
