mac-x0361-mac-x0302
     RDKit          3D

 16 16  0  0  0  0  0  0  0  0999 V2000
   28.8180   53.8840   -6.2830 N   0  0  0  0  0  0  0  0  0  0  0  0
   29.4650   53.6240   -5.1050 C   0  0  0  0  0  0  0  0  0  0  0  0
   29.8630   54.5330   -4.3900 O   0  0  0  0  0  0  0  0  0  0  0  0
   29.6610   52.2030   -4.7310 C   0  0  0  0  0  0  0  0  0  0  0  0
   29.5130   51.2270   -5.7180 C   0  0  0  0  0  0  0  0  0  0  0  0
   29.9840   51.8150   -3.4340 C   0  0  0  0  0  0  0  0  0  0  0  0
   29.6800   49.8720   -5.4160 C   0  0  0  0  0  0  0  0  0  0  0  0
   30.1510   50.4610   -3.1340 C   0  0  0  0  0  0  0  0  0  0  0  0
   29.9990   49.4650   -4.1190 C   0  0  0  0  0  0  0  0  0  0  0  0
   30.1590   48.0990   -3.7740 N   0  0  0  0  0  0  0  0  0  0  0  0
   31.2870   47.3000   -4.2700 C   0  0  0  0  0  0  0  0  0  0  0  0
   29.7550   47.7820   -2.5220 C   0  0  0  0  0  0  0  0  0  0  0  0
   30.8950   46.1440   -5.1900 C   0  0  0  0  0  0  0  0  0  0  0  0
   29.5910   48.6380   -1.6610 O   0  0  0  0  0  0  0  0  0  0  0  0
   30.8100   44.9330   -4.5870 O   0  0  0  0  0  0  0  0  0  0  0  0
   30.6840   46.2830   -6.3870 O   0  0  0  0  0  0  0  0  0  0  0  0
  1  2  1  0
  2  3  2  0
  2  4  1  0
  4  5  2  0
  4  6  1  0
  5  7  1  0
  6  8  2  0
  7  9  2  0
  8  9  1  0
  9 10  1  0
 10 11  1  0
 10 12  1  0
 11 13  1  0
 12 14  2  0
 13 15  1  0
 13 16  2  0
M  END
