mac-x0392-mac-x0412
     RDKit          3D

 19 21  0  0  0  0  0  0  0  0999 V2000
   29.9640   46.7510   -7.4360 N   0  0  0  0  0  0  0  0  0  0  0  0
   29.2990   48.0220   -7.0990 C   0  0  2  0  0  0  0  0  0  0  0  0
   30.2190   49.2080   -7.4740 C   0  0  0  0  0  0  0  0  0  0  0  0
   28.9560   48.1500   -5.5950 C   0  0  1  0  0  0  0  0  0  0  0  0
   29.7590   47.1610   -4.7500 C   0  0  0  0  0  0  0  0  0  0  0  0
   28.8460   49.6260   -5.1380 C   0  0  2  0  0  0  0  0  0  0  0  0
   29.4730   50.4690   -7.4810 N   0  0  0  0  0  0  0  0  0  0  0  0
   29.9600   47.3130   -3.5490 O   0  0  0  0  0  0  0  0  0  0  0  0
   30.2540   46.0770   -5.3820 O   0  0  0  0  0  0  0  0  0  0  0  0
   28.5100   50.5640   -6.3590 C   0  0  2  0  0  0  0  0  0  0  0  0
   29.9870   50.1780   -4.2960 C   0  0  0  0  0  0  0  0  0  0  0  0
   28.4190   52.0150   -5.8170 C   0  0  1  0  0  0  0  0  0  0  0  0
   30.4070   51.4550   -4.3640 C   0  0  0  0  0  0  0  0  0  0  0  0
   29.7910   52.4760   -5.2900 C   0  0  2  0  0  0  0  0  0  0  0  0
   27.8660   53.0520   -6.7660 C   0  0  0  0  0  0  0  0  0  0  0  0
   29.6480   53.8860   -4.6950 C   0  0  0  0  0  0  0  0  0  0  0  0
   28.1030   54.3510   -6.5250 C   0  0  0  0  0  0  0  0  0  0  0  0
   30.1820   54.2680   -3.6570 O   0  0  0  0  0  0  0  0  0  0  0  0
   28.8370   54.7310   -5.4360 N   0  0  0  0  0  0  0  0  0  0  0  0
  2  1  1  1
  2  3  1  0
  2  4  1  0
  4  5  1  1
  4  6  1  0
  3  7  1  0
  5  8  2  0
  5  9  1  0
  6 10  1  0
 10  7  1  6
  6 11  1  6
 10 12  1  0
 11 13  2  0
 12 14  1  0
 14 13  1  1
 12 15  1  6
 14 16  1  0
 15 17  2  0
 16 18  2  0
 16 19  1  0
 17 19  1  0
M  END
