mac-x0455-mac-x0415
     RDKit          3D

 24 26  0  0  0  0  0  0  0  0999 V2000
   32.1940   48.7330   -5.8560 C   0  0  0  0  0  0  0  0  0  0  0  0
   31.7990   47.4910   -5.0300 C   0  0  1  0  0  0  0  0  0  0  0  0
   30.7140   48.0120   -4.2480 O   0  0  0  0  0  0  0  0  0  0  0  0
   31.3230   46.1340   -5.7540 S   0  0  0  0  0  0  0  0  0  0  0  0
   32.9120   47.3830   -4.0570 C   0  0  0  0  0  0  0  0  0  0  0  0
   29.9100   46.4830   -5.6770 O   0  0  0  0  0  0  0  0  0  0  0  0
   30.9340   46.1560   -7.4920 O   0  0  0  0  0  0  0  0  0  0  0  0
   32.7340   45.8260   -6.3270 O   0  0  0  0  0  0  0  0  0  0  0  0
   31.1810   44.6290   -5.0940 C   0  0  0  0  0  0  0  0  0  0  0  0
   33.2810   48.4540   -3.2720 C   0  0  0  0  0  0  0  0  0  0  0  0
   33.6280   46.1860   -3.9010 C   0  0  0  0  0  0  0  0  0  0  0  0
   34.3010   48.3470   -2.3810 C   0  0  0  0  0  0  0  0  0  0  0  0
   34.6640   46.0650   -3.0010 C   0  0  0  0  0  0  0  0  0  0  0  0
   30.2220   44.4460   -3.9430 C   0  0  0  0  0  0  0  0  0  0  0  0
   34.9900   47.1660   -2.2430 C   0  0  0  0  0  0  0  0  0  0  0  0
   29.0830   43.5110   -3.8740 C   0  0  0  0  0  0  0  0  0  0  0  0
   30.2010   45.0710   -2.7830 C   0  0  0  0  0  0  0  0  0  0  0  0
   28.4730   43.6120   -2.7610 N   0  0  0  0  0  0  0  0  0  0  0  0
   29.0890   44.5780   -1.9670 C   0  0  2  0  0  0  0  0  0  0  0  0
   31.0230   46.1220   -2.1540 C   0  0  0  0  0  0  0  0  0  0  0  0
   28.3720   45.5650   -1.2100 C   0  0  0  0  0  0  0  0  0  0  0  0
   30.4010   46.8690   -1.2310 C   0  0  0  0  0  0  0  0  0  0  0  0
   31.3990   48.2470   -0.3680 Br  0  0  0  0  0  0  0  0  0  0  0  0
   29.0060   46.6890   -0.8470 C   0  0  0  0  0  0  0  0  0  0  0  0
  2  1  1  6
  2  3  1  0
  2  4  1  0
  2  5  1  0
  4  6  2  0
  4  7  1  0
  4  8  1  0
  4  9  1  0
  5 10  2  0
  5 11  1  0
 10 12  1  0
 11 13  2  0
  9 14  1  0
 12 15  2  0
 13 15  1  0
 14 16  1  0
 14 17  2  0
 16 18  2  0
 17 19  1  0
 18 19  1  0
 17 20  1  0
 19 21  1  6
 20 22  2  0
 22 23  1  0
 21 24  2  0
 22 24  1  0
M  END
