mac-x0584-mac-x0380
     RDKit          3D

 27 31  0  0  0  0  0  0  0  0999 V2000
   31.7120   50.8730   -5.3880 O   0  0  0  0  0  0  0  0  0  0  0  0
   30.8720   50.8080   -4.3370 C   0  0  0  0  0  0  0  0  0  0  0  0
   31.3080   51.0110   -3.2090 O   0  0  0  0  0  0  0  0  0  0  0  0
   29.4350   50.4890   -4.6470 C   0  0  2  0  0  0  0  0  0  0  0  0
   29.1920   49.4270   -5.6760 C   0  0  0  0  0  0  0  0  0  0  0  0
   28.6520   51.6960   -5.2550 C   0  0  2  0  0  0  0  0  0  0  0  0
   28.4940   49.9520   -6.7450 C   0  0  0  0  0  0  0  0  0  0  0  0
   29.5340   48.0950   -5.7200 C   0  0  0  0  0  0  0  0  0  0  0  0
   28.2010   51.3200   -6.5870 N   0  0  0  0  0  0  0  0  0  0  0  0
   29.4220   52.8860   -5.4620 N   0  0  0  0  0  0  0  0  0  0  0  0
   27.4320   52.1190   -4.4770 C   0  0  0  0  0  0  0  0  0  0  0  0
   30.2500   47.5130   -4.6510 N   0  0  0  0  0  0  0  0  0  0  0  0
   29.1870   47.3470   -6.7860 N   0  0  0  0  0  0  0  0  0  0  0  0
   28.1330   49.2480   -7.8130 N   0  0  0  0  0  0  0  0  0  0  0  0
   28.8950   53.9390   -6.1430 C   0  0  0  0  0  0  0  0  0  0  0  0
   26.7850   53.7550   -4.4760 S   0  0  0  0  0  0  0  0  0  0  0  0
   29.2850   54.2990   -7.2430 O   0  0  0  0  0  0  0  0  0  0  0  0
   30.5040   46.0620   -4.8360 C   0  0  1  0  0  0  0  0  0  0  0  0
   29.5210   47.6570   -3.3820 C   0  0  0  0  0  0  0  0  0  0  0  0
   28.5060   47.9610   -7.7750 C   0  0  0  0  0  0  0  0  0  0  0  0
   27.7890   54.7080   -5.5200 C   0  0  0  0  0  0  0  0  0  0  0  0
   31.9030   45.8680   -5.4230 C   0  0  0  0  0  0  0  0  0  0  0  0
   30.3990   45.4430   -3.4270 C   0  0  0  0  0  0  0  0  0  0  0  0
   30.1760   46.6190   -2.4850 C   0  0  0  0  0  0  0  0  0  0  0  0
   32.5050   44.4340   -5.3490 C   0  0  0  0  0  0  0  0  0  0  0  0
   33.1010   46.3080   -4.5300 C   0  0  0  0  0  0  0  0  0  0  0  0
   33.8710   45.0970   -5.0920 C   0  0  0  0  0  0  0  0  0  0  0  0
  1  2  1  0
  2  3  2  0
  4  2  1  6
  4  5  1  0
  4  6  1  0
  5  7  2  0
  5  8  1  0
  6  9  1  0
  7  9  1  0
  6 10  1  0
  6 11  1  1
  8 12  1  0
  8 13  2  0
  7 14  1  0
 10 15  1  0
 11 16  2  0
 15 17  2  0
 12 18  1  0
 12 19  1  0
 13 20  1  0
 14 20  2  0
 15 21  1  0
 16 21  2  0
 18 22  1  1
 18 23  1  0
 19 24  1  0
 23 24  1  0
 22 25  1  0
 22 26  1  0
 25 27  1  0
 26 27  1  0
M  END
