mac-x0357-mac-x0213
     RDKit          3D

 21 23  0  0  0  0  0  0  0  0999 V2000
   32.5510   43.5180   -5.1670 C   0  0  0  0  0  0  0  0  0  0  0  0
   33.3410   44.5400   -4.5070 C   0  0  0  0  0  0  0  0  0  0  0  0
   34.3430   44.1820   -3.6500 C   0  0  0  0  0  0  0  0  0  0  0  0
   33.1130   45.8630   -4.7100 C   0  0  0  0  0  0  0  0  0  0  0  0
   34.6470   42.8890   -3.3760 O   0  0  0  0  0  0  0  0  0  0  0  0
   31.7920   46.4010   -5.8160 S   0  0  0  0  0  0  0  0  0  0  0  0
   33.8450   46.8460   -4.1070 C   0  0  0  0  0  0  0  0  0  0  0  0
   35.1110   45.1580   -3.0140 C   0  0  0  0  0  0  0  0  0  0  0  0
   32.7850   46.1730   -6.8810 O   0  0  0  0  0  0  0  0  0  0  0  0
   31.1060   45.0060   -6.6250 O   0  0  0  0  0  0  0  0  0  0  0  0
   31.6360   47.7370   -6.2230 O   0  0  0  0  0  0  0  0  0  0  0  0
   34.8530   46.4850   -3.2500 C   0  0  0  0  0  0  0  0  0  0  0  0
   30.7150   46.3310   -4.6870 C   0  0  0  0  0  0  0  0  0  0  0  0
   31.1590   46.9610   -3.3560 C   0  0  0  0  0  0  0  0  0  0  0  0
   30.3470   44.9690   -4.0410 C   0  0  0  0  0  0  0  0  0  0  0  0
   30.0140   46.6590   -2.5270 C   0  0  0  0  0  0  0  0  0  0  0  0
   29.5120   45.4250   -2.9520 C   0  0  0  0  0  0  0  0  0  0  0  0
   29.4120   47.3300   -1.4930 C   0  0  0  0  0  0  0  0  0  0  0  0
   28.4110   44.9210   -2.3070 C   0  0  0  0  0  0  0  0  0  0  0  0
   28.2970   46.8080   -0.8440 C   0  0  0  0  0  0  0  0  0  0  0  0
   27.8000   45.5960   -1.2630 C   0  0  0  0  0  0  0  0  0  0  0  0
  1  2  1  0
  2  3  2  0
  2  4  1  0
  3  5  1  0
  4  6  1  0
  4  7  2  0
  3  8  1  0
  6  9  2  0
  6 10  1  0
  6 11  1  0
  7 12  1  0
  8 12  2  0
  6 13  1  0
 13 14  1  0
 13 15  1  0
 14 16  1  0
 15 17  1  0
 16 17  2  0
 16 18  1  0
 17 19  1  0
 18 20  2  0
 19 21  2  0
 20 21  1  0
M  END
