mac-x0415-mac-x0139
     RDKit          3D

 27 30  0  0  0  0  0  0  0  0999 V2000
   33.0750   45.9410   -3.9450 O   0  0  0  0  0  0  0  0  0  0  0  0
   32.8290   45.1770   -5.1340 C   0  0  2  0  0  0  0  0  0  0  0  0
   33.4460   45.6740   -6.4140 N   0  0  0  0  0  0  0  0  0  0  0  0
   31.3150   44.8890   -5.3090 C   0  0  2  0  0  0  0  0  0  0  0  0
   30.7160   45.6420   -6.5380 C   0  0  0  0  0  0  0  0  0  0  0  0
   34.0750   44.7910   -7.0110 O   0  0  0  0  0  0  0  0  0  0  0  0
   30.3720   44.9820   -4.1290 C   0  0  0  0  0  0  0  0  0  0  0  0
   30.4720   47.0860   -6.2960 N   0  0  0  0  0  0  0  0  0  0  0  0
   29.5520   43.7940   -3.7770 C   0  0  0  0  0  0  0  0  0  0  0  0
   29.9620   45.8260   -3.1690 C   0  0  0  0  0  0  0  0  0  0  0  0
   31.5530   47.7700   -5.5870 C   0  0  0  0  0  0  0  0  0  0  0  0
   28.7390   43.8430   -2.7620 N   0  0  0  0  0  0  0  0  0  0  0  0
   28.9200   45.2160   -2.2750 C   0  0  1  0  0  0  0  0  0  0  0  0
   30.3090   47.1820   -2.8080 C   0  0  0  0  0  0  0  0  0  0  0  0
   29.5500   47.7650   -7.1340 C   0  0  0  0  0  0  0  0  0  0  0  0
   29.3450   45.3500   -0.8490 C   0  0  0  0  0  0  0  0  0  0  0  0
   30.3400   47.4870   -1.4910 C   0  0  0  0  0  0  0  0  0  0  0  0
   29.1730   49.0600   -6.9500 C   0  0  0  0  0  0  0  0  0  0  0  0
   29.0190   47.0240   -8.2090 N   0  0  0  0  0  0  0  0  0  0  0  0
   30.7650   49.1950   -0.8690 Br  0  0  0  0  0  0  0  0  0  0  0  0
   30.0300   46.4560   -0.4920 C   0  0  0  0  0  0  0  0  0  0  0  0
   28.2000   49.6500   -7.9090 C   0  0  0  0  0  0  0  0  0  0  0  0
   28.1740   47.5890   -9.0140 C   0  0  0  0  0  0  0  0  0  0  0  0
   29.4270   50.1500   -6.0550 C   0  0  0  0  0  0  0  0  0  0  0  0
   27.7390   48.8690   -8.9120 N   0  0  0  0  0  0  0  0  0  0  0  0
   27.9190   50.8930   -7.6300 N   0  0  0  0  0  0  0  0  0  0  0  0
   28.6750   51.1680   -6.5060 C   0  0  0  0  0  0  0  0  0  0  0  0
  2  1  1  1
  2  3  1  0
  2  4  1  0
  4  5  1  6
  3  6  2  0
  4  7  1  0
  5  8  1  0
  7  9  1  0
  7 10  2  0
  8 11  1  0
  9 12  2  0
 10 13  1  0
 12 13  1  0
 10 14  1  0
  8 15  1  0
 13 16  1  1
 14 17  2  0
 15 18  2  0
 15 19  1  0
 17 20  1  0
 16 21  2  0
 17 21  1  0
 18 22  1  0
 19 23  2  0
 18 24  1  0
 22 25  1  0
 23 25  1  0
 22 26  2  0
 24 27  2  0
 26 27  1  0
M  END
