mac-x0263-mac-x0361
     RDKit          3D

 24 26  0  0  0  0  0  0  0  0999 V2000
   28.1880   59.8450   -6.5650 O   0  0  0  0  0  0  0  0  0  0  0  0
   27.1020   59.0850   -6.3460 C   0  0  0  0  0  0  0  0  0  0  0  0
   26.0120   59.4260   -6.7850 O   0  0  0  0  0  0  0  0  0  0  0  0
   27.3820   57.8520   -5.5270 C   0  0  0  0  0  0  0  0  0  0  0  0
   28.4340   56.9130   -6.1300 C   0  0  0  0  0  0  0  0  0  0  0  0
   28.0580   55.4950   -5.8110 C   0  0  0  0  0  0  0  0  0  0  0  0
   26.9710   55.1350   -5.1600 N   0  0  0  0  0  0  0  0  0  0  0  0
   28.7370   54.3420   -6.0930 N   0  0  0  0  0  0  0  0  0  0  0  0
   29.8730   54.0730   -6.6370 N   0  0  0  0  0  0  0  0  0  0  0  0
   27.0140   53.7520   -5.0800 C   0  0  0  0  0  0  0  0  0  0  0  0
   28.1090   53.2600   -5.6910 C   0  0  0  0  0  0  0  0  0  0  0  0
   30.5660   53.6080   -5.5150 C   0  0  0  0  0  0  0  0  0  0  0  0
   26.1540   52.8230   -4.4970 C   0  0  0  0  0  0  0  0  0  0  0  0
   28.4380   51.9170   -5.8160 C   0  0  0  0  0  0  0  0  0  0  0  0
   31.2750   54.3420   -4.8480 O   0  0  0  0  0  0  0  0  0  0  0  0
   26.4500   51.4530   -4.5870 C   0  0  0  0  0  0  0  0  0  0  0  0
   27.5780   51.0070   -5.2470 C   0  0  0  0  0  0  0  0  0  0  0  0
   30.3860   52.1740   -5.0250 C   0  0  0  0  0  0  0  0  0  0  0  0
   30.3380   51.0590   -5.8830 C   0  0  0  0  0  0  0  0  0  0  0  0
   30.2650   51.9490   -3.6320 C   0  0  0  0  0  0  0  0  0  0  0  0
   30.1770   49.7600   -5.3640 C   0  0  0  0  0  0  0  0  0  0  0  0
   30.1060   50.6470   -3.1210 C   0  0  0  0  0  0  0  0  0  0  0  0
   30.0650   49.5660   -3.9920 C   0  0  0  0  0  0  0  0  0  0  0  0
   29.9150   48.3120   -3.4620 O   0  0  0  0  0  0  0  0  0  0  0  0
  1  2  1  0
  2  3  2  0
  2  4  1  0
  4  5  1  0
  5  6  1  0
  6  7  2  0
  6  8  1  0
  8  9  1  0
  7 10  1  0
  8 11  1  0
 10 11  2  0
  9 12  1  0
 10 13  1  0
 11 14  1  0
 12 15  2  0
 13 16  2  0
 14 17  2  0
 16 17  1  0
 12 18  1  0
 18 19  2  0
 18 20  1  0
 19 21  1  0
 20 22  2  0
 21 23  2  0
 22 23  1  0
 23 24  1  0
M  END
