mac-x0319-mac-x0124
     RDKit          3D

 22 24  0  0  0  0  0  0  0  0999 V2000
   34.1890   45.5900   -6.6660 O   0  0  0  0  0  0  0  0  0  0  0  0
   32.9120   45.6660   -6.2320 C   0  0  0  0  0  0  0  0  0  0  0  0
   32.0180   45.2160   -6.9230 O   0  0  0  0  0  0  0  0  0  0  0  0
   32.8310   46.3570   -4.8890 C   0  0  0  0  0  0  0  0  0  0  0  0
   31.8190   45.8760   -3.8520 C   0  0  0  0  0  0  0  0  0  0  0  0
   30.4470   45.6290   -4.0650 C   0  0  0  0  0  0  0  0  0  0  0  0
   32.3060   45.6860   -2.5710 C   0  0  0  0  0  0  0  0  0  0  0  0
   29.8210   45.8670   -5.3630 C   0  0  0  0  0  0  0  0  0  0  0  0
   29.6260   45.1780   -3.0310 C   0  0  0  0  0  0  0  0  0  0  0  0
   31.4730   45.2590   -1.5460 C   0  0  0  0  0  0  0  0  0  0  0  0
   28.3010   44.9200   -3.2640 O   0  0  0  0  0  0  0  0  0  0  0  0
   30.1310   44.9990   -1.7730 C   0  0  0  0  0  0  0  0  0  0  0  0
   29.6180   47.3120   -5.3830 N   0  0  0  0  0  0  0  0  0  0  0  0
   29.8470   48.2060   -4.3460 C   0  0  0  0  0  0  0  0  0  0  0  0
   29.1670   47.9760   -6.4600 C   0  0  0  0  0  0  0  0  0  0  0  0
   29.5260   49.4680   -4.8010 C   0  0  0  0  0  0  0  0  0  0  0  0
   29.0920   49.3230   -6.1510 C   0  0  0  0  0  0  0  0  0  0  0  0
   28.8550   47.3840   -7.6160 N   0  0  0  0  0  0  0  0  0  0  0  0
   28.6370   50.1550   -7.1780 C   0  0  0  0  0  0  0  0  0  0  0  0
   28.4360   48.2740   -8.5140 C   0  0  0  0  0  0  0  0  0  0  0  0
   28.4970   51.5280   -7.0560 N   0  0  0  0  0  0  0  0  0  0  0  0
   28.3110   49.6040   -8.3650 N   0  0  0  0  0  0  0  0  0  0  0  0
  1  2  1  0
  2  3  2  0
  2  4  1  0
  4  5  1  0
  5  6  2  0
  5  7  1  0
  6  8  1  0
  6  9  1  0
  7 10  2  0
  9 11  1  0
  9 12  2  0
 10 12  1  0
  8 13  1  0
 13 14  1  0
 13 15  1  0
 14 16  2  0
 15 17  2  0
 16 17  1  0
 15 18  1  0
 17 19  1  0
 18 20  2  0
 19 21  1  0
 19 22  2  0
 20 22  1  0
M  END
