mac-x0333-mac-x0394
     RDKit          3D

 22 24  0  0  0  0  0  0  0  0999 V2000
   30.5500   48.3550   -4.1670 O   0  0  0  0  0  0  0  0  0  0  0  0
   30.2980   49.6710   -4.4350 C   0  0  0  0  0  0  0  0  0  0  0  0
   29.1430   49.9700   -5.1710 C   0  0  0  0  0  0  0  0  0  0  0  0
   31.1540   50.6730   -3.9910 C   0  0  0  0  0  0  0  0  0  0  0  0
   30.8140   51.9710   -4.3090 C   0  0  0  0  0  0  0  0  0  0  0  0
   28.8040   51.2990   -5.4930 C   0  0  0  0  0  0  0  0  0  0  0  0
   27.5420   51.5830   -6.2930 C   0  0  2  0  0  0  0  0  0  0  0  0
   29.6800   52.2800   -5.0360 C   0  0  0  0  0  0  0  0  0  0  0  0
   31.5320   53.0740   -3.9590 O   0  0  0  0  0  0  0  0  0  0  0  0
   27.7330   52.4750   -7.5290 C   0  0  0  0  0  0  0  0  0  0  0  0
   29.5660   53.6230   -5.2240 O   0  0  0  0  0  0  0  0  0  0  0  0
   30.6250   54.1120   -4.3800 C   0  0  0  0  0  0  0  0  0  0  0  0
   26.3790   51.9460   -5.3610 C   0  0  0  0  0  0  0  0  0  0  0  0
   28.3820   53.6370   -7.2860 O   0  0  0  0  0  0  0  0  0  0  0  0
   27.3730   52.2400   -8.6740 O   0  0  0  0  0  0  0  0  0  0  0  0
   26.3100   53.1700   -4.6700 C   0  0  0  0  0  0  0  0  0  0  0  0
   25.3310   51.0220   -5.1830 C   0  0  0  0  0  0  0  0  0  0  0  0
   25.2250   53.4500   -3.8320 C   0  0  0  0  0  0  0  0  0  0  0  0
   24.2560   51.3180   -4.3420 C   0  0  0  0  0  0  0  0  0  0  0  0
   22.9920   50.1670   -4.1420 Cl  0  0  0  0  0  0  0  0  0  0  0  0
   25.1590   54.9580   -2.9970 Cl  0  0  0  0  0  0  0  0  0  0  0  0
   24.1980   52.5300   -3.6640 C   0  0  0  0  0  0  0  0  0  0  0  0
  1  2  1  0
  2  3  2  0
  2  4  1  0
  4  5  2  0
  3  6  1  0
  6  7  1  0
  5  8  1  0
  6  8  2  0
  5  9  1  0
  7 10  1  6
  8 11  1  0
  9 12  1  0
 11 12  1  0
  7 13  1  0
 10 14  1  0
 10 15  2  0
 13 16  2  0
 13 17  1  0
 16 18  1  0
 17 19  2  0
 19 20  1  0
 18 21  1  0
 18 22  2  0
 19 22  1  0
M  END
