mac-x0206-mac-x0277
     RDKit          3D

 24 25  0  0  0  0  0  0  0  0999 V2000
   28.8980   50.1670   -5.7380 N   0  0  0  0  0  0  0  0  0  0  0  0
   29.2840   51.0650   -4.7690 C   0  0  0  0  0  0  0  0  0  0  0  0
   29.6840   50.7440   -3.5840 N   0  0  0  0  0  0  0  0  0  0  0  0
   29.2440   52.5340   -5.1080 C   0  0  0  0  0  0  0  0  0  0  0  0
   29.7490   49.3390   -3.1920 C   0  0  0  0  0  0  0  0  0  0  0  0
   29.7630   53.5340   -4.2660 C   0  0  0  0  0  0  0  0  0  0  0  0
   28.6560   52.9220   -6.3280 C   0  0  0  0  0  0  0  0  0  0  0  0
   30.3480   53.2110   -3.0650 O   0  0  0  0  0  0  0  0  0  0  0  0
   30.4470   49.2590   -1.8310 C   0  0  0  0  0  0  0  0  0  0  0  0
   29.6930   54.8820   -4.6380 C   0  0  0  0  0  0  0  0  0  0  0  0
   28.5860   54.2670   -6.6970 C   0  0  0  0  0  0  0  0  0  0  0  0
   30.1620   47.9570   -1.0720 C   0  0  0  0  0  0  0  0  0  0  0  0
   29.1040   55.2440   -5.8530 C   0  0  0  0  0  0  0  0  0  0  0  0
   30.0530   46.7210   -1.9420 C   0  0  0  0  0  0  0  0  0  0  0  0
   31.1470   46.3740   -2.7670 C   0  0  0  0  0  0  0  0  0  0  0  0
   28.9160   45.8960   -1.9710 C   0  0  0  0  0  0  0  0  0  0  0  0
   27.5120   46.2080   -1.0070 Cl  0  0  0  0  0  0  0  0  0  0  0  0
   31.1120   45.2420   -3.5980 C   0  0  0  0  0  0  0  0  0  0  0  0
   28.8770   44.7680   -2.7970 C   0  0  0  0  0  0  0  0  0  0  0  0
   32.2950   44.8910   -4.4730 C   0  0  0  0  0  0  0  0  0  0  0  0
   29.9650   44.4400   -3.6060 C   0  0  0  0  0  0  0  0  0  0  0  0
   32.2950   45.5650   -5.8240 C   0  0  0  0  0  0  0  0  0  0  0  0
   33.3190   46.4400   -5.9470 O   0  0  0  0  0  0  0  0  0  0  0  0
   31.5180   45.4040   -6.7510 O   0  0  0  0  0  0  0  0  0  0  0  0
  1  2  1  0
  2  3  2  3
  2  4  1  0
  3  5  1  0
  4  6  2  0
  4  7  1  0
  6  8  1  0
  5  9  1  0
  6 10  1  0
  7 11  2  0
  9 12  1  0
 10 13  2  0
 11 13  1  0
 12 14  1  0
 14 15  2  0
 14 16  1  0
 16 17  1  0
 15 18  1  0
 16 19  2  0
 18 20  1  0
 18 21  2  0
 19 21  1  0
 20 22  1  0
 22 23  1  0
 22 24  2  0
M  END
