mac-x0433-mac-x0347
     RDKit          3D

 17 18  0  0  0  0  0  0  0  0999 V2000
   29.6100   50.4490   -7.0450 C   0  0  0  0  0  0  0  0  0  0  0  0
   29.2020   50.9540   -5.6500 C   0  0  2  0  0  0  0  0  0  0  0  0
   29.5380   52.4650   -5.6200 C   0  0  0  0  0  0  0  0  0  0  0  0
   29.8150   50.1680   -4.4140 C   0  0  1  0  0  0  0  0  0  0  0  0
   29.3740   50.9580   -3.1270 C   0  0  2  0  0  0  0  0  0  0  0  0
   29.1960   53.1350   -4.2910 C   0  0  2  0  0  0  0  0  0  0  0  0
   29.3260   48.6740   -4.4330 C   0  0  0  0  0  0  0  0  0  0  0  0
   31.3720   50.0740   -4.4090 C   0  0  0  0  0  0  0  0  0  0  0  0
   29.7870   54.5440   -4.2290 C   0  0  0  0  0  0  0  0  0  0  0  0
   27.9540   51.0030   -2.8690 N   0  0  0  0  0  0  0  0  0  0  0  0
   29.6850   52.3730   -3.1370 N   0  0  0  0  0  0  0  0  0  0  0  0
   30.4330   47.7270   -4.9330 C   0  0  2  0  0  0  0  0  0  0  0  0
   31.9290   49.0490   -3.5040 N   0  0  0  0  0  0  0  0  0  0  0  0
   29.9610   46.3200   -5.2540 C   0  0  0  0  0  0  0  0  0  0  0  0
   31.5950   47.6960   -3.9560 C   0  0  0  0  0  0  0  0  0  0  0  0
   29.8300   45.4870   -4.2000 O   0  0  0  0  0  0  0  0  0  0  0  0
   29.7200   45.9470   -6.3950 O   0  0  0  0  0  0  0  0  0  0  0  0
  2  1  1  6
  2  3  1  0
  2  4  1  0
  4  5  1  0
  3  6  1  0
  4  7  1  1
  4  8  1  0
  6  9  1  6
  5 10  1  6
  5 11  1  0
  6 11  1  0
  7 12  1  0
  8 13  1  0
 12 14  1  1
 12 15  1  0
 13 15  1  0
 14 16  1  0
 14 17  2  0
M  END
