mac-x0564-mac-x0396
     RDKit          3D

 23 26  0  0  0  0  0  0  0  0999 V2000
   30.5080   46.9320   -6.7820 O   0  0  0  0  0  0  0  0  0  0  0  0
   30.6530   47.1150   -5.5800 C   0  0  0  0  0  0  0  0  0  0  0  0
   31.3440   46.2450   -4.7700 N   0  0  0  0  0  0  0  0  0  0  0  0
   30.0960   48.2780   -4.8860 C   0  0  0  0  0  0  0  0  0  0  0  0
   30.3380   48.3680   -3.4510 C   0  0  0  0  0  0  0  0  0  0  0  0
   31.4870   46.4430   -3.5000 C   0  0  0  0  0  0  0  0  0  0  0  0
   29.3760   49.3470   -5.2630 C   0  0  0  0  0  0  0  0  0  0  0  0
   28.9350   49.6750   -6.5060 N   0  0  0  0  0  0  0  0  0  0  0  0
   31.0010   47.5000   -2.7700 N   0  0  0  0  0  0  0  0  0  0  0  0
   29.1090   50.1680   -4.0850 C   0  0  0  0  0  0  0  0  0  0  0  0
   29.7030   49.5780   -2.9750 C   0  0  0  0  0  0  0  0  0  0  0  0
   28.9780   50.9030   -6.9560 C   0  0  0  0  0  0  0  0  0  0  0  0
   29.6370   50.1200   -1.7090 C   0  0  0  0  0  0  0  0  0  0  0  0
   28.4050   51.3510   -3.9450 C   0  0  0  0  0  0  0  0  0  0  0  0
   28.5440   51.2730   -8.2110 N   0  0  0  0  0  0  0  0  0  0  0  0
   28.9300   51.3170   -1.5650 C   0  0  0  0  0  0  0  0  0  0  0  0
   28.3190   51.9260   -2.6760 C   0  0  0  0  0  0  0  0  0  0  0  0
   29.5210   52.0050   -6.0820 C   0  0  0  0  0  0  0  0  0  0  0  0
   30.7090   51.8880   -5.3630 C   0  0  0  0  0  0  0  0  0  0  0  0
   28.8230   53.2110   -5.9710 C   0  0  0  0  0  0  0  0  0  0  0  0
   31.2190   52.8710   -4.5700 N   0  0  0  0  0  0  0  0  0  0  0  0
   29.3210   54.2320   -5.1650 C   0  0  0  0  0  0  0  0  0  0  0  0
   30.5100   54.0180   -4.4910 C   0  0  0  0  0  0  0  0  0  0  0  0
  1  2  2  0
  2  3  1  0
  2  4  1  0
  4  5  1  0
  3  6  2  0
  4  7  2  0
  7  8  1  0
  5  9  2  0
  6  9  1  0
  7 10  1  0
  5 11  1  0
 10 11  2  0
  8 12  2  3
 11 13  1  0
 10 14  1  0
 12 15  1  0
 13 16  2  0
 14 17  2  0
 16 17  1  0
 12 18  1  0
 18 19  2  0
 18 20  1  0
 19 21  1  0
 20 22  2  0
 21 23  2  0
 22 23  1  0
M  END
