mac-x0572-mac-x0365
     RDKit          3D

 17 18  0  0  0  0  0  0  0  0999 V2000
   28.5530   55.9610   -7.0680 C   0  0  0  0  0  0  0  0  0  0  0  0
   28.8440   54.7360   -6.2330 C   0  0  0  0  0  0  0  0  0  0  0  0
   28.4690   53.5420   -6.8310 N   0  0  0  0  0  0  0  0  0  0  0  0
   29.4230   54.8410   -5.0200 C   0  0  0  0  0  0  0  0  0  0  0  0
   29.7980   56.0340   -4.4320 O   0  0  0  0  0  0  0  0  0  0  0  0
   29.6840   53.5860   -4.2710 C   0  0  0  0  0  0  0  0  0  0  0  0
   28.9210   52.4200   -6.3390 C   0  0  0  0  0  0  0  0  0  0  0  0
   29.7640   53.6360   -3.0440 O   0  0  0  0  0  0  0  0  0  0  0  0
   29.8450   52.3710   -5.1410 C   0  0  2  0  0  0  0  0  0  0  0  0
   28.5480   51.1400   -6.9910 C   0  0  0  0  0  0  0  0  0  0  0  0
   28.8440   49.9840   -6.3790 C   0  0  0  0  0  0  0  0  0  0  0  0
   29.9480   51.0270   -4.4680 C   0  0  0  0  0  0  0  0  0  0  0  0
   30.5340   51.0040   -3.2410 F   0  0  0  0  0  0  0  0  0  0  0  0
   29.5040   49.8910   -5.0820 C   0  0  0  0  0  0  0  0  0  0  0  0
   29.6940   48.5380   -4.4620 C   0  0  0  0  0  0  0  0  0  0  0  0
   29.4230   47.5580   -5.3490 O   0  0  0  0  0  0  0  0  0  0  0  0
   30.0620   48.2490   -3.3400 O   0  0  0  0  0  0  0  0  0  0  0  0
  1  2  1  0
  2  3  1  0
  2  4  2  0
  4  5  1  0
  4  6  1  0
  3  7  2  0
  6  8  2  0
  9  6  1  1
  7  9  1  0
  7 10  1  0
 10 11  2  0
  9 12  1  0
 12 13  1  0
 11 14  1  0
 12 14  2  0
 14 15  1  0
 15 16  1  0
 15 17  2  0
M  END
