mac-x0555-mac-x0303
     RDKit          3D

 14 15  0  0  0  0  0  0  0  0999 V2000
   29.2150   55.8900   -6.2100 N   0  0  2  0  0  0  0  0  0  0  0  0
   30.2350   56.0440   -7.1820 N   0  0  0  0  0  0  0  0  0  0  0  0
   28.0830   55.9160   -6.9010 O   0  0  0  0  0  0  0  0  0  0  0  0
   29.1880   57.0410   -5.4220 O   0  0  0  0  0  0  0  0  0  0  0  0
   29.3820   54.6660   -5.3890 C   0  0  0  0  0  0  0  0  0  0  0  0
   29.1000   53.3970   -5.9020 C   0  0  0  0  0  0  0  0  0  0  0  0
   29.8240   54.7210   -4.0740 C   0  0  0  0  0  0  0  0  0  0  0  0
   29.2640   52.2510   -5.1070 C   0  0  0  0  0  0  0  0  0  0  0  0
   29.9950   53.6390   -3.2720 N   0  0  0  0  0  0  0  0  0  0  0  0
   29.7200   52.4260   -3.7800 C   0  0  0  0  0  0  0  0  0  0  0  0
   28.9900   50.9620   -5.5930 C   0  0  0  0  0  0  0  0  0  0  0  0
   29.8840   51.2990   -2.9890 C   0  0  0  0  0  0  0  0  0  0  0  0
   29.1630   49.8470   -4.7760 C   0  0  0  0  0  0  0  0  0  0  0  0
   29.6120   50.0150   -3.4700 C   0  0  0  0  0  0  0  0  0  0  0  0
  1  2  1  6
  1  3  1  0
  1  4  1  0
  1  5  1  0
  5  6  2  0
  5  7  1  0
  6  8  1  0
  7  9  2  0
  8 10  2  0
  9 10  1  0
  8 11  1  0
 10 12  1  0
 11 13  2  0
 12 14  2  0
 13 14  1  0
M  CHG  2   1   1   3  -1
M  END
