mac-x0373-mac-x0576
     RDKit          3D

 22 24  0  0  0  0  0  0  0  0999 V2000
   31.2150   45.9290   -5.5720 O   0  0  0  0  0  0  0  0  0  0  0  0
   30.3500   46.4550   -4.6790 C   0  0  0  0  0  0  0  0  0  0  0  0
   29.2810   45.9050   -4.4690 O   0  0  0  0  0  0  0  0  0  0  0  0
   30.8780   47.7300   -4.0140 C   0  0  1  0  0  0  0  0  0  0  0  0
   32.3920   47.6890   -3.8360 C   0  0  0  0  0  0  0  0  0  0  0  0
   30.2790   49.0520   -4.6230 C   0  0  2  0  0  0  0  0  0  0  0  0
   33.0110   46.8600   -2.8850 C   0  0  0  0  0  0  0  0  0  0  0  0
   33.2130   48.5010   -4.6400 C   0  0  0  0  0  0  0  0  0  0  0  0
   29.2740   49.7590   -3.7090 C   0  0  0  0  0  0  0  0  0  0  0  0
   29.8280   49.0830   -6.1400 C   0  0  2  0  0  0  0  0  0  0  0  0
   34.4000   46.8430   -2.7420 C   0  0  0  0  0  0  0  0  0  0  0  0
   34.6010   48.4820   -4.4950 C   0  0  0  0  0  0  0  0  0  0  0  0
   28.4100   50.6910   -4.1070 C   0  0  0  0  0  0  0  0  0  0  0  0
   28.5350   49.8600   -6.4620 C   0  0  1  0  0  0  0  0  0  0  0  0
   29.7170   47.7810   -6.9210 C   0  0  0  0  0  0  0  0  0  0  0  0
   35.1950   47.6550   -3.5470 C   0  0  0  0  0  0  0  0  0  0  0  0
   28.4140   51.0550   -5.5320 C   0  0  0  0  0  0  0  0  0  0  0  0
   29.0870   48.0150   -8.2270 N   0  0  0  0  0  0  0  0  0  0  0  0
   28.4550   50.2600   -7.8860 N   0  0  0  0  0  0  0  0  0  0  0  0
   28.3280   52.2300   -5.8950 O   0  0  0  0  0  0  0  0  0  0  0  0
   29.1540   49.3530   -8.7350 C   0  0  2  0  0  0  0  0  0  0  0  0
   28.3500   49.3210   -9.9060 N   0  0  0  0  0  0  0  0  0  0  0  0
  1  2  1  0
  2  3  2  0
  4  2  1  6
  4  5  1  0
  4  6  1  0
  5  7  2  0
  5  8  1  0
  6  9  1  1
  6 10  1  0
  7 11  1  0
  8 12  2  0
  9 13  2  0
 10 14  1  0
 10 15  1  1
 11 16  2  0
 12 16  1  0
 13 17  1  0
 14 17  1  0
 15 18  1  0
 14 19  1  6
 17 20  2  0
 18 21  1  0
 19 21  1  0
 21 22  1  6
M  END
