mac-x0182-mac-x0123
     RDKit          3D

 27 31  0  0  0  0  0  0  0  0999 V2000
   34.3750   43.3850   -2.8060 O   0  0  0  0  0  0  0  0  0  0  0  0
   34.4770   44.5260   -3.2330 C   0  0  0  0  0  0  0  0  0  0  0  0
   33.5730   45.1470   -4.0610 N   0  0  0  0  0  0  0  0  0  0  0  0
   35.6180   45.4180   -2.9050 C   0  0  0  0  0  0  0  0  0  0  0  0
   34.0630   46.7080   -4.4580 S   0  0  2  0  0  0  0  0  0  0  0  0
   35.5210   46.6610   -3.5170 C   0  0  0  0  0  0  0  0  0  0  0  0
   36.7010   45.1240   -2.0890 C   0  0  0  0  0  0  0  0  0  0  0  0
   33.0290   47.6070   -3.7810 N   0  0  0  0  0  0  0  0  0  0  0  0
   34.3990   46.6330   -5.8610 O   0  0  0  0  0  0  0  0  0  0  0  0
   36.4660   47.6550   -3.3580 C   0  0  0  0  0  0  0  0  0  0  0  0
   37.6790   46.1120   -1.9080 C   0  0  0  0  0  0  0  0  0  0  0  0
   31.6580   47.7460   -4.3430 C   0  0  0  0  0  0  0  0  0  0  0  0
   37.5610   47.3670   -2.5380 C   0  0  0  0  0  0  0  0  0  0  0  0
   30.6360   48.4420   -3.4260 C   0  0  0  0  0  0  0  0  0  0  0  0
   30.2580   49.8060   -3.8910 C   0  0  0  0  0  0  0  0  0  0  0  0
   30.4890   50.9220   -3.1310 N   0  0  0  0  0  0  0  0  0  0  0  0
   29.6790   50.0310   -5.0770 N   0  0  0  0  0  0  0  0  0  0  0  0
   29.5410   51.3870   -5.0760 N   0  0  0  0  0  0  0  0  0  0  0  0
   30.0440   51.9160   -3.8750 C   0  0  0  0  0  0  0  0  0  0  0  0
   28.9940   52.2150   -6.0910 C   0  0  0  0  0  0  0  0  0  0  0  0
   30.0360   53.2610   -3.6110 N   0  0  0  0  0  0  0  0  0  0  0  0
   28.5100   51.6190   -7.2490 N   0  0  0  0  0  0  0  0  0  0  0  0
   29.5450   54.0010   -4.5570 C   0  0  0  0  0  0  0  0  0  0  0  0
   28.9900   53.5320   -5.8590 C   0  0  0  0  0  0  0  0  0  0  0  0
   28.5390   54.7240   -6.6270 C   0  0  0  0  0  0  0  0  0  0  0  0
   29.4520   55.4950   -4.4840 C   0  0  0  0  0  0  0  0  0  0  0  0
   29.3210   55.8640   -5.9660 C   0  0  0  0  0  0  0  0  0  0  0  0
  1  2  2  0
  2  3  1  0
  2  4  1  0
  5  3  1  1
  4  6  2  0
  5  6  1  0
  4  7  1  0
  5  8  2  0
  5  9  2  0
  6 10  1  0
  7 11  2  0
  8 12  1  0
 10 13  2  0
 11 13  1  0
 12 14  1  0
 14 15  1  0
 15 16  1  0
 15 17  2  0
 17 18  1  0
 16 19  2  0
 18 19  1  0
 18 20  1  0
 19 21  1  0
 20 22  1  0
 21 23  2  0
 20 24  2  0
 23 24  1  0
 24 25  1  0
 23 26  1  0
 25 27  1  0
 26 27  1  0
M  END
