mac-x0338-mac-x0365
     RDKit          3D

 13 13  0  0  0  0  0  0  0  0999 V2000
   28.5430   51.8410   -7.7440 N   0  0  0  0  0  0  0  0  0  0  0  0
   28.8120   52.4630   -6.5520 C   0  0  0  0  0  0  0  0  0  0  0  0
   28.9060   53.6830   -6.5060 O   0  0  0  0  0  0  0  0  0  0  0  0
   28.9680   51.5390   -5.3310 C   0  0  1  0  0  0  0  0  0  0  0  0
   29.6160   50.2530   -5.6770 N   0  0  0  0  0  0  0  0  0  0  0  0
   29.7250   52.2590   -4.2060 C   0  0  0  0  0  0  0  0  0  0  0  0
   29.4450   49.3890   -4.4690 C   0  0  1  0  0  0  0  0  0  0  0  0
   30.3780   51.4110   -3.1840 N   0  0  0  0  0  0  0  0  0  0  0  0
   30.1250   48.0340   -4.6700 C   0  0  0  0  0  0  0  0  0  0  0  0
   30.2070   52.0020   -1.9480 F   0  0  0  0  0  0  0  0  0  0  0  0
   29.9460   50.0020   -3.1370 C   0  0  0  0  0  0  0  0  0  0  0  0
   29.8230   47.4680   -5.8650 O   0  0  0  0  0  0  0  0  0  0  0  0
   30.8550   47.5090   -3.8470 O   0  0  0  0  0  0  0  0  0  0  0  0
  1  2  1  0
  2  3  2  0
  4  2  1  6
  4  5  1  0
  4  6  1  0
  5  7  1  0
  6  8  1  0
  7  9  1  6
  8 10  1  0
  7 11  1  0
  8 11  1  0
  9 12  1  0
  9 13  2  0
M  END
