mac-x0567-mac-x0131
     RDKit          3D

 18 20  0  0  0  0  0  0  0  0999 V2000
   29.3150   47.0600   -7.8330 N   0  0  0  0  0  0  0  0  0  0  0  0
   29.1860   48.3430   -7.4480 C   0  0  0  0  0  0  0  0  0  0  0  0
   28.7520   49.2640   -8.3010 N   0  0  0  0  0  0  0  0  0  0  0  0
   29.4760   48.8800   -6.1530 C   0  0  0  0  0  0  0  0  0  0  0  0
   28.7530   50.3850   -7.5910 N   0  0  0  0  0  0  0  0  0  0  0  0
   29.1750   50.2340   -6.2950 C   0  0  0  0  0  0  0  0  0  0  0  0
   29.9490   48.3980   -4.8920 C   0  0  0  0  0  0  0  0  0  0  0  0
   28.3460   51.5990   -8.1650 N   0  0  0  0  0  0  0  0  0  0  0  0
   30.3000   46.9410   -4.6520 C   0  0  0  0  0  0  0  0  0  0  0  0
   29.3110   51.1650   -5.2610 C   0  0  0  0  0  0  0  0  0  0  0  0
   30.0910   49.3470   -3.8330 C   0  0  0  0  0  0  0  0  0  0  0  0
   30.5840   48.9380   -2.4650 C   0  0  0  0  0  0  0  0  0  0  0  0
   29.7730   50.6990   -4.0330 C   0  0  0  0  0  0  0  0  0  0  0  0
   31.7560   46.6630   -4.7850 C   0  0  0  0  0  0  0  0  0  0  0  0
   32.5100   45.9290   -5.6770 C   0  0  0  0  0  0  0  0  0  0  0  0
   32.5670   47.2330   -3.8480 O   0  0  0  0  0  0  0  0  0  0  0  0
   33.8400   46.8620   -4.1470 C   0  0  0  0  0  0  0  0  0  0  0  0
   33.8560   46.0590   -5.2640 C   0  0  0  0  0  0  0  0  0  0  0  0
  1  2  1  0
  2  3  2  0
  2  4  1  0
  3  5  1  0
  4  6  2  0
  5  6  1  0
  4  7  1  0
  5  8  1  0
  7  9  1  0
  6 10  1  0
  7 11  2  0
 11 12  1  0
 10 13  2  0
 11 13  1  0
  9 14  1  0
 14 15  2  0
 14 16  1  0
 16 17  1  0
 15 18  1  0
 17 18  2  0
M  END
