mac-x0587-mac-x0412
     RDKit          3D

 21 22  0  0  0  0  0  0  0  0999 V2000
   29.4540   45.6820   -3.3960 C   0  0  0  0  0  0  0  0  0  0  0  0
   30.4130   46.6610   -4.0770 C   0  0  2  0  0  0  0  0  0  0  0  0
   32.1270   46.1760   -3.5710 S   0  0  0  0  0  0  0  0  0  0  0  0
   30.1130   48.1230   -3.6610 C   0  0  0  0  0  0  0  0  0  0  0  0
   33.1740   46.7480   -4.9500 C   0  0  0  0  0  0  0  0  0  0  0  0
   30.3880   48.5600   -2.5390 O   0  0  0  0  0  0  0  0  0  0  0  0
   29.5060   48.9360   -4.6340 N   0  0  0  0  0  0  0  0  0  0  0  0
   33.2240   45.8510   -6.1690 C   0  0  0  0  0  0  0  0  0  0  0  0
   28.8760   50.2270   -4.3430 C   0  0  0  0  0  0  0  0  0  0  0  0
   29.5870   48.8560   -6.0170 C   0  0  0  0  0  0  0  0  0  0  0  0
   34.2570   45.5680   -6.7620 O   0  0  0  0  0  0  0  0  0  0  0  0
   32.0230   45.3750   -6.5740 O   0  0  0  0  0  0  0  0  0  0  0  0
   29.4640   47.8820   -6.7440 O   0  0  0  0  0  0  0  0  0  0  0  0
   29.2680   51.1320   -5.5530 C   0  0  2  0  0  0  0  0  0  0  0  0
   29.8430   50.1470   -6.4560 N   0  0  0  0  0  0  0  0  0  0  0  0
   30.2620   52.2070   -5.0960 C   0  0  0  0  0  0  0  0  0  0  0  0
   28.1250   51.7400   -6.3670 C   0  0  0  0  0  0  0  0  0  0  0  0
   29.6130   53.5630   -4.9020 C   0  0  0  0  0  0  0  0  0  0  0  0
   27.9630   53.0720   -6.5260 C   0  0  0  0  0  0  0  0  0  0  0  0
   29.7750   54.2640   -3.9060 O   0  0  0  0  0  0  0  0  0  0  0  0
   28.8170   53.9490   -5.9380 N   0  0  0  0  0  0  0  0  0  0  0  0
  2  1  1  1
  2  3  1  0
  2  4  1  0
  3  5  1  0
  4  6  2  0
  4  7  1  0
  5  8  1  0
  7  9  1  0
  7 10  1  0
  8 11  2  0
  8 12  1  0
 10 13  2  0
 14  9  1  1
 10 15  1  0
 14 15  1  0
 14 16  1  0
 14 17  1  0
 16 18  1  0
 17 19  2  0
 18 20  2  0
 18 21  1  0
 19 21  1  0
M  END
