mac-x0328-mac-x0417
     RDKit          3D

 25 27  0  0  0  0  0  0  0  0999 V2000
   30.6730   47.6700   -3.4940 O   0  0  0  0  0  0  0  0  0  0  0  0
   30.1670   48.2610   -4.5970 C   0  0  0  0  0  0  0  0  0  0  0  0
   29.9230   47.5660   -5.6370 N   0  0  0  0  0  0  0  0  0  0  0  0
   29.9740   49.7000   -4.4040 C   0  0  0  0  0  0  0  0  0  0  0  0
   30.1900   46.1320   -5.6710 C   0  0  0  0  0  0  0  0  0  0  0  0
   29.5990   50.4660   -5.5100 C   0  0  0  0  0  0  0  0  0  0  0  0
   30.1630   50.2840   -3.1500 C   0  0  0  0  0  0  0  0  0  0  0  0
   31.2530   45.8670   -6.7370 C   0  0  0  0  0  0  0  0  0  0  0  0
   29.4080   51.8370   -5.3650 C   0  0  0  0  0  0  0  0  0  0  0  0
   29.9710   51.6580   -3.0100 C   0  0  0  0  0  0  0  0  0  0  0  0
   32.1420   44.8470   -6.2670 O   0  0  0  0  0  0  0  0  0  0  0  0
   29.5970   52.4230   -4.1160 C   0  0  0  0  0  0  0  0  0  0  0  0
   29.4210   53.7620   -3.9350 O   0  0  0  0  0  0  0  0  0  0  0  0
   33.2560   45.2890   -5.6260 C   0  0  0  0  0  0  0  0  0  0  0  0
   34.2930   45.6320   -6.1810 O   0  0  0  0  0  0  0  0  0  0  0  0
   33.0610   45.2980   -4.1310 C   0  0  0  0  0  0  0  0  0  0  0  0
   34.3340   45.0410   -3.4110 C   0  0  0  0  0  0  0  0  0  0  0  0
   34.6330   43.8030   -2.9810 N   0  0  0  0  0  0  0  0  0  0  0  0
   35.3630   45.9620   -3.0810 C   0  0  0  0  0  0  0  0  0  0  0  0
   35.8710   43.9060   -2.3630 O   0  0  0  0  0  0  0  0  0  0  0  0
   36.3050   45.1920   -2.4240 C   0  0  0  0  0  0  0  0  0  0  0  0
   35.6120   47.3350   -3.2550 C   0  0  0  0  0  0  0  0  0  0  0  0
   37.5050   45.6850   -1.9140 C   0  0  0  0  0  0  0  0  0  0  0  0
   36.8100   47.8650   -2.7530 C   0  0  0  0  0  0  0  0  0  0  0  0
   37.7380   47.0520   -2.0960 C   0  0  0  0  0  0  0  0  0  0  0  0
  1  2  1  0
  2  3  2  3
  2  4  1  0
  3  5  1  0
  4  6  2  0
  4  7  1  0
  5  8  1  0
  6  9  1  0
  7 10  2  0
  8 11  1  0
  9 12  2  0
 10 12  1  0
 12 13  1  0
 11 14  1  0
 14 15  2  0
 14 16  1  0
 16 17  1  0
 17 18  2  0
 17 19  1  0
 18 20  1  0
 19 21  2  0
 20 21  1  0
 19 22  1  0
 21 23  1  0
 22 24  2  0
 23 25  2  0
 24 25  1  0
M  END
