mac-x0546-mac-x0271
     RDKit          3D

 28 31  0  0  0  0  0  0  0  0999 V2000
   31.1180   48.6720   -0.0200 C   0  0  0  0  0  0  0  0  0  0  0  0
   29.9330   48.5830   -0.8790 N   0  0  0  0  0  0  0  0  0  0  0  0
   29.7670   49.8570   -1.5940 C   0  0  0  0  0  0  0  0  0  0  0  0
   29.7920   47.4510   -1.6850 C   0  0  0  0  0  0  0  0  0  0  0  0
   30.1900   49.7310   -2.9630 O   0  0  0  0  0  0  0  0  0  0  0  0
   30.7290   47.0680   -2.5760 C   0  0  0  0  0  0  0  0  0  0  0  0
   28.5520   46.6530   -1.5970 C   0  0  0  0  0  0  0  0  0  0  0  0
   30.5080   45.9100   -3.4730 C   0  0  2  0  0  0  0  0  0  0  0  0
   28.4000   45.4200   -2.1270 C   0  0  0  0  0  0  0  0  0  0  0  0
   29.7930   50.6630   -3.8730 C   0  0  0  0  0  0  0  0  0  0  0  0
   29.5910   44.9040   -2.8160 C   0  0  0  0  0  0  0  0  0  0  0  0
   31.5660   44.9390   -3.8810 C   0  0  0  0  0  0  0  0  0  0  0  0
   29.8880   51.9760   -3.4160 C   0  0  0  0  0  0  0  0  0  0  0  0
   29.3220   50.4200   -5.1670 C   0  0  0  0  0  0  0  0  0  0  0  0
   32.8540   45.3140   -4.5310 C   0  0  0  0  0  0  0  0  0  0  0  0
   29.9360   43.6580   -2.9280 N   0  0  0  0  0  0  0  0  0  0  0  0
   31.1470   43.7050   -3.5720 C   0  0  0  0  0  0  0  0  0  0  0  0
   29.5140   53.0230   -4.2500 C   0  0  0  0  0  0  0  0  0  0  0  0
   28.9460   51.4850   -6.0010 C   0  0  0  0  0  0  0  0  0  0  0  0
   32.6980   45.9760   -5.8830 C   0  0  0  0  0  0  0  0  0  0  0  0
   29.0430   52.8010   -5.5390 C   0  0  0  0  0  0  0  0  0  0  0  0
   29.6320   54.3290   -3.7310 O   0  0  0  0  0  0  0  0  0  0  0  0
   31.7260   45.9430   -6.6230 O   0  0  0  0  0  0  0  0  0  0  0  0
   33.8050   46.6600   -6.2450 O   0  0  0  0  0  0  0  0  0  0  0  0
   28.6680   53.9440   -6.3590 C   0  0  0  0  0  0  0  0  0  0  0  0
   29.2510   55.4330   -4.4800 C   0  0  0  0  0  0  0  0  0  0  0  0
   29.3030   56.5760   -4.0370 O   0  0  0  0  0  0  0  0  0  0  0  0
   28.7720   55.1780   -5.8500 C   0  0  0  0  0  0  0  0  0  0  0  0
  1  2  1  0
  2  3  1  0
  2  4  1  0
  3  5  1  0
  4  6  2  0
  4  7  1  0
  8  6  1  1
  7  9  2  0
  5 10  1  0
  8 11  1  0
  9 11  1  0
  8 12  1  0
 10 13  2  0
 10 14  1  0
 12 15  1  0
 11 16  2  0
 12 17  2  0
 16 17  1  0
 13 18  1  0
 14 19  2  0
 15 20  1  0
 18 21  2  0
 19 21  1  0
 18 22  1  0
 20 23  2  0
 20 24  1  0
 21 25  1  0
 22 26  1  0
 26 27  2  0
 25 28  2  0
 26 28  1  0
M  END
