mac-x0226-mac-x0301
     RDKit          3D

 28 31  0  0  0  0  0  0  0  0999 V2000
   33.0290   45.1110   -7.3970 O   0  0  0  0  0  0  0  0  0  0  0  0
   33.0980   45.9410   -6.2500 C   0  0  0  0  0  0  0  0  0  0  0  0
   33.9810   46.9920   -6.6240 O   0  0  0  0  0  0  0  0  0  0  0  0
   31.7030   46.5200   -5.9910 C   0  0  0  0  0  0  0  0  0  0  0  0
   33.6510   45.1990   -5.0780 C   0  0  0  0  0  0  0  0  0  0  0  0
   30.6310   45.4500   -5.7650 C   0  0  0  0  0  0  0  0  0  0  0  0
   33.2330   43.9470   -4.5780 C   0  0  0  0  0  0  0  0  0  0  0  0
   34.6770   45.5540   -4.2230 C   0  0  0  0  0  0  0  0  0  0  0  0
   29.7660   45.7590   -4.6570 O   0  0  0  0  0  0  0  0  0  0  0  0
   33.9240   43.5510   -3.5100 N   0  0  0  0  0  0  0  0  0  0  0  0
   34.8170   44.5500   -3.2940 N   0  0  0  0  0  0  0  0  0  0  0  0
   30.0450   46.8990   -3.9800 C   0  0  0  0  0  0  0  0  0  0  0  0
   35.7420   44.4770   -2.2180 C   0  0  0  0  0  0  0  0  0  0  0  0
   30.5990   46.9560   -2.8910 O   0  0  0  0  0  0  0  0  0  0  0  0
   36.5680   45.5620   -1.8980 C   0  0  0  0  0  0  0  0  0  0  0  0
   35.8310   43.2960   -1.4650 C   0  0  0  0  0  0  0  0  0  0  0  0
   29.5980   48.1110   -4.7060 C   0  0  0  0  0  0  0  0  0  0  0  0
   37.4700   45.4650   -0.8350 C   0  0  0  0  0  0  0  0  0  0  0  0
   36.7350   43.2060   -0.4050 C   0  0  0  0  0  0  0  0  0  0  0  0
   29.2570   48.1580   -6.0490 C   0  0  0  0  0  0  0  0  0  0  0  0
   29.5140   49.3070   -3.9700 C   0  0  0  0  0  0  0  0  0  0  0  0
   37.5500   44.2870   -0.0920 C   0  0  0  0  0  0  0  0  0  0  0  0
   28.8540   49.3440   -6.6340 C   0  0  0  0  0  0  0  0  0  0  0  0
   29.1000   50.5040   -4.5770 C   0  0  0  0  0  0  0  0  0  0  0  0
   29.2590   47.1430   -6.9580 O   0  0  0  0  0  0  0  0  0  0  0  0
   28.7650   50.5250   -5.9280 C   0  0  0  0  0  0  0  0  0  0  0  0
   28.5600   49.2090   -7.9560 O   0  0  0  0  0  0  0  0  0  0  0  0
   28.8640   47.8190   -8.1650 C   0  0  0  0  0  0  0  0  0  0  0  0
  2  1  1  0
  2  3  1  0
  2  4  1  0
  2  5  1  0
  4  6  1  0
  5  7  1  0
  5  8  2  0
  6  9  1  0
  7 10  2  0
  8 11  1  0
 10 11  1  0
  9 12  1  0
 11 13  1  0
 12 14  2  0
 13 15  2  0
 13 16  1  0
 12 17  1  0
 15 18  1  0
 16 19  2  0
 17 20  1  0
 17 21  2  0
 18 22  2  0
 19 22  1  0
 20 23  2  0
 21 24  1  0
 20 25  1  0
 23 26  1  0
 24 26  2  0
 23 27  1  0
 25 28  1  0
 27 28  1  0
M  END
