mac-x0341-mac-x0321
     RDKit          3D

 21 23  0  0  0  0  0  0  0  0999 V2000
   28.5560   55.0140   -6.6150 N   0  0  0  0  0  0  0  0  0  0  0  0
   28.6130   53.7140   -7.0010 C   0  0  0  0  0  0  0  0  0  0  0  0
   28.8500   53.3970   -8.2320 N   0  0  0  0  0  0  0  0  0  0  0  0
   28.4040   52.8250   -5.9910 N   0  0  0  0  0  0  0  0  0  0  0  0
   28.8770   51.5170   -6.0380 C   0  0  0  0  0  0  0  0  0  0  0  0
   28.8820   52.0060   -8.4970 C   0  0  0  0  0  0  0  0  0  0  0  0
   28.8950   51.0290   -7.4660 C   0  0  0  0  0  0  0  0  0  0  0  0
   28.8990   51.6170   -9.8430 C   0  0  0  0  0  0  0  0  0  0  0  0
   29.2580   50.8220   -4.9210 C   0  0  0  0  0  0  0  0  0  0  0  0
   28.9290   50.2700  -10.1950 C   0  0  0  0  0  0  0  0  0  0  0  0
   28.9240   49.6790   -7.8520 C   0  0  0  0  0  0  0  0  0  0  0  0
   29.1790   51.4500   -3.5260 C   0  0  1  0  0  0  0  0  0  0  0  0
   29.7670   49.4450   -4.9180 C   0  0  0  0  0  0  0  0  0  0  0  0
   27.4860   51.3250   -2.9300 Cl  0  0  0  0  0  0  0  0  0  0  0  0
   28.9410   49.3010   -9.1980 C   0  0  0  0  0  0  0  0  0  0  0  0
   30.1360   50.8570   -2.4910 C   0  0  0  0  0  0  0  0  0  0  0  0
   30.1230   48.7680   -3.8150 C   0  0  0  0  0  0  0  0  0  0  0  0
   30.0470   49.3310   -2.4240 C   0  0  1  0  0  0  0  0  0  0  0  0
   31.1730   48.7790   -1.5530 C   0  0  0  0  0  0  0  0  0  0  0  0
   31.2210   47.4300   -1.5480 O   0  0  0  0  0  0  0  0  0  0  0  0
   31.9840   49.4180   -0.9010 O   0  0  0  0  0  0  0  0  0  0  0  0
  1  2  1  0
  2  3  2  0
  2  4  1  0
  4  5  1  0
  3  6  1  0
  5  7  1  0
  6  7  2  0
  6  8  1  0
  5  9  2  3
  8 10  2  0
  7 11  1  0
  9 12  1  0
  9 13  1  0
 12 14  1  1
 10 15  1  0
 11 15  2  0
 12 16  1  0
 13 17  2  0
 16 18  1  0
 17 18  1  0
 18 19  1  1
 19 20  1  0
 19 21  2  0
M  END
