mac-x0337-mac-x0379
     RDKit          3D

 19 20  0  0  0  0  0  0  0  0999 V2000
   35.6150   51.8950   -5.0470 C   0  0  0  0  0  0  0  0  0  0  0  0
   34.1490   51.7880   -5.3590 C   0  0  0  0  0  0  0  0  0  0  0  0
   33.3180   52.9180   -5.2770 C   0  0  0  0  0  0  0  0  0  0  0  0
   33.5910   50.5580   -5.7380 C   0  0  0  0  0  0  0  0  0  0  0  0
   32.2260   50.4550   -6.0290 C   0  0  0  0  0  0  0  0  0  0  0  0
   31.9550   52.8230   -5.5640 C   0  0  0  0  0  0  0  0  0  0  0  0
   31.4120   51.5890   -5.9400 C   0  0  0  0  0  0  0  0  0  0  0  0
   29.6740   51.4530   -6.3070 S   0  0  0  0  0  0  0  0  0  0  0  0
   29.4470   50.1910   -6.9800 O   0  0  0  0  0  0  0  0  0  0  0  0
   29.2620   52.7040   -6.9050 O   0  0  0  0  0  0  0  0  0  0  0  0
   29.0360   51.2870   -4.7470 N   0  0  0  0  0  0  0  0  0  0  0  0
   29.3640   50.0120   -4.1300 C   0  0  0  0  0  0  0  0  0  0  0  0
   29.2350   49.9020   -2.8290 N   0  0  0  0  0  0  0  0  0  0  0  0
   29.9080   48.6310   -4.9680 S   0  0  0  0  0  0  0  0  0  0  0  0
   29.5970   48.6180   -2.4570 C   0  0  0  0  0  0  0  0  0  0  0  0
   29.9920   47.7780   -3.4820 C   0  0  0  0  0  0  0  0  0  0  0  0
   30.4230   46.4110   -3.4350 C   0  0  0  0  0  0  0  0  0  0  0  0
   31.3930   45.9340   -2.8620 O   0  0  0  0  0  0  0  0  0  0  0  0
   29.5990   45.5990   -4.1380 O   0  0  0  0  0  0  0  0  0  0  0  0
  1  2  1  0
  2  3  2  0
  2  4  1  0
  4  5  2  0
  3  6  1  0
  5  7  1  0
  6  7  2  0
  7  8  1  0
  8  9  2  0
  8 10  2  0
  8 11  1  0
 11 12  1  0
 12 13  2  0
 12 14  1  0
 13 15  1  0
 14 16  1  0
 15 16  2  0
 16 17  1  0
 17 18  2  0
 17 19  1  0
M  END
