mac-x0345-mac-x0213
     RDKit          3D

 23 25  0  0  0  0  0  0  0  0999 V2000
   29.5310   54.6600   -4.9320 C   0  0  0  0  0  0  0  0  0  0  0  0
   29.4060   53.1830   -4.6970 C   0  0  0  0  0  0  0  0  0  0  0  0
   29.8030   52.7450   -3.4730 N   0  0  0  0  0  0  0  0  0  0  0  0
   28.9160   52.3170   -5.6700 C   0  0  0  0  0  0  0  0  0  0  0  0
   28.3540   52.9010   -7.3830 Br  0  0  0  0  0  0  0  0  0  0  0  0
   28.8350   50.9620   -5.3710 C   0  0  0  0  0  0  0  0  0  0  0  0
   29.7250   51.4300   -3.1840 C   0  0  0  0  0  0  0  0  0  0  0  0
   30.1260   50.9480   -1.9300 N   0  0  0  0  0  0  0  0  0  0  0  0
   29.2430   50.5150   -4.1160 C   0  0  0  0  0  0  0  0  0  0  0  0
   29.3830   49.7980   -1.4020 C   0  0  0  0  0  0  0  0  0  0  0  0
   30.3040   48.6110   -1.0970 C   0  0  0  0  0  0  0  0  0  0  0  0
   29.7240   47.3050   -1.5760 C   0  0  0  0  0  0  0  0  0  0  0  0
   30.2110   46.6500   -2.7030 C   0  0  0  0  0  0  0  0  0  0  0  0
   28.6520   46.7040   -0.8940 C   0  0  0  0  0  0  0  0  0  0  0  0
   31.3330   47.0430   -3.6270 C   0  0  0  0  0  0  0  0  0  0  0  0
   29.6580   45.4330   -3.1320 C   0  0  0  0  0  0  0  0  0  0  0  0
   28.1010   45.4860   -1.3290 C   0  0  0  0  0  0  0  0  0  0  0  0
   30.8800   46.2920   -4.8870 C   0  0  2  0  0  0  0  0  0  0  0  0
   30.3650   44.9470   -4.3610 C   0  0  0  0  0  0  0  0  0  0  0  0
   28.6040   44.8410   -2.4570 C   0  0  0  0  0  0  0  0  0  0  0  0
   31.9200   46.1610   -5.9760 C   0  0  0  0  0  0  0  0  0  0  0  0
   33.1650   46.5100   -5.5930 O   0  0  0  0  0  0  0  0  0  0  0  0
   31.7210   45.7960   -7.1160 O   0  0  0  0  0  0  0  0  0  0  0  0
  1  2  1  0
  2  3  2  0
  2  4  1  0
  4  5  1  0
  4  6  2  0
  3  7  1  0
  7  8  1  0
  6  9  1  0
  7  9  2  0
  8 10  1  0
 10 11  1  0
 11 12  1  0
 12 13  1  0
 12 14  2  0
 13 15  1  0
 13 16  2  0
 14 17  1  0
 15 18  1  0
 16 19  1  0
 18 19  1  0
 16 20  1  0
 17 20  2  0
 18 21  1  6
 21 22  1  0
 21 23  2  0
M  END
