mac-x0123-mac-x0139
     RDKit          3D

 30 34  0  0  0  0  0  0  0  0999 V2000
   27.8780   51.7790   -6.8420 N   0  0  0  0  0  0  0  0  0  0  0  0
   28.6200   52.3340   -5.8030 C   0  0  0  0  0  0  0  0  0  0  0  0
   28.8080   53.6400   -5.6450 C   0  0  0  0  0  0  0  0  0  0  0  0
   29.2340   51.4750   -4.8530 N   0  0  0  0  0  0  0  0  0  0  0  0
   29.9940   51.9670   -3.7780 C   0  0  0  0  0  0  0  0  0  0  0  0
   29.6170   54.0770   -4.4720 C   0  0  0  0  0  0  0  0  0  0  0  0
   28.3800   54.8480   -6.3980 C   0  0  0  0  0  0  0  0  0  0  0  0
   29.2170   50.1130   -4.8150 N   0  0  0  0  0  0  0  0  0  0  0  0
   30.1750   53.3140   -3.5810 N   0  0  0  0  0  0  0  0  0  0  0  0
   29.6900   55.5730   -4.4590 C   0  0  0  0  0  0  0  0  0  0  0  0
   29.3740   55.9070   -5.9200 C   0  0  0  0  0  0  0  0  0  0  0  0
   30.4520   50.9400   -3.0800 N   0  0  0  0  0  0  0  0  0  0  0  0
   29.9690   49.8390   -3.7480 C   0  0  0  0  0  0  0  0  0  0  0  0
   30.2650   48.4330   -3.3320 C   0  0  0  0  0  0  0  0  0  0  0  0
   29.5270   47.3490   -4.1620 C   0  0  0  0  0  0  0  0  0  0  0  0
   30.1290   46.9270   -5.4730 N   0  0  0  0  0  0  0  0  0  0  0  0
   30.4820   45.4840   -5.5090 C   0  0  0  0  0  0  0  0  0  0  0  0
   29.5490   47.4510   -6.6580 C   0  0  0  0  0  0  0  0  0  0  0  0
   31.9910   45.2840   -5.4710 C   0  0  0  0  0  0  0  0  0  0  0  0
   29.6740   48.7570   -6.9700 C   0  0  0  0  0  0  0  0  0  0  0  0
   28.8420   46.5820   -7.4990 N   0  0  0  0  0  0  0  0  0  0  0  0
   32.5360   45.0000   -6.8420 C   0  0  0  0  0  0  0  0  0  0  0  0
   29.0280   49.2540   -8.2070 C   0  0  0  0  0  0  0  0  0  0  0  0
   28.3140   47.0650   -8.5810 C   0  0  0  0  0  0  0  0  0  0  0  0
   30.2870   49.9150   -6.4270 C   0  0  0  0  0  0  0  0  0  0  0  0
   31.8990   44.6540   -7.8240 O   0  0  0  0  0  0  0  0  0  0  0  0
   33.8710   45.1590   -6.9260 O   0  0  0  0  0  0  0  0  0  0  0  0
   28.3770   48.3630   -8.9790 N   0  0  0  0  0  0  0  0  0  0  0  0
   29.1930   50.5370   -8.3620 N   0  0  0  0  0  0  0  0  0  0  0  0
   29.9660   50.9070   -7.2690 C   0  0  0  0  0  0  0  0  0  0  0  0
  1  2  1  0
  2  3  2  0
  2  4  1  0
  4  5  1  0
  3  6  1  0
  3  7  1  0
  4  8  1  0
  5  9  1  0
  6  9  2  0
  6 10  1  0
  7 11  1  0
 10 11  1  0
  5 12  2  0
  8 13  2  0
 12 13  1  0
 13 14  1  0
 14 15  1  0
 15 16  1  0
 16 17  1  0
 16 18  1  0
 17 19  1  0
 18 20  2  0
 18 21  1  0
 19 22  1  0
 20 23  1  0
 21 24  2  0
 20 25  1  0
 22 26  2  0
 22 27  1  0
 23 28  1  0
 24 28  1  0
 23 29  2  0
 25 30  2  0
 29 30  1  0
M  END
