mac-x0472-mac-x0193
     RDKit          3D

 32 34  0  0  0  0  0  0  0  0999 V2000
   29.7890   50.5090   -3.4490 O   0  0  0  0  0  0  0  0  0  0  0  0
   30.7040   49.4980   -3.9370 S   0  0  0  0  0  0  0  0  0  0  0  0
   31.2170   48.4720   -3.0490 O   0  0  0  0  0  0  0  0  0  0  0  0
   30.0970   48.7360   -5.3320 N   0  0  0  0  0  0  0  0  0  0  0  0
   32.1240   50.3800   -4.5760 C   0  0  0  0  0  0  0  0  0  0  0  0
   29.5380   47.3690   -5.1670 C   0  0  0  0  0  0  0  0  0  0  0  0
   29.4660   49.6700   -6.2650 C   0  0  0  0  0  0  0  0  0  0  0  0
   33.2560   49.6760   -5.0010 C   0  0  0  0  0  0  0  0  0  0  0  0
   32.0880   51.7780   -4.6450 C   0  0  0  0  0  0  0  0  0  0  0  0
   29.8600   46.4080   -6.3150 C   0  0  0  0  0  0  0  0  0  0  0  0
   29.1900   49.3580   -7.5130 N   0  0  0  0  0  0  0  0  0  0  0  0
   29.0160   51.2680   -5.8270 S   0  0  0  0  0  0  0  0  0  0  0  0
   34.3550   50.3780   -5.4970 C   0  0  0  0  0  0  0  0  0  0  0  0
   33.1920   52.4710   -5.1430 C   0  0  0  0  0  0  0  0  0  0  0  0
   30.7760   45.2640   -5.8690 C   0  0  0  0  0  0  0  0  0  0  0  0
   28.4490   51.4620   -7.4330 C   0  0  0  0  0  0  0  0  0  0  0  0
   28.5960   50.4020   -8.1990 N   0  0  0  0  0  0  0  0  0  0  0  0
   34.3240   51.7710   -5.5670 C   0  0  0  0  0  0  0  0  0  0  0  0
   32.0980   45.4730   -6.4410 N   0  0  0  0  0  0  0  0  0  0  0  0
   33.1910   45.1730   -5.8360 C   0  0  0  0  0  0  0  0  0  0  0  0
   34.4130   45.3820   -6.3490 O   0  0  0  0  0  0  0  0  0  0  0  0
   33.2130   44.5500   -4.4450 C   0  0  0  0  0  0  0  0  0  0  0  0
   34.5980   44.5590   -3.9840 N   0  0  0  0  0  0  0  0  0  0  0  0
   35.0260   43.7020   -2.9930 C   0  0  0  0  0  0  0  0  0  0  0  0
   34.5360   42.6030   -2.7700 O   0  0  0  0  0  0  0  0  0  0  0  0
   36.0720   44.2670   -2.2930 N   0  0  0  0  0  0  0  0  0  0  0  0
   37.2480   43.5430   -1.8050 C   0  0  0  0  0  0  0  0  0  0  0  0
   37.5540   42.2880   -2.6270 C   0  0  0  0  0  0  0  0  0  0  0  0
   37.1460   43.2380   -0.3080 C   0  0  0  0  0  0  0  0  0  0  0  0
   38.7400   41.4910   -2.0820 C   0  0  0  0  0  0  0  0  0  0  0  0
   38.3410   42.4490    0.2310 C   0  0  0  0  0  0  0  0  0  0  0  0
   39.3680   42.1490   -0.8570 C   0  0  0  0  0  0  0  0  0  0  0  0
  1  2  2  0
  2  3  2  0
  2  4  1  0
  2  5  1  0
  4  6  1  0
  4  7  1  0
  5  8  2  0
  5  9  1  0
  6 10  1  0
  7 11  2  0
  7 12  1  0
  8 13  1  0
  9 14  2  0
 10 15  1  0
 12 16  1  0
 11 17  1  0
 16 17  2  0
 13 18  2  0
 14 18  1  0
 15 19  1  0
 19 20  2  3
 20 21  1  0
 20 22  1  0
 22 23  1  0
 23 24  1  0
 24 25  2  0
 24 26  1  0
 26 27  1  0
 27 28  1  0
 27 29  1  0
 28 30  1  0
 29 31  1  0
 30 32  1  0
 31 32  1  0
M  END
