mac-x0161-mac-x0283
     RDKit          3D

 23 26  0  0  0  0  0  0  0  0999 V2000
   27.5410   52.4090   -6.6510 N   0  0  0  0  0  0  0  0  0  0  0  0
   27.9070   51.3050   -5.7290 C   0  0  1  0  0  0  0  0  0  0  0  0
   28.3240   50.0370   -6.5080 C   0  0  1  0  0  0  0  0  0  0  0  0
   29.0460   51.6590   -4.7250 C   0  0  2  0  0  0  0  0  0  0  0  0
   29.5660   50.3920   -3.9480 C   0  0  0  0  0  0  0  0  0  0  0  0
   28.5830   48.8680   -5.5770 C   0  0  2  0  0  0  0  0  0  0  0  0
   27.3170   49.4590   -7.4130 N   0  0  0  0  0  0  0  0  0  0  0  0
   28.5670   52.6300   -3.7530 O   0  0  0  0  0  0  0  0  0  0  0  0
   30.1930   52.3980   -5.4250 C   0  0  0  0  0  0  0  0  0  0  0  0
   29.6890   49.1010   -4.6820 N   0  0  0  0  0  0  0  0  0  0  0  0
   28.7370   47.7890   -6.5340 N   0  0  0  0  0  0  0  0  0  0  0  0
   27.7200   48.0620   -7.5490 C   0  0  0  0  0  0  0  0  0  0  0  0
   29.8540   53.8590   -5.2420 C   0  0  2  0  0  0  0  0  0  0  0  0
   29.2090   53.9430   -3.9620 N   0  0  0  0  0  0  0  0  0  0  0  0
   30.0070   47.9580   -3.8210 C   0  0  0  0  0  0  0  0  0  0  0  0
   28.9550   54.3970   -6.2250 N   0  0  0  0  0  0  0  0  0  0  0  0
   31.4550   47.6100   -3.8370 C   0  0  0  0  0  0  0  0  0  0  0  0
   32.5050   47.8330   -2.9800 C   0  0  0  0  0  0  0  0  0  0  0  0
   31.9040   46.9110   -4.9220 O   0  0  0  0  0  0  0  0  0  0  0  0
   33.2660   46.6710   -4.7840 N   0  0  0  0  0  0  0  0  0  0  0  0
   33.5960   47.2310   -3.6170 C   0  0  0  0  0  0  0  0  0  0  0  0
   34.8630   47.1950   -3.1440 O   0  0  0  0  0  0  0  0  0  0  0  0
   35.1120   48.1020   -2.0760 C   0  0  0  0  0  0  0  0  0  0  0  0
  2  1  1  6
  2  3  1  0
  2  4  1  0
  4  5  1  1
  3  6  1  0
  3  7  1  6
  4  8  1  0
  4  9  1  0
  5 10  1  0
  6 10  1  0
  6 11  1  6
  7 12  1  0
 11 12  1  0
  9 13  1  0
  8 14  1  0
 13 14  1  0
 10 15  1  0
 13 16  1  6
 15 17  1  0
 17 18  2  0
 17 19  1  0
 19 20  1  0
 18 21  1  0
 20 21  2  0
 21 22  1  0
 22 23  1  0
M  END
