mac-x0453-mac-x0576
     RDKit          3D

 15 16  0  0  0  0  0  0  0  0999 V2000
   29.4960   54.5750   -6.7370 N   0  0  0  0  0  0  0  0  0  0  0  0
   29.8820   53.3100   -6.0940 C   0  0  0  0  0  0  0  0  0  0  0  0
   28.6440   52.4100   -5.9110 C   0  0  0  0  0  0  0  0  0  0  0  0
   28.8000   51.0230   -5.2150 C   0  0  1  0  0  0  0  0  0  0  0  0
   29.7370   49.9660   -5.8560 C   0  0  1  0  0  0  0  0  0  0  0  0
   29.2990   51.1610   -3.8230 N   0  0  0  0  0  0  0  0  0  0  0  0
   30.9450   50.1650   -5.0540 N   0  0  0  0  0  0  0  0  0  0  0  0
   30.4420   50.2810   -3.7090 C   0  0  0  0  0  0  0  0  0  0  0  0
   29.3360   48.4720   -5.6940 C   0  0  0  0  0  0  0  0  0  0  0  0
   29.9640   50.3000   -7.3620 C   0  0  0  0  0  0  0  0  0  0  0  0
   29.3610   47.8620   -4.6250 O   0  0  0  0  0  0  0  0  0  0  0  0
   28.9550   47.7760   -6.8260 N   0  0  0  0  0  0  0  0  0  0  0  0
   29.1530   49.4940   -8.2800 N   0  0  0  0  0  0  0  0  0  0  0  0
   29.5120   48.1500   -8.0520 C   0  0  2  0  0  0  0  0  0  0  0  0
   28.8520   47.3800   -9.0400 N   0  0  0  0  0  0  0  0  0  0  0  0
  1  2  1  0
  2  3  1  0
  4  3  1  6
  4  5  1  0
  4  6  1  0
  5  7  1  0
  6  8  1  0
  7  8  1  0
  5  9  1  0
  5 10  1  6
  9 11  2  0
  9 12  1  0
 10 13  1  0
 12 14  1  0
 13 14  1  0
 14 15  1  6
M  END
