mac-x0213-mac-x0345
     RDKit          3D

 23 25  0  0  0  0  0  0  0  0999 V2000
   33.2590   46.5840   -5.9660 O   0  0  0  0  0  0  0  0  0  0  0  0
   31.9910   46.1240   -5.8780 C   0  0  0  0  0  0  0  0  0  0  0  0
   31.2870   45.9800   -6.8660 O   0  0  0  0  0  0  0  0  0  0  0  0
   31.5690   45.8280   -4.4580 C   0  0  1  0  0  0  0  0  0  0  0  0
   31.2730   47.1120   -3.6630 C   0  0  0  0  0  0  0  0  0  0  0  0
   30.2910   44.9790   -4.4370 C   0  0  0  0  0  0  0  0  0  0  0  0
   30.1620   46.6750   -2.7480 C   0  0  0  0  0  0  0  0  0  0  0  0
   29.6090   45.4670   -3.1940 C   0  0  0  0  0  0  0  0  0  0  0  0
   29.6790   47.3070   -1.6050 C   0  0  0  0  0  0  0  0  0  0  0  0
   28.5660   44.8590   -2.5180 C   0  0  0  0  0  0  0  0  0  0  0  0
   30.2490   48.6080   -1.0890 C   0  0  0  0  0  0  0  0  0  0  0  0
   28.6190   46.6880   -0.9220 C   0  0  0  0  0  0  0  0  0  0  0  0
   28.0690   45.4780   -1.3720 C   0  0  0  0  0  0  0  0  0  0  0  0
   29.3710   49.8370   -1.3800 C   0  0  0  0  0  0  0  0  0  0  0  0
   30.1210   50.9670   -1.9290 N   0  0  0  0  0  0  0  0  0  0  0  0
   29.7200   51.4410   -3.1850 C   0  0  0  0  0  0  0  0  0  0  0  0
   29.2410   50.5240   -4.1150 C   0  0  0  0  0  0  0  0  0  0  0  0
   29.8000   52.7560   -3.4750 N   0  0  0  0  0  0  0  0  0  0  0  0
   29.4030   53.1890   -4.7020 C   0  0  0  0  0  0  0  0  0  0  0  0
   28.8330   50.9670   -5.3720 C   0  0  0  0  0  0  0  0  0  0  0  0
   29.5280   54.6680   -4.9360 C   0  0  0  0  0  0  0  0  0  0  0  0
   28.9140   52.3230   -5.6740 C   0  0  0  0  0  0  0  0  0  0  0  0
   28.3540   52.9030   -7.3880 Br  0  0  0  0  0  0  0  0  0  0  0  0
  1  2  1  0
  2  3  2  0
  4  2  1  6
  4  5  1  0
  4  6  1  0
  5  7  1  0
  6  8  1  0
  7  8  2  0
  7  9  1  0
  8 10  1  0
  9 11  1  0
  9 12  2  0
 10 13  2  0
 12 13  1  0
 11 14  1  0
 14 15  1  0
 15 16  1  0
 16 17  2  0
 16 18  1  0
 18 19  2  0
 17 20  1  0
 19 21  1  0
 19 22  1  0
 20 22  2  0
 22 23  1  0
M  END
