mac-x0178-mac-x0433
     RDKit          3D

 25 26  0  0  0  0  0  0  0  0999 V2000
   28.4160   45.1050   -0.2730 N   0  0  0  0  0  0  0  0  0  0  0  0
   29.0200   46.6070   -0.7010 S   0  0  2  0  0  0  0  0  0  0  0  0
   29.9470   46.8810    0.3650 O   0  0  0  0  0  0  0  0  0  0  0  0
   27.7030   47.3320   -0.9580 N   0  0  0  0  0  0  0  0  0  0  0  0
   29.8790   46.4360   -2.2310 C   0  0  0  0  0  0  0  0  0  0  0  0
   27.6740   48.4280   -1.9460 C   0  0  0  0  0  0  0  0  0  0  0  0
   29.3190   45.6680   -3.2540 C   0  0  0  0  0  0  0  0  0  0  0  0
   31.1090   47.0740   -2.4070 C   0  0  0  0  0  0  0  0  0  0  0  0
   28.1160   49.7660   -1.3610 C   0  0  0  0  0  0  0  0  0  0  0  0
   29.9960   45.5390   -4.4670 C   0  0  0  0  0  0  0  0  0  0  0  0
   31.7850   46.9460   -3.6220 C   0  0  0  0  0  0  0  0  0  0  0  0
   29.5990   50.0550   -1.6030 C   0  0  0  0  0  0  0  0  0  0  0  0
   31.2310   46.1790   -4.6570 C   0  0  0  0  0  0  0  0  0  0  0  0
   31.9690   46.0660   -5.9370 C   0  0  0  0  0  0  0  0  0  0  0  0
   29.8720   51.4750   -1.8440 N   0  0  0  0  0  0  0  0  0  0  0  0
   31.4900   45.7510   -7.0110 O   0  0  0  0  0  0  0  0  0  0  0  0
   33.2780   46.3550   -5.8200 O   0  0  0  0  0  0  0  0  0  0  0  0
   29.6220   51.8520   -3.1650 C   0  0  0  0  0  0  0  0  0  0  0  0
   29.2880   50.9280   -4.0690 N   0  0  0  0  0  0  0  0  0  0  0  0
   29.7400   53.1590   -3.4340 N   0  0  0  0  0  0  0  0  0  0  0  0
   29.0560   51.3350   -5.3290 C   0  0  0  0  0  0  0  0  0  0  0  0
   29.5030   53.5480   -4.7060 C   0  0  0  0  0  0  0  0  0  0  0  0
   28.6820   50.2800   -6.3240 C   0  0  0  0  0  0  0  0  0  0  0  0
   29.6330   55.0100   -5.0140 C   0  0  0  0  0  0  0  0  0  0  0  0
   29.1540   52.6570   -5.7000 C   0  0  0  0  0  0  0  0  0  0  0  0
  2  1  1  1
  2  3  2  0
  2  4  2  0
  2  5  1  0
  4  6  1  0
  5  7  2  0
  5  8  1  0
  6  9  1  0
  7 10  1  0
  8 11  2  0
  9 12  1  0
 10 13  2  0
 11 13  1  0
 13 14  1  0
 12 15  1  0
 14 16  2  0
 14 17  1  0
 15 18  1  0
 18 19  2  0
 18 20  1  0
 19 21  1  0
 20 22  2  0
 21 23  1  0
 22 24  1  0
 21 25  2  0
 22 25  1  0
M  END
