mac-x0441-mac-x0404
     RDKit          3D

 28 31  0  0  0  0  0  0  0  0999 V2000
   34.3020   45.0640   -6.4100 O   0  0  0  0  0  0  0  0  0  0  0  0
   33.0270   45.0500   -5.9550 C   0  0  0  0  0  0  0  0  0  0  0  0
   32.1260   44.7870   -6.7380 O   0  0  0  0  0  0  0  0  0  0  0  0
   32.9120   45.3960   -4.4800 C   0  0  1  0  0  0  0  0  0  0  0  0
   31.7140   44.8480   -3.9040 O   0  0  0  0  0  0  0  0  0  0  0  0
   34.1150   45.0400   -3.6960 N   0  0  0  0  0  0  0  0  0  0  0  0
   34.2950   43.7880   -3.1740 N   0  0  0  0  0  0  0  0  0  0  0  0
   35.1630   45.8650   -3.3920 C   0  0  0  0  0  0  0  0  0  0  0  0
   31.2190   45.7470   -2.9970 C   0  0  0  0  0  0  0  0  0  0  0  0
   35.4880   43.8400   -2.5270 C   0  0  0  0  0  0  0  0  0  0  0  0
   36.0610   45.1340   -2.6460 C   0  0  0  0  0  0  0  0  0  0  0  0
   35.3240   47.2910   -3.7820 C   0  0  0  0  0  0  0  0  0  0  0  0
   29.9480   45.5530   -2.4040 C   0  0  0  0  0  0  0  0  0  0  0  0
   31.9990   46.8590   -2.6710 C   0  0  0  0  0  0  0  0  0  0  0  0
   36.1050   42.6740   -1.7900 C   0  0  0  0  0  0  0  0  0  0  0  0
   37.3380   45.6950   -2.1270 C   0  0  0  0  0  0  0  0  0  0  0  0
   36.3700   47.9470   -2.8690 C   0  0  0  0  0  0  0  0  0  0  0  0
   29.4990   46.5210   -1.4710 C   0  0  0  0  0  0  0  0  0  0  0  0
   31.5450   47.7920   -1.7610 C   0  0  0  0  0  0  0  0  0  0  0  0
   29.1060   44.4550   -2.6870 C   0  0  0  0  0  0  0  0  0  0  0  0
   37.1860   42.1720   -2.4530 F   0  0  0  0  0  0  0  0  0  0  0  0
   36.5360   42.9870   -0.5390 F   0  0  0  0  0  0  0  0  0  0  0  0
   35.2340   41.6350   -1.6440 F   0  0  0  0  0  0  0  0  0  0  0  0
   37.6380   47.0800   -2.7410 C   0  0  0  0  0  0  0  0  0  0  0  0
   30.3030   47.6250   -1.1640 C   0  0  0  0  0  0  0  0  0  0  0  0
   28.2490   46.3660   -0.8580 C   0  0  0  0  0  0  0  0  0  0  0  0
   27.8630   44.3210   -2.0660 C   0  0  0  0  0  0  0  0  0  0  0  0
   27.4350   45.2750   -1.1520 C   0  0  0  0  0  0  0  0  0  0  0  0
  1  2  1  0
  2  3  2  0
  2  4  1  0
  4  5  1  1
  4  6  1  0
  6  7  1  0
  6  8  1  0
  5  9  1  0
  7 10  2  0
  8 11  2  0
 10 11  1  0
  8 12  1  0
  9 13  1  0
  9 14  2  0
 10 15  1  0
 11 16  1  0
 12 17  1  0
 13 18  2  0
 14 19  1  0
 13 20  1  0
 15 21  1  0
 15 22  1  0
 15 23  1  0
 16 24  1  0
 17 24  1  0
 18 25  1  0
 19 25  2  0
 18 26  1  0
 20 27  2  0
 26 28  2  0
 27 28  1  0
M  END
