mac-x0387-mac-x0439
     RDKit          3D

 25 28  0  0  0  0  0  0  0  0999 V2000
   28.2930   51.2370   -7.7410 N   0  0  0  0  0  0  0  0  0  0  0  0
   28.6680   49.9090   -7.4990 C   0  0  0  0  0  0  0  0  0  0  0  0
   28.5450   49.0820   -8.5500 N   0  0  0  0  0  0  0  0  0  0  0  0
   29.1330   49.5110   -6.2380 C   0  0  0  0  0  0  0  0  0  0  0  0
   29.4980   48.1630   -6.0460 C   0  0  0  0  0  0  0  0  0  0  0  0
   28.9020   47.7950   -8.3470 C   0  0  0  0  0  0  0  0  0  0  0  0
   29.2450   50.4050   -5.1660 C   0  0  0  0  0  0  0  0  0  0  0  0
   29.3750   47.2920   -7.1400 C   0  0  0  0  0  0  0  0  0  0  0  0
   29.9660   47.7450   -4.7700 C   0  0  0  0  0  0  0  0  0  0  0  0
   29.7000   49.9910   -3.9310 C   0  0  0  0  0  0  0  0  0  0  0  0
   30.0610   48.6790   -3.7070 C   0  0  0  0  0  0  0  0  0  0  0  0
   30.5310   48.3810   -2.3060 C   0  0  0  0  0  0  0  0  0  0  0  0
   31.0180   46.9730   -2.0420 C   0  0  0  0  0  0  0  0  0  0  0  0
   29.9860   45.8820   -2.1640 C   0  0  0  0  0  0  0  0  0  0  0  0
   30.2980   44.7110   -3.0310 C   0  0  2  0  0  0  0  0  0  0  0  0
   28.7980   45.8930   -1.5140 C   0  0  0  0  0  0  0  0  0  0  0  0
   31.0300   44.8160   -4.3230 C   0  0  0  0  0  0  0  0  0  0  0  0
   29.0240   44.1370   -3.6070 C   0  0  0  0  0  0  0  0  0  0  0  0
   27.8470   44.7940   -1.6620 C   0  0  0  0  0  0  0  0  0  0  0  0
   30.2740   44.3130   -5.3100 C   0  0  0  0  0  0  0  0  0  0  0  0
   29.0270   43.8920   -4.8830 N   0  0  0  0  0  0  0  0  0  0  0  0
   27.9140   43.9050   -2.6720 C   0  0  0  0  0  0  0  0  0  0  0  0
   30.7140   44.2090   -6.7380 C   0  0  0  0  0  0  0  0  0  0  0  0
   30.3940   43.0220   -7.3060 O   0  0  0  0  0  0  0  0  0  0  0  0
   31.3100   45.0830   -7.3480 O   0  0  0  0  0  0  0  0  0  0  0  0
  1  2  1  0
  2  3  2  0
  2  4  1  0
  4  5  2  0
  3  6  1  0
  4  7  1  0
  5  8  1  0
  6  8  2  0
  5  9  1  0
  7 10  2  0
  9 11  2  0
 10 11  1  0
 11 12  1  0
 12 13  1  0
 13 14  1  0
 14 15  1  0
 14 16  2  0
 15 17  1  6
 15 18  1  0
 16 19  1  0
 17 20  2  0
 18 21  2  0
 20 21  1  0
 18 22  1  0
 19 22  2  0
 20 23  1  0
 23 24  1  0
 23 25  2  0
M  END
