mac-x0161-mac-x0455
     RDKit          3D

 23 25  0  0  0  0  0  0  0  0999 V2000
   28.1650   52.5870   -4.7630 N   0  0  0  0  0  0  0  0  0  0  0  0
   28.8010   51.2970   -4.9400 C   0  0  2  0  0  0  0  0  0  0  0  0
   28.0770   50.4180   -5.9670 C   0  0  2  0  0  0  0  0  0  0  0  0
   28.7040   50.6790   -3.6410 N   0  0  0  0  0  0  0  0  0  0  0  0
   29.5630   49.5010   -3.6150 C   0  0  0  0  0  0  0  0  0  0  0  0
   27.9580   48.9940   -5.3980 C   0  0  2  0  0  0  0  0  0  0  0  0
   28.7800   50.2500   -7.2550 N   0  0  0  0  0  0  0  0  0  0  0  0
   29.1220   48.5180   -4.6120 N   0  0  0  0  0  0  0  0  0  0  0  0
   27.7700   48.2050   -6.6220 N   0  0  0  0  0  0  0  0  0  0  0  0
   28.3580   48.9520   -7.7330 C   0  0  0  0  0  0  0  0  0  0  0  0
   30.2940   47.9320   -5.3550 C   0  0  2  0  0  0  0  0  0  0  0  0
   30.0170   46.5390   -6.0110 C   0  0  1  0  0  0  0  0  0  0  0  0
   31.6030   47.9770   -4.5940 C   0  0  0  0  0  0  0  0  0  0  0  0
   30.9410   46.2700   -7.2010 C   0  0  0  0  0  0  0  0  0  0  0  0
   30.2330   45.3880   -5.0330 C   0  0  0  0  0  0  0  0  0  0  0  0
   31.9490   47.8140   -3.2690 C   0  0  0  0  0  0  0  0  0  0  0  0
   32.7390   48.2350   -5.3130 O   0  0  0  0  0  0  0  0  0  0  0  0
   29.5720   45.1990   -4.0190 O   0  0  0  0  0  0  0  0  0  0  0  0
   31.2380   44.5520   -5.3900 O   0  0  0  0  0  0  0  0  0  0  0  0
   33.8390   48.2430   -4.4680 N   0  0  0  0  0  0  0  0  0  0  0  0
   33.3430   47.9900   -3.2550 C   0  0  0  0  0  0  0  0  0  0  0  0
   34.1290   47.9190   -2.1560 O   0  0  0  0  0  0  0  0  0  0  0  0
   35.4780   48.3250   -2.3660 C   0  0  0  0  0  0  0  0  0  0  0  0
  2  1  1  1
  2  3  1  0
  2  4  1  0
  4  5  1  0
  3  6  1  0
  3  7  1  6
  5  8  1  0
  6  8  1  0
  6  9  1  6
  7 10  1  0
  9 10  1  0
  8 11  1  0
 11 12  1  0
 11 13  1  1
 12 14  1  6
 12 15  1  0
 13 16  2  0
 13 17  1  0
 15 18  2  0
 15 19  1  0
 17 20  1  0
 16 21  1  0
 20 21  2  0
 21 22  1  0
 22 23  1  0
M  END
