mac-x0436
     RDKit          3D

 16 17  0  0  0  0  0  0  0  0999 V2000
   33.7320   45.8510   -6.4390 O   0  0  0  0  0  0  0  0  0  0  0  0
   32.6390   45.4280   -6.1320 C   0  0  0  0  0  0  0  0  0  0  0  0
   31.6520   45.6330   -6.8690 O   0  0  0  0  0  0  0  0  0  0  0  0
   32.5050   44.5500   -4.8770 C   0  0  0  0  0  0  0  0  0  0  0  0
   32.4260   45.3150   -3.6160 C   0  0  0  0  0  0  0  0  0  0  0  0
   33.7460   45.9930   -3.3860 C   0  0  0  0  0  0  0  0  0  0  0  0
   34.8120   45.1980   -2.9690 N   0  0  0  0  0  0  0  0  0  0  0  0
   36.1160   45.8000   -2.7820 C   0  0  0  0  0  0  0  0  0  0  0  0
   37.1600   45.0270   -2.3420 C   0  0  0  0  0  0  0  0  0  0  0  0
   38.4200   45.6270   -2.1190 C   0  0  0  0  0  0  0  0  0  0  0  0
   38.5650   46.9740   -2.3460 C   0  0  0  0  0  0  0  0  0  0  0  0
   37.5270   47.7640   -2.8040 C   0  0  0  0  0  0  0  0  0  0  0  0
   36.2730   47.1780   -2.9980 C   0  0  0  0  0  0  0  0  0  0  0  0
   35.1910   48.0040   -3.4700 N   0  0  0  0  0  0  0  0  0  0  0  0
   33.9180   47.3930   -3.6750 C   0  0  0  0  0  0  0  0  0  0  0  0
   33.0250   48.0380   -4.0320 O   0  0  0  0  0  0  0  0  0  0  0  0
  1  2  1  0
  2  3  2  0
  2  4  1  0
  4  5  1  0
  5  6  1  0
  6  7  2  0
  7  8  1  0
  8  9  2  0
  9 10  1  0
 10 11  2  0
 11 12  1  0
  8 13  1  0
 12 13  2  0
 13 14  1  0
  6 15  1  0
 14 15  1  0
 15 16  2  0
M  END
