mac-x0131-mac-x0303
     RDKit          3D

 30 34  0  0  0  0  0  0  0  0999 V2000
   30.5640   48.6470   -2.5340 C   0  0  0  0  0  0  0  0  0  0  0  0
   30.1400   48.6500   -3.9740 C   0  0  0  0  0  0  0  0  0  0  0  0
   29.5560   49.6440   -4.7390 C   0  0  0  0  0  0  0  0  0  0  0  0
   30.2590   47.5680   -4.7970 N   0  0  0  0  0  0  0  0  0  0  0  0
   30.7870   46.2730   -4.4160 C   0  0  0  0  0  0  0  0  0  0  0  0
   29.3400   49.1960   -6.0380 C   0  0  0  0  0  0  0  0  0  0  0  0
   29.7830   47.8900   -6.0530 C   0  0  0  0  0  0  0  0  0  0  0  0
   29.2310   50.8480   -4.1430 C   0  0  0  0  0  0  0  0  0  0  0  0
   28.8070   49.7280   -7.2090 C   0  0  0  0  0  0  0  0  0  0  0  0
   29.7430   47.0760   -7.1120 N   0  0  0  0  0  0  0  0  0  0  0  0
   32.2250   46.1710   -4.6750 C   0  0  0  0  0  0  0  0  0  0  0  0
   29.2570   52.2050   -4.5610 C   0  0  0  0  0  0  0  0  0  0  0  0
   28.7720   50.5090   -2.9080 C   0  0  0  0  0  0  0  0  0  0  0  0
   28.3230   51.0290   -7.3280 N   0  0  0  0  0  0  0  0  0  0  0  0
   28.7500   48.9450   -8.2940 N   0  0  0  0  0  0  0  0  0  0  0  0
   29.2130   47.6840   -8.1840 C   0  0  0  0  0  0  0  0  0  0  0  0
   32.9910   45.2070   -5.2820 C   0  0  0  0  0  0  0  0  0  0  0  0
   33.0050   47.2040   -4.2560 O   0  0  0  0  0  0  0  0  0  0  0  0
   29.6050   53.0180   -5.6420 N   0  0  0  0  0  0  0  0  0  0  0  0
   28.7930   53.1220   -3.6800 C   0  0  0  0  0  0  0  0  0  0  0  0
   28.3320   51.4280   -2.0680 C   0  0  0  0  0  0  0  0  0  0  0  0
   34.2780   46.8950   -4.6000 C   0  0  0  0  0  0  0  0  0  0  0  0
   34.3210   45.6750   -5.2330 C   0  0  0  0  0  0  0  0  0  0  0  0
   29.3040   54.3330   -5.2990 C   0  0  0  0  0  0  0  0  0  0  0  0
   28.8250   54.3750   -4.1280 N   0  0  0  0  0  0  0  0  0  0  0  0
   28.3370   52.7370   -2.4510 C   0  0  0  0  0  0  0  0  0  0  0  0
   29.4790   55.8210   -6.2130 S   0  0  0  0  0  0  0  0  0  0  0  0
   30.8780   55.7500   -7.1510 N   0  0  0  0  0  0  0  0  0  0  0  0
   28.3560   55.8830   -7.1130 O   0  0  0  0  0  0  0  0  0  0  0  0
   29.7270   56.8470   -5.2220 O   0  0  0  0  0  0  0  0  0  0  0  0
  1  2  1  0
  2  3  2  0
  2  4  1  0
  4  5  1  0
  3  6  1  0
  4  7  1  0
  6  7  2  0
  3  8  1  0
  6  9  1  0
  7 10  1  0
  5 11  1  0
  8 12  1  0
  8 13  2  0
  9 14  1  0
  9 15  2  0
 10 16  2  0
 15 16  1  0
 11 17  2  0
 11 18  1  0
 12 19  1  0
 12 20  2  0
 13 21  1  0
 18 22  1  0
 17 23  1  0
 22 23  2  0
 19 24  1  0
 20 25  1  0
 24 25  2  0
 20 26  1  0
 21 26  2  0
 24 27  1  0
 27 28  1  0
 27 29  2  0
 27 30  2  0
M  END
