mac-x0255-mac-x0282
     RDKit          3D

 24 27  0  0  0  0  0  0  0  0999 V2000
   32.2460   44.2920   -8.0010 O   0  0  0  0  0  0  0  0  0  0  0  0
   32.6160   45.1040   -6.9170 C   0  0  0  0  0  0  0  0  0  0  0  0
   33.9410   45.5480   -7.1650 O   0  0  0  0  0  0  0  0  0  0  0  0
   32.5890   44.2960   -5.5990 C   0  0  0  0  0  0  0  0  0  0  0  0
   31.7170   46.3140   -6.8420 C   0  0  0  0  0  0  0  0  0  0  0  0
   30.2240   46.0740   -7.0650 C   0  0  0  0  0  0  0  0  0  0  0  0
   31.5310   44.7400   -4.6240 C   0  0  0  0  0  0  0  0  0  0  0  0
   30.3550   44.0990   -4.3040 C   0  0  0  0  0  0  0  0  0  0  0  0
   31.7020   46.1990   -3.7490 S   0  0  0  0  0  0  0  0  0  0  0  0
   29.6200   47.4110   -7.0650 C   0  0  0  0  0  0  0  0  0  0  0  0
   29.5750   44.8020   -3.3300 C   0  0  0  0  0  0  0  0  0  0  0  0
   30.2030   45.9870   -2.9350 C   0  0  0  0  0  0  0  0  0  0  0  0
   29.7590   48.1570   -5.9020 C   0  0  0  0  0  0  0  0  0  0  0  0
   28.9570   47.9460   -8.1610 C   0  0  0  0  0  0  0  0  0  0  0  0
   28.3280   44.4790   -2.7480 C   0  0  0  0  0  0  0  0  0  0  0  0
   29.6230   46.8460   -1.9870 C   0  0  0  0  0  0  0  0  0  0  0  0
   29.2290   49.4330   -5.8990 C   0  0  0  0  0  0  0  0  0  0  0  0
   28.4180   49.1820   -8.2070 N   0  0  0  0  0  0  0  0  0  0  0  0
   27.7500   45.3280   -1.8040 C   0  0  0  0  0  0  0  0  0  0  0  0
   28.3910   46.5010   -1.4270 C   0  0  0  0  0  0  0  0  0  0  0  0
   29.1650   50.4890   -4.9590 C   0  0  0  0  0  0  0  0  0  0  0  0
   28.5950   49.8630   -7.0540 C   0  0  0  0  0  0  0  0  0  0  0  0
   28.5020   51.5320   -5.5630 C   0  0  0  0  0  0  0  0  0  0  0  0
   28.1610   51.1380   -6.8350 N   0  0  0  0  0  0  0  0  0  0  0  0
  2  1  1  0
  2  3  1  0
  2  4  1  0
  2  5  1  0
  5  6  1  0
  4  7  1  0
  7  8  2  0
  7  9  1  0
  6 10  1  0
  8 11  1  0
  9 12  1  0
 11 12  2  0
 10 13  2  0
 10 14  1  0
 11 15  1  0
 12 16  1  0
 13 17  1  0
 14 18  2  0
 15 19  2  0
 16 20  2  0
 19 20  1  0
 17 21  1  0
 17 22  2  0
 18 22  1  0
 21 23  2  0
 22 24  1  0
 23 24  1  0
M  END
