mac-x0178-mac-x0346
     RDKit          3D

 27 28  0  0  0  0  0  0  0  0999 V2000
   28.4360   45.0490   -0.2410 N   0  0  0  0  0  0  0  0  0  0  0  0
   28.9960   46.5540   -0.7120 S   0  0  2  0  0  0  0  0  0  0  0  0
   29.9220   46.8910    0.3390 O   0  0  0  0  0  0  0  0  0  0  0  0
   27.6620   47.2390   -0.9940 N   0  0  0  0  0  0  0  0  0  0  0  0
   29.8730   46.4060   -2.2380 C   0  0  0  0  0  0  0  0  0  0  0  0
   27.6320   48.3920   -1.9120 C   0  0  0  0  0  0  0  0  0  0  0  0
   29.2880   45.7330   -3.3110 C   0  0  0  0  0  0  0  0  0  0  0  0
   31.1460   46.9700   -2.3510 C   0  0  0  0  0  0  0  0  0  0  0  0
   28.7830   49.3350   -1.5670 C   0  0  0  0  0  0  0  0  0  0  0  0
   29.9860   45.6270   -4.5160 C   0  0  0  0  0  0  0  0  0  0  0  0
   31.8420   46.8630   -3.5580 C   0  0  0  0  0  0  0  0  0  0  0  0
   29.8720   49.3290   -2.6330 C   0  0  0  0  0  0  0  0  0  0  0  0
   31.2640   46.1930   -4.6440 C   0  0  0  0  0  0  0  0  0  0  0  0
   31.9610   46.0570   -5.9470 C   0  0  0  0  0  0  0  0  0  0  0  0
   30.0130   50.6270   -3.2180 O   0  0  0  0  0  0  0  0  0  0  0  0
   31.4410   45.7260   -6.9960 O   0  0  0  0  0  0  0  0  0  0  0  0
   33.2730   46.3430   -5.8740 O   0  0  0  0  0  0  0  0  0  0  0  0
   29.4150   50.8450   -4.4330 C   0  0  0  0  0  0  0  0  0  0  0  0
   29.2100   52.1800   -4.8140 C   0  0  0  0  0  0  0  0  0  0  0  0
   29.0100   49.8110   -5.2860 C   0  0  0  0  0  0  0  0  0  0  0  0
   29.6320   53.3050   -3.9270 C   0  0  0  0  0  0  0  0  0  0  0  0
   28.4040   50.1020   -6.5110 C   0  0  0  0  0  0  0  0  0  0  0  0
   28.5980   52.4650   -6.0510 C   0  0  0  0  0  0  0  0  0  0  0  0
   29.7220   54.6050   -4.3720 N   0  0  0  0  0  0  0  0  0  0  0  0
   29.9120   53.0500   -2.7560 O   0  0  0  0  0  0  0  0  0  0  0  0
   28.1980   51.4240   -6.8940 C   0  0  0  0  0  0  0  0  0  0  0  0
   29.3280   54.9070   -5.6890 O   0  0  0  0  0  0  0  0  0  0  0  0
  2  1  1  1
  2  3  2  0
  2  4  2  0
  2  5  1  0
  4  6  1  0
  5  7  2  0
  5  8  1  0
  6  9  1  0
  7 10  1  0
  8 11  2  0
  9 12  1  0
 10 13  2  0
 11 13  1  0
 13 14  1  0
 12 15  1  0
 14 16  2  0
 14 17  1  0
 15 18  1  0
 18 19  2  0
 18 20  1  0
 19 21  1  0
 20 22  2  0
 19 23  1  0
 21 24  1  0
 21 25  2  0
 22 26  1  0
 23 26  2  0
 24 27  1  0
M  END
