mac-x0360-mac-x0284
     RDKit          3D

 22 23  0  0  0  0  0  0  0  0999 V2000
   32.5530   55.3660   -5.2510 Cl  0  0  0  0  0  0  0  0  0  0  0  0
   32.2960   53.7020   -5.6120 C   0  0  0  0  0  0  0  0  0  0  0  0
   33.3460   52.7970   -5.4620 C   0  0  0  0  0  0  0  0  0  0  0  0
   31.0470   53.2760   -6.0490 C   0  0  0  0  0  0  0  0  0  0  0  0
   30.8530   51.9220   -6.3400 C   0  0  0  0  0  0  0  0  0  0  0  0
   33.1410   51.4510   -5.7550 C   0  0  0  0  0  0  0  0  0  0  0  0
   34.4420   50.3410   -5.5720 Cl  0  0  0  0  0  0  0  0  0  0  0  0
   29.2730   51.3660   -6.9000 S   0  0  1  0  0  0  0  0  0  0  0  0
   31.8960   50.9990   -6.1950 C   0  0  0  0  0  0  0  0  0  0  0  0
   29.4740   50.0970   -7.9760 N   0  0  0  0  0  0  0  0  0  0  0  0
   28.5710   50.6380   -5.7540 N   0  0  0  0  0  0  0  0  0  0  0  0
   28.7110   52.3780   -7.7580 O   0  0  0  0  0  0  0  0  0  0  0  0
   29.3520   49.8620   -4.7940 C   0  0  0  0  0  0  0  0  0  0  0  0
   29.4420   48.4800   -4.9560 C   0  0  0  0  0  0  0  0  0  0  0  0
   29.9980   50.4950   -3.7320 C   0  0  0  0  0  0  0  0  0  0  0  0
   30.1850   47.7170   -4.0460 C   0  0  0  0  0  0  0  0  0  0  0  0
   30.7410   49.7380   -2.8230 C   0  0  0  0  0  0  0  0  0  0  0  0
   30.2950   46.2490   -4.1950 C   0  0  0  0  0  0  0  0  0  0  0  0
   30.8330   48.3570   -2.9810 C   0  0  0  0  0  0  0  0  0  0  0  0
   31.5810   47.6940   -2.0430 O   0  0  0  0  0  0  0  0  0  0  0  0
   29.5570   45.5700   -4.8900 O   0  0  0  0  0  0  0  0  0  0  0  0
   31.2990   45.7070   -3.4850 O   0  0  0  0  0  0  0  0  0  0  0  0
  1  2  1  0
  2  3  2  0
  2  4  1  0
  4  5  2  0
  3  6  1  0
  6  7  1  0
  5  8  1  0
  5  9  1  0
  6  9  2  0
  8 10  1  6
  8 11  2  0
  8 12  2  0
 11 13  1  0
 13 14  2  0
 13 15  1  0
 14 16  1  0
 15 17  2  0
 16 18  1  0
 16 19  2  0
 17 19  1  0
 19 20  1  0
 18 21  2  0
 18 22  1  0
M  END
