mac-x0277-mac-x0404
     RDKit          3D

 17 18  0  0  0  0  0  0  0  0999 V2000
   26.6740   48.2260   -1.9400 Cl  0  0  0  0  0  0  0  0  0  0  0  0
   28.4600   48.0810   -2.0090 C   0  0  0  0  0  0  0  0  0  0  0  0
   29.0410   46.8260   -1.3090 C   0  0  1  0  0  0  0  0  0  0  0  0
   30.3610   47.3060   -0.1670 Cl  0  0  0  0  0  0  0  0  0  0  0  0
   27.9790   46.0980   -0.4810 C   0  0  0  0  0  0  0  0  0  0  0  0
   29.6510   45.9170   -2.3480 C   0  0  0  0  0  0  0  0  0  0  0  0
   30.5980   46.0950   -3.2910 C   0  0  0  0  0  0  0  0  0  0  0  0
   29.2200   44.5320   -2.4730 C   0  0  0  0  0  0  0  0  0  0  0  0
   27.6430   44.8090   -0.6660 C   0  0  0  0  0  0  0  0  0  0  0  0
   30.7970   44.8460   -4.0330 C   0  0  0  0  0  0  0  0  0  0  0  0
   29.9630   43.9060   -3.5370 C   0  0  0  0  0  0  0  0  0  0  0  0
   28.2770   44.0040   -1.6860 C   0  0  0  0  0  0  0  0  0  0  0  0
   31.7910   44.7230   -5.1500 C   0  0  1  0  0  0  0  0  0  0  0  0
   31.9180   46.0430   -5.9260 C   0  0  0  0  0  0  0  0  0  0  0  0
   33.0690   44.3560   -4.6170 O   0  0  0  0  0  0  0  0  0  0  0  0
   33.0030   46.7770   -5.6070 O   0  0  0  0  0  0  0  0  0  0  0  0
   31.1280   46.4390   -6.7750 O   0  0  0  0  0  0  0  0  0  0  0  0
  1  2  1  0
  3  2  1  6
  3  4  1  0
  3  5  1  0
  3  6  1  0
  6  7  2  0
  6  8  1  0
  5  9  2  0
  7 10  1  0
  8 11  1  0
 10 11  2  0
  8 12  2  0
  9 12  1  0
 10 13  1  0
 13 14  1  0
 13 15  1  1
 14 16  1  0
 14 17  2  0
M  END
