mac-x0348-mac-x0568
     RDKit          3D

 27 29  0  0  0  0  0  0  0  0999 V2000
   27.5340   44.3320   -0.9850 C   0  0  0  0  0  0  0  0  0  0  0  0
   28.4280   45.2810   -1.6160 N   0  0  0  0  0  0  0  0  0  0  0  0
   28.8570   45.2030   -2.9130 C   0  0  0  0  0  0  0  0  0  0  0  0
   28.9690   46.3870   -0.9990 C   0  0  0  0  0  0  0  0  0  0  0  0
   29.6980   46.2780   -3.1680 C   0  0  0  0  0  0  0  0  0  0  0  0
   29.7720   47.0320   -1.9500 C   0  0  0  0  0  0  0  0  0  0  0  0
   28.8200   46.8740    0.3110 C   0  0  0  0  0  0  0  0  0  0  0  0
   30.3770   46.5460   -4.4990 C   0  0  1  0  0  0  0  0  0  0  0  0
   30.4440   48.2100   -1.5560 C   0  0  0  0  0  0  0  0  0  0  0  0
   29.4990   48.0410    0.6660 C   0  0  0  0  0  0  0  0  0  0  0  0
   31.5620   45.6030   -4.7640 C   0  0  0  0  0  0  0  0  0  0  0  0
   29.3820   46.7520   -5.6650 C   0  0  0  0  0  0  0  0  0  0  0  0
   30.3040   48.7050   -0.2550 C   0  0  0  0  0  0  0  0  0  0  0  0
   32.3080   45.8260   -6.0510 C   0  0  0  0  0  0  0  0  0  0  0  0
   28.3990   47.9050   -5.4330 C   0  0  0  0  0  0  0  0  0  0  0  0
   31.8770   45.6520   -7.1770 O   0  0  0  0  0  0  0  0  0  0  0  0
   33.5730   46.2590   -5.8730 O   0  0  0  0  0  0  0  0  0  0  0  0
   28.9710   49.2070   -5.7550 N   0  0  0  0  0  0  0  0  0  0  0  0
   29.5700   50.0940   -4.8900 C   0  0  0  0  0  0  0  0  0  0  0  0
   30.1530   49.6790   -3.8970 O   0  0  0  0  0  0  0  0  0  0  0  0
   29.5270   51.5430   -5.1300 C   0  0  0  0  0  0  0  0  0  0  0  0
   29.8770   52.3900   -4.0910 C   0  0  0  0  0  0  0  0  0  0  0  0
   29.1550   52.1100   -6.3460 C   0  0  0  0  0  0  0  0  0  0  0  0
   29.8780   53.7420   -4.1880 N   0  0  0  0  0  0  0  0  0  0  0  0
   29.1480   53.4990   -6.4730 C   0  0  0  0  0  0  0  0  0  0  0  0
   29.5140   54.2790   -5.3770 C   0  0  0  0  0  0  0  0  0  0  0  0
   29.5180   55.7750   -5.4800 C   0  0  0  0  0  0  0  0  0  0  0  0
  1  2  1  0
  2  3  1  0
  2  4  1  0
  3  5  2  0
  4  6  2  0
  5  6  1  0
  4  7  1  0
  5  8  1  0
  6  9  1  0
  7 10  2  0
  8 11  1  6
  8 12  1  0
  9 13  2  0
 10 13  1  0
 11 14  1  0
 12 15  1  0
 14 16  2  0
 14 17  1  0
 15 18  1  0
 18 19  1  0
 19 20  2  0
 19 21  1  0
 21 22  2  0
 21 23  1  0
 22 24  1  0
 23 25  2  0
 24 26  2  0
 25 26  1  0
 26 27  1  0
M  END
