mac-x0451-mac-x0510
     RDKit          3D

 16 18  0  0  0  0  0  0  0  0999 V2000
   29.0780   54.2620   -8.3960 N   0  0  0  0  0  0  0  0  0  0  0  0
   29.1970   53.1300   -7.6850 C   0  0  0  0  0  0  0  0  0  0  0  0
   29.3930   53.1190   -6.3920 N   0  0  0  0  0  0  0  0  0  0  0  0
   29.0950   51.5860   -8.4310 S   0  0  0  0  0  0  0  0  0  0  0  0
   29.4740   51.8130   -5.9300 C   0  0  0  0  0  0  0  0  0  0  0  0
   29.3340   50.8420   -6.9080 C   0  0  0  0  0  0  0  0  0  0  0  0
   29.6900   51.4620   -4.5240 C   0  0  0  0  0  0  0  0  0  0  0  0
   29.3830   49.3520   -6.6640 C   0  0  2  0  0  0  0  0  0  0  0  0
   29.8820   52.3060   -3.6500 O   0  0  0  0  0  0  0  0  0  0  0  0
   29.6680   49.9820   -4.1830 C   0  0  0  0  0  0  0  0  0  0  0  0
   30.1750   49.1260   -5.3370 C   0  0  1  0  0  0  0  0  0  0  0  0
   30.0350   48.6290   -7.7880 N   0  0  0  0  0  0  0  0  0  0  0  0
   27.9620   48.7440   -6.6040 C   0  0  0  0  0  0  0  0  0  0  0  0
   30.0990   47.8190   -4.9540 F   0  0  0  0  0  0  0  0  0  0  0  0
   27.8610   47.9170   -7.8190 N   0  0  0  0  0  0  0  0  0  0  0  0
   29.2190   47.4470   -8.0070 C   0  0  0  0  0  0  0  0  0  0  0  0
  1  2  1  0
  2  3  2  0
  2  4  1  0
  3  5  1  0
  4  6  1  0
  5  6  2  0
  5  7  1  0
  6  8  1  0
  7  9  2  0
  7 10  1  0
  8 11  1  0
 10 11  1  0
  8 12  1  0
  8 13  1  1
 11 14  1  1
 13 15  1  0
 12 16  1  0
 15 16  1  0
M  END
