mac-x0228
     RDKit          3D

 12 13  0  0  0  0  0  0  0  0999 V2000
   30.0950   47.5590   -5.4750 O   0  0  0  0  0  0  0  0  0  0  0  0
   30.3490   48.1130   -4.4020 C   0  0  0  0  0  0  0  0  0  0  0  0
   30.8250   47.4450   -3.4310 O   0  0  0  0  0  0  0  0  0  0  0  0
   30.1020   49.6130   -4.2930 C   0  0  0  0  0  0  0  0  0  0  0  0
   30.1570   50.1710   -3.0260 C   0  0  0  0  0  0  0  0  0  0  0  0
   29.9530   51.5080   -2.8380 C   0  0  0  0  0  0  0  0  0  0  0  0
   29.7090   52.3330   -3.9210 C   0  0  0  0  0  0  0  0  0  0  0  0
   29.5150   53.7750   -3.9260 O   0  0  0  0  0  0  0  0  0  0  0  0
   29.6830   54.1470   -5.3030 C   0  0  0  0  0  0  0  0  0  0  0  0
   29.3320   52.9470   -6.1150 C   0  0  0  0  0  0  0  0  0  0  0  0
   29.6150   51.8060   -5.2070 C   0  0  0  0  0  0  0  0  0  0  0  0
   29.8000   50.4000   -5.4080 C   0  0  0  0  0  0  0  0  0  0  0  0
  1  2  1  0
  2  3  2  0
  2  4  1  0
  4  5  2  0
  5  6  1  0
  6  7  2  0
  7  8  1  0
  8  9  1  0
  9 10  1  0
  7 11  1  0
 10 11  1  0
  4 12  1  0
 11 12  2  0
M  END
