mac-x0116-mac-x0436
     RDKit          3D

 33 37  0  0  0  0  0  0  0  0999 V2000
   29.1750   53.3170   -6.2440 C   0  0  0  0  0  0  0  0  0  0  0  0
   28.6140   52.0580   -6.7470 N   0  0  0  0  0  0  0  0  0  0  0  0
   29.1550   50.8900   -6.1800 C   0  0  0  0  0  0  0  0  0  0  0  0
   30.4910   53.7730   -6.8110 C   0  0  0  0  0  0  0  0  0  0  0  0
   31.6130   53.3760   -6.1340 O   0  0  0  0  0  0  0  0  0  0  0  0
   30.8600   54.5370   -7.9020 C   0  0  0  0  0  0  0  0  0  0  0  0
   32.2750   54.6080   -7.8890 C   0  0  0  0  0  0  0  0  0  0  0  0
   32.6840   53.8860   -6.7940 C   0  0  0  0  0  0  0  0  0  0  0  0
   29.5150   50.8310   -4.8750 N   0  0  0  0  0  0  0  0  0  0  0  0
   29.3430   49.7350   -6.9620 C   0  0  0  0  0  0  0  0  0  0  0  0
   30.0350   49.6760   -4.4030 C   0  0  0  0  0  0  0  0  0  0  0  0
   29.8980   48.6120   -6.3550 C   0  0  0  0  0  0  0  0  0  0  0  0
   29.0680   49.5010   -8.2880 N   0  0  0  0  0  0  0  0  0  0  0  0
   30.2670   48.5130   -5.0640 N   0  0  0  0  0  0  0  0  0  0  0  0
   29.9680   47.6810   -7.3840 N   0  0  0  0  0  0  0  0  0  0  0  0
   29.4530   48.2710   -8.4990 C   0  0  0  0  0  0  0  0  0  0  0  0
   30.4720   46.3090   -7.4200 C   0  0  0  0  0  0  0  0  0  0  0  0
   30.9010   45.6260   -6.2120 N   0  0  0  0  0  0  0  0  0  0  0  0
   32.1160   45.2690   -5.9830 C   0  0  0  0  0  0  0  0  0  0  0  0
   33.0710   45.5630   -6.8920 O   0  0  0  0  0  0  0  0  0  0  0  0
   32.6200   44.5270   -4.7820 C   0  0  0  0  0  0  0  0  0  0  0  0
   32.5730   45.3830   -3.5290 C   0  0  0  0  0  0  0  0  0  0  0  0
   33.9280   45.9960   -3.2940 C   0  0  0  0  0  0  0  0  0  0  0  0
   34.0640   47.4980   -3.5310 C   0  0  0  0  0  0  0  0  0  0  0  0
   34.9130   45.2420   -2.9120 N   0  0  0  0  0  0  0  0  0  0  0  0
   33.0980   48.1720   -3.8410 O   0  0  0  0  0  0  0  0  0  0  0  0
   35.3220   48.0130   -3.3780 N   0  0  0  0  0  0  0  0  0  0  0  0
   36.1630   45.8470   -2.7180 C   0  0  0  0  0  0  0  0  0  0  0  0
   36.3810   47.2130   -2.9450 C   0  0  0  0  0  0  0  0  0  0  0  0
   37.2250   45.0560   -2.2880 C   0  0  0  0  0  0  0  0  0  0  0  0
   38.4870   45.6190   -2.0850 C   0  0  0  0  0  0  0  0  0  0  0  0
   37.6360   47.7840   -2.7450 C   0  0  0  0  0  0  0  0  0  0  0  0
   38.6900   46.9800   -2.3140 C   0  0  0  0  0  0  0  0  0  0  0  0
  1  2  1  0
  2  3  1  0
  1  4  1  0
  4  5  1  0
  4  6  2  0
  6  7  1  0
  5  8  1  0
  7  8  2  0
  3  9  2  0
  3 10  1  0
  9 11  1  0
 10 12  2  0
 10 13  1  0
 11 14  2  0
 12 14  1  0
 12 15  1  0
 13 16  2  0
 15 16  1  0
 15 17  1  0
 17 18  1  0
 18 19  2  3
 19 20  1  0
 19 21  1  0
 21 22  1  0
 22 23  1  0
 23 24  1  0
 23 25  2  0
 24 26  2  0
 24 27  1  0
 25 28  1  0
 27 29  1  0
 28 29  2  0
 28 30  1  0
 30 31  2  0
 29 32  1  0
 31 33  1  0
 32 33  2  0
M  END
