mac-x0385-mac-x0284
     RDKit          3D

 12 12  0  0  0  0  0  0  0  0999 V2000
   29.5530   51.5510   -2.5860 C   0  0  0  0  0  0  0  0  0  0  0  0
   29.4360   50.4430   -3.5760 C   0  0  0  0  0  0  0  0  0  0  0  0
   29.8830   49.1660   -3.3160 C   0  0  0  0  0  0  0  0  0  0  0  0
   28.8760   50.5990   -4.8290 C   0  0  0  0  0  0  0  0  0  0  0  0
   28.3760   51.8310   -5.2500 N   0  0  0  0  0  0  0  0  0  0  0  0
   30.4600   48.8590   -2.1240 O   0  0  0  0  0  0  0  0  0  0  0  0
   28.7720   49.5980   -5.7180 N   0  0  0  0  0  0  0  0  0  0  0  0
   29.8150   48.1230   -4.1470 N   0  0  0  0  0  0  0  0  0  0  0  0
   29.2500   48.3950   -5.3330 C   0  0  0  0  0  0  0  0  0  0  0  0
   29.1470   47.2860   -6.2850 C   0  0  0  0  0  0  0  0  0  0  0  0
   29.7580   46.0950   -6.1990 C   0  0  0  0  0  0  0  0  0  0  0  0
   30.5990   45.6910   -5.1970 O   0  0  0  0  0  0  0  0  0  0  0  0
  1  2  1  0
  2  3  2  0
  2  4  1  0
  4  5  1  0
  3  6  1  0
  4  7  2  0
  3  8  1  0
  7  9  1  0
  8  9  2  0
  9 10  1  0
 10 11  2  3
 11 12  1  0
M  END
