mac-x0302-mac-x0453
     RDKit          3D

 16 16  0  0  0  0  0  0  0  0999 V2000
   30.7270   44.6990   -4.6060 O   0  0  0  0  0  0  0  0  0  0  0  0
   30.8550   45.9400   -5.1100 C   0  0  0  0  0  0  0  0  0  0  0  0
   31.0460   46.1140   -6.3050 O   0  0  0  0  0  0  0  0  0  0  0  0
   30.7340   47.0270   -4.0540 C   0  0  0  0  0  0  0  0  0  0  0  0
   29.8260   48.0680   -4.5090 N   0  0  0  0  0  0  0  0  0  0  0  0
   29.5810   49.1790   -3.7310 C   0  0  0  0  0  0  0  0  0  0  0  0
   29.3710   49.1130   -2.5240 O   0  0  0  0  0  0  0  0  0  0  0  0
   29.5850   50.4960   -4.4270 C   0  0  0  0  0  0  0  0  0  0  0  0
   29.8090   51.6980   -3.7440 C   0  0  0  0  0  0  0  0  0  0  0  0
   29.3550   50.5190   -5.8080 C   0  0  0  0  0  0  0  0  0  0  0  0
   29.8030   52.9070   -4.4450 C   0  0  0  0  0  0  0  0  0  0  0  0
   29.3520   51.7350   -6.4980 C   0  0  0  0  0  0  0  0  0  0  0  0
   30.0230   54.0790   -3.7770 O   0  0  0  0  0  0  0  0  0  0  0  0
   29.5770   52.9470   -5.8290 C   0  0  0  0  0  0  0  0  0  0  0  0
   29.5730   54.2550   -6.5890 C   0  0  0  0  0  0  0  0  0  0  0  0
   28.2230   54.7630   -6.8420 N   0  0  0  0  0  0  0  0  0  0  0  0
  1  2  1  0
  2  3  2  0
  2  4  1  0
  4  5  1  0
  5  6  1  0
  6  7  2  0
  6  8  1  0
  8  9  2  0
  8 10  1  0
  9 11  1  0
 10 12  2  0
 11 13  1  0
 11 14  2  0
 12 14  1  0
 14 15  1  0
 15 16  1  0
M  END
