mac-x0584-mac-x0231
     RDKit          3D

 27 31  0  0  0  0  0  0  0  0999 V2000
   34.7120   44.2240   -5.5770 O   0  0  0  0  0  0  0  0  0  0  0  0
   33.4490   43.8200   -5.3200 C   0  0  0  0  0  0  0  0  0  0  0  0
   32.7990   43.2890   -6.2070 O   0  0  0  0  0  0  0  0  0  0  0  0
   32.9830   44.0810   -3.9170 C   0  0  0  0  0  0  0  0  0  0  0  0
   31.4930   44.1240   -3.7550 C   0  0  0  0  0  0  0  0  0  0  0  0
   30.6050   45.3890   -3.7400 C   0  0  2  0  0  0  0  0  0  0  0  0
   30.8160   43.0190   -3.6080 N   0  0  0  0  0  0  0  0  0  0  0  0
   30.6710   46.1100   -5.0840 C   0  0  2  0  0  0  0  0  0  0  0  0
   30.9810   46.4980   -2.7720 C   0  0  0  0  0  0  0  0  0  0  0  0
   29.2990   44.7330   -3.3470 C   0  0  0  0  0  0  0  0  0  0  0  0
   29.5100   43.3730   -3.4860 N   0  0  0  0  0  0  0  0  0  0  0  0
   28.2620   45.2560   -2.9750 O   0  0  0  0  0  0  0  0  0  0  0  0
   31.9830   46.6880   -5.6520 C   0  0  0  0  0  0  0  0  0  0  0  0
   29.8590   47.3000   -4.7370 N   0  0  0  0  0  0  0  0  0  0  0  0
   30.2920   47.7290   -3.3930 C   0  0  0  0  0  0  0  0  0  0  0  0
   33.3370   46.7590   -4.8980 C   0  0  0  0  0  0  0  0  0  0  0  0
   32.7360   46.0700   -6.8570 C   0  0  0  0  0  0  0  0  0  0  0  0
   29.3380   48.1280   -5.7350 C   0  0  0  0  0  0  0  0  0  0  0  0
   34.0420   46.6440   -6.2640 C   0  0  0  0  0  0  0  0  0  0  0  0
   28.9190   47.5460   -6.9250 N   0  0  0  0  0  0  0  0  0  0  0  0
   29.1930   49.4660   -5.6830 C   0  0  0  0  0  0  0  0  0  0  0  0
   28.4080   48.2690   -7.9650 C   0  0  0  0  0  0  0  0  0  0  0  0
   28.6210   50.1880   -6.8540 C   0  0  0  0  0  0  0  0  0  0  0  0
   29.4440   50.5230   -4.7540 C   0  0  0  0  0  0  0  0  0  0  0  0
   28.2370   49.5470   -7.9960 N   0  0  0  0  0  0  0  0  0  0  0  0
   28.5390   51.4730   -6.6530 N   0  0  0  0  0  0  0  0  0  0  0  0
   29.0450   51.6460   -5.3740 C   0  0  0  0  0  0  0  0  0  0  0  0
  1  2  1  0
  2  3  2  0
  2  4  1  0
  4  5  1  0
  6  5  1  0
  5  7  2  0
  6  8  1  0
  6  9  1  1
  6 10  1  0
  7 11  1  0
 10 11  1  0
 10 12  2  0
  8 13  1  1
  8 14  1  0
  9 15  1  0
 14 15  1  0
 13 16  1  0
 13 17  1  0
 14 18  1  0
 16 19  1  0
 17 19  1  0
 18 20  1  0
 18 21  2  0
 20 22  1  0
 21 23  1  0
 21 24  1  0
 22 25  2  0
 23 25  1  0
 23 26  2  0
 24 27  2  0
 26 27  1  0
M  END
