mac-x0361-mac-x0193
     RDKit          3D

 27 28  0  0  0  0  0  0  0  0999 V2000
   28.7160   53.9510   -6.0400 N   0  0  0  0  0  0  0  0  0  0  0  0
   29.3590   53.5900   -4.8870 C   0  0  0  0  0  0  0  0  0  0  0  0
   29.7550   54.4410   -4.1020 O   0  0  0  0  0  0  0  0  0  0  0  0
   29.5570   52.1350   -4.6360 C   0  0  0  0  0  0  0  0  0  0  0  0
   29.4260   51.1790   -5.6490 C   0  0  0  0  0  0  0  0  0  0  0  0
   29.8850   51.7220   -3.3410 C   0  0  0  0  0  0  0  0  0  0  0  0
   29.6210   49.8210   -5.3680 C   0  0  0  0  0  0  0  0  0  0  0  0
   30.0800   50.3650   -3.0660 C   0  0  0  0  0  0  0  0  0  0  0  0
   29.9500   49.4070   -4.0760 C   0  0  0  0  0  0  0  0  0  0  0  0
   30.1660   48.1190   -3.6730 O   0  0  0  0  0  0  0  0  0  0  0  0
   30.9770   47.2800   -4.4950 C   0  0  0  0  0  0  0  0  0  0  0  0
   30.3340   45.9050   -4.6560 C   0  0  0  0  0  0  0  0  0  0  0  0
   30.7110   45.2510   -5.9840 C   0  0  0  0  0  0  0  0  0  0  0  0
   32.0690   45.6460   -6.3410 N   0  0  0  0  0  0  0  0  0  0  0  0
   33.0830   45.2030   -5.6920 C   0  0  0  0  0  0  0  0  0  0  0  0
   34.2780   45.6380   -6.1180 O   0  0  0  0  0  0  0  0  0  0  0  0
   33.1550   44.2610   -4.5080 C   0  0  0  0  0  0  0  0  0  0  0  0
   34.5250   44.1870   -4.0370 N   0  0  0  0  0  0  0  0  0  0  0  0
   34.8710   43.4360   -2.9450 C   0  0  0  0  0  0  0  0  0  0  0  0
   34.1960   42.5140   -2.5060 O   0  0  0  0  0  0  0  0  0  0  0  0
   36.0680   43.8430   -2.4070 N   0  0  0  0  0  0  0  0  0  0  0  0
   36.9320   42.8890   -1.7150 C   0  0  0  0  0  0  0  0  0  0  0  0
   38.0780   42.4110   -2.6280 C   0  0  0  0  0  0  0  0  0  0  0  0
   37.4890   43.5030   -0.4280 C   0  0  0  0  0  0  0  0  0  0  0  0
   39.0770   41.4820   -1.9320 C   0  0  0  0  0  0  0  0  0  0  0  0
   38.4830   42.5720    0.2690 C   0  0  0  0  0  0  0  0  0  0  0  0
   39.6120   42.0920   -0.6450 C   0  0  0  0  0  0  0  0  0  0  0  0
  1  2  1  0
  2  3  2  0
  2  4  1  0
  4  5  2  0
  4  6  1  0
  5  7  1  0
  6  8  2  0
  7  9  2  0
  8  9  1  0
  9 10  1  0
 10 11  1  0
 11 12  1  0
 12 13  1  0
 13 14  1  0
 14 15  2  3
 15 16  1  0
 15 17  1  0
 17 18  1  0
 18 19  1  0
 19 20  2  0
 19 21  1  0
 21 22  1  0
 22 23  1  0
 22 24  1  0
 23 25  1  0
 24 26  1  0
 25 27  1  0
 26 27  1  0
M  END
