mac-x0321-mac-x0510
     RDKit          3D

 14 15  0  0  0  0  0  0  0  0999 V2000
   28.4080   52.1530   -7.0000 Cl  0  0  0  0  0  0  0  0  0  0  0  0
   28.3660   51.1370   -5.5270 C   0  0  1  0  0  0  0  0  0  0  0  0
   29.1410   49.7640   -5.6750 C   0  0  1  0  0  0  0  0  0  0  0  0
   28.8190   52.0150   -4.3740 C   0  0  0  0  0  0  0  0  0  0  0  0
   29.6990   49.2700   -4.3060 C   0  0  1  0  0  0  0  0  0  0  0  0
   29.7390   51.6660   -3.4710 C   0  0  0  0  0  0  0  0  0  0  0  0
   28.2410   48.6320   -6.1330 N   0  0  0  0  0  0  0  0  0  0  0  0
   30.0970   49.7740   -6.8720 C   0  0  0  0  0  0  0  0  0  0  0  0
   30.5100   47.9880   -4.3690 C   0  0  0  0  0  0  0  0  0  0  0  0
   30.4420   50.3480   -3.4980 C   0  0  0  0  0  0  0  0  0  0  0  0
   29.2700   49.4140   -8.0280 N   0  0  0  0  0  0  0  0  0  0  0  0
   28.5190   48.3000   -7.5210 C   0  0  0  0  0  0  0  0  0  0  0  0
   30.3410   47.2920   -5.5140 O   0  0  0  0  0  0  0  0  0  0  0  0
   31.2510   47.5890   -3.4840 O   0  0  0  0  0  0  0  0  0  0  0  0
  2  1  1  6
  2  3  1  0
  2  4  1  0
  3  5  1  0
  4  6  2  0
  3  7  1  0
  3  8  1  6
  5  9  1  6
  5 10  1  0
  6 10  1  0
  8 11  1  0
  7 12  1  0
 11 12  1  0
  9 13  1  0
  9 14  2  0
M  END
