mac-x0193-mac-x0255
     RDKit          3D

 24 26  0  0  0  0  0  0  0  0999 V2000
   33.4660   46.2270   -5.9270 O   0  0  0  0  0  0  0  0  0  0  0  0
   32.7520   45.0240   -5.6390 C   0  0  1  0  0  0  0  0  0  0  0  0
   32.1900   44.5200   -6.8710 O   0  0  0  0  0  0  0  0  0  0  0  0
   33.7710   44.0130   -5.0840 C   0  0  0  0  0  0  0  0  0  0  0  0
   31.6200   45.2440   -4.6570 C   0  0  0  0  0  0  0  0  0  0  0  0
   34.5370   44.4810   -3.9310 N   0  0  0  0  0  0  0  0  0  0  0  0
   31.6410   45.6640   -7.6150 O   0  0  0  0  0  0  0  0  0  0  0  0
   30.5310   44.4240   -4.3770 C   0  0  0  0  0  0  0  0  0  0  0  0
   31.5730   46.6540   -3.6950 S   0  0  0  0  0  0  0  0  0  0  0  0
   34.9180   43.5980   -2.9620 C   0  0  0  0  0  0  0  0  0  0  0  0
   29.6590   44.9540   -3.3690 C   0  0  0  0  0  0  0  0  0  0  0  0
   30.1230   46.1870   -2.9070 C   0  0  0  0  0  0  0  0  0  0  0  0
   34.2930   42.5920   -2.6680 O   0  0  0  0  0  0  0  0  0  0  0  0
   36.0880   43.9840   -2.3630 N   0  0  0  0  0  0  0  0  0  0  0  0
   28.4630   44.4400   -2.8030 C   0  0  0  0  0  0  0  0  0  0  0  0
   29.4470   46.9110   -1.9150 C   0  0  0  0  0  0  0  0  0  0  0  0
   36.9220   42.9810   -1.7170 C   0  0  0  0  0  0  0  0  0  0  0  0
   27.7860   45.1590   -1.8150 C   0  0  0  0  0  0  0  0  0  0  0  0
   28.2730   46.3810   -1.3760 C   0  0  0  0  0  0  0  0  0  0  0  0
   38.0240   42.4890   -2.6540 C   0  0  0  0  0  0  0  0  0  0  0  0
   37.5070   43.5110   -0.3970 C   0  0  0  0  0  0  0  0  0  0  0  0
   38.9640   41.4940   -1.9720 C   0  0  0  0  0  0  0  0  0  0  0  0
   38.4440   42.5180    0.2950 C   0  0  0  0  0  0  0  0  0  0  0  0
   39.5270   41.9940   -0.6390 C   0  0  0  0  0  0  0  0  0  0  0  0
  2  1  1  6
  2  3  1  0
  2  4  1  0
  2  5  1  0
  4  6  1  0
  3  7  1  0
  5  8  2  0
  5  9  1  0
  6 10  1  0
  8 11  1  0
  9 12  1  0
 11 12  2  0
 10 13  2  0
 10 14  1  0
 11 15  1  0
 12 16  1  0
 14 17  1  0
 15 18  2  0
 16 19  2  0
 18 19  1  0
 17 20  1  0
 17 21  1  0
 20 22  1  0
 21 23  1  0
 22 24  1  0
 23 24  1  0
M  END
