mac-x0392-mac-x0213
     RDKit          3D

 21 23  0  0  0  0  0  0  0  0999 V2000
   29.1720   48.0140   -8.8500 N   0  0  0  0  0  0  0  0  0  0  0  0
   29.1180   48.8840   -7.7490 C   0  0  0  0  0  0  0  0  0  0  0  0
   28.1980   49.9340   -7.7350 C   0  0  0  0  0  0  0  0  0  0  0  0
   29.9510   48.7730   -6.6220 C   0  0  0  0  0  0  0  0  0  0  0  0
   30.9790   47.6840   -6.5250 C   0  0  0  0  0  0  0  0  0  0  0  0
   29.8240   49.6910   -5.5680 C   0  0  0  0  0  0  0  0  0  0  0  0
   28.0550   50.8350   -6.7300 N   0  0  0  0  0  0  0  0  0  0  0  0
   31.9780   47.7110   -7.2360 O   0  0  0  0  0  0  0  0  0  0  0  0
   30.7160   46.6900   -5.6140 N   0  0  0  0  0  0  0  0  0  0  0  0
   28.8740   50.6890   -5.6680 C   0  0  0  0  0  0  0  0  0  0  0  0
   31.6550   46.2910   -4.8330 C   0  0  0  0  0  0  0  0  0  0  0  0
   32.8440   46.8990   -4.9910 O   0  0  0  0  0  0  0  0  0  0  0  0
   31.6370   45.2370   -3.7520 C   0  0  0  0  0  0  0  0  0  0  0  0
   31.7640   45.8070   -2.3230 C   0  0  0  0  0  0  0  0  0  0  0  0
   30.3240   44.4340   -3.7890 C   0  0  0  0  0  0  0  0  0  0  0  0
   30.3330   45.8860   -1.8950 C   0  0  0  0  0  0  0  0  0  0  0  0
   29.5170   45.1090   -2.7270 C   0  0  0  0  0  0  0  0  0  0  0  0
   29.7970   46.6030   -0.8370 C   0  0  0  0  0  0  0  0  0  0  0  0
   28.1510   45.0330   -2.5170 C   0  0  0  0  0  0  0  0  0  0  0  0
   28.4180   46.5320   -0.6200 C   0  0  0  0  0  0  0  0  0  0  0  0
   27.6020   45.7520   -1.4510 C   0  0  0  0  0  0  0  0  0  0  0  0
  1  2  1  0
  2  3  2  0
  2  4  1  0
  4  5  1  0
  4  6  2  0
  3  7  1  0
  5  8  2  0
  5  9  1  0
  6 10  1  0
  7 10  2  0
  9 11  2  3
 11 12  1  0
 11 13  1  0
 13 14  1  0
 13 15  1  0
 14 16  1  0
 15 17  1  0
 16 17  2  0
 16 18  1  0
 17 19  1  0
 18 20  2  0
 19 21  2  0
 20 21  1  0
M  END
