mac-x0564-mac-x0231
     RDKit          3D

 22 26  0  0  0  0  0  0  0  0999 V2000
   31.5510   46.4840   -6.6770 N   0  0  0  0  0  0  0  0  0  0  0  0
   32.5860   45.4710   -6.3830 C   0  0  1  0  0  0  0  0  0  0  0  0
   33.8540   45.9840   -6.7350 O   0  0  0  0  0  0  0  0  0  0  0  0
   30.4090   46.6360   -5.7500 C   0  0  2  0  0  0  0  0  0  0  0  0
   32.6740   44.8810   -4.9720 C   0  0  0  0  0  0  0  0  0  0  0  0
   30.1400   48.0010   -5.2790 C   0  0  0  0  0  0  0  0  0  0  0  0
   30.5450   46.0260   -4.2640 C   0  0  2  0  0  0  0  0  0  0  0  0
   30.6050   48.2800   -4.0360 C   0  0  0  0  0  0  0  0  0  0  0  0
   31.2470   47.1820   -3.5280 N   0  0  0  0  0  0  0  0  0  0  0  0
   29.5000   49.0190   -5.8640 O   0  0  0  0  0  0  0  0  0  0  0  0
   31.2540   44.6630   -4.4970 C   0  0  2  0  0  0  0  0  0  0  0  0
   29.1830   45.8960   -3.5980 C   0  0  0  0  0  0  0  0  0  0  0  0
   29.5490   50.0250   -4.9200 C   0  0  0  0  0  0  0  0  0  0  0  0
   30.2300   49.6090   -3.7520 C   0  0  0  0  0  0  0  0  0  0  0  0
   28.9240   44.6090   -2.8710 C   0  0  0  0  0  0  0  0  0  0  0  0
   31.1120   43.7350   -3.3820 N   0  0  0  0  0  0  0  0  0  0  0  0
   27.9930   44.5180   -2.0780 O   0  0  0  0  0  0  0  0  0  0  0  0
   30.3560   50.5270   -2.6950 C   0  0  0  0  0  0  0  0  0  0  0  0
   28.9980   51.2970   -5.0860 C   0  0  0  0  0  0  0  0  0  0  0  0
   29.7480   43.5510   -3.1170 N   0  0  0  0  0  0  0  0  0  0  0  0
   29.8020   51.8130   -2.8480 C   0  0  0  0  0  0  0  0  0  0  0  0
   29.1390   52.1880   -4.0200 C   0  0  0  0  0  0  0  0  0  0  0  0
  1  2  1  0
  2  3  1  1
  4  1  1  6
  2  5  1  0
  4  6  1  0
  4  7  1  0
  6  8  2  0
  7  9  1  0
  8  9  1  0
  6 10  1  0
 11  5  1  1
  7 11  1  0
  7 12  1  1
 10 13  1  0
  8 14  1  0
 13 14  2  0
 12 15  1  0
 11 16  1  0
 15 17  2  0
 14 18  1  0
 13 19  1  0
 15 20  1  0
 16 20  1  0
 18 21  2  0
 19 22  2  0
 21 22  1  0
M  END
