mac-x0116-mac-x0213
     RDKit          3D

 29 33  0  0  0  0  0  0  0  0999 V2000
   29.1950   53.7940   -6.6040 C   0  0  0  0  0  0  0  0  0  0  0  0
   28.7700   52.5220   -7.1760 N   0  0  0  0  0  0  0  0  0  0  0  0
   29.2550   51.3670   -6.5540 C   0  0  0  0  0  0  0  0  0  0  0  0
   30.4260   54.3920   -7.2070 C   0  0  0  0  0  0  0  0  0  0  0  0
   31.3890   54.8220   -6.3380 O   0  0  0  0  0  0  0  0  0  0  0  0
   30.8320   54.6200   -8.5090 C   0  0  0  0  0  0  0  0  0  0  0  0
   32.1120   55.2210   -8.4320 C   0  0  0  0  0  0  0  0  0  0  0  0
   32.4060   55.3220   -7.0900 C   0  0  0  0  0  0  0  0  0  0  0  0
   29.3920   51.3030   -5.1980 N   0  0  0  0  0  0  0  0  0  0  0  0
   29.6190   50.2250   -7.3030 C   0  0  0  0  0  0  0  0  0  0  0  0
   29.8660   50.1650   -4.6460 C   0  0  0  0  0  0  0  0  0  0  0  0
   30.0910   49.1300   -6.5960 C   0  0  0  0  0  0  0  0  0  0  0  0
   29.6020   49.9610   -8.6610 N   0  0  0  0  0  0  0  0  0  0  0  0
   30.2430   49.0280   -5.2640 N   0  0  0  0  0  0  0  0  0  0  0  0
   30.3660   48.1840   -7.5520 N   0  0  0  0  0  0  0  0  0  0  0  0
   30.0560   48.7280   -8.7700 C   0  0  0  0  0  0  0  0  0  0  0  0
   30.8930   46.8480   -7.2910 C   0  0  0  0  0  0  0  0  0  0  0  0
   30.6540   46.3730   -5.9230 N   0  0  0  0  0  0  0  0  0  0  0  0
   31.4850   45.5060   -5.4680 C   0  0  0  0  0  0  0  0  0  0  0  0
   32.5200   45.0520   -6.2060 O   0  0  0  0  0  0  0  0  0  0  0  0
   31.3950   44.9080   -4.0750 C   0  0  0  0  0  0  0  0  0  0  0  0
   31.4550   46.0430   -3.0260 C   0  0  0  0  0  0  0  0  0  0  0  0
   30.0970   44.0990   -3.8500 C   0  0  0  0  0  0  0  0  0  0  0  0
   30.3040   45.7470   -2.1170 C   0  0  0  0  0  0  0  0  0  0  0  0
   29.5470   44.6650   -2.5740 C   0  0  0  0  0  0  0  0  0  0  0  0
   29.9640   46.4150   -0.9490 C   0  0  0  0  0  0  0  0  0  0  0  0
   28.4330   44.2280   -1.8740 C   0  0  0  0  0  0  0  0  0  0  0  0
   28.8430   45.9810   -0.2380 C   0  0  0  0  0  0  0  0  0  0  0  0
   28.0820   44.8950   -0.6980 C   0  0  0  0  0  0  0  0  0  0  0  0
  1  2  1  0
  2  3  1  0
  1  4  1  0
  4  5  1  0
  4  6  2  0
  6  7  1  0
  5  8  1  0
  7  8  2  0
  3  9  2  0
  3 10  1  0
  9 11  1  0
 10 12  2  0
 10 13  1  0
 11 14  2  0
 12 14  1  0
 12 15  1  0
 13 16  2  0
 15 16  1  0
 15 17  1  0
 17 18  1  0
 18 19  2  3
 19 20  1  0
 19 21  1  0
 21 22  1  0
 21 23  1  0
 22 24  1  0
 23 25  1  0
 24 25  2  0
 24 26  1  0
 25 27  1  0
 26 28  2  0
 27 29  2  0
 28 29  1  0
M  END
