mac-x0453-mac-x0139
     RDKit          3D

 23 25  0  0  0  0  0  0  0  0999 V2000
   28.9620   54.4620   -7.0650 N   0  0  0  0  0  0  0  0  0  0  0  0
   29.3340   53.7160   -5.8590 C   0  0  0  0  0  0  0  0  0  0  0  0
   28.5440   52.3980   -5.7000 C   0  0  0  0  0  0  0  0  0  0  0  0
   29.4000   51.2150   -5.2050 C   0  0  2  0  0  0  0  0  0  0  0  0
   30.0940   50.1890   -6.0900 C   0  0  1  0  0  0  0  0  0  0  0  0
   29.1140   50.5160   -3.9700 N   0  0  0  0  0  0  0  0  0  0  0  0
   31.1260   49.8890   -5.0840 N   0  0  0  0  0  0  0  0  0  0  0  0
   30.4270   49.8810   -3.7750 C   0  0  0  0  0  0  0  0  0  0  0  0
   29.5160   48.9660   -6.7720 C   0  0  0  0  0  0  0  0  0  0  0  0
   30.4150   50.8960   -7.4170 C   0  0  0  0  0  0  0  0  0  0  0  0
   29.4650   47.6040   -6.5340 C   0  0  0  0  0  0  0  0  0  0  0  0
   28.9320   49.4060   -7.9500 C   0  0  0  0  0  0  0  0  0  0  0  0
   29.1080   50.8000   -8.0910 N   0  0  0  0  0  0  0  0  0  0  0  0
   30.0820   47.0050   -5.3730 N   0  0  0  0  0  0  0  0  0  0  0  0
   28.3110   48.6520   -8.8460 N   0  0  0  0  0  0  0  0  0  0  0  0
   28.8380   46.7950   -7.4230 N   0  0  0  0  0  0  0  0  0  0  0  0
   29.2460   47.2380   -4.1870 C   0  0  0  0  0  0  0  0  0  0  0  0
   30.3320   45.5580   -5.6830 C   0  0  0  0  0  0  0  0  0  0  0  0
   28.2930   47.3560   -8.5250 C   0  0  0  0  0  0  0  0  0  0  0  0
   31.8090   45.2010   -5.5300 C   0  0  0  0  0  0  0  0  0  0  0  0
   32.4670   44.9800   -6.8610 C   0  0  0  0  0  0  0  0  0  0  0  0
   31.8600   44.6760   -7.8800 O   0  0  0  0  0  0  0  0  0  0  0  0
   33.8100   45.1500   -6.8420 O   0  0  0  0  0  0  0  0  0  0  0  0
  1  2  1  0
  2  3  1  0
  4  3  1  6
  4  5  1  0
  4  6  1  0
  5  7  1  0
  6  8  1  0
  7  8  1  0
  5  9  1  0
  5 10  1  6
  9 11  2  0
  9 12  1  0
 10 13  1  0
 12 13  1  0
 11 14  1  0
 12 15  2  0
 11 16  1  0
 14 17  1  0
 14 18  1  0
 15 19  1  0
 16 19  2  0
 18 20  1  0
 20 21  1  0
 21 22  2  0
 21 23  1  0
M  END
