mac-x0360-mac-x0303
     RDKit          3D

 24 26  0  0  0  0  0  0  0  0999 V2000
   30.9840   54.7200   -7.0950 C   0  0  0  0  0  0  0  0  0  0  0  0
   30.1700   55.5590   -5.7370 S   0  0  0  0  0  0  0  0  0  0  0  0
   29.0910   56.3740   -6.2630 O   0  0  0  0  0  0  0  0  0  0  0  0
   31.6680   53.4320   -6.6850 C   0  0  0  0  0  0  0  0  0  0  0  0
   31.1430   56.1330   -4.8240 O   0  0  0  0  0  0  0  0  0  0  0  0
   32.7570   53.4290   -5.7930 C   0  0  0  0  0  0  0  0  0  0  0  0
   31.2190   52.2000   -7.1990 C   0  0  0  0  0  0  0  0  0  0  0  0
   29.3710   54.2960   -4.8040 C   0  0  0  0  0  0  0  0  0  0  0  0
   31.8480   51.0050   -6.8280 C   0  0  0  0  0  0  0  0  0  0  0  0
   33.3770   52.2270   -5.4300 C   0  0  0  0  0  0  0  0  0  0  0  0
   29.8090   53.9200   -3.5610 N   0  0  0  0  0  0  0  0  0  0  0  0
   28.3090   53.5980   -5.1710 N   0  0  0  0  0  0  0  0  0  0  0  0
   34.7090   52.2490   -4.3380 Cl  0  0  0  0  0  0  0  0  0  0  0  0
   31.2740   49.4610   -7.4800 S   0  0  0  0  0  0  0  0  0  0  0  0
   32.9280   51.0110   -5.9420 C   0  0  0  0  0  0  0  0  0  0  0  0
   28.9910   52.9240   -3.1030 C   0  0  0  0  0  0  0  0  0  0  0  0
   28.0640   52.7440   -4.1250 C   0  0  0  0  0  0  0  0  0  0  0  0
   32.7090   48.7150   -7.9310 N   0  0  0  0  0  0  0  0  0  0  0  0
   30.7350   48.6680   -6.4020 O   0  0  0  0  0  0  0  0  0  0  0  0
   30.5570   49.6860   -8.7130 O   0  0  0  0  0  0  0  0  0  0  0  0
   28.9760   52.1880   -1.9170 C   0  0  0  0  0  0  0  0  0  0  0  0
   27.0590   51.7780   -3.9770 C   0  0  0  0  0  0  0  0  0  0  0  0
   27.9660   51.2280   -1.7870 C   0  0  0  0  0  0  0  0  0  0  0  0
   27.0210   51.0240   -2.7970 C   0  0  0  0  0  0  0  0  0  0  0  0
  2  1  1  0
  2  3  2  0
  1  4  1  0
  2  5  2  0
  4  6  2  0
  4  7  1  0
  2  8  1  0
  7  9  2  0
  6 10  1  0
  8 11  1  0
  8 12  2  0
 10 13  1  0
  9 14  1  0
  9 15  1  0
 10 15  2  0
 11 16  1  0
 12 17  1  0
 16 17  2  0
 14 18  1  0
 14 19  2  0
 14 20  2  0
 16 21  1  0
 17 22  1  0
 21 23  2  0
 22 24  2  0
 23 24  1  0
M  END
