mac-x0392-mac-x0380
     RDKit          3D

 23 25  0  0  0  0  0  0  0  0999 V2000
   29.0530   46.8480   -7.2650 N   0  0  0  0  0  0  0  0  0  0  0  0
   29.6070   48.1510   -7.2470 C   0  0  0  0  0  0  0  0  0  0  0  0
   29.7960   48.8670   -8.4360 C   0  0  0  0  0  0  0  0  0  0  0  0
   29.9840   48.7740   -6.0420 C   0  0  0  0  0  0  0  0  0  0  0  0
   29.8480   48.1560   -4.6530 C   0  0  0  0  0  0  0  0  0  0  0  0
   30.5270   50.0720   -6.1270 C   0  0  0  0  0  0  0  0  0  0  0  0
   30.3140   50.1110   -8.5210 N   0  0  0  0  0  0  0  0  0  0  0  0
   31.0510   47.8020   -3.9920 O   0  0  0  0  0  0  0  0  0  0  0  0
   29.1130   46.9500   -4.8200 O   0  0  0  0  0  0  0  0  0  0  0  0
   29.0700   49.1640   -3.7500 C   0  0  0  0  0  0  0  0  0  0  0  0
   30.6690   50.6860   -7.3580 C   0  0  0  0  0  0  0  0  0  0  0  0
   28.8670   48.9370   -2.5530 O   0  0  0  0  0  0  0  0  0  0  0  0
   28.5660   50.4340   -4.3740 C   0  0  0  0  0  0  0  0  0  0  0  0
   29.0100   51.6610   -3.8490 C   0  0  0  0  0  0  0  0  0  0  0  0
   27.6790   50.4450   -5.4560 C   0  0  0  0  0  0  0  0  0  0  0  0
   28.5730   52.8740   -4.4020 C   0  0  0  0  0  0  0  0  0  0  0  0
   27.2440   51.6540   -6.0090 C   0  0  0  0  0  0  0  0  0  0  0  0
   27.6910   52.8680   -5.4820 C   0  0  0  0  0  0  0  0  0  0  0  0
   29.1570   54.4050   -3.7160 S   0  0  0  0  0  0  0  0  0  0  0  0
   27.2380   54.0560   -6.0640 N   0  0  0  0  0  0  0  0  0  0  0  0
   29.1650   55.3980   -5.2300 C   0  0  0  0  0  0  0  0  0  0  0  0
   27.9280   55.2390   -6.0900 C   0  0  0  0  0  0  0  0  0  0  0  0
   27.5270   56.1500   -6.8200 O   0  0  0  0  0  0  0  0  0  0  0  0
  1  2  1  0
  2  3  2  0
  2  4  1  0
  4  5  1  0
  4  6  2  0
  3  7  1  0
  5  8  1  0
  5  9  1  0
  5 10  1  0
  6 11  1  0
  7 11  2  0
 10 12  2  0
 10 13  1  0
 13 14  2  0
 13 15  1  0
 14 16  1  0
 15 17  2  0
 16 18  2  0
 17 18  1  0
 16 19  1  0
 18 20  1  0
 19 21  1  0
 20 22  1  0
 21 22  1  0
 22 23  2  0
M  END
