mac-x0564-mac-x0306
     RDKit          3D

 18 21  0  0  0  0  0  0  0  0999 V2000
   30.2680   46.3850   -6.7990 O   0  0  0  0  0  0  0  0  0  0  0  0
   30.4810   46.7880   -5.6600 C   0  0  0  0  0  0  0  0  0  0  0  0
   31.0280   45.9760   -4.6670 N   0  0  0  0  0  0  0  0  0  0  0  0
   30.1940   48.1290   -5.1930 C   0  0  0  0  0  0  0  0  0  0  0  0
   30.2140   48.5140   -3.8720 C   0  0  0  0  0  0  0  0  0  0  0  0
   31.0180   46.4040   -3.4410 C   0  0  0  0  0  0  0  0  0  0  0  0
   29.8660   49.1850   -5.9990 O   0  0  0  0  0  0  0  0  0  0  0  0
   30.5250   47.5930   -2.9360 N   0  0  0  0  0  0  0  0  0  0  0  0
   29.6780   50.2440   -5.1570 C   0  0  0  0  0  0  0  0  0  0  0  0
   29.8710   49.8860   -3.8390 C   0  0  0  0  0  0  0  0  0  0  0  0
   29.6970   50.8770   -2.8280 C   0  0  0  0  0  0  0  0  0  0  0  0
   29.3130   51.5840   -5.7090 C   0  0  0  0  0  0  0  0  0  0  0  0
   29.4310   52.1770   -3.1600 C   0  0  0  0  0  0  0  0  0  0  0  0
   29.3220   52.6910   -4.5960 C   0  0  0  0  0  0  0  0  0  0  0  0
   28.1580   53.5980   -4.7920 N   0  0  0  0  0  0  0  0  0  0  0  0
   30.3880   53.7160   -4.7530 N   0  0  0  0  0  0  0  0  0  0  0  0
   29.8830   54.8900   -5.2990 C   0  0  0  0  0  0  0  0  0  0  0  0
   28.5590   54.8180   -5.3320 C   0  0  0  0  0  0  0  0  0  0  0  0
  1  2  2  0
  2  3  1  0
  2  4  1  0
  4  5  2  0
  3  6  2  0
  4  7  1  0
  5  8  1  0
  6  8  1  0
  7  9  1  0
  5 10  1  0
  9 10  2  0
 10 11  1  0
  9 12  1  0
 11 13  2  0
 12 14  1  0
 14 13  1  0
 14 15  1  0
 14 16  1  0
 16 17  1  0
 15 18  1  0
 17 18  2  0
M  END
