mac-x0568-mac-x0436
     RDKit          3D

 28 30  0  0  0  0  0  0  0  0999 V2000
   29.4250   55.7820   -5.3320 C   0  0  0  0  0  0  0  0  0  0  0  0
   29.4820   54.2850   -5.2980 C   0  0  0  0  0  0  0  0  0  0  0  0
   29.1350   53.5460   -6.4280 C   0  0  0  0  0  0  0  0  0  0  0  0
   29.8790   53.7080   -4.1400 N   0  0  0  0  0  0  0  0  0  0  0  0
   29.9350   52.3550   -4.1110 C   0  0  0  0  0  0  0  0  0  0  0  0
   29.2020   52.1540   -6.3670 C   0  0  0  0  0  0  0  0  0  0  0  0
   29.6120   51.5400   -5.1880 C   0  0  0  0  0  0  0  0  0  0  0  0
   29.7080   50.0540   -5.0800 C   0  0  0  0  0  0  0  0  0  0  0  0
   30.3540   49.6100   -4.0650 N   0  0  0  0  0  0  0  0  0  0  0  0
   29.1320   49.2720   -6.0560 N   0  0  0  0  0  0  0  0  0  0  0  0
   30.5430   48.1760   -3.8740 C   0  0  0  0  0  0  0  0  0  0  0  0
   31.5830   47.9400   -2.7670 C   0  0  0  0  0  0  0  0  0  0  0  0
   32.9630   48.2620   -3.1320 N   0  0  0  0  0  0  0  0  0  0  0  0
   33.9110   47.4240   -3.3850 C   0  0  0  0  0  0  0  0  0  0  0  0
   33.8100   45.8900   -3.3920 C   0  0  0  0  0  0  0  0  0  0  0  0
   35.1650   47.9240   -3.6650 N   0  0  0  0  0  0  0  0  0  0  0  0
   32.5050   45.1940   -3.7090 C   0  0  0  0  0  0  0  0  0  0  0  0
   36.2470   47.1880   -3.1180 C   0  0  0  0  0  0  0  0  0  0  0  0
   34.8560   45.1520   -3.1310 N   0  0  0  0  0  0  0  0  0  0  0  0
   32.6120   44.3730   -4.9840 C   0  0  0  0  0  0  0  0  0  0  0  0
   36.0740   45.8100   -2.8590 C   0  0  0  0  0  0  0  0  0  0  0  0
   37.4730   47.8000   -2.8350 C   0  0  0  0  0  0  0  0  0  0  0  0
   32.5280   45.2460   -6.2090 C   0  0  0  0  0  0  0  0  0  0  0  0
   37.1330   45.0700   -2.3220 C   0  0  0  0  0  0  0  0  0  0  0  0
   38.5230   47.0480   -2.2990 C   0  0  0  0  0  0  0  0  0  0  0  0
   33.7270   45.7210   -6.5930 O   0  0  0  0  0  0  0  0  0  0  0  0
   31.5180   45.5260   -6.8320 O   0  0  0  0  0  0  0  0  0  0  0  0
   38.3520   45.6880   -2.0440 C   0  0  0  0  0  0  0  0  0  0  0  0
  1  2  1  0
  2  3  2  0
  2  4  1  0
  4  5  2  0
  3  6  1  0
  5  7  1  0
  6  7  2  0
  7  8  1  0
  8  9  2  3
  8 10  1  0
  9 11  1  0
 11 12  1  0
 12 13  1  0
 13 14  2  3
 14 15  1  0
 14 16  1  0
 15 17  1  0
 16 18  1  0
 15 19  2  0
 17 20  1  0
 18 21  2  0
 19 21  1  0
 18 22  1  0
 20 23  1  0
 21 24  1  0
 22 25  2  0
 23 26  1  0
 23 27  2  0
 24 28  2  0
 25 28  1  0
M  END
