mac-x0306-mac-x0387
     RDKit          3D

 20 23  0  0  0  0  0  0  0  0999 V2000
   27.9710   50.7160   -8.3970 N   0  0  0  0  0  0  0  0  0  0  0  0
   28.8080   49.5900   -8.0180 C   0  0  2  0  0  0  0  0  0  0  0  0
   28.4550   48.4220   -8.7950 N   0  0  0  0  0  0  0  0  0  0  0  0
   28.7880   49.2710   -6.4710 C   0  0  2  0  0  0  0  0  0  0  0  0
   29.8640   50.1090   -5.7240 C   0  0  2  0  0  0  0  0  0  0  0  0
   28.9160   47.7300   -6.1480 C   0  0  1  0  0  0  0  0  0  0  0  0
   29.0520   47.2300   -8.5490 C   0  0  0  0  0  0  0  0  0  0  0  0
   30.0290   49.6640   -4.3180 N   0  0  0  0  0  0  0  0  0  0  0  0
   29.7040   51.6420   -5.8660 C   0  0  0  0  0  0  0  0  0  0  0  0
   29.2970   46.8470   -7.3070 C   0  0  0  0  0  0  0  0  0  0  0  0
   29.7500   47.3690   -4.9330 C   0  0  0  0  0  0  0  0  0  0  0  0
   30.2670   50.5820   -3.3180 C   0  0  0  0  0  0  0  0  0  0  0  0
   29.1660   52.3570   -4.6100 C   0  0  2  0  0  0  0  0  0  0  0  0
   30.2410   48.3170   -4.1190 C   0  0  0  0  0  0  0  0  0  0  0  0
   29.2230   53.8560   -4.7750 C   0  0  0  0  0  0  0  0  0  0  0  0
   29.8900   51.8600   -3.3880 C   0  0  0  0  0  0  0  0  0  0  0  0
   28.5640   54.5070   -5.7950 N   0  0  0  0  0  0  0  0  0  0  0  0
   29.8680   54.7250   -4.0230 N   0  0  0  0  0  0  0  0  0  0  0  0
   29.6210   55.9570   -4.5670 C   0  0  0  0  0  0  0  0  0  0  0  0
   28.8110   55.8440   -5.6700 C   0  0  0  0  0  0  0  0  0  0  0  0
  2  1  1  1
  2  3  1  0
  4  2  1  6
  4  5  1  0
  4  6  1  0
  3  7  1  0
  5  8  1  0
  5  9  1  1
  6 10  1  6
  7 10  2  0
  6 11  1  0
  8 12  1  0
  9 13  1  0
  8 14  1  0
 11 14  2  0
 13 15  1  6
 12 16  2  0
 13 16  1  0
 15 17  1  0
 15 18  2  0
 18 19  1  0
 17 20  1  0
 19 20  2  0
M  END
