mac-x0347-mac-x1494
     RDKit          3D

 16 17  0  0  0  0  0  0  0  0999 V2000
   29.9920   44.9860   -5.1920 O   0  0  0  0  0  0  0  0  0  0  0  0
   30.7240   46.0070   -5.6870 C   0  0  0  0  0  0  0  0  0  0  0  0
   31.4330   45.9240   -6.6740 O   0  0  0  0  0  0  0  0  0  0  0  0
   30.5670   47.2360   -4.9000 C   0  0  0  0  0  0  0  0  0  0  0  0
   30.2090   48.4290   -5.5430 C   0  0  0  0  0  0  0  0  0  0  0  0
   30.7640   47.2540   -3.5290 C   0  0  0  0  0  0  0  0  0  0  0  0
   31.2020   45.8750   -2.6040 Cl  0  0  0  0  0  0  0  0  0  0  0  0
   30.0570   49.6090   -4.8030 C   0  0  0  0  0  0  0  0  0  0  0  0
   30.6260   48.3720   -2.7770 N   0  0  0  0  0  0  0  0  0  0  0  0
   30.2800   49.5110   -3.4270 C   0  0  0  0  0  0  0  0  0  0  0  0
   29.6840   50.8770   -5.4390 C   0  0  0  0  0  0  0  0  0  0  0  0
   28.6250   50.9420   -6.3620 C   0  0  0  0  0  0  0  0  0  0  0  0
   30.3750   52.0640   -5.1450 C   0  0  0  0  0  0  0  0  0  0  0  0
   28.2710   52.1520   -6.9660 C   0  0  0  0  0  0  0  0  0  0  0  0
   30.0240   53.2730   -5.7510 C   0  0  0  0  0  0  0  0  0  0  0  0
   28.9700   53.3160   -6.6610 C   0  0  0  0  0  0  0  0  0  0  0  0
  1  2  1  0
  2  3  2  0
  2  4  1  0
  4  5  2  0
  4  6  1  0
  6  7  1  0
  5  8  1  0
  6  9  2  0
  8 10  2  0
  9 10  1  0
  8 11  1  0
 11 12  2  0
 11 13  1  0
 12 14  1  0
 13 15  2  0
 14 16  2  0
 15 16  1  0
M  END
