mac-x0148-mac-x0228
     RDKit          3D

 30 35  0  0  0  0  0  0  0  0999 V2000
   32.8730   49.6630   -7.3580 O   0  0  0  0  0  0  0  0  0  0  0  0
   32.3170   49.0230   -6.3180 C   0  0  0  0  0  0  0  0  0  0  0  0
   32.4030   47.7340   -6.2170 N   0  0  0  0  0  0  0  0  0  0  0  0
   31.6580   49.9970   -5.4040 C   0  0  0  0  0  0  0  0  0  0  0  0
   31.8210   46.9760   -5.1130 C   0  0  1  0  0  0  0  0  0  0  0  0
   31.0080   51.0770   -6.0240 C   0  0  0  0  0  0  0  0  0  0  0  0
   31.6730   49.8860   -3.9980 C   0  0  0  0  0  0  0  0  0  0  0  0
   32.8710   47.0170   -4.0090 C   0  0  0  0  0  0  0  0  0  0  0  0
   30.4920   47.4060   -4.6240 N   0  0  0  0  0  0  0  0  0  0  0  0
   30.3910   52.0220   -5.2270 C   0  0  0  0  0  0  0  0  0  0  0  0
   31.0390   50.8590   -3.2050 C   0  0  0  0  0  0  0  0  0  0  0  0
   30.0850   46.8790   -3.2850 C   0  0  2  0  0  0  0  0  0  0  0  0
   32.5150   46.0460   -2.9130 C   0  0  0  0  0  0  0  0  0  0  0  0
   29.5330   47.7480   -5.6080 C   0  0  0  0  0  0  0  0  0  0  0  0
   30.4100   51.9130   -3.8460 C   0  0  0  0  0  0  0  0  0  0  0  0
   29.6470   53.2430   -5.6170 C   0  0  0  0  0  0  0  0  0  0  0  0
   29.3210   47.9270   -2.4510 C   0  0  0  0  0  0  0  0  0  0  0  0
   31.1800   46.4270   -2.2840 C   0  0  1  0  0  0  0  0  0  0  0  0
   29.3380   46.8650   -6.6640 N   0  0  0  0  0  0  0  0  0  0  0  0
   28.7590   48.8530   -5.6670 C   0  0  0  0  0  0  0  0  0  0  0  0
   29.7540   52.9370   -3.2090 O   0  0  0  0  0  0  0  0  0  0  0  0
   29.5710   53.9270   -4.2520 C   0  0  0  0  0  0  0  0  0  0  0  0
   31.3360   47.6400   -1.3940 C   0  0  0  0  0  0  0  0  0  0  0  0
   30.0170   48.1290   -1.2060 O   0  0  0  0  0  0  0  0  0  0  0  0
   28.4570   47.0840   -7.6820 C   0  0  0  0  0  0  0  0  0  0  0  0
   27.8140   49.0310   -6.8100 C   0  0  0  0  0  0  0  0  0  0  0  0
   28.5370   50.0400   -4.9030 C   0  0  0  0  0  0  0  0  0  0  0  0
   27.6900   48.1140   -7.8130 N   0  0  0  0  0  0  0  0  0  0  0  0
   27.1410   50.1480   -6.7400 N   0  0  0  0  0  0  0  0  0  0  0  0
   27.6030   50.7350   -5.5720 C   0  0  0  0  0  0  0  0  0  0  0  0
  1  2  1  0
  2  3  2  3
  2  4  1  0
  5  3  1  6
  4  6  2  0
  4  7  1  0
  5  8  1  0
  5  9  1  0
  6 10  1  0
  7 11  2  0
  9 12  1  0
  8 13  1  0
  9 14  1  0
 10 15  2  0
 11 15  1  0
 10 16  1  0
 12 17  1  1
 12 18  1  0
 18 13  1  6
 14 19  1  0
 14 20  2  0
 15 21  1  0
 16 22  1  0
 21 22  1  0
 18 23  1  0
 17 24  1  0
 23 24  1  0
 19 25  1  0
 20 26  1  0
 20 27  1  0
 25 28  2  0
 26 28  1  0
 26 29  2  0
 27 30  2  0
 29 30  1  0
M  END
