mac-x0379-mac-x0358
     RDKit          3D

 20 21  0  0  0  0  0  0  0  0999 V2000
   30.3050   51.7920   -5.1370 C   0  0  0  0  0  0  0  0  0  0  0  0
   29.7320   50.5910   -4.4720 C   0  0  0  0  0  0  0  0  0  0  0  0
   29.1980   50.5910   -3.2720 N   0  0  0  0  0  0  0  0  0  0  0  0
   29.7400   49.0750   -5.2820 S   0  0  0  0  0  0  0  0  0  0  0  0
   28.7660   49.3160   -2.9580 C   0  0  0  0  0  0  0  0  0  0  0  0
   28.9720   48.3490   -3.9270 C   0  0  0  0  0  0  0  0  0  0  0  0
   28.6020   46.8950   -3.8720 C   0  0  1  0  0  0  0  0  0  0  0  0
   28.1570   46.5030   -5.1760 O   0  0  0  0  0  0  0  0  0  0  0  0
   29.7270   45.9430   -3.4170 C   0  0  0  0  0  0  0  0  0  0  0  0
   31.0600   46.5940   -3.0950 C   0  0  0  0  0  0  0  0  0  0  0  0
   32.2850   46.2220   -3.7040 C   0  0  0  0  0  0  0  0  0  0  0  0
   31.0610   47.6210   -2.1300 C   0  0  0  0  0  0  0  0  0  0  0  0
   32.3960   45.1210   -4.7530 C   0  0  0  0  0  0  0  0  0  0  0  0
   33.4550   46.9020   -3.3140 C   0  0  0  0  0  0  0  0  0  0  0  0
   32.2350   48.2760   -1.7650 C   0  0  0  0  0  0  0  0  0  0  0  0
   33.2360   45.4480   -5.9680 C   0  0  0  0  0  0  0  0  0  0  0  0
   34.6440   46.5500   -3.8930 O   0  0  0  0  0  0  0  0  0  0  0  0
   33.4380   47.9160   -2.3590 C   0  0  0  0  0  0  0  0  0  0  0  0
   32.8040   44.8750   -7.1140 O   0  0  0  0  0  0  0  0  0  0  0  0
   34.2320   46.1570   -5.9910 O   0  0  0  0  0  0  0  0  0  0  0  0
  1  2  1  0
  2  3  2  0
  2  4  1  0
  3  5  1  0
  4  6  1  0
  5  6  2  0
  6  7  1  0
  7  8  1  6
  7  9  1  0
  9 10  1  0
 10 11  2  0
 10 12  1  0
 11 13  1  0
 11 14  1  0
 12 15  2  0
 13 16  1  0
 14 17  1  0
 14 18  2  0
 15 18  1  0
 16 19  1  0
 16 20  2  0
M  END
