mac-x0564-mac-x0357
     RDKit          3D

 24 27  0  0  0  0  0  0  0  0999 V2000
   30.8350   45.6350   -5.6510 N   0  0  0  0  0  0  0  0  0  0  0  0
   31.9200   46.3240   -6.0620 C   0  0  0  0  0  0  0  0  0  0  0  0
   31.9800   47.0600   -7.0350 O   0  0  0  0  0  0  0  0  0  0  0  0
   29.9490   46.2930   -5.0010 C   0  0  0  0  0  0  0  0  0  0  0  0
   29.9610   47.7020   -4.7250 C   0  0  0  0  0  0  0  0  0  0  0  0
   28.8530   45.6960   -4.4220 N   0  0  0  0  0  0  0  0  0  0  0  0
   33.0830   46.0790   -5.1560 C   0  0  0  0  0  0  0  0  0  0  0  0
   29.6150   48.1510   -3.4930 C   0  0  0  0  0  0  0  0  0  0  0  0
   28.5960   46.1870   -3.2430 C   0  0  0  0  0  0  0  0  0  0  0  0
   30.2710   48.7390   -5.5530 O   0  0  0  0  0  0  0  0  0  0  0  0
   33.3870   44.7880   -4.6570 C   0  0  0  0  0  0  0  0  0  0  0  0
   33.8720   47.1860   -4.8000 C   0  0  0  0  0  0  0  0  0  0  0  0
   32.5530   43.5880   -5.0240 C   0  0  0  0  0  0  0  0  0  0  0  0
   29.2770   47.2090   -2.5980 N   0  0  0  0  0  0  0  0  0  0  0  0
   30.1020   49.8740   -4.7920 C   0  0  0  0  0  0  0  0  0  0  0  0
   29.6950   49.5500   -3.4890 C   0  0  0  0  0  0  0  0  0  0  0  0
   34.9650   47.0260   -3.9510 C   0  0  0  0  0  0  0  0  0  0  0  0
   34.4910   44.6600   -3.8040 C   0  0  0  0  0  0  0  0  0  0  0  0
   34.8790   43.4650   -3.2600 O   0  0  0  0  0  0  0  0  0  0  0  0
   29.4760   50.5930   -2.5720 C   0  0  0  0  0  0  0  0  0  0  0  0
   30.3000   51.1810   -5.2320 C   0  0  0  0  0  0  0  0  0  0  0  0
   35.2720   45.7620   -3.4530 C   0  0  0  0  0  0  0  0  0  0  0  0
   29.6700   51.9150   -2.9920 C   0  0  0  0  0  0  0  0  0  0  0  0
   30.0750   52.2020   -4.3000 C   0  0  0  0  0  0  0  0  0  0  0  0
  1  2  1  0
  2  3  2  0
  1  4  2  3
  4  5  1  0
  4  6  1  0
  2  7  1  0
  5  8  2  0
  6  9  2  0
  5 10  1  0
  7 11  2  0
  7 12  1  0
 11 13  1  0
  8 14  1  0
  9 14  1  0
 10 15  1  0
  8 16  1  0
 15 16  2  0
 12 17  2  0
 11 18  1  0
 18 19  1  0
 16 20  1  0
 15 21  1  0
 17 22  1  0
 18 22  2  0
 20 23  2  0
 21 24  2  0
 23 24  1  0
M  END
