mac-x0347-mac-x0360
     RDKit          3D

 26 28  0  0  0  0  0  0  0  0999 V2000
   30.4890   44.9710   -4.9450 O   0  0  0  0  0  0  0  0  0  0  0  0
   30.6080   46.1300   -5.6170 C   0  0  0  0  0  0  0  0  0  0  0  0
   30.7940   46.1300   -6.8240 O   0  0  0  0  0  0  0  0  0  0  0  0
   30.4930   47.3260   -4.7400 C   0  0  0  0  0  0  0  0  0  0  0  0
   30.1780   48.6200   -5.1910 C   0  0  0  0  0  0  0  0  0  0  0  0
   30.7050   47.1630   -3.3820 C   0  0  0  0  0  0  0  0  0  0  0  0
   30.0840   49.7160   -4.2830 C   0  0  0  0  0  0  0  0  0  0  0  0
   30.6280   48.1700   -2.4800 N   0  0  0  0  0  0  0  0  0  0  0  0
   30.3240   49.4070   -2.9480 C   0  0  0  0  0  0  0  0  0  0  0  0
   29.7420   51.1080   -4.7110 C   0  0  0  0  0  0  0  0  0  0  0  0
   29.0140   51.3160   -5.8530 C   0  0  0  0  0  0  0  0  0  0  0  0
   30.1200   52.2630   -4.0190 C   0  0  0  0  0  0  0  0  0  0  0  0
   28.6240   52.5450   -6.3540 C   0  0  0  0  0  0  0  0  0  0  0  0
   29.7510   53.5390   -4.4990 C   0  0  0  0  0  0  0  0  0  0  0  0
   28.6910   50.1730   -6.5610 N   0  0  0  0  0  0  0  0  0  0  0  0
   28.9970   53.6790   -5.6680 C   0  0  0  0  0  0  0  0  0  0  0  0
   29.9470   50.0940   -7.3890 S   0  0  0  0  0  0  0  0  0  0  0  0
   29.9100   50.4580   -8.7440 O   0  0  0  0  0  0  0  0  0  0  0  0
   31.2210   51.2120   -6.7520 C   0  0  0  0  0  0  0  0  0  0  0  0
   32.3630   50.7200   -6.0940 C   0  0  0  0  0  0  0  0  0  0  0  0
   31.0660   52.5970   -6.9460 C   0  0  0  0  0  0  0  0  0  0  0  0
   33.3340   51.6310   -5.6520 C   0  0  0  0  0  0  0  0  0  0  0  0
   32.0470   53.4770   -6.4910 C   0  0  0  0  0  0  0  0  0  0  0  0
   31.8580   55.1730   -6.7370 Cl  0  0  0  0  0  0  0  0  0  0  0  0
   34.7560   51.0640   -4.8590 Cl  0  0  0  0  0  0  0  0  0  0  0  0
   33.1820   53.0030   -5.8450 C   0  0  0  0  0  0  0  0  0  0  0  0
  1  2  1  0
  2  3  2  0
  2  4  1  0
  4  5  2  0
  4  6  1  0
  5  7  1  0
  6  8  2  0
  7  9  2  0
  8  9  1  0
  7 10  1  0
 10 11  1  0
 10 12  2  0
 11 13  2  0
 12 14  1  0
 11 15  1  0
 13 16  1  0
 14 16  2  0
 15 17  2  0
 17 18  2  0
 17 19  1  0
 19 20  2  0
 19 21  1  0
 20 22  1  0
 21 23  2  0
 23 24  1  0
 22 25  1  0
 22 26  2  0
 23 26  1  0
M  END
