mac-x0116-mac-x0341
     RDKit          3D

 23 26  0  0  0  0  0  0  0  0999 V2000
   29.8370   53.2350   -7.8990 C   0  0  0  0  0  0  0  0  0  0  0  0
   29.9550   51.7970   -7.5780 N   0  0  0  0  0  0  0  0  0  0  0  0
   29.3250   51.3290   -6.2690 C   0  0  1  0  0  0  0  0  0  0  0  0
   31.1190   53.9690   -8.0060 C   0  0  0  0  0  0  0  0  0  0  0  0
   32.2520   53.2630   -7.7240 O   0  0  0  0  0  0  0  0  0  0  0  0
   31.4470   55.2680   -8.3430 C   0  0  0  0  0  0  0  0  0  0  0  0
   32.8550   55.3540   -8.2610 C   0  0  0  0  0  0  0  0  0  0  0  0
   33.3000   54.1120   -7.8820 C   0  0  0  0  0  0  0  0  0  0  0  0
   29.8730   49.8530   -6.1520 C   0  0  0  0  0  0  0  0  0  0  0  0
   29.8370   52.1760   -5.1000 C   0  0  0  0  0  0  0  0  0  0  0  0
   27.7900   51.5780   -6.2530 C   0  0  0  0  0  0  0  0  0  0  0  0
   30.7120   51.7680   -4.3330 O   0  0  0  0  0  0  0  0  0  0  0  0
   27.0240   50.5950   -6.7360 N   0  0  0  0  0  0  0  0  0  0  0  0
   29.1150   48.5320   -6.1780 C   0  0  0  0  0  0  0  0  0  0  0  0
   31.1200   49.4920   -6.0290 N   0  0  0  0  0  0  0  0  0  0  0  0
   29.2680   53.4150   -4.9410 N   0  0  0  0  0  0  0  0  0  0  0  0
   27.2290   52.6430   -5.7910 N   0  0  0  0  0  0  0  0  0  0  0  0
   27.7240   49.7080   -6.2890 C   0  0  0  0  0  0  0  0  0  0  0  0
   27.8770   48.4300   -6.2640 N   0  0  0  0  0  0  0  0  0  0  0  0
   29.9860   47.4910   -6.0910 N   0  0  0  0  0  0  0  0  0  0  0  0
   31.1300   48.0970   -6.0010 C   0  0  0  0  0  0  0  0  0  0  0  0
   28.0340   53.6050   -5.2800 C   0  0  0  0  0  0  0  0  0  0  0  0
   27.4860   54.8350   -5.1240 N   0  0  0  0  0  0  0  0  0  0  0  0
  1  2  1  0
  3  2  1  6
  1  4  1  0
  4  5  1  0
  4  6  2  0
  6  7  1  0
  5  8  1  0
  7  8  2  0
  3  9  1  0
  3 10  1  0
  3 11  1  0
 10 12  2  0
 11 13  1  0
  9 14  1  0
  9 15  2  0
 10 16  1  0
 11 17  2  0
 13 18  2  0
 14 19  2  0
 18 19  1  0
 14 20  1  0
 15 21  1  0
 20 21  2  0
 16 22  2  0
 17 22  1  0
 22 23  1  0
M  END
