mac-x0338-mac-x0587
     RDKit          3D

 19 19  0  0  0  0  0  0  0  0999 V2000
   28.5810   51.2570   -7.6950 N   0  0  0  0  0  0  0  0  0  0  0  0
   28.9030   51.9450   -6.5690 C   0  0  0  0  0  0  0  0  0  0  0  0
   28.7900   53.1710   -6.5350 O   0  0  0  0  0  0  0  0  0  0  0  0
   29.3900   51.2400   -5.3650 C   0  0  0  0  0  0  0  0  0  0  0  0
   29.5260   49.8300   -5.1940 N   0  0  0  0  0  0  0  0  0  0  0  0
   29.7370   52.0790   -4.3180 C   0  0  0  0  0  0  0  0  0  0  0  0
   29.2380   48.9440   -6.0950 O   0  0  0  0  0  0  0  0  0  0  0  0
   30.0100   49.4140   -3.9420 C   0  0  0  0  0  0  0  0  0  0  0  0
   30.1980   51.6610   -3.1370 N   0  0  0  0  0  0  0  0  0  0  0  0
   30.2430   48.0380   -3.4650 C   0  0  0  0  0  0  0  0  0  0  0  0
   30.3210   50.3470   -2.9800 C   0  0  0  0  0  0  0  0  0  0  0  0
   30.4800   46.7540   -4.2660 C   0  0  2  0  0  0  0  0  0  0  0  0
   30.2600   47.9730   -2.2370 O   0  0  0  0  0  0  0  0  0  0  0  0
   29.2980   45.8000   -4.1330 C   0  0  0  0  0  0  0  0  0  0  0  0
   32.1020   45.9830   -3.8070 S   0  0  0  0  0  0  0  0  0  0  0  0
   33.2270   46.6860   -5.0640 C   0  0  0  0  0  0  0  0  0  0  0  0
   33.2620   45.8610   -6.3300 C   0  0  0  0  0  0  0  0  0  0  0  0
   34.2910   45.5990   -6.9280 O   0  0  0  0  0  0  0  0  0  0  0  0
   32.0500   45.4320   -6.7570 O   0  0  0  0  0  0  0  0  0  0  0  0
  1  2  1  0
  2  3  2  0
  2  4  1  0
  4  5  2  0
  4  6  1  0
  5  7  1  0
  5  8  1  0
  6  9  2  0
  8 10  1  0
  8 11  2  0
  9 11  1  0
 10 12  1  0
 10 13  2  0
 12 14  1  1
 12 15  1  0
 15 16  1  0
 16 17  1  0
 17 18  2  0
 17 19  1  0
M  CHG  2   5   1   7  -1
M  END
