mac-x0496-mac-x0365
     RDKit          3D

 22 23  0  0  0  0  0  0  0  0999 V2000
   24.6080   58.4980   -6.1240 C   0  0  0  0  0  0  0  0  0  0  0  0
   25.9410   58.2490   -5.5480 C   0  0  0  0  0  0  0  0  0  0  0  0
   26.3380   58.7910   -4.3870 N   0  0  0  0  0  0  0  0  0  0  0  0
   26.8690   57.4490   -6.1590 N   0  0  0  0  0  0  0  0  0  0  0  0
   27.6370   58.2960   -4.2310 O   0  0  0  0  0  0  0  0  0  0  0  0
   27.8820   57.5060   -5.3210 C   0  0  0  0  0  0  0  0  0  0  0  0
   29.2130   56.8470   -5.4000 C   0  0  0  0  0  0  0  0  0  0  0  0
   29.0390   55.4350   -5.7010 N   0  0  0  0  0  0  0  0  0  0  0  0
   29.0730   54.4860   -4.7010 C   0  0  0  0  0  0  0  0  0  0  0  0
   29.2010   54.7880   -3.5190 O   0  0  0  0  0  0  0  0  0  0  0  0
   28.9580   53.0490   -5.0750 C   0  0  0  0  0  0  0  0  0  0  0  0
   28.3760   52.7030   -6.3050 C   0  0  0  0  0  0  0  0  0  0  0  0
   29.4150   52.0240   -4.2390 C   0  0  0  0  0  0  0  0  0  0  0  0
   29.9790   52.3110   -3.0430 F   0  0  0  0  0  0  0  0  0  0  0  0
   28.2580   51.3630   -6.6820 C   0  0  0  0  0  0  0  0  0  0  0  0
   29.3120   50.6720   -4.5990 C   0  0  0  0  0  0  0  0  0  0  0  0
   29.8430   49.6300   -3.6420 C   0  0  2  0  0  0  0  0  0  0  0  0
   28.7220   50.3490   -5.8360 C   0  0  0  0  0  0  0  0  0  0  0  0
   29.9770   48.1800   -4.1640 C   0  0  0  0  0  0  0  0  0  0  0  0
   29.1040   49.6220   -2.4100 O   0  0  0  0  0  0  0  0  0  0  0  0
   29.5400   48.0070   -5.4440 O   0  0  0  0  0  0  0  0  0  0  0  0
   30.4400   47.2600   -3.5190 O   0  0  0  0  0  0  0  0  0  0  0  0
  1  2  1  0
  2  3  2  0
  2  4  1  0
  3  5  1  0
  4  6  2  0
  5  6  1  0
  6  7  1  0
  7  8  1  0
  8  9  1  0
  9 10  2  0
  9 11  1  0
 11 12  2  0
 11 13  1  0
 13 14  1  0
 12 15  1  0
 13 16  2  0
 16 17  1  0
 15 18  2  0
 16 18  1  0
 17 19  1  0
 17 20  1  1
 19 21  1  0
 19 22  2  0
M  END
