mac-x0255-mac-x0301
     RDKit          3D

 25 28  0  0  0  0  0  0  0  0999 V2000
   31.7850   44.3480   -7.3260 O   0  0  0  0  0  0  0  0  0  0  0  0
   32.8060   44.7700   -6.5510 C   0  0  0  0  0  0  0  0  0  0  0  0
   33.5880   45.6080   -6.9770 O   0  0  0  0  0  0  0  0  0  0  0  0
   32.8670   44.1040   -5.1950 C   0  0  0  0  0  0  0  0  0  0  0  0
   31.7140   44.4580   -4.2910 C   0  0  0  0  0  0  0  0  0  0  0  0
   30.8170   45.5020   -4.3140 C   0  0  0  0  0  0  0  0  0  0  0  0
   31.3710   43.4490   -2.9530 S   0  0  0  0  0  0  0  0  0  0  0  0
   30.8210   46.4790   -5.2240 O   0  0  0  0  0  0  0  0  0  0  0  0
   29.8480   45.4930   -3.2640 C   0  0  0  0  0  0  0  0  0  0  0  0
   30.0400   44.4080   -2.4280 C   0  0  0  0  0  0  0  0  0  0  0  0
   31.0320   47.7040   -4.6800 C   0  0  0  0  0  0  0  0  0  0  0  0
   28.7850   46.3820   -2.9700 C   0  0  0  0  0  0  0  0  0  0  0  0
   29.2120   44.1890   -1.3130 C   0  0  0  0  0  0  0  0  0  0  0  0
   31.9330   48.0440   -3.9220 O   0  0  0  0  0  0  0  0  0  0  0  0
   27.9570   46.1700   -1.8690 C   0  0  0  0  0  0  0  0  0  0  0  0
   28.1710   45.0810   -1.0460 C   0  0  0  0  0  0  0  0  0  0  0  0
   29.9820   48.6240   -5.1350 C   0  0  0  0  0  0  0  0  0  0  0  0
   29.4130   48.5700   -6.3880 C   0  0  0  0  0  0  0  0  0  0  0  0
   29.5380   49.6150   -4.2420 C   0  0  0  0  0  0  0  0  0  0  0  0
   28.4360   49.4630   -6.7600 C   0  0  0  0  0  0  0  0  0  0  0  0
   28.5390   50.5210   -4.6310 C   0  0  0  0  0  0  0  0  0  0  0  0
   29.6940   47.6950   -7.3980 O   0  0  0  0  0  0  0  0  0  0  0  0
   27.9790   50.4490   -5.9040 C   0  0  0  0  0  0  0  0  0  0  0  0
   27.9960   49.2580   -8.0280 O   0  0  0  0  0  0  0  0  0  0  0  0
   28.6730   48.0310   -8.3520 C   0  0  0  0  0  0  0  0  0  0  0  0
  1  2  1  0
  2  3  2  0
  2  4  1  0
  4  5  1  0
  5  6  2  0
  5  7  1  0
  6  8  1  0
  6  9  1  0
  7 10  1  0
  9 10  2  0
  8 11  1  0
  9 12  1  0
 10 13  1  0
 11 14  2  0
 12 15  2  0
 13 16  2  0
 15 16  1  0
 11 17  1  0
 17 18  1  0
 17 19  2  0
 18 20  2  0
 19 21  1  0
 18 22  1  0
 20 23  1  0
 21 23  2  0
 20 24  1  0
 22 25  1  0
 24 25  1  0
M  END
