mac-x0139-mac-x0333
     RDKit          3D

 25 28  0  0  0  0  0  0  0  0999 V2000
   29.8160   47.9520   -4.2980 C   0  0  0  0  0  0  0  0  0  0  0  0
   29.9990   47.2970   -5.6060 N   0  0  0  0  0  0  0  0  0  0  0  0
   30.6360   45.9580   -5.5730 C   0  0  0  0  0  0  0  0  0  0  0  0
   29.4510   49.4220   -4.4070 C   0  0  0  0  0  0  0  0  0  0  0  0
   29.3860   47.7170   -6.8110 C   0  0  0  0  0  0  0  0  0  0  0  0
   30.3370   50.4070   -3.9280 C   0  0  0  0  0  0  0  0  0  0  0  0
   28.2230   49.8180   -4.9870 C   0  0  0  0  0  0  0  0  0  0  0  0
   32.1610   46.0380   -5.5330 C   0  0  0  0  0  0  0  0  0  0  0  0
   29.5910   48.9420   -7.3580 C   0  0  0  0  0  0  0  0  0  0  0  0
   28.5320   46.7930   -7.4440 N   0  0  0  0  0  0  0  0  0  0  0  0
   29.9690   51.7300   -4.0450 C   0  0  0  0  0  0  0  0  0  0  0  0
   27.8790   51.1720   -5.0910 C   0  0  0  0  0  0  0  0  0  0  0  0
   32.7830   44.9860   -6.4150 C   0  0  0  0  0  0  0  0  0  0  0  0
   28.8980   49.2700   -8.6330 C   0  0  0  0  0  0  0  0  0  0  0  0
   27.9530   47.1320   -8.5540 C   0  0  0  0  0  0  0  0  0  0  0  0
   30.3320   50.1330   -7.0830 C   0  0  0  0  0  0  0  0  0  0  0  0
   28.7710   52.1020   -4.6130 C   0  0  0  0  0  0  0  0  0  0  0  0
   30.6980   52.8050   -3.6390 O   0  0  0  0  0  0  0  0  0  0  0  0
   32.2130   44.0080   -6.8740 O   0  0  0  0  0  0  0  0  0  0  0  0
   34.0930   45.2360   -6.6650 O   0  0  0  0  0  0  0  0  0  0  0  0
   28.0970   48.3290   -9.1800 N   0  0  0  0  0  0  0  0  0  0  0  0
   29.1810   50.4720   -9.0550 N   0  0  0  0  0  0  0  0  0  0  0  0
   30.0510   50.9700   -8.0950 C   0  0  0  0  0  0  0  0  0  0  0  0
   28.6040   53.4520   -4.6310 O   0  0  0  0  0  0  0  0  0  0  0  0
   29.9050   53.8820   -4.1800 C   0  0  0  0  0  0  0  0  0  0  0  0
  1  2  1  0
  2  3  1  0
  1  4  1  0
  2  5  1  0
  4  6  2  0
  4  7  1  0
  3  8  1  0
  5  9  2  0
  5 10  1  0
  6 11  1  0
  7 12  2  0
  8 13  1  0
  9 14  1  0
 10 15  2  0
  9 16  1  0
 11 17  2  0
 12 17  1  0
 11 18  1  0
 13 19  2  0
 13 20  1  0
 14 21  1  0
 15 21  1  0
 14 22  2  0
 16 23  2  0
 22 23  1  0
 17 24  1  0
 18 25  1  0
 24 25  1  0
M  END
