mac-x0255-mac-x0360
     RDKit          3D

 26 28  0  0  0  0  0  0  0  0999 V2000
   31.3530   45.2890   -7.3800 O   0  0  0  0  0  0  0  0  0  0  0  0
   32.5830   45.6410   -6.9460 C   0  0  0  0  0  0  0  0  0  0  0  0
   33.4070   46.0560   -7.7380 O   0  0  0  0  0  0  0  0  0  0  0  0
   32.8360   45.4760   -5.4740 C   0  0  0  0  0  0  0  0  0  0  0  0
   31.6300   45.6150   -4.5790 C   0  0  0  0  0  0  0  0  0  0  0  0
   30.4420   46.3630   -4.6370 C   0  0  0  0  0  0  0  0  0  0  0  0
   31.7050   44.6980   -3.1620 S   0  0  0  0  0  0  0  0  0  0  0  0
   30.0240   47.3640   -5.7150 C   0  0  0  0  0  0  0  0  0  0  0  0
   29.5990   46.0970   -3.4790 C   0  0  0  0  0  0  0  0  0  0  0  0
   30.1880   45.2250   -2.6020 C   0  0  0  0  0  0  0  0  0  0  0  0
   30.4870   48.7040   -5.1790 N   0  0  0  0  0  0  0  0  0  0  0  0
   28.3200   46.5850   -3.1220 C   0  0  0  0  0  0  0  0  0  0  0  0
   29.5680   44.8530   -1.4040 C   0  0  0  0  0  0  0  0  0  0  0  0
   29.7700   50.1760   -5.6850 S   0  0  0  0  0  0  0  0  0  0  0  0
   27.6890   46.2140   -1.9370 C   0  0  0  0  0  0  0  0  0  0  0  0
   28.3170   45.3560   -1.0820 C   0  0  0  0  0  0  0  0  0  0  0  0
   28.9540   50.7140   -4.6170 O   0  0  0  0  0  0  0  0  0  0  0  0
   29.2170   49.9590   -7.0020 O   0  0  0  0  0  0  0  0  0  0  0  0
   31.1570   51.2940   -5.8310 C   0  0  0  0  0  0  0  0  0  0  0  0
   32.4440   50.8480   -5.4930 C   0  0  0  0  0  0  0  0  0  0  0  0
   30.9620   52.6120   -6.2790 C   0  0  0  0  0  0  0  0  0  0  0  0
   33.5250   51.7270   -5.6100 C   0  0  0  0  0  0  0  0  0  0  0  0
   32.0600   53.4710   -6.3860 C   0  0  0  0  0  0  0  0  0  0  0  0
   31.8420   55.0910   -6.9360 Cl  0  0  0  0  0  0  0  0  0  0  0  0
   35.1110   51.1960   -5.2020 Cl  0  0  0  0  0  0  0  0  0  0  0  0
   33.3400   53.0370   -6.0540 C   0  0  0  0  0  0  0  0  0  0  0  0
  1  2  1  0
  2  3  2  0
  2  4  1  0
  4  5  1  0
  5  6  2  0
  5  7  1  0
  6  8  1  0
  6  9  1  0
  7 10  1  0
  9 10  2  0
  8 11  1  0
  9 12  1  0
 10 13  1  0
 14 11  1  0
 12 15  2  0
 13 16  2  0
 15 16  1  0
 14 17  2  0
 14 18  2  0
 14 19  1  0
 19 20  2  0
 19 21  1  0
 20 22  1  0
 21 23  2  0
 23 24  1  0
 22 25  1  0
 22 26  2  0
 23 26  1  0
M  END
