mac-x0379-mac-x1494
     RDKit          3D

 14 15  0  0  0  0  0  0  0  0999 V2000
   30.0550   53.1170   -4.6880 C   0  0  0  0  0  0  0  0  0  0  0  0
   30.4440   51.7870   -4.0490 C   0  0  0  0  0  0  0  0  0  0  0  0
   29.3410   50.7100   -4.1530 C   0  0  1  0  0  0  0  0  0  0  0  0
   28.9560   50.1750   -2.8000 C   0  0  0  0  0  0  0  0  0  0  0  0
   28.3300   51.1390   -5.0620 O   0  0  0  0  0  0  0  0  0  0  0  0
   29.8090   49.4640   -4.8120 C   0  0  0  0  0  0  0  0  0  0  0  0
   29.7840   48.3880   -4.0170 C   0  0  0  0  0  0  0  0  0  0  0  0
   30.2360   49.7890   -6.4190 S   0  0  0  0  0  0  0  0  0  0  0  0
   28.8250   50.9120   -6.3470 C   0  0  0  0  0  0  0  0  0  0  0  0
   29.2370   48.8540   -2.7430 C   0  0  0  0  0  0  0  0  0  0  0  0
   30.1600   46.9720   -4.2420 C   0  0  0  0  0  0  0  0  0  0  0  0
   28.3540   51.4250   -7.3500 O   0  0  0  0  0  0  0  0  0  0  0  0
   31.1150   46.4510   -3.6840 O   0  0  0  0  0  0  0  0  0  0  0  0
   29.3750   46.2990   -5.1050 O   0  0  0  0  0  0  0  0  0  0  0  0
  1  2  1  0
  3  2  1  1
  3  4  1  0
  3  5  1  0
  3  6  1  0
  6  7  2  0
  6  8  1  0
  5  9  1  0
  8  9  1  0
  4 10  2  0
  7 10  1  0
  7 11  1  0
  9 12  2  0
 11 13  2  0
 11 14  1  0
M  END
