mac-x0360-mac-x0347
     RDKit          3D

 26 28  0  0  0  0  0  0  0  0999 V2000
   31.7720   55.2450   -6.9230 Cl  0  0  0  0  0  0  0  0  0  0  0  0
   32.1530   53.6020   -6.5880 C   0  0  0  0  0  0  0  0  0  0  0  0
   33.2900   53.2980   -5.8390 C   0  0  0  0  0  0  0  0  0  0  0  0
   31.3280   52.5870   -7.0680 C   0  0  0  0  0  0  0  0  0  0  0  0
   31.6600   51.2590   -6.7860 C   0  0  0  0  0  0  0  0  0  0  0  0
   33.6010   51.9660   -5.5720 C   0  0  0  0  0  0  0  0  0  0  0  0
   35.0050   51.5800   -4.6570 Cl  0  0  0  0  0  0  0  0  0  0  0  0
   30.6640   49.9140   -7.3740 S   0  0  0  0  0  0  0  0  0  0  0  0
   32.7900   50.9390   -6.0390 C   0  0  0  0  0  0  0  0  0  0  0  0
   31.2090   48.7850   -6.6830 O   0  0  0  0  0  0  0  0  0  0  0  0
   29.2160   50.3740   -7.2930 N   0  0  0  0  0  0  0  0  0  0  0  0
   29.1150   51.3780   -6.2770 C   0  0  0  0  0  0  0  0  0  0  0  0
   28.7300   52.6490   -6.6860 C   0  0  0  0  0  0  0  0  0  0  0  0
   29.4190   51.0640   -4.9390 C   0  0  0  0  0  0  0  0  0  0  0  0
   29.8320   49.7140   -4.4620 C   0  0  0  0  0  0  0  0  0  0  0  0
   28.6440   53.6700   -5.7570 C   0  0  0  0  0  0  0  0  0  0  0  0
   29.3260   52.1200   -4.0200 C   0  0  0  0  0  0  0  0  0  0  0  0
   29.7920   48.5430   -5.2580 C   0  0  0  0  0  0  0  0  0  0  0  0
   30.2940   49.5430   -3.1550 C   0  0  0  0  0  0  0  0  0  0  0  0
   28.9450   53.4040   -4.4260 C   0  0  0  0  0  0  0  0  0  0  0  0
   30.2140   47.3090   -4.7270 C   0  0  0  0  0  0  0  0  0  0  0  0
   30.7000   48.3620   -2.6160 N   0  0  0  0  0  0  0  0  0  0  0  0
   30.2010   46.0690   -5.5350 C   0  0  0  0  0  0  0  0  0  0  0  0
   30.6530   47.2730   -3.4150 C   0  0  0  0  0  0  0  0  0  0  0  0
   30.1520   44.9450   -4.7900 O   0  0  0  0  0  0  0  0  0  0  0  0
   30.2450   46.0590   -6.7550 O   0  0  0  0  0  0  0  0  0  0  0  0
  1  2  1  0
  2  3  2  0
  2  4  1  0
  4  5  2  0
  3  6  1  0
  6  7  1  0
  5  8  1  0
  5  9  1  0
  6  9  2  0
  8 10  2  0
  8 11  2  0
 11 12  1  0
 12 13  2  0
 12 14  1  0
 14 15  1  0
 13 16  1  0
 14 17  2  0
 15 18  2  0
 15 19  1  0
 16 20  2  0
 17 20  1  0
 18 21  1  0
 19 22  2  0
 21 23  1  0
 21 24  2  0
 22 24  1  0
 23 25  1  0
 23 26  2  0
M  END
