mac-x0137-mac-x0132
     RDKit          3D

 27 31  0  0  0  0  0  0  0  0999 V2000
   31.2800   48.0120   -3.8140 F   0  0  0  0  0  0  0  0  0  0  0  0
   31.3380   46.6980   -4.1860 C   0  0  2  0  0  0  0  0  0  0  0  0
   32.6390   46.4850   -4.9430 C   0  0  0  0  0  0  0  0  0  0  0  0
   30.0890   46.3360   -5.0090 C   0  0  0  0  0  0  0  0  0  0  0  0
   30.1600   46.7200   -6.4350 N   0  0  0  0  0  0  0  0  0  0  0  0
   32.5790   46.9560   -6.3960 C   0  0  0  0  0  0  0  0  0  0  0  0
   31.3760   46.4170   -7.1690 C   0  0  0  0  0  0  0  0  0  0  0  0
   29.3410   47.7960   -6.7680 C   0  0  0  0  0  0  0  0  0  0  0  0
   28.1530   47.5130   -7.3790 N   0  0  0  0  0  0  0  0  0  0  0  0
   29.6190   49.1620   -6.5320 C   0  0  0  0  0  0  0  0  0  0  0  0
   27.3160   48.5080   -7.7220 C   0  0  0  0  0  0  0  0  0  0  0  0
   28.6600   50.0850   -6.9380 C   0  0  0  0  0  0  0  0  0  0  0  0
   30.6800   49.9180   -5.9530 C   0  0  0  0  0  0  0  0  0  0  0  0
   27.4810   49.8250   -7.5420 N   0  0  0  0  0  0  0  0  0  0  0  0
   29.1130   51.3480   -6.6150 N   0  0  0  0  0  0  0  0  0  0  0  0
   30.3410   51.2500   -6.0190 C   0  0  0  0  0  0  0  0  0  0  0  0
   28.4430   52.5360   -6.8420 N   0  0  0  0  0  0  0  0  0  0  0  0
   28.5370   53.5430   -5.8400 C   0  0  0  0  0  0  0  0  0  0  0  0
   28.6140   53.1450   -4.4840 C   0  0  0  0  0  0  0  0  0  0  0  0
   28.5550   54.8390   -6.2080 N   0  0  0  0  0  0  0  0  0  0  0  0
   28.7130   54.1900   -3.5550 C   0  0  0  0  0  0  0  0  0  0  0  0
   28.6510   55.7380   -5.2250 C   0  0  0  0  0  0  0  0  0  0  0  0
   28.6000   51.8030   -4.0130 C   0  0  0  0  0  0  0  0  0  0  0  0
   28.7310   55.4770   -3.9140 N   0  0  0  0  0  0  0  0  0  0  0  0
   28.7960   53.8750   -2.2010 C   0  0  0  0  0  0  0  0  0  0  0  0
   28.6840   51.5150   -2.6520 C   0  0  0  0  0  0  0  0  0  0  0  0
   28.7840   52.5560   -1.7410 C   0  0  0  0  0  0  0  0  0  0  0  0
  2  1  1  6
  2  3  1  0
  2  4  1  0
  4  5  1  0
  3  6  1  0
  5  7  1  0
  6  7  1  0
  5  8  1  0
  8  9  2  0
  8 10  1  0
  9 11  1  0
 10 12  2  0
 10 13  1  0
 11 14  2  0
 12 14  1  0
 12 15  1  0
 13 16  2  0
 15 16  1  0
 15 17  1  0
 17 18  1  0
 18 19  1  0
 18 20  2  0
 19 21  2  0
 20 22  1  0
 19 23  1  0
 21 24  1  0
 22 24  2  0
 21 25  1  0
 23 26  2  0
 25 27  2  0
 26 27  1  0
M  END
