mac-x0228-mac-x0357
     RDKit          3D

 22 24  0  0  0  0  0  0  0  0999 V2000
   30.3400   47.2330   -5.5910 N   0  0  0  0  0  0  0  0  0  0  0  0
   30.1160   47.7530   -4.3370 C   0  0  0  0  0  0  0  0  0  0  0  0
   29.9230   47.0680   -3.3420 O   0  0  0  0  0  0  0  0  0  0  0  0
   31.4420   46.5870   -5.7620 C   0  0  0  0  0  0  0  0  0  0  0  0
   31.6890   46.0660   -6.9770 O   0  0  0  0  0  0  0  0  0  0  0  0
   30.1070   49.2460   -4.2310 C   0  0  0  0  0  0  0  0  0  0  0  0
   32.5460   46.2860   -4.8470 C   0  0  0  0  0  0  0  0  0  0  0  0
   29.7880   50.0530   -5.3350 C   0  0  0  0  0  0  0  0  0  0  0  0
   30.4260   49.8390   -2.9870 C   0  0  0  0  0  0  0  0  0  0  0  0
   32.8740   44.9610   -4.4880 C   0  0  0  0  0  0  0  0  0  0  0  0
   33.2660   47.3810   -4.3430 C   0  0  0  0  0  0  0  0  0  0  0  0
   32.1070   43.7830   -5.0230 C   0  0  0  0  0  0  0  0  0  0  0  0
   29.7950   51.4270   -5.1680 C   0  0  0  0  0  0  0  0  0  0  0  0
   30.4270   51.2300   -2.8420 C   0  0  0  0  0  0  0  0  0  0  0  0
   34.3290   47.1700   -3.4690 C   0  0  0  0  0  0  0  0  0  0  0  0
   33.9500   44.7850   -3.6070 C   0  0  0  0  0  0  0  0  0  0  0  0
   34.3630   43.5490   -3.1840 O   0  0  0  0  0  0  0  0  0  0  0  0
   30.1080   51.9960   -3.9430 C   0  0  0  0  0  0  0  0  0  0  0  0
   29.5000   52.5020   -6.1450 C   0  0  0  0  0  0  0  0  0  0  0  0
   34.6680   45.8680   -3.1030 C   0  0  0  0  0  0  0  0  0  0  0  0
   30.0680   53.3660   -3.9440 O   0  0  0  0  0  0  0  0  0  0  0  0
   30.0020   53.7090   -5.3480 C   0  0  0  0  0  0  0  0  0  0  0  0
  1  2  1  0
  2  3  2  0
  1  4  2  3
  4  5  1  0
  2  6  1  0
  4  7  1  0
  6  8  2  0
  6  9  1  0
  7 10  2  0
  7 11  1  0
 10 12  1  0
  8 13  1  0
  9 14  2  0
 11 15  2  0
 10 16  1  0
 16 17  1  0
 13 18  2  0
 14 18  1  0
 13 19  1  0
 15 20  1  0
 16 20  2  0
 18 21  1  0
 19 22  1  0
 21 22  1  0
M  END
