mac-x0142-mac-x0437
     RDKit          3D

 32 38  0  0  0  0  0  0  0  0999 V2000
   32.6180   43.2380   -8.7020 O   0  0  0  0  0  0  0  0  0  0  0  0
   33.1810   44.0270   -7.6500 C   0  0  0  0  0  0  0  0  0  0  0  0
   34.1310   44.9330   -8.2180 O   0  0  0  0  0  0  0  0  0  0  0  0
   33.7060   43.2050   -6.4490 C   0  0  0  0  0  0  0  0  0  0  0  0
   32.1250   44.6730   -6.7110 C   0  0  1  0  0  0  0  0  0  0  0  0
   32.5310   43.7000   -5.5900 C   0  0  2  0  0  0  0  0  0  0  0  0
   32.3240   46.0700   -6.1190 C   0  0  0  0  0  0  0  0  0  0  0  0
   32.0760   45.8680   -4.5990 C   0  0  1  0  0  0  0  0  0  0  0  0
   32.8630   44.5590   -4.3750 C   0  0  0  0  0  0  0  0  0  0  0  0
   32.6040   47.1040   -3.7920 C   0  0  1  0  0  0  0  0  0  0  0  0
   30.5770   45.6500   -4.3340 C   0  0  0  0  0  0  0  0  0  0  0  0
   31.7870   47.3870   -2.5190 C   0  0  0  0  0  0  0  0  0  0  0  0
   29.9280   46.9360   -4.0700 N   0  0  0  0  0  0  0  0  0  0  0  0
   34.0490   47.1430   -3.5500 N   0  0  0  0  0  0  0  0  0  0  0  0
   30.2910   47.5370   -2.7740 C   0  0  0  0  0  0  0  0  0  0  0  0
   29.3360   47.6900   -5.0930 C   0  0  0  0  0  0  0  0  0  0  0  0
   34.9190   48.0970   -3.9950 C   0  0  0  0  0  0  0  0  0  0  0  0
   34.7860   46.2190   -2.8280 C   0  0  0  0  0  0  0  0  0  0  0  0
   28.5740   47.0800   -6.0760 N   0  0  0  0  0  0  0  0  0  0  0  0
   29.4500   49.0260   -5.2150 C   0  0  0  0  0  0  0  0  0  0  0  0
   36.1520   47.8630   -3.6180 N   0  0  0  0  0  0  0  0  0  0  0  0
   36.0910   46.7030   -2.8940 C   0  0  0  0  0  0  0  0  0  0  0  0
   34.4650   45.0390   -2.1370 C   0  0  0  0  0  0  0  0  0  0  0  0
   27.9930   47.7830   -7.0960 C   0  0  0  0  0  0  0  0  0  0  0  0
   28.7820   49.7290   -6.3380 C   0  0  0  0  0  0  0  0  0  0  0  0
   30.0900   50.0910   -4.5070 C   0  0  0  0  0  0  0  0  0  0  0  0
   37.1260   46.0040   -2.2600 C   0  0  0  0  0  0  0  0  0  0  0  0
   35.5130   44.3550   -1.5110 C   0  0  0  0  0  0  0  0  0  0  0  0
   28.0500   49.0590   -7.2770 N   0  0  0  0  0  0  0  0  0  0  0  0
   28.9770   51.0190   -6.3050 N   0  0  0  0  0  0  0  0  0  0  0  0
   29.7730   51.2080   -5.1850 C   0  0  0  0  0  0  0  0  0  0  0  0
   36.8240   44.8270   -1.5700 C   0  0  0  0  0  0  0  0  0  0  0  0
  2  1  1  0
  2  3  1  0
  2  4  1  0
  2  5  1  0
  6  4  1  6
  5  6  1  0
  5  7  1  1
  8  7  1  6
  6  9  1  0
  8  9  1  0
  8 10  1  0
  8 11  1  0
 10 12  1  0
 11 13  1  0
 10 14  1  1
 12 15  1  0
 13 15  1  0
 13 16  1  0
 14 17  1  0
 14 18  1  0
 16 19  1  0
 16 20  2  0
 17 21  2  0
 18 22  2  0
 21 22  1  0
 18 23  1  0
 19 24  1  0
 20 25  1  0
 20 26  1  0
 22 27  1  0
 23 28  2  0
 24 29  2  0
 25 29  1  0
 25 30  2  0
 26 31  2  0
 30 31  1  0
 27 32  2  0
 28 32  1  0
M  END
