mac-x0373-mac-x0321
     RDKit          3D

 18 19  0  0  0  0  0  0  0  0999 V2000
   31.3690   46.6180   -6.7520 O   0  0  0  0  0  0  0  0  0  0  0  0
   30.4330   46.6150   -5.7770 C   0  0  0  0  0  0  0  0  0  0  0  0
   29.4810   45.8420   -5.8620 O   0  0  0  0  0  0  0  0  0  0  0  0
   30.6510   47.6130   -4.6010 C   0  0  1  0  0  0  0  0  0  0  0  0
   30.0380   47.0140   -3.4410 O   0  0  0  0  0  0  0  0  0  0  0  0
   32.1290   47.7380   -4.2350 C   0  0  0  0  0  0  0  0  0  0  0  0
   29.9250   48.9670   -4.7120 C   0  0  0  0  0  0  0  0  0  0  0  0
   32.7980   46.6890   -3.5780 C   0  0  0  0  0  0  0  0  0  0  0  0
   32.8560   48.8980   -4.5350 C   0  0  0  0  0  0  0  0  0  0  0  0
   29.5540   49.6910   -3.5680 C   0  0  0  0  0  0  0  0  0  0  0  0
   29.6050   49.5330   -5.9770 C   0  0  0  0  0  0  0  0  0  0  0  0
   34.1460   46.7990   -3.2350 C   0  0  0  0  0  0  0  0  0  0  0  0
   34.2050   49.0090   -4.1900 C   0  0  0  0  0  0  0  0  0  0  0  0
   28.8950   50.9170   -3.6630 C   0  0  0  0  0  0  0  0  0  0  0  0
   28.9430   50.7700   -6.0560 C   0  0  0  0  0  0  0  0  0  0  0  0
   28.5420   51.4900   -7.5630 Cl  0  0  0  0  0  0  0  0  0  0  0  0
   34.8490   47.9590   -3.5410 C   0  0  0  0  0  0  0  0  0  0  0  0
   28.5910   51.4550   -4.9030 C   0  0  0  0  0  0  0  0  0  0  0  0
  1  2  1  0
  2  3  2  0
  2  4  1  0
  4  5  1  1
  4  6  1  0
  4  7  1  0
  6  8  2  0
  6  9  1  0
  7 10  2  0
  7 11  1  0
  8 12  1  0
  9 13  2  0
 10 14  1  0
 11 15  2  0
 15 16  1  0
 12 17  2  0
 13 17  1  0
 14 18  2  0
 15 18  1  0
M  END
