mac-x0587-mac-x0231
     RDKit          3D

 25 27  0  0  0  0  0  0  0  0999 V2000
   31.3940   47.5430   -4.9670 C   0  0  0  0  0  0  0  0  0  0  0  0
   33.1810   47.4460   -4.5930 S   0  0  0  0  0  0  0  0  0  0  0  0
   33.7940   46.4760   -6.0420 C   0  0  0  0  0  0  0  0  0  0  0  0
   30.7490   48.6980   -4.2150 C   0  0  0  0  0  0  0  0  0  0  0  0
   31.2700   49.1510   -3.1880 O   0  0  0  0  0  0  0  0  0  0  0  0
   29.5750   49.2360   -4.7150 N   0  0  0  0  0  0  0  0  0  0  0  0
   33.2770   45.0130   -6.0940 C   0  0  0  0  0  0  0  0  0  0  0  0
   29.1100   50.5120   -4.2160 C   0  0  0  0  0  0  0  0  0  0  0  0
   28.9770   49.0370   -5.9740 C   0  0  0  0  0  0  0  0  0  0  0  0
   34.1100   44.2360   -6.9370 O   0  0  0  0  0  0  0  0  0  0  0  0
   32.0000   44.9500   -6.7220 O   0  0  0  0  0  0  0  0  0  0  0  0
   28.7420   47.9990   -6.5670 O   0  0  0  0  0  0  0  0  0  0  0  0
   33.1630   44.3440   -4.7030 C   0  0  0  0  0  0  0  0  0  0  0  0
   28.8020   51.3020   -5.4750 C   0  0  0  0  0  0  0  0  0  0  0  0
   28.6670   50.2920   -6.4870 N   0  0  0  0  0  0  0  0  0  0  0  0
   31.8160   44.4760   -4.0370 C   0  0  0  0  0  0  0  0  0  0  0  0
   31.5520   45.3740   -2.9770 C   0  0  0  0  0  0  0  0  0  0  0  0
   30.8550   43.6540   -4.5370 N   0  0  0  0  0  0  0  0  0  0  0  0
   30.2430   45.3870   -2.4620 C   0  0  0  0  0  0  0  0  0  0  0  0
   29.5950   43.6730   -4.0260 N   0  0  0  0  0  0  0  0  0  0  0  0
   32.4950   46.2590   -2.3960 C   0  0  0  0  0  0  0  0  0  0  0  0
   29.3100   44.5220   -3.0190 C   0  0  0  0  0  0  0  0  0  0  0  0
   29.8980   46.2580   -1.4080 C   0  0  0  0  0  0  0  0  0  0  0  0
   32.1440   47.1200   -1.3520 C   0  0  0  0  0  0  0  0  0  0  0  0
   30.8470   47.1180   -0.8610 C   0  0  0  0  0  0  0  0  0  0  0  0
  1  2  1  0
  2  3  1  0
  1  4  1  0
  4  5  2  0
  4  6  1  0
  3  7  1  0
  6  8  1  0
  6  9  1  0
  7 10  1  0
  7 11  1  0
  9 12  2  0
  7 13  1  0
  8 14  1  0
  9 15  1  0
 14 15  1  0
 13 16  1  0
 16 17  1  0
 16 18  2  0
 17 19  2  0
 18 20  1  0
 17 21  1  0
 19 22  1  0
 20 22  2  0
 19 23  1  0
 21 24  2  0
 23 25  2  0
 24 25  1  0
M  END
