mac-x0433-mac-x0360
     RDKit          3D

 20 21  0  0  0  0  0  0  0  0999 V2000
   29.0270   50.6630   -5.2150 C   0  0  0  0  0  0  0  0  0  0  0  0
   30.4990   50.7800   -6.0870 S   0  0  0  0  0  0  0  0  0  0  0  0
   31.0750   52.1420   -5.3140 N   0  0  0  0  0  0  0  0  0  0  0  0
   28.5990   51.5800   -4.1640 C   0  0  0  0  0  0  0  0  0  0  0  0
   30.8640   49.6800   -7.2490 O   0  0  0  0  0  0  0  0  0  0  0  0
   28.4290   51.0530   -2.9420 N   0  0  0  0  0  0  0  0  0  0  0  0
   28.3920   52.9040   -4.4760 C   0  0  0  0  0  0  0  0  0  0  0  0
   32.0310   51.4740   -6.5130 C   0  0  0  0  0  0  0  0  0  0  0  0
   28.0340   51.9020   -1.9940 C   0  0  0  0  0  0  0  0  0  0  0  0
   27.9840   53.6960   -3.4250 C   0  0  0  0  0  0  0  0  0  0  0  0
   33.1950   50.8660   -6.0400 C   0  0  0  0  0  0  0  0  0  0  0  0
   32.0970   52.6190   -7.3110 C   0  0  0  0  0  0  0  0  0  0  0  0
   27.7240   55.1580   -3.6300 C   0  0  0  0  0  0  0  0  0  0  0  0
   27.8470   51.4010   -0.7240 N   0  0  0  0  0  0  0  0  0  0  0  0
   27.8030   53.2040   -2.1820 N   0  0  0  0  0  0  0  0  0  0  0  0
   34.4340   51.4110   -6.3750 C   0  0  0  0  0  0  0  0  0  0  0  0
   33.3450   53.1490   -7.6360 C   0  0  0  0  0  0  0  0  0  0  0  0
   33.4450   54.5580   -8.6190 Cl  0  0  0  0  0  0  0  0  0  0  0  0
   35.8780   50.6680   -5.7990 Cl  0  0  0  0  0  0  0  0  0  0  0  0
   34.5170   52.5520   -7.1710 C   0  0  0  0  0  0  0  0  0  0  0  0
  1  2  2  0
  2  3  1  0
  1  4  1  0
  2  5  2  0
  4  6  2  0
  4  7  1  0
  2  8  1  0
  6  9  1  0
  7 10  2  0
  8 11  2  0
  8 12  1  0
 10 13  1  0
  9 14  1  0
  9 15  2  0
 10 15  1  0
 11 16  1  0
 12 17  2  0
 17 18  1  0
 16 19  1  0
 16 20  2  0
 17 20  1  0
M  END
