mac-x0361-mac-x0394
     RDKit          3D

 21 22  0  0  0  0  0  0  0  0999 V2000
   29.2210   53.5970   -6.5600 N   0  0  0  0  0  0  0  0  0  0  0  0
   29.5970   53.4010   -5.2400 C   0  0  0  0  0  0  0  0  0  0  0  0
   29.8080   54.3480   -4.4890 O   0  0  0  0  0  0  0  0  0  0  0  0
   28.2020   52.8650   -7.1450 C   0  0  0  0  0  0  0  0  0  0  0  0
   27.7280   53.2570   -8.2130 O   0  0  0  0  0  0  0  0  0  0  0  0
   27.7060   51.6080   -6.4490 C   0  0  0  0  0  0  0  0  0  0  0  0
   29.7530   52.0010   -4.7500 C   0  0  0  0  0  0  0  0  0  0  0  0
   30.0320   50.9470   -5.6320 C   0  0  0  0  0  0  0  0  0  0  0  0
   29.6140   51.7410   -3.3800 C   0  0  0  0  0  0  0  0  0  0  0  0
   26.7250   51.8810   -5.3410 C   0  0  0  0  0  0  0  0  0  0  0  0
   30.1690   49.6490   -5.1430 C   0  0  0  0  0  0  0  0  0  0  0  0
   29.7530   50.4370   -2.8930 C   0  0  0  0  0  0  0  0  0  0  0  0
   26.7720   53.0710   -4.5990 C   0  0  0  0  0  0  0  0  0  0  0  0
   25.7420   50.9320   -5.0410 C   0  0  0  0  0  0  0  0  0  0  0  0
   30.0290   49.4020   -3.7840 C   0  0  0  0  0  0  0  0  0  0  0  0
   25.8480   53.2990   -3.5790 C   0  0  0  0  0  0  0  0  0  0  0  0
   24.8270   51.1740   -4.0220 C   0  0  0  0  0  0  0  0  0  0  0  0
   30.1740   48.1150   -3.3600 O   0  0  0  0  0  0  0  0  0  0  0  0
   23.6230   49.9950   -3.6760 Cl  0  0  0  0  0  0  0  0  0  0  0  0
   25.9090   54.7630   -2.6730 Cl  0  0  0  0  0  0  0  0  0  0  0  0
   24.8720   52.3520   -3.2860 C   0  0  0  0  0  0  0  0  0  0  0  0
  1  2  1  0
  2  3  2  0
  1  4  1  0
  4  5  2  0
  4  6  1  0
  2  7  1  0
  7  8  2  0
  7  9  1  0
  6 10  1  0
  8 11  1  0
  9 12  2  0
 10 13  2  0
 10 14  1  0
 11 15  2  0
 12 15  1  0
 13 16  1  0
 14 17  2  0
 15 18  1  0
 17 19  1  0
 16 20  1  0
 16 21  2  0
 17 21  1  0
M  END
