mac-x0139-mac-x0387
     RDKit          3D

 21 23  0  0  0  0  0  0  0  0999 V2000
   31.4690   47.2390   -4.5410 C   0  0  0  0  0  0  0  0  0  0  0  0
   30.8830   47.0530   -5.8770 N   0  0  0  0  0  0  0  0  0  0  0  0
   31.0170   45.6400   -6.3000 C   0  0  0  0  0  0  0  0  0  0  0  0
   29.5410   47.7080   -6.0890 C   0  0  1  0  0  0  0  0  0  0  0  0
   32.3480   45.0440   -5.8380 C   0  0  0  0  0  0  0  0  0  0  0  0
   29.6240   49.3340   -6.0640 C   0  0  2  0  0  0  0  0  0  0  0  0
   28.9360   47.1230   -7.2770 N   0  0  0  0  0  0  0  0  0  0  0  0
   28.5840   47.2510   -4.9690 C   0  0  0  0  0  0  0  0  0  0  0  0
   33.0010   44.2710   -6.9420 C   0  0  0  0  0  0  0  0  0  0  0  0
   28.5500   49.9790   -7.0670 C   0  0  2  0  0  0  0  0  0  0  0  0
   27.7570   47.8050   -7.7460 C   0  0  0  0  0  0  0  0  0  0  0  0
   30.8860   50.0250   -6.5950 C   0  0  0  0  0  0  0  0  0  0  0  0
   28.2480   47.9700   -3.8880 C   0  0  0  0  0  0  0  0  0  0  0  0
   29.4120   49.9340   -4.6540 C   0  0  0  0  0  0  0  0  0  0  0  0
   32.5210   43.3130   -7.5320 O   0  0  0  0  0  0  0  0  0  0  0  0
   34.2260   44.7330   -7.2590 O   0  0  0  0  0  0  0  0  0  0  0  0
   28.1260   49.1360   -8.2160 N   0  0  0  0  0  0  0  0  0  0  0  0
   29.2160   51.2730   -7.4310 N   0  0  0  0  0  0  0  0  0  0  0  0
   30.5730   51.0880   -7.3400 C   0  0  0  0  0  0  0  0  0  0  0  0
   28.7760   49.2840   -3.6720 C   0  0  0  0  0  0  0  0  0  0  0  0
   26.9540   49.7580   -8.8650 N   0  0  0  0  0  0  0  0  0  0  0  0
  1  2  1  0
  2  3  1  0
  4  2  1  1
  3  5  1  0
  4  6  1  0
  4  7  1  0
  4  8  1  0
  5  9  1  0
  6 10  1  0
  7 11  1  0
  6 12  1  6
  8 13  2  0
  6 14  1  0
  9 15  2  0
  9 16  1  0
 10 17  1  0
 11 17  1  0
 10 18  1  6
 12 19  2  0
 18 19  1  0
 13 20  1  0
 14 20  2  0
 17 21  1  0
M  END
