mac-x0546-mac-x0321
     RDKit          3D

 26 28  0  0  0  0  0  0  0  0999 V2000
   30.4320   49.2910    0.1580 C   0  0  0  0  0  0  0  0  0  0  0  0
   29.9300   47.9670    0.2500 O   0  0  0  0  0  0  0  0  0  0  0  0
   29.7870   47.2610   -0.9190 C   0  0  0  0  0  0  0  0  0  0  0  0
   30.7200   47.0610   -1.8800 C   0  0  0  0  0  0  0  0  0  0  0  0
   28.4500   46.6910   -1.0710 C   0  0  0  0  0  0  0  0  0  0  0  0
   30.3660   46.2580   -3.0920 C   0  0  2  0  0  0  0  0  0  0  0  0
   28.1910   45.6660   -1.9020 C   0  0  0  0  0  0  0  0  0  0  0  0
   29.3810   45.1960   -2.6250 C   0  0  0  0  0  0  0  0  0  0  0  0
   31.3430   45.2990   -3.7000 C   0  0  0  0  0  0  0  0  0  0  0  0
   32.6200   45.7110   -4.3610 C   0  0  0  0  0  0  0  0  0  0  0  0
   29.6750   43.9600   -2.8990 N   0  0  0  0  0  0  0  0  0  0  0  0
   30.8790   44.0490   -3.5550 C   0  0  0  0  0  0  0  0  0  0  0  0
   32.6600   45.4890   -5.8530 C   0  0  0  0  0  0  0  0  0  0  0  0
   31.9480   45.9490   -6.8140 N   0  0  0  0  0  0  0  0  0  0  0  0
   33.6390   44.6410   -6.2190 O   0  0  0  0  0  0  0  0  0  0  0  0
   30.8570   46.8840   -6.5180 C   0  0  0  0  0  0  0  0  0  0  0  0
   31.1420   48.2790   -6.6710 O   0  0  0  0  0  0  0  0  0  0  0  0
   31.5680   48.8820   -5.5330 C   0  0  0  0  0  0  0  0  0  0  0  0
   32.6780   48.7960   -5.0450 O   0  0  0  0  0  0  0  0  0  0  0  0
   30.4820   49.6970   -4.9330 C   0  0  0  0  0  0  0  0  0  0  0  0
   29.7220   50.5170   -5.7810 C   0  0  0  0  0  0  0  0  0  0  0  0
   30.2030   49.6670   -3.5570 C   0  0  0  0  0  0  0  0  0  0  0  0
   28.6970   51.2950   -5.2510 C   0  0  0  0  0  0  0  0  0  0  0  0
   29.1720   50.4530   -3.0350 C   0  0  0  0  0  0  0  0  0  0  0  0
   27.7610   52.3020   -6.2920 Cl  0  0  0  0  0  0  0  0  0  0  0  0
   28.4170   51.2700   -3.8840 C   0  0  0  0  0  0  0  0  0  0  0  0
  1  2  1  0
  2  3  1  0
  3  4  2  0
  3  5  1  0
  6  4  1  1
  5  7  2  0
  6  8  1  0
  7  8  1  0
  6  9  1  0
  9 10  1  0
  8 11  2  0
  9 12  2  0
 11 12  1  0
 10 13  1  0
 13 14  2  3
 13 15  1  0
 14 16  1  0
 16 17  1  0
 17 18  1  0
 18 19  2  0
 18 20  1  0
 20 21  2  0
 20 22  1  0
 21 23  1  0
 22 24  2  0
 23 25  1  0
 23 26  2  0
 24 26  1  0
M  END
