mac-x0348-mac-x0565
     RDKit          3D

 27 30  0  0  0  0  0  0  0  0999 V2000
   27.0590   44.4410   -1.2400 C   0  0  0  0  0  0  0  0  0  0  0  0
   28.2190   45.2010   -1.6500 N   0  0  0  0  0  0  0  0  0  0  0  0
   28.9380   44.9700   -2.7950 C   0  0  0  0  0  0  0  0  0  0  0  0
   28.7580   46.2570   -0.9470 C   0  0  0  0  0  0  0  0  0  0  0  0
   29.9710   45.8870   -2.8510 C   0  0  0  0  0  0  0  0  0  0  0  0
   29.8580   46.7040   -1.6740 C   0  0  0  0  0  0  0  0  0  0  0  0
   28.3760   46.8600    0.2650 C   0  0  0  0  0  0  0  0  0  0  0  0
   31.0470   46.0530   -3.9130 C   0  0  1  0  0  0  0  0  0  0  0  0
   30.6020   47.7920   -1.1590 C   0  0  0  0  0  0  0  0  0  0  0  0
   29.1320   47.9370    0.7410 C   0  0  0  0  0  0  0  0  0  0  0  0
   30.8460   45.2540   -5.1980 C   0  0  0  0  0  0  0  0  0  0  0  0
   30.2310   48.3980    0.0400 C   0  0  0  0  0  0  0  0  0  0  0  0
   31.2650   47.5530   -4.1560 C   0  0  2  0  0  0  0  0  0  0  0  0
   31.8080   45.6750   -6.2790 C   0  0  0  0  0  0  0  0  0  0  0  0
   31.4170   48.1880   -2.8790 O   0  0  0  0  0  0  0  0  0  0  0  0
   30.2010   48.1730   -4.9340 O   0  0  0  0  0  0  0  0  0  0  0  0
   31.5460   45.7730   -7.4650 O   0  0  0  0  0  0  0  0  0  0  0  0
   33.0510   45.9550   -5.8370 O   0  0  0  0  0  0  0  0  0  0  0  0
   30.1670   49.3950   -4.3190 C   0  0  0  0  0  0  0  0  0  0  0  0
   30.8640   49.3860   -3.1360 C   0  0  0  0  0  0  0  0  0  0  0  0
   29.5380   50.5330   -4.7740 C   0  0  0  0  0  0  0  0  0  0  0  0
   30.9720   50.4870   -2.3280 C   0  0  0  0  0  0  0  0  0  0  0  0
   29.6390   51.6860   -3.9700 C   0  0  0  0  0  0  0  0  0  0  0  0
   30.3490   51.6530   -2.7540 C   0  0  0  0  0  0  0  0  0  0  0  0
   29.0210   52.9770   -4.3490 C   0  0  0  0  0  0  0  0  0  0  0  0
   28.4590   52.9590   -5.5670 O   0  0  0  0  0  0  0  0  0  0  0  0
   29.0090   53.9820   -3.6600 O   0  0  0  0  0  0  0  0  0  0  0  0
  1  2  1  0
  2  3  1  0
  2  4  1  0
  3  5  2  0
  4  6  2  0
  5  6  1  0
  4  7  1  0
  5  8  1  0
  6  9  1  0
  7 10  2  0
  8 11  1  6
  9 12  2  0
 10 12  1  0
  8 13  1  0
 11 14  1  0
 13 15  1  1
 13 16  1  0
 14 17  2  0
 14 18  1  0
 16 19  1  0
 15 20  1  0
 19 20  2  0
 19 21  1  0
 20 22  1  0
 21 23  2  0
 22 24  2  0
 23 24  1  0
 23 25  1  0
 25 26  1  0
 25 27  2  0
M  END
