mac-x0398-mac-x0161
     RDKit          3D

 23 25  0  0  0  0  0  0  0  0999 V2000
   28.7140   54.1330   -6.6090 N   0  0  0  0  0  0  0  0  0  0  0  0
   28.7480   52.9880   -5.6850 C   0  0  1  0  0  0  0  0  0  0  0  0
   28.3760   51.6610   -6.4170 C   0  0  2  0  0  0  0  0  0  0  0  0
   30.0740   52.9440   -4.9180 C   0  0  0  0  0  0  0  0  0  0  0  0
   26.9100   51.7230   -6.5810 N   0  0  0  0  0  0  0  0  0  0  0  0
   30.2300   51.7650   -3.9610 C   0  0  1  0  0  0  0  0  0  0  0  0
   28.8780   50.3240   -5.7270 C   0  0  2  0  0  0  0  0  0  0  0  0
   30.0290   52.2080   -2.6070 O   0  0  0  0  0  0  0  0  0  0  0  0
   29.3230   50.5670   -4.2210 C   0  0  1  0  0  0  0  0  0  0  0  0
   29.8800   49.6900   -6.6240 N   0  0  0  0  0  0  0  0  0  0  0  0
   27.8060   49.1970   -5.7320 C   0  0  0  0  0  0  0  0  0  0  0  0
   29.8860   49.4050   -3.4030 C   0  0  0  0  0  0  0  0  0  0  0  0
   28.3400   48.0770   -6.5320 N   0  0  0  0  0  0  0  0  0  0  0  0
   29.1770   48.7590   -7.4750 C   0  0  0  0  0  0  0  0  0  0  0  0
   30.0610   49.5050   -2.1890 O   0  0  0  0  0  0  0  0  0  0  0  0
   30.1700   48.3110   -4.1420 O   0  0  0  0  0  0  0  0  0  0  0  0
   31.4060   47.8610   -4.0670 C   0  0  0  0  0  0  0  0  0  0  0  0
   32.4490   47.9220   -3.1720 C   0  0  0  0  0  0  0  0  0  0  0  0
   31.7990   47.1380   -5.1540 O   0  0  0  0  0  0  0  0  0  0  0  0
   33.1120   46.7220   -4.9880 N   0  0  0  0  0  0  0  0  0  0  0  0
   33.4740   47.2060   -3.8000 C   0  0  0  0  0  0  0  0  0  0  0  0
   34.7100   47.0080   -3.2900 O   0  0  0  0  0  0  0  0  0  0  0  0
   35.0740   47.9170   -2.2580 C   0  0  0  0  0  0  0  0  0  0  0  0
  2  1  1  6
  2  3  1  0
  2  4  1  0
  3  5  1  1
  4  6  1  0
  3  7  1  0
  6  8  1  1
  6  9  1  0
  7  9  1  0
  7 10  1  0
  7 11  1  1
  9 12  1  6
 11 13  1  0
 10 14  1  0
 13 14  1  0
 12 15  2  0
 12 16  1  0
 16 17  1  0
 17 18  2  0
 17 19  1  0
 19 20  1  0
 18 21  1  0
 20 21  2  0
 21 22  1  0
 22 23  1  0
M  END
