mac-x0436-mac-x0509
     RDKit          3D

 22 24  0  0  0  0  0  0  0  0999 V2000
   33.1860   45.2680   -7.0520 O   0  0  0  0  0  0  0  0  0  0  0  0
   32.1670   45.0410   -6.1960 C   0  0  0  0  0  0  0  0  0  0  0  0
   31.0110   45.3220   -6.4750 O   0  0  0  0  0  0  0  0  0  0  0  0
   32.5740   44.4100   -4.8850 C   0  0  0  0  0  0  0  0  0  0  0  0
   32.6010   45.4260   -3.7460 C   0  0  0  0  0  0  0  0  0  0  0  0
   33.9910   45.9820   -3.5240 C   0  0  0  0  0  0  0  0  0  0  0  0
   34.1530   47.5000   -3.5910 C   0  0  0  0  0  0  0  0  0  0  0  0
   34.9900   45.1810   -3.2870 N   0  0  0  0  0  0  0  0  0  0  0  0
   33.1670   48.2280   -3.6110 O   0  0  0  0  0  0  0  0  0  0  0  0
   35.4520   47.9180   -3.6250 N   0  0  0  0  0  0  0  0  0  0  0  0
   36.2490   45.7540   -3.1020 C   0  0  0  0  0  0  0  0  0  0  0  0
   36.4730   47.0710   -3.2690 C   0  0  0  0  0  0  0  0  0  0  0  0
   37.4080   44.8020   -2.6960 C   0  0  0  0  0  0  0  0  0  0  0  0
   38.5680   45.5700   -2.0860 C   0  0  0  0  0  0  0  0  0  0  0  0
   37.8280   47.6540   -3.0790 C   0  0  0  0  0  0  0  0  0  0  0  0
   36.9210   43.8030   -1.6500 C   0  0  0  0  0  0  0  0  0  0  0  0
   37.9320   44.0820   -3.9350 C   0  0  0  0  0  0  0  0  0  0  0  0
   38.1500   48.7240   -3.5930 O   0  0  0  0  0  0  0  0  0  0  0  0
   38.7720   46.8830   -2.2530 C   0  0  0  0  0  0  0  0  0  0  0  0
   37.2300   42.4960   -1.6800 C   0  0  0  0  0  0  0  0  0  0  0  0
   38.2360   42.7740   -3.9590 C   0  0  0  0  0  0  0  0  0  0  0  0
   38.0880   41.8850   -2.7550 C   0  0  0  0  0  0  0  0  0  0  0  0
  1  2  1  0
  2  3  2  0
  2  4  1  0
  4  5  1  0
  5  6  1  0
  6  7  1  0
  6  8  2  0
  7  9  2  0
  7 10  1  0
  8 11  1  0
 10 12  1  0
 11 12  2  0
 11 13  1  0
 13 14  1  0
 12 15  1  0
 13 16  1  0
 13 17  1  0
 15 18  2  0
 14 19  2  0
 15 19  1  0
 16 20  2  0
 17 21  2  0
 20 22  1  0
 21 22  1  0
M  END
