mac-x0148-mac-x0380
     RDKit          3D

 27 31  0  0  0  0  0  0  0  0999 V2000
   27.5890   48.7830   -4.1990 O   0  0  0  0  0  0  0  0  0  0  0  0
   28.4800   49.6870   -3.7250 C   0  0  0  0  0  0  0  0  0  0  0  0
   28.4700   50.0080   -2.5450 O   0  0  0  0  0  0  0  0  0  0  0  0
   29.4430   50.2210   -4.7680 C   0  0  1  0  0  0  0  0  0  0  0  0
   29.5560   49.3170   -5.9710 C   0  0  0  0  0  0  0  0  0  0  0  0
   29.0920   51.6070   -5.4470 C   0  0  1  0  0  0  0  0  0  0  0  0
   29.1500   50.0140   -7.1000 C   0  0  0  0  0  0  0  0  0  0  0  0
   29.9680   47.9890   -6.1580 C   0  0  0  0  0  0  0  0  0  0  0  0
   28.7650   51.3480   -6.8360 N   0  0  0  0  0  0  0  0  0  0  0  0
   28.0420   52.4820   -5.0230 N   0  0  0  0  0  0  0  0  0  0  0  0
   30.3350   52.4720   -5.3240 C   0  0  0  0  0  0  0  0  0  0  0  0
   30.4370   47.1070   -5.1220 N   0  0  0  0  0  0  0  0  0  0  0  0
   29.9350   47.4730   -7.3960 N   0  0  0  0  0  0  0  0  0  0  0  0
   29.1150   49.5120   -8.3240 N   0  0  0  0  0  0  0  0  0  0  0  0
   27.7820   53.6950   -5.6060 C   0  0  0  0  0  0  0  0  0  0  0  0
   30.3670   54.2300   -5.2560 S   0  0  0  0  0  0  0  0  0  0  0  0
   26.8030   53.9560   -6.2900 O   0  0  0  0  0  0  0  0  0  0  0  0
   30.7470   47.6500   -3.7440 C   0  0  2  0  0  0  0  0  0  0  0  0
   31.4260   46.1400   -5.6810 C   0  0  0  0  0  0  0  0  0  0  0  0
   29.5150   48.2410   -8.4100 C   0  0  0  0  0  0  0  0  0  0  0  0
   28.7480   54.7950   -5.4130 C   0  0  0  0  0  0  0  0  0  0  0  0
   31.7260   48.8260   -3.6050 C   0  0  0  0  0  0  0  0  0  0  0  0
   31.4730   46.6150   -2.8670 C   0  0  2  0  0  0  0  0  0  0  0  0
   32.7820   46.2800   -4.9980 C   0  0  0  0  0  0  0  0  0  0  0  0
   31.9050   47.4850   -1.7020 C   0  0  0  0  0  0  0  0  0  0  0  0
   32.3100   48.7300   -2.2830 O   0  0  0  0  0  0  0  0  0  0  0  0
   32.6920   45.9550   -3.5210 C   0  0  0  0  0  0  0  0  0  0  0  0
  1  2  1  0
  2  3  2  0
  4  2  1  1
  4  5  1  0
  4  6  1  0
  5  7  2  0
  5  8  1  0
  6  9  1  0
  7  9  1  0
  6 10  1  0
  6 11  1  6
  8 12  1  0
  8 13  2  0
  7 14  1  0
 10 15  1  0
 11 16  2  0
 15 17  2  0
 12 18  1  0
 12 19  1  0
 13 20  1  0
 14 20  2  0
 15 21  1  0
 16 21  2  0
 18 22  1  6
 18 23  1  0
 19 24  1  0
 23 25  1  1
 22 26  1  0
 25 26  1  0
 23 27  1  0
 24 27  1  0
M  END
