mac-x0255-mac-x0283
     RDKit          3D

 25 28  0  0  0  0  0  0  0  0999 V2000
   32.0400   44.4550   -7.7570 O   0  0  0  0  0  0  0  0  0  0  0  0
   32.8760   44.7050   -6.7230 C   0  0  0  0  0  0  0  0  0  0  0  0
   33.7420   45.5550   -6.8420 O   0  0  0  0  0  0  0  0  0  0  0  0
   32.5680   43.8280   -5.5300 C   0  0  0  0  0  0  0  0  0  0  0  0
   31.5080   44.4230   -4.6510 C   0  0  0  0  0  0  0  0  0  0  0  0
   30.4540   43.7840   -4.0350 C   0  0  0  0  0  0  0  0  0  0  0  0
   31.5080   46.0900   -4.2950 S   0  0  0  0  0  0  0  0  0  0  0  0
   29.6260   44.6660   -3.2590 C   0  0  0  0  0  0  0  0  0  0  0  0
   30.0900   45.9860   -3.3080 C   0  0  0  0  0  0  0  0  0  0  0  0
   28.4690   44.3850   -2.4960 C   0  0  0  0  0  0  0  0  0  0  0  0
   29.4330   47.0390   -2.6150 C   0  0  0  0  0  0  0  0  0  0  0  0
   29.8990   48.4810   -2.6390 C   0  0  0  0  0  0  0  0  0  0  0  0
   27.8090   45.4030   -1.8100 C   0  0  0  0  0  0  0  0  0  0  0  0
   28.2860   46.7060   -1.8700 C   0  0  0  0  0  0  0  0  0  0  0  0
   30.4480   48.9160   -4.0030 C   0  0  0  0  0  0  0  0  0  0  0  0
   29.9290   50.2620   -4.4590 C   0  0  0  0  0  0  0  0  0  0  0  0
   30.1280   51.3970   -3.6510 C   0  0  0  0  0  0  0  0  0  0  0  0
   29.2490   50.3780   -5.6840 C   0  0  0  0  0  0  0  0  0  0  0  0
   29.6250   52.6030   -4.1320 C   0  0  0  0  0  0  0  0  0  0  0  0
   28.7560   51.6110   -6.1360 C   0  0  0  0  0  0  0  0  0  0  0  0
   29.7100   53.8130   -3.5150 O   0  0  0  0  0  0  0  0  0  0  0  0
   28.9560   52.7500   -5.3330 C   0  0  0  0  0  0  0  0  0  0  0  0
   28.6490   54.1330   -5.3810 C   0  0  0  0  0  0  0  0  0  0  0  0
   29.0960   54.7770   -4.3000 N   0  0  0  0  0  0  0  0  0  0  0  0
   27.9880   54.7240   -6.3970 N   0  0  0  0  0  0  0  0  0  0  0  0
  1  2  1  0
  2  3  2  0
  2  4  1  0
  4  5  1  0
  5  6  2  0
  5  7  1  0
  6  8  1  0
  7  9  1  0
  8  9  2  0
  8 10  1  0
  9 11  1  0
 11 12  1  0
 10 13  2  0
 11 14  2  0
 13 14  1  0
 12 15  1  0
 15 16  1  0
 16 17  2  0
 16 18  1  0
 17 19  1  0
 18 20  2  0
 19 21  1  0
 19 22  2  0
 20 22  1  0
 22 23  1  0
 21 24  1  0
 23 24  2  0
 23 25  1  0
M  END
