mac-x0453-mac-x0163
     RDKit          3D

 24 27  0  0  0  0  0  0  0  0999 V2000
   28.0780   53.3440   -7.5180 N   0  0  0  0  0  0  0  0  0  0  0  0
   28.0290   52.0880   -6.7530 C   0  0  0  0  0  0  0  0  0  0  0  0
   29.4070   51.4220   -6.5210 C   0  0  1  0  0  0  0  0  0  0  0  0
   29.9920   51.6100   -5.1370 C   0  0  0  0  0  0  0  0  0  0  0  0
   29.4420   49.9300   -6.8630 C   0  0  0  0  0  0  0  0  0  0  0  0
   31.3010   51.4960   -4.7020 C   0  0  0  0  0  0  0  0  0  0  0  0
   29.1860   51.9510   -4.0670 N   0  0  0  0  0  0  0  0  0  0  0  0
   29.5650   48.8690   -5.9580 C   0  0  0  0  0  0  0  0  0  0  0  0
   29.3390   49.6850   -8.2040 N   0  0  0  0  0  0  0  0  0  0  0  0
   29.7010   49.0670   -4.2390 Cl  0  0  0  0  0  0  0  0  0  0  0  0
   31.2710   51.7710   -3.3600 N   0  0  0  0  0  0  0  0  0  0  0  0
   29.9780   52.0390   -3.0220 C   0  0  0  0  0  0  0  0  0  0  0  0
   29.5790   47.5710   -6.5010 C   0  0  0  0  0  0  0  0  0  0  0  0
   29.3620   48.4090   -8.6110 C   0  0  0  0  0  0  0  0  0  0  0  0
   29.4760   47.3370   -7.8270 N   0  0  0  0  0  0  0  0  0  0  0  0
   29.7060   46.4420   -5.6440 N   0  0  0  0  0  0  0  0  0  0  0  0
   28.9030   45.2230   -5.7300 C   0  0  0  0  0  0  0  0  0  0  0  0
   31.0910   46.3120   -5.1560 C   0  0  0  0  0  0  0  0  0  0  0  0
   28.8790   44.5300   -4.3620 C   0  0  0  0  0  0  0  0  0  0  0  0
   27.5270   45.3590   -6.4510 C   0  0  0  0  0  0  0  0  0  0  0  0
   29.3210   44.2810   -6.9040 C   0  0  0  0  0  0  0  0  0  0  0  0
   31.1390   45.5830   -3.8180 C   0  0  0  0  0  0  0  0  0  0  0  0
   30.2980   44.3070   -3.8390 C   0  0  0  0  0  0  0  0  0  0  0  0
   27.8180   44.0080   -7.1310 C   0  0  0  0  0  0  0  0  0  0  0  0
  1  2  1  0
  3  2  1  1
  3  4  1  0
  3  5  1  0
  4  6  2  0
  4  7  1  0
  5  8  2  0
  5  9  1  0
  8 10  1  0
  6 11  1  0
  7 12  2  0
 11 12  1  0
  8 13  1  0
  9 14  2  0
 13 15  2  0
 14 15  1  0
 13 16  1  0
 17 16  1  0
 16 18  1  0
 17 19  1  0
 17 20  1  0
 17 21  1  0
 18 22  1  0
 19 23  1  0
 22 23  1  0
 20 24  1  0
 21 24  1  0
M  END
