mac-x0360-mac-x0224
     RDKit          3D

 22 23  0  0  0  0  0  0  0  0999 V2000
   32.8940   55.4730   -5.4400 Cl  0  0  0  0  0  0  0  0  0  0  0  0
   32.4510   53.8310   -5.7020 C   0  0  0  0  0  0  0  0  0  0  0  0
   33.4450   52.8620   -5.8300 C   0  0  0  0  0  0  0  0  0  0  0  0
   31.1050   53.4840   -5.7820 C   0  0  0  0  0  0  0  0  0  0  0  0
   30.7590   52.1470   -5.9950 C   0  0  0  0  0  0  0  0  0  0  0  0
   33.0860   51.5310   -6.0430 C   0  0  0  0  0  0  0  0  0  0  0  0
   34.3170   50.3410   -6.2020 Cl  0  0  0  0  0  0  0  0  0  0  0  0
   29.0550   51.6960   -6.1030 S   0  0  1  0  0  0  0  0  0  0  0  0
   31.7440   51.1630   -6.1270 C   0  0  0  0  0  0  0  0  0  0  0  0
   28.3280   51.9110   -4.6040 N   0  0  0  0  0  0  0  0  0  0  0  0
   28.3710   52.6920   -6.8920 O   0  0  0  0  0  0  0  0  0  0  0  0
   28.9380   50.1790   -6.2300 N   0  0  0  0  0  0  0  0  0  0  0  0
   29.6690   49.2960   -5.3220 C   0  0  0  0  0  0  0  0  0  0  0  0
   29.8360   47.9530   -5.6480 C   0  0  0  0  0  0  0  0  0  0  0  0
   30.1950   49.8060   -4.1340 C   0  0  0  0  0  0  0  0  0  0  0  0
   30.5350   47.1020   -4.7800 C   0  0  0  0  0  0  0  0  0  0  0  0
   30.8930   48.9650   -3.2630 C   0  0  0  0  0  0  0  0  0  0  0  0
   30.7040   45.6720   -5.1440 C   0  0  0  0  0  0  0  0  0  0  0  0
   31.0620   47.6160   -3.5860 C   0  0  0  0  0  0  0  0  0  0  0  0
   31.7450   46.8080   -2.7250 O   0  0  0  0  0  0  0  0  0  0  0  0
   30.5550   45.1540   -6.2340 O   0  0  0  0  0  0  0  0  0  0  0  0
   31.0650   44.9340   -4.0770 O   0  0  0  0  0  0  0  0  0  0  0  0
  1  2  1  0
  2  3  2  0
  2  4  1  0
  4  5  2  0
  3  6  1  0
  6  7  1  0
  5  8  1  0
  5  9  1  0
  6  9  2  0
  8 10  1  1
  8 11  2  0
  8 12  2  0
 12 13  1  0
 13 14  2  0
 13 15  1  0
 14 16  1  0
 15 17  2  0
 16 18  1  0
 16 19  2  0
 17 19  1  0
 19 20  1  0
 18 21  2  0
 18 22  1  0
M  END
