mac-x0375-mac-x0131
     RDKit          3D

 28 31  0  0  0  0  0  0  0  0999 V2000
   30.7850   44.2890   -6.6420 O   0  0  0  0  0  0  0  0  0  0  0  0
   31.9770   44.8730   -6.8740 C   0  0  0  0  0  0  0  0  0  0  0  0
   32.4980   44.8060   -7.9760 O   0  0  0  0  0  0  0  0  0  0  0  0
   32.5490   45.5310   -5.7340 C   0  0  0  0  0  0  0  0  0  0  0  0
   31.9010   46.1890   -4.6900 C   0  0  0  0  0  0  0  0  0  0  0  0
   33.9250   45.6280   -5.4590 C   0  0  0  0  0  0  0  0  0  0  0  0
   30.4760   46.4640   -4.3420 C   0  0  0  0  0  0  0  0  0  0  0  0
   32.8330   46.6730   -3.8120 O   0  0  0  0  0  0  0  0  0  0  0  0
   34.0580   46.3180   -4.2920 C   0  0  0  0  0  0  0  0  0  0  0  0
   30.1130   47.8570   -4.5970 N   0  0  0  0  0  0  0  0  0  0  0  0
   35.2210   46.6930   -3.5390 C   0  0  0  0  0  0  0  0  0  0  0  0
   30.3020   48.9410   -3.7540 C   0  0  0  0  0  0  0  0  0  0  0  0
   29.5120   48.2700   -5.7590 C   0  0  0  0  0  0  0  0  0  0  0  0
   36.0320   45.6990   -2.9950 C   0  0  0  0  0  0  0  0  0  0  0  0
   35.5690   48.0360   -3.3430 C   0  0  0  0  0  0  0  0  0  0  0  0
   30.9330   48.8100   -2.4090 C   0  0  0  0  0  0  0  0  0  0  0  0
   29.8060   50.0680   -4.4090 C   0  0  0  0  0  0  0  0  0  0  0  0
   29.3050   49.6380   -5.6850 C   0  0  0  0  0  0  0  0  0  0  0  0
   29.1850   47.4710   -6.7880 N   0  0  0  0  0  0  0  0  0  0  0  0
   35.7660   44.3620   -3.1390 O   0  0  0  0  0  0  0  0  0  0  0  0
   37.1700   46.0200   -2.2690 C   0  0  0  0  0  0  0  0  0  0  0  0
   36.7130   48.3670   -2.6130 C   0  0  0  0  0  0  0  0  0  0  0  0
   29.7890   51.4680   -3.8990 C   0  0  0  0  0  0  0  0  0  0  0  0
   28.6950   50.2330   -6.8030 C   0  0  0  0  0  0  0  0  0  0  0  0
   28.6120   48.1500   -7.7900 C   0  0  0  0  0  0  0  0  0  0  0  0
   37.5130   47.3570   -2.0770 C   0  0  0  0  0  0  0  0  0  0  0  0
   28.4100   51.5900   -6.9110 N   0  0  0  0  0  0  0  0  0  0  0  0
   28.3530   49.4660   -7.8560 N   0  0  0  0  0  0  0  0  0  0  0  0
  1  2  1  0
  2  3  2  0
  2  4  1  0
  4  5  2  0
  4  6  1  0
  5  7  1  0
  5  8  1  0
  6  9  2  0
  8  9  1  0
  7 10  1  0
  9 11  1  0
 10 12  1  0
 10 13  1  0
 11 14  2  0
 11 15  1  0
 12 16  1  0
 12 17  2  0
 13 18  2  0
 17 18  1  0
 13 19  1  0
 14 20  1  0
 14 21  1  0
 15 22  2  0
 17 23  1  0
 18 24  1  0
 19 25  2  0
 21 26  2  0
 22 26  1  0
 24 27  1  0
 24 28  2  0
 25 28  1  0
M  END
