mac-x0132-mac-x0358
     RDKit          3D

 23 25  0  0  0  0  0  0  0  0999 V2000
   28.3560   52.3740   -7.0480 N   0  0  0  0  0  0  0  0  0  0  0  0
   28.8580   52.8560   -5.8320 C   0  0  0  0  0  0  0  0  0  0  0  0
   28.8850   54.1920   -5.7240 N   0  0  0  0  0  0  0  0  0  0  0  0
   29.2950   51.9890   -4.8170 C   0  0  0  0  0  0  0  0  0  0  0  0
   29.7740   52.6110   -3.6590 C   0  0  0  0  0  0  0  0  0  0  0  0
   29.3610   54.6660   -4.5690 C   0  0  0  0  0  0  0  0  0  0  0  0
   29.2810   50.5770   -4.8940 C   0  0  0  0  0  0  0  0  0  0  0  0
   29.8080   53.9450   -3.5300 N   0  0  0  0  0  0  0  0  0  0  0  0
   30.2360   51.8150   -2.6020 C   0  0  0  0  0  0  0  0  0  0  0  0
   29.7450   49.8000   -3.8310 C   0  0  0  0  0  0  0  0  0  0  0  0
   30.2370   50.4060   -2.6610 C   0  0  0  0  0  0  0  0  0  0  0  0
   30.7600   49.5240   -1.5220 C   0  0  0  0  0  0  0  0  0  0  0  0
   31.3160   48.2930   -2.1820 C   0  0  0  0  0  0  0  0  0  0  0  0
   32.6620   48.2150   -2.5740 C   0  0  0  0  0  0  0  0  0  0  0  0
   30.4670   47.2190   -2.4420 C   0  0  0  0  0  0  0  0  0  0  0  0
   33.1190   47.0870   -3.2460 C   0  0  0  0  0  0  0  0  0  0  0  0
   30.9330   46.0960   -3.1140 C   0  0  0  0  0  0  0  0  0  0  0  0
   34.4370   47.0780   -3.6180 O   0  0  0  0  0  0  0  0  0  0  0  0
   32.2640   46.0230   -3.5400 C   0  0  0  0  0  0  0  0  0  0  0  0
   32.7220   44.8250   -4.3150 C   0  0  0  0  0  0  0  0  0  0  0  0
   32.8630   45.1940   -5.7810 C   0  0  0  0  0  0  0  0  0  0  0  0
   31.7610   44.9440   -6.5170 O   0  0  0  0  0  0  0  0  0  0  0  0
   33.8440   45.6950   -6.3120 O   0  0  0  0  0  0  0  0  0  0  0  0
  1  2  1  0
  2  3  2  0
  2  4  1  0
  4  5  2  0
  3  6  1  0
  4  7  1  0
  5  8  1  0
  6  8  2  0
  5  9  1  0
  7 10  2  0
  9 11  2  0
 10 11  1  0
 11 12  1  0
 12 13  1  0
 13 14  2  0
 13 15  1  0
 14 16  1  0
 15 17  2  0
 16 18  1  0
 16 19  2  0
 17 19  1  0
 19 20  1  0
 20 21  1  0
 21 22  1  0
 21 23  2  0
M  END
