mac-x0131-mac-x0182
     RDKit          3D

 29 33  0  0  0  0  0  0  0  0999 V2000
   31.2030   49.1820   -2.7830 C   0  0  0  0  0  0  0  0  0  0  0  0
   30.3790   48.9590   -4.0260 C   0  0  0  0  0  0  0  0  0  0  0  0
   29.5470   49.9490   -4.5280 C   0  0  0  0  0  0  0  0  0  0  0  0
   30.3090   47.8630   -4.8000 N   0  0  0  0  0  0  0  0  0  0  0  0
   29.2960   51.3160   -4.0200 C   0  0  0  0  0  0  0  0  0  0  0  0
   31.0330   46.6300   -4.5930 C   0  0  0  0  0  0  0  0  0  0  0  0
   28.9500   49.4230   -5.6550 C   0  0  0  0  0  0  0  0  0  0  0  0
   29.4420   48.1470   -5.7860 C   0  0  0  0  0  0  0  0  0  0  0  0
   28.0450   49.8820   -6.5860 C   0  0  0  0  0  0  0  0  0  0  0  0
   28.9970   47.4140   -6.8370 N   0  0  0  0  0  0  0  0  0  0  0  0
   32.5070   46.7820   -4.5160 C   0  0  0  0  0  0  0  0  0  0  0  0
   27.5290   51.1980   -6.4640 N   0  0  0  0  0  0  0  0  0  0  0  0
   27.6230   49.1100   -7.6300 N   0  0  0  0  0  0  0  0  0  0  0  0
   28.1200   47.8670   -7.7340 C   0  0  0  0  0  0  0  0  0  0  0  0
   33.4930   45.9480   -5.1070 C   0  0  0  0  0  0  0  0  0  0  0  0
   33.3520   47.5370   -4.0190 N   0  0  0  0  0  0  0  0  0  0  0  0
   34.5740   47.6820   -3.9440 C   0  0  0  0  0  0  0  0  0  0  0  0
   34.7700   46.5110   -4.7480 C   0  0  0  0  0  0  0  0  0  0  0  0
   34.2450   46.2920   -4.8470 S   0  0  0  0  0  0  0  0  0  0  0  0
   35.2890   46.6090   -5.9220 O   0  0  0  0  0  0  0  0  0  0  0  0
   33.7370   44.7310   -4.3150 N   0  0  0  0  0  0  0  0  0  0  0  0
   35.5280   46.1910   -3.6690 C   0  0  0  0  0  0  0  0  0  0  0  0
   34.1650   44.5060   -3.0080 C   0  0  0  0  0  0  0  0  0  0  0  0
   35.3890   45.2120   -2.7380 C   0  0  0  0  0  0  0  0  0  0  0  0
   36.7230   46.9630   -3.5050 C   0  0  0  0  0  0  0  0  0  0  0  0
   33.5040   43.7470   -2.2040 O   0  0  0  0  0  0  0  0  0  0  0  0
   37.6080   46.7470   -2.5320 C   0  0  0  0  0  0  0  0  0  0  0  0
   36.3100   44.9680   -1.7020 C   0  0  0  0  0  0  0  0  0  0  0  0
   37.4200   45.7550   -1.6230 C   0  0  0  0  0  0  0  0  0  0  0  0
  1  2  1  0
  2  3  2  0
  2  4  1  0
  3  5  1  0
  4  6  1  0
  3  7  1  0
  4  8  1  0
  7  8  2  0
  7  9  1  0
  8 10  1  0
  6 11  1  0
  9 12  1  0
  9 13  2  0
 10 14  2  0
 13 14  1  0
 11 15  2  0
 11 16  1  0
 16 17  1  0
 15 18  1  0
 17 18  2  0
 16 19  1  0
 19 20  2  0
 19 21  1  0
 19 22  1  0
 21 23  1  0
 22 24  2  0
 23 24  1  0
 22 25  1  0
 23 26  2  0
 25 27  2  0
 24 28  1  0
 27 29  1  0
 28 29  2  0
M  END
