mac-x0204-mac-x0588
     RDKit          3D

 25 28  0  0  0  0  0  0  0  0999 V2000
   31.2820   45.4830   -5.4160 O   0  0  0  0  0  0  0  0  0  0  0  0
   30.1600   46.2860   -4.5750 S   0  0  0  0  0  0  0  0  0  0  0  0
   29.2500   45.9370   -5.5610 O   0  0  0  0  0  0  0  0  0  0  0  0
   31.2860   47.0600   -3.6030 C   0  0  0  0  0  0  0  0  0  0  0  0
   29.6570   47.8450   -5.0680 N   0  0  0  0  0  0  0  0  0  0  0  0
   29.3510   45.4910   -3.3630 C   0  0  1  0  0  0  0  0  0  0  0  0
   31.0160   47.3020   -2.2360 C   0  0  0  0  0  0  0  0  0  0  0  0
   32.5540   47.5390   -3.9550 C   0  0  0  0  0  0  0  0  0  0  0  0
   29.6680   48.8470   -4.1060 C   0  0  0  0  0  0  0  0  0  0  0  0
   29.7670   48.1410   -6.4120 C   0  0  2  0  0  0  0  0  0  0  0  0
   28.2470   46.1460   -2.7670 O   0  0  0  0  0  0  0  0  0  0  0  0
   28.6700   44.1690   -3.6610 C   0  0  0  0  0  0  0  0  0  0  0  0
   31.8860   47.9220   -1.3850 C   0  0  0  0  0  0  0  0  0  0  0  0
   33.3890   48.1300   -3.1470 N   0  0  0  0  0  0  0  0  0  0  0  0
   28.8200   49.9850   -4.5130 N   0  0  0  0  0  0  0  0  0  0  0  0
   28.7030   49.2190   -6.7440 C   0  0  1  0  0  0  0  0  0  0  0  0
   29.3990   47.1930   -7.4090 N   0  0  0  0  0  0  0  0  0  0  0  0
   27.6590   43.9820   -2.5500 C   0  0  0  0  0  0  0  0  0  0  0  0
   27.8320   45.2590   -1.7540 C   0  0  0  0  0  0  0  0  0  0  0  0
   31.5260   48.1090   -0.0630 O   0  0  0  0  0  0  0  0  0  0  0  0
   33.0770   48.3260   -1.8800 C   0  0  0  0  0  0  0  0  0  0  0  0
   29.0300   50.3650   -5.8780 C   0  0  1  0  0  0  0  0  0  0  0  0
   28.9240   49.3690   -8.1360 N   0  0  0  0  0  0  0  0  0  0  0  0
   29.3600   48.0490   -8.6090 C   0  0  0  0  0  0  0  0  0  0  0  0
   28.3620   51.5900   -6.2460 N   0  0  0  0  0  0  0  0  0  0  0  0
  1  2  1  0
  2  3  2  0
  2  4  1  0
  2  5  1  0
  6  2  1  6
  4  7  2  0
  4  8  1  0
  5  9  1  0
  5 10  1  0
  6 11  1  0
  6 12  1  0
  7 13  1  0
  8 14  2  0
  9 15  1  0
 10 16  1  0
 10 17  1  6
 12 18  1  0
 11 19  1  0
 18 19  1  0
 13 20  1  0
 13 21  2  0
 14 21  1  0
 15 22  1  0
 16 22  1  0
 16 23  1  6
 17 24  1  0
 23 24  1  0
 22 25  1  6
M  END
