mac-x0451-mac-x0472
     RDKit          3D

 20 22  0  0  0  0  0  0  0  0999 V2000
   28.3950   54.0220   -8.8470 N   0  0  0  0  0  0  0  0  0  0  0  0
   28.7220   53.0190   -8.0150 C   0  0  0  0  0  0  0  0  0  0  0  0
   28.6690   53.1420   -6.7160 N   0  0  0  0  0  0  0  0  0  0  0  0
   29.2390   51.4940   -8.6040 S   0  0  0  0  0  0  0  0  0  0  0  0
   29.0600   51.9640   -6.1190 C   0  0  0  0  0  0  0  0  0  0  0  0
   29.4160   50.9290   -6.9890 C   0  0  0  0  0  0  0  0  0  0  0  0
   29.1210   51.7410   -4.7330 C   0  0  0  0  0  0  0  0  0  0  0  0
   29.8380   49.6750   -6.5250 C   0  0  0  0  0  0  0  0  0  0  0  0
   29.5370   50.5080   -4.2590 C   0  0  0  0  0  0  0  0  0  0  0  0
   29.8910   49.4970   -5.1410 C   0  0  0  0  0  0  0  0  0  0  0  0
   30.2980   48.3420   -4.5620 O   0  0  0  0  0  0  0  0  0  0  0  0
   31.4580   48.5990   -3.4460 S   0  0  0  0  0  0  0  0  0  0  0  0
   30.8380   49.2740   -2.3200 O   0  0  0  0  0  0  0  0  0  0  0  0
   32.2250   47.3880   -3.2410 O   0  0  0  0  0  0  0  0  0  0  0  0
   32.4980   49.8120   -4.2500 C   0  0  0  0  0  0  0  0  0  0  0  0
   33.5440   49.3940   -5.0750 C   0  0  0  0  0  0  0  0  0  0  0  0
   32.2520   51.1780   -4.0480 C   0  0  0  0  0  0  0  0  0  0  0  0
   34.3480   50.3450   -5.7000 C   0  0  0  0  0  0  0  0  0  0  0  0
   33.0610   52.1220   -4.6790 C   0  0  0  0  0  0  0  0  0  0  0  0
   34.1080   51.7070   -5.5030 C   0  0  0  0  0  0  0  0  0  0  0  0
  1  2  1  0
  2  3  2  0
  2  4  1  0
  3  5  1  0
  4  6  1  0
  5  6  2  0
  5  7  1  0
  6  8  1  0
  7  9  2  0
  8 10  2  0
  9 10  1  0
 10 11  1  0
 12 11  1  0
 12 13  2  0
 12 14  2  0
 12 15  1  0
 15 16  2  0
 15 17  1  0
 16 18  1  0
 17 19  2  0
 18 20  2  0
 19 20  1  0
M  END
