mac-x0193-mac-x0178
     RDKit          3D

 25 26  0  0  0  0  0  0  0  0999 V2000
   34.2080   45.1150   -7.6850 O   0  0  0  0  0  0  0  0  0  0  0  0
   33.7300   45.3210   -6.3810 C   0  0  1  0  0  0  0  0  0  0  0  0
   32.2930   45.4430   -6.2110 N   0  0  0  0  0  0  0  0  0  0  0  0
   34.1450   44.1770   -5.3890 C   0  0  0  0  0  0  0  0  0  0  0  0
   34.8110   44.6120   -4.1490 N   0  0  0  0  0  0  0  0  0  0  0  0
   32.3780   45.7880   -5.0100 C   0  0  0  0  0  0  0  0  0  0  0  0
   35.1220   43.7360   -3.1310 C   0  0  0  0  0  0  0  0  0  0  0  0
   31.3520   46.0150   -4.0370 C   0  0  0  0  0  0  0  0  0  0  0  0
   34.5810   42.6470   -2.9760 O   0  0  0  0  0  0  0  0  0  0  0  0
   36.1000   44.2640   -2.3240 N   0  0  0  0  0  0  0  0  0  0  0  0
   30.0820   45.4590   -4.1430 C   0  0  0  0  0  0  0  0  0  0  0  0
   31.7420   46.8030   -2.9690 C   0  0  0  0  0  0  0  0  0  0  0  0
   37.2780   43.5340   -1.8340 C   0  0  0  0  0  0  0  0  0  0  0  0
   29.1820   45.6980   -3.1070 C   0  0  0  0  0  0  0  0  0  0  0  0
   30.8630   47.0410   -1.9500 C   0  0  0  0  0  0  0  0  0  0  0  0
   37.5660   42.2750   -2.6590 C   0  0  0  0  0  0  0  0  0  0  0  0
   37.1560   43.2660   -0.3210 C   0  0  0  0  0  0  0  0  0  0  0  0
   29.5960   46.4810   -2.0190 C   0  0  0  0  0  0  0  0  0  0  0  0
   28.5330   46.7940   -0.6550 S   0  0  0  0  0  0  0  0  0  0  0  0
   38.7550   41.4860   -2.1010 C   0  0  0  0  0  0  0  0  0  0  0  0
   38.3360   42.4720    0.2310 C   0  0  0  0  0  0  0  0  0  0  0  0
   28.1030   45.2210   -0.2330 N   0  0  0  0  0  0  0  0  0  0  0  0
   29.3510   47.3130    0.4170 O   0  0  0  0  0  0  0  0  0  0  0  0
   27.3470   47.4490   -1.1380 O   0  0  0  0  0  0  0  0  0  0  0  0
   39.3610   42.1390   -0.8530 C   0  0  0  0  0  0  0  0  0  0  0  0
  2  1  1  6
  2  3  1  0
  2  4  1  0
  4  5  1  0
  3  6  2  3
  5  7  1  0
  6  8  1  0
  7  9  2  0
  7 10  1  0
  8 11  2  0
  8 12  1  0
 10 13  1  0
 11 14  1  0
 12 15  2  0
 13 16  1  0
 13 17  1  0
 14 18  2  0
 15 18  1  0
 18 19  1  0
 16 20  1  0
 17 21  1  0
 19 22  1  0
 19 23  2  0
 19 24  2  0
 20 25  1  0
 21 25  1  0
M  END
