mac-x0441-mac-x0451
     RDKit          3D

 30 33  0  0  0  0  0  0  0  0999 V2000
   34.2810   45.2670   -6.1540 O   0  0  0  0  0  0  0  0  0  0  0  0
   32.9960   45.2560   -5.7380 C   0  0  0  0  0  0  0  0  0  0  0  0
   31.9910   45.2540   -6.5320 N   0  0  0  0  0  0  0  0  0  0  0  0
   32.8730   45.2440   -4.2400 C   0  0  0  0  0  0  0  0  0  0  0  0
   30.6160   45.2470   -6.0340 C   0  0  0  0  0  0  0  0  0  0  0  0
   34.1200   44.9770   -3.5420 N   0  0  0  0  0  0  0  0  0  0  0  0
   30.0020   46.6290   -6.2670 C   0  0  0  0  0  0  0  0  0  0  0  0
   34.3380   43.7470   -3.0240 N   0  0  0  0  0  0  0  0  0  0  0  0
   35.1590   45.8320   -3.3170 C   0  0  0  0  0  0  0  0  0  0  0  0
   30.1880   47.4260   -5.0840 O   0  0  0  0  0  0  0  0  0  0  0  0
   35.5570   43.8180   -2.4470 C   0  0  0  0  0  0  0  0  0  0  0  0
   36.1070   45.1210   -2.6140 C   0  0  0  0  0  0  0  0  0  0  0  0
   35.2710   47.2550   -3.7370 C   0  0  0  0  0  0  0  0  0  0  0  0
   36.1960   42.6520   -1.7380 C   0  0  0  0  0  0  0  0  0  0  0  0
   37.4050   45.7060   -2.1730 C   0  0  0  0  0  0  0  0  0  0  0  0
   36.3560   47.9380   -2.8850 C   0  0  0  0  0  0  0  0  0  0  0  0
   29.9850   48.7600   -5.3280 C   0  0  0  0  0  0  0  0  0  0  0  0
   37.2850   42.1850   -2.4120 F   0  0  0  0  0  0  0  0  0  0  0  0
   36.6370   43.0000   -0.4980 F   0  0  0  0  0  0  0  0  0  0  0  0
   35.3620   41.5900   -1.5660 F   0  0  0  0  0  0  0  0  0  0  0  0
   37.6430   47.0910   -2.8100 C   0  0  0  0  0  0  0  0  0  0  0  0
   30.1610   49.6510   -4.2750 C   0  0  0  0  0  0  0  0  0  0  0  0
   29.6120   49.1930   -6.6030 C   0  0  0  0  0  0  0  0  0  0  0  0
   29.4170   50.5710   -6.7920 C   0  0  0  0  0  0  0  0  0  0  0  0
   29.9620   51.0240   -4.4800 C   0  0  0  0  0  0  0  0  0  0  0  0
   29.5840   51.4910   -5.7570 C   0  0  0  0  0  0  0  0  0  0  0  0
   28.9610   51.4150   -8.2190 S   0  0  0  0  0  0  0  0  0  0  0  0
   29.0210   52.8990   -7.3650 C   0  0  0  0  0  0  0  0  0  0  0  0
   29.3540   52.8170   -6.1010 N   0  0  0  0  0  0  0  0  0  0  0  0
   28.7390   54.0680   -7.9730 N   0  0  0  0  0  0  0  0  0  0  0  0
  1  2  1  0
  2  3  2  3
  2  4  1  0
  3  5  1  0
  4  6  1  0
  5  7  1  0
  6  8  1  0
  6  9  1  0
  7 10  1  0
  8 11  2  0
  9 12  2  0
 11 12  1  0
  9 13  1  0
 11 14  1  0
 12 15  1  0
 13 16  1  0
 10 17  1  0
 14 18  1  0
 14 19  1  0
 14 20  1  0
 15 21  1  0
 16 21  1  0
 17 22  2  0
 17 23  1  0
 23 24  2  0
 22 25  1  0
 24 26  1  0
 25 26  2  0
 24 27  1  0
 27 28  1  0
 26 29  1  0
 28 29  2  0
 28 30  1  0
M  END
