mac-x0179-mac-x0204
     RDKit          3D

 24 26  0  0  0  0  0  0  0  0999 V2000
   31.5230   45.0690   -4.8680 O   0  0  0  0  0  0  0  0  0  0  0  0
   32.8610   45.2910   -4.7630 C   0  0  0  0  0  0  0  0  0  0  0  0
   33.7010   45.1630   -5.6430 O   0  0  0  0  0  0  0  0  0  0  0  0
   30.7140   46.1300   -5.0810 C   0  0  0  0  0  0  0  0  0  0  0  0
   33.2370   45.7430   -3.3500 C   0  0  0  0  0  0  0  0  0  0  0  0
   30.0790   46.4210   -6.0790 O   0  0  0  0  0  0  0  0  0  0  0  0
   30.6820   46.9690   -3.8610 C   0  0  0  0  0  0  0  0  0  0  0  0
   34.6530   45.6710   -3.0380 N   0  0  0  0  0  0  0  0  0  0  0  0
   30.2810   46.5030   -2.6060 C   0  0  0  0  0  0  0  0  0  0  0  0
   31.0700   48.3050   -3.9630 C   0  0  0  0  0  0  0  0  0  0  0  0
   35.1960   44.6700   -2.2790 C   0  0  0  0  0  0  0  0  0  0  0  0
   35.4750   46.7670   -3.0530 C   0  0  0  0  0  0  0  0  0  0  0  0
   30.2870   47.3760   -1.5230 C   0  0  0  0  0  0  0  0  0  0  0  0
   31.0830   49.1750   -2.9180 N   0  0  0  0  0  0  0  0  0  0  0  0
   34.8790   43.4970   -2.2220 O   0  0  0  0  0  0  0  0  0  0  0  0
   35.4430   47.7350   -3.7900 O   0  0  0  0  0  0  0  0  0  0  0  0
   29.8920   46.8970   -0.3100 O   0  0  0  0  0  0  0  0  0  0  0  0
   36.2800   45.2800   -1.5060 C   0  0  0  0  0  0  0  0  0  0  0  0
   36.4480   46.5670   -1.9830 C   0  0  0  0  0  0  0  0  0  0  0  0
   30.6910   48.6870   -1.7200 C   0  0  0  0  0  0  0  0  0  0  0  0
   37.0530   44.7710   -0.4830 C   0  0  0  0  0  0  0  0  0  0  0  0
   37.4010   47.4220   -1.4630 C   0  0  0  0  0  0  0  0  0  0  0  0
   38.0260   45.6170    0.0610 C   0  0  0  0  0  0  0  0  0  0  0  0
   38.1980   46.9310   -0.4250 C   0  0  0  0  0  0  0  0  0  0  0  0
  1  2  1  0
  2  3  2  0
  1  4  1  0
  2  5  1  0
  4  6  2  0
  4  7  1  0
  5  8  1  0
  7  9  2  0
  7 10  1  0
  8 11  1  0
  8 12  1  0
  9 13  1  0
 10 14  2  0
 11 15  2  0
 12 16  2  0
 13 17  1  0
 11 18  1  0
 12 19  1  0
 18 19  2  0
 13 20  2  0
 14 20  1  0
 18 21  1  0
 19 22  1  0
 21 23  2  0
 22 24  2  0
 23 24  1  0
M  END
