mac-x0387-mac-x0132
     RDKit          3D

 21 24  0  0  0  0  0  0  0  0999 V2000
   28.7130   51.5480   -7.1710 N   0  0  0  0  0  0  0  0  0  0  0  0
   28.8090   50.1200   -7.2960 C   0  0  0  0  0  0  0  0  0  0  0  0
   28.1230   49.4920   -8.2750 N   0  0  0  0  0  0  0  0  0  0  0  0
   29.0370   52.3850   -6.0570 C   0  0  0  0  0  0  0  0  0  0  0  0
   29.6290   49.3860   -6.3750 C   0  0  0  0  0  0  0  0  0  0  0  0
   28.9850   51.8260   -4.7540 C   0  0  0  0  0  0  0  0  0  0  0  0
   29.3920   53.6700   -6.2410 N   0  0  0  0  0  0  0  0  0  0  0  0
   29.6840   47.9780   -6.5150 C   0  0  0  0  0  0  0  0  0  0  0  0
   28.2080   48.1550   -8.3780 C   0  0  0  0  0  0  0  0  0  0  0  0
   30.3960   49.9540   -5.3200 C   0  0  0  0  0  0  0  0  0  0  0  0
   29.3370   52.6870   -3.7070 C   0  0  0  0  0  0  0  0  0  0  0  0
   29.6970   54.3890   -5.1590 C   0  0  0  0  0  0  0  0  0  0  0  0
   28.6140   50.4860   -4.4440 C   0  0  0  0  0  0  0  0  0  0  0  0
   28.9610   47.3640   -7.5350 C   0  0  0  0  0  0  0  0  0  0  0  0
   30.4590   47.2040   -5.6330 C   0  0  0  0  0  0  0  0  0  0  0  0
   31.1620   49.1740   -4.4520 C   0  0  0  0  0  0  0  0  0  0  0  0
   29.6910   53.9590   -3.8940 N   0  0  0  0  0  0  0  0  0  0  0  0
   29.3210   52.2000   -2.4070 C   0  0  0  0  0  0  0  0  0  0  0  0
   28.6060   50.0190   -3.1350 C   0  0  0  0  0  0  0  0  0  0  0  0
   31.1910   47.7980   -4.6080 C   0  0  0  0  0  0  0  0  0  0  0  0
   28.9630   50.8810   -2.1120 C   0  0  0  0  0  0  0  0  0  0  0  0
  1  2  1  0
  2  3  2  0
  1  4  1  0
  2  5  1  0
  4  6  1  0
  4  7  2  0
  5  8  2  0
  3  9  1  0
  5 10  1  0
  6 11  2  0
  7 12  1  0
  6 13  1  0
  8 14  1  0
  9 14  2  0
  8 15  1  0
 10 16  2  0
 11 17  1  0
 12 17  2  0
 11 18  1  0
 13 19  2  0
 15 20  2  0
 16 20  1  0
 18 21  2  0
 19 21  1  0
M  END
