mac-x0347-mac-x0231
     RDKit          3D

 29 32  0  0  0  0  0  0  0  0999 V2000
   29.0690   45.9190   -7.4370 O   0  0  0  0  0  0  0  0  0  0  0  0
   30.0960   46.2610   -6.6330 C   0  0  0  0  0  0  0  0  0  0  0  0
   31.1650   45.5530   -6.7050 N   0  0  0  0  0  0  0  0  0  0  0  0
   29.7520   47.4320   -5.8080 C   0  0  0  0  0  0  0  0  0  0  0  0
   32.3180   45.8560   -5.8690 C   0  0  2  0  0  0  0  0  0  0  0  0
   29.8990   48.7310   -6.2880 C   0  0  0  0  0  0  0  0  0  0  0  0
   29.2630   47.2440   -4.5240 C   0  0  0  0  0  0  0  0  0  0  0  0
   33.4150   46.4280   -6.5700 O   0  0  0  0  0  0  0  0  0  0  0  0
   32.7740   44.5750   -5.1620 C   0  0  0  0  0  0  0  0  0  0  0  0
   29.5530   49.8200   -5.4730 C   0  0  0  0  0  0  0  0  0  0  0  0
   28.9170   48.2660   -3.7030 N   0  0  0  0  0  0  0  0  0  0  0  0
   29.0710   49.5160   -4.1960 C   0  0  0  0  0  0  0  0  0  0  0  0
   29.6850   51.2060   -5.9320 C   0  0  0  0  0  0  0  0  0  0  0  0
   31.9620   44.2900   -3.9040 C   0  0  0  0  0  0  0  0  0  0  0  0
   28.8720   51.6990   -6.9700 C   0  0  0  0  0  0  0  0  0  0  0  0
   30.6190   52.0860   -5.3560 C   0  0  0  0  0  0  0  0  0  0  0  0
   31.8520   45.3050   -2.8170 C   0  0  0  0  0  0  0  0  0  0  0  0
   31.3820   43.1220   -3.8430 N   0  0  0  0  0  0  0  0  0  0  0  0
   28.9860   53.0150   -7.4140 C   0  0  0  0  0  0  0  0  0  0  0  0
   30.7350   53.4050   -5.8010 C   0  0  0  0  0  0  0  0  0  0  0  0
   30.9870   45.0070   -1.7650 C   0  0  0  0  0  0  0  0  0  0  0  0
   30.6470   42.8330   -2.7340 N   0  0  0  0  0  0  0  0  0  0  0  0
   32.5580   46.5180   -2.7970 C   0  0  0  0  0  0  0  0  0  0  0  0
   29.9180   53.8690   -6.8280 C   0  0  0  0  0  0  0  0  0  0  0  0
   30.2480   43.7370   -1.7850 C   0  0  0  0  0  0  0  0  0  0  0  0
   30.8220   45.9060   -0.7010 C   0  0  0  0  0  0  0  0  0  0  0  0
   32.3930   47.4160   -1.7370 C   0  0  0  0  0  0  0  0  0  0  0  0
   29.3340   43.5100   -0.9990 O   0  0  0  0  0  0  0  0  0  0  0  0
   31.5260   47.1070   -0.6920 C   0  0  0  0  0  0  0  0  0  0  0  0
  1  2  1  0
  2  3  2  3
  2  4  1  0
  3  5  1  0
  4  6  2  0
  4  7  1  0
  5  8  1  6
  5  9  1  0
  6 10  1  0
  7 11  2  0
 10 12  2  0
 11 12  1  0
 10 13  1  0
  9 14  1  0
 13 15  2  0
 13 16  1  0
 14 17  1  0
 14 18  2  0
 15 19  1  0
 16 20  2  0
 17 21  2  0
 18 22  1  0
 17 23  1  0
 19 24  2  0
 20 24  1  0
 21 25  1  0
 22 25  1  0
 21 26  1  0
 23 27  2  0
 25 28  2  0
 26 29  2  0
 27 29  1  0
M  END
