mac-x0417-mac-x0371
     RDKit          3D

 21 23  0  0  0  0  0  0  0  0999 V2000
   32.3870   46.0920   -6.5810 O   0  0  0  0  0  0  0  0  0  0  0  0
   33.5280   45.8440   -5.8900 C   0  0  0  0  0  0  0  0  0  0  0  0
   34.5860   46.2670   -6.3130 O   0  0  0  0  0  0  0  0  0  0  0  0
   33.2880   45.0140   -4.6660 C   0  0  1  0  0  0  0  0  0  0  0  0
   34.4080   44.9220   -3.6480 C   0  0  0  0  0  0  0  0  0  0  0  0
   31.8680   44.9640   -4.1180 C   0  0  0  0  0  0  0  0  0  0  0  0
   34.6490   43.7710   -2.9870 N   0  0  0  0  0  0  0  0  0  0  0  0
   35.3580   45.9210   -3.2430 C   0  0  0  0  0  0  0  0  0  0  0  0
   31.1810   46.0300   -3.4610 C   0  0  0  0  0  0  0  0  0  0  0  0
   31.1610   43.7620   -4.2860 C   0  0  0  0  0  0  0  0  0  0  0  0
   31.8580   42.3860   -5.0760 Cl  0  0  0  0  0  0  0  0  0  0  0  0
   31.8500   47.6050   -3.1540 Cl  0  0  0  0  0  0  0  0  0  0  0  0
   35.7370   43.9940   -2.1670 O   0  0  0  0  0  0  0  0  0  0  0  0
   36.1630   45.2690   -2.3200 C   0  0  0  0  0  0  0  0  0  0  0  0
   35.6440   47.2660   -3.5340 C   0  0  0  0  0  0  0  0  0  0  0  0
   29.8650   45.8560   -3.0070 C   0  0  0  0  0  0  0  0  0  0  0  0
   29.8520   43.6050   -3.8300 C   0  0  0  0  0  0  0  0  0  0  0  0
   37.2440   45.8470   -1.6590 C   0  0  0  0  0  0  0  0  0  0  0  0
   36.7260   47.8830   -2.8840 C   0  0  0  0  0  0  0  0  0  0  0  0
   29.2020   44.6460   -3.1910 C   0  0  0  0  0  0  0  0  0  0  0  0
   37.5130   47.1850   -1.9650 C   0  0  0  0  0  0  0  0  0  0  0  0
  1  2  1  0
  2  3  2  0
  4  2  1  1
  4  5  1  0
  4  6  1  0
  5  7  2  0
  5  8  1  0
  6  9  2  0
  6 10  1  0
 10 11  1  0
  9 12  1  0
  7 13  1  0
  8 14  2  0
 13 14  1  0
  8 15  1  0
  9 16  1  0
 10 17  2  0
 14 18  1  0
 15 19  2  0
 16 20  2  0
 17 20  1  0
 18 21  2  0
 19 21  1  0
M  END
