mac-x0441-mac-x0223
     RDKit          3D

 26 28  0  0  0  0  0  0  0  0999 V2000
   33.9600   45.6600   -6.1240 O   0  0  0  0  0  0  0  0  0  0  0  0
   32.7140   45.4280   -5.6440 C   0  0  0  0  0  0  0  0  0  0  0  0
   31.7450   45.5260   -6.3910 O   0  0  0  0  0  0  0  0  0  0  0  0
   32.5810   45.0230   -4.1730 C   0  0  1  0  0  0  0  0  0  0  0  0
   33.8960   44.8680   -3.4790 N   0  0  0  0  0  0  0  0  0  0  0  0
   31.4310   45.7260   -3.3830 C   0  0  0  0  0  0  0  0  0  0  0  0
   34.2050   43.6600   -2.9330 N   0  0  0  0  0  0  0  0  0  0  0  0
   34.9240   45.7780   -3.2900 C   0  0  0  0  0  0  0  0  0  0  0  0
   31.5270   47.0480   -2.8930 C   0  0  0  0  0  0  0  0  0  0  0  0
   30.2100   45.0250   -3.1260 C   0  0  0  0  0  0  0  0  0  0  0  0
   35.4390   43.7980   -2.3950 C   0  0  0  0  0  0  0  0  0  0  0  0
   35.9230   45.1130   -2.5970 C   0  0  0  0  0  0  0  0  0  0  0  0
   34.9980   47.2010   -3.7260 C   0  0  0  0  0  0  0  0  0  0  0  0
   29.1480   45.6230   -2.4100 C   0  0  0  0  0  0  0  0  0  0  0  0
   30.4730   47.6410   -2.1830 C   0  0  0  0  0  0  0  0  0  0  0  0
   36.1570   42.6730   -1.6880 C   0  0  0  0  0  0  0  0  0  0  0  0
   27.9330   45.0590   -2.1000 O   0  0  0  0  0  0  0  0  0  0  0  0
   37.2140   45.7440   -2.1900 C   0  0  0  0  0  0  0  0  0  0  0  0
   36.1210   47.9230   -2.9480 C   0  0  0  0  0  0  0  0  0  0  0  0
   29.3040   46.9300   -1.9490 C   0  0  0  0  0  0  0  0  0  0  0  0
   37.2430   42.2190   -2.3700 F   0  0  0  0  0  0  0  0  0  0  0  0
   36.5930   43.0470   -0.4560 F   0  0  0  0  0  0  0  0  0  0  0  0
   35.3400   41.6010   -1.5010 F   0  0  0  0  0  0  0  0  0  0  0  0
   27.8030   43.6500   -2.2540 C   0  0  0  0  0  0  0  0  0  0  0  0
   28.2950   47.5420   -1.2490 O   0  0  0  0  0  0  0  0  0  0  0  0
   37.4220   47.0980   -2.8910 C   0  0  0  0  0  0  0  0  0  0  0  0
  1  2  1  0
  2  3  2  0
  4  2  1  6
  4  5  1  0
  4  6  1  0
  5  7  1  0
  5  8  1  0
  6  9  2  0
  6 10  1  0
  7 11  2  0
  8 12  2  0
 11 12  1  0
  8 13  1  0
 10 14  2  0
  9 15  1  0
 11 16  1  0
 14 17  1  0
 12 18  1  0
 13 19  1  0
 14 20  1  0
 15 20  2  0
 16 21  1  0
 16 22  1  0
 16 23  1  0
 17 24  1  0
 20 25  1  0
 18 26  1  0
 19 26  1  0
M  END
