mac-x0277-mac-x0224
     RDKit          3D

 21 22  0  0  0  0  0  0  0  0999 V2000
   26.8430   46.3890   -1.0550 Cl  0  0  0  0  0  0  0  0  0  0  0  0
   28.2350   46.1060   -2.0380 C   0  0  0  0  0  0  0  0  0  0  0  0
   29.5370   46.1760   -1.5340 C   0  0  0  0  0  0  0  0  0  0  0  0
   28.0270   45.7950   -3.3840 C   0  0  0  0  0  0  0  0  0  0  0  0
   29.8660   46.5530    0.1210 Cl  0  0  0  0  0  0  0  0  0  0  0  0
   30.6240   45.9360   -2.3790 C   0  0  0  0  0  0  0  0  0  0  0  0
   29.1130   45.5560   -4.2260 C   0  0  0  0  0  0  0  0  0  0  0  0
   30.4240   45.6240   -3.7340 C   0  0  0  0  0  0  0  0  0  0  0  0
   31.5990   45.3680   -4.6550 C   0  0  0  0  0  0  0  0  0  0  0  0
   32.0290   46.5920   -5.5000 C   0  0  0  0  0  0  0  0  0  0  0  0
   33.4480   46.6860   -5.4500 O   0  0  0  0  0  0  0  0  0  0  0  0
   31.7720   46.3610   -6.8780 O   0  0  0  0  0  0  0  0  0  0  0  0
   31.3190   47.8640   -5.0360 C   0  0  0  0  0  0  0  0  0  0  0  0
   30.0400   48.1820   -5.5460 C   0  0  0  0  0  0  0  0  0  0  0  0
   31.8780   48.7500   -4.1060 C   0  0  0  0  0  0  0  0  0  0  0  0
   33.1160   48.4770   -3.5890 O   0  0  0  0  0  0  0  0  0  0  0  0
   29.3530   49.3330   -5.1450 C   0  0  0  0  0  0  0  0  0  0  0  0
   31.2070   49.9010   -3.6940 C   0  0  0  0  0  0  0  0  0  0  0  0
   27.7390   49.7490   -5.7840 S   0  0  0  0  0  0  0  0  0  0  0  0
   29.9450   50.1880   -4.2160 C   0  0  0  0  0  0  0  0  0  0  0  0
   28.0110   51.4820   -6.2430 C   0  0  0  0  0  0  0  0  0  0  0  0
  1  2  1  0
  2  3  2  0
  2  4  1  0
  3  5  1  0
  3  6  1  0
  4  7  2  0
  6  8  2  0
  7  8  1  0
  8  9  1  0
  9 10  1  0
 10 11  1  0
 10 12  1  0
 10 13  1  0
 13 14  2  0
 13 15  1  0
 15 16  1  0
 14 17  1  0
 15 18  2  0
 17 19  1  0
 17 20  2  0
 18 20  1  0
 19 21  1  0
M  END
