mac-x0439-mac-x0385
     RDKit          3D

 24 26  0  0  0  0  0  0  0  0999 V2000
   31.4800   45.9400   -1.1880 Cl  0  0  0  0  0  0  0  0  0  0  0  0
   29.9840   45.2620   -1.7130 C   0  0  0  0  0  0  0  0  0  0  0  0
   29.4860   45.5860   -3.0830 C   0  0  1  0  0  0  0  0  0  0  0  0
   29.2630   44.4520   -0.9100 C   0  0  0  0  0  0  0  0  0  0  0  0
   30.3980   45.6730   -4.2560 C   0  0  0  0  0  0  0  0  0  0  0  0
   28.7400   44.3510   -3.5620 C   0  0  0  0  0  0  0  0  0  0  0  0
   28.0000   43.8890   -1.3730 C   0  0  0  0  0  0  0  0  0  0  0  0
   30.1090   44.6870   -5.1210 C   0  0  0  0  0  0  0  0  0  0  0  0
   29.0860   43.8590   -4.7120 N   0  0  0  0  0  0  0  0  0  0  0  0
   27.6900   43.8140   -2.6790 C   0  0  0  0  0  0  0  0  0  0  0  0
   30.8390   44.5070   -6.4060 C   0  0  0  0  0  0  0  0  0  0  0  0
   30.9240   43.1960   -6.7360 O   0  0  0  0  0  0  0  0  0  0  0  0
   31.3720   45.3460   -7.2160 N   0  0  0  0  0  0  0  0  0  0  0  0
   31.3150   46.7770   -6.9180 C   0  0  0  0  0  0  0  0  0  0  0  0
   30.1230   47.4030   -7.6420 C   0  0  0  0  0  0  0  0  0  0  0  0
   28.8950   47.6290   -6.7480 C   0  0  0  0  0  0  0  0  0  0  0  0
   29.0460   48.7750   -5.7760 C   0  0  0  0  0  0  0  0  0  0  0  0
   28.5770   49.9830   -6.1450 N   0  0  0  0  0  0  0  0  0  0  0  0
   29.6380   48.5220   -4.5970 N   0  0  0  0  0  0  0  0  0  0  0  0
   28.7190   50.9860   -5.2660 C   0  0  0  0  0  0  0  0  0  0  0  0
   29.7570   49.5570   -3.7500 C   0  0  0  0  0  0  0  0  0  0  0  0
   28.2200   52.2200   -5.6880 N   0  0  0  0  0  0  0  0  0  0  0  0
   29.3130   50.8320   -4.0270 C   0  0  0  0  0  0  0  0  0  0  0  0
   29.4720   51.9460   -3.0470 C   0  0  0  0  0  0  0  0  0  0  0  0
  1  2  1  0
  2  3  1  0
  2  4  2  0
  3  5  1  6
  3  6  1  0
  4  7  1  0
  5  8  2  0
  6  9  2  0
  8  9  1  0
  6 10  1  0
  7 10  2  0
  8 11  1  0
 11 12  1  0
 11 13  2  3
 13 14  1  0
 14 15  1  0
 15 16  1  0
 16 17  1  0
 17 18  2  0
 17 19  1  0
 18 20  1  0
 19 21  2  0
 20 22  1  0
 20 23  2  0
 21 23  1  0
 23 24  1  0
M  END
