mac-x0132-mac-x0567
     RDKit          3D

 16 18  0  0  0  0  0  0  0  0999 V2000
   28.4540   52.7860   -7.4810 N   0  0  0  0  0  0  0  0  0  0  0  0
   28.9430   52.9970   -6.1990 C   0  0  0  0  0  0  0  0  0  0  0  0
   29.1040   54.2940   -5.8850 N   0  0  0  0  0  0  0  0  0  0  0  0
   29.2320   51.9590   -5.3310 C   0  0  0  0  0  0  0  0  0  0  0  0
   29.7100   52.3910   -4.0830 C   0  0  0  0  0  0  0  0  0  0  0  0
   29.5660   54.5770   -4.6660 C   0  0  0  0  0  0  0  0  0  0  0  0
   29.0570   50.4610   -5.6300 C   0  0  1  0  0  0  0  0  0  0  0  0
   29.8840   53.6840   -3.7310 N   0  0  0  0  0  0  0  0  0  0  0  0
   30.0650   51.4390   -3.0350 C   0  0  0  0  0  0  0  0  0  0  0  0
   28.8030   49.6960   -4.2790 C   0  0  0  0  0  0  0  0  0  0  0  0
   27.9190   50.1920   -6.5980 N   0  0  0  0  0  0  0  0  0  0  0  0
   30.2230   49.7820   -6.3910 C   0  0  0  0  0  0  0  0  0  0  0  0
   29.6470   50.1710   -3.1180 C   0  0  0  0  0  0  0  0  0  0  0  0
   29.5140   48.6430   -7.1180 C   0  0  1  0  0  0  0  0  0  0  0  0
   28.4150   49.3570   -7.6960 N   0  0  0  0  0  0  0  0  0  0  0  0
   30.2490   48.0090   -8.1810 N   0  0  0  0  0  0  0  0  0  0  0  0
  1  2  1  0
  2  3  2  0
  2  4  1  0
  4  5  2  0
  3  6  1  0
  4  7  1  0
  5  8  1  0
  6  8  2  0
  5  9  1  0
  7 10  1  1
  7 11  1  0
  7 12  1  0
  9 13  2  0
 10 13  1  0
 12 14  1  0
 11 15  1  0
 14 15  1  0
 14 16  1  6
M  END
