mac-x0576-mac-x0228
     RDKit          3D

 18 20  0  0  0  0  0  0  0  0999 V2000
   29.0750   47.6900   -9.1960 N   0  0  0  0  0  0  0  0  0  0  0  0
   29.2640   48.4070   -8.0320 C   0  0  0  0  0  0  0  0  0  0  0  0
   29.1300   49.7360   -8.0830 N   0  0  0  0  0  0  0  0  0  0  0  0
   29.5650   47.7180   -6.9460 N   0  0  0  0  0  0  0  0  0  0  0  0
   29.7450   48.4320   -5.8120 C   0  0  0  0  0  0  0  0  0  0  0  0
   29.3150   50.4210   -6.9390 C   0  0  0  0  0  0  0  0  0  0  0  0
   30.0910   47.5580   -4.6520 C   0  0  0  0  0  0  0  0  0  0  0  0
   29.6320   49.8050   -5.7240 C   0  0  0  0  0  0  0  0  0  0  0  0
   29.1680   51.8270   -7.0530 N   0  0  0  0  0  0  0  0  0  0  0  0
   29.9550   46.2600   -4.9510 O   0  0  0  0  0  0  0  0  0  0  0  0
   30.4720   47.8860   -3.5400 O   0  0  0  0  0  0  0  0  0  0  0  0
   29.0410   52.6020   -5.8230 C   0  0  1  0  0  0  0  0  0  0  0  0
   29.8120   50.5430   -4.5550 N   0  0  0  0  0  0  0  0  0  0  0  0
   27.8210   53.2860   -5.9720 O   0  0  0  0  0  0  0  0  0  0  0  0
   29.0410   51.7890   -4.5070 C   0  0  1  0  0  0  0  0  0  0  0  0
   30.1140   53.6600   -5.5500 C   0  0  0  0  0  0  0  0  0  0  0  0
   29.9660   53.9860   -4.1580 O   0  0  0  0  0  0  0  0  0  0  0  0
   29.6500   52.7560   -3.4890 C   0  0  0  0  0  0  0  0  0  0  0  0
  1  2  1  0
  2  3  2  0
  2  4  1  0
  4  5  2  0
  3  6  1  0
  5  7  1  0
  5  8  1  0
  6  8  2  0
  6  9  1  0
  7 10  1  0
  7 11  2  0
  9 12  1  0
  8 13  1  0
 12 14  1  6
 12 15  1  0
 13 15  1  0
 12 16  1  0
 16 17  1  0
 15 18  1  1
 17 18  1  0
M  END
