mac-x0338-mac-x0193
     RDKit          3D

 26 27  0  0  0  0  0  0  0  0999 V2000
   28.5420   51.8190   -7.6300 N   0  0  0  0  0  0  0  0  0  0  0  0
   28.8910   52.4100   -6.4430 C   0  0  0  0  0  0  0  0  0  0  0  0
   28.8330   53.6230   -6.2870 O   0  0  0  0  0  0  0  0  0  0  0  0
   29.3420   51.4870   -5.3630 C   0  0  0  0  0  0  0  0  0  0  0  0
   29.2720   50.1400   -5.5970 N   0  0  0  0  0  0  0  0  0  0  0  0
   29.8100   52.0110   -4.1670 C   0  0  0  0  0  0  0  0  0  0  0  0
   29.6920   49.3450   -4.5760 C   0  0  0  0  0  0  0  0  0  0  0  0
   30.2310   51.2230   -3.1490 N   0  0  0  0  0  0  0  0  0  0  0  0
   29.6370   47.8450   -4.7590 C   0  0  0  0  0  0  0  0  0  0  0  0
   30.1620   49.8900   -3.3800 C   0  0  0  0  0  0  0  0  0  0  0  0
   30.4200   47.3670   -5.9810 C   0  0  0  0  0  0  0  0  0  0  0  0
   30.8780   45.9110   -5.8240 C   0  0  0  0  0  0  0  0  0  0  0  0
   32.2010   45.8100   -6.4330 N   0  0  0  0  0  0  0  0  0  0  0  0
   33.1540   45.2490   -5.7800 C   0  0  0  0  0  0  0  0  0  0  0  0
   34.3360   45.2330   -6.4180 O   0  0  0  0  0  0  0  0  0  0  0  0
   33.2110   44.5970   -4.4080 C   0  0  0  0  0  0  0  0  0  0  0  0
   34.5940   44.6040   -3.9440 N   0  0  0  0  0  0  0  0  0  0  0  0
   35.0280   43.7200   -2.9800 C   0  0  0  0  0  0  0  0  0  0  0  0
   34.5440   42.6140   -2.7880 O   0  0  0  0  0  0  0  0  0  0  0  0
   36.0740   44.2690   -2.2700 N   0  0  0  0  0  0  0  0  0  0  0  0
   37.2560   43.5360   -1.8090 C   0  0  0  0  0  0  0  0  0  0  0  0
   37.5450   42.2760   -2.6330 C   0  0  0  0  0  0  0  0  0  0  0  0
   37.1320   43.2220   -0.3150 C   0  0  0  0  0  0  0  0  0  0  0  0
   38.7340   41.4890   -2.0770 C   0  0  0  0  0  0  0  0  0  0  0  0
   38.3430   42.4640    0.2260 C   0  0  0  0  0  0  0  0  0  0  0  0
   39.3670   42.1670   -0.8650 C   0  0  0  0  0  0  0  0  0  0  0  0
  1  2  1  0
  2  3  2  0
  2  4  1  0
  4  5  2  0
  4  6  1  0
  5  7  1  0
  6  8  2  0
  7  9  1  0
  7 10  2  0
  8 10  1  0
  9 11  1  0
 11 12  1  0
 12 13  1  0
 13 14  2  3
 14 15  1  0
 14 16  1  0
 16 17  1  0
 17 18  1  0
 18 19  2  0
 18 20  1  0
 20 21  1  0
 21 22  1  0
 21 23  1  0
 22 24  1  0
 23 25  1  0
 24 26  1  0
 25 26  1  0
M  END
