mac-x0303-mac-x0379
     RDKit          3D

 17 18  0  0  0  0  0  0  0  0999 V2000
   30.3800   56.1590   -6.7320 N   0  0  0  0  0  0  0  0  0  0  0  0
   29.0910   55.8510   -5.6900 S   0  0  0  0  0  0  0  0  0  0  0  0
   27.8640   55.9000   -6.4420 O   0  0  0  0  0  0  0  0  0  0  0  0
   29.3080   56.6310   -4.4990 O   0  0  0  0  0  0  0  0  0  0  0  0
   29.2570   54.1600   -5.1820 C   0  0  0  0  0  0  0  0  0  0  0  0
   29.4770   53.7930   -3.8810 N   0  0  0  0  0  0  0  0  0  0  0  0
   29.1950   53.0930   -5.9670 N   0  0  0  0  0  0  0  0  0  0  0  0
   29.5700   52.4220   -3.8330 C   0  0  0  0  0  0  0  0  0  0  0  0
   29.3960   52.0020   -5.1310 C   0  0  0  0  0  0  0  0  0  0  0  0
   29.7900   51.5480   -2.7780 C   0  0  0  0  0  0  0  0  0  0  0  0
   29.4400   50.6180   -5.4520 C   0  0  0  0  0  0  0  0  0  0  0  0
   29.2410   50.2640   -6.8680 C   0  0  0  0  0  0  0  0  0  0  0  0
   29.8430   50.1800   -3.0830 C   0  0  0  0  0  0  0  0  0  0  0  0
   29.6820   49.6690   -4.3810 C   0  0  0  0  0  0  0  0  0  0  0  0
   29.7980   48.1350   -4.5010 C   0  0  0  0  0  0  0  0  0  0  0  0
   30.4050   47.3910   -3.7360 O   0  0  0  0  0  0  0  0  0  0  0  0
   29.1680   47.5730   -5.5500 O   0  0  0  0  0  0  0  0  0  0  0  0
  2  1  1  0
  2  3  2  0
  2  4  2  0
  2  5  1  0
  5  6  1  0
  5  7  2  0
  6  8  1  0
  7  9  1  0
  8  9  2  0
  8 10  1  0
  9 11  1  0
 11 12  1  0
 10 13  2  0
 11 14  2  0
 13 14  1  0
 14 15  1  0
 15 16  2  0
 15 17  1  0
M  END
