mac-x0587-mac-x0116
     RDKit          3D

 25 27  0  0  0  0  0  0  0  0999 V2000
   29.5200   45.5540   -3.5990 C   0  0  0  0  0  0  0  0  0  0  0  0
   30.4870   46.5140   -4.2920 C   0  0  2  0  0  0  0  0  0  0  0  0
   32.2100   46.2800   -3.6730 S   0  0  0  0  0  0  0  0  0  0  0  0
   30.0510   47.9780   -4.0580 C   0  0  0  0  0  0  0  0  0  0  0  0
   33.1620   46.5970   -5.1930 C   0  0  0  0  0  0  0  0  0  0  0  0
   29.7170   48.3480   -2.9280 O   0  0  0  0  0  0  0  0  0  0  0  0
   30.0550   48.8300   -5.1500 N   0  0  0  0  0  0  0  0  0  0  0  0
   34.1480   45.4990   -5.5260 C   0  0  0  0  0  0  0  0  0  0  0  0
   30.6300   50.1730   -5.2280 C   0  0  0  0  0  0  0  0  0  0  0  0
   29.0290   48.8390   -6.1140 C   0  0  1  0  0  0  0  0  0  0  0  0
   35.3650   45.5430   -5.5550 O   0  0  0  0  0  0  0  0  0  0  0  0
   33.5150   44.3410   -5.8210 O   0  0  0  0  0  0  0  0  0  0  0  0
   27.9270   49.5720   -5.6860 O   0  0  0  0  0  0  0  0  0  0  0  0
   30.1750   50.7160   -6.6090 C   0  0  1  0  0  0  0  0  0  0  0  0
   29.6470   49.5010   -7.2180 N   0  0  0  0  0  0  0  0  0  0  0  0
   28.6510   47.6280   -6.7430 N   0  0  0  0  0  0  0  0  0  0  0  0
   29.0610   51.6660   -6.5680 N   0  0  0  0  0  0  0  0  0  0  0  0
   28.5080   49.5280   -8.1450 N   0  0  0  0  0  0  0  0  0  0  0  0
   28.0580   48.1160   -7.9930 C   0  0  0  0  0  0  0  0  0  0  0  0
   29.3980   52.8850   -5.8230 C   0  0  0  0  0  0  0  0  0  0  0  0
   30.5200   53.6190   -6.4710 C   0  0  0  0  0  0  0  0  0  0  0  0
   31.6200   53.8550   -5.6960 O   0  0  0  0  0  0  0  0  0  0  0  0
   30.7170   54.1440   -7.7330 C   0  0  0  0  0  0  0  0  0  0  0  0
   32.0060   54.7290   -7.7290 C   0  0  0  0  0  0  0  0  0  0  0  0
   32.5140   54.5260   -6.4670 C   0  0  0  0  0  0  0  0  0  0  0  0
  2  1  1  1
  2  3  1  0
  2  4  1  0
  3  5  1  0
  4  6  2  0
  4  7  1  0
  5  8  1  0
  7  9  1  0
  7 10  1  0
  8 11  2  0
  8 12  1  0
 10 13  1  1
  9 14  1  0
 10 15  1  0
 14 15  1  0
 10 16  1  0
 14 17  1  1
 15 18  1  0
 16 19  1  0
 18 19  1  0
 17 20  1  0
 20 21  1  0
 21 22  1  0
 21 23  2  0
 23 24  1  0
 22 25  1  0
 24 25  2  0
M  END
