mac-x0328-mac-x0439
     RDKit          3D

 22 24  0  0  0  0  0  0  0  0999 V2000
   29.9460   47.6860   -4.4300 O   0  0  0  0  0  0  0  0  0  0  0  0
   29.0120   48.5700   -4.8900 C   0  0  0  0  0  0  0  0  0  0  0  0
   28.0560   48.3330   -5.6140 O   0  0  0  0  0  0  0  0  0  0  0  0
   29.5750   46.6150   -3.5840 C   0  0  0  0  0  0  0  0  0  0  0  0
   29.3130   49.9370   -4.3770 C   0  0  0  0  0  0  0  0  0  0  0  0
   30.5020   45.4370   -3.5790 C   0  0  2  0  0  0  0  0  0  0  0  0
   28.4780   46.5750   -2.7970 C   0  0  0  0  0  0  0  0  0  0  0  0
   29.2380   51.0090   -5.2810 C   0  0  0  0  0  0  0  0  0  0  0  0
   29.6640   50.1880   -3.0420 C   0  0  0  0  0  0  0  0  0  0  0  0
   31.1490   44.9620   -4.8350 C   0  0  0  0  0  0  0  0  0  0  0  0
   29.6440   44.2060   -3.3680 C   0  0  0  0  0  0  0  0  0  0  0  0
   28.1970   45.4120   -1.9610 C   0  0  0  0  0  0  0  0  0  0  0  0
   29.5070   52.3150   -4.8600 C   0  0  0  0  0  0  0  0  0  0  0  0
   29.9330   51.4940   -2.6230 C   0  0  0  0  0  0  0  0  0  0  0  0
   30.6950   43.7330   -5.1380 C   0  0  0  0  0  0  0  0  0  0  0  0
   29.7630   43.2500   -4.2380 N   0  0  0  0  0  0  0  0  0  0  0  0
   28.7510   44.2110   -2.2020 C   0  0  0  0  0  0  0  0  0  0  0  0
   31.1320   42.9490   -6.3250 C   0  0  0  0  0  0  0  0  0  0  0  0
   29.8530   52.5440   -3.5310 C   0  0  0  0  0  0  0  0  0  0  0  0
   30.1230   53.7990   -3.0760 O   0  0  0  0  0  0  0  0  0  0  0  0
   30.1500   42.1680   -6.8300 O   0  0  0  0  0  0  0  0  0  0  0  0
   32.2350   42.9570   -6.8440 O   0  0  0  0  0  0  0  0  0  0  0  0
  1  2  1  0
  2  3  2  0
  1  4  1  0
  2  5  1  0
  4  6  1  0
  4  7  2  0
  5  8  2  0
  5  9  1  0
  6 10  1  6
  6 11  1  0
  7 12  1  0
  8 13  1  0
  9 14  2  0
 10 15  2  0
 11 16  2  0
 15 16  1  0
 11 17  1  0
 12 17  2  0
 15 18  1  0
 13 19  2  0
 14 19  1  0
 19 20  1  0
 18 21  1  0
 18 22  2  0
M  END
