mac-x0263-mac-x0231
     RDKit          3D

 32 35  0  0  0  0  0  0  0  0999 V2000
   28.0350   59.9230   -6.4600 O   0  0  0  0  0  0  0  0  0  0  0  0
   26.9330   59.1610   -6.3600 C   0  0  0  0  0  0  0  0  0  0  0  0
   25.8460   59.6280   -6.6630 O   0  0  0  0  0  0  0  0  0  0  0  0
   27.1610   57.7610   -5.8600 C   0  0  0  0  0  0  0  0  0  0  0  0
   28.3430   57.0470   -6.5080 C   0  0  0  0  0  0  0  0  0  0  0  0
   28.3260   55.5940   -6.1760 C   0  0  0  0  0  0  0  0  0  0  0  0
   28.6550   55.1170   -4.9300 N   0  0  0  0  0  0  0  0  0  0  0  0
   28.0090   54.6020   -6.9860 N   0  0  0  0  0  0  0  0  0  0  0  0
   28.5460   53.7510   -4.9460 C   0  0  0  0  0  0  0  0  0  0  0  0
   28.1400   53.4530   -6.2390 C   0  0  0  0  0  0  0  0  0  0  0  0
   28.7670   52.7840   -3.9620 C   0  0  0  0  0  0  0  0  0  0  0  0
   27.9330   52.1110   -6.5900 C   0  0  0  0  0  0  0  0  0  0  0  0
   28.5690   51.4340   -4.3080 C   0  0  0  0  0  0  0  0  0  0  0  0
   28.1510   51.1120   -5.6180 C   0  0  0  0  0  0  0  0  0  0  0  0
   28.8230   50.3620   -3.2500 C   0  0  0  0  0  0  0  0  0  0  0  0
   30.1410   50.5560   -2.4550 C   0  0  0  0  0  0  0  0  0  0  0  0
   30.5040   49.4240   -1.4610 C   0  0  0  0  0  0  0  0  0  0  0  0
   30.8600   48.1420   -2.1810 C   0  0  0  0  0  0  0  0  0  0  0  0
   29.9200   47.1090   -2.2420 C   0  0  0  0  0  0  0  0  0  0  0  0
   32.1070   47.9630   -2.7990 C   0  0  0  0  0  0  0  0  0  0  0  0
   30.2120   45.9230   -2.9230 C   0  0  0  0  0  0  0  0  0  0  0  0
   32.3980   46.7720   -3.4820 C   0  0  0  0  0  0  0  0  0  0  0  0
   31.4400   45.7520   -3.5500 C   0  0  0  0  0  0  0  0  0  0  0  0
   29.2110   44.8460   -2.9850 C   0  0  0  0  0  0  0  0  0  0  0  0
   28.1080   44.9640   -2.4630 O   0  0  0  0  0  0  0  0  0  0  0  0
   31.6540   44.4710   -4.2760 C   0  0  0  0  0  0  0  0  0  0  0  0
   29.5890   43.7060   -3.6550 N   0  0  0  0  0  0  0  0  0  0  0  0
   32.9420   44.2470   -5.0380 C   0  0  0  0  0  0  0  0  0  0  0  0
   30.7650   43.5180   -4.3120 N   0  0  0  0  0  0  0  0  0  0  0  0
   33.0120   45.0620   -6.2960 C   0  0  0  0  0  0  0  0  0  0  0  0
   34.2680   45.4650   -6.5800 O   0  0  0  0  0  0  0  0  0  0  0  0
   32.0890   45.3690   -7.0330 O   0  0  0  0  0  0  0  0  0  0  0  0
  1  2  1  0
  2  3  2  0
  2  4  1  0
  4  5  1  0
  5  6  1  0
  6  7  1  0
  6  8  2  0
  7  9  1  0
  8 10  1  0
  9 10  2  0
  9 11  1  0
 10 12  1  0
 11 13  2  0
 12 14  2  0
 13 14  1  0
 13 15  1  0
 15 16  1  0
 16 17  1  0
 17 18  1  0
 18 19  2  0
 18 20  1  0
 19 21  1  0
 20 22  2  0
 21 23  2  0
 22 23  1  0
 21 24  1  0
 24 25  2  0
 23 26  1  0
 24 27  1  0
 26 28  1  0
 26 29  2  0
 27 29  1  0
 28 30  1  0
 30 31  1  0
 30 32  2  0
M  END
