mac-x0223-mac-x0231
     RDKit          3D

 16 17  0  0  0  0  0  0  0  0999 V2000
   27.0110   44.0930   -2.3740 C   0  0  0  0  0  0  0  0  0  0  0  0
   27.6720   45.3530   -2.4040 O   0  0  0  0  0  0  0  0  0  0  0  0
   28.9300   45.3420   -1.6950 C   0  0  2  0  0  0  0  0  0  0  0  0
   29.3020   46.8280   -1.4250 C   0  0  2  0  0  0  0  0  0  0  0  0
   30.0430   44.5600   -2.4550 C   0  0  2  0  0  0  0  0  0  0  0  0
   28.1040   47.5770   -1.2280 O   0  0  0  0  0  0  0  0  0  0  0  0
   30.0630   47.4830   -2.5380 C   0  0  0  0  0  0  0  0  0  0  0  0
   31.2410   45.3730   -2.9700 C   0  0  2  0  0  0  0  0  0  0  0  0
   29.5590   43.8460   -3.6670 N   0  0  0  0  0  0  0  0  0  0  0  0
   30.9650   46.8130   -3.2560 C   0  0  0  0  0  0  0  0  0  0  0  0
   31.7850   44.4620   -4.0700 C   0  0  1  0  0  0  0  0  0  0  0  0
   30.5110   44.0740   -4.7400 N   0  0  0  0  0  0  0  0  0  0  0  0
   32.8290   45.0600   -5.0270 C   0  0  0  0  0  0  0  0  0  0  0  0
   32.2830   46.1230   -5.9470 C   0  0  0  0  0  0  0  0  0  0  0  0
   32.7320   47.2570   -6.0150 O   0  0  0  0  0  0  0  0  0  0  0  0
   31.2440   45.7050   -6.7090 O   0  0  0  0  0  0  0  0  0  0  0  0
  1  2  1  0
  3  2  1  6
  3  4  1  0
  3  5  1  0
  4  6  1  6
  4  7  1  0
  5  8  1  0
  5  9  1  6
  7 10  2  0
  8 10  1  6
  8 11  1  0
  9 12  1  0
 11 12  1  0
 11 13  1  6
 13 14  1  0
 14 15  2  0
 14 16  1  0
M  END
