mac-x0132-mac-x0277
     RDKit          3D

 25 27  0  0  0  0  0  0  0  0999 V2000
   28.4530   52.2940   -7.2590 N   0  0  0  0  0  0  0  0  0  0  0  0
   28.8810   52.8770   -6.0540 C   0  0  0  0  0  0  0  0  0  0  0  0
   28.9160   54.2170   -6.0370 N   0  0  0  0  0  0  0  0  0  0  0  0
   29.2450   52.0870   -4.9490 C   0  0  0  0  0  0  0  0  0  0  0  0
   29.6480   52.8160   -3.8250 C   0  0  0  0  0  0  0  0  0  0  0  0
   29.3210   54.7850   -4.8990 C   0  0  0  0  0  0  0  0  0  0  0  0
   29.2340   50.6660   -4.8940 C   0  0  0  0  0  0  0  0  0  0  0  0
   29.6900   54.1460   -3.7880 N   0  0  0  0  0  0  0  0  0  0  0  0
   30.0210   52.1270   -2.6930 C   0  0  0  0  0  0  0  0  0  0  0  0
   29.6200   49.9940   -3.7260 C   0  0  0  0  0  0  0  0  0  0  0  0
   30.0190   50.7420   -2.6080 C   0  0  0  0  0  0  0  0  0  0  0  0
   30.4520   50.1520   -1.2960 C   0  0  0  0  0  0  0  0  0  0  0  0
   31.1840   48.8250   -1.3660 C   0  0  0  0  0  0  0  0  0  0  0  0
   30.3400   47.6600   -0.8600 C   0  0  0  0  0  0  0  0  0  0  0  0
   30.0800   46.5960   -1.8850 C   0  0  0  0  0  0  0  0  0  0  0  0
   31.1110   46.2630   -2.7780 C   0  0  0  0  0  0  0  0  0  0  0  0
   28.8600   45.9200   -1.9920 C   0  0  0  0  0  0  0  0  0  0  0  0
   27.5250   46.2550   -0.9470 Cl  0  0  0  0  0  0  0  0  0  0  0  0
   30.9430   45.2790   -3.7570 C   0  0  0  0  0  0  0  0  0  0  0  0
   28.6810   44.9350   -2.9630 C   0  0  0  0  0  0  0  0  0  0  0  0
   32.0730   44.9500   -4.6990 C   0  0  0  0  0  0  0  0  0  0  0  0
   29.7160   44.6140   -3.8420 C   0  0  0  0  0  0  0  0  0  0  0  0
   32.2070   45.9240   -5.8450 C   0  0  0  0  0  0  0  0  0  0  0  0
   33.3820   46.5900   -5.8040 O   0  0  0  0  0  0  0  0  0  0  0  0
   31.4110   46.1480   -6.7400 O   0  0  0  0  0  0  0  0  0  0  0  0
  1  2  1  0
  2  3  2  0
  2  4  1  0
  4  5  2  0
  3  6  1  0
  4  7  1  0
  5  8  1  0
  6  8  2  0
  5  9  1  0
  7 10  2  0
  9 11  2  0
 10 11  1  0
 11 12  1  0
 12 13  1  0
 13 14  1  0
 14 15  1  0
 15 16  2  0
 15 17  1  0
 17 18  1  0
 16 19  1  0
 17 20  2  0
 19 21  1  0
 19 22  2  0
 20 22  1  0
 21 23  1  0
 23 24  1  0
 23 25  2  0
M  END
