mac-x0223-mac-x0124
     RDKit          3D

 25 27  0  0  0  0  0  0  0  0999 V2000
   27.6780   43.8270   -2.0790 C   0  0  0  0  0  0  0  0  0  0  0  0
   28.2300   44.8530   -1.2680 O   0  0  0  0  0  0  0  0  0  0  0  0
   29.1830   45.6620   -1.8340 C   0  0  0  0  0  0  0  0  0  0  0  0
   29.5700   46.7830   -1.0920 C   0  0  0  0  0  0  0  0  0  0  0  0
   29.7770   45.4480   -3.0790 C   0  0  0  0  0  0  0  0  0  0  0  0
   28.9900   47.0070    0.1270 O   0  0  0  0  0  0  0  0  0  0  0  0
   30.5330   47.6690   -1.5750 C   0  0  0  0  0  0  0  0  0  0  0  0
   30.7460   46.3360   -3.5910 C   0  0  0  0  0  0  0  0  0  0  0  0
   31.3610   46.1020   -4.9640 C   0  0  1  0  0  0  0  0  0  0  0  0
   31.1200   47.4470   -2.8220 C   0  0  0  0  0  0  0  0  0  0  0  0
   32.7570   45.5160   -4.9850 C   0  0  0  0  0  0  0  0  0  0  0  0
   30.3470   45.3170   -5.8090 C   0  0  0  0  0  0  0  0  0  0  0  0
   33.7490   45.9870   -4.4540 O   0  0  0  0  0  0  0  0  0  0  0  0
   32.8490   44.3730   -5.6900 O   0  0  0  0  0  0  0  0  0  0  0  0
   28.9290   45.8650   -5.6330 C   0  0  0  0  0  0  0  0  0  0  0  0
   28.9010   47.3130   -5.5640 N   0  0  0  0  0  0  0  0  0  0  0  0
   28.9490   48.0850   -4.4220 C   0  0  0  0  0  0  0  0  0  0  0  0
   28.8230   48.1110   -6.6580 C   0  0  0  0  0  0  0  0  0  0  0  0
   28.9010   49.4070   -4.8150 C   0  0  0  0  0  0  0  0  0  0  0  0
   28.8190   49.4280   -6.2360 C   0  0  0  0  0  0  0  0  0  0  0  0
   28.7600   47.6650   -7.9220 N   0  0  0  0  0  0  0  0  0  0  0  0
   28.7400   50.3990   -7.2410 C   0  0  0  0  0  0  0  0  0  0  0  0
   28.6880   48.6800   -8.7920 C   0  0  0  0  0  0  0  0  0  0  0  0
   28.7230   51.7630   -6.9970 N   0  0  0  0  0  0  0  0  0  0  0  0
   28.6740   50.0010   -8.5270 N   0  0  0  0  0  0  0  0  0  0  0  0
  1  2  1  0
  2  3  1  0
  3  4  2  0
  3  5  1  0
  4  6  1  0
  4  7  1  0
  5  8  2  0
  8  9  1  0
  7 10  2  0
  8 10  1  0
  9 11  1  0
  9 12  1  6
 11 13  2  0
 11 14  1  0
 12 15  1  0
 15 16  1  0
 16 17  1  0
 16 18  1  0
 17 19  2  0
 18 20  2  0
 19 20  1  0
 18 21  1  0
 20 22  1  0
 21 23  2  0
 22 24  1  0
 22 25  2  0
 23 25  1  0
M  END
