mac-x0587-mac-x0417
     RDKit          3D

 24 26  0  0  0  0  0  0  0  0999 V2000
   30.4200   45.3500   -2.9090 C   0  0  0  0  0  0  0  0  0  0  0  0
   31.0010   46.4980   -3.7170 C   0  0  2  0  0  0  0  0  0  0  0  0
   32.7130   46.3010   -4.2270 S   0  0  2  0  0  0  0  0  0  0  0  0
   30.5440   47.9500   -3.4240 C   0  0  0  0  0  0  0  0  0  0  0  0
   32.6550   45.1240   -5.5160 C   0  0  0  0  0  0  0  0  0  0  0  0
   30.6110   48.2940   -2.2380 O   0  0  0  0  0  0  0  0  0  0  0  0
   30.0780   48.8390   -4.3900 N   0  0  0  0  0  0  0  0  0  0  0  0
   33.9710   45.5810   -3.2940 C   0  0  0  0  0  0  0  0  0  0  0  0
   33.1270   45.6860   -6.8060 C   0  0  0  0  0  0  0  0  0  0  0  0
   29.8020   50.2570   -4.1990 C   0  0  0  0  0  0  0  0  0  0  0  0
   29.5020   48.4580   -5.6290 C   0  0  0  0  0  0  0  0  0  0  0  0
   33.9690   44.3290   -2.8050 N   0  0  0  0  0  0  0  0  0  0  0  0
   35.1610   46.2640   -2.9870 C   0  0  0  0  0  0  0  0  0  0  0  0
   34.2650   45.9930   -7.1160 O   0  0  0  0  0  0  0  0  0  0  0  0
   32.1090   45.8240   -7.6670 O   0  0  0  0  0  0  0  0  0  0  0  0
   29.2840   47.3560   -6.0950 O   0  0  0  0  0  0  0  0  0  0  0  0
   29.1150   50.7420   -5.4650 C   0  0  0  0  0  0  0  0  0  0  0  0
   29.1730   49.6170   -6.3400 N   0  0  0  0  0  0  0  0  0  0  0  0
   35.2040   44.1860   -2.1570 O   0  0  0  0  0  0  0  0  0  0  0  0
   35.9120   45.3470   -2.2720 C   0  0  0  0  0  0  0  0  0  0  0  0
   35.6940   47.5360   -3.2290 C   0  0  0  0  0  0  0  0  0  0  0  0
   37.1870   45.6070   -1.7660 C   0  0  0  0  0  0  0  0  0  0  0  0
   36.9680   47.8330   -2.7360 C   0  0  0  0  0  0  0  0  0  0  0  0
   37.7030   46.8870   -2.0190 C   0  0  0  0  0  0  0  0  0  0  0  0
  2  1  1  1
  2  3  1  0
  2  4  1  0
  3  5  1  6
  4  6  2  0
  4  7  1  0
  3  8  1  0
  5  9  1  0
  7 10  1  0
  7 11  1  0
  8 12  2  0
  8 13  1  0
  9 14  2  0
  9 15  1  0
 11 16  2  0
 10 17  1  0
 11 18  1  0
 17 18  1  0
 12 19  1  0
 13 20  2  0
 19 20  1  0
 13 21  1  0
 20 22  1  0
 21 23  2  0
 22 24  2  0
 23 24  1  0
M  END
