mac-x0341-mac-x0373
     RDKit          3D

 22 24  0  0  0  0  0  0  0  0999 V2000
   27.8670   54.7620   -7.1570 N   0  0  0  0  0  0  0  0  0  0  0  0
   28.4180   53.6070   -6.7080 C   0  0  0  0  0  0  0  0  0  0  0  0
   28.1740   52.4800   -7.3030 N   0  0  0  0  0  0  0  0  0  0  0  0
   29.2310   53.6890   -5.6170 N   0  0  0  0  0  0  0  0  0  0  0  0
   29.5350   52.5880   -4.8560 C   0  0  0  0  0  0  0  0  0  0  0  0
   28.8190   51.3300   -6.8060 C   0  0  0  0  0  0  0  0  0  0  0  0
   29.7930   52.6500   -3.6610 O   0  0  0  0  0  0  0  0  0  0  0  0
   29.5230   51.3190   -5.6020 C   0  0  0  0  0  0  0  0  0  0  0  0
   28.7670   50.1590   -7.5540 C   0  0  0  0  0  0  0  0  0  0  0  0
   29.4250   49.0090   -7.1150 C   0  0  0  0  0  0  0  0  0  0  0  0
   30.1920   50.1680   -5.1390 C   0  0  0  0  0  0  0  0  0  0  0  0
   30.1570   48.9910   -5.9140 C   0  0  0  0  0  0  0  0  0  0  0  0
   30.9050   47.7090   -5.5230 C   0  0  2  0  0  0  0  0  0  0  0  0
   30.2160   46.3750   -5.7060 C   0  0  0  0  0  0  0  0  0  0  0  0
   32.1280   47.7770   -4.6010 C   0  0  0  0  0  0  0  0  0  0  0  0
   30.8570   45.5890   -6.5920 O   0  0  0  0  0  0  0  0  0  0  0  0
   29.1970   45.9730   -5.1750 O   0  0  0  0  0  0  0  0  0  0  0  0
   32.5410   46.7280   -3.7560 C   0  0  0  0  0  0  0  0  0  0  0  0
   32.9000   48.9530   -4.6210 C   0  0  0  0  0  0  0  0  0  0  0  0
   33.6890   46.8580   -2.9670 C   0  0  0  0  0  0  0  0  0  0  0  0
   34.0410   49.0790   -3.8340 C   0  0  0  0  0  0  0  0  0  0  0  0
   34.4400   48.0330   -3.0070 C   0  0  0  0  0  0  0  0  0  0  0  0
  1  2  1  0
  2  3  2  0
  2  4  1  0
  4  5  1  0
  3  6  1  0
  5  7  2  0
  5  8  1  0
  6  8  2  0
  6  9  1  0
  9 10  2  0
  8 11  1  0
 10 12  1  0
 11 12  2  0
 12 13  1  0
 13 14  1  1
 13 15  1  0
 14 16  1  0
 14 17  2  0
 15 18  2  0
 15 19  1  0
 18 20  1  0
 19 21  2  0
 20 22  2  0
 21 22  1  0
M  END
