mac-x0271-mac-x0371
     RDKit          3D

 23 25  0  0  0  0  0  0  0  0999 V2000
   31.1850   48.8450   -3.8710 O   0  0  0  0  0  0  0  0  0  0  0  0
   30.4120   49.8590   -4.3890 C   0  0  0  0  0  0  0  0  0  0  0  0
   29.4930   49.6690   -5.4290 C   0  0  0  0  0  0  0  0  0  0  0  0
   30.6920   47.5610   -3.9730 C   0  0  0  0  0  0  0  0  0  0  0  0
   30.5790   51.1220   -3.8250 C   0  0  0  0  0  0  0  0  0  0  0  0
   31.5820   46.5130   -4.2870 C   0  0  0  0  0  0  0  0  0  0  0  0
   29.3260   47.3190   -3.7640 C   0  0  0  0  0  0  0  0  0  0  0  0
   33.0570   46.8010   -4.5070 C   0  0  0  0  0  0  0  0  0  0  0  0
   29.8210   52.1820   -4.3110 C   0  0  0  0  0  0  0  0  0  0  0  0
   28.7390   50.7450   -5.9060 C   0  0  0  0  0  0  0  0  0  0  0  0
   28.8260   46.0270   -3.8660 C   0  0  0  0  0  0  0  0  0  0  0  0
   31.0500   45.2130   -4.3830 C   0  0  0  0  0  0  0  0  0  0  0  0
   32.0350   43.8420   -4.7590 Cl  0  0  0  0  0  0  0  0  0  0  0  0
   33.5290   46.6420   -5.9430 C   0  0  0  0  0  0  0  0  0  0  0  0
   28.9010   52.0130   -5.3460 C   0  0  0  0  0  0  0  0  0  0  0  0
   30.0170   53.4460   -3.7180 O   0  0  0  0  0  0  0  0  0  0  0  0
   29.6840   44.9750   -4.1740 C   0  0  0  0  0  0  0  0  0  0  0  0
   33.2010   45.4360   -6.4740 O   0  0  0  0  0  0  0  0  0  0  0  0
   34.1450   47.4760   -6.5920 O   0  0  0  0  0  0  0  0  0  0  0  0
   28.1420   53.1630   -5.8080 C   0  0  0  0  0  0  0  0  0  0  0  0
   29.3930   54.5780   -4.2250 C   0  0  0  0  0  0  0  0  0  0  0  0
   29.6600   55.7080   -3.8320 O   0  0  0  0  0  0  0  0  0  0  0  0
   28.3820   54.3650   -5.2740 C   0  0  0  0  0  0  0  0  0  0  0  0
  1  2  1  0
  2  3  2  0
  1  4  1  0
  2  5  1  0
  4  6  2  0
  4  7  1  0
  6  8  1  0
  5  9  2  0
  3 10  1  0
  7 11  2  0
  6 12  1  0
 12 13  1  0
  8 14  1  0
  9 15  1  0
 10 15  2  0
  9 16  1  0
 11 17  1  0
 12 17  2  0
 14 18  1  0
 14 19  2  0
 15 20  1  0
 16 21  1  0
 21 22  2  0
 20 23  2  0
 21 23  1  0
M  END
