mac-x0415-mac-x0188
     RDKit          3D

 26 29  0  0  0  0  0  0  0  0999 V2000
   33.4200   45.4380   -6.4020 O   0  0  0  0  0  0  0  0  0  0  0  0
   32.3410   44.9240   -5.6740 C   0  0  0  0  0  0  0  0  0  0  0  0
   32.4600   43.5260   -5.7010 O   0  0  0  0  0  0  0  0  0  0  0  0
   32.2300   45.4210   -4.2040 C   0  0  2  0  0  0  0  0  0  0  0  0
   31.1760   45.2420   -6.3900 O   0  0  0  0  0  0  0  0  0  0  0  0
   30.9410   45.0210   -3.5360 C   0  0  0  0  0  0  0  0  0  0  0  0
   32.6240   46.9070   -4.0340 C   0  0  1  0  0  0  0  0  0  0  0  0
   29.9800   44.0910   -4.1650 C   0  0  0  0  0  0  0  0  0  0  0  0
   30.2970   45.2890   -2.3990 C   0  0  0  0  0  0  0  0  0  0  0  0
   33.0790   47.5120   -5.2590 O   0  0  0  0  0  0  0  0  0  0  0  0
   31.5280   47.8230   -3.5090 C   0  0  0  0  0  0  0  0  0  0  0  0
   28.8740   43.7980   -3.5380 N   0  0  0  0  0  0  0  0  0  0  0  0
   28.9940   44.5580   -2.2870 C   0  0  2  0  0  0  0  0  0  0  0  0
   30.6050   46.1430   -1.2800 C   0  0  0  0  0  0  0  0  0  0  0  0
   32.3140   48.7420   -5.4860 N   0  0  0  0  0  0  0  0  0  0  0  0
   31.0550   48.5140   -4.7670 C   0  0  2  0  0  0  0  0  0  0  0  0
   27.9140   45.5520   -2.0130 C   0  0  0  0  0  0  0  0  0  0  0  0
   29.5700   46.8050   -0.7200 C   0  0  0  0  0  0  0  0  0  0  0  0
   30.2380   49.7640   -4.4800 C   0  0  0  0  0  0  0  0  0  0  0  0
   29.7980   47.9560    0.7330 Br  0  0  0  0  0  0  0  0  0  0  0  0
   28.2140   46.6320   -1.2520 C   0  0  0  0  0  0  0  0  0  0  0  0
   30.0640   50.1770   -3.1470 C   0  0  0  0  0  0  0  0  0  0  0  0
   29.6430   50.5310   -5.4940 C   0  0  0  0  0  0  0  0  0  0  0  0
   29.3210   51.3190   -2.8410 C   0  0  0  0  0  0  0  0  0  0  0  0
   28.8990   51.6730   -5.1860 C   0  0  0  0  0  0  0  0  0  0  0  0
   28.7390   52.0670   -3.8620 C   0  0  0  0  0  0  0  0  0  0  0  0
  2  1  1  0
  2  3  1  0
  4  2  1  6
  2  5  1  0
  4  6  1  0
  4  7  1  0
  6  8  1  0
  6  9  2  0
  7 10  1  0
  7 11  1  6
  8 12  2  0
  9 13  1  0
 12 13  1  0
  9 14  1  0
 10 15  1  0
 11 16  1  0
 15 16  1  0
 13 17  1  6
 14 18  2  0
 16 19  1  1
 18 20  1  0
 17 21  2  0
 18 21  1  0
 19 22  2  0
 19 23  1  0
 22 24  1  0
 23 25  2  0
 24 26  2  0
 25 26  1  0
M  END
