mac-x0402-mac-x0411
     RDKit          3D

 26 28  0  0  0  0  0  0  0  0999 V2000
   28.6970   47.5350   -3.5330 Cl  0  0  0  0  0  0  0  0  0  0  0  0
   29.2190   49.0910   -4.0930 C   0  0  0  0  0  0  0  0  0  0  0  0
   30.3330   49.7410   -3.5290 C   0  0  0  0  0  0  0  0  0  0  0  0
   28.4730   49.6640   -5.1330 C   0  0  0  0  0  0  0  0  0  0  0  0
   31.1190   49.0880   -2.4040 C   0  0  0  0  0  0  0  0  0  0  0  0
   28.8600   50.9240   -5.6100 C   0  0  0  0  0  0  0  0  0  0  0  0
   30.6890   51.0060   -4.0380 C   0  0  0  0  0  0  0  0  0  0  0  0
   32.6490   49.0750   -2.5300 C   0  0  0  0  0  0  0  0  0  0  0  0
   29.9550   51.6050   -5.0860 C   0  0  0  0  0  0  0  0  0  0  0  0
   28.1620   51.8780   -6.8600 S   0  0  0  0  0  0  0  0  0  0  0  0
   33.1660   47.9270   -3.4070 C   0  0  0  0  0  0  0  0  0  0  0  0
   29.3420   53.0910   -6.5980 C   0  0  0  0  0  0  0  0  0  0  0  0
   30.2150   52.8400   -5.6580 N   0  0  0  0  0  0  0  0  0  0  0  0
   29.3520   54.2220   -7.3240 N   0  0  0  0  0  0  0  0  0  0  0  0
   34.6130   47.5670   -3.1590 C   0  0  0  0  0  0  0  0  0  0  0  0
   35.1490   46.3040   -3.4910 C   0  0  0  0  0  0  0  0  0  0  0  0
   35.4570   48.5250   -2.5740 C   0  0  0  0  0  0  0  0  0  0  0  0
   34.3250   45.3600   -4.0670 O   0  0  0  0  0  0  0  0  0  0  0  0
   36.7990   48.2420   -2.3230 C   0  0  0  0  0  0  0  0  0  0  0  0
   36.5030   46.0250   -3.2350 C   0  0  0  0  0  0  0  0  0  0  0  0
   37.2170   44.4990   -3.6150 Cl  0  0  0  0  0  0  0  0  0  0  0  0
   33.7550   45.8340   -5.2940 C   0  0  0  0  0  0  0  0  0  0  0  0
   37.3210   46.9940   -2.6530 C   0  0  0  0  0  0  0  0  0  0  0  0
   33.3430   44.6780   -6.1900 C   0  0  0  0  0  0  0  0  0  0  0  0
   32.5440   43.7690   -5.5900 O   0  0  0  0  0  0  0  0  0  0  0  0
   33.6660   44.5250   -7.3580 O   0  0  0  0  0  0  0  0  0  0  0  0
  1  2  1  0
  2  3  2  0
  2  4  1  0
  3  5  1  0
  4  6  2  0
  3  7  1  0
  5  8  1  0
  6  9  1  0
  7  9  2  0
  6 10  1  0
  8 11  1  0
 10 12  1  0
  9 13  1  0
 12 13  2  0
 12 14  1  0
 11 15  1  0
 15 16  2  0
 15 17  1  0
 16 18  1  0
 17 19  2  0
 16 20  1  0
 20 21  1  0
 18 22  1  0
 19 23  1  0
 20 23  2  0
 22 24  1  0
 24 25  1  0
 24 26  2  0
M  END
