mac-x0437-mac-x0385
     RDKit          3D

 26 28  0  0  0  0  0  0  0  0999 V2000
   31.8190   44.8750   -7.0680 O   0  0  0  0  0  0  0  0  0  0  0  0
   32.7000   45.3600   -6.0700 C   0  0  0  0  0  0  0  0  0  0  0  0
   33.9910   45.2950   -6.6190 O   0  0  0  0  0  0  0  0  0  0  0  0
   32.6060   44.3880   -4.8740 C   0  0  0  0  0  0  0  0  0  0  0  0
   32.2500   46.7960   -5.7260 C   0  0  0  0  0  0  0  0  0  0  0  0
   32.6950   45.0710   -3.5000 C   0  0  0  0  0  0  0  0  0  0  0  0
   31.4130   47.5610   -6.7640 C   0  0  0  0  0  0  0  0  0  0  0  0
   30.0970   46.9310   -7.2410 C   0  0  0  0  0  0  0  0  0  0  0  0
   33.9030   45.8520   -3.3290 N   0  0  0  0  0  0  0  0  0  0  0  0
   28.8320   47.4220   -6.5240 C   0  0  0  0  0  0  0  0  0  0  0  0
   34.0090   47.2070   -3.4900 C   0  0  0  0  0  0  0  0  0  0  0  0
   35.1400   45.3720   -2.9770 C   0  0  0  0  0  0  0  0  0  0  0  0
   35.2310   47.6320   -3.2690 N   0  0  0  0  0  0  0  0  0  0  0  0
   35.9480   46.5060   -2.9490 C   0  0  0  0  0  0  0  0  0  0  0  0
   35.6250   44.0920   -2.6870 C   0  0  0  0  0  0  0  0  0  0  0  0
   29.0180   48.4990   -5.4930 C   0  0  0  0  0  0  0  0  0  0  0  0
   37.3030   46.3780   -2.6220 C   0  0  0  0  0  0  0  0  0  0  0  0
   36.9800   43.9840   -2.3600 C   0  0  0  0  0  0  0  0  0  0  0  0
   28.6610   49.7480   -5.8400 N   0  0  0  0  0  0  0  0  0  0  0  0
   29.5230   48.1620   -4.2940 N   0  0  0  0  0  0  0  0  0  0  0  0
   37.8110   45.1070   -2.3270 C   0  0  0  0  0  0  0  0  0  0  0  0
   28.8240   50.7110   -4.9230 C   0  0  0  0  0  0  0  0  0  0  0  0
   29.6700   49.1630   -3.4030 C   0  0  0  0  0  0  0  0  0  0  0  0
   28.4390   51.9900   -5.3260 N   0  0  0  0  0  0  0  0  0  0  0  0
   29.3340   50.4750   -3.6630 C   0  0  0  0  0  0  0  0  0  0  0  0
   29.5130   51.5480   -2.6410 C   0  0  0  0  0  0  0  0  0  0  0  0
  2  1  1  0
  2  3  1  0
  2  4  1  0
  2  5  1  0
  4  6  1  0
  5  7  1  0
  7  8  1  0
  6  9  1  0
  8 10  1  0
  9 11  1  0
  9 12  1  0
 11 13  2  0
 12 14  2  0
 13 14  1  0
 12 15  1  0
 10 16  1  0
 14 17  1  0
 15 18  2  0
 16 19  2  0
 16 20  1  0
 17 21  2  0
 18 21  1  0
 19 22  1  0
 20 23  2  0
 22 24  1  0
 22 25  2  0
 23 25  1  0
 25 26  1  0
M  END
