mac-x0284-mac-x0345
     RDKit          3D

 20 21  0  0  0  0  0  0  0  0999 V2000
   26.6090   48.8850   -5.6630 C   0  0  0  0  0  0  0  0  0  0  0  0
   27.9380   48.6760   -5.0020 C   0  0  0  0  0  0  0  0  0  0  0  0
   28.5280   49.7190   -4.3300 C   0  0  0  0  0  0  0  0  0  0  0  0
   28.6030   47.4540   -5.0540 C   0  0  0  0  0  0  0  0  0  0  0  0
   29.8490   47.2860   -4.4330 C   0  0  0  0  0  0  0  0  0  0  0  0
   29.7610   49.6040   -3.7030 C   0  0  0  0  0  0  0  0  0  0  0  0
   30.4490   45.9420   -4.5740 C   0  0  0  0  0  0  0  0  0  0  0  0
   30.2360   50.7570   -3.1080 N   0  0  0  0  0  0  0  0  0  0  0  0
   30.4370   48.3680   -3.7450 C   0  0  0  0  0  0  0  0  0  0  0  0
   31.6590   48.2890   -3.1110 O   0  0  0  0  0  0  0  0  0  0  0  0
   30.5130   45.3060   -5.6100 O   0  0  0  0  0  0  0  0  0  0  0  0
   30.9400   45.4410   -3.4250 O   0  0  0  0  0  0  0  0  0  0  0  0
   29.9970   51.8750   -3.8620 C   0  0  0  0  0  0  0  0  0  0  0  0
   29.8040   51.6500   -5.2150 C   0  0  0  0  0  0  0  0  0  0  0  0
   29.9320   53.1090   -3.3280 N   0  0  0  0  0  0  0  0  0  0  0  0
   29.6560   54.1450   -4.1860 C   0  0  0  0  0  0  0  0  0  0  0  0
   29.5280   52.6850   -6.0690 C   0  0  0  0  0  0  0  0  0  0  0  0
   29.5870   55.4990   -3.5590 C   0  0  0  0  0  0  0  0  0  0  0  0
   29.4480   53.9560   -5.5560 C   0  0  0  0  0  0  0  0  0  0  0  0
   29.0560   55.3450   -6.7740 Br  0  0  0  0  0  0  0  0  0  0  0  0
  1  2  1  0
  2  3  2  0
  2  4  1  0
  4  5  2  0
  3  6  1  0
  5  7  1  0
  6  8  1  0
  5  9  1  0
  6  9  2  0
  9 10  1  0
  7 11  2  0
  7 12  1  0
  8 13  1  0
 13 14  2  0
 13 15  1  0
 15 16  2  0
 14 17  1  0
 16 18  1  0
 16 19  1  0
 17 19  2  0
 19 20  1  0
M  END
