mac-x0375-mac-x0137
     RDKit          3D

 28 31  0  0  0  0  0  0  0  0999 V2000
   32.0660   44.8270   -6.5990 O   0  0  0  0  0  0  0  0  0  0  0  0
   33.2130   45.2140   -5.8670 C   0  0  0  0  0  0  0  0  0  0  0  0
   34.2930   44.5790   -6.5300 O   0  0  0  0  0  0  0  0  0  0  0  0
   33.1080   44.6790   -4.4090 C   0  0  0  0  0  0  0  0  0  0  0  0
   33.4030   46.7500   -5.8720 C   0  0  0  0  0  0  0  0  0  0  0  0
   34.4030   44.4330   -3.8530 O   0  0  0  0  0  0  0  0  0  0  0  0
   32.2590   47.6690   -5.3700 C   0  0  1  0  0  0  0  0  0  0  0  0
   35.2130   45.5090   -3.6040 C   0  0  0  0  0  0  0  0  0  0  0  0
   30.8880   47.1040   -5.7910 C   0  0  0  0  0  0  0  0  0  0  0  0
   32.2190   47.9460   -3.8610 C   0  0  0  0  0  0  0  0  0  0  0  0
   36.5430   45.6340   -3.9950 C   0  0  0  0  0  0  0  0  0  0  0  0
   34.6090   46.5510   -2.8900 C   0  0  0  0  0  0  0  0  0  0  0  0
   31.1030   48.9020   -3.4700 C   0  0  1  0  0  0  0  0  0  0  0  0
   29.7940   48.0430   -5.4470 N   0  0  0  0  0  0  0  0  0  0  0  0
   31.4030   50.1520   -3.9150 F   0  0  0  0  0  0  0  0  0  0  0  0
   37.2640   46.7900   -3.6750 C   0  0  0  0  0  0  0  0  0  0  0  0
   35.3260   47.7040   -2.5740 C   0  0  0  0  0  0  0  0  0  0  0  0
   29.7400   48.4630   -4.0250 C   0  0  0  0  0  0  0  0  0  0  0  0
   29.0380   48.6650   -6.4540 C   0  0  0  0  0  0  0  0  0  0  0  0
   36.6570   47.8240   -2.9670 C   0  0  0  0  0  0  0  0  0  0  0  0
   28.6950   47.9880   -7.6130 N   0  0  0  0  0  0  0  0  0  0  0  0
   28.5900   49.9360   -6.3900 C   0  0  0  0  0  0  0  0  0  0  0  0
   27.9640   48.5640   -8.6130 C   0  0  0  0  0  0  0  0  0  0  0  0
   27.7960   50.4980   -7.5150 C   0  0  0  0  0  0  0  0  0  0  0  0
   28.6530   51.0220   -5.4680 C   0  0  0  0  0  0  0  0  0  0  0  0
   27.5000   49.7680   -8.6300 N   0  0  0  0  0  0  0  0  0  0  0  0
   27.4360   51.7360   -7.3010 N   0  0  0  0  0  0  0  0  0  0  0  0
   27.9700   52.0270   -6.0490 C   0  0  0  0  0  0  0  0  0  0  0  0
  2  1  1  0
  2  3  1  0
  2  4  1  0
  2  5  1  0
  4  6  1  0
  7  5  1  1
  6  8  1  0
  7  9  1  0
  7 10  1  0
  8 11  2  0
  8 12  1  0
 10 13  1  0
  9 14  1  0
 13 15  1  6
 11 16  1  0
 12 17  2  0
 13 18  1  0
 14 18  1  0
 14 19  1  0
 16 20  2  0
 17 20  1  0
 19 21  1  0
 19 22  2  0
 21 23  1  0
 22 24  1  0
 22 25  1  0
 23 26  2  0
 24 26  1  0
 24 27  2  0
 25 28  2  0
 27 28  1  0
M  END
