mac-x0282-mac-x0263
     RDKit          3D

 24 27  0  0  0  0  0  0  0  0999 V2000
   28.0990   60.1310   -6.4280 O   0  0  0  0  0  0  0  0  0  0  0  0
   26.9890   59.3810   -6.2850 C   0  0  0  0  0  0  0  0  0  0  0  0
   25.9230   59.8010   -6.7100 O   0  0  0  0  0  0  0  0  0  0  0  0
   27.1880   58.0600   -5.5900 C   0  0  0  0  0  0  0  0  0  0  0  0
   28.4270   57.2790   -6.0120 C   0  0  0  0  0  0  0  0  0  0  0  0
   28.1660   55.8110   -6.0550 C   0  0  0  0  0  0  0  0  0  0  0  0
   28.1060   55.0350   -4.9200 N   0  0  0  0  0  0  0  0  0  0  0  0
   27.9640   55.0860   -7.1330 N   0  0  0  0  0  0  0  0  0  0  0  0
   27.8530   53.7410   -5.3000 C   0  0  0  0  0  0  0  0  0  0  0  0
   27.7680   53.8040   -6.6850 C   0  0  0  0  0  0  0  0  0  0  0  0
   27.6900   52.5550   -4.5800 C   0  0  0  0  0  0  0  0  0  0  0  0
   27.5130   52.6370   -7.4160 C   0  0  0  0  0  0  0  0  0  0  0  0
   27.4380   51.3940   -5.3270 C   0  0  0  0  0  0  0  0  0  0  0  0
   27.3460   51.4180   -6.7340 C   0  0  0  0  0  0  0  0  0  0  0  0
   27.0740   50.1460   -7.5200 C   0  0  0  0  0  0  0  0  0  0  0  0
   28.2180   49.2370   -7.4490 N   0  0  0  0  0  0  0  0  0  0  0  0
   29.2700   49.6550   -6.6480 C   0  0  0  0  0  0  0  0  0  0  0  0
   28.0240   47.8550   -7.5570 C   0  0  0  0  0  0  0  0  0  0  0  0
   30.0720   48.6720   -5.8590 C   0  0  0  0  0  0  0  0  0  0  0  0
   29.7260   50.8650   -6.4320 N   0  0  0  0  0  0  0  0  0  0  0  0
   28.7470   46.9440   -6.8770 C   0  0  0  0  0  0  0  0  0  0  0  0
   30.7540   50.7170   -5.5150 C   0  0  0  0  0  0  0  0  0  0  0  0
   31.0010   49.4590   -5.1280 C   0  0  0  0  0  0  0  0  0  0  0  0
   29.8050   47.3720   -5.9760 C   0  0  0  0  0  0  0  0  0  0  0  0
  1  2  1  0
  2  3  2  0
  2  4  1  0
  4  5  1  0
  5  6  1  0
  6  7  1  0
  6  8  2  0
  7  9  1  0
  8 10  1  0
  9 10  2  0
  9 11  1  0
 10 12  1  0
 11 13  2  0
 12 14  2  0
 13 14  1  0
 14 15  1  0
 15 16  1  0
 16 17  1  0
 16 18  1  0
 17 19  1  0
 17 20  2  0
 18 21  2  0
 20 22  1  0
 19 23  1  0
 22 23  2  0
 19 24  2  0
 21 24  1  0
M  END
