mac-x0338-mac-x0301
     RDKit          3D

 16 17  0  0  0  0  0  0  0  0999 V2000
   28.3910   51.6370   -7.7890 N   0  0  0  0  0  0  0  0  0  0  0  0
   28.8720   52.0600   -6.5870 C   0  0  0  0  0  0  0  0  0  0  0  0
   28.6940   53.2490   -6.2990 O   0  0  0  0  0  0  0  0  0  0  0  0
   29.6060   51.0650   -5.6660 C   0  0  2  0  0  0  0  0  0  0  0  0
   29.4990   49.4830   -5.7860 C   0  0  2  0  0  0  0  0  0  0  0  0
   29.2800   51.5310   -4.2170 C   0  0  0  0  0  0  0  0  0  0  0  0
   29.9210   48.8710   -4.3930 C   0  0  1  0  0  0  0  0  0  0  0  0
   30.1450   51.0160   -3.1500 N   0  0  0  0  0  0  0  0  0  0  0  0
   30.3590   49.0520   -6.8990 O   0  0  0  0  0  0  0  0  0  0  0  0
   28.1930   48.8330   -6.2340 C   0  0  0  0  0  0  0  0  0  0  0  0
   30.5530   47.4700   -4.2900 C   0  0  0  0  0  0  0  0  0  0  0  0
   30.8250   49.7990   -3.5700 C   0  0  0  0  0  0  0  0  0  0  0  0
   28.5840   47.6180   -6.8900 O   0  0  0  0  0  0  0  0  0  0  0  0
   29.6520   48.0810   -7.6830 C   0  0  0  0  0  0  0  0  0  0  0  0
   30.0820   46.5280   -5.1300 O   0  0  0  0  0  0  0  0  0  0  0  0
   31.4270   47.1540   -3.4960 O   0  0  0  0  0  0  0  0  0  0  0  0
  1  2  1  0
  2  3  2  0
  4  2  1  6
  4  5  1  0
  4  6  1  0
  5  7  1  0
  6  8  1  0
  5  9  1  0
  5 10  1  6
  7 11  1  6
  7 12  1  0
  8 12  1  0
 10 13  1  0
  9 14  1  0
 13 14  1  0
 11 15  1  0
 11 16  2  0
M  END
