mac-x0306-mac-x0212
     RDKit          3D

 19 20  0  0  0  0  0  0  0  0999 V2000
   31.6890   52.6230   -8.3260 C   0  0  0  0  0  0  0  0  0  0  0  0
   31.1300   53.8030   -7.1180 S   0  0  0  0  0  0  0  0  0  0  0  0
   30.5900   54.9570   -7.8060 O   0  0  0  0  0  0  0  0  0  0  0  0
   32.1550   53.9300   -6.1070 O   0  0  0  0  0  0  0  0  0  0  0  0
   29.8600   52.9680   -6.4020 N   0  0  0  0  0  0  0  0  0  0  0  0
   30.1500   52.0400   -5.2640 C   0  0  2  0  0  0  0  0  0  0  0  0
   29.4290   50.6990   -5.5180 C   0  0  0  0  0  0  0  0  0  0  0  0
   29.7870   52.6290   -3.8650 C   0  0  1  0  0  0  0  0  0  0  0  0
   28.6670   53.6380   -3.9190 C   0  0  0  0  0  0  0  0  0  0  0  0
   29.5410   51.5360   -2.8470 C   0  0  0  0  0  0  0  0  0  0  0  0
   29.5880   49.7330   -4.4220 N   0  0  0  0  0  0  0  0  0  0  0  0
   30.1460   48.4600   -4.5860 C   0  0  0  0  0  0  0  0  0  0  0  0
   27.5220   53.4480   -4.6580 N   0  0  0  0  0  0  0  0  0  0  0  0
   28.6220   54.8040   -3.2910 N   0  0  0  0  0  0  0  0  0  0  0  0
   29.4590   50.2320   -3.1380 C   0  0  0  0  0  0  0  0  0  0  0  0
   30.0320   47.7690   -5.5910 O   0  0  0  0  0  0  0  0  0  0  0  0
   30.8540   48.0050   -3.5280 O   0  0  0  0  0  0  0  0  0  0  0  0
   27.4250   55.3700   -3.6370 C   0  0  0  0  0  0  0  0  0  0  0  0
   26.7260   54.5470   -4.4840 C   0  0  0  0  0  0  0  0  0  0  0  0
  1  2  1  0
  2  3  2  0
  2  4  2  0
  2  5  1  0
  6  5  1  6
  6  7  1  0
  6  8  1  0
  8  9  1  6
  8 10  1  0
  7 11  1  0
 11 12  1  0
  9 13  1  0
  9 14  2  0
 10 15  2  0
 11 15  1  0
 12 16  2  0
 12 17  1  0
 14 18  1  0
 13 19  1  0
 18 19  2  0
M  END
