mac-x0412-mac-x0223
     RDKit          3D

 26 28  0  0  0  0  0  0  0  0999 V2000
   29.6830   54.3990   -3.9710 O   0  0  0  0  0  0  0  0  0  0  0  0
   29.1370   53.7590   -4.8660 C   0  0  0  0  0  0  0  0  0  0  0  0
   29.0340   54.2500   -6.1560 N   0  0  0  0  0  0  0  0  0  0  0  0
   28.5200   52.3580   -4.6350 C   0  0  1  0  0  0  0  0  0  0  0  0
   29.0190   51.4350   -5.7310 C   0  0  0  0  0  0  0  0  0  0  0  0
   29.1170   53.3810   -7.1090 C   0  0  0  0  0  0  0  0  0  0  0  0
   28.7410   51.8090   -3.2440 C   0  0  0  0  0  0  0  0  0  0  0  0
   29.3120   51.9250   -6.9440 C   0  0  0  0  0  0  0  0  0  0  0  0
   29.1630   50.0250   -5.4080 C   0  0  0  0  0  0  0  0  0  0  0  0
   29.0450   50.5200   -3.0090 C   0  0  0  0  0  0  0  0  0  0  0  0
   29.2520   49.9870   -1.6090 C   0  0  0  0  0  0  0  0  0  0  0  0
   29.1740   49.6020   -4.1330 C   0  0  0  0  0  0  0  0  0  0  0  0
   28.1500   49.0120   -1.1590 C   0  0  0  0  0  0  0  0  0  0  0  0
   28.6400   47.6980   -0.8840 O   0  0  0  0  0  0  0  0  0  0  0  0
   29.4640   47.0770   -1.7880 C   0  0  0  0  0  0  0  0  0  0  0  0
   28.9440   45.9240   -2.4130 C   0  0  0  0  0  0  0  0  0  0  0  0
   30.7490   47.5120   -2.1130 C   0  0  0  0  0  0  0  0  0  0  0  0
   27.6740   45.5500   -2.0450 O   0  0  0  0  0  0  0  0  0  0  0  0
   31.5200   46.8200   -3.0490 C   0  0  0  0  0  0  0  0  0  0  0  0
   29.7260   45.2360   -3.3520 C   0  0  0  0  0  0  0  0  0  0  0  0
   27.3700   44.1620   -2.0580 C   0  0  0  0  0  0  0  0  0  0  0  0
   31.0170   45.6800   -3.6760 C   0  0  0  0  0  0  0  0  0  0  0  0
   31.8570   44.9330   -4.6900 C   0  0  0  0  0  0  0  0  0  0  0  0
   32.3420   45.7840   -5.8390 C   0  0  0  0  0  0  0  0  0  0  0  0
   33.3510   46.4660   -5.9040 O   0  0  0  0  0  0  0  0  0  0  0  0
   31.5000   45.7290   -6.8950 O   0  0  0  0  0  0  0  0  0  0  0  0
  1  2  2  0
  2  3  1  0
  2  4  1  0
  4  5  1  0
  3  6  2  0
  4  7  1  1
  5  8  2  0
  6  8  1  0
  5  9  1  0
  7 10  2  0
 10 11  1  0
  9 12  2  0
 10 12  1  0
 11 13  1  0
 13 14  1  0
 14 15  1  0
 15 16  2  0
 15 17  1  0
 16 18  1  0
 17 19  2  0
 16 20  1  0
 18 21  1  0
 19 22  1  0
 20 22  2  0
 22 23  1  0
 23 24  1  0
 24 25  2  0
 24 26  1  0
M  END
