mac-x0564-mac-x0333
     RDKit          3D

 18 21  0  0  0  0  0  0  0  0999 V2000
   29.7390   46.4110   -6.8720 O   0  0  0  0  0  0  0  0  0  0  0  0
   30.2730   46.8630   -5.8670 C   0  0  0  0  0  0  0  0  0  0  0  0
   30.7580   46.0340   -4.8630 N   0  0  0  0  0  0  0  0  0  0  0  0
   30.4930   48.3470   -5.5600 C   0  0  2  0  0  0  0  0  0  0  0  0
   30.3750   48.4080   -4.0240 C   0  0  1  0  0  0  0  0  0  0  0  0
   31.8210   46.4650   -3.9970 C   0  0  0  0  0  0  0  0  0  0  0  0
   29.6680   49.3980   -6.0590 O   0  0  0  0  0  0  0  0  0  0  0  0
   31.4460   47.7010   -3.3070 N   0  0  0  0  0  0  0  0  0  0  0  0
   29.1360   50.0960   -4.9080 C   0  0  1  0  0  0  0  0  0  0  0  0
   30.1880   49.9080   -3.8230 C   0  0  1  0  0  0  0  0  0  0  0  0
   29.6700   50.3390   -2.4440 C   0  0  2  0  0  0  0  0  0  0  0  0
   28.7330   51.5630   -5.0820 C   0  0  1  0  0  0  0  0  0  0  0  0
   28.9710   49.2450   -1.8430 O   0  0  0  0  0  0  0  0  0  0  0  0
   28.7070   51.5280   -2.5290 C   0  0  0  0  0  0  0  0  0  0  0  0
   28.8780   52.3600   -3.7950 C   0  0  1  0  0  0  0  0  0  0  0  0
   29.5590   52.2450   -6.0410 O   0  0  0  0  0  0  0  0  0  0  0  0
   30.1740   52.9460   -3.8960 O   0  0  0  0  0  0  0  0  0  0  0  0
   30.2870   53.2290   -5.2930 C   0  0  0  0  0  0  0  0  0  0  0  0
  1  2  2  0
  2  3  1  0
  2  4  1  0
  4  5  1  0
  3  6  1  0
  4  7  1  6
  5  8  1  1
  6  8  1  0
  9  7  1  6
  5 10  1  0
  9 10  1  0
 10 11  1  1
  9 12  1  0
 11 13  1  6
 11 14  1  0
 12 15  1  0
 15 14  1  1
 12 16  1  6
 15 17  1  0
 16 18  1  0
 17 18  1  0
M  END
