mac-x0263-mac-x0555
     RDKit          3D

 19 21  0  0  0  0  0  0  0  0999 V2000
   28.0540   60.0980   -6.5900 O   0  0  0  0  0  0  0  0  0  0  0  0
   27.0200   59.2540   -6.4210 C   0  0  0  0  0  0  0  0  0  0  0  0
   25.8920   59.6040   -6.7350 O   0  0  0  0  0  0  0  0  0  0  0  0
   27.3990   57.9260   -5.8340 C   0  0  0  0  0  0  0  0  0  0  0  0
   28.3650   57.0880   -6.6690 C   0  0  0  0  0  0  0  0  0  0  0  0
   28.1980   55.6470   -6.3390 C   0  0  0  0  0  0  0  0  0  0  0  0
   27.8090   55.2880   -5.0700 N   0  0  0  0  0  0  0  0  0  0  0  0
   28.3690   54.5840   -7.1220 N   0  0  0  0  0  0  0  0  0  0  0  0
   27.7250   53.9470   -5.0520 C   0  0  0  0  0  0  0  0  0  0  0  0
   28.0740   53.5180   -6.3130 C   0  0  0  0  0  0  0  0  0  0  0  0
   27.3520   53.1550   -3.9590 C   0  0  0  0  0  0  0  0  0  0  0  0
   28.0960   52.0560   -6.6080 C   0  0  0  0  0  0  0  0  0  0  0  0
   27.7960   51.9130   -4.0530 C   0  0  0  0  0  0  0  0  0  0  0  0
   28.6440   51.4850   -5.2460 C   0  0  1  0  0  0  0  0  0  0  0  0
   28.9250   50.0160   -4.9910 C   0  0  0  0  0  0  0  0  0  0  0  0
   29.9680   52.2470   -4.9950 C   0  0  0  0  0  0  0  0  0  0  0  0
   29.6880   49.7150   -3.9130 C   0  0  0  0  0  0  0  0  0  0  0  0
   30.3630   52.0150   -3.5760 C   0  0  0  0  0  0  0  0  0  0  0  0
   30.2120   50.7830   -3.0710 C   0  0  0  0  0  0  0  0  0  0  0  0
  1  2  1  0
  2  3  2  0
  2  4  1  0
  4  5  1  0
  5  6  1  0
  6  7  1  0
  6  8  2  0
  7  9  1  0
  8 10  1  0
  9 10  2  0
  9 11  1  0
 10 12  1  0
 11 13  2  0
 14 12  1  6
 14 13  1  0
 14 15  1  0
 14 16  1  0
 15 17  2  0
 16 18  1  0
 17 19  1  0
 18 19  2  0
M  END
