mac-x0576-mac-x0555
     RDKit          3D

 19 21  0  0  0  0  0  0  0  0999 V2000
   28.9890   46.9320   -8.5800 N   0  0  0  0  0  0  0  0  0  0  0  0
   29.1980   47.9530   -7.7010 C   0  0  0  0  0  0  0  0  0  0  0  0
   28.7760   49.1170   -7.9990 N   0  0  0  0  0  0  0  0  0  0  0  0
   29.8450   47.6720   -6.5630 N   0  0  0  0  0  0  0  0  0  0  0  0
   29.8010   48.5500   -5.5220 C   0  0  0  0  0  0  0  0  0  0  0  0
   28.9900   50.1730   -7.1300 C   0  0  0  0  0  0  0  0  0  0  0  0
   30.0020   48.0900   -4.3910 O   0  0  0  0  0  0  0  0  0  0  0  0
   29.5030   50.0110   -5.8730 C   0  0  0  0  0  0  0  0  0  0  0  0
   28.5830   51.2390   -7.8480 N   0  0  0  0  0  0  0  0  0  0  0  0
   28.6300   52.4750   -7.3840 C   0  0  0  0  0  0  0  0  0  0  0  0
   29.8220   50.8500   -4.8360 N   0  0  0  0  0  0  0  0  0  0  0  0
   28.2720   53.4680   -8.0050 O   0  0  0  0  0  0  0  0  0  0  0  0
   29.6420   52.2000   -4.9370 C   0  0  0  0  0  0  0  0  0  0  0  0
   29.1390   52.9900   -5.9810 C   0  0  0  0  0  0  0  0  0  0  0  0
   30.0220   52.9650   -3.8190 C   0  0  0  0  0  0  0  0  0  0  0  0
   29.0170   54.3570   -5.9360 N   0  0  0  0  0  0  0  0  0  0  0  0
   29.9000   54.3610   -3.7820 C   0  0  0  0  0  0  0  0  0  0  0  0
   29.3950   54.9870   -4.8580 C   0  0  0  0  0  0  0  0  0  0  0  0
   30.2830   55.1250   -2.6730 N   0  0  0  0  0  0  0  0  0  0  0  0
  1  2  1  0
  2  3  2  0
  2  4  1  0
  4  5  1  0
  3  6  1  0
  5  7  2  0
  5  8  1  0
  6  8  1  0
  6  9  2  0
  9 10  1  0
  8 11  2  0
 10 12  2  0
 11 13  1  0
 10 14  1  0
 13 14  2  0
 13 15  1  0
 14 16  1  0
 15 17  2  0
 16 18  2  0
 17 18  1  0
 17 19  1  0
M  END
