mac-x0204-mac-x0348
     RDKit          3D

 23 25  0  0  0  0  0  0  0  0999 V2000
   31.3150   45.1350   -4.6230 N   0  0  0  0  0  0  0  0  0  0  0  0
   30.6550   46.2660   -3.9510 C   0  0  2  0  0  0  0  0  0  0  0  0
   29.8810   47.0550   -4.8550 O   0  0  0  0  0  0  0  0  0  0  0  0
   31.8190   45.2460   -5.7960 C   0  0  0  0  0  0  0  0  0  0  0  0
   32.4910   44.1080   -6.4880 C   0  0  0  0  0  0  0  0  0  0  0  0
   31.8140   46.3650   -6.5440 O   0  0  0  0  0  0  0  0  0  0  0  0
   31.7230   47.1580   -3.3160 C   0  0  0  0  0  0  0  0  0  0  0  0
   29.7780   45.6190   -2.8220 C   0  0  2  0  0  0  0  0  0  0  0  0
   32.3430   46.8410   -2.0960 C   0  0  0  0  0  0  0  0  0  0  0  0
   32.1290   48.3460   -3.9340 C   0  0  0  0  0  0  0  0  0  0  0  0
   28.4160   45.1010   -3.3660 C   0  0  0  0  0  0  0  0  0  0  0  0
   29.3240   46.4640   -1.6030 C   0  0  2  0  0  0  0  0  0  0  0  0
   33.3030   47.6930   -1.5670 C   0  0  0  0  0  0  0  0  0  0  0  0
   33.0640   49.1930   -3.4390 N   0  0  0  0  0  0  0  0  0  0  0  0
   27.4290   45.2160   -2.2680 N   0  0  0  0  0  0  0  0  0  0  0  0
   27.7830   46.4820   -1.6320 C   0  0  1  0  0  0  0  0  0  0  0  0
   29.8340   47.8250   -1.2170 C   0  0  0  0  0  0  0  0  0  0  0  0
   33.9270   47.4230   -0.3850 O   0  0  0  0  0  0  0  0  0  0  0  0
   27.4980   44.0490   -1.3910 C   0  0  0  0  0  0  0  0  0  0  0  0
   33.6310   48.8440   -2.2620 C   0  0  0  0  0  0  0  0  0  0  0  0
   29.1450   48.5080   -0.2830 C   0  0  0  0  0  0  0  0  0  0  0  0
   27.2670   46.9570   -0.3040 C   0  0  0  0  0  0  0  0  0  0  0  0
   27.9470   47.9370    0.3220 C   0  0  0  0  0  0  0  0  0  0  0  0
  2  1  1  0
  2  3  1  6
  1  4  2  3
  4  5  1  0
  4  6  1  0
  2  7  1  0
  2  8  1  0
  7  9  2  0
  7 10  1  0
  8 11  1  6
  8 12  1  0
  9 13  1  0
 10 14  2  0
 11 15  1  0
 12 16  1  0
 15 16  1  0
 12 17  1  6
 13 18  1  0
 15 19  1  0
 13 20  2  0
 14 20  1  0
 17 21  2  0
 16 22  1  1
 21 23  1  0
 22 23  2  0
M  END
