mac-x0496-mac-x0148
     RDKit          3D

 33 37  0  0  0  0  0  0  0  0999 V2000
   24.4750   58.4810   -6.2840 C   0  0  0  0  0  0  0  0  0  0  0  0
   25.8420   58.1890   -5.8210 C   0  0  0  0  0  0  0  0  0  0  0  0
   26.3980   58.8270   -4.7820 N   0  0  0  0  0  0  0  0  0  0  0  0
   26.6420   57.2460   -6.4190 N   0  0  0  0  0  0  0  0  0  0  0  0
   27.6670   58.2510   -4.6940 O   0  0  0  0  0  0  0  0  0  0  0  0
   27.7400   57.3240   -5.6930 C   0  0  0  0  0  0  0  0  0  0  0  0
   29.0130   56.5670   -5.8080 C   0  0  0  0  0  0  0  0  0  0  0  0
   28.7910   55.1730   -5.4800 N   0  0  0  0  0  0  0  0  0  0  0  0
   29.6740   54.4820   -4.6790 C   0  0  0  0  0  0  0  0  0  0  0  0
   30.4020   55.0560   -3.8720 O   0  0  0  0  0  0  0  0  0  0  0  0
   29.6670   52.9550   -4.8880 C   0  0  2  0  0  0  0  0  0  0  0  0
   29.5180   52.5770   -6.3220 C   0  0  0  0  0  0  0  0  0  0  0  0
   28.5390   52.2980   -4.0800 C   0  0  0  0  0  0  0  0  0  0  0  0
   29.2120   51.3300   -6.6720 C   0  0  0  0  0  0  0  0  0  0  0  0
   28.4530   50.7580   -4.2820 C   0  0  1  0  0  0  0  0  0  0  0  0
   27.0330   50.3450   -3.9550 C   0  0  0  0  0  0  0  0  0  0  0  0
   28.9990   50.1990   -5.6550 C   0  0  1  0  0  0  0  0  0  0  0  0
   26.1440   50.0770   -4.7500 O   0  0  0  0  0  0  0  0  0  0  0  0
   26.7870   50.2810   -2.6300 O   0  0  0  0  0  0  0  0  0  0  0  0
   28.0030   49.2760   -6.2480 N   0  0  0  0  0  0  0  0  0  0  0  0
   30.3630   49.4810   -5.4870 C   0  0  0  0  0  0  0  0  0  0  0  0
   28.5660   48.3770   -7.2380 C   0  0  0  0  0  0  0  0  0  0  0  0
   30.1170   47.9700   -5.4020 C   0  0  2  0  0  0  0  0  0  0  0  0
   31.2480   47.1070   -5.0770 N   0  0  0  0  0  0  0  0  0  0  0  0
   29.5100   47.4750   -6.6300 N   0  0  0  0  0  0  0  0  0  0  0  0
   31.9000   47.4330   -3.8050 C   0  0  1  0  0  0  0  0  0  0  0  0
   32.1850   46.8020   -6.1680 C   0  0  0  0  0  0  0  0  0  0  0  0
   31.0560   47.0960   -2.5710 C   0  0  0  0  0  0  0  0  0  0  0  0
   33.2290   46.7360   -3.5270 C   0  0  1  0  0  0  0  0  0  0  0  0
   33.3030   45.8020   -5.8480 C   0  0  0  0  0  0  0  0  0  0  0  0
   33.1870   46.4120   -2.0330 C   0  0  0  0  0  0  0  0  0  0  0  0
   31.9830   46.9660   -1.4890 O   0  0  0  0  0  0  0  0  0  0  0  0
   33.3650   45.4630   -4.3630 C   0  0  0  0  0  0  0  0  0  0  0  0
  1  2  1  0
  2  3  2  0
  2  4  1  0
  3  5  1  0
  4  6  2  0
  5  6  1  0
  6  7  1  0
  7  8  1  0
  8  9  1  0
  9 10  2  0
 11  9  1  6
 11 12  1  0
 11 13  1  0
 12 14  2  0
 13 15  1  0
 15 16  1  6
 17 14  1  6
 15 17  1  0
 16 18  2  0
 16 19  1  0
 17 20  1  0
 17 21  1  0
 20 22  1  0
 21 23  1  0
 23 24  1  6
 22 25  1  0
 23 25  1  0
 24 26  1  0
 24 27  1  0
 26 28  1  1
 26 29  1  0
 27 30  1  0
 29 31  1  1
 28 32  1  0
 31 32  1  0
 29 33  1  0
 30 33  1  0
M  END
