mac-x0137-mac-x0397
     RDKit          3D

 23 26  0  0  0  0  0  0  0  0999 V2000
   31.7870   48.7400   -3.1700 F   0  0  0  0  0  0  0  0  0  0  0  0
   30.9760   47.6620   -3.3830 C   0  0  2  0  0  0  0  0  0  0  0  0
   31.8310   46.5600   -3.9890 C   0  0  0  0  0  0  0  0  0  0  0  0
   29.8300   48.0680   -4.3190 C   0  0  0  0  0  0  0  0  0  0  0  0
   30.2350   48.3080   -5.7210 N   0  0  0  0  0  0  0  0  0  0  0  0
   32.2940   46.9370   -5.3890 C   0  0  0  0  0  0  0  0  0  0  0  0
   31.1010   47.2640   -6.2890 C   0  0  0  0  0  0  0  0  0  0  0  0
   29.1900   48.6760   -6.5810 C   0  0  0  0  0  0  0  0  0  0  0  0
   28.6570   47.7420   -7.3940 N   0  0  0  0  0  0  0  0  0  0  0  0
   28.7030   49.9660   -6.6100 C   0  0  0  0  0  0  0  0  0  0  0  0
   27.6570   48.1180   -8.2140 C   0  0  0  0  0  0  0  0  0  0  0  0
   27.6750   50.2290   -7.4970 C   0  0  0  0  0  0  0  0  0  0  0  0
   29.0430   51.2470   -5.8610 C   0  0  2  0  0  0  0  0  0  0  0  0
   27.1230   49.3400   -8.3140 N   0  0  0  0  0  0  0  0  0  0  0  0
   27.2560   51.5790   -7.4490 N   0  0  0  0  0  0  0  0  0  0  0  0
   28.4490   52.2420   -6.9600 C   0  0  1  0  0  0  0  0  0  0  0  0
   30.5660   51.4660   -5.7140 C   0  0  0  0  0  0  0  0  0  0  0  0
   28.2370   51.3000   -4.5250 C   0  0  0  0  0  0  0  0  0  0  0  0
   28.2920   53.6170   -6.5300 N   0  0  0  0  0  0  0  0  0  0  0  0
   29.0360   51.4100   -3.2150 C   0  0  2  0  0  0  0  0  0  0  0  0
   31.1480   50.9190   -4.4480 C   0  0  0  0  0  0  0  0  0  0  0  0
   29.1110   53.0860   -2.5950 Cl  0  0  0  0  0  0  0  0  0  0  0  0
   30.4420   50.8960   -3.3080 C   0  0  0  0  0  0  0  0  0  0  0  0
  2  1  1  6
  2  3  1  0
  2  4  1  0
  4  5  1  0
  3  6  1  0
  5  7  1  0
  6  7  1  0
  5  8  1  0
  8  9  2  0
  8 10  1  0
  9 11  1  0
 10 12  2  0
 10 13  1  0
 11 14  2  0
 12 14  1  0
 12 15  1  0
 13 16  1  0
 15 16  1  0
 13 17  1  1
 13 18  1  0
 16 19  1  1
 18 20  1  0
 17 21  1  0
 20 22  1  6
 20 23  1  0
 21 23  2  0
M  END
