mac-x1493-mac-x0190
     RDKit          3D

 15 16  0  0  0  0  0  0  0  0999 V2000
   29.5890   47.9450   -5.4290 O   0  0  0  0  0  0  0  0  0  0  0  0
   29.8400   48.5940   -4.2810 C   0  0  0  0  0  0  0  0  0  0  0  0
   30.1080   47.9910   -3.2580 O   0  0  0  0  0  0  0  0  0  0  0  0
   29.7620   50.0590   -4.4140 C   0  0  0  0  0  0  0  0  0  0  0  0
   29.1950   50.7190   -5.5110 C   0  0  0  0  0  0  0  0  0  0  0  0
   30.2870   50.8330   -3.3950 C   0  0  0  0  0  0  0  0  0  0  0  0
   29.1880   52.1230   -5.5450 C   0  0  0  0  0  0  0  0  0  0  0  0
   30.2930   52.1840   -3.3950 N   0  0  0  0  0  0  0  0  0  0  0  0
   29.7590   52.8100   -4.4520 C   0  0  0  0  0  0  0  0  0  0  0  0
   28.6410   52.8490   -6.6220 C   0  0  0  0  0  0  0  0  0  0  0  0
   29.7730   54.1870   -4.4710 C   0  0  0  0  0  0  0  0  0  0  0  0
   28.6710   54.2480   -6.6120 C   0  0  0  0  0  0  0  0  0  0  0  0
   29.2480   54.9240   -5.5260 C   0  0  0  0  0  0  0  0  0  0  0  0
   29.3260   56.4210   -5.4570 C   0  0  0  0  0  0  0  0  0  0  0  0
   28.0330   56.9860   -5.4420 O   0  0  0  0  0  0  0  0  0  0  0  0
  1  2  1  0
  2  3  2  0
  2  4  1  0
  4  5  2  0
  4  6  1  0
  5  7  1  0
  6  8  2  0
  7  9  2  0
  8  9  1  0
  7 10  1  0
  9 11  1  0
 10 12  2  0
 11 13  2  0
 12 13  1  0
 13 14  1  0
 14 15  1  0
M  END
