mac-x0398-mac-x0131
     RDKit          3D

 26 30  0  0  0  0  0  0  0  0999 V2000
   28.8110   54.5140   -6.1140 N   0  0  0  0  0  0  0  0  0  0  0  0
   29.2700   54.0760   -4.7990 C   0  0  1  0  0  0  0  0  0  0  0  0
   28.1260   53.4550   -4.0500 C   0  0  0  0  0  0  0  0  0  0  0  0
   30.5240   53.1830   -4.9610 C   0  0  0  0  0  0  0  0  0  0  0  0
   30.3330   51.7360   -4.4490 C   0  0  2  0  0  0  0  0  0  0  0  0
   28.2530   52.3790   -3.2680 C   0  0  0  0  0  0  0  0  0  0  0  0
   29.8720   50.8780   -5.5070 O   0  0  0  0  0  0  0  0  0  0  0  0
   29.5780   51.6920   -3.0800 C   0  0  1  0  0  0  0  0  0  0  0  0
   29.3180   50.2870   -2.4530 C   0  0  0  0  0  0  0  0  0  0  0  0
   29.1670   49.7220   -5.0730 C   0  0  2  0  0  0  0  0  0  0  0  0
   30.2080   49.1930   -2.8520 N   0  0  0  0  0  0  0  0  0  0  0  0
   30.1230   48.8230   -4.2450 C   0  0  1  0  0  0  0  0  0  0  0  0
   28.7040   48.7760   -6.1810 C   0  0  2  0  0  0  0  0  0  0  0  0
   29.3780   47.4390   -5.8830 C   0  0  2  0  0  0  0  0  0  0  0  0
   29.5720   47.4740   -4.4220 N   0  0  0  0  0  0  0  0  0  0  0  0
   28.9520   49.0960   -7.6470 C   0  0  2  0  0  0  0  0  0  0  0  0
   27.8480   49.8000   -8.2590 N   0  0  0  0  0  0  0  0  0  0  0  0
   29.1370   47.8910   -8.4460 N   0  0  0  0  0  0  0  0  0  0  0  0
   30.5950   47.3050   -6.6600 N   0  0  0  0  0  0  0  0  0  0  0  0
   30.4130   46.3690   -3.9120 C   0  0  0  0  0  0  0  0  0  0  0  0
   30.3180   47.1360   -8.0750 C   0  0  0  0  0  0  0  0  0  0  0  0
   31.8460   46.3810   -4.3530 C   0  0  0  0  0  0  0  0  0  0  0  0
   32.4900   45.9920   -5.5130 C   0  0  0  0  0  0  0  0  0  0  0  0
   32.7660   46.8650   -3.4620 O   0  0  0  0  0  0  0  0  0  0  0  0
   33.9830   46.7810   -4.0580 C   0  0  0  0  0  0  0  0  0  0  0  0
   33.8670   46.2520   -5.3190 C   0  0  0  0  0  0  0  0  0  0  0  0
  2  1  1  6
  2  3  1  0
  2  4  1  0
  5  4  1  6
  3  6  2  0
  5  7  1  0
  5  8  1  0
  8  6  1  6
  8  9  1  0
 10  7  1  6
  9 11  1  0
 10 12  1  0
 12 11  1  1
 10 13  1  0
 13 14  1  0
 12 15  1  0
 14 15  1  0
 13 16  1  6
 16 17  1  6
 16 18  1  0
 14 19  1  6
 15 20  1  0
 18 21  1  0
 19 21  1  0
 20 22  1  0
 22 23  2  0
 22 24  1  0
 24 25  1  0
 23 26  1  0
 25 26  2  0
M  END
