mac-x0138-mac-x0572
     RDKit          3D

 24 27  0  0  0  0  0  0  0  0999 V2000
   31.0360   46.3230   -4.5780 C   0  0  0  0  0  0  0  0  0  0  0  0
   30.4260   47.5870   -4.8510 N   0  0  0  0  0  0  0  0  0  0  0  0
   30.1950   48.5620   -3.9260 C   0  0  0  0  0  0  0  0  0  0  0  0
   29.9690   48.0300   -6.0770 C   0  0  0  0  0  0  0  0  0  0  0  0
   29.6200   49.5880   -4.4710 N   0  0  0  0  0  0  0  0  0  0  0  0
   29.4820   49.2470   -5.8050 C   0  0  0  0  0  0  0  0  0  0  0  0
   29.9610   47.4620   -7.2900 N   0  0  0  0  0  0  0  0  0  0  0  0
   28.9340   49.9440   -6.8390 C   0  0  0  0  0  0  0  0  0  0  0  0
   29.3980   48.2550   -8.2490 C   0  0  0  0  0  0  0  0  0  0  0  0
   29.3550   47.7310   -9.5190 N   0  0  0  0  0  0  0  0  0  0  0  0
   28.8710   49.4990   -8.1030 N   0  0  0  0  0  0  0  0  0  0  0  0
   28.5140   51.0670   -6.1480 C   0  0  0  0  0  0  0  0  0  0  0  0
   28.8810   52.4970   -6.0030 C   0  0  0  0  0  0  0  0  0  0  0  0
   27.7010   50.6050   -5.2160 C   0  0  0  0  0  0  0  0  0  0  0  0
   29.2760   52.6700   -4.5640 C   0  0  1  0  0  0  0  0  0  0  0  0
   28.8440   53.4550   -6.8860 N   0  0  0  0  0  0  0  0  0  0  0  0
   27.2290   51.4080   -4.1640 C   0  0  0  0  0  0  0  0  0  0  0  0
   29.1830   54.7370   -6.4650 C   0  0  0  0  0  0  0  0  0  0  0  0
   29.8900   53.9860   -4.2490 C   0  0  0  0  0  0  0  0  0  0  0  0
   28.0080   52.4260   -3.8070 C   0  0  0  0  0  0  0  0  0  0  0  0
   28.9290   55.7790   -7.5270 C   0  0  0  0  0  0  0  0  0  0  0  0
   30.5370   54.1730   -3.2180 O   0  0  0  0  0  0  0  0  0  0  0  0
   29.6780   55.0690   -5.2440 C   0  0  0  0  0  0  0  0  0  0  0  0
   30.0060   56.3430   -4.8260 O   0  0  0  0  0  0  0  0  0  0  0  0
  1  2  1  0
  2  3  1  0
  2  4  1  0
  3  5  2  0
  4  6  2  0
  5  6  1  0
  4  7  1  0
  6  8  1  0
  7  9  2  0
  9 10  1  0
  8 11  2  0
  9 11  1  0
  8 12  1  0
 12 13  1  0
 12 14  2  0
 13 15  1  0
 13 16  2  0
 14 17  1  0
 16 18  1  0
 15 19  1  0
 15 20  1  1
 17 20  2  0
 18 21  1  0
 19 22  2  0
 18 23  2  0
 19 23  1  0
 23 24  1  0
M  END
