mac-x0451-mac-x0341
     RDKit          3D

 12 13  0  0  0  0  0  0  0  0999 V2000
   28.7320   54.1850   -7.8020 N   0  0  0  0  0  0  0  0  0  0  0  0
   29.0500   52.8730   -7.1770 C   0  0  0  0  0  0  0  0  0  0  0  0
   29.4100   52.6340   -5.7600 N   0  0  0  0  0  0  0  0  0  0  0  0
   29.0250   51.4310   -8.1010 S   0  0  0  0  0  0  0  0  0  0  0  0
   29.4610   53.6290   -4.9810 O   0  0  0  0  0  0  0  0  0  0  0  0
   29.6450   51.3290   -5.4890 C   0  0  0  0  0  0  0  0  0  0  0  0
   29.4770   50.5480   -6.6500 C   0  0  0  0  0  0  0  0  0  0  0  0
   30.0040   50.7630   -4.2530 C   0  0  0  0  0  0  0  0  0  0  0  0
   29.6800   49.1560   -6.5670 C   0  0  0  0  0  0  0  0  0  0  0  0
   30.2000   49.3820   -4.1970 C   0  0  0  0  0  0  0  0  0  0  0  0
   30.0370   48.6030   -5.3350 C   0  0  0  0  0  0  0  0  0  0  0  0
   30.2330   47.2800   -5.2520 F   0  0  0  0  0  0  0  0  0  0  0  0
  1  2  1  0
  2  3  2  0
  2  4  1  0
  3  5  1  0
  3  6  1  0
  4  7  1  0
  6  7  2  0
  6  8  1  0
  7  9  1  0
  8 10  2  0
  9 11  2  0
 10 11  1  0
 11 12  1  0
M  CHG  2   3   1   5  -1
M  END
