mac-x0360-mac-x1494
     RDKit          3D

 21 23  0  0  0  0  0  0  0  0999 V2000
   32.1640   54.4230   -8.4260 Cl  0  0  0  0  0  0  0  0  0  0  0  0
   32.3350   53.5150   -6.9710 C   0  0  0  0  0  0  0  0  0  0  0  0
   33.4470   52.6910   -6.8050 C   0  0  0  0  0  0  0  0  0  0  0  0
   31.3660   53.6080   -5.9770 C   0  0  0  0  0  0  0  0  0  0  0  0
   31.4980   52.8740   -4.7920 C   0  0  0  0  0  0  0  0  0  0  0  0
   33.5810   51.9610   -5.6260 C   0  0  0  0  0  0  0  0  0  0  0  0
   34.9590   50.9450   -5.4250 Cl  0  0  0  0  0  0  0  0  0  0  0  0
   30.1760   53.0780   -3.5680 S   0  0  0  0  0  0  0  0  0  0  0  0
   32.6180   52.0440   -4.6220 C   0  0  0  0  0  0  0  0  0  0  0  0
   30.6020   51.7400   -2.6730 N   0  0  0  0  0  0  0  0  0  0  0  0
   28.9640   52.3340   -4.5140 N   0  0  0  0  0  0  0  0  0  0  0  0
   29.1300   51.0690   -4.9520 C   0  0  0  0  0  0  0  0  0  0  0  0
   29.2490   49.8650   -4.3840 C   0  0  0  0  0  0  0  0  0  0  0  0
   29.2450   50.6340   -6.3800 C   0  0  0  0  0  0  0  0  0  0  0  0
   29.3950   48.7440   -5.3490 C   0  0  1  0  0  0  0  0  0  0  0  0
   29.2550   49.4910   -2.9940 C   0  0  0  0  0  0  0  0  0  0  0  0
   29.4080   49.3650   -6.6790 N   0  0  0  0  0  0  0  0  0  0  0  0
   30.5690   47.8960   -4.9760 C   0  0  0  0  0  0  0  0  0  0  0  0
   30.0540   48.4590   -2.6500 C   0  0  0  0  0  0  0  0  0  0  0  0
   30.8610   47.7710   -3.6650 C   0  0  0  0  0  0  0  0  0  0  0  0
   32.1910   46.8060   -3.1350 Cl  0  0  0  0  0  0  0  0  0  0  0  0
  1  2  1  0
  2  3  2  0
  2  4  1  0
  4  5  2  0
  3  6  1  0
  6  7  1  0
  5  8  1  0
  5  9  1  0
  6  9  2  0
  8 10  1  0
  8 11  2  3
 11 12  1  0
 12 13  2  0
 12 14  1  0
 13 15  1  0
 13 16  1  0
 14 17  2  0
 15 17  1  0
 15 18  1  1
 16 19  2  0
 18 20  2  0
 19 20  1  0
 20 21  1  0
M  END
