mac-x0231-mac-x1493
     RDKit          3D

 28 31  0  0  0  0  0  0  0  0999 V2000
   34.4320   42.9590   -5.8150 O   0  0  0  0  0  0  0  0  0  0  0  0
   33.0830   42.9080   -5.8290 C   0  0  0  0  0  0  0  0  0  0  0  0
   32.4810   42.9230   -6.8900 O   0  0  0  0  0  0  0  0  0  0  0  0
   32.5010   42.8310   -4.4450 C   0  0  0  0  0  0  0  0  0  0  0  0
   31.4340   43.8800   -4.1780 C   0  0  0  0  0  0  0  0  0  0  0  0
   31.8070   45.2240   -3.6610 C   0  0  0  0  0  0  0  0  0  0  0  0
   30.2080   43.5380   -4.4330 N   0  0  0  0  0  0  0  0  0  0  0  0
   30.8050   46.2110   -3.6130 C   0  0  0  0  0  0  0  0  0  0  0  0
   29.2440   44.4650   -4.2140 N   0  0  0  0  0  0  0  0  0  0  0  0
   33.1090   45.5230   -3.2330 C   0  0  0  0  0  0  0  0  0  0  0  0
   29.4520   45.8140   -4.0760 C   0  0  0  0  0  0  0  0  0  0  0  0
   31.1230   47.5030   -3.1400 C   0  0  0  0  0  0  0  0  0  0  0  0
   33.4210   46.7920   -2.7610 C   0  0  0  0  0  0  0  0  0  0  0  0
   28.5450   46.6030   -4.3270 O   0  0  0  0  0  0  0  0  0  0  0  0
   30.2420   48.5940   -3.0460 N   0  0  0  0  0  0  0  0  0  0  0  0
   32.4330   47.7710   -2.7180 C   0  0  0  0  0  0  0  0  0  0  0  0
   30.4740   49.6140   -3.8030 C   0  0  0  0  0  0  0  0  0  0  0  0
   31.5420   49.5400   -4.6160 O   0  0  0  0  0  0  0  0  0  0  0  0
   29.8090   50.9020   -3.9830 C   0  0  0  0  0  0  0  0  0  0  0  0
   29.3880   51.3330   -5.2360 C   0  0  0  0  0  0  0  0  0  0  0  0
   29.5860   51.7290   -2.8940 C   0  0  0  0  0  0  0  0  0  0  0  0
   28.7590   52.5770   -5.3630 C   0  0  0  0  0  0  0  0  0  0  0  0
   28.9790   52.9380   -2.9810 N   0  0  0  0  0  0  0  0  0  0  0  0
   28.5740   53.3540   -4.1950 C   0  0  0  0  0  0  0  0  0  0  0  0
   28.3180   53.0560   -6.6080 C   0  0  0  0  0  0  0  0  0  0  0  0
   27.9520   54.5860   -4.3210 C   0  0  0  0  0  0  0  0  0  0  0  0
   27.6970   54.2980   -6.7040 C   0  0  0  0  0  0  0  0  0  0  0  0
   27.5120   55.0660   -5.5580 C   0  0  0  0  0  0  0  0  0  0  0  0
  1  2  1  0
  2  3  2  0
  2  4  1  0
  4  5  1  0
  5  6  1  0
  5  7  2  0
  6  8  2  0
  7  9  1  0
  6 10  1  0
  8 11  1  0
  9 11  1  0
  8 12  1  0
 10 13  2  0
 11 14  2  0
 12 15  1  0
 12 16  2  0
 13 16  1  0
 15 17  2  3
 17 18  1  0
 17 19  1  0
 19 20  2  0
 19 21  1  0
 20 22  1  0
 21 23  2  0
 22 24  2  0
 23 24  1  0
 22 25  1  0
 24 26  1  0
 25 27  2  0
 26 28  2  0
 27 28  1  0
M  END
