mac-x0138-mac-x0159
     RDKit          3D

 18 20  0  0  0  0  0  0  0  0999 V2000
   30.5430   46.8910   -4.1150 C   0  0  0  0  0  0  0  0  0  0  0  0
   30.0500   48.1850   -4.5440 N   0  0  0  0  0  0  0  0  0  0  0  0
   29.8400   49.2840   -3.7520 C   0  0  0  0  0  0  0  0  0  0  0  0
   29.5160   46.1330   -3.3360 C   0  0  0  0  0  0  0  0  0  0  0  0
   29.7070   48.5330   -5.8230 C   0  0  0  0  0  0  0  0  0  0  0  0
   28.5920   45.2270   -3.8280 C   0  0  0  0  0  0  0  0  0  0  0  0
   29.4490   46.3280   -1.9610 N   0  0  0  0  0  0  0  0  0  0  0  0
   29.3850   50.3120   -4.4400 N   0  0  0  0  0  0  0  0  0  0  0  0
   29.2990   49.8490   -5.7400 C   0  0  0  0  0  0  0  0  0  0  0  0
   29.7570   47.7600   -6.9210 N   0  0  0  0  0  0  0  0  0  0  0  0
   28.4940   45.5840   -1.4400 C   0  0  0  0  0  0  0  0  0  0  0  0
   27.6240   44.6100   -2.5550 S   0  0  0  0  0  0  0  0  0  0  0  0
   28.1480   45.5500    0.0090 C   0  0  0  0  0  0  0  0  0  0  0  0
   28.8900   50.4440   -6.9450 C   0  0  0  0  0  0  0  0  0  0  0  0
   29.3440   48.4230   -8.0140 C   0  0  0  0  0  0  0  0  0  0  0  0
   28.4510   51.7600   -7.0320 N   0  0  0  0  0  0  0  0  0  0  0  0
   29.3540   47.7240   -9.2050 N   0  0  0  0  0  0  0  0  0  0  0  0
   28.9240   49.6990   -8.0770 N   0  0  0  0  0  0  0  0  0  0  0  0
  1  2  1  0
  2  3  1  0
  1  4  1  0
  2  5  1  0
  4  6  2  0
  4  7  1  0
  3  8  2  0
  5  9  2  0
  8  9  1  0
  5 10  1  0
  7 11  2  0
  6 12  1  0
 11 12  1  0
 11 13  1  0
  9 14  1  0
 10 15  2  0
 14 16  1  0
 15 17  1  0
 14 18  2  0
 15 18  1  0
M  END
