mac-x0282-mac-x0375
     RDKit          3D

 21 23  0  0  0  0  0  0  0  0999 V2000
   31.2810   45.4740   -5.9610 O   0  0  0  0  0  0  0  0  0  0  0  0
   32.5770   45.0630   -5.9550 C   0  0  0  0  0  0  0  0  0  0  0  0
   33.2580   44.8760   -6.9580 O   0  0  0  0  0  0  0  0  0  0  0  0
   30.7810   45.8560   -7.2460 C   0  0  0  0  0  0  0  0  0  0  0  0
   33.0860   44.8590   -4.5300 C   0  0  0  0  0  0  0  0  0  0  0  0
   30.1090   47.1970   -7.1290 C   0  0  0  0  0  0  0  0  0  0  0  0
   34.4890   44.6650   -4.3830 O   0  0  0  0  0  0  0  0  0  0  0  0
   30.1950   47.9560   -5.9540 C   0  0  0  0  0  0  0  0  0  0  0  0
   29.3760   47.7200   -8.1960 C   0  0  0  0  0  0  0  0  0  0  0  0
   29.5400   49.2000   -5.9170 C   0  0  0  0  0  0  0  0  0  0  0  0
   28.7260   48.9110   -8.2140 N   0  0  0  0  0  0  0  0  0  0  0  0
   35.2400   45.6740   -3.8400 C   0  0  0  0  0  0  0  0  0  0  0  0
   29.3790   50.2420   -4.9660 C   0  0  0  0  0  0  0  0  0  0  0  0
   28.8480   49.5880   -7.0590 C   0  0  0  0  0  0  0  0  0  0  0  0
   36.4410   45.5030   -3.1450 C   0  0  0  0  0  0  0  0  0  0  0  0
   34.7310   46.9630   -4.0190 C   0  0  0  0  0  0  0  0  0  0  0  0
   28.6040   51.2260   -5.5460 C   0  0  0  0  0  0  0  0  0  0  0  0
   28.2890   50.8150   -6.8180 N   0  0  0  0  0  0  0  0  0  0  0  0
   37.1190   46.6140   -2.6380 C   0  0  0  0  0  0  0  0  0  0  0  0
   35.4100   48.0710   -3.5110 C   0  0  0  0  0  0  0  0  0  0  0  0
   36.6060   47.8970   -2.8200 C   0  0  0  0  0  0  0  0  0  0  0  0
  1  2  1  0
  2  3  2  0
  1  4  1  0
  2  5  1  0
  4  6  1  0
  5  7  1  0
  6  8  2  0
  6  9  1  0
  8 10  1  0
  9 11  2  0
  7 12  1  0
 10 13  1  0
 10 14  2  0
 11 14  1  0
 12 15  2  0
 12 16  1  0
 13 17  2  0
 14 18  1  0
 17 18  1  0
 15 19  1  0
 16 20  2  0
 19 21  2  0
 20 21  1  0
M  END
