mac-x0555-mac-x0587
     RDKit          3D

 21 22  0  0  0  0  0  0  0  0999 V2000
   29.1820   55.5910   -6.5580 N   0  0  0  0  0  0  0  0  0  0  0  0
   29.0110   54.5130   -5.5750 C   0  0  2  0  0  0  0  0  0  0  0  0
   30.0900   54.5290   -4.4770 C   0  0  0  0  0  0  0  0  0  0  0  0
   28.9790   53.1680   -6.3030 C   0  0  0  0  0  0  0  0  0  0  0  0
   29.4810   51.9750   -5.4640 C   0  0  1  0  0  0  0  0  0  0  0  0
   30.0420   53.4250   -3.5100 N   0  0  0  0  0  0  0  0  0  0  0  0
   29.4020   52.1730   -3.9470 C   0  0  2  0  0  0  0  0  0  0  0  0
   28.7100   50.7230   -5.8510 C   0  0  0  0  0  0  0  0  0  0  0  0
   30.0880   50.9680   -3.2500 C   0  0  0  0  0  0  0  0  0  0  0  0
   29.2390   49.4890   -5.1550 C   0  0  0  0  0  0  0  0  0  0  0  0
   29.4190   48.4490   -5.8020 O   0  0  0  0  0  0  0  0  0  0  0  0
   29.5120   49.5850   -3.6620 C   0  0  1  0  0  0  0  0  0  0  0  0
   30.3310   48.3860   -3.1370 C   0  0  0  0  0  0  0  0  0  0  0  0
   30.4680   47.0580   -3.9220 C   0  0  2  0  0  0  0  0  0  0  0  0
   30.8830   48.5020   -2.0440 O   0  0  0  0  0  0  0  0  0  0  0  0
   29.3230   46.0930   -3.6050 C   0  0  0  0  0  0  0  0  0  0  0  0
   32.0850   46.2180   -3.6290 S   0  0  0  0  0  0  0  0  0  0  0  0
   33.1470   46.8320   -4.9890 C   0  0  0  0  0  0  0  0  0  0  0  0
   33.2210   45.9060   -6.1900 C   0  0  0  0  0  0  0  0  0  0  0  0
   34.2120   45.5370   -6.7930 O   0  0  0  0  0  0  0  0  0  0  0  0
   32.0000   45.4830   -6.5890 O   0  0  0  0  0  0  0  0  0  0  0  0
  2  1  1  6
  2  3  1  0
  2  4  1  0
  5  4  1  6
  3  6  1  0
  5  7  1  0
  6  7  1  0
  5  8  1  0
  7  9  1  1
  8 10  1  0
 10 11  2  0
  9 12  1  0
 10 12  1  0
 12 13  1  6
 13 14  1  0
 13 15  2  0
 14 16  1  1
 14 17  1  0
 17 18  1  0
 18 19  1  0
 19 20  2  0
 19 21  1  0
M  END
