mac-x0385-mac-x0379
     RDKit          3D

 12 12  0  0  0  0  0  0  0  0999 V2000
   29.4030   51.4860   -2.5390 C   0  0  0  0  0  0  0  0  0  0  0  0
   29.6290   50.5560   -3.7370 C   0  0  1  0  0  0  0  0  0  0  0  0
   29.7040   49.0820   -3.3360 C   0  0  0  0  0  0  0  0  0  0  0  0
   28.5630   50.7260   -4.8040 C   0  0  1  0  0  0  0  0  0  0  0  0
   28.5680   52.0230   -5.4490 N   0  0  0  0  0  0  0  0  0  0  0  0
   28.6880   49.7990   -5.8810 N   0  0  0  0  0  0  0  0  0  0  0  0
   29.6620   48.1360   -4.4580 N   0  0  0  0  0  0  0  0  0  0  0  0
   30.1760   46.8900   -4.1630 C   0  0  0  0  0  0  0  0  0  0  0  0
   28.6940   48.3850   -5.5200 C   0  0  2  0  0  0  0  0  0  0  0  0
   28.8510   47.6060   -6.8320 C   0  0  0  0  0  0  0  0  0  0  0  0
   30.9070   46.6060   -3.2260 O   0  0  0  0  0  0  0  0  0  0  0  0
   29.8250   45.9140   -5.0110 O   0  0  0  0  0  0  0  0  0  0  0  0
  2  1  1  1
  2  3  1  0
  2  4  1  0
  4  5  1  6
  4  6  1  0
  3  7  1  0
  7  8  1  0
  6  9  1  0
  7  9  1  0
  9 10  1  6
  8 11  2  0
  8 12  1  0
M  END
