mac-x0441
     RDKit          3D

 17 18  0  0  0  0  0  0  0  0999 V2000
   34.2060   45.3800   -6.2000 O   0  0  0  0  0  0  0  0  0  0  0  0
   33.0500   45.2990   -5.7430 C   0  0  0  0  0  0  0  0  0  0  0  0
   32.0580   45.2370   -6.5010 O   0  0  0  0  0  0  0  0  0  0  0  0
   32.8840   45.2170   -4.2410 C   0  0  0  0  0  0  0  0  0  0  0  0
   34.1390   44.9260   -3.5530 N   0  0  0  0  0  0  0  0  0  0  0  0
   34.4410   43.8050   -3.0080 N   0  0  0  0  0  0  0  0  0  0  0  0
   35.5740   43.8080   -2.4740 C   0  0  0  0  0  0  0  0  0  0  0  0
   36.1080   45.0910   -2.6490 C   0  0  0  0  0  0  0  0  0  0  0  0
   37.4280   45.7040   -2.2130 C   0  0  0  0  0  0  0  0  0  0  0  0
   37.5800   47.1000   -2.8230 C   0  0  0  0  0  0  0  0  0  0  0  0
   36.2880   47.9110   -2.8420 C   0  0  0  0  0  0  0  0  0  0  0  0
   35.2480   47.2290   -3.7530 C   0  0  0  0  0  0  0  0  0  0  0  0
   35.1070   45.7640   -3.3370 C   0  0  0  0  0  0  0  0  0  0  0  0
   36.1960   42.6440   -1.7540 C   0  0  1  0  0  0  0  0  0  0  0  0
   37.2580   42.1970   -2.4000 F   0  0  0  0  0  0  0  0  0  0  0  0
   36.5560   43.0450   -0.5350 F   0  0  0  0  0  0  0  0  0  0  0  0
   35.2930   41.6420   -1.5550 F   0  0  0  0  0  0  0  0  0  0  0  0
  1  2  1  0
  2  3  2  0
  2  4  1  0
  4  5  1  0
  5  6  1  0
  6  7  2  0
  7  8  1  0
  8  9  1  0
  9 10  1  0
 10 11  1  0
 11 12  1  0
  5 13  1  0
  8 13  2  0
 12 13  1  0
  7 14  1  0
 14 15  1  6
 14 16  1  0
 14 17  1  0
M  END
