mac-x0373-mac-x0555
     RDKit          3D

 22 24  0  0  0  0  0  0  0  0999 V2000
   30.8750   46.9940   -7.1280 O   0  0  0  0  0  0  0  0  0  0  0  0
   30.4090   46.7450   -5.8850 C   0  0  0  0  0  0  0  0  0  0  0  0
   29.7600   45.7260   -5.7040 O   0  0  0  0  0  0  0  0  0  0  0  0
   30.7720   47.8160   -4.8540 C   0  0  1  0  0  0  0  0  0  0  0  0
   32.1460   47.5990   -4.2110 C   0  0  0  0  0  0  0  0  0  0  0  0
   30.5560   49.2700   -5.3820 C   0  0  2  0  0  0  0  0  0  0  0  0
   32.3570   46.6210   -3.2280 C   0  0  0  0  0  0  0  0  0  0  0  0
   33.2380   48.3920   -4.6060 C   0  0  0  0  0  0  0  0  0  0  0  0
   31.0080   50.3590   -4.4230 C   0  0  0  0  0  0  0  0  0  0  0  0
   29.1240   49.5030   -5.8290 C   0  0  0  0  0  0  0  0  0  0  0  0
   33.6190   46.4430   -2.6560 C   0  0  0  0  0  0  0  0  0  0  0  0
   34.4990   48.2120   -4.0320 C   0  0  0  0  0  0  0  0  0  0  0  0
   30.3840   51.5410   -4.3050 C   0  0  0  0  0  0  0  0  0  0  0  0
   28.4980   50.6860   -5.7120 C   0  0  0  0  0  0  0  0  0  0  0  0
   34.6880   47.2390   -3.0580 C   0  0  0  0  0  0  0  0  0  0  0  0
   29.1540   51.9320   -5.1160 C   0  0  2  0  0  0  0  0  0  0  0  0
   29.6010   52.8700   -6.2770 C   0  0  0  0  0  0  0  0  0  0  0  0
   28.1070   52.6270   -4.1830 C   0  0  0  0  0  0  0  0  0  0  0  0
   29.4750   54.3490   -5.8900 C   0  0  1  0  0  0  0  0  0  0  0  0
   28.6140   53.8440   -3.5430 N   0  0  0  0  0  0  0  0  0  0  0  0
   28.1970   54.8990   -6.3520 N   0  0  0  0  0  0  0  0  0  0  0  0
   29.6360   54.5160   -4.3560 C   0  0  0  0  0  0  0  0  0  0  0  0
  1  2  1  0
  2  3  2  0
  4  2  1  6
  4  5  1  0
  4  6  1  0
  5  7  2  0
  5  8  1  0
  6  9  1  1
  6 10  1  0
  7 11  1  0
  8 12  2  0
  9 13  2  0
 10 14  2  0
 11 15  2  0
 12 15  1  0
 16 13  1  1
 14 16  1  0
 16 17  1  0
 16 18  1  0
 17 19  1  0
 18 20  1  0
 19 21  1  1
 19 22  1  0
 20 22  1  0
M  END
