mac-x0567-mac-x0303
     RDKit          3D

 18 20  0  0  0  0  0  0  0  0999 V2000
   29.5490   47.4220   -7.9540 N   0  0  0  0  0  0  0  0  0  0  0  0
   29.3550   48.6960   -7.5610 C   0  0  0  0  0  0  0  0  0  0  0  0
   28.9240   49.6740   -8.4180 N   0  0  0  0  0  0  0  0  0  0  0  0
   29.5070   49.3210   -6.3440 C   0  0  0  0  0  0  0  0  0  0  0  0
   28.7880   50.8980   -7.8440 N   0  0  0  0  0  0  0  0  0  0  0  0
   29.1510   50.6780   -6.5640 C   0  0  0  0  0  0  0  0  0  0  0  0
   29.9330   48.8380   -5.0080 C   0  0  0  0  0  0  0  0  0  0  0  0
   29.1960   51.7100   -5.4270 C   0  0  1  0  0  0  0  0  0  0  0  0
   29.2430   49.6690   -3.9450 C   0  0  0  0  0  0  0  0  0  0  0  0
   28.8990   50.9650   -4.1300 C   0  0  0  0  0  0  0  0  0  0  0  0
   30.5410   52.3960   -5.2090 C   0  0  0  0  0  0  0  0  0  0  0  0
   28.3260   52.8930   -5.6510 N   0  0  0  0  0  0  0  0  0  0  0  0
   28.9090   54.0040   -4.8280 C   0  0  1  0  0  0  0  0  0  0  0  0
   30.2000   53.5120   -4.3050 N   0  0  0  0  0  0  0  0  0  0  0  0
   28.9910   55.7860   -5.6510 S   0  0  0  0  0  0  0  0  0  0  0  0
   30.3850   55.7330   -6.6020 N   0  0  0  0  0  0  0  0  0  0  0  0
   27.8950   55.9670   -6.5740 O   0  0  0  0  0  0  0  0  0  0  0  0
   29.2710   56.7870   -4.6470 O   0  0  0  0  0  0  0  0  0  0  0  0
  1  2  1  0
  2  3  1  0
  2  4  2  0
  3  5  1  0
  4  6  1  0
  5  6  2  0
  4  7  1  0
  6  8  1  0
  7  9  1  0
  8 10  1  1
  9 10  2  0
  8 11  1  0
  8 12  1  0
 12 13  1  0
 11 14  1  0
 13 14  1  0
 13 15  1  6
 15 16  1  0
 15 17  2  0
 15 18  2  0
M  END
