mac-x0396-mac-x0271
     RDKit          3D

 13 14  0  0  0  0  0  0  0  0999 V2000
   28.9590   49.9600   -7.8130 N   0  0  0  0  0  0  0  0  0  0  0  0
   27.7450   50.6910   -7.4730 C   0  0  0  0  0  0  0  0  0  0  0  0
   28.0300   52.0220   -6.7830 C   0  0  0  0  0  0  0  0  0  0  0  0
   28.8390   51.8280   -5.5550 C   0  0  0  0  0  0  0  0  0  0  0  0
   29.2250   52.9480   -4.7660 C   0  0  0  0  0  0  0  0  0  0  0  0
   29.2160   50.6050   -5.1660 C   0  0  0  0  0  0  0  0  0  0  0  0
   30.0140   52.7810   -3.5510 C   0  0  0  0  0  0  0  0  0  0  0  0
   29.0360   54.2600   -4.8530 C   0  0  0  0  0  0  0  0  0  0  0  0
   29.9990   50.3930   -3.9740 C   0  0  0  0  0  0  0  0  0  0  0  0
   30.2900   53.8830   -2.9370 N   0  0  0  0  0  0  0  0  0  0  0  0
   29.7050   54.8730   -3.7000 C   0  0  0  0  0  0  0  0  0  0  0  0
   30.3950   51.4000   -3.1810 C   0  0  0  0  0  0  0  0  0  0  0  0
   29.7070   56.0770   -3.5020 O   0  0  0  0  0  0  0  0  0  0  0  0
  1  2  1  0
  2  3  1  0
  3  4  1  0
  4  5  1  0
  4  6  2  0
  5  7  1  0
  5  8  2  0
  6  9  1  0
  7 10  2  0
  8 11  1  0
 10 11  1  0
  7 12  1  0
  9 12  2  0
 11 13  2  0
M  END
