mac-x0305-mac-x0402
     RDKit          3D

 16 17  0  0  0  0  0  0  0  0999 V2000
   30.7750   46.9210   -7.4850 O   0  0  0  0  0  0  0  0  0  0  0  0
   30.4500   47.1630   -6.1870 C   0  0  0  0  0  0  0  0  0  0  0  0
   30.3140   46.2410   -5.3940 O   0  0  0  0  0  0  0  0  0  0  0  0
   30.2890   48.6480   -5.8620 C   0  0  1  0  0  0  0  0  0  0  0  0
   29.1770   49.3040   -6.7060 C   0  0  2  0  0  0  0  0  0  0  0  0
   30.0280   48.9010   -4.4390 N   0  0  0  0  0  0  0  0  0  0  0  0
   29.5300   49.2490   -8.1110 O   0  0  0  0  0  0  0  0  0  0  0  0
   30.6240   47.7140   -3.3590 Cl  0  0  0  0  0  0  0  0  0  0  0  0
   28.8930   50.7460   -6.1510 C   0  0  1  0  0  0  0  0  0  0  0  0
   29.0360   49.7290   -3.9650 C   0  0  0  0  0  0  0  0  0  0  0  0
   28.4360   50.6440   -4.7390 C   0  0  0  0  0  0  0  0  0  0  0  0
   30.0680   51.7380   -6.1430 C   0  0  0  0  0  0  0  0  0  0  0  0
   27.7780   51.7060   -7.2320 S   0  0  0  0  0  0  0  0  0  0  0  0
   28.2660   53.2470   -6.4550 C   0  0  1  0  0  0  0  0  0  0  0  0
   29.5230   53.0630   -5.7750 N   0  0  0  0  0  0  0  0  0  0  0  0
   28.5100   54.2400   -7.4530 N   0  0  0  0  0  0  0  0  0  0  0  0
  1  2  1  0
  2  3  2  0
  4  2  1  1
  4  5  1  0
  4  6  1  0
  5  7  1  6
  6  8  1  0
  5  9  1  0
  6 10  1  0
  9 11  1  1
 10 11  2  0
  9 12  1  0
  9 13  1  0
 13 14  1  0
 12 15  1  0
 14 15  1  0
 14 16  1  6
M  END
