mac-x0397-mac-x0404
     RDKit          3D

 28 31  0  0  0  0  0  0  0  0999 V2000
   29.5790   52.2740   -2.3850 Cl  0  0  0  0  0  0  0  0  0  0  0  0
   29.6890   51.2510   -3.7550 C   0  0  0  0  0  0  0  0  0  0  0  0
   29.3300   51.8220   -4.9950 C   0  0  0  0  0  0  0  0  0  0  0  0
   30.1160   49.9220   -3.6510 C   0  0  0  0  0  0  0  0  0  0  0  0
   28.8950   53.1200   -5.2610 N   0  0  0  0  0  0  0  0  0  0  0  0
   29.4150   50.9970   -6.1200 C   0  0  0  0  0  0  0  0  0  0  0  0
   30.1970   49.1160   -4.7980 C   0  0  0  0  0  0  0  0  0  0  0  0
   30.6750   47.6760   -4.6940 C   0  0  0  0  0  0  0  0  0  0  0  0
   28.6610   53.2720   -6.5390 C   0  0  0  0  0  0  0  0  0  0  0  0
   28.9340   51.8900   -7.5100 S   0  0  0  0  0  0  0  0  0  0  0  0
   29.8400   49.6560   -6.0430 C   0  0  0  0  0  0  0  0  0  0  0  0
   28.2350   54.4300   -7.0750 N   0  0  0  0  0  0  0  0  0  0  0  0
   30.2670   46.7560   -5.8610 C   0  0  0  0  0  0  0  0  0  0  0  0
   31.3590   46.0350   -6.5070 O   0  0  0  0  0  0  0  0  0  0  0  0
   32.5630   45.8320   -5.8660 C   0  0  0  0  0  0  0  0  0  0  0  0
   33.5620   46.5090   -6.0590 O   0  0  0  0  0  0  0  0  0  0  0  0
   32.4860   44.6400   -4.9140 C   0  0  0  0  0  0  0  0  0  0  0  0
   31.2840   44.6320   -4.1610 O   0  0  0  0  0  0  0  0  0  0  0  0
   31.1120   45.5920   -3.1970 C   0  0  0  0  0  0  0  0  0  0  0  0
   29.8870   45.5220   -2.4900 C   0  0  0  0  0  0  0  0  0  0  0  0
   32.0410   46.5940   -2.8890 C   0  0  0  0  0  0  0  0  0  0  0  0
   29.6150   46.4740   -1.4820 C   0  0  0  0  0  0  0  0  0  0  0  0
   31.7620   47.5300   -1.8910 C   0  0  0  0  0  0  0  0  0  0  0  0
   28.9170   44.5320   -2.7530 C   0  0  0  0  0  0  0  0  0  0  0  0
   30.5590   47.4690   -1.1960 C   0  0  0  0  0  0  0  0  0  0  0  0
   28.4040   46.4140   -0.7750 C   0  0  0  0  0  0  0  0  0  0  0  0
   27.7180   44.4820   -2.0420 C   0  0  0  0  0  0  0  0  0  0  0  0
   27.4620   45.4230   -1.0540 C   0  0  0  0  0  0  0  0  0  0  0  0
  1  2  1  0
  2  3  2  0
  2  4  1  0
  3  5  1  0
  3  6  1  0
  4  7  2  0
  7  8  1  0
  5  9  2  0
  6 10  1  0
  9 10  1  0
  6 11  2  0
  7 11  1  0
  9 12  1  0
  8 13  1  0
 13 14  1  0
 14 15  1  0
 15 16  2  0
 15 17  1  0
 17 18  1  0
 18 19  1  0
 19 20  1  0
 19 21  2  0
 20 22  2  0
 21 23  1  0
 20 24  1  0
 22 25  1  0
 23 25  2  0
 22 26  1  0
 24 27  2  0
 26 28  2  0
 27 28  1  0
M  END
