mac-x0328-mac-x0255
     RDKit          3D

 25 27  0  0  0  0  0  0  0  0999 V2000
   28.6740   48.7500   -4.6970 O   0  0  0  0  0  0  0  0  0  0  0  0
   29.5710   49.4490   -5.4130 C   0  0  0  0  0  0  0  0  0  0  0  0
   30.3020   48.7930   -6.2350 N   0  0  0  0  0  0  0  0  0  0  0  0
   29.5040   50.8720   -5.0650 C   0  0  0  0  0  0  0  0  0  0  0  0
   30.1310   47.3370   -6.3550 C   0  0  0  0  0  0  0  0  0  0  0  0
   29.2650   51.8210   -6.0620 C   0  0  0  0  0  0  0  0  0  0  0  0
   29.6770   51.2710   -3.7340 C   0  0  0  0  0  0  0  0  0  0  0  0
   31.5170   46.6790   -6.2930 C   0  0  0  0  0  0  0  0  0  0  0  0
   29.1990   53.1730   -5.7260 C   0  0  0  0  0  0  0  0  0  0  0  0
   29.6110   52.6240   -3.3950 C   0  0  0  0  0  0  0  0  0  0  0  0
   31.4740   45.3210   -6.7720 O   0  0  0  0  0  0  0  0  0  0  0  0
   29.3720   53.5630   -4.3970 C   0  0  0  0  0  0  0  0  0  0  0  0
   29.3010   54.8940   -4.1130 O   0  0  0  0  0  0  0  0  0  0  0  0
   32.6460   44.6230   -6.6760 C   0  0  0  0  0  0  0  0  0  0  0  0
   33.6990   44.9530   -7.2140 O   0  0  0  0  0  0  0  0  0  0  0  0
   32.4390   43.3950   -5.8120 C   0  0  0  0  0  0  0  0  0  0  0  0
   31.6010   43.7070   -4.6060 C   0  0  0  0  0  0  0  0  0  0  0  0
   30.2600   43.4580   -4.4100 C   0  0  0  0  0  0  0  0  0  0  0  0
   32.2980   44.4630   -3.2420 S   0  0  0  0  0  0  0  0  0  0  0  0
   29.7830   43.8920   -3.1280 C   0  0  0  0  0  0  0  0  0  0  0  0
   30.8080   44.4670   -2.3770 C   0  0  0  0  0  0  0  0  0  0  0  0
   28.4920   43.8190   -2.5560 C   0  0  0  0  0  0  0  0  0  0  0  0
   30.5780   44.9690   -1.0800 C   0  0  0  0  0  0  0  0  0  0  0  0
   28.2570   44.3140   -1.2690 C   0  0  0  0  0  0  0  0  0  0  0  0
   29.2930   44.8830   -0.5400 C   0  0  0  0  0  0  0  0  0  0  0  0
  1  2  1  0
  2  3  2  3
  2  4  1  0
  3  5  1  0
  4  6  2  0
  4  7  1  0
  5  8  1  0
  6  9  1  0
  7 10  2  0
  8 11  1  0
  9 12  2  0
 10 12  1  0
 12 13  1  0
 11 14  1  0
 14 15  2  0
 14 16  1  0
 16 17  1  0
 17 18  2  0
 17 19  1  0
 18 20  1  0
 19 21  1  0
 20 21  2  0
 20 22  1  0
 21 23  1  0
 22 24  2  0
 23 25  2  0
 24 25  1  0
M  END
