mac-x0193-mac-x0472
     RDKit          3D

 32 34  0  0  0  0  0  0  0  0999 V2000
   34.3660   45.1400   -6.6260 O   0  0  0  0  0  0  0  0  0  0  0  0
   33.1910   45.1060   -5.9800 C   0  0  0  0  0  0  0  0  0  0  0  0
   32.0760   45.3880   -6.5650 N   0  0  0  0  0  0  0  0  0  0  0  0
   33.2470   44.7120   -4.5090 C   0  0  0  0  0  0  0  0  0  0  0  0
   34.6050   44.5880   -3.9800 N   0  0  0  0  0  0  0  0  0  0  0  0
   30.8490   45.3300   -5.7700 C   0  0  0  0  0  0  0  0  0  0  0  0
   34.9060   43.6950   -2.9870 C   0  0  0  0  0  0  0  0  0  0  0  0
   29.9390   46.4570   -6.2610 C   0  0  0  0  0  0  0  0  0  0  0  0
   34.2180   42.7110   -2.7540 O   0  0  0  0  0  0  0  0  0  0  0  0
   36.0420   44.0270   -2.3020 N   0  0  0  0  0  0  0  0  0  0  0  0
   29.5230   47.4280   -5.1560 C   0  0  0  0  0  0  0  0  0  0  0  0
   30.1450   48.7650   -5.3330 N   0  0  0  0  0  0  0  0  0  0  0  0
   36.8640   42.9960   -1.6840 C   0  0  0  0  0  0  0  0  0  0  0  0
   30.6990   49.5460   -3.9260 S   0  0  0  0  0  0  0  0  0  0  0  0
   37.9640   42.5350   -2.6480 C   0  0  0  0  0  0  0  0  0  0  0  0
   37.4630   43.5020   -0.3610 C   0  0  0  0  0  0  0  0  0  0  0  0
   29.4780   49.7070   -6.2420 C   0  0  0  0  0  0  0  0  0  0  0  0
   29.7400   50.5380   -3.4730 O   0  0  0  0  0  0  0  0  0  0  0  0
   31.1890   48.5240   -3.0140 O   0  0  0  0  0  0  0  0  0  0  0  0
   38.8770   41.4950   -2.0090 C   0  0  0  0  0  0  0  0  0  0  0  0
   38.3860   42.4630    0.2760 C   0  0  0  0  0  0  0  0  0  0  0  0
   29.1440   49.3310   -7.4550 N   0  0  0  0  0  0  0  0  0  0  0  0
   29.0670   51.3340   -5.8740 S   0  0  0  0  0  0  0  0  0  0  0  0
   32.1070   50.4480   -4.5500 C   0  0  0  0  0  0  0  0  0  0  0  0
   39.4700   41.9960   -0.6940 C   0  0  0  0  0  0  0  0  0  0  0  0
   28.4280   51.4440   -7.4630 C   0  0  0  0  0  0  0  0  0  0  0  0
   28.5310   50.3410   -8.1740 N   0  0  0  0  0  0  0  0  0  0  0  0
   33.2340   49.7310   -4.9580 C   0  0  0  0  0  0  0  0  0  0  0  0
   32.0740   51.8420   -4.6250 C   0  0  0  0  0  0  0  0  0  0  0  0
   34.3430   50.4240   -5.4480 C   0  0  0  0  0  0  0  0  0  0  0  0
   33.1860   52.5300   -5.1170 C   0  0  0  0  0  0  0  0  0  0  0  0
   34.3150   51.8180   -5.5260 C   0  0  0  0  0  0  0  0  0  0  0  0
  1  2  1  0
  2  3  2  3
  2  4  1  0
  4  5  1  0
  3  6  1  0
  5  7  1  0
  6  8  1  0
  7  9  2  0
  7 10  1  0
  8 11  1  0
 11 12  1  0
 10 13  1  0
 14 12  1  0
 13 15  1  0
 13 16  1  0
 12 17  1  0
 14 18  2  0
 14 19  2  0
 15 20  1  0
 16 21  1  0
 17 22  2  0
 17 23  1  0
 14 24  1  0
 20 25  1  0
 21 25  1  0
 23 26  1  0
 22 27  1  0
 26 27  2  0
 24 28  2  0
 24 29  1  0
 28 30  1  0
 29 31  2  0
 30 32  2  0
 31 32  1  0
M  END
