mac-x0333-mac-x0572
     RDKit          3D

 12 13  0  0  0  0  0  0  0  0999 V2000
   30.0910   48.6580   -4.0320 O   0  0  0  0  0  0  0  0  0  0  0  0
   29.7580   49.8950   -4.5140 C   0  0  0  0  0  0  0  0  0  0  0  0
   29.1500   50.0480   -5.7700 C   0  0  0  0  0  0  0  0  0  0  0  0
   30.0440   51.0010   -3.7190 C   0  0  0  0  0  0  0  0  0  0  0  0
   29.7000   52.2470   -4.2150 C   0  0  0  0  0  0  0  0  0  0  0  0
   28.8150   51.3330   -6.2450 C   0  0  0  0  0  0  0  0  0  0  0  0
   29.0930   52.4410   -5.4510 C   0  0  0  0  0  0  0  0  0  0  0  0
   29.9110   53.4330   -3.5620 O   0  0  0  0  0  0  0  0  0  0  0  0
   28.8460   53.8230   -5.6750 N   0  0  0  0  0  0  0  0  0  0  0  0
   29.2090   54.3920   -4.3820 C   0  0  2  0  0  0  0  0  0  0  0  0
   29.2880   54.5200   -6.8850 C   0  0  0  0  0  0  0  0  0  0  0  0
   30.0070   55.5280   -4.6330 O   0  0  0  0  0  0  0  0  0  0  0  0
  1  2  1  0
  2  3  2  0
  2  4  1  0
  4  5  2  0
  3  6  1  0
  5  7  1  0
  6  7  2  0
  5  8  1  0
  7  9  1  0
  8 10  1  0
  9 10  1  0
  9 11  1  0
 10 12  1  6
M  END
