mac-x0380-mac-x0139
     RDKit          3D

 29 32  0  0  0  0  0  0  0  0999 V2000
   28.9960   47.8130   -4.3740 O   0  0  0  0  0  0  0  0  0  0  0  0
   29.3750   48.9770   -3.7190 C   0  0  0  0  0  0  0  0  0  0  0  0
   30.0490   49.0290   -2.7000 O   0  0  0  0  0  0  0  0  0  0  0  0
   29.7960   47.3540   -5.4580 N   0  0  0  0  0  0  0  0  0  0  0  0
   30.3140   45.9800   -5.2580 C   0  0  0  0  0  0  0  0  0  0  0  0
   28.8600   50.2360   -4.3750 C   0  0  0  0  0  0  0  0  0  0  0  0
   29.4200   47.7800   -6.7370 C   0  0  0  0  0  0  0  0  0  0  0  0
   31.8400   45.8880   -5.3690 C   0  0  0  0  0  0  0  0  0  0  0  0
   29.1980   51.5140   -3.8820 C   0  0  0  0  0  0  0  0  0  0  0  0
   28.0280   50.1610   -5.5030 C   0  0  0  0  0  0  0  0  0  0  0  0
   29.5820   49.0620   -7.1170 C   0  0  0  0  0  0  0  0  0  0  0  0
   28.8500   46.8350   -7.6180 N   0  0  0  0  0  0  0  0  0  0  0  0
   32.3180   45.1580   -6.6030 C   0  0  0  0  0  0  0  0  0  0  0  0
   28.7190   52.6810   -4.5040 C   0  0  0  0  0  0  0  0  0  0  0  0
   27.5510   51.3300   -6.1280 C   0  0  0  0  0  0  0  0  0  0  0  0
   29.1310   49.4540   -8.4720 C   0  0  0  0  0  0  0  0  0  0  0  0
   28.4890   47.2290   -8.8010 C   0  0  0  0  0  0  0  0  0  0  0  0
   30.0860   50.2800   -6.5730 C   0  0  0  0  0  0  0  0  0  0  0  0
   31.6550   44.5620   -7.4330 O   0  0  0  0  0  0  0  0  0  0  0  0
   33.6610   45.2130   -6.7380 O   0  0  0  0  0  0  0  0  0  0  0  0
   27.8990   52.5950   -5.6290 C   0  0  0  0  0  0  0  0  0  0  0  0
   29.1780   54.2670   -3.8320 S   0  0  0  0  0  0  0  0  0  0  0  0
   28.6130   48.4950   -9.2730 N   0  0  0  0  0  0  0  0  0  0  0  0
   29.3030   50.7260   -8.6950 N   0  0  0  0  0  0  0  0  0  0  0  0
   29.8860   51.1990   -7.5260 C   0  0  0  0  0  0  0  0  0  0  0  0
   27.4130   53.7470   -6.2760 N   0  0  0  0  0  0  0  0  0  0  0  0
   29.1890   55.2320   -5.3580 C   0  0  0  0  0  0  0  0  0  0  0  0
   28.0000   54.9900   -6.2600 C   0  0  0  0  0  0  0  0  0  0  0  0
   27.5500   55.8870   -6.9800 O   0  0  0  0  0  0  0  0  0  0  0  0
  1  2  1  0
  2  3  2  0
  1  4  1  0
  4  5  1  0
  2  6  1  0
  4  7  1  0
  5  8  1  0
  6  9  2  0
  6 10  1  0
  7 11  2  0
  7 12  1  0
  8 13  1  0
  9 14  1  0
 10 15  2  0
 11 16  1  0
 12 17  2  0
 11 18  1  0
 13 19  2  0
 13 20  1  0
 14 21  2  0
 15 21  1  0
 14 22  1  0
 16 23  1  0
 17 23  1  0
 16 24  2  0
 18 25  2  0
 24 25  1  0
 21 26  1  0
 22 27  1  0
 26 28  1  0
 27 28  1  0
 28 29  2  0
M  END
