mac-x0564-mac-x0347
     RDKit          3D

 20 23  0  0  0  0  0  0  0  0999 V2000
   30.2250   47.0430   -5.8400 N   0  0  0  0  0  0  0  0  0  0  0  0
   29.8450   48.1020   -6.4500 C   0  0  0  0  0  0  0  0  0  0  0  0
   29.4750   47.7130   -7.6820 O   0  0  0  0  0  0  0  0  0  0  0  0
   30.6700   47.0590   -4.5500 C   0  0  0  0  0  0  0  0  0  0  0  0
   30.5420   48.0450   -3.5800 C   0  0  0  0  0  0  0  0  0  0  0  0
   31.3490   45.9720   -4.0800 N   0  0  0  0  0  0  0  0  0  0  0  0
   29.7050   49.6720   -6.1320 C   0  0  0  0  0  0  0  0  0  0  0  0
   31.1830   47.4890   -2.4970 N   0  0  0  0  0  0  0  0  0  0  0  0
   31.6460   46.2560   -2.8440 C   0  0  0  0  0  0  0  0  0  0  0  0
   29.5420   50.1100   -4.6650 C   0  0  0  0  0  0  0  0  0  0  0  0
   29.9290   49.3740   -3.5260 C   0  0  0  0  0  0  0  0  0  0  0  0
   28.4820   50.2410   -6.8950 C   0  0  0  0  0  0  0  0  0  0  0  0
   30.9130   50.5220   -6.5730 C   0  0  0  0  0  0  0  0  0  0  0  0
   29.7210   49.9450   -2.2500 C   0  0  0  0  0  0  0  0  0  0  0  0
   28.9570   51.3860   -4.4590 C   0  0  0  0  0  0  0  0  0  0  0  0
   28.3860   51.5280   -7.2960 C   0  0  0  0  0  0  0  0  0  0  0  0
   30.7990   51.8130   -6.9710 C   0  0  0  0  0  0  0  0  0  0  0  0
   29.1460   51.2070   -2.0910 C   0  0  0  0  0  0  0  0  0  0  0  0
   28.7620   51.9270   -3.2000 C   0  0  0  0  0  0  0  0  0  0  0  0
   29.4800   52.5230   -7.0420 C   0  0  0  0  0  0  0  0  0  0  0  0
  1  2  2  0
  2  3  1  0
  1  4  1  0
  4  5  2  0
  4  6  1  0
  7  2  1  0
  5  8  1  0
  6  9  2  0
  8  9  1  0
  7 10  1  0
  5 11  1  0
 10 11  2  0
  7 12  1  0
  7 13  1  0
 11 14  1  0
 10 15  1  0
 12 16  2  0
 13 17  2  0
 14 18  2  0
 15 19  2  0
 18 19  1  0
 16 20  1  0
 17 20  1  0
M  END
