mac-x0263-mac-x0412
     RDKit          3D

 20 22  0  0  0  0  0  0  0  0999 V2000
   28.0010   60.1520   -6.5390 O   0  0  0  0  0  0  0  0  0  0  0  0
   26.9470   59.3230   -6.4170 C   0  0  0  0  0  0  0  0  0  0  0  0
   25.8240   59.7210   -6.6880 O   0  0  0  0  0  0  0  0  0  0  0  0
   27.2800   57.9420   -5.9350 C   0  0  0  0  0  0  0  0  0  0  0  0
   28.3110   57.1870   -6.7630 C   0  0  0  0  0  0  0  0  0  0  0  0
   28.2840   55.7540   -6.3840 C   0  0  0  0  0  0  0  0  0  0  0  0
   28.3100   55.3850   -5.0680 N   0  0  0  0  0  0  0  0  0  0  0  0
   28.2280   54.7060   -7.1890 N   0  0  0  0  0  0  0  0  0  0  0  0
   28.2660   54.0380   -5.0390 C   0  0  0  0  0  0  0  0  0  0  0  0
   28.2180   53.6270   -6.3510 C   0  0  0  0  0  0  0  0  0  0  0  0
   28.2680   53.1870   -3.9080 C   0  0  0  0  0  0  0  0  0  0  0  0
   28.1650   52.1900   -6.7450 C   0  0  0  0  0  0  0  0  0  0  0  0
   28.6720   53.5570   -2.8140 O   0  0  0  0  0  0  0  0  0  0  0  0
   27.7660   51.7960   -4.2550 C   0  0  0  0  0  0  0  0  0  0  0  0
   28.5940   51.3820   -5.4790 C   0  0  0  0  0  0  0  0  0  0  0  0
   28.6780   49.8670   -5.6010 C   0  0  0  0  0  0  0  0  0  0  0  0
   29.9410   51.9090   -5.0060 C   0  0  0  0  0  0  0  0  0  0  0  0
   29.4440   49.1690   -4.7440 C   0  0  0  0  0  0  0  0  0  0  0  0
   30.6890   51.2020   -4.1530 C   0  0  0  0  0  0  0  0  0  0  0  0
   30.2320   49.8620   -3.6650 C   0  0  0  0  0  0  0  0  0  0  0  0
  1  2  1  0
  2  3  2  0
  2  4  1  0
  4  5  1  0
  5  6  1  0
  6  7  1  0
  6  8  2  0
  7  9  1  0
  8 10  1  0
  9 10  2  0
  9 11  1  0
 10 12  1  0
 11 13  2  0
 11 14  1  0
 12 15  1  0
 14 15  1  0
 15 16  1  0
 15 17  1  0
 16 18  2  0
 17 19  2  0
 18 20  1  0
 19 20  1  0
M  END
