mac-x0346-mac-x0546
     RDKit          3D

 28 30  0  0  0  0  0  0  0  0999 V2000
   29.6890   55.8720   -5.2190 O   0  0  0  0  0  0  0  0  0  0  0  0
   30.2270   54.5670   -5.1250 N   0  0  0  0  0  0  0  0  0  0  0  0
   29.5170   53.6750   -4.3570 C   0  0  0  0  0  0  0  0  0  0  0  0
   29.1820   53.9610   -3.2070 O   0  0  0  0  0  0  0  0  0  0  0  0
   29.1680   52.3490   -4.9650 C   0  0  0  0  0  0  0  0  0  0  0  0
   29.4940   51.0940   -4.4000 C   0  0  0  0  0  0  0  0  0  0  0  0
   28.4640   52.3980   -6.1840 C   0  0  0  0  0  0  0  0  0  0  0  0
   30.1810   51.0900   -3.2140 O   0  0  0  0  0  0  0  0  0  0  0  0
   29.1060   49.9270   -5.0760 C   0  0  0  0  0  0  0  0  0  0  0  0
   28.0860   51.2280   -6.8400 C   0  0  0  0  0  0  0  0  0  0  0  0
   29.5840   50.5250   -2.0430 C   0  0  0  0  0  0  0  0  0  0  0  0
   28.4070   49.9950   -6.2850 C   0  0  0  0  0  0  0  0  0  0  0  0
   30.6120   50.3820   -0.9270 C   0  0  0  0  0  0  0  0  0  0  0  0
   30.5810   48.9910   -0.3010 C   0  0  0  0  0  0  0  0  0  0  0  0
   29.4130   48.2740   -0.7240 O   0  0  0  0  0  0  0  0  0  0  0  0
   29.7030   47.0270   -1.2280 C   0  0  0  0  0  0  0  0  0  0  0  0
   30.7660   46.8020   -2.0270 C   0  0  0  0  0  0  0  0  0  0  0  0
   28.7970   45.9430   -0.8570 C   0  0  0  0  0  0  0  0  0  0  0  0
   31.0080   45.4170   -2.5250 C   0  0  1  0  0  0  0  0  0  0  0  0
   28.7260   44.8030   -1.5670 C   0  0  0  0  0  0  0  0  0  0  0  0
   29.6400   44.7810   -2.7200 C   0  0  0  0  0  0  0  0  0  0  0  0
   31.4870   45.1690   -3.9240 C   0  0  0  0  0  0  0  0  0  0  0  0
   32.8360   45.5900   -4.4040 C   0  0  0  0  0  0  0  0  0  0  0  0
   29.3890   44.2790   -3.8900 N   0  0  0  0  0  0  0  0  0  0  0  0
   30.5290   44.5280   -4.6110 C   0  0  0  0  0  0  0  0  0  0  0  0
   32.8570   45.8480   -5.9000 C   0  0  0  0  0  0  0  0  0  0  0  0
   32.1990   45.2140   -6.7110 O   0  0  0  0  0  0  0  0  0  0  0  0
   33.6820   46.8560   -6.2690 O   0  0  0  0  0  0  0  0  0  0  0  0
  1  2  1  0
  2  3  1  0
  3  4  2  0
  3  5  1  0
  5  6  2  0
  5  7  1  0
  6  8  1  0
  6  9  1  0
  7 10  2  0
  8 11  1  0
  9 12  2  0
 10 12  1  0
 11 13  1  0
 13 14  1  0
 14 15  1  0
 15 16  1  0
 16 17  2  0
 16 18  1  0
 19 17  1  6
 18 20  2  0
 19 21  1  0
 20 21  1  0
 19 22  1  0
 22 23  1  0
 21 24  2  0
 22 25  2  0
 24 25  1  0
 23 26  1  0
 26 27  2  0
 26 28  1  0
M  END
