mac-x0188-mac-x0348
     RDKit          3D

 27 31  0  0  0  0  0  0  0  0999 V2000
   33.3400   45.4960   -5.0730 C   0  0  0  0  0  0  0  0  0  0  0  0
   32.1120   44.8760   -5.7400 C   0  0  0  0  0  0  0  0  0  0  0  0
   32.3580   44.2140   -6.8830 O   0  0  0  0  0  0  0  0  0  0  0  0
   32.8050   46.8130   -4.7720 C   0  0  0  0  0  0  0  0  0  0  0  0
   30.8960   44.9610   -5.2900 N   0  0  0  0  0  0  0  0  0  0  0  0
   33.4640   47.9510   -4.9700 O   0  0  0  0  0  0  0  0  0  0  0  0
   31.5690   47.0060   -4.2780 C   0  0  0  0  0  0  0  0  0  0  0  0
   30.8570   45.7350   -4.0370 C   0  0  2  0  0  0  0  0  0  0  0  0
   32.6210   48.9820   -4.6140 N   0  0  0  0  0  0  0  0  0  0  0  0
   31.4570   48.4250   -4.2070 C   0  0  0  0  0  0  0  0  0  0  0  0
   31.7610   44.9820   -3.2630 O   0  0  0  0  0  0  0  0  0  0  0  0
   30.3920   49.3320   -3.8190 C   0  0  0  0  0  0  0  0  0  0  0  0
   29.5910   45.6270   -3.1430 C   0  0  2  0  0  0  0  0  0  0  0  0
   30.3180   49.9500   -2.5700 C   0  0  0  0  0  0  0  0  0  0  0  0
   29.4000   49.5950   -4.7750 C   0  0  0  0  0  0  0  0  0  0  0  0
   28.1710   45.8590   -3.7060 C   0  0  0  0  0  0  0  0  0  0  0  0
   29.5660   46.4370   -1.8370 C   0  0  2  0  0  0  0  0  0  0  0  0
   29.2620   50.8190   -2.2850 C   0  0  0  0  0  0  0  0  0  0  0  0
   28.3490   50.4610   -4.4920 C   0  0  0  0  0  0  0  0  0  0  0  0
   27.3240   46.1080   -2.5090 N   0  0  0  0  0  0  0  0  0  0  0  0
   28.1760   47.0840   -1.8160 C   0  0  1  0  0  0  0  0  0  0  0  0
   30.5950   47.4100   -1.3510 C   0  0  0  0  0  0  0  0  0  0  0  0
   27.0840   44.8730   -1.7590 C   0  0  0  0  0  0  0  0  0  0  0  0
   28.2800   51.0740   -3.2460 C   0  0  0  0  0  0  0  0  0  0  0  0
   30.2470   48.2280   -0.3370 C   0  0  0  0  0  0  0  0  0  0  0  0
   27.8930   47.6070   -0.4380 C   0  0  0  0  0  0  0  0  0  0  0  0
   28.9150   48.1560    0.2500 C   0  0  0  0  0  0  0  0  0  0  0  0
  1  2  1  0
  2  3  1  0
  1  4  1  0
  2  5  2  0
  4  6  1  0
  4  7  2  0
  5  8  1  0
  7  8  1  0
  6  9  1  0
  7 10  1  0
  9 10  2  0
  8 11  1  1
 10 12  1  0
  8 13  1  0
 12 14  2  0
 12 15  1  0
 13 16  1  6
 13 17  1  0
 14 18  1  0
 15 19  2  0
 16 20  1  0
 17 21  1  0
 20 21  1  0
 17 22  1  6
 20 23  1  0
 18 24  2  0
 19 24  1  0
 22 25  2  0
 21 26  1  1
 25 27  1  0
 26 27  2  0
M  END
