mac-x0204-mac-x0212
     RDKit          3D

 23 24  0  0  0  0  0  0  0  0999 V2000
   31.7500   46.7530   -6.1600 O   0  0  0  0  0  0  0  0  0  0  0  0
   30.8760   46.6380   -5.0420 C   0  0  0  0  0  0  0  0  0  0  0  0
   30.7810   45.2230   -4.8390 O   0  0  0  0  0  0  0  0  0  0  0  0
   29.4350   47.1430   -5.4130 C   0  0  1  0  0  0  0  0  0  0  0  0
   31.4710   47.2840   -3.8090 C   0  0  0  0  0  0  0  0  0  0  0  0
   28.4950   46.4810   -4.5380 O   0  0  0  0  0  0  0  0  0  0  0  0
   30.7730   47.3260   -2.5910 C   0  0  0  0  0  0  0  0  0  0  0  0
   32.7400   47.8650   -3.8250 C   0  0  0  0  0  0  0  0  0  0  0  0
   29.2210   48.6440   -5.3290 C   0  0  0  0  0  0  0  0  0  0  0  0
   31.3520   47.9260   -1.4810 C   0  0  0  0  0  0  0  0  0  0  0  0
   33.3260   48.4560   -2.7530 N   0  0  0  0  0  0  0  0  0  0  0  0
   29.2940   49.4650   -6.4620 C   0  0  0  0  0  0  0  0  0  0  0  0
   28.9390   49.2440   -4.0900 C   0  0  0  0  0  0  0  0  0  0  0  0
   30.6440   47.9460   -0.3180 O   0  0  0  0  0  0  0  0  0  0  0  0
   32.6180   48.4730   -1.6050 C   0  0  0  0  0  0  0  0  0  0  0  0
   29.0900   50.8460   -6.3650 C   0  0  0  0  0  0  0  0  0  0  0  0
   28.7350   50.6240   -3.9900 C   0  0  0  0  0  0  0  0  0  0  0  0
   28.8110   51.4250   -5.1270 C   0  0  0  0  0  0  0  0  0  0  0  0
   28.6060   52.8330   -5.0620 N   0  0  0  0  0  0  0  0  0  0  0  0
   29.9010   53.8970   -5.2220 S   0  0  0  0  0  0  0  0  0  0  0  0
   31.1140   52.9170   -6.0900 C   0  0  0  0  0  0  0  0  0  0  0  0
   29.5250   55.0120   -6.0610 O   0  0  0  0  0  0  0  0  0  0  0  0
   30.4010   54.1090   -3.8780 O   0  0  0  0  0  0  0  0  0  0  0  0
  2  1  1  0
  2  3  1  0
  2  4  1  0
  2  5  1  0
  4  6  1  1
  5  7  2  0
  5  8  1  0
  4  9  1  0
  7 10  1  0
  8 11  2  0
  9 12  2  0
  9 13  1  0
 10 14  1  0
 10 15  2  0
 11 15  1  0
 12 16  1  0
 13 17  2  0
 16 18  2  0
 17 18  1  0
 18 19  1  0
 20 19  1  0
 20 21  1  0
 20 22  2  0
 20 23  2  0
M  END
