mac-x0387-mac-x0588
     RDKit          3D

 17 19  0  0  0  0  0  0  0  0999 V2000
   28.5430   51.2930   -7.8650 N   0  0  0  0  0  0  0  0  0  0  0  0
   28.7850   49.9500   -7.5540 C   0  0  0  0  0  0  0  0  0  0  0  0
   28.5050   49.0960   -8.5550 N   0  0  0  0  0  0  0  0  0  0  0  0
   29.2810   49.5520   -6.2900 C   0  0  0  0  0  0  0  0  0  0  0  0
   29.4960   48.1710   -6.0590 C   0  0  0  0  0  0  0  0  0  0  0  0
   28.7170   47.7910   -8.3150 C   0  0  0  0  0  0  0  0  0  0  0  0
   29.5640   50.4740   -5.2580 C   0  0  0  0  0  0  0  0  0  0  0  0
   29.1980   47.2910   -7.1160 C   0  0  0  0  0  0  0  0  0  0  0  0
   29.9950   47.7440   -4.7920 C   0  0  0  0  0  0  0  0  0  0  0  0
   30.0500   50.0540   -4.0250 C   0  0  0  0  0  0  0  0  0  0  0  0
   30.2620   46.2860   -4.4450 C   0  0  0  0  0  0  0  0  0  0  0  0
   30.2640   48.7010   -3.7930 C   0  0  0  0  0  0  0  0  0  0  0  0
   29.1960   45.5810   -3.5960 C   0  0  2  0  0  0  0  0  0  0  0  0
   28.7790   46.3810   -2.4740 O   0  0  0  0  0  0  0  0  0  0  0  0
   29.5600   44.2120   -3.0370 C   0  0  0  0  0  0  0  0  0  0  0  0
   28.6050   44.0980   -1.8740 C   0  0  0  0  0  0  0  0  0  0  0  0
   28.5950   45.5160   -1.3420 C   0  0  0  0  0  0  0  0  0  0  0  0
  1  2  1  0
  2  3  2  0
  2  4  1  0
  4  5  2  0
  3  6  1  0
  4  7  1  0
  5  8  1  0
  6  8  2  0
  5  9  1  0
  7 10  2  0
  9 11  1  0
  9 12  2  0
 10 12  1  0
 13 11  1  1
 13 14  1  0
 13 15  1  0
 15 16  1  0
 14 17  1  0
 16 17  1  0
M  END
