mac-x0226
     RDKit          3D

 14 15  0  0  0  0  0  0  0  0999 V2000
   31.9310   45.9760   -6.6720 O   0  0  0  0  0  0  0  0  0  0  0  0
   33.0710   46.1320   -6.1580 C   0  0  0  0  0  0  0  0  0  0  0  0
   33.8330   46.9520   -6.6880 O   0  0  0  0  0  0  0  0  0  0  0  0
   33.5120   45.3390   -4.9450 C   0  0  0  0  0  0  0  0  0  0  0  0
   32.8940   44.2280   -4.3880 C   0  0  0  0  0  0  0  0  0  0  0  0
   33.6240   43.8110   -3.3920 N   0  0  0  0  0  0  0  0  0  0  0  0
   34.6150   44.6100   -3.2630 N   0  0  0  0  0  0  0  0  0  0  0  0
   34.6530   45.5150   -4.1650 C   0  0  0  0  0  0  0  0  0  0  0  0
   35.5810   44.4910   -2.2540 C   0  0  0  0  0  0  0  0  0  0  0  0
   36.3790   45.5710   -1.9990 C   0  0  0  0  0  0  0  0  0  0  0  0
   37.3170   45.4800   -1.0080 C   0  0  0  0  0  0  0  0  0  0  0  0
   37.4160   44.3020   -0.3000 C   0  0  0  0  0  0  0  0  0  0  0  0
   36.5860   43.2430   -0.5660 C   0  0  0  0  0  0  0  0  0  0  0  0
   35.6660   43.3300   -1.5510 C   0  0  0  0  0  0  0  0  0  0  0  0
  1  2  1  0
  2  3  2  0
  2  4  1  0
  4  5  1  0
  5  6  2  0
  6  7  1  0
  4  8  2  0
  7  8  1  0
  7  9  1  0
  9 10  2  0
 10 11  1  0
 11 12  2  0
 12 13  1  0
  9 14  1  0
 13 14  2  0
M  END
