mac-x0439-mac-x0397
     RDKit          3D

 27 30  0  0  0  0  0  0  0  0999 V2000
   30.6190   47.5540   -2.0770 Cl  0  0  0  0  0  0  0  0  0  0  0  0
   29.7220   46.0900   -2.1700 C   0  0  0  0  0  0  0  0  0  0  0  0
   30.2540   44.9710   -3.0030 C   0  0  2  0  0  0  0  0  0  0  0  0
   28.5670   45.9310   -1.4950 C   0  0  0  0  0  0  0  0  0  0  0  0
   30.9270   45.1290   -4.3260 C   0  0  0  0  0  0  0  0  0  0  0  0
   29.0840   44.1580   -3.5160 C   0  0  0  0  0  0  0  0  0  0  0  0
   27.8270   44.6800   -1.5750 C   0  0  0  0  0  0  0  0  0  0  0  0
   30.2380   44.4500   -5.2610 C   0  0  0  0  0  0  0  0  0  0  0  0
   29.0930   43.8500   -4.7780 N   0  0  0  0  0  0  0  0  0  0  0  0
   28.0410   43.7760   -2.5470 C   0  0  0  0  0  0  0  0  0  0  0  0
   30.6870   44.3620   -6.6850 C   0  0  0  0  0  0  0  0  0  0  0  0
   30.5700   43.0990   -7.1360 O   0  0  0  0  0  0  0  0  0  0  0  0
   31.1310   45.3290   -7.3990 N   0  0  0  0  0  0  0  0  0  0  0  0
   31.2310   46.6740   -6.8620 C   0  0  0  0  0  0  0  0  0  0  0  0
   29.8190   47.2040   -6.6170 C   0  0  0  0  0  0  0  0  0  0  0  0
   29.6130   48.6640   -7.0240 C   0  0  0  0  0  0  0  0  0  0  0  0
   29.6090   49.6450   -5.8740 C   0  0  0  0  0  0  0  0  0  0  0  0
   29.2970   51.0170   -6.0250 C   0  0  0  0  0  0  0  0  0  0  0  0
   29.9280   49.1970   -4.5690 C   0  0  0  0  0  0  0  0  0  0  0  0
   29.2940   51.9170   -4.9530 C   0  0  0  0  0  0  0  0  0  0  0  0
   28.8690   51.8840   -7.4600 S   0  0  0  0  0  0  0  0  0  0  0  0
   29.9340   50.0650   -3.4840 C   0  0  0  0  0  0  0  0  0  0  0  0
   28.7230   53.3300   -6.5640 C   0  0  0  0  0  0  0  0  0  0  0  0
   28.9640   53.2280   -5.2850 N   0  0  0  0  0  0  0  0  0  0  0  0
   29.6210   51.4040   -3.6780 C   0  0  0  0  0  0  0  0  0  0  0  0
   29.6120   52.5180   -2.3780 Cl  0  0  0  0  0  0  0  0  0  0  0  0
   28.3800   54.4890   -7.1550 N   0  0  0  0  0  0  0  0  0  0  0  0
  1  2  1  0
  2  3  1  0
  2  4  2  0
  3  5  1  6
  3  6  1  0
  4  7  1  0
  5  8  2  0
  6  9  2  0
  8  9  1  0
  6 10  1  0
  7 10  2  0
  8 11  1  0
 11 12  1  0
 11 13  2  3
 13 14  1  0
 14 15  1  0
 15 16  1  0
 16 17  1  0
 17 18  1  0
 17 19  2  0
 18 20  2  0
 18 21  1  0
 19 22  1  0
 21 23  1  0
 20 24  1  0
 23 24  2  0
 20 25  1  0
 22 25  2  0
 25 26  1  0
 23 27  1  0
M  END
