mac-x0303-mac-x0404
     RDKit          3D

 29 32  0  0  0  0  0  0  0  0999 V2000
   30.4380   56.3410   -6.6820 N   0  0  0  0  0  0  0  0  0  0  0  0
   29.1460   56.1730   -5.6150 S   0  0  0  0  0  0  0  0  0  0  0  0
   27.9280   56.3170   -6.3760 O   0  0  0  0  0  0  0  0  0  0  0  0
   29.4200   56.9360   -4.4200 O   0  0  0  0  0  0  0  0  0  0  0  0
   29.1520   54.4860   -5.0930 C   0  0  0  0  0  0  0  0  0  0  0  0
   29.5050   54.1030   -3.8260 N   0  0  0  0  0  0  0  0  0  0  0  0
   28.8290   53.4430   -5.8440 N   0  0  0  0  0  0  0  0  0  0  0  0
   29.4040   52.7380   -3.7510 C   0  0  0  0  0  0  0  0  0  0  0  0
   28.9820   52.3540   -5.0200 C   0  0  0  0  0  0  0  0  0  0  0  0
   29.6410   51.8330   -2.7120 C   0  0  0  0  0  0  0  0  0  0  0  0
   28.7760   50.9960   -5.2890 C   0  0  0  0  0  0  0  0  0  0  0  0
   29.4330   50.4690   -2.9870 C   0  0  0  0  0  0  0  0  0  0  0  0
   29.0050   50.0670   -4.2660 C   0  0  0  0  0  0  0  0  0  0  0  0
   29.6610   49.3990   -1.9360 C   0  0  0  0  0  0  0  0  0  0  0  0
   30.0760   48.0540   -2.5050 C   0  0  0  0  0  0  0  0  0  0  0  0
   29.3990   46.8370   -2.2010 C   0  0  0  0  0  0  0  0  0  0  0  0
   31.1830   48.0470   -3.3730 C   0  0  0  0  0  0  0  0  0  0  0  0
   29.8610   45.6280   -2.7880 C   0  0  0  0  0  0  0  0  0  0  0  0
   31.6310   46.8650   -3.9440 C   0  0  0  0  0  0  0  0  0  0  0  0
   28.2800   46.7630   -1.3390 C   0  0  0  0  0  0  0  0  0  0  0  0
   30.9760   45.6700   -3.6540 C   0  0  0  0  0  0  0  0  0  0  0  0
   27.6380   45.5540   -1.0610 C   0  0  0  0  0  0  0  0  0  0  0  0
   29.1970   44.4170   -2.4920 C   0  0  0  0  0  0  0  0  0  0  0  0
   31.4470   44.5160   -4.2430 O   0  0  0  0  0  0  0  0  0  0  0  0
   28.0970   44.3800   -1.6380 C   0  0  0  0  0  0  0  0  0  0  0  0
   32.8870   44.4840   -4.2680 C   0  0  0  0  0  0  0  0  0  0  0  0
   33.3490   44.4020   -5.7240 C   0  0  0  0  0  0  0  0  0  0  0  0
   32.4320   43.8460   -6.5580 O   0  0  0  0  0  0  0  0  0  0  0  0
   34.4400   44.7920   -6.1210 O   0  0  0  0  0  0  0  0  0  0  0  0
  2  1  1  0
  2  3  2  0
  2  4  2  0
  2  5  1  0
  5  6  1  0
  5  7  2  0
  6  8  1  0
  7  9  1  0
  8  9  2  0
  8 10  1  0
  9 11  1  0
 10 12  2  0
 11 13  2  0
 12 13  1  0
 12 14  1  0
 14 15  1  0
 15 16  1  0
 15 17  2  0
 16 18  2  0
 17 19  1  0
 16 20  1  0
 18 21  1  0
 19 21  2  0
 20 22  2  0
 18 23  1  0
 21 24  1  0
 22 25  1  0
 23 25  2  0
 24 26  1  0
 26 27  1  0
 27 28  1  0
 27 29  2  0
M  END
