mac-x0392-mac-x0179
     RDKit          3D

 24 26  0  0  0  0  0  0  0  0999 V2000
   29.6380   46.9110   -7.6380 N   0  0  0  0  0  0  0  0  0  0  0  0
   29.5770   48.1290   -6.9430 C   0  0  0  0  0  0  0  0  0  0  0  0
   29.1720   49.2880   -7.6080 C   0  0  0  0  0  0  0  0  0  0  0  0
   29.8980   48.2940   -5.5840 C   0  0  0  0  0  0  0  0  0  0  0  0
   30.3450   47.1920   -4.6960 C   0  0  0  0  0  0  0  0  0  0  0  0
   29.8030   49.5560   -4.9800 C   0  0  0  0  0  0  0  0  0  0  0  0
   29.0710   50.5190   -7.0540 N   0  0  0  0  0  0  0  0  0  0  0  0
   29.9400   47.0900   -3.5530 O   0  0  0  0  0  0  0  0  0  0  0  0
   31.2090   46.4060   -5.3730 O   0  0  0  0  0  0  0  0  0  0  0  0
   29.3900   50.6260   -5.7470 C   0  0  0  0  0  0  0  0  0  0  0  0
   32.4930   46.2800   -4.9210 C   0  0  0  0  0  0  0  0  0  0  0  0
   33.5220   46.3300   -5.5900 O   0  0  0  0  0  0  0  0  0  0  0  0
   32.5440   46.0560   -3.4070 C   0  0  0  0  0  0  0  0  0  0  0  0
   33.8830   46.0820   -2.8340 N   0  0  0  0  0  0  0  0  0  0  0  0
   34.4870   44.9830   -2.2790 C   0  0  0  0  0  0  0  0  0  0  0  0
   34.5100   47.2330   -2.4430 C   0  0  0  0  0  0  0  0  0  0  0  0
   34.0920   43.8350   -2.2360 O   0  0  0  0  0  0  0  0  0  0  0  0
   34.1400   48.3850   -2.5670 O   0  0  0  0  0  0  0  0  0  0  0  0
   35.7540   45.4510   -1.7140 C   0  0  0  0  0  0  0  0  0  0  0  0
   35.7680   46.8300   -1.8160 C   0  0  0  0  0  0  0  0  0  0  0  0
   36.8070   44.7490   -1.1600 C   0  0  0  0  0  0  0  0  0  0  0  0
   36.8330   47.5880   -1.3710 C   0  0  0  0  0  0  0  0  0  0  0  0
   37.9000   45.4940   -0.7010 C   0  0  0  0  0  0  0  0  0  0  0  0
   37.9120   46.9020   -0.8060 C   0  0  0  0  0  0  0  0  0  0  0  0
  1  2  1  0
  2  3  2  0
  2  4  1  0
  4  5  1  0
  4  6  2  0
  3  7  1  0
  5  8  2  0
  5  9  1  0
  6 10  1  0
  7 10  2  0
  9 11  1  0
 11 12  2  0
 11 13  1  0
 13 14  1  0
 14 15  1  0
 14 16  1  0
 15 17  2  0
 16 18  2  0
 15 19  1  0
 16 20  1  0
 19 20  2  0
 19 21  1  0
 20 22  1  0
 21 23  2  0
 22 24  2  0
 23 24  1  0
M  END
