mac-x0284-mac-x0455
     RDKit          3D

 19 20  0  0  0  0  0  0  0  0999 V2000
   30.0020   51.6530   -5.0170 C   0  0  0  0  0  0  0  0  0  0  0  0
   29.8700   50.3350   -4.3150 C   0  0  0  0  0  0  0  0  0  0  0  0
   29.5630   50.2760   -2.9540 C   0  0  0  0  0  0  0  0  0  0  0  0
   30.0590   49.1430   -5.0230 C   0  0  0  0  0  0  0  0  0  0  0  0
   29.9480   47.8760   -4.4070 C   0  0  0  0  0  0  0  0  0  0  0  0
   29.4430   49.0410   -2.3160 C   0  0  0  0  0  0  0  0  0  0  0  0
   30.1690   46.6070   -5.2380 C   0  0  0  0  0  0  0  0  0  0  0  0
   29.6330   47.8610   -3.0370 C   0  0  0  0  0  0  0  0  0  0  0  0
   29.5060   46.6590   -2.3860 O   0  0  0  0  0  0  0  0  0  0  0  0
   29.2760   46.5690   -6.3290 O   0  0  0  0  0  0  0  0  0  0  0  0
   31.5550   46.4730   -5.6920 N   0  0  0  0  0  0  0  0  0  0  0  0
   29.8250   45.4420   -4.5080 O   0  0  0  0  0  0  0  0  0  0  0  0
   31.8400   47.0190   -7.0210 C   0  0  0  0  0  0  0  0  0  0  0  0
   32.5350   46.8710   -4.7620 C   0  0  0  0  0  0  0  0  0  0  0  0
   32.8030   48.2390   -4.6070 C   0  0  0  0  0  0  0  0  0  0  0  0
   33.2610   45.9640   -3.9790 C   0  0  0  0  0  0  0  0  0  0  0  0
   33.7650   48.6890   -3.7000 C   0  0  0  0  0  0  0  0  0  0  0  0
   34.2250   46.4100   -3.0700 C   0  0  0  0  0  0  0  0  0  0  0  0
   34.4760   47.7740   -2.9310 C   0  0  0  0  0  0  0  0  0  0  0  0
  1  2  1  0
  2  3  2  0
  2  4  1  0
  4  5  2  0
  3  6  1  0
  5  7  1  0
  5  8  1  0
  6  8  2  0
  8  9  1  0
  7 10  1  0
  7 11  1  0
  7 12  1  0
 11 13  1  0
 11 14  1  0
 14 15  2  0
 14 16  1  0
 15 17  1  0
 16 18  2  0
 17 19  2  0
 18 19  1  0
M  END
