mac-x0373-mac-x0131
     RDKit          3D

 22 24  0  0  0  0  0  0  0  0999 V2000
   31.5220   46.0780   -6.2850 O   0  0  0  0  0  0  0  0  0  0  0  0
   30.5910   46.1530   -5.2890 C   0  0  0  0  0  0  0  0  0  0  0  0
   29.6800   45.3390   -5.2300 O   0  0  0  0  0  0  0  0  0  0  0  0
   30.8440   47.3220   -4.3100 C   0  0  1  0  0  0  0  0  0  0  0  0
   32.3070   47.6510   -3.9890 C   0  0  0  0  0  0  0  0  0  0  0  0
   29.9360   48.5380   -4.6330 C   0  0  0  0  0  0  0  0  0  0  0  0
   33.1360   46.7390   -3.3080 C   0  0  0  0  0  0  0  0  0  0  0  0
   32.8720   48.8830   -4.3680 C   0  0  0  0  0  0  0  0  0  0  0  0
   29.6930   49.4840   -3.6790 C   0  0  0  0  0  0  0  0  0  0  0  0
   29.2960   48.7340   -5.9770 C   0  0  0  0  0  0  0  0  0  0  0  0
   30.2410   49.4710   -2.2730 C   0  0  0  0  0  0  0  0  0  0  0  0
   34.4690   47.0470   -3.0170 C   0  0  0  0  0  0  0  0  0  0  0  0
   34.2040   49.1900   -4.0770 C   0  0  0  0  0  0  0  0  0  0  0  0
   28.8440   50.6400   -3.9500 C   0  0  0  0  0  0  0  0  0  0  0  0
   28.9530   50.1780   -6.3890 C   0  0  2  0  0  0  0  0  0  0  0  0
   28.9830   47.7560   -6.8600 C   0  0  0  0  0  0  0  0  0  0  0  0
   30.1210   50.8750   -6.9160 N   0  0  0  0  0  0  0  0  0  0  0  0
   35.0030   48.2720   -3.4030 C   0  0  0  0  0  0  0  0  0  0  0  0
   28.4950   50.9710   -5.2000 C   0  0  0  0  0  0  0  0  0  0  0  0
   27.8420   50.1400   -7.3010 N   0  0  0  0  0  0  0  0  0  0  0  0
   28.3870   47.9760   -8.0830 N   0  0  0  0  0  0  0  0  0  0  0  0
   27.8570   49.1430   -8.2280 C   0  0  0  0  0  0  0  0  0  0  0  0
  1  2  1  0
  2  3  2  0
  4  2  1  6
  4  5  1  0
  4  6  1  0
  5  7  2  0
  5  8  1  0
  6  9  2  0
  6 10  1  0
  9 11  1  0
  7 12  1  0
  8 13  2  0
  9 14  1  0
 10 15  1  0
 10 16  2  0
 15 17  1  6
 12 18  2  0
 13 18  1  0
 14 19  2  0
 15 19  1  0
 15 20  1  0
 16 21  1  0
 20 22  1  0
 21 22  2  0
M  END
