mac-x0565-mac-x0398
     RDKit          3D

 21 23  0  0  0  0  0  0  0  0999 V2000
   32.0350   52.5980   -4.4440 C   0  0  0  0  0  0  0  0  0  0  0  0
   31.6220   51.1950   -4.2260 C   0  0  0  0  0  0  0  0  0  0  0  0
   30.5890   50.9050   -3.3280 C   0  0  0  0  0  0  0  0  0  0  0  0
   31.8870   53.4700   -3.5940 O   0  0  0  0  0  0  0  0  0  0  0  0
   32.2660   50.1680   -4.9240 C   0  0  0  0  0  0  0  0  0  0  0  0
   31.8390   48.8750   -4.6860 C   0  0  0  0  0  0  0  0  0  0  0  0
   30.1780   49.5870   -3.1140 C   0  0  0  0  0  0  0  0  0  0  0  0
   30.8250   48.5870   -3.8070 C   0  0  0  0  0  0  0  0  0  0  0  0
   32.3400   47.7520   -5.2690 O   0  0  0  0  0  0  0  0  0  0  0  0
   29.1350   49.3680   -2.2360 N   0  0  0  0  0  0  0  0  0  0  0  0
   30.5720   47.2490   -3.7350 O   0  0  0  0  0  0  0  0  0  0  0  0
   31.3690   46.7780   -4.8300 C   0  0  0  0  0  0  0  0  0  0  0  0
   28.1080   50.0500   -2.5680 C   0  0  0  0  0  0  0  0  0  0  0  0
   26.9810   49.9540   -1.8350 O   0  0  0  0  0  0  0  0  0  0  0  0
   28.0300   50.9770   -3.7320 C   0  0  0  0  0  0  0  0  0  0  0  0
   28.0770   52.3660   -3.5660 C   0  0  0  0  0  0  0  0  0  0  0  0
   27.9190   50.4480   -5.0250 C   0  0  0  0  0  0  0  0  0  0  0  0
   28.1880   52.9010   -2.3110 O   0  0  0  0  0  0  0  0  0  0  0  0
   28.0160   53.2180   -4.6720 C   0  0  0  0  0  0  0  0  0  0  0  0
   27.8570   51.2990   -6.1330 C   0  0  0  0  0  0  0  0  0  0  0  0
   27.9060   52.6800   -5.9530 C   0  0  0  0  0  0  0  0  0  0  0  0
  1  2  1  0
  2  3  2  0
  1  4  2  0
  2  5  1  0
  5  6  2  0
  3  7  1  0
  6  8  1  0
  7  8  2  0
  6  9  1  0
  7 10  1  0
  8 11  1  0
  9 12  1  0
 11 12  1  0
 10 13  2  3
 13 14  1  0
 13 15  1  0
 15 16  2  0
 15 17  1  0
 16 18  1  0
 16 19  1  0
 17 20  2  0
 19 21  2  0
 20 21  1  0
M  END
