mac-x0587-mac-x0338
     RDKit          3D

 18 18  0  0  0  0  0  0  0  0999 V2000
   29.4880   45.7580   -3.4330 C   0  0  0  0  0  0  0  0  0  0  0  0
   30.5390   46.6650   -4.0810 C   0  0  2  0  0  0  0  0  0  0  0  0
   32.1990   46.0140   -3.6200 S   0  0  0  0  0  0  0  0  0  0  0  0
   30.3030   48.1310   -3.6490 C   0  0  0  0  0  0  0  0  0  0  0  0
   33.2600   46.6980   -4.9370 C   0  0  0  0  0  0  0  0  0  0  0  0
   30.4910   48.4850   -2.4840 O   0  0  0  0  0  0  0  0  0  0  0  0
   29.8730   49.0150   -4.6430 N   0  0  0  0  0  0  0  0  0  0  0  0
   33.2840   45.8560   -6.1880 C   0  0  0  0  0  0  0  0  0  0  0  0
   29.7640   50.4810   -4.5790 C   0  0  0  0  0  0  0  0  0  0  0  0
   29.3240   48.5880   -5.8640 C   0  0  0  0  0  0  0  0  0  0  0  0
   34.2740   45.5630   -6.8390 O   0  0  0  0  0  0  0  0  0  0  0  0
   32.0750   45.4080   -6.5920 O   0  0  0  0  0  0  0  0  0  0  0  0
   29.2530   47.4790   -6.3550 O   0  0  0  0  0  0  0  0  0  0  0  0
   28.6790   50.8030   -5.6070 C   0  0  2  0  0  0  0  0  0  0  0  0
   28.8120   49.7010   -6.5200 N   0  0  0  0  0  0  0  0  0  0  0  0
   28.8580   52.1640   -6.3200 C   0  0  0  0  0  0  0  0  0  0  0  0
   28.7420   52.1430   -7.6800 N   0  0  0  0  0  0  0  0  0  0  0  0
   29.0770   53.2230   -5.7360 O   0  0  0  0  0  0  0  0  0  0  0  0
  2  1  1  1
  2  3  1  0
  2  4  1  0
  3  5  1  0
  4  6  2  0
  4  7  1  0
  5  8  1  0
  7  9  1  0
  7 10  1  0
  8 11  2  0
  8 12  1  0
 10 13  2  0
  9 14  1  0
 10 15  1  0
 14 15  1  0
 14 16  1  6
 16 17  1  0
 16 18  2  0
M  END
