mac-x0348-mac-x0398
     RDKit          3D

 27 29  0  0  0  0  0  0  0  0999 V2000
   27.4270   44.0660   -1.2230 C   0  0  0  0  0  0  0  0  0  0  0  0
   28.4220   45.0470   -1.5930 N   0  0  0  0  0  0  0  0  0  0  0  0
   28.9570   45.1850   -2.8440 C   0  0  0  0  0  0  0  0  0  0  0  0
   28.9680   45.9790   -0.7380 C   0  0  0  0  0  0  0  0  0  0  0  0
   29.8730   46.2230   -2.8250 C   0  0  0  0  0  0  0  0  0  0  0  0
   29.8840   46.7330   -1.4820 C   0  0  0  0  0  0  0  0  0  0  0  0
   28.7320   46.2210    0.6270 C   0  0  0  0  0  0  0  0  0  0  0  0
   30.6830   46.6890   -4.0260 C   0  0  1  0  0  0  0  0  0  0  0  0
   30.5870   47.7660   -0.8260 C   0  0  0  0  0  0  0  0  0  0  0  0
   29.4420   47.2510    1.2460 C   0  0  0  0  0  0  0  0  0  0  0  0
   30.8920   45.5250   -5.0150 C   0  0  0  0  0  0  0  0  0  0  0  0
   30.0350   47.9240   -4.6900 C   0  0  0  0  0  0  0  0  0  0  0  0
   30.3570   48.0150    0.5350 C   0  0  0  0  0  0  0  0  0  0  0  0
   31.9950   45.7730   -6.0220 C   0  0  0  0  0  0  0  0  0  0  0  0
   30.9320   49.0530   -4.5870 O   0  0  0  0  0  0  0  0  0  0  0  0
   31.8300   45.9850   -7.2120 O   0  0  0  0  0  0  0  0  0  0  0  0
   33.2280   45.7340   -5.4640 O   0  0  0  0  0  0  0  0  0  0  0  0
   30.4950   50.0690   -3.7970 C   0  0  0  0  0  0  0  0  0  0  0  0
   30.5820   50.1120   -2.5810 O   0  0  0  0  0  0  0  0  0  0  0  0
   29.8910   51.1550   -4.6150 C   0  0  0  0  0  0  0  0  0  0  0  0
   29.6880   52.4660   -4.1660 C   0  0  0  0  0  0  0  0  0  0  0  0
   29.5030   50.8260   -5.9230 C   0  0  0  0  0  0  0  0  0  0  0  0
   30.0200   52.9180   -2.9150 O   0  0  0  0  0  0  0  0  0  0  0  0
   29.1130   53.4230   -5.0080 C   0  0  0  0  0  0  0  0  0  0  0  0
   28.9270   51.7890   -6.7590 C   0  0  0  0  0  0  0  0  0  0  0  0
   28.7290   53.0950   -6.3090 C   0  0  0  0  0  0  0  0  0  0  0  0
   28.1540   54.0580   -7.1470 N   0  0  0  0  0  0  0  0  0  0  0  0
  1  2  1  0
  2  3  1  0
  2  4  1  0
  3  5  2  0
  4  6  2  0
  5  6  1  0
  4  7  1  0
  5  8  1  0
  6  9  1  0
  7 10  2  0
  8 11  1  6
  8 12  1  0
  9 13  2  0
 10 13  1  0
 11 14  1  0
 12 15  1  0
 14 16  2  0
 14 17  1  0
 15 18  1  0
 18 19  2  0
 18 20  1  0
 20 21  2  0
 20 22  1  0
 21 23  1  0
 21 24  1  0
 22 25  2  0
 24 26  2  0
 25 26  1  0
 26 27  1  0
M  END
