mac-x0394-mac-x0301
     RDKit          3D

 24 26  0  0  0  0  0  0  0  0999 V2000
   23.5100   50.2310   -3.7440 Cl  0  0  0  0  0  0  0  0  0  0  0  0
   24.7890   51.3260   -4.0850 C   0  0  0  0  0  0  0  0  0  0  0  0
   24.9010   52.5180   -3.3830 C   0  0  0  0  0  0  0  0  0  0  0  0
   25.7070   51.0000   -5.0730 C   0  0  0  0  0  0  0  0  0  0  0  0
   26.7610   51.8610   -5.3820 C   0  0  0  0  0  0  0  0  0  0  0  0
   25.9470   53.3880   -3.6790 C   0  0  0  0  0  0  0  0  0  0  0  0
   26.0840   54.8660   -2.8100 Cl  0  0  0  0  0  0  0  0  0  0  0  0
   27.7060   51.3970   -6.4770 C   0  0  1  0  0  0  0  0  0  0  0  0
   26.8820   53.0700   -4.6760 C   0  0  0  0  0  0  0  0  0  0  0  0
   28.2840   52.5140   -7.3710 C   0  0  0  0  0  0  0  0  0  0  0  0
   28.5240   50.2510   -5.8860 C   0  0  0  0  0  0  0  0  0  0  0  0
   29.4760   53.0330   -6.9850 O   0  0  0  0  0  0  0  0  0  0  0  0
   27.7210   52.9360   -8.3740 O   0  0  0  0  0  0  0  0  0  0  0  0
   28.8860   49.1400   -6.6450 C   0  0  0  0  0  0  0  0  0  0  0  0
   28.9320   50.2400   -4.5360 C   0  0  0  0  0  0  0  0  0  0  0  0
   29.5910   48.0730   -6.1220 C   0  0  0  0  0  0  0  0  0  0  0  0
   29.6500   49.1600   -3.9940 C   0  0  0  0  0  0  0  0  0  0  0  0
   28.5930   48.9540   -7.9680 O   0  0  0  0  0  0  0  0  0  0  0  0
   29.9830   48.0550   -4.7920 C   0  0  0  0  0  0  0  0  0  0  0  0
   29.8170   47.1090   -7.0590 O   0  0  0  0  0  0  0  0  0  0  0  0
   29.0150   47.5880   -8.1510 C   0  0  0  0  0  0  0  0  0  0  0  0
   30.7260   46.9170   -4.2130 C   0  0  0  0  0  0  0  0  0  0  0  0
   30.4790   45.7590   -4.8680 O   0  0  0  0  0  0  0  0  0  0  0  0
   31.4620   47.0020   -3.2500 O   0  0  0  0  0  0  0  0  0  0  0  0
  1  2  1  0
  2  3  2  0
  2  4  1  0
  4  5  2  0
  3  6  1  0
  6  7  1  0
  5  8  1  0
  5  9  1  0
  6  9  2  0
  8 10  1  1
  8 11  1  0
 10 12  1  0
 10 13  2  0
 11 14  1  0
 11 15  2  0
 14 16  2  0
 15 17  1  0
 14 18  1  0
 16 19  1  0
 17 19  2  0
 16 20  1  0
 18 21  1  0
 20 21  1  0
 19 22  1  0
 22 23  1  0
 22 24  2  0
M  END
