mac-x0306-mac-x0132
     RDKit          3D

 12 13  0  0  0  0  0  0  0  0999 V2000
   28.0560   53.2940   -7.3060 N   0  0  0  0  0  0  0  0  0  0  0  0
   28.7230   54.0030   -6.2770 N   0  0  0  0  0  0  0  0  0  0  0  0
   28.8330   55.3610   -6.2650 C   0  0  0  0  0  0  0  0  0  0  0  0
   29.3580   53.5080   -5.1480 C   0  0  0  0  0  0  0  0  0  0  0  0
   29.5330   55.6570   -5.1280 C   0  0  0  0  0  0  0  0  0  0  0  0
   29.8560   54.5150   -4.4400 N   0  0  0  0  0  0  0  0  0  0  0  0
   29.4760   52.0940   -4.7700 C   0  0  0  0  0  0  0  0  0  0  0  0
   29.6310   51.6850   -3.4440 C   0  0  0  0  0  0  0  0  0  0  0  0
   29.4300   51.1150   -5.7660 C   0  0  0  0  0  0  0  0  0  0  0  0
   29.7330   50.3300   -3.1760 C   0  0  0  0  0  0  0  0  0  0  0  0
   29.5420   49.7850   -5.4000 C   0  0  0  0  0  0  0  0  0  0  0  0
   29.6930   49.3680   -4.1250 N   0  0  0  0  0  0  0  0  0  0  0  0
  1  2  1  0
  2  3  1  0
  2  4  1  0
  3  5  2  0
  4  6  2  0
  5  6  1  0
  4  7  1  0
  7  8  2  0
  7  9  1  0
  8 10  1  0
  9 11  2  0
 10 12  2  0
 11 12  1  0
M  END
