mac-x0564-mac-x1493
     RDKit          3D

 21 24  0  0  0  0  0  0  0  0999 V2000
   30.1340   46.6050   -7.7970 O   0  0  0  0  0  0  0  0  0  0  0  0
   30.3950   46.7900   -6.6160 C   0  0  0  0  0  0  0  0  0  0  0  0
   30.9710   45.8090   -5.8060 N   0  0  0  0  0  0  0  0  0  0  0  0
   30.1480   48.0220   -5.9060 C   0  0  0  0  0  0  0  0  0  0  0  0
   30.2110   48.1450   -4.5500 C   0  0  0  0  0  0  0  0  0  0  0  0
   30.9950   45.9960   -4.5250 C   0  0  0  0  0  0  0  0  0  0  0  0
   29.8250   49.2160   -6.4790 O   0  0  0  0  0  0  0  0  0  0  0  0
   30.5210   47.0690   -3.8030 N   0  0  0  0  0  0  0  0  0  0  0  0
   29.6830   50.1160   -5.4440 C   0  0  0  0  0  0  0  0  0  0  0  0
   29.9140   49.4820   -4.2210 C   0  0  0  0  0  0  0  0  0  0  0  0
   29.8090   50.2430   -3.0490 C   0  0  0  0  0  0  0  0  0  0  0  0
   29.3510   51.4880   -5.5550 C   0  0  0  0  0  0  0  0  0  0  0  0
   30.0430   49.6030   -1.7490 C   0  0  0  0  0  0  0  0  0  0  0  0
   29.4830   51.6090   -3.1150 C   0  0  0  0  0  0  0  0  0  0  0  0
   29.2550   52.2340   -4.3520 C   0  0  0  0  0  0  0  0  0  0  0  0
   29.1220   52.0940   -6.8050 C   0  0  0  0  0  0  0  0  0  0  0  0
   29.0630   48.7320   -1.4190 O   0  0  0  0  0  0  0  0  0  0  0  0
   31.0110   49.8290   -1.0540 O   0  0  0  0  0  0  0  0  0  0  0  0
   28.9290   53.5980   -4.4440 C   0  0  0  0  0  0  0  0  0  0  0  0
   28.7990   53.4510   -6.8610 C   0  0  0  0  0  0  0  0  0  0  0  0
   28.7030   54.1990   -5.6880 C   0  0  0  0  0  0  0  0  0  0  0  0
  1  2  2  0
  2  3  1  0
  2  4  1  0
  4  5  2  0
  3  6  2  0
  4  7  1  0
  5  8  1  0
  6  8  1  0
  7  9  1  0
  5 10  1  0
  9 10  2  0
 10 11  1  0
  9 12  1  0
 11 13  1  0
 11 14  2  0
 12 15  2  0
 14 15  1  0
 12 16  1  0
 13 17  1  0
 13 18  2  0
 15 19  1  0
 16 20  2  0
 19 21  2  0
 20 21  1  0
M  END
