mac-x0396-mac-x0301
     RDKit          3D

 20 22  0  0  0  0  0  0  0  0999 V2000
   27.0260   51.4550   -6.3330 N   0  0  0  0  0  0  0  0  0  0  0  0
   28.4930   51.3740   -6.2320 C   0  0  1  0  0  0  0  0  0  0  0  0
   29.0380   52.5970   -5.5180 C   0  0  0  0  0  0  0  0  0  0  0  0
   28.9870   50.0640   -5.6390 C   0  0  0  0  0  0  0  0  0  0  0  0
   30.1070   52.4880   -4.6280 C   0  0  0  0  0  0  0  0  0  0  0  0
   28.5050   53.8800   -5.7120 C   0  0  0  0  0  0  0  0  0  0  0  0
   29.3910   49.0250   -6.4730 C   0  0  0  0  0  0  0  0  0  0  0  0
   29.0720   49.8140   -4.2570 C   0  0  0  0  0  0  0  0  0  0  0  0
   30.6480   53.5320   -3.9520 N   0  0  0  0  0  0  0  0  0  0  0  0
   29.0440   54.9680   -5.0320 C   0  0  0  0  0  0  0  0  0  0  0  0
   29.8520   47.8140   -5.9930 C   0  0  0  0  0  0  0  0  0  0  0  0
   29.5400   48.5810   -3.7640 C   0  0  0  0  0  0  0  0  0  0  0  0
   29.3850   49.0640   -7.8380 O   0  0  0  0  0  0  0  0  0  0  0  0
   30.1040   54.7450   -4.1710 C   0  0  0  0  0  0  0  0  0  0  0  0
   29.9400   47.5560   -4.6340 C   0  0  0  0  0  0  0  0  0  0  0  0
   30.1870   46.9590   -7.0070 O   0  0  0  0  0  0  0  0  0  0  0  0
   29.7470   47.7110   -8.1590 C   0  0  0  0  0  0  0  0  0  0  0  0
   30.4270   46.2790   -4.0480 C   0  0  0  0  0  0  0  0  0  0  0  0
   29.8130   45.1620   -4.4950 O   0  0  0  0  0  0  0  0  0  0  0  0
   31.3240   46.2430   -3.2170 O   0  0  0  0  0  0  0  0  0  0  0  0
  2  1  1  1
  2  3  1  0
  2  4  1  0
  3  5  2  0
  3  6  1  0
  4  7  1  0
  4  8  2  0
  5  9  1  0
  6 10  2  0
  7 11  2  0
  8 12  1  0
  7 13  1  0
  9 14  2  0
 10 14  1  0
 11 15  1  0
 12 15  2  0
 11 16  1  0
 13 17  1  0
 16 17  1  0
 15 18  1  0
 18 19  1  0
 18 20  2  0
M  END
