mac-x0282-mac-x0572
     RDKit          3D

 17 19  0  0  0  0  0  0  0  0999 V2000
   27.8920   55.4930   -6.6180 C   0  0  0  0  0  0  0  0  0  0  0  0
   28.8670   54.3370   -6.3820 C   0  0  2  0  0  0  0  0  0  0  0  0
   28.1860   53.0810   -6.0400 N   0  0  0  0  0  0  0  0  0  0  0  0
   29.9790   54.6640   -5.3690 C   0  0  1  0  0  0  0  0  0  0  0  0
   29.4890   55.5980   -4.3990 O   0  0  0  0  0  0  0  0  0  0  0  0
   29.0300   51.8740   -6.0510 C   0  0  1  0  0  0  0  0  0  0  0  0
   30.3930   53.4110   -4.6110 C   0  0  0  0  0  0  0  0  0  0  0  0
   30.7030   53.4690   -3.4150 O   0  0  0  0  0  0  0  0  0  0  0  0
   28.2630   50.7240   -5.2670 C   0  0  0  0  0  0  0  0  0  0  0  0
   29.2710   51.3040   -7.3790 N   0  0  0  0  0  0  0  0  0  0  0  0
   30.4110   52.1190   -5.3730 C   0  0  0  0  0  0  0  0  0  0  0  0
   28.6530   49.5110   -6.0420 C   0  0  0  0  0  0  0  0  0  0  0  0
   29.2220   49.9030   -7.2450 C   0  0  0  0  0  0  0  0  0  0  0  0
   28.5300   48.1680   -5.7390 C   0  0  0  0  0  0  0  0  0  0  0  0
   29.6750   49.0580   -8.1700 N   0  0  0  0  0  0  0  0  0  0  0  0
   28.9940   47.2590   -6.6840 C   0  0  0  0  0  0  0  0  0  0  0  0
   29.5490   47.7430   -7.8660 C   0  0  0  0  0  0  0  0  0  0  0  0
  2  1  1  1
  2  3  1  0
  2  4  1  0
  4  5  1  1
  6  3  1  0
  4  7  1  0
  7  8  2  0
  6  9  1  1
  6 10  1  0
  6 11  1  0
  7 11  1  0
  9 12  1  0
 10 13  1  0
 12 13  2  0
 12 14  1  0
 13 15  1  0
 14 16  2  0
 15 17  2  0
 16 17  1  0
M  END
