mac-x0271-mac-x0572
     RDKit          3D

 14 15  0  0  0  0  0  0  0  0999 V2000
   30.0900   49.4040   -3.2710 O   0  0  0  0  0  0  0  0  0  0  0  0
   29.7740   50.5000   -4.0180 C   0  0  0  0  0  0  0  0  0  0  0  0
   29.3100   50.2880   -5.3140 C   0  0  0  0  0  0  0  0  0  0  0  0
   29.9070   51.7880   -3.5060 C   0  0  0  0  0  0  0  0  0  0  0  0
   29.5700   52.8810   -4.3140 C   0  0  0  0  0  0  0  0  0  0  0  0
   28.9760   51.3780   -6.1180 C   0  0  0  0  0  0  0  0  0  0  0  0
   29.1040   52.6790   -5.6230 C   0  0  0  0  0  0  0  0  0  0  0  0
   29.6860   54.2030   -3.8540 N   0  0  0  0  0  0  0  0  0  0  0  0
   30.4210   54.4190   -2.6680 O   0  0  0  0  0  0  0  0  0  0  0  0
   28.7600   53.8410   -6.4500 C   0  0  0  0  0  0  0  0  0  0  0  0
   29.3000   55.3230   -4.5590 C   0  0  0  0  0  0  0  0  0  0  0  0
   29.3280   56.4500   -4.0660 O   0  0  0  0  0  0  0  0  0  0  0  0
   28.8470   55.0920   -5.9680 C   0  0  0  0  0  0  0  0  0  0  0  0
   28.5090   56.3100   -6.7680 C   0  0  0  0  0  0  0  0  0  0  0  0
  1  2  1  0
  2  3  2  0
  2  4  1  0
  4  5  2  0
  3  6  1  0
  5  7  1  0
  6  7  2  0
  5  8  1  0
  8  9  1  0
  7 10  1  0
  8 11  1  0
 11 12  2  0
 10 13  2  0
 11 13  1  0
 13 14  1  0
M  END
