mac-x0453-mac-x0204
     RDKit          3D

 20 21  0  0  0  0  0  0  0  0999 V2000
   29.8160   54.9250   -7.0120 N   0  0  0  0  0  0  0  0  0  0  0  0
   30.1360   53.6420   -6.3730 C   0  0  0  0  0  0  0  0  0  0  0  0
   28.8880   52.9430   -5.8410 C   0  0  0  0  0  0  0  0  0  0  0  0
   29.1160   51.5630   -5.3370 C   0  0  0  0  0  0  0  0  0  0  0  0
   28.7720   50.3820   -5.9420 C   0  0  0  0  0  0  0  0  0  0  0  0
   29.7290   51.3260   -4.1280 N   0  0  0  0  0  0  0  0  0  0  0  0
   29.1690   49.4130   -5.0870 N   0  0  0  0  0  0  0  0  0  0  0  0
   29.7470   50.0150   -4.0020 C   0  0  0  0  0  0  0  0  0  0  0  0
   28.9910   48.0010   -5.3050 C   0  0  0  0  0  0  0  0  0  0  0  0
   30.0710   47.3440   -6.1470 C   0  0  0  0  0  0  0  0  0  0  0  0
   30.8220   46.2510   -5.3930 C   0  0  0  0  0  0  0  0  0  0  0  0
   31.8730   45.7270   -6.1710 O   0  0  0  0  0  0  0  0  0  0  0  0
   29.9040   45.1840   -5.2090 O   0  0  0  0  0  0  0  0  0  0  0  0
   31.3090   46.7620   -4.0510 C   0  0  0  0  0  0  0  0  0  0  0  0
   30.4790   46.7510   -2.9170 C   0  0  0  0  0  0  0  0  0  0  0  0
   32.5950   47.2720   -3.8790 C   0  0  0  0  0  0  0  0  0  0  0  0
   30.9520   47.2360   -1.7030 C   0  0  0  0  0  0  0  0  0  0  0  0
   33.0810   47.7510   -2.7060 N   0  0  0  0  0  0  0  0  0  0  0  0
   30.1170   47.2130   -0.6280 O   0  0  0  0  0  0  0  0  0  0  0  0
   32.2480   47.7220   -1.6440 C   0  0  0  0  0  0  0  0  0  0  0  0
  1  2  1  0
  2  3  1  0
  3  4  1  0
  4  5  2  0
  4  6  1  0
  5  7  1  0
  6  8  2  0
  7  8  1  0
  7  9  1  0
  9 10  1  0
 10 11  1  0
 11 12  1  0
 11 13  1  0
 11 14  1  0
 14 15  2  0
 14 16  1  0
 15 17  1  0
 16 18  2  0
 17 19  1  0
 17 20  2  0
 18 20  1  0
M  END
