mac-x0213-mac-x0333
     RDKit          3D

 22 25  0  0  0  0  0  0  0  0999 V2000
   33.1840   46.5380   -5.8870 O   0  0  0  0  0  0  0  0  0  0  0  0
   31.8780   46.2040   -5.8660 C   0  0  0  0  0  0  0  0  0  0  0  0
   31.2940   45.9590   -6.9100 O   0  0  0  0  0  0  0  0  0  0  0  0
   31.3010   46.1800   -4.4830 C   0  0  1  0  0  0  0  0  0  0  0  0
   30.3040   47.3360   -4.2330 C   0  0  2  0  0  0  0  0  0  0  0  0
   30.4190   44.9290   -4.3000 C   0  0  0  0  0  0  0  0  0  0  0  0
   30.8420   48.5830   -3.8200 O   0  0  0  0  0  0  0  0  0  0  0  0
   29.5910   46.7530   -3.0500 C   0  0  0  0  0  0  0  0  0  0  0  0
   29.6410   45.3630   -3.0970 C   0  0  0  0  0  0  0  0  0  0  0  0
   28.9470   47.4180   -2.0180 C   0  0  0  0  0  0  0  0  0  0  0  0
   29.0310   44.5980   -2.1230 C   0  0  0  0  0  0  0  0  0  0  0  0
   30.3080   49.7750   -4.2720 C   0  0  0  0  0  0  0  0  0  0  0  0
   28.3340   46.6590   -1.0280 C   0  0  0  0  0  0  0  0  0  0  0  0
   28.3710   45.2570   -1.0800 C   0  0  0  0  0  0  0  0  0  0  0  0
   30.3900   50.9830   -3.5820 C   0  0  0  0  0  0  0  0  0  0  0  0
   29.6470   49.7370   -5.5290 C   0  0  0  0  0  0  0  0  0  0  0  0
   29.8270   52.1040   -4.1590 C   0  0  0  0  0  0  0  0  0  0  0  0
   29.0820   50.8950   -6.0900 C   0  0  0  0  0  0  0  0  0  0  0  0
   29.1930   52.0700   -5.3770 C   0  0  0  0  0  0  0  0  0  0  0  0
   29.8250   53.3560   -3.6230 O   0  0  0  0  0  0  0  0  0  0  0  0
   28.7270   53.2960   -5.7440 O   0  0  0  0  0  0  0  0  0  0  0  0
   29.4210   54.1150   -4.7780 C   0  0  0  0  0  0  0  0  0  0  0  0
  1  2  1  0
  2  3  2  0
  4  2  1  6
  4  5  1  0
  4  6  1  0
  5  7  1  1
  5  8  1  0
  6  9  1  0
  8  9  2  0
  8 10  1  0
  9 11  1  0
  7 12  1  0
 10 13  2  0
 11 14  2  0
 13 14  1  0
 12 15  2  0
 12 16  1  0
 15 17  1  0
 16 18  2  0
 17 19  2  0
 18 19  1  0
 17 20  1  0
 19 21  1  0
 20 22  1  0
 21 22  1  0
M  END
