mac-x0271-mac-x0347
     RDKit          3D

 20 22  0  0  0  0  0  0  0  0999 V2000
   30.9230   49.7980   -2.4750 O   0  0  0  0  0  0  0  0  0  0  0  0
   30.0700   50.6480   -3.2620 C   0  0  2  0  0  0  0  0  0  0  0  0
   29.5410   49.8870   -4.5280 C   0  0  1  0  0  0  0  0  0  0  0  0
   30.8370   51.9360   -3.5980 C   0  0  0  0  0  0  0  0  0  0  0  0
   30.0090   52.8290   -4.4610 C   0  0  0  0  0  0  0  0  0  0  0  0
   28.8220   50.8800   -5.5100 C   0  0  0  0  0  0  0  0  0  0  0  0
   30.7070   49.1870   -5.2990 C   0  0  0  0  0  0  0  0  0  0  0  0
   28.5160   48.8010   -4.1120 C   0  0  0  0  0  0  0  0  0  0  0  0
   29.1030   52.3570   -5.3240 C   0  0  0  0  0  0  0  0  0  0  0  0
   30.2520   54.2150   -4.3050 O   0  0  0  0  0  0  0  0  0  0  0  0
   30.9990   47.7280   -4.8870 C   0  0  2  0  0  0  0  0  0  0  0  0
   29.0690   47.8070   -3.1990 N   0  0  0  0  0  0  0  0  0  0  0  0
   30.6000   46.7260   -5.9560 C   0  0  0  0  0  0  0  0  0  0  0  0
   28.3530   53.3030   -6.1120 C   0  0  0  0  0  0  0  0  0  0  0  0
   29.4030   55.1270   -4.8660 C   0  0  0  0  0  0  0  0  0  0  0  0
   30.4180   47.3350   -3.5260 C   0  0  0  0  0  0  0  0  0  0  0  0
   29.3840   56.3100   -4.5400 O   0  0  0  0  0  0  0  0  0  0  0  0
   30.4940   45.4690   -5.4780 O   0  0  0  0  0  0  0  0  0  0  0  0
   30.3820   46.9480   -7.1370 O   0  0  0  0  0  0  0  0  0  0  0  0
   28.4850   54.6180   -5.9010 C   0  0  0  0  0  0  0  0  0  0  0  0
  2  1  1  6
  2  3  1  0
  2  4  1  0
  4  5  1  0
  3  6  1  6
  3  7  1  0
  3  8  1  0
  5  9  2  0
  6  9  1  0
  5 10  1  0
  7 11  1  0
  8 12  1  0
 11 13  1  6
  9 14  1  0
 10 15  1  0
 11 16  1  0
 12 16  1  0
 15 17  2  0
 13 18  1  0
 13 19  2  0
 14 20  2  0
 15 20  1  0
M  END
