mac-x0404-mac-x0436
     RDKit          3D

 26 29  0  0  0  0  0  0  0  0999 V2000
   31.0210   44.6330   -6.9340 O   0  0  0  0  0  0  0  0  0  0  0  0
   31.8920   45.5040   -6.3720 C   0  0  0  0  0  0  0  0  0  0  0  0
   32.4000   46.3760   -7.0650 O   0  0  0  0  0  0  0  0  0  0  0  0
   32.1240   45.2470   -4.8810 C   0  0  0  0  0  0  0  0  0  0  0  0
   32.3900   46.4880   -4.1000 N   0  0  0  0  0  0  0  0  0  0  0  0
   31.2220   46.9460   -3.4150 C   0  0  0  0  0  0  0  0  0  0  0  0
   33.6120   46.4430   -3.2490 C   0  0  2  0  0  0  0  0  0  0  0  0
   30.5600   46.0970   -2.4700 C   0  0  0  0  0  0  0  0  0  0  0  0
   30.7030   48.2320   -3.6510 C   0  0  0  0  0  0  0  0  0  0  0  0
   34.4920   47.7740   -3.4410 C   0  0  0  0  0  0  0  0  0  0  0  0
   34.4830   45.2160   -3.3470 N   0  0  0  0  0  0  0  0  0  0  0  0
   34.2700   48.6360   -4.2920 O   0  0  0  0  0  0  0  0  0  0  0  0
   29.4030   46.5730   -1.8010 C   0  0  0  0  0  0  0  0  0  0  0  0
   29.5660   48.6840   -2.9850 C   0  0  0  0  0  0  0  0  0  0  0  0
   30.9970   44.7910   -2.1560 C   0  0  0  0  0  0  0  0  0  0  0  0
   35.5600   47.9210   -2.5810 N   0  0  0  0  0  0  0  0  0  0  0  0
   35.9170   45.5680   -3.2400 C   0  0  1  0  0  0  0  0  0  0  0  0
   28.9230   47.8600   -2.0690 C   0  0  0  0  0  0  0  0  0  0  0  0
   28.7380   45.7560   -0.8680 C   0  0  0  0  0  0  0  0  0  0  0  0
   30.3280   43.9920   -1.2280 C   0  0  0  0  0  0  0  0  0  0  0  0
   36.1470   46.6800   -2.1630 C   0  0  1  0  0  0  0  0  0  0  0  0
   36.7660   44.3590   -2.9340 C   0  0  0  0  0  0  0  0  0  0  0  0
   29.1990   44.4730   -0.5830 C   0  0  0  0  0  0  0  0  0  0  0  0
   37.9370   44.4930   -2.2890 C   0  0  0  0  0  0  0  0  0  0  0  0
   37.5920   46.8520   -1.8010 C   0  0  0  0  0  0  0  0  0  0  0  0
   38.4200   45.7960   -1.8720 C   0  0  0  0  0  0  0  0  0  0  0  0
  1  2  1  0
  2  3  2  0
  2  4  1  0
  4  5  1  0
  5  6  1  0
  7  5  1  6
  6  8  1  0
  6  9  2  0
  7 10  1  0
  7 11  1  0
 10 12  2  0
  8 13  2  0
  9 14  1  0
  8 15  1  0
 10 16  1  0
 11 17  1  0
 13 18  1  0
 14 18  2  0
 13 19  1  0
 15 20  2  0
 16 21  1  0
 17 21  1  0
 17 22  1  1
 19 23  2  0
 20 23  1  0
 22 24  2  0
 21 25  1  6
 24 26  1  0
 25 26  2  0
M  END
