mac-x0271-mac-x0283
     RDKit          3D

 12 13  0  0  0  0  0  0  0  0999 V2000
   30.2360   49.5230   -3.2500 O   0  0  0  0  0  0  0  0  0  0  0  0
   29.8540   50.6080   -3.9780 C   0  0  0  0  0  0  0  0  0  0  0  0
   29.3660   50.3880   -5.2660 C   0  0  0  0  0  0  0  0  0  0  0  0
   29.9460   51.8970   -3.4600 C   0  0  0  0  0  0  0  0  0  0  0  0
   29.5370   52.9660   -4.2630 C   0  0  0  0  0  0  0  0  0  0  0  0
   28.9610   51.4710   -6.0580 C   0  0  0  0  0  0  0  0  0  0  0  0
   29.0460   52.7720   -5.5570 C   0  0  0  0  0  0  0  0  0  0  0  0
   29.6390   54.2600   -3.7190 O   0  0  0  0  0  0  0  0  0  0  0  0
   28.6420   53.9290   -6.3360 C   0  0  0  0  0  0  0  0  0  0  0  0
   29.2620   55.3830   -4.4430 C   0  0  0  0  0  0  0  0  0  0  0  0
   29.3390   56.5220   -3.9890 O   0  0  0  0  0  0  0  0  0  0  0  0
   28.7490   55.1520   -5.8040 C   0  0  0  0  0  0  0  0  0  0  0  0
  1  2  1  0
  2  3  2  0
  2  4  1  0
  4  5  2  0
  3  6  1  0
  5  7  1  0
  6  7  2  0
  5  8  1  0
  7  9  1  0
  8 10  1  0
 10 11  2  0
  9 12  2  0
 10 12  1  0
M  END
