mac-x0433-mac-x0116
     RDKit          3D

 26 29  0  0  0  0  0  0  0  0999 V2000
   27.3560   49.9560   -4.1150 C   0  0  0  0  0  0  0  0  0  0  0  0
   27.9250   51.2730   -3.6870 C   0  0  0  0  0  0  0  0  0  0  0  0
   28.0400   52.3030   -4.5930 C   0  0  0  0  0  0  0  0  0  0  0  0
   28.3110   51.3990   -2.3990 N   0  0  0  0  0  0  0  0  0  0  0  0
   28.8150   52.5780   -2.0350 C   0  0  0  0  0  0  0  0  0  0  0  0
   28.5720   53.4810   -4.1240 C   0  0  0  0  0  0  0  0  0  0  0  0
   28.7400   54.6610   -5.0410 C   0  0  0  0  0  0  0  0  0  0  0  0
   29.2140   52.7180   -0.7220 N   0  0  0  0  0  0  0  0  0  0  0  0
   28.9660   53.6350   -2.8400 N   0  0  0  0  0  0  0  0  0  0  0  0
   29.0270   54.2320   -6.4880 C   0  0  0  0  0  0  0  0  0  0  0  0
   30.1870   53.2240   -6.6040 C   0  0  1  0  0  0  0  0  0  0  0  0
   29.7480   51.9640   -7.1920 N   0  0  0  0  0  0  0  0  0  0  0  0
   31.3350   53.8540   -7.3320 C   0  0  0  0  0  0  0  0  0  0  0  0
   32.5630   53.7420   -6.7370 O   0  0  0  0  0  0  0  0  0  0  0  0
   31.4490   54.5550   -8.5160 C   0  0  0  0  0  0  0  0  0  0  0  0
   30.0520   50.6800   -6.7680 C   0  0  0  0  0  0  0  0  0  0  0  0
   32.8170   54.8870   -8.6520 C   0  0  0  0  0  0  0  0  0  0  0  0
   33.4520   54.3720   -7.5460 C   0  0  0  0  0  0  0  0  0  0  0  0
   30.8540   50.4110   -5.6720 N   0  0  0  0  0  0  0  0  0  0  0  0
   29.5740   49.5960   -7.4110 C   0  0  0  0  0  0  0  0  0  0  0  0
   31.1320   49.1340   -5.2700 C   0  0  0  0  0  0  0  0  0  0  0  0
   29.9220   48.2590   -6.9230 C   0  0  0  0  0  0  0  0  0  0  0  0
   28.7720   49.4350   -8.5080 N   0  0  0  0  0  0  0  0  0  0  0  0
   30.7120   48.0460   -5.8320 N   0  0  0  0  0  0  0  0  0  0  0  0
   29.3660   47.3630   -7.6780 N   0  0  0  0  0  0  0  0  0  0  0  0
   28.6900   48.1360   -8.6140 C   0  0  0  0  0  0  0  0  0  0  0  0
  1  2  1  0
  2  3  2  0
  2  4  1  0
  4  5  2  0
  3  6  1  0
  6  7  1  0
  5  8  1  0
  5  9  1  0
  6  9  2  0
  7 10  1  0
 11 10  1  6
 11 12  1  0
 11 13  1  0
 13 14  1  0
 13 15  2  0
 12 16  1  0
 15 17  1  0
 14 18  1  0
 17 18  2  0
 16 19  1  0
 16 20  2  0
 19 21  1  0
 20 22  1  0
 20 23  1  0
 21 24  2  0
 22 24  1  0
 22 25  2  0
 23 26  2  0
 25 26  1  0
M  END
