mac-x0453-mac-x0415
     RDKit          3D

 24 26  0  0  0  0  0  0  0  0999 V2000
   29.3460   55.0270   -7.1080 N   0  0  0  0  0  0  0  0  0  0  0  0
   29.8570   53.8220   -6.4430 C   0  0  0  0  0  0  0  0  0  0  0  0
   28.7640   52.7830   -6.1460 C   0  0  0  0  0  0  0  0  0  0  0  0
   29.2540   51.6220   -5.3550 C   0  0  0  0  0  0  0  0  0  0  0  0
   29.2090   50.2800   -5.6550 C   0  0  0  0  0  0  0  0  0  0  0  0
   29.8520   51.8150   -4.1290 N   0  0  0  0  0  0  0  0  0  0  0  0
   29.7930   49.6530   -4.5940 N   0  0  0  0  0  0  0  0  0  0  0  0
   30.1700   50.6150   -3.6900 C   0  0  0  0  0  0  0  0  0  0  0  0
   30.8480   50.2900   -2.3990 C   0  0  0  0  0  0  0  0  0  0  0  0
   29.8720   49.7980   -1.3330 C   0  0  0  0  0  0  0  0  0  0  0  0
   30.3940   48.5920   -0.7580 O   0  0  0  0  0  0  0  0  0  0  0  0
   30.2300   47.4330   -1.4780 C   0  0  0  0  0  0  0  0  0  0  0  0
   29.3370   46.4710   -0.8140 C   0  0  0  0  0  0  0  0  0  0  0  0
   30.7860   47.1170   -2.6730 C   0  0  0  0  0  0  0  0  0  0  0  0
   30.4490   45.8270   -3.2160 C   0  0  0  0  0  0  0  0  0  0  0  0
   28.7610   45.4630   -1.5080 C   0  0  0  0  0  0  0  0  0  0  0  0
   31.1710   44.9510   -3.9130 C   0  0  0  0  0  0  0  0  0  0  0  0
   29.0540   45.3530   -2.9670 C   0  0  2  0  0  0  0  0  0  0  0  0
   32.5630   44.9340   -4.4130 C   0  0  0  0  0  0  0  0  0  0  0  0
   30.1910   43.8690   -4.0820 C   0  0  0  0  0  0  0  0  0  0  0  0
   28.9990   44.0090   -3.5720 N   0  0  0  0  0  0  0  0  0  0  0  0
   32.6510   45.5840   -5.7770 C   0  0  0  0  0  0  0  0  0  0  0  0
   33.7400   46.3720   -5.9440 O   0  0  0  0  0  0  0  0  0  0  0  0
   31.8270   45.4230   -6.6630 O   0  0  0  0  0  0  0  0  0  0  0  0
  1  2  1  0
  2  3  1  0
  3  4  1  0
  4  5  2  0
  4  6  1  0
  5  7  1  0
  6  8  2  0
  7  8  1  0
  8  9  1  0
  9 10  1  0
 10 11  1  0
 11 12  1  0
 12 13  1  0
 12 14  2  0
 14 15  1  0
 13 16  2  0
 15 17  2  0
 15 18  1  0
 18 16  1  1
 17 19  1  0
 17 20  1  0
 18 21  1  0
 20 21  2  0
 19 22  1  0
 22 23  1  0
 22 24  2  0
M  END
