mac-x0182-mac-x0228
     RDKit          3D

 25 28  0  0  0  0  0  0  0  0999 V2000
   34.3700   43.4220   -2.8790 O   0  0  0  0  0  0  0  0  0  0  0  0
   34.4640   44.6040   -3.1780 C   0  0  0  0  0  0  0  0  0  0  0  0
   33.5080   45.3470   -3.8320 N   0  0  0  0  0  0  0  0  0  0  0  0
   35.6530   45.4350   -2.8650 C   0  0  0  0  0  0  0  0  0  0  0  0
   34.1640   46.7790   -4.4290 S   0  0  2  0  0  0  0  0  0  0  0  0
   35.6160   46.6740   -3.4950 C   0  0  0  0  0  0  0  0  0  0  0  0
   36.7240   45.1050   -2.0500 C   0  0  0  0  0  0  0  0  0  0  0  0
   33.3360   47.9470   -3.8610 N   0  0  0  0  0  0  0  0  0  0  0  0
   34.4850   46.5140   -5.8090 O   0  0  0  0  0  0  0  0  0  0  0  0
   36.6060   47.6250   -3.3590 C   0  0  0  0  0  0  0  0  0  0  0  0
   37.7480   46.0480   -1.8890 C   0  0  0  0  0  0  0  0  0  0  0  0
   32.1130   47.6840   -3.0990 C   0  0  0  0  0  0  0  0  0  0  0  0
   37.6880   47.2990   -2.5410 C   0  0  0  0  0  0  0  0  0  0  0  0
   31.0870   47.2690   -4.0300 N   0  0  0  0  0  0  0  0  0  0  0  0
   30.2260   48.0810   -4.5420 C   0  0  0  0  0  0  0  0  0  0  0  0
   29.3120   47.6470   -5.4220 O   0  0  0  0  0  0  0  0  0  0  0  0
   30.0780   49.5470   -4.2930 C   0  0  0  0  0  0  0  0  0  0  0  0
   29.8270   50.3850   -5.3980 C   0  0  0  0  0  0  0  0  0  0  0  0
   30.1740   50.1100   -3.0000 C   0  0  0  0  0  0  0  0  0  0  0  0
   29.6780   51.7480   -5.1840 C   0  0  0  0  0  0  0  0  0  0  0  0
   30.0200   51.4920   -2.8060 C   0  0  0  0  0  0  0  0  0  0  0  0
   29.7740   52.2840   -3.9090 C   0  0  0  0  0  0  0  0  0  0  0  0
   29.4090   52.8390   -6.1490 C   0  0  0  0  0  0  0  0  0  0  0  0
   29.6000   53.6440   -3.8680 O   0  0  0  0  0  0  0  0  0  0  0  0
   29.7040   54.0440   -5.2560 C   0  0  0  0  0  0  0  0  0  0  0  0
  1  2  2  0
  2  3  1  0
  2  4  1  0
  5  3  1  1
  4  6  2  0
  5  6  1  0
  4  7  1  0
  5  8  2  0
  5  9  2  0
  6 10  1  0
  7 11  2  0
  8 12  1  0
 10 13  2  0
 11 13  1  0
 12 14  1  0
 14 15  2  3
 15 16  1  0
 15 17  1  0
 17 18  2  0
 17 19  1  0
 18 20  1  0
 19 21  2  0
 20 22  2  0
 21 22  1  0
 20 23  1  0
 22 24  1  0
 23 25  1  0
 24 25  1  0
M  END
