mac-x0365-mac-x0385
     RDKit          3D

 11 11  0  0  0  0  0  0  0  0999 V2000
   29.6950   47.5460   -5.8200 O   0  0  0  0  0  0  0  0  0  0  0  0
   30.0690   48.1540   -4.6820 C   0  0  0  0  0  0  0  0  0  0  0  0
   30.5720   47.5270   -3.7690 O   0  0  0  0  0  0  0  0  0  0  0  0
   29.8070   49.6150   -4.6760 C   0  0  0  0  0  0  0  0  0  0  0  0
   30.0260   50.3030   -3.4770 C   0  0  0  0  0  0  0  0  0  0  0  0
   29.3570   50.3170   -5.8100 C   0  0  0  0  0  0  0  0  0  0  0  0
   29.7980   51.6690   -3.4210 C   0  0  0  0  0  0  0  0  0  0  0  0
   29.1310   51.6970   -5.7390 C   0  0  0  0  0  0  0  0  0  0  0  0
   30.0060   52.3330   -2.2750 F   0  0  0  0  0  0  0  0  0  0  0  0
   29.3550   52.3670   -4.5410 C   0  0  0  0  0  0  0  0  0  0  0  0
   29.1330   53.7120   -4.4810 O   0  0  0  0  0  0  0  0  0  0  0  0
  1  2  1  0
  2  3  2  0
  2  4  1  0
  4  5  2  0
  4  6  1  0
  5  7  1  0
  6  8  2  0
  7  9  1  0
  7 10  2  0
  8 10  1  0
 10 11  1  0
M  END
