mac-x0510-mac-x0282
     RDKit          3D

 11 12  0  0  0  0  0  0  0  0999 V2000
   28.8850   53.2000   -5.7970 O   0  0  0  0  0  0  0  0  0  0  0  0
   28.9480   51.9770   -5.8990 C   0  0  0  0  0  0  0  0  0  0  0  0
   29.2700   51.1910   -4.8100 N   0  0  0  0  0  0  0  0  0  0  0  0
   28.7080   51.3300   -7.0870 N   0  0  0  0  0  0  0  0  0  0  0  0
   28.8070   49.9740   -7.1650 C   0  0  0  0  0  0  0  0  0  0  0  0
   29.3690   49.8140   -4.7930 C   0  0  0  0  0  0  0  0  0  0  0  0
   29.6360   49.1760   -3.7850 O   0  0  0  0  0  0  0  0  0  0  0  0
   29.1270   49.2370   -6.0670 C   0  0  0  0  0  0  0  0  0  0  0  0
   28.6230   49.2040   -8.2640 N   0  0  0  0  0  0  0  0  0  0  0  0
   29.1420   47.9420   -6.4960 N   0  0  0  0  0  0  0  0  0  0  0  0
   28.8280   47.9740   -7.8340 C   0  0  0  0  0  0  0  0  0  0  0  0
  1  2  2  0
  2  3  1  0
  2  4  1  0
  4  5  1  0
  3  6  1  0
  6  7  2  0
  5  8  2  0
  6  8  1  0
  5  9  1  0
  8 10  1  0
  9 11  2  0
 10 11  1  0
M  END
