mac-x0139-mac-x0394
     RDKit          3D

 28 30  0  0  0  0  0  0  0  0999 V2000
   30.3580   47.5290   -4.3170 C   0  0  0  0  0  0  0  0  0  0  0  0
   30.0370   46.7460   -5.5020 N   0  0  0  0  0  0  0  0  0  0  0  0
   30.4420   45.3310   -5.5200 C   0  0  0  0  0  0  0  0  0  0  0  0
   29.5340   47.3170   -6.6730 C   0  0  0  0  0  0  0  0  0  0  0  0
   31.9570   45.1550   -5.4830 C   0  0  0  0  0  0  0  0  0  0  0  0
   29.1830   48.6170   -6.7180 C   0  0  0  0  0  0  0  0  0  0  0  0
   29.3880   46.4980   -7.7960 N   0  0  0  0  0  0  0  0  0  0  0  0
   32.5480   44.9450   -6.8530 C   0  0  0  0  0  0  0  0  0  0  0  0
   28.6580   49.1490   -7.9880 C   0  0  0  0  0  0  0  0  0  0  0  0
   28.9340   47.0210   -8.8890 C   0  0  0  0  0  0  0  0  0  0  0  0
   29.1580   49.7300   -5.8340 C   0  0  0  0  0  0  0  0  0  0  0  0
   31.9450   44.6140   -7.8580 O   0  0  0  0  0  0  0  0  0  0  0  0
   33.8790   45.1680   -6.8760 O   0  0  0  0  0  0  0  0  0  0  0  0
   28.5780   48.3170   -9.0490 N   0  0  0  0  0  0  0  0  0  0  0  0
   28.3290   50.3940   -7.8880 N   0  0  0  0  0  0  0  0  0  0  0  0
   28.6270   50.7230   -6.5690 C   0  0  0  0  0  0  0  0  0  0  0  0
   28.3180   52.1180   -6.1600 C   0  0  1  0  0  0  0  0  0  0  0  0
   28.1620   52.9980   -7.4140 C   0  0  0  0  0  0  0  0  0  0  0  0
   27.1270   52.2050   -5.2090 C   0  0  0  0  0  0  0  0  0  0  0  0
   29.2220   53.8210   -7.6140 O   0  0  0  0  0  0  0  0  0  0  0  0
   27.2120   52.9970   -8.1920 O   0  0  0  0  0  0  0  0  0  0  0  0
   26.9750   53.3270   -4.3910 C   0  0  0  0  0  0  0  0  0  0  0  0
   26.1600   51.1780   -5.1260 C   0  0  0  0  0  0  0  0  0  0  0  0
   25.8970   53.4330   -3.5190 C   0  0  0  0  0  0  0  0  0  0  0  0
   25.0780   51.2990   -4.2410 C   0  0  0  0  0  0  0  0  0  0  0  0
   23.8950   50.0530   -4.1370 Cl  0  0  0  0  0  0  0  0  0  0  0  0
   25.7570   54.8360   -2.5370 Cl  0  0  0  0  0  0  0  0  0  0  0  0
   24.9440   52.4250   -3.4360 C   0  0  0  0  0  0  0  0  0  0  0  0
  1  2  1  0
  2  3  1  0
  2  4  1  0
  3  5  1  0
  4  6  2  0
  4  7  1  0
  5  8  1  0
  6  9  1  0
  7 10  2  0
  6 11  1  0
  8 12  2  0
  8 13  1  0
  9 14  1  0
 10 14  1  0
  9 15  2  0
 11 16  2  0
 15 16  1  0
 16 17  1  0
 17 18  1  6
 17 19  1  0
 18 20  1  0
 18 21  2  0
 19 22  2  0
 19 23  1  0
 22 24  1  0
 23 25  2  0
 25 26  1  0
 24 27  1  0
 24 28  2  0
 25 28  1  0
M  END
