mac-x0224-mac-x0344
     RDKit          3D

 22 23  0  0  0  0  0  0  0  0999 V2000
   28.7540   52.5160   -5.9830 C   0  0  0  0  0  0  0  0  0  0  0  0
   28.5800   50.8890   -6.7670 S   0  0  0  0  0  0  0  0  0  0  0  0
   29.2940   49.8360   -5.5150 C   0  0  0  0  0  0  0  0  0  0  0  0
   29.7430   48.5680   -5.8920 C   0  0  0  0  0  0  0  0  0  0  0  0
   29.4170   50.2420   -4.1820 C   0  0  0  0  0  0  0  0  0  0  0  0
   30.3110   47.7040   -4.9430 C   0  0  0  0  0  0  0  0  0  0  0  0
   29.9830   49.3840   -3.2300 C   0  0  0  0  0  0  0  0  0  0  0  0
   30.7740   46.3660   -5.3940 C   0  0  0  0  0  0  0  0  0  0  0  0
   30.4270   48.1190   -3.6120 C   0  0  0  0  0  0  0  0  0  0  0  0
   30.9720   47.2860   -2.6770 O   0  0  0  0  0  0  0  0  0  0  0  0
   30.2780   45.8500   -6.4000 O   0  0  0  0  0  0  0  0  0  0  0  0
   31.7880   45.7110   -4.6660 N   0  0  0  0  0  0  0  0  0  0  0  0
   31.4620   44.3290   -4.4770 O   0  0  0  0  0  0  0  0  0  0  0  0
   33.1700   45.9460   -4.7550 C   0  0  0  0  0  0  0  0  0  0  0  0
   33.7270   46.4310   -5.7470 O   0  0  0  0  0  0  0  0  0  0  0  0
   33.9900   45.6250   -3.6940 N   0  0  0  0  0  0  0  0  0  0  0  0
   35.1750   46.2010   -3.1870 C   0  0  0  0  0  0  0  0  0  0  0  0
   36.1860   45.4870   -2.5370 C   0  0  0  0  0  0  0  0  0  0  0  0
   35.3400   47.5870   -3.3500 C   0  0  0  0  0  0  0  0  0  0  0  0
   37.3320   46.1330   -2.0610 C   0  0  0  0  0  0  0  0  0  0  0  0
   36.4850   48.2350   -2.8740 C   0  0  0  0  0  0  0  0  0  0  0  0
   37.4800   47.5080   -2.2300 C   0  0  0  0  0  0  0  0  0  0  0  0
  1  2  1  0
  2  3  1  0
  3  4  2  0
  3  5  1  0
  4  6  1  0
  5  7  2  0
  6  8  1  0
  6  9  2  0
  7  9  1  0
  9 10  1  0
  8 11  2  0
  8 12  1  0
 12 13  1  0
 12 14  1  0
 14 15  2  0
 14 16  1  0
 16 17  1  0
 17 18  2  0
 17 19  1  0
 18 20  1  0
 19 21  2  0
 20 22  2  0
 21 22  1  0
M  END
