mac-x0433-mac-x0587
     RDKit          3D

 26 27  0  0  0  0  0  0  0  0999 V2000
   27.0370   51.6390   -5.3940 C   0  0  0  0  0  0  0  0  0  0  0  0
   28.1470   52.3230   -4.6530 C   0  0  0  0  0  0  0  0  0  0  0  0
   28.6660   53.5110   -5.1170 C   0  0  0  0  0  0  0  0  0  0  0  0
   28.6000   51.7250   -3.5360 N   0  0  0  0  0  0  0  0  0  0  0  0
   29.5950   52.3270   -2.8720 C   0  0  0  0  0  0  0  0  0  0  0  0
   29.6850   54.0630   -4.3700 C   0  0  0  0  0  0  0  0  0  0  0  0
   30.3130   55.3580   -4.7900 C   0  0  0  0  0  0  0  0  0  0  0  0
   30.0270   51.6630   -1.7310 N   0  0  0  0  0  0  0  0  0  0  0  0
   30.1590   53.4810   -3.2490 N   0  0  0  0  0  0  0  0  0  0  0  0
   30.5940   50.3430   -1.9980 C   0  0  0  0  0  0  0  0  0  0  0  0
   29.4760   49.2810   -2.0280 C   0  0  0  0  0  0  0  0  0  0  0  0
   29.9480   48.0570   -2.6430 N   0  0  0  0  0  0  0  0  0  0  0  0
   30.0850   47.7010   -3.8690 C   0  0  0  0  0  0  0  0  0  0  0  0
   30.6370   46.2570   -4.0740 C   0  0  2  0  0  0  0  0  0  0  0  0
   29.8010   48.4330   -5.0310 N   0  0  0  0  0  0  0  0  0  0  0  0
   29.9530   45.2220   -3.1760 C   0  0  0  0  0  0  0  0  0  0  0  0
   32.4420   46.2960   -3.6560 S   0  0  0  0  0  0  0  0  0  0  0  0
   30.4480   49.6800   -5.4130 C   0  0  0  0  0  0  0  0  0  0  0  0
   29.0250   48.0060   -6.1510 C   0  0  0  0  0  0  0  0  0  0  0  0
   33.1020   46.7390   -5.3040 C   0  0  0  0  0  0  0  0  0  0  0  0
   28.1950   47.1150   -6.2340 O   0  0  0  0  0  0  0  0  0  0  0  0
   29.9220   50.0240   -6.7950 C   0  0  0  0  0  0  0  0  0  0  0  0
   29.3530   48.7980   -7.2420 N   0  0  0  0  0  0  0  0  0  0  0  0
   33.8830   45.6060   -5.9440 C   0  0  0  0  0  0  0  0  0  0  0  0
   35.0700   45.6960   -6.2370 O   0  0  0  0  0  0  0  0  0  0  0  0
   33.1810   44.4700   -6.1690 O   0  0  0  0  0  0  0  0  0  0  0  0
  1  2  1  0
  2  3  2  0
  2  4  1  0
  4  5  2  0
  3  6  1  0
  6  7  1  0
  5  8  1  0
  5  9  1  0
  6  9  2  0
  8 10  1  0
 10 11  1  0
 11 12  1  0
 12 13  2  3
 13 14  1  0
 13 15  1  0
 14 16  1  1
 14 17  1  0
 15 18  1  0
 15 19  1  0
 17 20  1  0
 19 21  2  0
 18 22  1  0
 19 23  1  0
 22 23  1  0
 20 24  1  0
 24 25  2  0
 24 26  1  0
M  END
