mArh-x0142_0_A_Î²
     RDKit          3D

  9  9  0  0  0  0  0  0  0  0999 V2000
   14.7820    6.9580   12.1250 N   0  0  0  0  0  0  0  0  0  0  0  0
   14.9320    8.2740   12.6140 C   0  0  0  0  0  0  0  0  0  0  0  0
   15.5200    9.3110   11.8970 C   0  0  0  0  0  0  0  0  0  0  0  0
   14.5260    8.4920   13.9270 C   0  0  0  0  0  0  0  0  0  0  0  0
   15.6970   10.5530   12.4840 C   0  0  0  0  0  0  0  0  0  0  0  0
   14.7150    9.7260   14.5200 C   0  0  0  0  0  0  0  0  0  0  0  0
   15.3090   10.7550   13.8010 C   0  0  0  0  0  0  0  0  0  0  0  0
   15.6190   11.9740   14.3510 O   0  0  0  0  0  0  0  0  0  0  0  0
   15.3370   12.1910   15.7360 C   0  0  0  0  0  0  0  0  0  0  0  0
  1  2  1  0
  2  3  2  0
  2  4  1  0
  5  3  1  0
  6  4  2  0
  7  5  2  0
  7  6  1  0
  8  7  1  0
  9  8  1  0
M  END
