mArh-6fx_7_0A_Î±
     RDKit          3D

  9  9  0  0  0  0  0  0  0  0999 V2000
   -1.7500   22.1560   -8.2000 C   0  0  0  0  0  0  0  0  0  0  0  0
   -3.0710   22.7530   -8.6090 C   0  0  1  0  0  0  0  0  0  0  0  0
   -2.9970   23.1630   -9.9950 O   0  0  0  0  0  0  0  0  0  0  0  0
   -4.2860   21.8300   -8.4930 C   0  0  2  0  0  0  0  0  0  0  0  0
   -3.9950   22.4670  -10.7360 C   0  0  1  0  0  0  0  0  0  0  0  0
   -5.1040   22.2040   -9.7300 C   0  0  2  0  0  0  0  0  0  0  0  0
   -4.9950   22.0280   -7.2780 O   0  0  0  0  0  0  0  0  0  0  0  0
   -4.4710   23.2450  -11.7940 O   0  0  0  0  0  0  0  0  0  0  0  0
   -5.8710   23.3820   -9.4940 O   0  0  0  0  0  0  0  0  0  0  0  0
  2  1  1  6
  3  2  1  0
  4  2  1  0
  5  3  1  0
  6  4  1  0
  4  7  1  1
  5  8  1  6
  5  6  1  0
  6  9  1  1
M  END
