mArh-x0805_0_A_β-6FX7_0_A_γ
     RDKit          3D

 12 12  0  0  0  0  0  0  0  0999 V2000
    0.4290   12.1110   -2.5710 C   0  0  0  0  0  0  0  0  0  0  0  0
    0.2840   10.9260   -3.2140 O   0  0  0  0  0  0  0  0  0  0  0  0
    0.3840   12.2270   -1.3580 O   0  0  0  0  0  0  0  0  0  0  0  0
    0.6360   13.3090   -3.4480 C   0  0  2  0  0  0  0  0  0  0  0  0
   -0.5740   13.8550   -4.1320 C   0  0  1  0  0  0  0  0  0  0  0  0
    1.6620   13.3100   -4.5320 C   0  0  1  0  0  0  0  0  0  0  0  0
   -1.7780   13.3160   -3.5620 O   0  0  0  0  0  0  0  0  0  0  0  0
    1.1000   12.8260   -5.7380 O   0  0  0  0  0  0  0  0  0  0  0  0
    1.9770   14.6900   -4.7600 O   0  0  0  0  0  0  0  0  0  0  0  0
   -0.3860   15.3420   -3.9440 C   0  0  0  0  0  0  0  0  0  0  0  0
    1.0540   15.7470   -4.3320 C   0  0  2  0  0  0  0  0  0  0  0  0
    0.9440   16.8310   -5.4020 C   0  0  0  0  0  0  0  0  0  0  0  0
  1  2  1  0
  1  3  2  0
  4  1  1  6
  4  5  1  0
  4  6  1  0
  5  7  1  1
  6  8  1  6
  6  9  1  0
  5 10  1  0
  9 11  1  0
 10 11  1  0
 11 12  1  6
M  END
