mArh-2fav_B_0_B_Î´
     RDKit          3D

 10 11  0  0  0  0  0  0  0  0999 V2000
   -1.3280   14.5660   -2.3020 N   0  0  0  0  0  0  0  0  0  0  0  0
   -1.3300   14.4850   -0.9730 C   0  0  0  0  0  0  0  0  0  0  0  0
   -2.5450   14.9810   -2.7420 C   0  0  0  0  0  0  0  0  0  0  0  0
   -0.3580   14.1460   -0.0580 N   0  0  0  0  0  0  0  0  0  0  0  0
   -2.6890   14.8410   -0.5660 C   0  0  0  0  0  0  0  0  0  0  0  0
   -3.3930   15.1500   -1.7000 N   0  0  0  0  0  0  0  0  0  0  0  0
   -0.6710   14.1360    1.2610 C   0  0  0  0  0  0  0  0  0  0  0  0
   -2.9430   14.7950    0.8780 C   0  0  0  0  0  0  0  0  0  0  0  0
   -1.9210   14.4250    1.6900 N   0  0  0  0  0  0  0  0  0  0  0  0
   -4.1700   15.1260    1.3600 N   0  0  0  0  0  0  0  0  0  0  0  0
  1  2  1  0
  1  3  1  0
  4  2  1  0
  2  5  1  0
  6  3  1  0
  7  4  1  0
  8  5  1  0
  5  6  1  0
  9  7  1  0
  9  8  1  0
  8 10  1  0
M  END
