mArh-5cb5_K_0_K_γ-5CB5_0_N_γ
     RDKit          3D

  8  8  0  0  0  0  0  0  0  0999 V2000
   -0.4170   12.3660   -3.8370 O   0  0  0  0  0  0  0  0  0  0  0  0
   -0.9080   13.6680   -4.1660 C   0  0  1  0  0  0  0  0  0  0  0  0
   -0.8300   14.6130   -2.9710 C   0  0  0  0  0  0  0  0  0  0  0  0
    0.0240   14.3180   -5.1660 C   0  0  2  0  0  0  0  0  0  0  0  0
    1.3520   13.8380   -5.0160 O   0  0  0  0  0  0  0  0  0  0  0  0
   -0.3010   15.8720   -3.4450 O   0  0  0  0  0  0  0  0  0  0  0  0
   -0.2240   15.8030   -4.8700 C   0  0  1  0  0  0  0  0  0  0  0  0
    0.7890   16.8130   -5.3880 C   0  0  0  0  0  0  0  0  0  0  0  0
  2  1  1  1
  2  3  1  0
  2  4  1  0
  4  5  1  1
  3  6  1  0
  4  7  1  0
  6  7  1  0
  7  8  1  1
M  END
