mArh-5l9k_B_0_B_α-mArh-5cms_R_17_R_γ
     RDKit          3D

 21 22  0  0  0  0  0  0  0  0999 V2000
   -2.1330   21.9420   -8.2770 C   0  0  0  0  0  0  0  0  0  0  0  0
   -3.6490   21.9290   -8.4550 C   0  0  1  0  0  0  0  0  0  0  0  0
   -4.3240   21.1120   -7.4480 N   0  0  0  0  0  0  0  0  0  0  0  0
   -4.2030   23.3670   -8.3040 C   0  0  1  0  0  0  0  0  0  0  0  0
   -4.5490   24.0260   -9.5140 O   0  0  0  0  0  0  0  0  0  0  0  0
   -3.4510   20.7500   -6.3000 C   0  0  0  0  0  0  0  0  0  0  0  0
   -5.6190   21.7490   -7.1390 C   0  0  1  0  0  0  0  0  0  0  0  0
   -5.4930   23.2390   -7.5120 C   0  0  1  0  0  0  0  0  0  0  0  0
   -6.6990   21.2130   -7.9180 O   0  0  0  0  0  0  0  0  0  0  0  0
   -5.5180   24.1080   -6.3710 O   0  0  0  0  0  0  0  0  0  0  0  0
   -2.3870   19.6000   -6.5000 C   0  0  0  0  0  0  0  0  0  0  0  0
   -1.8430   18.9130   -5.2090 C   0  0  0  0  0  0  0  0  0  0  0  0
   -0.3720   18.4240   -5.1360 C   0  0  0  0  0  0  0  0  0  0  0  0
   -0.1910   16.9890   -5.6570 C   0  0  0  0  0  0  0  0  0  0  0  0
    0.6440   15.9940   -4.7960 C   0  0  1  0  0  0  0  0  0  0  0  0
    0.2300   16.0750   -3.4200 O   0  0  0  0  0  0  0  0  0  0  0  0
    0.5210   14.4940   -5.1960 C   0  0  1  0  0  0  0  0  0  0  0  0
    1.7330   13.7780   -5.3710 O   0  0  0  0  0  0  0  0  0  0  0  0
    0.0920   14.7440   -2.9080 C   0  0  0  0  0  0  0  0  0  0  0  0
   -0.2980   13.8720   -4.0790 C   0  0  2  0  0  0  0  0  0  0  0  0
    0.0300   12.4950   -3.9070 O   0  0  0  0  0  0  0  0  0  0  0  0
  2  1  1  1
  2  3  1  0
  2  4  1  0
  4  5  1  6
  3  6  1  0
  3  7  1  0
  4  8  1  0
  7  8  1  0
  7  9  1  6
  8 10  1  1
  6 11  1  0
 11 12  1  0
 12 13  1  0
 13 14  1  0
 15 14  1  6
 15 16  1  0
 15 17  1  0
 17 18  1  1
 16 19  1  0
 17 20  1  0
 19 20  1  0
 20 21  1  1
M  END
