mArh-5cms_A_0_A_Î²
     RDKit          3D

  9  8  0  0  0  0  0  0  0  0999 V2000
   -1.7340   19.9950   -8.7660 O   0  0  0  0  0  0  0  0  0  0  0  0
   -0.3320   19.4120   -8.2330 P   0  0  2  0  0  0  0  0  0  0  0  0
   -0.8210   18.8670   -6.7720 O   0  0  0  0  0  0  0  0  0  0  0  0
    0.6530   20.5380   -7.9990 O   0  0  0  0  0  0  0  0  0  0  0  0
    0.0770   18.2360   -9.1130 O   0  0  0  0  0  0  0  0  0  0  0  0
   -2.0950   17.9200   -6.3180 P   0  0  2  0  0  0  0  0  0  0  0  0
   -1.4040   16.8410   -5.3590 O   0  0  0  0  0  0  0  0  0  0  0  0
   -2.6740   17.1360   -7.4790 O   0  0  0  0  0  0  0  0  0  0  0  0
   -3.0060   18.7780   -5.4580 O   0  0  0  0  0  0  0  0  0  0  0  0
  2  1  1  6
  3  2  1  0
  2  4  2  0
  2  5  1  0
  6  3  1  0
  6  7  1  1
  6  8  2  0
  6  9  1  0
M  END
