mArh-EU0144_0_A_α-5CMS_0_E_β
     RDKit          3D

 20 20  0  0  0  0  0  0  0  0999 V2000
   -8.2960   14.3710    0.7160 C   0  0  0  0  0  0  0  0  0  0  0  0
   -6.8600   14.6220    0.4730 C   0  0  0  0  0  0  0  0  0  0  0  0
   -6.2480   14.5910   -0.7450 N   0  0  0  0  0  0  0  0  0  0  0  0
   -5.9440   14.9160    1.3750 O   0  0  0  0  0  0  0  0  0  0  0  0
   -4.7710   15.0780    0.7680 C   0  0  0  0  0  0  0  0  0  0  0  0
   -4.9320   14.8770   -0.5920 C   0  0  0  0  0  0  0  0  0  0  0  0
   -3.5360   15.4030    1.3780 N   0  0  0  0  0  0  0  0  0  0  0  0
   -3.9480   14.9430   -1.6520 C   0  0  0  0  0  0  0  0  0  0  0  0
   -3.0860   14.9890   -2.5150 C   0  0  0  0  0  0  0  0  0  0  0  0
   -1.9950   15.0280   -3.5220 C   0  0  0  0  0  0  0  0  0  0  0  0
   -2.3230   15.9610   -4.7070 C   0  0  0  0  0  0  0  0  0  0  0  0
   -1.2280   16.6610   -5.2010 O   0  0  0  0  0  0  0  0  0  0  0  0
   -1.7870   17.8860   -6.1550 P   0  0  0  0  0  0  0  0  0  0  0  0
   -0.4560   18.6440   -6.1910 O   0  0  0  0  0  0  0  0  0  0  0  0
   -3.1080   17.1230   -6.2930 O   0  0  0  0  0  0  0  0  0  0  0  0
   -2.4350   19.1760   -5.3640 O   0  0  0  0  0  0  0  0  0  0  0  0
   -0.0770   19.4180   -7.6160 P   0  0  0  0  0  0  0  0  0  0  0  0
   -1.5050   19.9100   -7.8580 O   0  0  0  0  0  0  0  0  0  0  0  0
    0.4690   20.9670   -7.6590 O   0  0  0  0  0  0  0  0  0  0  0  0
    0.0440   18.5250   -8.9570 O   0  0  0  0  0  0  0  0  0  0  0  0
  1  2  1  0
  2  3  2  0
  2  4  1  0
  4  5  1  0
  3  6  1  0
  5  6  2  0
  5  7  1  0
  6  8  1  0
  8  9  3  0
  9 10  1  0
 10 11  1  0
 11 12  1  0
 12 13  1  0
 13 14  1  0
 13 15  1  0
 13 16  1  0
 14 17  1  0
 17 18  1  0
 17 19  1  0
 17 20  1  0
M  CHG  2  15  -1  19  -1
M  END
