mArh-EU0293_0_A_Î±
     RDKit          3D

 11 12  0  0  0  0  0  0  0  0999 V2000
   -0.3430   14.3000   -0.5510 C   0  0  0  0  0  0  0  0  0  0  0  0
    0.7450   14.0630   -1.3250 N   0  0  0  0  0  0  0  0  0  0  0  0
   -5.0880   14.4970    0.0510 O   0  0  0  0  0  0  0  0  0  0  0  0
   -1.5950   14.4510   -1.1430 C   0  0  0  0  0  0  0  0  0  0  0  0
   -1.3210   14.5300    1.6470 N   0  0  0  0  0  0  0  0  0  0  0  0
   -2.7140   14.6300   -0.3340 C   0  0  0  0  0  0  0  0  0  0  0  0
   -4.0860   14.7760   -0.9250 C   0  0  0  0  0  0  0  0  0  0  0  0
   -4.9280   15.3200    1.2030 C   0  0  0  0  0  0  0  0  0  0  0  0
   -3.6970   14.9060    1.9770 C   0  0  0  0  0  0  0  0  0  0  0  0
   -2.5260   14.7010    1.0540 C   0  0  0  0  0  0  0  0  0  0  0  0
   -0.2450   14.3880    0.8550 C   0  0  0  0  0  0  0  0  0  0  0  0
  1  2  1  0
  1  4  2  0
  1 11  1  0
  4  6  1  0
 11  5  2  0
  3  7  1  0
  3  8  1  0
  7  6  1  0
  8  9  1  0
  6 10  2  0
  5 10  1  0
 10  9  1  0
M  END
