mArh-EU0144_0_A_α-6WOJ_0_D_α
     RDKit          3D

 23 24  0  0  0  0  0  0  0  0999 V2000
   -8.2500   14.3820    0.5490 C   0  0  0  0  0  0  0  0  0  0  0  0
   -6.8420   14.6530    0.1960 C   0  0  0  0  0  0  0  0  0  0  0  0
   -6.2710   14.7650   -0.9890 N   0  0  0  0  0  0  0  0  0  0  0  0
   -5.9980   14.8190    1.2510 O   0  0  0  0  0  0  0  0  0  0  0  0
   -4.7850   15.0580    0.6820 C   0  0  0  0  0  0  0  0  0  0  0  0
   -4.9510   15.0300   -0.6910 C   0  0  0  0  0  0  0  0  0  0  0  0
   -3.7870   15.2500    1.5560 N   0  0  0  0  0  0  0  0  0  0  0  0
   -3.9700   15.2370   -1.7210 C   0  0  0  0  0  0  0  0  0  0  0  0
   -3.1160   15.4750   -2.5650 C   0  0  0  0  0  0  0  0  0  0  0  0
   -2.0100   15.8030   -3.5200 C   0  0  0  0  0  0  0  0  0  0  0  0
   -2.3970   16.4800   -4.8650 C   0  0  0  0  0  0  0  0  0  0  0  0
   -1.6840   17.8330   -5.2060 C   0  0  0  0  0  0  0  0  0  0  0  0
   -2.3810   18.8320   -6.1770 C   0  0  0  0  0  0  0  0  0  0  0  0
   -2.6810   20.1740   -5.4600 C   0  0  0  0  0  0  0  0  0  0  0  0
   -3.9650   20.8100   -5.7300 O   0  0  0  0  0  0  0  0  0  0  0  0
   -3.5800   21.7830   -6.6680 C   0  0  1  0  0  0  0  0  0  0  0  0
   -3.9030   21.3250   -7.9390 O   0  0  0  0  0  0  0  0  0  0  0  0
   -4.0510   23.2520   -6.6880 C   0  0  2  0  0  0  0  0  0  0  0  0
   -5.4300   23.5980   -6.5530 O   0  0  0  0  0  0  0  0  0  0  0  0
   -3.0080   22.1840   -8.5830 C   0  0  1  0  0  0  0  0  0  0  0  0
   -3.4870   23.5670   -8.0960 C   0  0  1  0  0  0  0  0  0  0  0  0
   -1.6030   21.7660   -8.1440 C   0  0  0  0  0  0  0  0  0  0  0  0
   -4.4670   24.1270   -8.9590 O   0  0  0  0  0  0  0  0  0  0  0  0
  1  2  1  0
  2  3  2  0
  2  4  1  0
  4  5  1  0
  3  6  1  0
  5  6  2  0
  5  7  1  0
  6  8  1  0
  8  9  3  0
  9 10  1  0
 10 11  1  0
 11 12  1  0
 12 13  1  0
 13 14  1  0
 14 15  1  0
 16 15  1  1
 16 17  1  0
 16 18  1  0
 18 19  1  6
 17 20  1  0
 18 21  1  0
 20 21  1  0
 20 22  1  1
 21 23  1  6
M  END
