mArh-5cb3_0_A_α-6WOJ_0_D_α
     RDKit          3D

  9  9  0  0  0  0  0  0  0  0999 V2000
   -1.9790   21.9490   -8.1640 C   0  0  0  0  0  0  0  0  0  0  0  0
   -3.4490   22.0850   -8.5240 C   0  0  1  0  0  0  0  0  0  0  0  0
   -4.1670   21.3100   -7.5740 O   0  0  0  0  0  0  0  0  0  0  0  0
   -4.0040   23.5070   -8.4280 C   0  0  1  0  0  0  0  0  0  0  0  0
   -4.3610   24.0490   -9.6900 O   0  0  0  0  0  0  0  0  0  0  0  0
   -5.4340   21.9010   -7.3610 C   0  0  2  0  0  0  0  0  0  0  0  0
   -5.2930   23.3920   -7.6090 C   0  0  1  0  0  0  0  0  0  0  0  0
   -5.8090   21.6460   -6.0040 O   0  0  0  0  0  0  0  0  0  0  0  0
   -5.3320   24.1810   -6.4270 O   0  0  0  0  0  0  0  0  0  0  0  0
  2  1  1  1
  2  3  1  0
  2  4  1  0
  4  5  1  6
  3  6  1  0
  4  7  1  0
  6  7  1  0
  6  8  1  1
  7  9  1  1
M  END
