mArh-5cms_E_5_E_γ-mArh-x0742_0_A_α
     RDKit          3D

 25 28  0  0  0  0  0  0  0  0999 V2000
   -1.0620   11.9870   -4.5460 O   0  0  0  0  0  0  0  0  0  0  0  0
   -1.1160   13.4010   -4.6220 C   0  0  1  0  0  0  0  0  0  0  0  0
   -1.1220   14.1120   -3.2710 C   0  0  2  0  0  0  0  0  0  0  0  0
    0.0950   14.0080   -5.2960 C   0  0  2  0  0  0  0  0  0  0  0  0
    1.2860   13.3570   -4.8730 O   0  0  0  0  0  0  0  0  0  0  0  0
   -0.2760   15.2790   -3.3930 O   0  0  0  0  0  0  0  0  0  0  0  0
   -0.1030   15.4380   -4.8020 C   0  0  1  0  0  0  0  0  0  0  0  0
   -0.7400   13.2370   -2.0920 C   0  0  0  0  0  0  0  0  0  0  0  0
    1.0040   16.4070   -5.1070 C   0  0  0  0  0  0  0  0  0  0  0  0
   -1.0870   13.7430   -0.7300 C   0  0  0  0  0  0  0  0  0  0  0  0
   -0.0110   13.9070    0.1340 C   0  0  0  0  0  0  0  0  0  0  0  0
   -2.3850   14.0520   -0.2670 C   0  0  0  0  0  0  0  0  0  0  0  0
   -3.6740   13.9330   -1.0810 C   0  0  1  0  0  0  0  0  0  0  0  0
   -0.2330   14.3520    1.4090 C   0  0  0  0  0  0  0  0  0  0  0  0
   -2.4740   14.4990    1.0550 C   0  0  0  0  0  0  0  0  0  0  0  0
   -4.9390   13.5670   -0.2310 C   0  0  1  0  0  0  0  0  0  0  0  0
   -4.0400   15.2190   -1.8460 C   0  0  0  0  0  0  0  0  0  0  0  0
   -1.4330   14.6470    1.8780 N   0  0  0  0  0  0  0  0  0  0  0  0
   -3.7970   14.8410    1.6290 C   0  0  0  0  0  0  0  0  0  0  0  0
   -5.4450   12.1540   -0.5180 C   0  0  0  0  0  0  0  0  0  0  0  0
   -4.7530   13.7190    1.2880 C   0  0  0  0  0  0  0  0  0  0  0  0
   -6.0380   14.5280   -0.7190 C   0  0  0  0  0  0  0  0  0  0  0  0
   -5.3330   15.7430   -1.2470 C   0  0  0  0  0  0  0  0  0  0  0  0
   -4.9860   11.4730   -1.4380 O   0  0  0  0  0  0  0  0  0  0  0  0
   -6.5530   11.6250    0.3540 C   0  0  0  0  0  0  0  0  0  0  0  0
  2  1  1  1
  2  3  1  0
  2  4  1  0
  4  5  1  1
  3  6  1  0
  4  7  1  0
  6  7  1  0
  3  8  1  1
  7  9  1  1
  8 10  1  0
 10 11  2  0
 10 12  1  0
 12 13  1  0
 11 14  1  0
 12 15  2  0
 13 16  1  0
 13 17  1  1
 14 18  2  0
 15 18  1  0
 15 19  1  0
 16 20  1  1
 16 21  1  0
 19 21  1  0
 16 22  1  0
 17 23  1  0
 22 23  1  0
 20 24  2  0
 20 25  1  0
M  END
