mArh-EU0238_0_A_Î±
     RDKit          3D

 10 10  0  0  0  0  0  0  0  0999 V2000
   -6.3420   14.4190    1.5370 C   0  0  0  0  0  0  0  0  0  0  0  0
   -7.4970   14.3760    0.6190 N   0  0  0  0  0  0  0  0  0  0  0  0
   -5.0280   14.5280   -0.4590 O   0  0  0  0  0  0  0  0  0  0  0  0
   -2.3280   14.6740   -0.7250 S   0  0  0  0  0  0  0  0  0  0  0  0
   -5.0530   14.5290    0.7590 C   0  0  0  0  0  0  0  0  0  0  0  0
   -3.9220   14.6390    1.5090 N   0  0  0  0  0  0  0  0  0  0  0  0
   -2.6470   14.6400    0.9800 C   0  0  0  0  0  0  0  0  0  0  0  0
   -1.5920   14.5590    1.7520 N   0  0  0  0  0  0  0  0  0  0  0  0
   -0.4520   14.6750    0.9810 C   0  0  0  0  0  0  0  0  0  0  0  0
   -0.6560   14.8450   -0.3350 C   0  0  0  0  0  0  0  0  0  0  0  0
  1  2  1  0
  1  5  1  0
  5  3  2  0
  5  6  1  0
  4  7  1  0
  4 10  1  0
  7  6  1  0
  7  8  2  0
 10  9  2  0
  8  9  1  0
M  END
