
     RDKit          3D

 11 12  0  0  0  0  0  0  0  0999 V2000
   -3.6050   14.9830   -1.0290 C   0  0  0  0  0  0  0  0  0  0  0  0
   -4.6050   15.1520   -0.1000 N   0  0  0  0  0  0  0  0  0  0  0  0
   -3.8520   15.0920   -2.2270 O   0  0  0  0  0  0  0  0  0  0  0  0
   -4.3680   15.1330    1.2300 C   0  0  0  0  0  0  0  0  0  0  0  0
   -3.2140   14.9280    1.7590 N   0  0  0  0  0  0  0  0  0  0  0  0
   -2.1180   14.7510    0.9120 C   0  0  0  0  0  0  0  0  0  0  0  0
   -2.2680   14.7670   -0.4940 C   0  0  0  0  0  0  0  0  0  0  0  0
   -1.1510   14.5620   -1.3420 C   0  0  0  0  0  0  0  0  0  0  0  0
    0.0790   14.3530   -0.7750 C   0  0  0  0  0  0  0  0  0  0  0  0
    0.2260   14.4000    0.6240 C   0  0  0  0  0  0  0  0  0  0  0  0
   -0.8560   14.4880    1.4520 C   0  0  0  0  0  0  0  0  0  0  0  0
  1  2  1  0
  1  3  2  0
  1  7  1  0
  2  4  1  0
  7  6  2  0
  7  8  1  0
  4  5  2  0
  5  6  1  0
  6 11  1  0
 11 10  2  0
  8  9  2  0
  9 10  1  0
M  END
