mArh-5cb5_L_0_L_β-mArh-6woj_D_0_D_γ
     RDKit          3D

 18 18  0  0  0  0  0  0  0  0999 V2000
   -1.3930   20.6590   -8.8810 O   0  0  0  0  0  0  0  0  0  0  0  0
   -0.3030   20.0280   -7.9250 P   0  0  0  0  0  0  0  0  0  0  0  0
   -1.0700   19.6990   -6.5970 O   0  0  0  0  0  0  0  0  0  0  0  0
    0.8540   20.9580   -7.7820 O   0  0  0  0  0  0  0  0  0  0  0  0
    0.0400   18.6670   -8.7020 O   0  0  0  0  0  0  0  0  0  0  0  0
   -1.6440   18.2970   -6.1990 P   0  0  2  0  0  0  0  0  0  0  0  0
   -0.3780   17.3540   -6.2620 O   0  0  0  0  0  0  0  0  0  0  0  0
   -2.8160   17.8010   -6.9360 O   0  0  0  0  0  0  0  0  0  0  0  0
   -1.8250   18.4370   -4.6220 O   0  0  0  0  0  0  0  0  0  0  0  0
    0.7310   17.7530   -5.4990 C   0  0  0  0  0  0  0  0  0  0  0  0
    1.2250   16.5610   -4.7220 C   0  0  0  0  0  0  0  0  0  0  0  0
    0.1640   15.5740   -4.3400 C   0  0  2  0  0  0  0  0  0  0  0  0
    0.2090   15.2540   -2.9360 O   0  0  0  0  0  0  0  0  0  0  0  0
    0.2650   14.2230   -5.0400 C   0  0  1  0  0  0  0  0  0  0  0  0
    1.5060   13.5440   -4.8250 O   0  0  0  0  0  0  0  0  0  0  0  0
   -0.4940   13.9940   -2.8410 C   0  0  0  0  0  0  0  0  0  0  0  0
   -0.8450   13.5610   -4.2690 C   0  0  2  0  0  0  0  0  0  0  0  0
   -0.7840   12.1470   -4.4110 O   0  0  0  0  0  0  0  0  0  0  0  0
  1  2  1  0
  2  3  1  0
  2  4  2  0
  2  5  1  0
  3  6  1  0
  6  7  1  0
  6  8  2  0
  6  9  1  1
  7 10  1  0
 10 11  1  0
 12 11  1  6
 12 13  1  0
 12 14  1  0
 14 15  1  1
 13 16  1  0
 14 17  1  0
 16 17  1  0
 17 18  1  1
M  END
