mArh-6mea_B_0_B_α-5MQX_0_A_δ
     RDKit          3D

 25 27  0  0  0  0  0  0  0  0999 V2000
   -1.8220   21.8210   -8.0010 C   0  0  0  0  0  0  0  0  0  0  0  0
   -3.1960   22.2320   -8.5160 C   0  0  1  0  0  0  0  0  0  0  0  0
   -4.1910   21.3070   -8.1020 O   0  0  0  0  0  0  0  0  0  0  0  0
   -3.6600   23.5680   -7.9810 C   0  0  1  0  0  0  0  0  0  0  0  0
   -4.6570   24.0910   -8.8730 O   0  0  0  0  0  0  0  0  0  0  0  0
   -4.6060   21.6800   -6.7970 C   0  0  2  0  0  0  0  0  0  0  0  0
   -4.2870   23.1970   -6.6400 C   0  0  2  0  0  0  0  0  0  0  0  0
   -3.9020   20.8460   -5.8360 O   0  0  0  0  0  0  0  0  0  0  0  0
   -5.4660   24.0130   -6.4530 O   0  0  0  0  0  0  0  0  0  0  0  0
   -2.9580   19.8820   -6.4360 C   0  0  0  0  0  0  0  0  0  0  0  0
   -1.8920   19.2850   -5.4950 C   0  0  0  0  0  0  0  0  0  0  0  0
   -1.4780   17.8040   -5.7600 C   0  0  0  0  0  0  0  0  0  0  0  0
   -2.3570   16.6380   -5.1940 C   0  0  0  0  0  0  0  0  0  0  0  0
   -2.0550   16.0930   -3.7710 C   0  0  0  0  0  0  0  0  0  0  0  0
   -3.2310   15.6200   -2.8530 C   0  0  0  0  0  0  0  0  0  0  0  0
   -3.1510   14.2280   -2.1700 C   0  0  1  0  0  0  0  0  0  0  0  0
   -1.7840   13.8120   -1.8170 N   0  0  0  0  0  0  0  0  0  0  0  0
   -3.9190   14.2290   -0.8970 N   0  0  0  0  0  0  0  0  0  0  0  0
   -1.7860   13.7660   -0.3830 C   0  0  2  0  0  0  0  0  0  0  0  0
   -2.8840   14.7340   -0.0190 C   0  0  2  0  0  0  0  0  0  0  0  0
   -0.4720   14.0310    0.1440 N   0  0  0  0  0  0  0  0  0  0  0  0
   -2.9000   14.6350    1.4820 C   0  0  2  0  0  0  0  0  0  0  0  0
   -3.9050   15.4550    2.1180 N   0  0  0  0  0  0  0  0  0  0  0  0
   -0.5060   14.2790    1.5690 C   0  0  0  0  0  0  0  0  0  0  0  0
   -1.6230   15.1530    1.8570 N   0  0  0  0  0  0  0  0  0  0  0  0
  2  1  1  1
  2  3  1  0
  2  4  1  0
  4  5  1  6
  3  6  1  0
  4  7  1  0
  6  7  1  0
  6  8  1  1
  7  9  1  6
  8 10  1  0
 10 11  1  0
 11 12  1  0
 12 13  1  0
 13 14  1  0
 14 15  1  0
 16 15  1  1
 16 17  1  0
 16 18  1  0
 19 17  1  6
 20 18  1  6
 19 20  1  0
 19 21  1  0
 20 22  1  0
 22 23  1  1
 21 24  1  0
 22 25  1  0
 24 25  1  0
M  END
