mArh-5cb5_K_0_K_γ-mArh-x0950_0_A_α
     RDKit          3D

 12 12  0  0  0  0  0  0  0  0999 V2000
    0.0130   12.4890   -3.1620 C   0  0  0  0  0  0  0  0  0  0  0  0
    0.6640   12.9150   -2.0520 O   0  0  0  0  0  0  0  0  0  0  0  0
   -0.0810   11.2900   -3.3640 O   0  0  0  0  0  0  0  0  0  0  0  0
   -0.4550   13.6470   -4.0050 C   0  0  1  0  0  0  0  0  0  0  0  0
   -1.3130   14.6640   -3.2830 C   0  0  0  0  0  0  0  0  0  0  0  0
    0.8010   14.4530   -4.2770 C   0  0  1  0  0  0  0  0  0  0  0  0
    1.5700   13.8540   -5.3840 N   0  0  0  0  0  0  0  0  0  0  0  0
   -1.1150   15.8880   -4.0050 O   0  0  0  0  0  0  0  0  0  0  0  0
    0.2880   15.9270   -4.3260 C   0  0  2  0  0  0  0  0  0  0  0  0
    0.5620   16.8410   -5.5050 C   0  0  0  0  0  0  0  0  0  0  0  0
    2.6140   12.9850   -4.8130 C   0  0  0  0  0  0  0  0  0  0  0  0
    0.7330   12.8940   -6.1000 O   0  0  0  0  0  0  0  0  0  0  0  0
  1  2  1  0
  1  3  2  0
  4  1  1  1
  4  5  1  0
  4  6  1  0
  6  7  1  6
  5  8  1  0
  6  9  1  0
  8  9  1  0
  9 10  1  6
  7 11  1  0
  7 12  1  0
M  END
