mArh-5lw0_B_1_B_Î²
     RDKit          3D

  9  8  0  0  0  0  0  0  0  0999 V2000
   -2.2260   19.0680   -9.2610 O   0  0  0  0  0  0  0  0  0  0  0  0
   -0.8840   18.4010   -8.6000 P   0  0  2  0  0  0  0  0  0  0  0  0
   -1.3780   18.1400   -7.0890 O   0  0  0  0  0  0  0  0  0  0  0  0
    0.2220   19.4430   -8.5700 O   0  0  0  0  0  0  0  0  0  0  0  0
   -0.5530   17.1150   -9.4190 O   0  0  0  0  0  0  0  0  0  0  0  0
   -2.2970   16.9960   -6.3560 P   0  0  2  0  0  0  0  0  0  0  0  0
   -1.1740   15.9530   -5.8210 O   0  0  0  0  0  0  0  0  0  0  0  0
   -3.2320   16.3010   -7.3550 O   0  0  0  0  0  0  0  0  0  0  0  0
   -2.9880   17.5530   -5.1520 O   0  0  0  0  0  0  0  0  0  0  0  0
  2  1  1  6
  3  2  1  0
  2  4  2  0
  2  5  1  0
  6  3  1  0
  6  7  1  1
  6  8  2  0
  6  9  1  0
M  END
