mArh-x0626_0_A_α-5LW0_1_B_γ
     RDKit          3D

 21 22  0  0  0  0  0  0  0  0999 V2000
   -4.9860   14.8750    1.4660 N   0  0  0  0  0  0  0  0  0  0  0  0
   -6.1500   14.6740    0.7920 C   0  0  0  0  0  0  0  0  0  0  0  0
   -6.1570   14.7870   -0.4390 O   0  0  0  0  0  0  0  0  0  0  0  0
   -3.7520   15.0200    0.9290 C   0  0  0  0  0  0  0  0  0  0  0  0
   -7.3990   14.3250    1.5740 C   0  0  0  0  0  0  0  0  0  0  0  0
   -2.5770   14.8160    1.4820 N   0  0  0  0  0  0  0  0  0  0  0  0
   -3.7800   15.5380   -0.6960 S   0  0  0  0  0  0  0  0  0  0  0  0
   -8.6690   14.6360    0.7960 C   0  0  0  0  0  0  0  0  0  0  0  0
   -2.0800   15.4990   -0.6960 C   0  0  0  0  0  0  0  0  0  0  0  0
   -1.6170   15.0890    0.5380 C   0  0  0  0  0  0  0  0  0  0  0  0
   -0.2070   14.9200    0.8860 C   0  0  0  0  0  0  0  0  0  0  0  0
    0.3910   14.0230   -0.1760 C   0  0  0  0  0  0  0  0  0  0  0  0
   -0.6300   13.6030   -1.2350 C   0  0  0  0  0  0  0  0  0  0  0  0
   -0.0920   13.8960   -2.6310 C   0  0  2  0  0  0  0  0  0  0  0  0
   -0.1150   15.3050   -2.9710 O   0  0  0  0  0  0  0  0  0  0  0  0
   -0.8680   13.2690   -3.7780 C   0  0  2  0  0  0  0  0  0  0  0  0
   -0.7330   11.8440   -3.7950 O   0  0  0  0  0  0  0  0  0  0  0  0
   -0.2050   15.3620   -4.4220 C   0  0  2  0  0  0  0  0  0  0  0  0
   -0.0760   13.9050   -4.8910 C   0  0  1  0  0  0  0  0  0  0  0  0
    0.8400   16.3160   -4.9700 C   0  0  0  0  0  0  0  0  0  0  0  0
    1.2790   13.4400   -4.8310 O   0  0  0  0  0  0  0  0  0  0  0  0
  1  2  1  0
  2  3  2  0
  1  4  1  0
  2  5  1  0
  4  6  2  0
  4  7  1  0
  5  8  1  0
  7  9  1  0
  6 10  1  0
  9 10  2  0
 10 11  1  0
 11 12  1  0
 12 13  1  0
 14 13  1  1
 14 15  1  0
 14 16  1  0
 16 17  1  1
 15 18  1  0
 16 19  1  0
 18 19  1  0
 18 20  1  6
 19 21  1  1
M  END
