mArh-5dus_0_A_Î±
     RDKit          3D

  9  9  0  0  0  0  0  0  0  0999 V2000
   -2.0340   21.7750   -7.9080 C   0  0  0  0  0  0  0  0  0  0  0  0
   -3.4400   22.1440   -8.3330 C   0  0  1  0  0  0  0  0  0  0  0  0
   -4.4330   21.1600   -7.5840 O   0  0  0  0  0  0  0  0  0  0  0  0
   -3.8330   23.4010   -8.0050 C   0  0  2  0  0  0  0  0  0  0  0  0
   -5.3390   21.9150   -6.9870 C   0  0  2  0  0  0  0  0  0  0  0  0
   -4.5990   23.2260   -6.6960 C   0  0  2  0  0  0  0  0  0  0  0  0
   -4.7640   23.9460   -9.0460 O   0  0  0  0  0  0  0  0  0  0  0  0
   -5.7250   21.3170   -5.7660 O   0  0  0  0  0  0  0  0  0  0  0  0
   -5.5050   24.2440   -6.4390 O   0  0  0  0  0  0  0  0  0  0  0  0
  2  1  1  1
  3  2  1  0
  4  2  1  0
  5  3  1  0
  6  4  1  0
  4  7  1  6
  5  8  1  1
  5  6  1  0
  6  9  1  6
M  END
