mArh-3ew5_B_0_B_Î±
     RDKit          3D

 10  9  0  0  0  0  0  0  0  0999 V2000
   -0.2670   19.9950   -7.9410 P   0  0  0  0  0  0  0  0  0  0  0  0
   -1.4590   21.1180   -7.9880 O   0  0  0  0  0  0  0  0  0  0  0  0
    0.1540   19.5590   -9.3280 O   0  0  0  0  0  0  0  0  0  0  0  0
   -0.8060   18.7840   -7.2180 O   0  0  0  0  0  0  0  0  0  0  0  0
    0.9630   20.4950   -7.2050 O   0  0  0  0  0  0  0  0  0  0  0  0
   -2.5480   21.1080   -7.0570 C   0  0  0  0  0  0  0  0  0  0  0  0
   -3.7600   22.0160   -7.3710 C   0  0  2  0  0  0  0  0  0  0  0  0
   -5.6080   21.9590   -5.8350 O   0  0  0  0  0  0  0  0  0  0  0  0
   -5.0460   21.3110   -6.9480 C   0  0  0  0  0  0  0  0  0  0  0  0
   -3.8900   22.4050   -8.7310 O   0  0  0  0  0  0  0  0  0  0  0  0
  1  2  1  0
  1  3  2  0
  1  4  1  0
  1  5  1  0
  2  6  1  0
  6  7  1  0
  7  9  1  0
  7 10  1  6
  9  8  1  0
M  END
