
     RDKit          3D

 36 39  0  0  0  0  0  0  0  0999 V2000
   -1.4970   18.1180   -5.7440 P   0  0  0  0  0  0  0  0  0  0  0  0
    0.0340   19.7590   -7.6470 P   0  0  0  0  0  0  0  0  0  0  0  0
    0.7250   16.9510   -5.0290 C   0  0  0  0  0  0  0  0  0  0  0  0
   -0.5430   16.8360   -5.7020 O   0  0  0  0  0  0  0  0  0  0  0  0
    1.0430   15.6300   -4.3640 C   0  0  1  0  0  0  0  0  0  0  0  0
    0.3290   15.5320   -3.1080 O   0  0  0  0  0  0  0  0  0  0  0  0
    0.6440   14.3760   -5.1520 C   0  0  1  0  0  0  0  0  0  0  0  0
    1.5660   13.3240   -4.9320 O   0  0  0  0  0  0  0  0  0  0  0  0
   -0.6570   13.9580   -4.4740 C   0  0  1  0  0  0  0  0  0  0  0  0
   -0.8980   12.5910   -4.6950 O   0  0  0  0  0  0  0  0  0  0  0  0
   -0.3320   14.2910   -3.0310 C   0  0  2  0  0  0  0  0  0  0  0  0
   -4.9350   21.9410   -6.8660 C   0  0  1  0  0  0  0  0  0  0  0  0
   -1.6760   14.6130    1.8570 N   0  0  0  0  0  0  0  0  0  0  0  0
   -1.9390   18.4520   -4.3530 O   0  0  0  0  0  0  0  0  0  0  0  0
    1.1060   20.7800   -7.4250 O   0  0  0  0  0  0  0  0  0  0  0  0
   -5.3050   21.2460   -5.7160 O   0  0  0  0  0  0  0  0  0  0  0  0
   -0.5290   14.3050    1.2490 C   0  0  0  0  0  0  0  0  0  0  0  0
   -4.3170   23.3110   -6.5860 C   0  0  2  0  0  0  0  0  0  0  0  0
   -2.5030   17.8970   -6.8230 O   0  0  0  0  0  0  0  0  0  0  0  0
    0.3520   18.5120   -8.4050 O   0  0  0  0  0  0  0  0  0  0  0  0
   -5.2700   24.3070   -6.3030 O   0  0  0  0  0  0  0  0  0  0  0  0
   -3.5400   23.5700   -7.8760 C   0  0  2  0  0  0  0  0  0  0  0  0
   -0.2550   14.2170   -0.0470 N   0  0  0  0  0  0  0  0  0  0  0  0
   -0.5210   19.2980   -6.2130 O   0  0  0  0  0  0  0  0  0  0  0  0
   -4.3840   24.0660   -8.9070 O   0  0  0  0  0  0  0  0  0  0  0  0
   -1.3430   14.4780   -0.7710 C   0  0  0  0  0  0  0  0  0  0  0  0
   -3.0340   22.1590   -8.2270 C   0  0  2  0  0  0  0  0  0  0  0  0
   -3.9150   21.2470   -7.5390 O   0  0  0  0  0  0  0  0  0  0  0  0
   -2.5990   14.7810   -0.3010 C   0  0  0  0  0  0  0  0  0  0  0  0
   -1.6180   21.8100   -7.8090 C   0  0  0  0  0  0  0  0  0  0  0  0
   -1.2460   20.4840   -8.3040 O   0  0  0  0  0  0  0  0  0  0  0  0
   -2.7710   14.8320    1.0890 C   0  0  0  0  0  0  0  0  0  0  0  0
   -3.9160   15.1650    1.6760 N   0  0  0  0  0  0  0  0  0  0  0  0
   -3.4680   14.9970   -1.3590 N   0  0  0  0  0  0  0  0  0  0  0  0
   -2.7350   14.8390   -2.4350 C   0  0  0  0  0  0  0  0  0  0  0  0
   -1.4280   14.4880   -2.1340 N   0  0  0  0  0  0  0  0  0  0  0  0
  1  4  1  0
  1 14  2  0
  1 19  1  0
  1 24  1  0
  4  3  1  0
 24  2  1  0
  2 15  2  0
  2 20  1  0
  2 31  1  0
 31 30  1  0
  5  3  1  6
  5  6  1  0
  5  7  1  0
  6 11  1  0
  7  8  1  1
  7  9  1  0
 11  9  1  0
 11 36  1  1
  9 10  1  1
 36 26  1  0
 36 35  1  0
 12 16  1  1
 12 18  1  0
 12 28  1  0
 18 21  1  6
 18 22  1  0
 28 27  1  0
 13 17  2  0
 13 32  1  0
 17 23  1  0
 32 29  2  0
 32 33  1  0
 23 26  2  0
 22 25  1  6
 22 27  1  0
 27 30  1  1
 26 29  1  0
 29 34  1  0
 34 35  2  0
M  END
