mArh-5cb5_P_0_P_Î³
     RDKit          3D

  8  8  0  0  0  0  0  0  0  0999 V2000
   -0.8060   14.6840   -2.9020 C   0  0  0  0  0  0  0  0  0  0  0  0
   -0.4260   15.9280   -3.4550 O   0  0  0  0  0  0  0  0  0  0  0  0
   -1.1910   13.8960   -4.1200 C   0  0  1  0  0  0  0  0  0  0  0  0
    0.3810   15.6990   -4.6060 C   0  0  1  0  0  0  0  0  0  0  0  0
   -0.1030   14.3440   -5.1160 C   0  0  1  0  0  0  0  0  0  0  0  0
   -1.2170   12.5240   -3.7630 O   0  0  0  0  0  0  0  0  0  0  0  0
    0.1710   16.8020   -5.6350 C   0  0  0  0  0  0  0  0  0  0  0  0
    1.1250   13.5890   -5.1730 O   0  0  0  0  0  0  0  0  0  0  0  0
  1  2  1  1
  1  3  1  0
  4  2  1  0
  5  3  1  0
  3  6  1  1
  4  7  1  6
  4  5  1  0
  5  8  1  1
M  END
