mArh-5mqx_0_A_Î²
     RDKit          3D

  9  8  0  0  0  0  0  0  0  0999 V2000
   -4.0230   18.9710   -5.9200 O   0  0  0  0  0  0  0  0  0  0  0  0
   -3.7350   19.0260   -4.3390 P   0  0  2  0  0  0  0  0  0  0  0  0
   -3.0640   17.6120   -4.1430 O   0  0  0  0  0  0  0  0  0  0  0  0
   -4.9270   19.2400   -3.4800 O   0  0  0  0  0  0  0  0  0  0  0  0
   -2.8190   20.1170   -3.9570 O   0  0  0  0  0  0  0  0  0  0  0  0
   -3.7990   16.2150   -4.1690 P   0  0  1  0  0  0  0  0  0  0  0  0
   -2.4990   15.3380   -4.4950 O   0  0  0  0  0  0  0  0  0  0  0  0
   -4.3840   15.8480   -2.8590 O   0  0  0  0  0  0  0  0  0  0  0  0
   -4.8340   16.0520   -5.2060 O   0  0  0  0  0  0  0  0  0  0  0  0
  2  1  1  6
  3  2  1  0
  2  4  2  0
  2  5  1  0
  6  3  1  0
  6  7  1  6
  6  8  2  0
  6  9  1  0
M  END
