mArh-2fav_B_0_B_α-mArh-5cms_I_8_I_γ
     RDKit          3D

 20 21  0  0  0  0  0  0  0  0999 V2000
   -1.4980   22.1100   -7.7860 C   0  0  0  0  0  0  0  0  0  0  0  0
   -3.0020   22.0540   -8.0660 C   0  0  1  0  0  0  0  0  0  0  0  0
   -3.6260   21.1170   -7.0870 N   0  0  0  0  0  0  0  0  0  0  0  0
   -3.6870   23.4360   -7.9030 C   0  0  1  0  0  0  0  0  0  0  0  0
   -4.1060   23.9830   -9.1550 O   0  0  0  0  0  0  0  0  0  0  0  0
   -2.6610   20.5190   -6.1380 C   0  0  0  0  0  0  0  0  0  0  0  0
   -4.6170   21.8920   -6.3200 C   0  0  0  0  0  0  0  0  0  0  0  0
   -4.9390   23.1760   -7.0710 C   0  0  1  0  0  0  0  0  0  0  0  0
   -5.2660   24.2310   -6.1650 O   0  0  0  0  0  0  0  0  0  0  0  0
   -2.2320   19.1010   -6.5300 C   0  0  0  0  0  0  0  0  0  0  0  0
   -1.6510   18.3170   -5.3430 C   0  0  0  0  0  0  0  0  0  0  0  0
   -0.6370   17.2560   -5.7480 C   0  0  0  0  0  0  0  0  0  0  0  0
    0.6150   17.1040   -4.9050 C   0  0  0  0  0  0  0  0  0  0  0  0
    0.8610   15.7030   -4.3130 C   0  0  1  0  0  0  0  0  0  0  0  0
    0.2750   15.6580   -2.9870 O   0  0  0  0  0  0  0  0  0  0  0  0
    0.2630   14.5270   -5.0900 C   0  0  1  0  0  0  0  0  0  0  0  0
    1.0620   13.3540   -5.0300 O   0  0  0  0  0  0  0  0  0  0  0  0
   -0.6920   14.5870   -2.9600 C   0  0  0  0  0  0  0  0  0  0  0  0
   -1.0810   14.3320   -4.4040 C   0  0  2  0  0  0  0  0  0  0  0  0
   -1.5170   12.9790   -4.6110 O   0  0  0  0  0  0  0  0  0  0  0  0
  2  1  1  1
  2  3  1  0
  2  4  1  0
  4  5  1  6
  3  6  1  0
  3  7  1  0
  4  8  1  0
  7  8  1  0
  8  9  1  1
  6 10  1  0
 10 11  1  0
 11 12  1  0
 12 13  1  0
 14 13  1  6
 14 15  1  0
 14 16  1  0
 16 17  1  1
 15 18  1  0
 16 19  1  0
 18 19  1  0
 19 20  1  1
M  END
