mArh-5cms_D_3_D_α-5CMS_0_B_δ
     RDKit          3D

 21 22  0  0  0  0  0  0  0  0999 V2000
   -0.1220   17.1270   -6.2900 O   0  0  0  0  0  0  0  0  0  0  0  0
   -1.3340   18.2410   -5.9200 P   0  0  0  0  0  0  0  0  0  0  0  0
   -2.2860   17.6000   -6.9360 O   0  0  0  0  0  0  0  0  0  0  0  0
   -2.3090   17.8010   -4.7470 O   0  0  0  0  0  0  0  0  0  0  0  0
   -1.2880   19.6800   -6.7220 O   0  0  0  0  0  0  0  0  0  0  0  0
   -0.6350   19.9540   -8.0930 P   0  0  0  0  0  0  0  0  0  0  0  0
   -2.4410   16.4460   -4.4930 C   0  0  0  0  0  0  0  0  0  0  0  0
   -1.9180   20.8910   -8.5350 O   0  0  0  0  0  0  0  0  0  0  0  0
   -0.5120   18.4330   -8.5480 O   0  0  0  0  0  0  0  0  0  0  0  0
    0.7080   20.6850   -7.4460 O   0  0  0  0  0  0  0  0  0  0  0  0
   -2.0710   16.0800   -3.0940 C   0  0  0  0  0  0  0  0  0  0  0  0
   -2.6260   14.8080   -2.5540 C   0  0  1  0  0  0  0  0  0  0  0  0
   -1.5760   13.9610   -2.1060 N   0  0  0  0  0  0  0  0  0  0  0  0
   -3.5120   15.0610   -1.4520 N   0  0  0  0  0  0  0  0  0  0  0  0
   -1.5630   13.9940   -0.6860 C   0  0  2  0  0  0  0  0  0  0  0  0
   -2.8940   14.5290   -0.2770 C   0  0  1  0  0  0  0  0  0  0  0  0
   -0.5290   14.8180   -0.1070 N   0  0  0  0  0  0  0  0  0  0  0  0
   -2.7100   15.5700    0.7930 C   0  0  1  0  0  0  0  0  0  0  0  0
   -3.9730   15.9090    1.4230 N   0  0  0  0  0  0  0  0  0  0  0  0
   -0.6100   14.4840    1.2960 C   0  0  0  0  0  0  0  0  0  0  0  0
   -1.9140   14.8920    1.8100 N   0  0  0  0  0  0  0  0  0  0  0  0
  1  2  1  0
  2  3  1  0
  2  4  1  0
  2  5  1  0
  5  6  1  0
  4  7  1  0
  6  8  1  0
  6  9  1  0
  6 10  1  0
  7 11  1  0
 12 11  1  1
 12 13  1  0
 12 14  1  0
 15 13  1  6
 16 14  1  6
 15 16  1  0
 15 17  1  0
 16 18  1  0
 18 19  1  1
 17 20  1  0
 18 21  1  0
 20 21  1  0
M  CHG  2   3  -1   9  -1
M  END
