mArh-2fav_B_0_B_β-mArh-x0962_3_A_α
     RDKit          3D

 20 20  0  0  0  0  0  0  0  0999 V2000
   -1.0030   20.5490   -8.3380 O   0  0  0  0  0  0  0  0  0  0  0  0
   -0.0390   19.6290   -7.6150 P   0  0  0  0  0  0  0  0  0  0  0  0
   -1.1450   19.3170   -6.4620 O   0  0  0  0  0  0  0  0  0  0  0  0
    1.0710   20.8630   -7.4940 O   0  0  0  0  0  0  0  0  0  0  0  0
    0.1530   18.5550   -8.8260 O   0  0  0  0  0  0  0  0  0  0  0  0
   -1.1060   18.0110   -5.6810 P   0  0  0  0  0  0  0  0  0  0  0  0
   -0.9460   16.9180   -4.5880 O   0  0  0  0  0  0  0  0  0  0  0  0
   -1.5690   18.9540   -4.4190 O   0  0  0  0  0  0  0  0  0  0  0  0
   -2.3300   17.3300   -6.5560 O   0  0  0  0  0  0  0  0  0  0  0  0
   -0.9330   15.5480   -4.8270 C   0  0  0  0  0  0  0  0  0  0  0  0
    0.4400   15.0020   -4.9850 C   0  0  0  0  0  0  0  0  0  0  0  0
    0.5300   13.5020   -4.8920 C   0  0  0  0  0  0  0  0  0  0  0  0
    1.6320   12.9650   -5.7460 C   0  0  0  0  0  0  0  0  0  0  0  0
    1.2260   11.8820   -6.6180 C   0  0  0  0  0  0  0  0  0  0  0  0
    0.7580   10.9580   -7.1940 C   0  0  0  0  0  0  0  0  0  0  0  0
    0.0220    9.8230   -7.6390 C   0  0  0  0  0  0  0  0  0  0  0  0
    0.3420    8.8000   -8.4570 N   0  0  0  0  0  0  0  0  0  0  0  0
   -1.2650    9.5910   -7.2350 C   0  0  0  0  0  0  0  0  0  0  0  0
   -0.7150    7.9700   -8.5480 C   0  0  0  0  0  0  0  0  0  0  0  0
   -1.7130    8.4490   -7.8000 N   0  0  0  0  0  0  0  0  0  0  0  0
  1  2  1  0
  2  3  1  0
  2  4  1  0
  2  5  1  0
  3  6  1  0
  6  7  1  0
  6  8  1  0
  6  9  1  0
  7 10  1  0
 10 11  1  0
 11 12  1  0
 12 13  1  0
 13 14  1  0
 14 15  3  0
 15 16  1  0
 16 17  1  0
 16 18  2  0
 17 19  1  0
 18 20  1  0
 19 20  2  0
M  CHG  2   4  -1   8  -1
M  END
