mArh-x0910_2_B_α-mArh-EU0815_0_A_α
     RDKit          3D

 20 20  0  0  0  0  0  0  0  0999 V2000
  -11.9270   21.4520   -3.1990 N   0  0  0  0  0  0  0  0  0  0  0  0
  -12.2420   22.3790   -2.2780 C   0  0  0  0  0  0  0  0  0  0  0  0
  -12.0380   23.6670   -2.3400 N   0  0  0  0  0  0  0  0  0  0  0  0
  -12.8420   22.0780   -1.0930 N   0  0  0  0  0  0  0  0  0  0  0  0
  -13.2270   20.7720   -0.6300 C   0  0  0  0  0  0  0  0  0  0  0  0
  -12.5140   24.2270   -1.1840 N   0  0  0  0  0  0  0  0  0  0  0  0
  -12.9990   23.2640   -0.4400 C   0  0  0  0  0  0  0  0  0  0  0  0
  -12.0940   19.7520   -0.8040 C   0  0  0  0  0  0  0  0  0  0  0  0
  -12.1380   18.5170    0.1010 C   0  0  0  0  0  0  0  0  0  0  0  0
  -10.8580   17.6760    0.0410 C   0  0  0  0  0  0  0  0  0  0  0  0
  -10.6900   16.7900    1.2780 C   0  0  0  0  0  0  0  0  0  0  0  0
   -9.5350   15.7810    1.2600 C   0  0  0  0  0  0  0  0  0  0  0  0
   -9.1690   15.5480    2.6540 N   0  0  0  0  0  0  0  0  0  0  0  0
   -8.0210   15.1200    3.0520 C   0  0  0  0  0  0  0  0  0  0  0  0
   -6.9050   14.7820    2.3610 N   0  0  0  0  0  0  0  0  0  0  0  0
   -7.8910   14.9830    4.3920 N   0  0  0  0  0  0  0  0  0  0  0  0
   -9.1020   14.8510    5.2210 C   0  0  1  0  0  0  0  0  0  0  0  0
   -9.3630   13.3710    5.5120 C   0  0  0  0  0  0  0  0  0  0  0  0
   -8.9810   15.6560    6.5250 C   0  0  0  0  0  0  0  0  0  0  0  0
  -10.2320   15.7560    7.2090 O   0  0  0  0  0  0  0  0  0  0  0  0
  1  2  1  0
  2  3  2  0
  2  4  1  0
  4  5  1  0
  3  6  1  0
  4  7  1  0
  6  7  2  0
  5  8  1  0
  8  9  1  0
  9 10  1  0
 10 11  1  0
 11 12  1  0
 12 13  1  0
 13 14  2  3
 14 15  1  0
 14 16  1  0
 16 17  1  0
 17 18  1  1
 17 19  1  0
 19 20  1  0
M  END
