mArh-5cb5_L_0_L_β-5CB5_0_O_α
     RDKit          3D

 17 17  0  0  0  0  0  0  0  0999 V2000
   -1.6950   21.4620   -8.7290 O   0  0  0  0  0  0  0  0  0  0  0  0
   -0.7340   20.4150   -7.9120 P   0  0  2  0  0  0  0  0  0  0  0  0
   -1.4230   19.9430   -6.5580 O   0  0  0  0  0  0  0  0  0  0  0  0
   -3.1080   21.7940   -8.6450 C   0  0  1  0  0  0  0  0  0  0  0  0
    0.6440   20.9600   -7.6780 O   0  0  0  0  0  0  0  0  0  0  0  0
   -0.6070   19.0410   -8.7370 O   0  0  0  0  0  0  0  0  0  0  0  0
   -3.7800   21.1110   -7.6060 O   0  0  0  0  0  0  0  0  0  0  0  0
   -3.4900   23.3100   -8.4230 C   0  0  1  0  0  0  0  0  0  0  0  0
   -1.6030   18.3960   -6.2180 P   0  0  0  0  0  0  0  0  0  0  0  0
   -4.2160   23.9040   -9.5220 O   0  0  0  0  0  0  0  0  0  0  0  0
   -4.9470   21.8850   -7.3590 C   0  0  2  0  0  0  0  0  0  0  0  0
   -4.3770   23.2620   -7.1690 C   0  0  2  0  0  0  0  0  0  0  0  0
   -0.1770   17.7100   -6.3620 O   0  0  0  0  0  0  0  0  0  0  0  0
   -2.6790   17.6760   -6.9090 O   0  0  0  0  0  0  0  0  0  0  0  0
   -1.7470   18.3780   -4.6340 O   0  0  0  0  0  0  0  0  0  0  0  0
   -5.5880   21.4750   -6.1600 O   0  0  0  0  0  0  0  0  0  0  0  0
   -5.4770   24.1940   -7.1520 O   0  0  0  0  0  0  0  0  0  0  0  0
  1  2  1  0
  2  3  1  0
  4  1  1  1
  2  5  2  0
  2  6  1  6
  4  7  1  0
  4  8  1  0
  3  9  1  0
  8 10  1  6
  7 11  1  0
  8 12  1  0
 11 12  1  0
  9 13  1  0
  9 14  2  0
  9 15  1  0
 11 16  1  1
 12 17  1  6
M  END
