mArh-5cms_M_12_M_γ-3EW5_0_A_α
     RDKit          3D

 20 20  0  0  0  0  0  0  0  0999 V2000
   -1.4140   12.9550   -4.7460 O   0  0  0  0  0  0  0  0  0  0  0  0
   -0.5970   13.5440   -3.8210 C   0  0  2  0  0  0  0  0  0  0  0  0
   -1.1420   14.8240   -3.2490 C   0  0  0  0  0  0  0  0  0  0  0  0
    0.7590   14.0030   -4.4110 C   0  0  1  0  0  0  0  0  0  0  0  0
    0.8150   13.5870   -5.7080 O   0  0  0  0  0  0  0  0  0  0  0  0
   -0.0950   15.6720   -3.1000 O   0  0  0  0  0  0  0  0  0  0  0  0
    0.7650   15.4750   -4.1780 C   0  0  2  0  0  0  0  0  0  0  0  0
    0.2580   16.3450   -5.2970 C   0  0  0  0  0  0  0  0  0  0  0  0
    0.4720   17.7720   -4.8910 C   0  0  0  0  0  0  0  0  0  0  0  0
    0.8540   18.5860   -6.1560 C   0  0  0  0  0  0  0  0  0  0  0  0
   -0.3610   19.2070   -6.3660 O   0  0  0  0  0  0  0  0  0  0  0  0
   -0.7080   19.8360   -7.7800 P   0  0  0  0  0  0  0  0  0  0  0  0
   -1.5800   21.0060   -7.1880 O   0  0  0  0  0  0  0  0  0  0  0  0
    0.3840   21.2060   -8.0780 O   0  0  0  0  0  0  0  0  0  0  0  0
    0.2580   19.0310   -8.6400 O   0  0  0  0  0  0  0  0  0  0  0  0
   -2.1980   21.9290   -7.9580 C   0  0  0  0  0  0  0  0  0  0  0  0
   -3.5320   22.3390   -7.2770 C   0  0  2  0  0  0  0  0  0  0  0  0
   -4.7290   22.2690   -8.1300 C   0  0  0  0  0  0  0  0  0  0  0  0
   -3.2820   23.6210   -6.7970 O   0  0  0  0  0  0  0  0  0  0  0  0
   -5.9120   21.9620   -7.4670 O   0  0  0  0  0  0  0  0  0  0  0  0
  2  1  1  6
  2  3  1  0
  2  4  1  0
  4  5  1  6
  3  6  1  0
  4  7  1  0
  6  7  1  0
  7  8  1  6
  8  9  1  0
  9 10  1  0
 10 11  1  0
 11 12  1  0
 12 13  1  0
 12 14  1  0
 12 15  1  0
 13 16  1  0
 16 17  1  0
 17 18  1  0
 17 19  1  6
 18 20  1  0
M  CHG  1  15  -1
M  END
