mArh-5l9k_A_0_A_γ-5L9K_0_B_α
     RDKit          3D

 21 22  0  0  0  0  0  0  0  0999 V2000
   -2.3130   12.7680   -4.7770 O   0  0  0  0  0  0  0  0  0  0  0  0
   -1.9380   14.1030   -4.5580 C   0  0  1  0  0  0  0  0  0  0  0  0
   -1.6670   14.5480   -3.1230 C   0  0  0  0  0  0  0  0  0  0  0  0
   -0.5710   14.3970   -5.1110 C   0  0  2  0  0  0  0  0  0  0  0  0
    0.4080   13.6040   -4.4420 O   0  0  0  0  0  0  0  0  0  0  0  0
   -0.7650   15.6750   -3.2850 O   0  0  0  0  0  0  0  0  0  0  0  0
   -0.6700   15.8530   -4.7120 C   0  0  1  0  0  0  0  0  0  0  0  0
    0.4100   16.8520   -5.1160 C   0  0  0  0  0  0  0  0  0  0  0  0
   -0.0970   18.2600   -5.4820 C   0  0  0  0  0  0  0  0  0  0  0  0
   -1.1140   18.3340   -6.6380 C   0  0  0  0  0  0  0  0  0  0  0  0
   -1.8900   19.6710   -6.7200 C   0  0  0  0  0  0  0  0  0  0  0  0
   -1.2890   20.6960   -7.7020 C   0  0  0  0  0  0  0  0  0  0  0  0
   -2.2700   21.6150   -8.4710 C   0  0  0  0  0  0  0  0  0  0  0  0
   -3.5580   22.0530   -7.7620 C   0  0  2  0  0  0  0  0  0  0  0  0
   -4.6340   21.1460   -8.0150 O   0  0  0  0  0  0  0  0  0  0  0  0
   -4.1480   23.4230   -8.1530 C   0  0  1  0  0  0  0  0  0  0  0  0
   -4.2860   23.8040   -9.5110 O   0  0  0  0  0  0  0  0  0  0  0  0
   -5.7570   21.8090   -7.4420 C   0  0  1  0  0  0  0  0  0  0  0  0
   -5.5330   23.3340   -7.5680 C   0  0  1  0  0  0  0  0  0  0  0  0
   -6.9290   21.4170   -8.1480 O   0  0  0  0  0  0  0  0  0  0  0  0
   -5.6180   24.0810   -6.3610 O   0  0  0  0  0  0  0  0  0  0  0  0
  2  1  1  1
  2  3  1  0
  2  4  1  0
  4  5  1  1
  3  6  1  0
  4  7  1  0
  6  7  1  0
  7  8  1  1
  8  9  1  0
  9 10  1  0
 10 11  1  0
 11 12  1  0
 12 13  1  0
 14 13  1  6
 14 15  1  0
 14 16  1  0
 16 17  1  6
 15 18  1  0
 16 19  1  0
 18 19  1  0
 18 20  1  6
 19 21  1  1
M  END
