mArh-5mqx_0_A_γ-6WOJ_0_D_γ
     RDKit          3D

 15 16  0  0  0  0  0  0  0  0999 V2000
   -0.7510   10.5370   -2.1790 O   0  0  0  0  0  0  0  0  0  0  0  0
   -0.9440   11.9490   -1.9700 C   0  0  2  0  0  0  0  0  0  0  0  0
   -2.3780   12.3650   -1.6650 C   0  0  0  0  0  0  0  0  0  0  0  0
   -0.7340   12.7310   -3.2400 C   0  0  1  0  0  0  0  0  0  0  0  0
    0.2560   12.1750   -4.0400 O   0  0  0  0  0  0  0  0  0  0  0  0
   -2.8110   13.2260   -2.7340 O   0  0  0  0  0  0  0  0  0  0  0  0
   -2.0880   12.7990   -3.8810 C   0  0  1  0  0  0  0  0  0  0  0  0
   -2.2630   13.8660   -4.9560 C   0  0  0  0  0  0  0  0  0  0  0  0
    1.1780   13.2480   -3.9400 C   0  0  2  0  0  0  0  0  0  0  0  0
    0.8880   14.1550   -2.7260 C   0  0  0  0  0  0  0  0  0  0  0  0
    0.8870   14.1560   -5.0900 C   0  0  2  0  0  0  0  0  0  0  0  0
    1.6040   13.6040   -6.1570 O   0  0  0  0  0  0  0  0  0  0  0  0
    0.7870   15.5120   -3.1830 O   0  0  0  0  0  0  0  0  0  0  0  0
    1.2920   15.5220   -4.5250 C   0  0  2  0  0  0  0  0  0  0  0  0
    0.7770   16.7840   -5.2120 C   0  0  0  0  0  0  0  0  0  0  0  0
  2  1  1  6
  2  3  1  0
  2  4  1  0
  4  5  1  6
  3  6  1  0
  4  7  1  0
  6  7  1  0
  7  8  1  6
  9  5  1  1
  9 10  1  0
  9 11  1  0
 11 12  1  6
 10 13  1  0
 11 14  1  0
 13 14  1  0
 14 15  1  6
M  END
