mArh-5cb5_O_0_O_Î³
     RDKit          3D

  8  8  0  0  0  0  0  0  0  0999 V2000
   -0.5590   14.7420   -3.0330 C   0  0  0  0  0  0  0  0  0  0  0  0
   -0.0170   16.0260   -3.3280 O   0  0  0  0  0  0  0  0  0  0  0  0
   -0.9350   14.1800   -4.3770 C   0  0  1  0  0  0  0  0  0  0  0  0
    0.6860   15.9500   -4.5760 C   0  0  1  0  0  0  0  0  0  0  0  0
    0.2070   14.6600   -5.2600 C   0  0  1  0  0  0  0  0  0  0  0  0
   -0.8990   12.7560   -4.2940 O   0  0  0  0  0  0  0  0  0  0  0  0
    0.3130   17.1900   -5.4110 C   0  0  0  0  0  0  0  0  0  0  0  0
    1.2710   13.6960   -5.3020 O   0  0  0  0  0  0  0  0  0  0  0  0
  1  2  1  1
  1  3  1  0
  4  2  1  0
  5  3  1  0
  3  6  1  1
  4  7  1  6
  4  5  1  0
  5  8  1  1
M  END
