mArh-6mea_B_0_B_β-mArh-6mea_A_0_A_β
     RDKit          3D

  9  8  0  0  0  0  0  0  0  0999 V2000
   -1.5290   20.3230   -8.0160 O   0  0  0  0  0  0  0  0  0  0  0  0
   -0.0970   19.7330   -7.6230 P   0  0  0  0  0  0  0  0  0  0  0  0
   -0.2830   18.8770   -6.3330 O   0  0  0  0  0  0  0  0  0  0  0  0
    0.9850   20.7600   -7.5920 O   0  0  0  0  0  0  0  0  0  0  0  0
    0.1180   18.6200   -8.7550 O   0  0  0  0  0  0  0  0  0  0  0  0
   -1.5850   18.1440   -5.8500 P   0  0  0  0  0  0  0  0  0  0  0  0
   -1.0670   16.8000   -5.1750 O   0  0  0  0  0  0  0  0  0  0  0  0
   -2.6190   17.9350   -6.8910 O   0  0  0  0  0  0  0  0  0  0  0  0
   -2.0350   19.0500   -4.6340 O   0  0  0  0  0  0  0  0  0  0  0  0
  1  2  1  0
  2  3  1  0
  2  4  2  0
  2  5  1  0
  3  6  1  0
  6  7  1  0
  6  8  2  0
  6  9  1  0
M  END
