mArh-5cb5_A_0_A_Î²
     RDKit          3D

  9  8  0  0  0  0  0  0  0  0999 V2000
   -1.4410   20.3420   -9.2520 O   0  0  0  0  0  0  0  0  0  0  0  0
   -0.3670   19.4630   -8.4010 P   0  0  2  0  0  0  0  0  0  0  0  0
   -1.0630   19.2630   -6.9330 O   0  0  0  0  0  0  0  0  0  0  0  0
    0.7930   20.3940   -8.0930 O   0  0  0  0  0  0  0  0  0  0  0  0
   -0.0330   18.2070   -9.2170 O   0  0  0  0  0  0  0  0  0  0  0  0
   -2.2160   18.2400   -6.3970 P   0  0  2  0  0  0  0  0  0  0  0  0
   -1.3640   16.8770   -6.1360 O   0  0  0  0  0  0  0  0  0  0  0  0
   -3.3820   17.9850   -7.3590 O   0  0  0  0  0  0  0  0  0  0  0  0
   -2.6470   18.9090   -5.0620 O   0  0  0  0  0  0  0  0  0  0  0  0
  2  1  1  6
  3  2  1  0
  2  4  2  0
  2  5  1  0
  6  3  1  0
  6  7  1  1
  6  8  2  0
  6  9  1  0
M  END
