mArh-5cms_J_9_J_Î²
     RDKit          3D

  9  8  0  0  0  0  0  0  0  0999 V2000
   -0.6280   21.3160   -8.2820 O   0  0  0  0  0  0  0  0  0  0  0  0
   -0.6000   19.6720   -8.2750 P   0  0  2  0  0  0  0  0  0  0  0  0
   -1.0390   19.1680   -6.8090 O   0  0  0  0  0  0  0  0  0  0  0  0
    0.8000   19.1340   -8.3370 O   0  0  0  0  0  0  0  0  0  0  0  0
   -1.7090   19.2640   -9.1940 O   0  0  0  0  0  0  0  0  0  0  0  0
   -1.8400   17.7970   -6.5570 P   0  0  2  0  0  0  0  0  0  0  0  0
   -1.0150   17.0500   -5.3950 O   0  0  0  0  0  0  0  0  0  0  0  0
   -1.6790   17.1240   -7.8770 O   0  0  0  0  0  0  0  0  0  0  0  0
   -3.2310   18.1110   -6.0810 O   0  0  0  0  0  0  0  0  0  0  0  0
  2  1  1  1
  3  2  1  0
  2  4  2  0
  2  5  1  0
  6  3  1  0
  6  7  1  1
  6  8  2  0
  6  9  1  0
M  END
