mArh-5cb5_F_1_F_β-5CB5_0_P_β
     RDKit          3D

  9  8  0  0  0  0  0  0  0  0999 V2000
   -1.6150   20.3630   -8.2870 O   0  0  0  0  0  0  0  0  0  0  0  0
   -0.2670   19.6220   -7.8860 P   0  0  0  0  0  0  0  0  0  0  0  0
   -0.4390   19.0680   -6.4440 O   0  0  0  0  0  0  0  0  0  0  0  0
    0.1650   18.6410   -8.8920 O   0  0  0  0  0  0  0  0  0  0  0  0
    0.7360   20.8550   -7.7550 O   0  0  0  0  0  0  0  0  0  0  0  0
   -1.6790   18.2820   -5.8750 P   0  0  0  0  0  0  0  0  0  0  0  0
   -1.0910   17.1130   -4.9720 O   0  0  0  0  0  0  0  0  0  0  0  0
   -2.6630   17.8100   -6.8820 O   0  0  0  0  0  0  0  0  0  0  0  0
   -2.2690   19.3270   -4.8390 O   0  0  0  0  0  0  0  0  0  0  0  0
  1  2  1  0
  2  3  1  0
  2  4  2  0
  2  5  1  0
  3  6  1  0
  6  7  1  0
  6  8  2  0
  6  9  1  0
M  END
