mArh-5cb5_R_0_R_γ-5CB3_0_A_α
     RDKit          3D

 21 22  0  0  0  0  0  0  0  0999 V2000
   -0.8230   12.4520   -4.1440 O   0  0  0  0  0  0  0  0  0  0  0  0
   -0.9880   13.8520   -4.2220 C   0  0  1  0  0  0  0  0  0  0  0  0
   -0.7550   14.5670   -2.9000 C   0  0  0  0  0  0  0  0  0  0  0  0
    0.0820   14.4830   -5.0780 C   0  0  2  0  0  0  0  0  0  0  0  0
    1.3460   13.9030   -4.7610 O   0  0  0  0  0  0  0  0  0  0  0  0
   -0.1800   15.8480   -3.2270 O   0  0  0  0  0  0  0  0  0  0  0  0
   -0.1120   15.9350   -4.6640 C   0  0  1  0  0  0  0  0  0  0  0  0
    1.0120   16.8820   -5.0340 C   0  0  0  0  0  0  0  0  0  0  0  0
    0.7490   18.1180   -5.8980 C   0  0  0  0  0  0  0  0  0  0  0  0
   -0.6980   18.4230   -6.2920 C   0  0  0  0  0  0  0  0  0  0  0  0
   -0.7640   19.2620   -7.5830 C   0  0  0  0  0  0  0  0  0  0  0  0
   -0.8980   20.7720   -7.3690 C   0  0  0  0  0  0  0  0  0  0  0  0
   -1.8210   21.4990   -8.3620 C   0  0  0  0  0  0  0  0  0  0  0  0
   -3.1140   21.9800   -7.7070 C   0  0  2  0  0  0  0  0  0  0  0  0
   -4.1070   20.9630   -7.6710 O   0  0  0  0  0  0  0  0  0  0  0  0
   -3.8950   23.1770   -8.2670 C   0  0  1  0  0  0  0  0  0  0  0  0
   -4.2050   23.1800   -9.6490 O   0  0  0  0  0  0  0  0  0  0  0  0
   -5.0300   21.6470   -6.8470 C   0  0  1  0  0  0  0  0  0  0  0  0
   -5.1760   23.0470   -7.4470 C   0  0  1  0  0  0  0  0  0  0  0  0
   -6.2640   20.9890   -6.8010 O   0  0  0  0  0  0  0  0  0  0  0  0
   -5.3260   24.0560   -6.4590 O   0  0  0  0  0  0  0  0  0  0  0  0
  2  1  1  1
  2  3  1  0
  2  4  1  0
  4  5  1  1
  3  6  1  0
  4  7  1  0
  6  7  1  0
  7  8  1  1
  8  9  1  0
  9 10  1  0
 10 11  1  0
 11 12  1  0
 12 13  1  0
 14 13  1  6
 14 15  1  0
 14 16  1  0
 16 17  1  6
 15 18  1  0
 16 19  1  0
 18 19  1  0
 18 20  1  6
 19 21  1  1
M  END
