mArh-5cms_L_11_L_γ-6MEA_0_A_α
     RDKit          3D

 21 22  0  0  0  0  0  0  0  0999 V2000
    0.4390   12.3710   -4.0840 O   0  0  0  0  0  0  0  0  0  0  0  0
   -0.1680   13.6530   -4.0610 C   0  0  1  0  0  0  0  0  0  0  0  0
    0.4540   14.5750   -3.0390 C   0  0  0  0  0  0  0  0  0  0  0  0
    0.0680   14.4200   -5.3480 C   0  0  2  0  0  0  0  0  0  0  0  0
    1.3220   14.0290   -5.8890 O   0  0  0  0  0  0  0  0  0  0  0  0
    0.1650   15.9100   -3.4720 O   0  0  0  0  0  0  0  0  0  0  0  0
   -0.1050   15.8860   -4.8900 C   0  0  1  0  0  0  0  0  0  0  0  0
    0.7580   16.9950   -5.5020 C   0  0  0  0  0  0  0  0  0  0  0  0
    0.0610   18.1690   -6.2100 C   0  0  0  0  0  0  0  0  0  0  0  0
   -1.3320   18.5360   -5.6680 C   0  0  0  0  0  0  0  0  0  0  0  0
   -2.1320   19.4570   -6.6080 C   0  0  0  0  0  0  0  0  0  0  0  0
   -1.3220   20.2690   -7.6390 C   0  0  0  0  0  0  0  0  0  0  0  0
   -1.7690   21.7410   -7.7820 C   0  0  0  0  0  0  0  0  0  0  0  0
   -3.2360   21.9680   -8.2120 C   0  0  1  0  0  0  0  0  0  0  0  0
   -4.0720   21.1340   -7.3820 O   0  0  0  0  0  0  0  0  0  0  0  0
   -3.7580   23.4130   -8.0210 C   0  0  1  0  0  0  0  0  0  0  0  0
   -4.5670   23.9120   -9.0830 O   0  0  0  0  0  0  0  0  0  0  0  0
   -5.1350   21.9410   -6.8850 C   0  0  2  0  0  0  0  0  0  0  0  0
   -4.5220   23.3090   -6.7090 C   0  0  2  0  0  0  0  0  0  0  0  0
   -5.5980   21.4860   -5.6260 O   0  0  0  0  0  0  0  0  0  0  0  0
   -5.5140   24.3150   -6.5170 O   0  0  0  0  0  0  0  0  0  0  0  0
  2  1  1  6
  2  3  1  0
  2  4  1  0
  4  5  1  1
  3  6  1  0
  4  7  1  0
  6  7  1  0
  7  8  1  6
  8  9  1  0
  9 10  1  0
 10 11  1  0
 11 12  1  0
 12 13  1  0
 14 13  1  1
 14 15  1  0
 14 16  1  0
 16 17  1  6
 15 18  1  0
 16 19  1  0
 18 19  1  0
 18 20  1  1
 19 21  1  6
M  END
