
     RDKit          3D

  8  8  0  0  0  0  0  0  0  0999 V2000
   -7.1890   14.6190   -1.2570 C   0  0  0  0  0  0  0  0  0  0  0  0
   -5.6790   14.6130   -1.0270 C   0  0  0  0  0  0  0  0  0  0  0  0
   -4.8170   14.5360   -2.1130 C   0  0  0  0  0  0  0  0  0  0  0  0
   -3.4490   14.5230   -1.8680 C   0  0  0  0  0  0  0  0  0  0  0  0
   -2.9760   14.5860   -0.6410 N   0  0  0  0  0  0  0  0  0  0  0  0
   -3.7770   14.6580    0.4040 C   0  0  0  0  0  0  0  0  0  0  0  0
   -3.2100   14.7380    1.7340 N   0  0  0  0  0  0  0  0  0  0  0  0
   -5.1560   14.6810    0.2560 C   0  0  0  0  0  0  0  0  0  0  0  0
  1  2  1  0
  2  3  2  0
  2  8  1  0
  3  4  1  0
  8  6  2  0
  4  5  2  0
  5  6  1  0
  6  7  1  0
M  END
