mArh-3vfq_B_0_A_γ-5CB5_0_A_α
     RDKit          3D

 21 22  0  0  0  0  0  0  0  0999 V2000
   -4.5740   12.0590   -2.1440 O   0  0  0  0  0  0  0  0  0  0  0  0
   -4.4750   13.4340   -2.5100 C   0  0  1  0  0  0  0  0  0  0  0  0
   -3.4990   14.2400   -1.6570 C   0  0  0  0  0  0  0  0  0  0  0  0
   -3.8620   13.6150   -3.8880 C   0  0  2  0  0  0  0  0  0  0  0  0
   -2.7650   12.7130   -4.0160 O   0  0  0  0  0  0  0  0  0  0  0  0
   -2.8020   15.1620   -2.5450 O   0  0  0  0  0  0  0  0  0  0  0  0
   -3.4990   15.1030   -3.8070 C   0  0  1  0  0  0  0  0  0  0  0  0
   -2.7440   15.7080   -5.0600 C   0  0  0  0  0  0  0  0  0  0  0  0
   -1.9860   17.0790   -5.0060 C   0  0  0  0  0  0  0  0  0  0  0  0
   -2.2500   18.0900   -6.1750 C   0  0  0  0  0  0  0  0  0  0  0  0
   -2.2430   19.6300   -5.8200 C   0  0  0  0  0  0  0  0  0  0  0  0
   -3.5960   20.3860   -6.0200 C   0  0  0  0  0  0  0  0  0  0  0  0
   -3.6420   21.7240   -6.4590 O   0  0  0  0  0  0  0  0  0  0  0  0
   -4.7560   21.9990   -7.2910 C   0  0  2  0  0  0  0  0  0  0  0  0
   -4.6160   21.2760   -8.4940 O   0  0  0  0  0  0  0  0  0  0  0  0
   -4.6480   23.4810   -7.6640 C   0  0  2  0  0  0  0  0  0  0  0  0
   -5.8660   24.0730   -8.1740 O   0  0  0  0  0  0  0  0  0  0  0  0
   -3.4920   21.9200   -9.0970 C   0  0  1  0  0  0  0  0  0  0  0  0
   -3.7100   23.4150   -8.8540 C   0  0  1  0  0  0  0  0  0  0  0  0
   -2.1860   21.4180   -8.4900 C   0  0  0  0  0  0  0  0  0  0  0  0
   -4.3320   24.0700   -9.9470 O   0  0  0  0  0  0  0  0  0  0  0  0
  2  1  1  1
  2  3  1  0
  2  4  1  0
  4  5  1  1
  3  6  1  0
  4  7  1  0
  6  7  1  0
  7  8  1  6
  8  9  1  0
  9 10  1  0
 10 11  1  0
 11 12  1  0
 12 13  1  0
 14 13  1  1
 14 15  1  0
 14 16  1  0
 16 17  1  6
 15 18  1  0
 16 19  1  0
 18 19  1  0
 18 20  1  1
 19 21  1  6
M  END
