mArh-5cms_G_3_G_Î³
     RDKit          3D

 10 11  0  0  0  0  0  0  0  0999 V2000
   -1.7560   14.8140   -1.8330 N   0  0  0  0  0  0  0  0  0  0  0  0
   -1.4340   15.0040   -0.5580 C   0  0  0  0  0  0  0  0  0  0  0  0
   -3.1140   14.9080   -1.9880 C   0  0  0  0  0  0  0  0  0  0  0  0
   -0.2660   15.0250    0.1640 N   0  0  0  0  0  0  0  0  0  0  0  0
   -2.7250   15.2290    0.1290 C   0  0  0  0  0  0  0  0  0  0  0  0
   -3.7260   15.1600   -0.7840 N   0  0  0  0  0  0  0  0  0  0  0  0
   -0.2700   15.2350    1.5150 C   0  0  0  0  0  0  0  0  0  0  0  0
   -2.6360   15.4620    1.5820 C   0  0  0  0  0  0  0  0  0  0  0  0
   -1.4250   15.4530    2.2160 N   0  0  0  0  0  0  0  0  0  0  0  0
   -3.7830   15.6690    2.2240 N   0  0  0  0  0  0  0  0  0  0  0  0
  1  2  1  0
  1  3  1  0
  4  2  1  0
  2  5  1  0
  6  3  1  0
  7  4  1  0
  8  5  1  0
  5  6  1  0
  9  7  1  0
  9  8  1  0
  8 10  1  0
M  END
