mArh-6mea_A_0_A_α-5LW0_0_A_β
     RDKit          3D

 21 21  0  0  0  0  0  0  0  0999 V2000
   -2.0830   21.8950   -8.2820 C   0  0  0  0  0  0  0  0  0  0  0  0
   -3.3720   22.3760   -7.7870 C   0  0  2  0  0  0  0  0  0  0  0  0
   -4.5110   21.6480   -8.0550 O   0  0  0  0  0  0  0  0  0  0  0  0
   -3.8630   23.7420   -8.1060 C   0  0  1  0  0  0  0  0  0  0  0  0
   -4.1420   24.0230   -9.4350 O   0  0  0  0  0  0  0  0  0  0  0  0
   -5.3140   22.1950   -7.1300 C   0  0  2  0  0  0  0  0  0  0  0  0
   -5.2090   23.7660   -7.4440 C   0  0  1  0  0  0  0  0  0  0  0  0
   -4.5960   22.2600   -6.0260 O   0  0  0  0  0  0  0  0  0  0  0  0
   -5.3910   24.4290   -6.3060 O   0  0  0  0  0  0  0  0  0  0  0  0
   -4.4520   20.9610   -5.5530 C   0  0  0  0  0  0  0  0  0  0  0  0
   -3.1700   20.5260   -6.1170 C   0  0  0  0  0  0  0  0  0  0  0  0
   -2.0630   20.0670   -5.3340 C   0  0  0  0  0  0  0  0  0  0  0  0
   -2.2760   18.7250   -4.8290 O   0  0  0  0  0  0  0  0  0  0  0  0
   -1.9800   17.5350   -5.8920 P   0  0  0  0  0  0  0  0  0  0  0  0
   -1.8610   18.4940   -7.1050 O   0  0  0  0  0  0  0  0  0  0  0  0
   -0.2850   17.1690   -5.9290 O   0  0  0  0  0  0  0  0  0  0  0  0
   -3.0020   16.6880   -6.7600 O   0  0  0  0  0  0  0  0  0  0  0  0
   -0.4250   19.0900   -7.7510 P   0  0  0  0  0  0  0  0  0  0  0  0
   -1.2160   19.7310   -8.8660 O   0  0  0  0  0  0  0  0  0  0  0  0
    0.2330   18.2160   -9.0140 O   0  0  0  0  0  0  0  0  0  0  0  0
    0.3240   20.3430   -7.2980 O   0  0  0  0  0  0  0  0  0  0  0  0
  2  1  1  6
  2  3  1  0
  2  4  1  0
  4  5  1  6
  3  6  1  0
  4  7  1  0
  6  7  1  0
  6  8  1  1
  7  9  1  1
  8 10  1  0
 10 11  1  0
 11 12  1  0
 12 13  1  0
 13 14  1  0
 14 15  1  0
 14 16  1  0
 14 17  1  0
 15 18  1  0
 18 19  1  0
 18 20  1  0
 18 21  1  0
M  CHG  2  17  -1  20  -1
M  END
