mArh-4j4z_0_A_α-mArh-5cms_C_2_C_γ
     RDKit          3D

 20 21  0  0  0  0  0  0  0  0999 V2000
   -1.5630   17.8340   -4.0000 O   0  0  0  0  0  0  0  0  0  0  0  0
   -1.3860   16.9520   -5.1010 S   0  0  2  0  0  0  0  0  0  0  0  0
   -0.0430   16.5180   -5.6660 N   0  0  0  0  0  0  0  0  0  0  0  0
   -1.9050   17.6990   -6.4340 O   0  0  0  0  0  0  0  0  0  0  0  0
   -2.5530   15.6140   -5.0680 C   0  0  0  0  0  0  0  0  0  0  0  0
    0.6350   15.5960   -4.7360 C   0  0  1  0  0  0  0  0  0  0  0  0
    0.1910   15.7680   -3.3720 O   0  0  0  0  0  0  0  0  0  0  0  0
    0.2720   14.1510   -5.1730 C   0  0  1  0  0  0  0  0  0  0  0  0
    1.4580   13.4070   -5.5080 O   0  0  0  0  0  0  0  0  0  0  0  0
   -0.7870   14.7570   -3.0890 C   0  0  0  0  0  0  0  0  0  0  0  0
   -0.3940   13.5600   -3.9460 C   0  0  1  0  0  0  0  0  0  0  0  0
   -1.3990   12.5340   -4.1010 N   0  0  0  0  0  0  0  0  0  0  0  0
   -2.5190   12.4860   -3.1620 C   0  0  0  0  0  0  0  0  0  0  0  0
   -0.7230   11.2500   -4.1200 C   0  0  0  0  0  0  0  0  0  0  0  0
   -3.5830   11.4200   -3.5170 C   0  0  0  0  0  0  0  0  0  0  0  0
   -1.5910   10.0740   -3.7290 C   0  0  0  0  0  0  0  0  0  0  0  0
   -3.0130   10.1900   -4.0760 N   0  0  0  0  0  0  0  0  0  0  0  0
   -3.7760    9.0320   -3.6210 C   0  0  0  0  0  0  0  0  0  0  0  0
   -3.4980    7.7440   -4.3760 C   0  0  0  0  0  0  0  0  0  0  0  0
   -3.5570    6.6850   -3.4350 O   0  0  0  0  0  0  0  0  0  0  0  0
  1  2  2  0
  2  3  2  0
  2  4  1  0
  2  5  1  1
  6  3  1  6
  6  7  1  0
  6  8  1  0
  8  9  1  1
  7 10  1  0
  8 11  1  0
 10 11  1  0
 11 12  1  6
 12 13  1  0
 12 14  1  0
 13 15  1  0
 14 16  1  0
 15 17  1  0
 16 17  1  0
 17 18  1  0
 18 19  1  0
 19 20  1  0
M  END
