mArh-5l9k_A_0_A_α-mArh-x0766_0_A_α
     RDKit          3D

 29 31  0  0  0  0  0  0  0  0999 V2000
   -2.4260   21.6180   -8.9530 C   0  0  0  0  0  0  0  0  0  0  0  0
   -3.1640   22.5750   -8.0790 C   0  0  2  0  0  0  0  0  0  0  0  0
   -3.7050   21.7450   -7.0870 O   0  0  0  0  0  0  0  0  0  0  0  0
   -4.3320   23.4040   -8.6040 C   0  0  1  0  0  0  0  0  0  0  0  0
   -5.2830   22.7220   -9.4340 O   0  0  0  0  0  0  0  0  0  0  0  0
   -4.8160   22.3950   -6.5190 C   0  0  1  0  0  0  0  0  0  0  0  0
   -4.9830   23.7230   -7.2570 C   0  0  2  0  0  0  0  0  0  0  0  0
   -5.8300   21.4610   -6.7330 O   0  0  0  0  0  0  0  0  0  0  0  0
   -6.3450   24.0930   -7.3540 O   0  0  0  0  0  0  0  0  0  0  0  0
   -4.9780   20.4050   -7.1920 C   0  0  0  0  0  0  0  0  0  0  0  0
   -3.6140   20.4260   -6.4320 C   0  0  0  0  0  0  0  0  0  0  0  0
   -2.6930   19.1950   -6.6440 C   0  0  0  0  0  0  0  0  0  0  0  0
   -1.6850   18.8890   -5.5240 C   0  0  0  0  0  0  0  0  0  0  0  0
   -1.3460   17.3970   -5.3070 C   0  0  0  0  0  0  0  0  0  0  0  0
   -2.5780   16.5020   -5.0560 C   0  0  0  0  0  0  0  0  0  0  0  0
   -2.3190   15.0570   -4.5900 C   0  0  0  0  0  0  0  0  0  0  0  0
   -2.2510   14.8870   -3.0750 C   0  0  0  0  0  0  0  0  0  0  0  0
   -1.1170   14.7380   -2.2780 C   0  0  0  0  0  0  0  0  0  0  0  0
   -3.6940   14.8740   -2.1250 S   0  0  0  0  0  0  0  0  0  0  0  0
    0.3200   14.7250   -2.7740 C   0  0  1  0  0  0  0  0  0  0  0  0
   -1.4780   14.6080   -0.8910 C   0  0  0  0  0  0  0  0  0  0  0  0
   -2.8300   14.6660   -0.6750 C   0  0  0  0  0  0  0  0  0  0  0  0
    0.9480   13.3820   -3.2230 C   0  0  1  0  0  0  0  0  0  0  0  0
    0.5490   15.6660   -3.9510 C   0  0  0  0  0  0  0  0  0  0  0  0
    0.4370   12.2170   -2.4290 C   0  0  0  0  0  0  0  0  0  0  0  0
    0.9750   13.4390   -4.7380 C   0  0  0  0  0  0  0  0  0  0  0  0
    1.4120   14.8810   -4.9060 C   0  0  0  0  0  0  0  0  0  0  0  0
    0.4570   12.2950   -1.2160 O   0  0  0  0  0  0  0  0  0  0  0  0
   -0.0220   11.1300   -3.0740 O   0  0  0  0  0  0  0  0  0  0  0  0
  2  1  1  6
  2  3  1  0
  2  4  1  0
  4  5  1  6
  3  6  1  0
  4  7  1  0
  6  7  1  0
  6  8  1  6
  7  9  1  6
  8 10  1  0
 10 11  1  0
 11 12  1  0
 12 13  1  0
 13 14  1  0
 14 15  1  0
 15 16  1  0
 16 17  1  0
 17 18  2  0
 17 19  1  0
 20 18  1  6
 18 21  1  0
 19 22  1  0
 21 22  2  0
 20 23  1  0
 20 24  1  0
 23 25  1  6
 23 26  1  0
 24 27  1  0
 26 27  1  0
 25 28  2  0
 25 29  1  0
M  END
