mArh-5fud_A_0_A_α-mArh-x0587_0_A_α
     RDKit          3D

 31 32  0  0  0  0  0  0  0  0999 V2000
    0.0190   19.1020   -6.6810 O   0  0  0  0  0  0  0  0  0  0  0  0
   -0.4590   19.7320   -7.8920 S   0  0  0  0  0  0  0  0  0  0  0  0
    0.4730   20.7210   -8.3870 O   0  0  0  0  0  0  0  0  0  0  0  0
   -0.9560   18.7360   -8.8210 O   0  0  0  0  0  0  0  0  0  0  0  0
   -1.8410   20.7110   -7.2780 C   0  0  1  0  0  0  0  0  0  0  0  0
   -2.4820   21.6000   -8.3620 C   0  0  0  0  0  0  0  0  0  0  0  0
   -2.7580   19.7780   -6.4720 C   0  0  0  0  0  0  0  0  0  0  0  0
   -1.8770   18.8970   -5.5590 C   0  0  0  0  0  0  0  0  0  0  0  0
   -3.8950   22.0100   -8.1410 N   0  0  0  0  0  0  0  0  0  0  0  0
   -1.7260   17.4400   -6.0280 C   0  0  0  0  0  0  0  0  0  0  0  0
   -4.4740   22.5620   -9.3760 C   0  0  0  0  0  0  0  0  0  0  0  0
   -3.9730   23.0950   -7.1470 C   0  0  0  0  0  0  0  0  0  0  0  0
   -2.8320   16.3770   -5.7380 C   0  0  0  0  0  0  0  0  0  0  0  0
   -5.9610   22.8660   -9.2110 C   0  0  0  0  0  0  0  0  0  0  0  0
   -5.4250   23.5060   -6.9300 C   0  0  0  0  0  0  0  0  0  0  0  0
   -2.8860   15.8370   -4.2980 C   0  0  0  0  0  0  0  0  0  0  0  0
   -6.1960   23.7760   -8.1240 O   0  0  0  0  0  0  0  0  0  0  0  0
   -4.1040   14.9800   -3.9170 C   0  0  0  0  0  0  0  0  0  0  0  0
   -4.6960   15.4810   -2.6980 O   0  0  0  0  0  0  0  0  0  0  0  0
   -4.5200   14.5730   -1.6000 C   0  0  0  0  0  0  0  0  0  0  0  0
   -3.2130   14.7020   -1.2060 F   0  0  0  0  0  0  0  0  0  0  0  0
   -4.6130   13.3580   -2.1850 F   0  0  0  0  0  0  0  0  0  0  0  0
   -5.5260   14.6540   -0.4320 C   0  0  0  0  0  0  0  0  0  0  0  0
   -6.8460   14.4260   -0.6790 N   0  0  0  0  0  0  0  0  0  0  0  0
   -5.0440   14.9450    0.7950 N   0  0  0  0  0  0  0  0  0  0  0  0
   -7.6940   14.5050    0.3830 C   0  0  0  0  0  0  0  0  0  0  0  0
   -5.9410   15.0110    1.8060 C   0  0  0  0  0  0  0  0  0  0  0  0
   -7.2900   14.8000    1.6650 C   0  0  0  0  0  0  0  0  0  0  0  0
   -8.2560   14.8940    2.7760 C   0  0  0  0  0  0  0  0  0  0  0  0
   -7.7600   15.0050    4.0420 N   0  0  0  0  0  0  0  0  0  0  0  0
   -9.4640   14.8920    2.5530 O   0  0  0  0  0  0  0  0  0  0  0  0
  1  2  2  0
  2  3  2  0
  2  4  1  0
  2  5  1  0
  5  6  1  6
  5  7  1  0
  7  8  1  0
  6  9  1  0
  8 10  1  0
  9 11  1  0
  9 12  1  0
 10 13  1  0
 11 14  1  0
 12 15  1  0
 13 16  1  0
 14 17  1  0
 15 17  1  0
 16 18  1  0
 18 19  1  0
 19 20  1  0
 20 21  1  0
 20 22  1  0
 20 23  1  0
 23 24  2  0
 23 25  1  0
 24 26  1  0
 25 27  2  0
 26 28  2  0
 27 28  1  0
 28 29  1  0
 29 30  1  0
 29 31  2  0
M  CHG  1   4  -1
M  END
