mArh-2fav_B_0_B_δ-mArh-5cb5_I_0_I_α
     RDKit          3D

 24 26  0  0  0  0  0  0  0  0999 V2000
   -4.1160   15.1900    1.1360 N   0  0  0  0  0  0  0  0  0  0  0  0
   -2.9760   14.4250    0.6680 C   0  0  1  0  0  0  0  0  0  0  0  0
   -2.7370   14.3600   -0.8740 C   0  0  2  0  0  0  0  0  0  0  0  0
   -1.8440   14.9980    1.3770 N   0  0  0  0  0  0  0  0  0  0  0  0
   -1.2730   14.6270   -1.0830 C   0  0  2  0  0  0  0  0  0  0  0  0
   -3.2460   15.2970   -1.9040 N   0  0  0  0  0  0  0  0  0  0  0  0
   -0.5910   14.2710    1.1730 C   0  0  0  0  0  0  0  0  0  0  0  0
   -1.1950   14.2680   -2.4800 N   0  0  0  0  0  0  0  0  0  0  0  0
   -2.3040   15.0480   -3.0560 C   0  0  2  0  0  0  0  0  0  0  0  0
   -0.4350   13.8440   -0.2190 N   0  0  0  0  0  0  0  0  0  0  0  0
   -1.7980   16.3820   -3.6380 C   0  0  0  0  0  0  0  0  0  0  0  0
   -2.1250   16.8780   -5.0760 C   0  0  0  0  0  0  0  0  0  0  0  0
   -1.6860   18.3560   -5.3370 C   0  0  0  0  0  0  0  0  0  0  0  0
   -2.5110   19.1330   -6.4030 C   0  0  0  0  0  0  0  0  0  0  0  0
   -3.0970   20.4990   -5.9290 C   0  0  0  0  0  0  0  0  0  0  0  0
   -4.5190   20.6040   -6.1930 O   0  0  0  0  0  0  0  0  0  0  0  0
   -4.9030   21.4350   -7.3030 C   0  0  2  0  0  0  0  0  0  0  0  0
   -4.2640   20.9640   -8.4720 O   0  0  0  0  0  0  0  0  0  0  0  0
   -4.4780   22.9060   -7.0950 C   0  0  2  0  0  0  0  0  0  0  0  0
   -5.6090   23.7940   -6.9360 O   0  0  0  0  0  0  0  0  0  0  0  0
   -3.2950   21.9130   -8.8950 C   0  0  1  0  0  0  0  0  0  0  0  0
   -3.8110   23.2590   -8.4310 C   0  0  1  0  0  0  0  0  0  0  0  0
   -1.9190   21.5710   -8.3450 C   0  0  0  0  0  0  0  0  0  0  0  0
   -4.7190   23.8290   -9.3730 O   0  0  0  0  0  0  0  0  0  0  0  0
  2  1  1  6
  2  3  1  0
  2  4  1  0
  3  5  1  0
  3  6  1  6
  4  7  1  0
  5  8  1  6
  6  9  1  0
  8  9  1  0
  5 10  1  0
  7 10  1  0
  9 11  1  1
 11 12  1  0
 12 13  1  0
 13 14  1  0
 14 15  1  0
 15 16  1  0
 17 16  1  1
 17 18  1  0
 17 19  1  0
 19 20  1  6
 18 21  1  0
 19 22  1  0
 21 22  1  0
 21 23  1  1
 22 24  1  6
M  END
