mArh-4iqy_A_0_A_γ-5CB5_0_R_δ
     RDKit          3D

 17 19  0  0  0  0  0  0  0  0999 V2000
   -1.2650   12.6000   -3.4790 O   0  0  0  0  0  0  0  0  0  0  0  0
   -0.5050   13.7810   -3.2490 C   0  0  2  0  0  0  0  0  0  0  0  0
   -1.2490   14.9750   -2.6200 C   0  0  2  0  0  0  0  0  0  0  0  0
    0.0720   14.2820   -4.5730 C   0  0  2  0  0  0  0  0  0  0  0  0
    1.4620   14.0050   -4.6520 O   0  0  0  0  0  0  0  0  0  0  0  0
   -0.7130   16.1510   -3.2890 O   0  0  0  0  0  0  0  0  0  0  0  0
   -0.3250   15.7630   -4.6230 C   0  0  1  0  0  0  0  0  0  0  0  0
   -1.1240   15.2300   -1.0920 C   0  0  1  0  0  0  0  0  0  0  0  0
   -2.8000   14.8600   -2.7860 C   0  0  0  0  0  0  0  0  0  0  0  0
    0.7320   16.7350   -5.1390 C   0  0  0  0  0  0  0  0  0  0  0  0
   -2.5860   15.5000   -0.6600 C   0  0  1  0  0  0  0  0  0  0  0  0
   -3.3830   14.5780   -1.4520 N   0  0  0  0  0  0  0  0  0  0  0  0
   -0.4320   14.2530   -0.2550 N   0  0  0  0  0  0  0  0  0  0  0  0
   -0.4400   14.6790    1.1200 C   0  0  0  0  0  0  0  0  0  0  0  0
   -2.7160   15.5230    0.8860 C   0  0  1  0  0  0  0  0  0  0  0  0
   -4.0560   15.2400    1.3580 N   0  0  0  0  0  0  0  0  0  0  0  0
   -1.7970   14.6870    1.6210 N   0  0  0  0  0  0  0  0  0  0  0  0
  2  1  1  6
  2  3  1  0
  2  4  1  0
  4  5  1  1
  3  6  1  0
  4  7  1  0
  6  7  1  0
  3  8  1  0
  3  9  1  1
  7 10  1  1
  8 11  1  0
  9 12  1  0
 11 12  1  6
  8 13  1  1
 13 14  1  0
 11 15  1  0
 15 16  1  6
 14 17  1  0
 15 17  1  0
M  END
