mArh-x0855_0_A_α-5CB5_0_B_δ
     RDKit          3D

 22 24  0  0  0  0  0  0  0  0999 V2000
    2.1080   12.5540   -2.8300 O   0  0  0  0  0  0  0  0  0  0  0  0
    0.7720   12.2200   -3.1940 C   0  0  0  0  0  0  0  0  0  0  0  0
    0.6420   12.4040   -4.7170 C   0  0  0  0  0  0  0  0  0  0  0  0
    0.5950   10.8540   -2.8460 O   0  0  0  0  0  0  0  0  0  0  0  0
   -0.1470   13.1150   -2.3700 C   0  0  0  0  0  0  0  0  0  0  0  0
   -1.4290   13.5480   -3.0970 C   0  0  0  0  0  0  0  0  0  0  0  0
   -0.4060   11.5780   -5.2560 N   0  0  0  0  0  0  0  0  0  0  0  0
   -0.3030   10.6370   -6.2360 C   0  0  0  0  0  0  0  0  0  0  0  0
   -1.6600   11.7000   -4.7680 N   0  0  0  0  0  0  0  0  0  0  0  0
   -2.0950   14.6020   -2.3590 N   0  0  0  0  0  0  0  0  0  0  0  0
   -1.5580   10.1180   -6.3710 C   0  0  0  0  0  0  0  0  0  0  0  0
   -2.3620   10.8000   -5.4550 C   0  0  0  0  0  0  0  0  0  0  0  0
   -1.9200   14.5300   -0.9300 C   0  0  2  0  0  0  0  0  0  0  0  0
   -3.5720   14.4850   -2.4980 C   0  0  0  0  0  0  0  0  0  0  0  0
   -2.1290    8.7730   -7.5230 Br  0  0  0  0  0  0  0  0  0  0  0  0
   -3.1770   15.2480   -0.4940 C   0  0  1  0  0  0  0  0  0  0  0  0
   -4.1370   14.4020   -1.1470 N   0  0  0  0  0  0  0  0  0  0  0  0
   -0.6110   14.9620   -0.4220 N   0  0  0  0  0  0  0  0  0  0  0  0
   -0.6470   15.1480    1.0070 C   0  0  0  0  0  0  0  0  0  0  0  0
   -3.0840   15.4420    1.0090 C   0  0  1  0  0  0  0  0  0  0  0  0
   -4.2580   15.0080    1.7130 N   0  0  0  0  0  0  0  0  0  0  0  0
   -1.9340   14.7480    1.5670 N   0  0  0  0  0  0  0  0  0  0  0  0
  2  1  1  0
  2  3  1  0
  2  4  1  0
  2  5  1  0
  5  6  1  0
  3  7  1  0
  7  8  1  0
  7  9  1  0
  6 10  1  0
  8 11  2  0
  9 12  2  0
 11 12  1  0
 10 13  1  0
 10 14  1  0
 11 15  1  0
 13 16  1  0
 14 17  1  0
 16 17  1  1
 13 18  1  6
 18 19  1  0
 16 20  1  0
 20 21  1  1
 19 22  1  0
 20 22  1  0
M  END
