mArh-x0849_0_A_α-mArh-6woj_B_0_B_α
     RDKit          3D

 25 27  0  0  0  0  0  0  0  0999 V2000
   -1.5530   15.7250   -3.2110 Br  0  0  0  0  0  0  0  0  0  0  0  0
   -2.5780   15.5270   -1.6220 C   0  0  0  0  0  0  0  0  0  0  0  0
   -1.8250   15.1260   -0.5780 C   0  0  0  0  0  0  0  0  0  0  0  0
   -3.8830   15.8280   -1.8500 C   0  0  0  0  0  0  0  0  0  0  0  0
   -2.8810   15.9680   -3.0880 C   0  0  0  0  0  0  0  0  0  0  0  0
   -2.3540   14.9270    0.6360 C   0  0  0  0  0  0  0  0  0  0  0  0
   -4.2890   15.5510   -0.4510 C   0  0  0  0  0  0  0  0  0  0  0  0
   -0.4930   14.9220   -0.7930 C   0  0  0  0  0  0  0  0  0  0  0  0
   -3.1550   16.0760   -4.6530 C   0  0  0  0  0  0  0  0  0  0  0  0
   -3.6290   15.1480    0.7050 N   0  0  0  0  0  0  0  0  0  0  0  0
   -1.6180   14.5310    1.6750 N   0  0  0  0  0  0  0  0  0  0  0  0
    0.2830   14.5250    0.2000 C   0  0  0  0  0  0  0  0  0  0  0  0
   -2.5090   17.2330   -5.5890 C   0  0  0  0  0  0  0  0  0  0  0  0
   -0.2960   14.3330    1.4390 C   0  0  0  0  0  0  0  0  0  0  0  0
   -2.0100   18.7060   -5.2150 C   0  0  0  0  0  0  0  0  0  0  0  0
   -2.6790   19.9760   -5.9470 C   0  0  0  0  0  0  0  0  0  0  0  0
   -3.7320   20.8890   -5.3590 O   0  0  0  0  0  0  0  0  0  0  0  0
   -4.5460   21.4560   -6.4720 C   0  0  2  0  0  0  0  0  0  0  0  0
   -3.8380   21.1010   -7.6380 O   0  0  0  0  0  0  0  0  0  0  0  0
   -4.7180   22.9940   -6.8210 C   0  0  1  0  0  0  0  0  0  0  0  0
   -5.0390   23.9290   -5.8110 O   0  0  0  0  0  0  0  0  0  0  0  0
   -2.7640   22.0130   -7.4470 C   0  0  2  0  0  0  0  0  0  0  0  0
   -3.4400   23.3860   -7.5400 C   0  0  1  0  0  0  0  0  0  0  0  0
   -1.5710   21.6500   -8.2700 C   0  0  0  0  0  0  0  0  0  0  0  0
   -3.8120   23.8250   -8.8550 O   0  0  0  0  0  0  0  0  0  0  0  0
  1  2  1  0
  2  3  2  0
  2  4  1  0
  4  5  1  0
  3  6  1  0
  4  7  2  0
  3  8  1  0
  5  9  1  0
  6 10  2  0
  7 10  1  0
  6 11  1  0
  8 12  2  0
  9 13  1  0
 11 14  2  0
 12 14  1  0
 13 15  1  0
 15 16  1  0
 16 17  1  0
 18 17  1  1
 18 19  1  0
 18 20  1  0
 20 21  1  1
 19 22  1  0
 20 23  1  0
 22 23  1  0
 22 24  1  6
 23 25  1  6
M  END
