mArh-5cms_G_3_G_β-5CB5_0_B_α
     RDKit          3D

 21 22  0  0  0  0  0  0  0  0999 V2000
   -1.0570   12.4980   -4.3010 O   0  0  0  0  0  0  0  0  0  0  0  0
   -1.1330   13.8960   -4.1120 C   0  0  1  0  0  0  0  0  0  0  0  0
   -0.7350   14.3610   -2.7160 C   0  0  0  0  0  0  0  0  0  0  0  0
   -0.1120   14.6270   -4.9530 C   0  0  2  0  0  0  0  0  0  0  0  0
    1.1560   13.9800   -4.8390 O   0  0  0  0  0  0  0  0  0  0  0  0
   -0.0880   15.6390   -2.8920 O   0  0  0  0  0  0  0  0  0  0  0  0
   -0.3010   15.9800   -4.2720 C   0  0  1  0  0  0  0  0  0  0  0  0
    0.5440   17.1910   -4.6480 C   0  0  0  0  0  0  0  0  0  0  0  0
    0.4350   17.6440   -6.1020 C   0  0  0  0  0  0  0  0  0  0  0  0
   -0.0250   19.0700   -6.3960 C   0  0  0  0  0  0  0  0  0  0  0  0
   -0.9770   19.1900   -7.5910 C   0  0  0  0  0  0  0  0  0  0  0  0
   -1.0390   20.5610   -8.2890 C   0  0  0  0  0  0  0  0  0  0  0  0
   -1.9900   21.6170   -7.6830 C   0  0  0  0  0  0  0  0  0  0  0  0
   -3.2090   21.9820   -8.5670 C   0  0  1  0  0  0  0  0  0  0  0  0
   -4.3110   21.1720   -8.1650 O   0  0  0  0  0  0  0  0  0  0  0  0
   -3.7380   23.4180   -8.4300 C   0  0  1  0  0  0  0  0  0  0  0  0
   -4.4990   23.9120   -9.5290 O   0  0  0  0  0  0  0  0  0  0  0  0
   -5.2030   21.9430   -7.3580 C   0  0  2  0  0  0  0  0  0  0  0  0
   -4.5680   23.3020   -7.1600 C   0  0  2  0  0  0  0  0  0  0  0  0
   -5.3780   21.3670   -6.0700 O   0  0  0  0  0  0  0  0  0  0  0  0
   -5.5730   24.2970   -6.9970 O   0  0  0  0  0  0  0  0  0  0  0  0
  2  1  1  1
  2  3  1  0
  2  4  1  0
  4  5  1  1
  3  6  1  0
  4  7  1  0
  6  7  1  0
  7  8  1  6
  8  9  1  0
  9 10  1  0
 10 11  1  0
 11 12  1  0
 12 13  1  0
 14 13  1  1
 14 15  1  0
 14 16  1  0
 16 17  1  6
 15 18  1  0
 16 19  1  0
 18 19  1  0
 18 20  1  1
 19 21  1  6
M  END
