
     RDKit          3D

 36 39  0  0  0  0  0  0  0  0999 V2000
   -2.8440   17.8440   -6.3290 P   0  0  0  0  0  0  0  0  0  0  0  0
   -1.1270   19.3780   -8.1870 P   0  0  0  0  0  0  0  0  0  0  0  0
   -0.5370   16.8460   -5.4690 C   0  0  0  0  0  0  0  0  0  0  0  0
   -1.8010   16.6510   -6.0770 O   0  0  0  0  0  0  0  0  0  0  0  0
   -0.2480   15.7020   -4.4660 C   0  0  1  0  0  0  0  0  0  0  0  0
   -0.9290   15.9670   -3.2310 O   0  0  0  0  0  0  0  0  0  0  0  0
   -0.7480   14.3250   -4.9220 C   0  0  1  0  0  0  0  0  0  0  0  0
    0.2040   13.3130   -4.6010 O   0  0  0  0  0  0  0  0  0  0  0  0
   -2.0140   14.1270   -4.1380 C   0  0  1  0  0  0  0  0  0  0  0  0
   -2.4810   12.7900   -3.9980 O   0  0  0  0  0  0  0  0  0  0  0  0
   -1.5350   14.7310   -2.8340 C   0  0  2  0  0  0  0  0  0  0  0  0
   -5.6340   21.8770   -7.1760 C   0  0  2  0  0  0  0  0  0  0  0  0
   -1.9360   15.6780    2.1850 N   0  0  0  0  0  0  0  0  0  0  0  0
   -3.3360   18.3340   -5.0050 O   0  0  0  0  0  0  0  0  0  0  0  0
   -0.9720   18.1560   -9.0380 O   0  0  0  0  0  0  0  0  0  0  0  0
   -6.9860   22.0260   -7.5810 O   0  0  0  0  0  0  0  0  0  0  0  0
   -0.8510   15.3990    1.4230 C   0  0  0  0  0  0  0  0  0  0  0  0
   -4.9470   23.2290   -7.2240 C   0  0  2  0  0  0  0  0  0  0  0  0
   -3.7930   17.4550   -7.4390 O   0  0  0  0  0  0  0  0  0  0  0  0
    0.0150   20.3020   -7.8430 O   0  0  0  0  0  0  0  0  0  0  0  0
   -5.8280   24.3120   -6.8690 O   0  0  0  0  0  0  0  0  0  0  0  0
   -4.4370   23.2840   -8.6400 C   0  0  2  0  0  0  0  0  0  0  0  0
   -0.9430   15.1850    0.1010 N   0  0  0  0  0  0  0  0  0  0  0  0
   -1.7990   19.0020   -6.7650 O   0  0  0  0  0  0  0  0  0  0  0  0
   -5.4700   23.6830   -9.5770 O   0  0  0  0  0  0  0  0  0  0  0  0
   -2.1340   15.2170   -0.5510 C   0  0  0  0  0  0  0  0  0  0  0  0
   -4.0350   21.8420   -8.8950 C   0  0  2  0  0  0  0  0  0  0  0  0
   -4.9110   21.0450   -8.1050 O   0  0  0  0  0  0  0  0  0  0  0  0
   -3.3540   15.5160    0.1930 C   0  0  0  0  0  0  0  0  0  0  0  0
   -2.6050   21.5500   -8.5160 C   0  0  0  0  0  0  0  0  0  0  0  0
   -2.3490   20.1730   -8.8510 O   0  0  0  0  0  0  0  0  0  0  0  0
   -3.1830   15.7520    1.6480 C   0  0  0  0  0  0  0  0  0  0  0  0
   -4.2490   16.0370    2.4450 N   0  0  0  0  0  0  0  0  0  0  0  0
   -4.3510   15.4890   -0.7000 N   0  0  0  0  0  0  0  0  0  0  0  0
   -3.8480   15.1760   -1.9040 C   0  0  0  0  0  0  0  0  0  0  0  0
   -2.5130   15.0180   -1.7930 N   0  0  0  0  0  0  0  0  0  0  0  0
  1  4  1  0
  1 14  2  0
  1 19  1  0
  1 24  1  0
  4  3  1  0
 24  2  1  0
  2 15  2  0
  2 20  1  0
  2 31  1  0
 31 30  1  0
  5  3  1  6
  5  6  1  0
  5  7  1  0
  6 11  1  0
  7  8  1  1
  7  9  1  0
 11  9  1  0
 11 36  1  1
  9 10  1  1
 36 26  1  0
 36 35  1  0
 12 16  1  6
 12 18  1  0
 12 28  1  0
 18 21  1  6
 18 22  1  0
 28 27  1  0
 13 17  2  0
 13 32  1  0
 17 23  1  0
 32 29  2  0
 32 33  1  0
 23 26  2  0
 22 25  1  6
 22 27  1  0
 27 30  1  1
 26 29  1  0
 29 34  1  0
 34 35  2  0
M  END
