mArh-3vfq_B_0_A_α-mArh-x0438_0_A_α
     RDKit          3D

 30 32  0  0  0  0  0  0  0  0999 V2000
   -3.1260   20.7060   -7.5600 C   0  0  0  0  0  0  0  0  0  0  0  0
   -4.1740   21.3310   -8.4350 C   0  0  2  0  0  0  0  0  0  0  0  0
   -3.9280   22.6910   -8.5990 O   0  0  0  0  0  0  0  0  0  0  0  0
   -5.5920   21.2330   -7.9040 C   0  0  1  0  0  0  0  0  0  0  0  0
   -5.3880   21.2890   -6.4650 O   0  0  0  0  0  0  0  0  0  0  0  0
   -4.9960   22.8910   -9.4740 C   0  0  1  0  0  0  0  0  0  0  0  0
   -6.1850   22.4630   -8.6160 C   0  0  1  0  0  0  0  0  0  0  0  0
   -5.0280   24.2260   -9.9030 O   0  0  0  0  0  0  0  0  0  0  0  0
   -7.3190   22.1250   -9.4220 O   0  0  0  0  0  0  0  0  0  0  0  0
   -3.9490   21.5170   -6.1540 C   0  0  0  0  0  0  0  0  0  0  0  0
   -2.9590   20.3450   -5.6700 C   0  0  0  0  0  0  0  0  0  0  0  0
   -2.7830   18.9580   -6.4560 C   0  0  0  0  0  0  0  0  0  0  0  0
   -2.2630   17.7130   -5.6030 C   0  0  0  0  0  0  0  0  0  0  0  0
   -3.1170   16.3540   -5.4900 C   0  0  0  0  0  0  0  0  0  0  0  0
   -3.1910   15.7150   -4.0360 C   0  0  0  0  0  0  0  0  0  0  0  0
   -4.4240   14.9010   -3.4440 C   0  0  0  0  0  0  0  0  0  0  0  0
   -4.3960   14.8770   -1.8920 C   0  0  0  0  0  0  0  0  0  0  0  0
   -5.4310   14.7180   -0.8730 C   0  0  0  0  0  0  0  0  0  0  0  0
   -3.1090   15.0280   -1.3640 C   0  0  0  0  0  0  0  0  0  0  0  0
   -6.8190   14.5340   -0.8470 N   0  0  0  0  0  0  0  0  0  0  0  0
   -5.1280   14.7210    0.5010 C   0  0  0  0  0  0  0  0  0  0  0  0
   -2.8200   15.0300   -0.0060 C   0  0  0  0  0  0  0  0  0  0  0  0
   -7.2540   14.4340    0.4810 C   0  0  0  0  0  0  0  0  0  0  0  0
   -6.2400   14.5520    1.2890 N   0  0  0  0  0  0  0  0  0  0  0  0
   -3.8140   14.8800    0.9360 C   0  0  0  0  0  0  0  0  0  0  0  0
   -8.6790   14.2100    0.8980 C   0  0  0  0  0  0  0  0  0  0  0  0
   -9.2510   15.2220    2.2740 S   0  0  0  0  0  0  0  0  0  0  0  0
   -7.9750   15.2490    3.5250 C   0  0  0  0  0  0  0  0  0  0  0  0
  -10.4240   14.5790    2.8490 O   0  0  0  0  0  0  0  0  0  0  0  0
   -9.4220   16.5590    1.7570 O   0  0  0  0  0  0  0  0  0  0  0  0
  2  1  1  1
  2  3  1  0
  2  4  1  0
  4  5  1  1
  3  6  1  0
  4  7  1  0
  6  7  1  0
  6  8  1  1
  7  9  1  6
  5 10  1  0
 10 11  1  0
 11 12  1  0
 12 13  1  0
 13 14  1  0
 14 15  1  0
 15 16  1  0
 16 17  1  0
 17 18  1  0
 17 19  2  0
 18 20  1  0
 18 21  2  0
 19 22  1  0
 20 23  1  0
 21 24  1  0
 23 24  2  0
 21 25  1  0
 22 25  2  0
 23 26  1  0
 27 26  1  0
 27 28  1  0
 27 29  2  0
 27 30  2  0
M  END
