mArh-5cb3_0_A_γ-5MQX_0_A_γ
     RDKit          3D

 14 15  0  0  0  0  0  0  0  0999 V2000
    0.0590   17.2080   -5.6640 C   0  0  0  0  0  0  0  0  0  0  0  0
    0.6770   16.0810   -4.8620 C   0  0  1  0  0  0  0  0  0  0  0  0
    0.5270   16.4520   -3.4760 O   0  0  0  0  0  0  0  0  0  0  0  0
    0.0350   14.6840   -4.9980 C   0  0  1  0  0  0  0  0  0  0  0  0
    0.7200   13.8520   -5.9380 O   0  0  0  0  0  0  0  0  0  0  0  0
    0.0670   15.2980   -2.7840 C   0  0  0  0  0  0  0  0  0  0  0  0
    0.4370   14.1430   -3.6670 C   0  0  1  0  0  0  0  0  0  0  0  0
   -0.3100   12.9850   -3.0990 C   0  0  1  0  0  0  0  0  0  0  0  0
   -1.4640   13.5070   -2.4850 O   0  0  0  0  0  0  0  0  0  0  0  0
   -0.9020   11.8170   -3.8490 C   0  0  1  0  0  0  0  0  0  0  0  0
    0.0560   11.0380   -4.5580 O   0  0  0  0  0  0  0  0  0  0  0  0
   -1.8490   12.3580   -1.7510 C   0  0  0  0  0  0  0  0  0  0  0  0
   -1.3080   11.1400   -2.5440 C   0  0  2  0  0  0  0  0  0  0  0  0
   -0.1200   10.6300   -1.9050 O   0  0  0  0  0  0  0  0  0  0  0  0
  2  1  1  6
  2  3  1  0
  2  4  1  0
  4  5  1  6
  3  6  1  0
  4  7  1  0
  7  6  1  1
  7  8  1  0
  8  9  1  6
  8 10  1  0
 10 11  1  1
  9 12  1  0
 10 13  1  0
 12 13  1  0
 13 14  1  1
M  END
