
     RDKit          3D

 36 39  0  0  0  0  0  0  0  0999 V2000
   -1.7090   17.8840   -6.1330 P   0  0  0  0  0  0  0  0  0  0  0  0
   -0.1940   19.6520   -8.2100 P   0  0  0  0  0  0  0  0  0  0  0  0
    0.4420   16.9460   -4.8370 C   0  0  0  0  0  0  0  0  0  0  0  0
   -0.6890   16.7390   -5.7200 O   0  0  0  0  0  0  0  0  0  0  0  0
    0.6480   15.7100   -3.8970 C   0  0  1  0  0  0  0  0  0  0  0  0
   -0.3900   15.6840   -2.8480 O   0  0  0  0  0  0  0  0  0  0  0  0
    0.5380   14.3580   -4.6310 C   0  0  1  0  0  0  0  0  0  0  0  0
    1.4060   13.4070   -4.0510 O   0  0  0  0  0  0  0  0  0  0  0  0
   -0.8910   13.9320   -4.3440 C   0  0  1  0  0  0  0  0  0  0  0  0
   -1.0320   12.5070   -4.3560 O   0  0  0  0  0  0  0  0  0  0  0  0
   -1.0640   14.4230   -2.9170 C   0  0  2  0  0  0  0  0  0  0  0  0
   -5.1230   21.3530   -7.0400 C   0  0  2  0  0  0  0  0  0  0  0  0
   -4.7620   14.6620    0.6470 N   0  0  0  0  0  0  0  0  0  0  0  0
   -2.3460   18.3350   -4.8700 O   0  0  0  0  0  0  0  0  0  0  0  0
    0.0410   18.2740   -8.7270 O   0  0  0  0  0  0  0  0  0  0  0  0
   -6.1800   21.3560   -8.0400 O   0  0  0  0  0  0  0  0  0  0  0  0
   -3.4250   14.6200    0.7680 C   0  0  0  0  0  0  0  0  0  0  0  0
   -4.5770   22.7310   -6.6260 C   0  0  2  0  0  0  0  0  0  0  0  0
   -2.6410   17.4320   -7.2010 O   0  0  0  0  0  0  0  0  0  0  0  0
    0.9010   20.5020   -7.6120 O   0  0  0  0  0  0  0  0  0  0  0  0
   -5.5950   23.6860   -6.2350 O   0  0  0  0  0  0  0  0  0  0  0  0
   -3.9720   23.1430   -7.9740 C   0  0  2  0  0  0  0  0  0  0  0  0
   -2.6060   14.5740   -0.2880 N   0  0  0  0  0  0  0  0  0  0  0  0
   -0.6060   19.1240   -6.6400 O   0  0  0  0  0  0  0  0  0  0  0  0
   -5.0240   23.5200   -8.9170 O   0  0  0  0  0  0  0  0  0  0  0  0
   -3.1230   14.5540   -1.5250 C   0  0  0  0  0  0  0  0  0  0  0  0
   -3.3170   21.8450   -8.4520 C   0  0  2  0  0  0  0  0  0  0  0  0
   -4.0150   20.7730   -7.8110 O   0  0  0  0  0  0  0  0  0  0  0  0
   -4.5170   14.6030   -1.7240 C   0  0  0  0  0  0  0  0  0  0  0  0
   -1.8700   21.6080   -8.0980 C   0  0  0  0  0  0  0  0  0  0  0  0
   -1.6530   20.2290   -8.2720 O   0  0  0  0  0  0  0  0  0  0  0  0
   -5.3570   14.6630   -0.5710 C   0  0  0  0  0  0  0  0  0  0  0  0
   -6.6990   14.7270   -0.6270 N   0  0  0  0  0  0  0  0  0  0  0  0
   -4.7090   14.5900   -3.0740 N   0  0  0  0  0  0  0  0  0  0  0  0
   -3.5040   14.5270   -3.6680 C   0  0  0  0  0  0  0  0  0  0  0  0
   -2.5420   14.5100   -2.7240 N   0  0  0  0  0  0  0  0  0  0  0  0
  1  4  1  0
  1 14  2  0
  1 19  1  0
  1 24  1  0
  2 15  2  0
  2 20  1  0
  2 24  1  0
  2 31  1  0
  4  3  1  0
  6  5  1  0
  6 11  1  0
  9  7  1  0
  9 10  1  1
  9 11  1  0
 11 36  1  6
 12 16  1  6
 12 18  1  0
 12 28  1  0
 13 17  2  0
 13 32  1  0
 17 23  1  0
 18 21  1  6
 18 22  1  0
 22 25  1  6
 22 27  1  0
 23 26  2  0
 28 27  1  0
 27 30  1  1
 30 31  1  0
 32 29  2  0
 32 33  1  0
 36 26  1  0
 36 35  1  0
 26 29  1  0
 29 34  1  0
 34 35  2  0
  5  3  1  6
  5  7  1  0
  7  8  1  1
M  END
