mArh-x0371_0_A_β-mArh-5cms_N_13_N_γ
     RDKit          3D

 20 22  0  0  0  0  0  0  0  0999 V2000
   -8.5520   14.4460    1.7230 C   0  0  0  0  0  0  0  0  0  0  0  0
   -7.2890   14.5970    0.9700 C   0  0  0  0  0  0  0  0  0  0  0  0
   -6.0680   14.6200    1.5950 N   0  0  0  0  0  0  0  0  0  0  0  0
   -7.1540   14.7220   -0.3330 N   0  0  0  0  0  0  0  0  0  0  0  0
   -5.1070   14.7650    0.6480 C   0  0  0  0  0  0  0  0  0  0  0  0
   -5.8040   14.8210   -0.5490 C   0  0  0  0  0  0  0  0  0  0  0  0
   -3.7270   14.8420    0.7570 C   0  0  0  0  0  0  0  0  0  0  0  0
   -5.0960   14.9560   -1.7350 C   0  0  0  0  0  0  0  0  0  0  0  0
   -3.0420   14.9670   -0.4320 C   0  0  0  0  0  0  0  0  0  0  0  0
   -3.7050   15.0190   -1.6610 C   0  0  0  0  0  0  0  0  0  0  0  0
   -2.9010   15.1260   -2.8870 C   0  0  0  0  0  0  0  0  0  0  0  0
   -1.4710   14.6860   -2.6240 C   0  0  0  0  0  0  0  0  0  0  0  0
   -0.5610   14.7710   -3.8070 C   0  0  1  0  0  0  0  0  0  0  0  0
    0.5520   15.6250   -3.6560 O   0  0  0  0  0  0  0  0  0  0  0  0
   -0.0040   13.5190   -4.4410 C   0  0  2  0  0  0  0  0  0  0  0  0
    0.9160   12.7230   -3.7070 O   0  0  0  0  0  0  0  0  0  0  0  0
    1.1400   15.5670   -4.9620 C   0  0  1  0  0  0  0  0  0  0  0  0
    0.6580   14.2140   -5.5860 C   0  0  1  0  0  0  0  0  0  0  0  0
    0.7490   16.8790   -5.6340 C   0  0  0  0  0  0  0  0  0  0  0  0
    1.6530   13.3260   -6.0970 O   0  0  0  0  0  0  0  0  0  0  0  0
  1  2  1  0
  2  3  1  0
  2  4  2  0
  3  5  1  0
  4  6  1  0
  5  6  2  0
  5  7  1  0
  6  8  1  0
  7  9  2  0
  8 10  2  0
  9 10  1  0
 10 11  1  0
 11 12  1  0
 13 12  1  1
 13 14  1  0
 13 15  1  0
 15 16  1  1
 14 17  1  0
 15 18  1  0
 17 18  1  0
 17 19  1  6
 18 20  1  1
M  END
