mArh-x0104_0_A_Î²
     RDKit          3D

  9  9  0  0  0  0  0  0  0  0999 V2000
   -6.6350   14.9300    2.8150 N   0  0  0  0  0  0  0  0  0  0  0  0
   -6.1680   14.7910    1.4930 C   0  0  0  0  0  0  0  0  0  0  0  0
   -7.0640   14.7060    0.4410 C   0  0  0  0  0  0  0  0  0  0  0  0
   -4.8110   14.8750    1.1810 C   0  0  0  0  0  0  0  0  0  0  0  0
   -6.6060   14.7660   -0.8560 C   0  0  0  0  0  0  0  0  0  0  0  0
   -4.3360   14.9030   -0.0690 N   0  0  0  0  0  0  0  0  0  0  0  0
   -5.2290   14.8530   -1.0480 C   0  0  0  0  0  0  0  0  0  0  0  0
   -4.8580   14.8840   -2.3400 O   0  0  0  0  0  0  0  0  0  0  0  0
   -3.4650   14.9390   -2.6420 C   0  0  0  0  0  0  0  0  0  0  0  0
  1  2  1  0
  2  3  2  0
  2  4  1  0
  5  3  1  0
  6  4  2  0
  7  5  2  0
  7  6  1  0
  8  7  1  0
  9  8  1  0
M  END
