mArh-5cb5_J_2_J_γ-mArh-5cb5_F_1_F_α
     RDKit          3D

 24 25  0  0  0  0  0  0  0  0999 V2000
   -0.6580   12.5710   -4.1570 O   0  0  0  0  0  0  0  0  0  0  0  0
   -0.8460   13.9800   -4.1250 C   0  0  1  0  0  0  0  0  0  0  0  0
   -0.7220   14.5130   -2.7100 C   0  0  0  0  0  0  0  0  0  0  0  0
    0.2440   14.7140   -4.9040 C   0  0  2  0  0  0  0  0  0  0  0  0
    1.2990   13.7580   -5.1350 O   0  0  0  0  0  0  0  0  0  0  0  0
   -0.0360   15.7620   -2.7660 O   0  0  0  0  0  0  0  0  0  0  0  0
    0.7150   15.8530   -3.9800 C   0  0  2  0  0  0  0  0  0  0  0  0
    0.5660   17.2890   -4.5060 C   0  0  0  0  0  0  0  0  0  0  0  0
    0.6350   17.3480   -6.0030 C   0  0  0  0  0  0  0  0  0  0  0  0
    0.6580   18.7210   -6.6460 C   0  0  0  0  0  0  0  0  0  0  0  0
   -0.7290   19.3170   -6.8590 C   0  0  0  0  0  0  0  0  0  0  0  0
   -0.7360   20.2010   -8.1030 C   0  0  0  0  0  0  0  0  0  0  0  0
   -1.5610   21.4710   -7.9250 C   0  0  0  0  0  0  0  0  0  0  0  0
   -2.8300   21.5630   -8.7650 C   0  0  2  0  0  0  0  0  0  0  0  0
   -3.3050   22.9630   -8.9800 C   0  0  1  0  0  0  0  0  0  0  0  0
   -3.9140   20.8770   -8.0800 O   0  0  0  0  0  0  0  0  0  0  0  0
   -4.1380   23.1000  -10.1350 O   0  0  0  0  0  0  0  0  0  0  0  0
   -4.0720   23.1800   -7.7650 C   0  0  2  0  0  0  0  0  0  0  0  0
   -4.8500   21.8540   -7.6560 C   0  0  2  0  0  0  0  0  0  0  0  0
   -4.8880   24.2440   -8.1480 O   0  0  0  0  0  0  0  0  0  0  0  0
   -5.2880   21.5730   -6.3200 O   0  0  0  0  0  0  0  0  0  0  0  0
   -5.9610   24.1810   -7.4880 C   0  0  0  0  0  0  0  0  0  0  0  0
   -7.0910   24.4730   -8.4190 C   0  0  0  0  0  0  0  0  0  0  0  0
   -5.9280   23.9100   -6.3140 O   0  0  0  0  0  0  0  0  0  0  0  0
  2  1  1  1
  2  3  1  0
  2  4  1  0
  4  5  1  1
  3  6  1  0
  4  7  1  0
  6  7  1  0
  7  8  1  6
  8  9  1  0
  9 10  1  0
 10 11  1  0
 11 12  1  0
 12 13  1  0
 14 13  1  1
 14 15  1  0
 14 16  1  0
 15 17  1  6
 15 18  1  0
 16 19  1  0
 18 19  1  0
 18 20  1  6
 19 21  1  1
 20 22  1  0
 22 23  1  0
 22 24  2  0
M  END
