mArh-5cb5_C_0_C_Î±
     RDKit          3D

  9  9  0  0  0  0  0  0  0  0999 V2000
   -1.8540   21.7790   -8.5210 C   0  0  0  0  0  0  0  0  0  0  0  0
   -3.2760   22.0010   -8.9890 C   0  0  1  0  0  0  0  0  0  0  0  0
   -4.2250   21.0310   -8.4790 O   0  0  0  0  0  0  0  0  0  0  0  0
   -3.7560   23.3230   -8.4380 C   0  0  2  0  0  0  0  0  0  0  0  0
   -5.2040   21.7050   -7.6490 C   0  0  2  0  0  0  0  0  0  0  0  0
   -4.5270   22.9830   -7.1870 C   0  0  2  0  0  0  0  0  0  0  0  0
   -4.7420   23.8100   -9.3580 O   0  0  0  0  0  0  0  0  0  0  0  0
   -5.5290   20.9650   -6.4780 O   0  0  0  0  0  0  0  0  0  0  0  0
   -5.4390   24.0510   -6.8460 O   0  0  0  0  0  0  0  0  0  0  0  0
  2  1  1  1
  3  2  1  0
  4  2  1  0
  5  3  1  0
  6  4  1  0
  4  7  1  6
  5  8  1  1
  5  6  1  0
  6  9  1  6
M  END
