mArh-5cb5_B_0_B_γ-mArh-5cb5_L_0_L_γ
     RDKit          3D

  8  8  0  0  0  0  0  0  0  0999 V2000
   -0.6250   12.4730   -3.9420 O   0  0  0  0  0  0  0  0  0  0  0  0
   -0.9750   13.8450   -4.0740 C   0  0  1  0  0  0  0  0  0  0  0  0
   -0.5900   14.6650   -2.8510 C   0  0  0  0  0  0  0  0  0  0  0  0
   -0.1160   14.4730   -5.1460 C   0  0  2  0  0  0  0  0  0  0  0  0
    1.1850   13.9020   -5.1710 O   0  0  0  0  0  0  0  0  0  0  0  0
   -0.0420   15.9160   -3.3240 O   0  0  0  0  0  0  0  0  0  0  0  0
   -0.2280   15.9460   -4.7480 C   0  0  1  0  0  0  0  0  0  0  0  0
    0.7190   16.9480   -5.3890 C   0  0  0  0  0  0  0  0  0  0  0  0
  2  1  1  1
  2  3  1  0
  2  4  1  0
  4  5  1  1
  3  6  1  0
  4  7  1  0
  6  7  1  0
  7  8  1  6
M  END
