mArh-5lw0_A_0_A_Î±
     RDKit          3D

  9  9  0  0  0  0  0  0  0  0999 V2000
   -2.5200   20.4680   -8.9020 C   0  0  0  0  0  0  0  0  0  0  0  0
   -3.9830   20.5960   -9.3120 C   0  0  1  0  0  0  0  0  0  0  0  0
   -4.7070   19.6950   -8.4400 O   0  0  0  0  0  0  0  0  0  0  0  0
   -4.5890   22.0100   -9.1500 C   0  0  2  0  0  0  0  0  0  0  0  0
   -5.2570   20.5130   -7.3550 C   0  0  1  0  0  0  0  0  0  0  0  0
   -5.2570   22.0060   -7.8030 C   0  0  2  0  0  0  0  0  0  0  0  0
   -5.6520   22.2390  -10.1200 O   0  0  0  0  0  0  0  0  0  0  0  0
   -6.5630   20.1490   -6.9580 O   0  0  0  0  0  0  0  0  0  0  0  0
   -6.6360   22.5530   -7.8550 O   0  0  0  0  0  0  0  0  0  0  0  0
  2  1  1  1
  3  2  1  0
  4  2  1  0
  5  3  1  0
  6  4  1  0
  4  7  1  6
  5  8  1  6
  5  6  1  0
  6  9  1  6
M  END
