mArh-EU0087_0_A_Î±
     RDKit          3D

  9  9  0  0  0  0  0  0  0  0999 V2000
   -3.6130   14.5990    1.4620 N   0  0  0  0  0  0  0  0  0  0  0  0
   -6.0200   14.3890    1.5690 C   0  0  0  0  0  0  0  0  0  0  0  0
   -4.7990   14.6750   -0.4630 O   0  0  0  0  0  0  0  0  0  0  0  0
   -4.7750   14.5670    0.7570 C   0  0  0  0  0  0  0  0  0  0  0  0
   -1.2680   14.5790    1.5970 N   0  0  0  0  0  0  0  0  0  0  0  0
   -2.3630   14.6430    0.8810 C   0  0  0  0  0  0  0  0  0  0  0  0
   -0.1730   14.6060    0.7610 C   0  0  0  0  0  0  0  0  0  0  0  0
   -0.4310   14.6720   -0.5610 C   0  0  0  0  0  0  0  0  0  0  0  0
   -2.1200   14.7170   -0.8350 S   0  0  0  0  0  0  0  0  0  0  0  0
  1  4  1  0
  1  6  1  0
  4  2  1  0
  4  3  2  0
  6  5  2  0
  6  9  1  0
  5  7  1  0
  7  8  2  0
  9  8  1  0
M  END
