mArh-5cb5_K_0_K_γ-5CB5_0_D_δ
     RDKit          3D

 17 19  0  0  0  0  0  0  0  0999 V2000
   -1.0200   12.6170   -3.5360 O   0  0  0  0  0  0  0  0  0  0  0  0
   -0.4480   13.9160   -3.4530 C   0  0  2  0  0  0  0  0  0  0  0  0
   -1.2880   15.0400   -2.8030 C   0  0  2  0  0  0  0  0  0  0  0  0
   -0.1290   14.3970   -4.8650 C   0  0  2  0  0  0  0  0  0  0  0  0
    1.1980   14.0350   -5.2260 O   0  0  0  0  0  0  0  0  0  0  0  0
   -0.8710   16.2480   -3.5030 O   0  0  0  0  0  0  0  0  0  0  0  0
   -0.4200   15.9020   -4.8350 C   0  0  1  0  0  0  0  0  0  0  0  0
   -1.1550   15.3310   -1.2670 C   0  0  1  0  0  0  0  0  0  0  0  0
   -2.8230   14.8120   -2.9390 C   0  0  0  0  0  0  0  0  0  0  0  0
    0.7400   16.8080   -5.2360 C   0  0  0  0  0  0  0  0  0  0  0  0
   -2.6280   15.5080   -0.8080 C   0  0  1  0  0  0  0  0  0  0  0  0
   -3.3700   14.5290   -1.5910 N   0  0  0  0  0  0  0  0  0  0  0  0
   -0.3830   14.4370   -0.4050 N   0  0  0  0  0  0  0  0  0  0  0  0
   -0.4310   14.8890    0.9700 C   0  0  0  0  0  0  0  0  0  0  0  0
   -2.7690   15.5090    0.7500 C   0  0  1  0  0  0  0  0  0  0  0  0
   -4.0740   15.0590    1.1930 N   0  0  0  0  0  0  0  0  0  0  0  0
   -1.7730   14.7550    1.4780 N   0  0  0  0  0  0  0  0  0  0  0  0
  2  1  1  6
  2  3  1  0
  2  4  1  0
  4  5  1  1
  3  6  1  0
  4  7  1  0
  6  7  1  0
  3  8  1  0
  3  9  1  1
  7 10  1  1
  8 11  1  0
  9 12  1  0
 11 12  1  6
  8 13  1  1
 13 14  1  0
 11 15  1  0
 15 16  1  6
 14 17  1  0
 15 17  1  0
M  END
