mArh-5cb5_N_0_N_γ-mArh-1hjz_A_0_A_α
     RDKit          3D

 21 22  0  0  0  0  0  0  0  0999 V2000
   -0.8640   12.8770   -4.1560 O   0  0  0  0  0  0  0  0  0  0  0  0
   -0.8510   14.3080   -4.3070 C   0  0  1  0  0  0  0  0  0  0  0  0
   -0.5580   14.9920   -2.9950 C   0  0  0  0  0  0  0  0  0  0  0  0
    0.3630   14.7310   -5.1280 C   0  0  2  0  0  0  0  0  0  0  0  0
    1.3860   13.7490   -5.0750 O   0  0  0  0  0  0  0  0  0  0  0  0
   -0.0620   16.2800   -3.3890 O   0  0  0  0  0  0  0  0  0  0  0  0
    0.7980   16.0780   -4.5130 C   0  0  2  0  0  0  0  0  0  0  0  0
    0.8330   17.3180   -5.4470 C   0  0  0  0  0  0  0  0  0  0  0  0
   -0.4900   17.9700   -5.8690 C   0  0  0  0  0  0  0  0  0  0  0  0
   -0.2310   19.3380   -6.2070 O   0  0  0  0  0  0  0  0  0  0  0  0
   -0.0180   19.8740   -7.7400 S   0  0  0  0  0  0  0  0  0  0  0  0
    0.9080   20.9930   -7.6920 O   0  0  0  0  0  0  0  0  0  0  0  0
    0.2040   18.7500   -8.6390 O   0  0  0  0  0  0  0  0  0  0  0  0
   -1.6430   20.5100   -8.0560 C   0  0  0  0  0  0  0  0  0  0  0  0
   -1.9780   21.7990   -7.3450 C   0  0  0  0  0  0  0  0  0  0  0  0
   -3.3710   22.2210   -7.5930 N   0  0  0  0  0  0  0  0  0  0  0  0
   -3.5840   22.6450   -8.9840 C   0  0  0  0  0  0  0  0  0  0  0  0
   -3.7970   23.3580   -6.7480 C   0  0  0  0  0  0  0  0  0  0  0  0
   -5.0130   23.0910   -9.2900 C   0  0  0  0  0  0  0  0  0  0  0  0
   -5.2210   23.8180   -7.0590 C   0  0  0  0  0  0  0  0  0  0  0  0
   -5.3810   24.1760   -8.4360 O   0  0  0  0  0  0  0  0  0  0  0  0
  2  1  1  1
  2  3  1  0
  2  4  1  0
  4  5  1  1
  3  6  1  0
  4  7  1  0
  6  7  1  0
  7  8  1  6
  8  9  1  0
  9 10  1  0
 11 10  1  0
 11 12  2  0
 11 13  2  0
 11 14  1  0
 14 15  1  0
 15 16  1  0
 16 17  1  0
 16 18  1  0
 17 19  1  0
 18 20  1  0
 19 21  1  0
 20 21  1  0
M  END
