mArh-6mea_B_0_B_Î±
     RDKit          3D

  9  9  0  0  0  0  0  0  0  0999 V2000
   -1.9580   21.8230   -8.0640 C   0  0  0  0  0  0  0  0  0  0  0  0
   -3.3800   22.1200   -8.4640 C   0  0  1  0  0  0  0  0  0  0  0  0
   -4.2680   21.2500   -7.7250 O   0  0  0  0  0  0  0  0  0  0  0  0
   -3.8500   23.5470   -8.1810 C   0  0  2  0  0  0  0  0  0  0  0  0
   -5.2370   22.0310   -7.0300 C   0  0  2  0  0  0  0  0  0  0  0  0
   -4.5750   23.3890   -6.8460 C   0  0  2  0  0  0  0  0  0  0  0  0
   -4.7160   24.0190   -9.2110 O   0  0  0  0  0  0  0  0  0  0  0  0
   -5.5380   21.4780   -5.7860 O   0  0  0  0  0  0  0  0  0  0  0  0
   -5.5430   24.4020   -6.6190 O   0  0  0  0  0  0  0  0  0  0  0  0
  2  1  1  1
  3  2  1  0
  4  2  1  0
  5  3  1  0
  6  4  1  0
  4  7  1  6
  5  8  1  1
  5  6  1  0
  6  9  1  6
M  END
