mArh-x0628_0_A_α-mArh-6fx_7_0A_β
     RDKit          3D

 24 24  0  0  0  0  0  0  0  0999 V2000
   -0.8300    9.1080   -7.3030 C   0  0  0  0  0  0  0  0  0  0  0  0
   -0.8230   10.3110   -6.4550 C   0  0  0  0  0  0  0  0  0  0  0  0
   -1.8410   10.6170   -5.5930 N   0  0  0  0  0  0  0  0  0  0  0  0
    0.1790   11.1960   -6.4640 N   0  0  0  0  0  0  0  0  0  0  0  0
   -0.2260   12.1060   -5.5520 N   0  0  0  0  0  0  0  0  0  0  0  0
   -1.4520   11.7470   -5.0320 C   0  0  0  0  0  0  0  0  0  0  0  0
   -2.2070   12.5060   -4.0070 C   0  0  0  0  0  0  0  0  0  0  0  0
    0.6400   13.2670   -5.2660 C   0  0  2  0  0  0  0  0  0  0  0  0
    1.6610   12.9000   -4.1840 C   0  0  0  0  0  0  0  0  0  0  0  0
   -0.1090   14.5620   -4.8650 C   0  0  0  0  0  0  0  0  0  0  0  0
    1.0560   12.2600   -2.9650 C   0  0  0  0  0  0  0  0  0  0  0  0
    0.8070   15.7540   -4.4920 C   0  0  0  0  0  0  0  0  0  0  0  0
    0.6120   11.1290   -2.8780 O   0  0  0  0  0  0  0  0  0  0  0  0
    1.0230   13.0470   -1.8800 O   0  0  0  0  0  0  0  0  0  0  0  0
    0.6010   17.0460   -5.2840 C   0  0  0  0  0  0  0  0  0  0  0  0
   -0.6690   17.0320   -5.9140 O   0  0  0  0  0  0  0  0  0  0  0  0
   -1.5340   18.3650   -5.9140 P   0  0  2  0  0  0  0  0  0  0  0  0
   -0.6330   19.5310   -6.4340 O   0  0  0  0  0  0  0  0  0  0  0  0
   -2.2240   18.6630   -4.6620 O   0  0  0  0  0  0  0  0  0  0  0  0
   -2.6040   18.0980   -7.0700 O   0  0  0  0  0  0  0  0  0  0  0  0
   -0.3440   19.8510   -7.9230 P   0  0  0  0  0  0  0  0  0  0  0  0
   -1.5920   20.7140   -8.3900 O   0  0  0  0  0  0  0  0  0  0  0  0
    0.0120   18.7270   -8.8240 O   0  0  0  0  0  0  0  0  0  0  0  0
    0.7820   20.9730   -7.8100 O   0  0  0  0  0  0  0  0  0  0  0  0
  1  2  1  0
  2  3  1  0
  2  4  2  0
  4  5  1  0
  3  6  2  0
  5  6  1  0
  6  7  1  0
  5  8  1  0
  8  9  1  1
  8 10  1  0
  9 11  1  0
 10 12  1  0
 11 13  2  0
 11 14  1  0
 12 15  1  0
 15 16  1  0
 16 17  1  0
 17 18  1  0
 17 19  2  0
 17 20  1  6
 18 21  1  0
 21 22  1  0
 21 23  2  0
 21 24  1  0
M  END
