mArh-5cms_G_3_G_Î²
     RDKit          3D

  8  8  0  0  0  0  0  0  0  0999 V2000
   -0.7240   14.5580   -2.8560 C   0  0  0  0  0  0  0  0  0  0  0  0
    0.0560   15.7330   -3.1300 O   0  0  0  0  0  0  0  0  0  0  0  0
   -1.3070   14.1640   -4.1990 C   0  0  1  0  0  0  0  0  0  0  0  0
    0.4950   15.7170   -4.5040 C   0  0  1  0  0  0  0  0  0  0  0  0
   -0.1210   14.4610   -5.1220 C   0  0  1  0  0  0  0  0  0  0  0  0
   -1.8060   12.8290   -4.1430 O   0  0  0  0  0  0  0  0  0  0  0  0
    0.1050   16.9910   -5.2590 C   0  0  0  0  0  0  0  0  0  0  0  0
    0.8690   13.4410   -5.1670 O   0  0  0  0  0  0  0  0  0  0  0  0
  1  2  1  1
  1  3  1  0
  4  2  1  0
  5  3  1  0
  3  6  1  1
  4  7  1  6
  4  5  1  0
  5  8  1  1
M  END
