
     RDKit          3D

 36 39  0  0  0  0  0  0  0  0999 V2000
   -2.1010   17.6440   -6.3720 P   0  0  0  0  0  0  0  0  0  0  0  0
   -0.5240   19.2800   -8.2080 P   0  0  0  0  0  0  0  0  0  0  0  0
    0.1230   16.7820   -5.3660 C   0  0  0  0  0  0  0  0  0  0  0  0
   -1.0630   16.5000   -6.0750 O   0  0  0  0  0  0  0  0  0  0  0  0
    0.4220   15.7270   -4.3150 C   0  0  1  0  0  0  0  0  0  0  0  0
   -0.3250   15.9620   -3.1410 O   0  0  0  0  0  0  0  0  0  0  0  0
    0.1410   14.3220   -4.7700 C   0  0  1  0  0  0  0  0  0  0  0  0
    1.2730   13.5410   -4.5290 O   0  0  0  0  0  0  0  0  0  0  0  0
   -0.9800   13.9290   -3.9000 C   0  0  1  0  0  0  0  0  0  0  0  0
   -1.0410   12.5730   -3.6620 O   0  0  0  0  0  0  0  0  0  0  0  0
   -0.6390   14.6800   -2.6680 C   0  0  2  0  0  0  0  0  0  0  0  0
   -5.1700   21.4400   -7.1910 C   0  0  2  0  0  0  0  0  0  0  0  0
   -1.5260   15.5520    2.2800 N   0  0  0  0  0  0  0  0  0  0  0  0
   -2.8390   18.0460   -5.1430 O   0  0  0  0  0  0  0  0  0  0  0  0
    0.5940   20.2190   -7.8990 O   0  0  0  0  0  0  0  0  0  0  0  0
   -6.4600   21.3520   -7.6820 O   0  0  0  0  0  0  0  0  0  0  0  0
   -0.3480   15.4060    1.6060 C   0  0  0  0  0  0  0  0  0  0  0  0
   -4.6820   22.8500   -7.1840 C   0  0  2  0  0  0  0  0  0  0  0  0
   -3.0080   17.1630   -7.4700 O   0  0  0  0  0  0  0  0  0  0  0  0
   -0.1750   18.0920   -9.0320 O   0  0  0  0  0  0  0  0  0  0  0  0
   -5.6630   23.8010   -6.9150 O   0  0  0  0  0  0  0  0  0  0  0  0
   -4.0230   22.9750   -8.5010 C   0  0  2  0  0  0  0  0  0  0  0  0
   -0.2480   15.1780    0.2790 N   0  0  0  0  0  0  0  0  0  0  0  0
   -1.2460   18.8970   -6.8460 O   0  0  0  0  0  0  0  0  0  0  0  0
   -4.9310   23.4310   -9.4490 O   0  0  0  0  0  0  0  0  0  0  0  0
   -1.4100   15.0830   -0.3600 C   0  0  0  0  0  0  0  0  0  0  0  0
   -3.5540   21.5790   -8.8010 C   0  0  2  0  0  0  0  0  0  0  0  0
   -4.2710   20.6970   -7.9690 O   0  0  0  0  0  0  0  0  0  0  0  0
   -2.6400   15.2190    0.2850 C   0  0  0  0  0  0  0  0  0  0  0  0
   -2.0600   21.4010   -8.5670 C   0  0  0  0  0  0  0  0  0  0  0  0
   -1.6720   20.0890   -8.9600 O   0  0  0  0  0  0  0  0  0  0  0  0
   -2.7150   15.4640    1.6470 C   0  0  0  0  0  0  0  0  0  0  0  0
   -3.9200   15.6170    2.3870 N   0  0  0  0  0  0  0  0  0  0  0  0
   -3.6890   15.0630   -0.6750 N   0  0  0  0  0  0  0  0  0  0  0  0
   -3.0400   14.8520   -1.8500 C   0  0  0  0  0  0  0  0  0  0  0  0
   -1.6890   14.8340   -1.6830 N   0  0  0  0  0  0  0  0  0  0  0  0
  1  4  1  0
  1 14  2  0
  1 19  1  0
  1 24  1  0
  4  3  1  0
 24  2  1  0
  2 15  2  0
  2 20  1  0
  2 31  1  0
 31 30  1  0
  5  3  1  6
  5  6  1  0
  5  7  1  0
  6 11  1  0
  7  8  1  1
  7  9  1  0
 11  9  1  0
 11 36  1  1
  9 10  1  1
 36 26  1  0
 36 35  1  0
 12 16  1  6
 12 18  1  0
 12 28  1  0
 18 21  1  6
 18 22  1  0
 28 27  1  0
 13 17  2  0
 13 32  1  0
 17 23  1  0
 32 29  2  0
 32 33  1  0
 23 26  2  0
 22 25  1  6
 22 27  1  0
 27 30  1  1
 26 29  1  0
 29 34  1  0
 34 35  2  0
M  END
