mArh-6woj_C_0_C_α-mArh-6woj_A_0_A_β
     RDKit          3D

 17 17  0  0  0  0  0  0  0  0999 V2000
   -1.5800   21.4900   -7.1720 C   0  0  0  0  0  0  0  0  0  0  0  0
   -0.3590   20.2370   -7.6390 P   0  0  2  0  0  0  0  0  0  0  0  0
   -0.2080   19.1060   -6.5180 O   0  0  0  0  0  0  0  0  0  0  0  0
   -2.8210   21.8720   -7.9890 C   0  0  1  0  0  0  0  0  0  0  0  0
    0.9700   20.8550   -7.8700 O   0  0  0  0  0  0  0  0  0  0  0  0
   -0.8740   19.2810   -8.8140 O   0  0  0  0  0  0  0  0  0  0  0  0
   -3.9360   21.1470   -7.4670 O   0  0  0  0  0  0  0  0  0  0  0  0
   -3.2950   23.3420   -7.8300 C   0  0  1  0  0  0  0  0  0  0  0  0
   -4.1400   23.7940   -8.8990 O   0  0  0  0  0  0  0  0  0  0  0  0
   -1.3670   18.3300   -5.7570 P   0  0  0  0  0  0  0  0  0  0  0  0
   -4.3960   21.8380   -6.2990 C   0  0  1  0  0  0  0  0  0  0  0  0
   -4.0870   23.3330   -6.5080 C   0  0  2  0  0  0  0  0  0  0  0  0
   -5.7790   21.6090   -6.0800 O   0  0  0  0  0  0  0  0  0  0  0  0
   -5.3300   24.0620   -6.6210 O   0  0  0  0  0  0  0  0  0  0  0  0
   -0.7470   16.8940   -5.4270 O   0  0  0  0  0  0  0  0  0  0  0  0
   -1.9350   19.0310   -4.5900 O   0  0  0  0  0  0  0  0  0  0  0  0
   -2.4620   17.9430   -6.8580 O   0  0  0  0  0  0  0  0  0  0  0  0
  1  2  1  0
  2  3  1  0
  4  1  1  1
  2  5  2  0
  2  6  1  6
  4  7  1  0
  4  8  1  0
  8  9  1  6
  3 10  1  0
  7 11  1  0
  8 12  1  0
 11 12  1  0
 11 13  1  6
 12 14  1  6
 10 15  1  0
 10 16  2  0
 10 17  1  0
M  END
