mArh-5lw0_B_1_B_β-5L9K_0_A_δ
     RDKit          3D

 21 22  0  0  0  0  0  0  0  0999 V2000
   -1.5420   20.2610   -8.5960 O   0  0  0  0  0  0  0  0  0  0  0  0
   -0.4940   19.4740   -7.7090 P   0  0  0  0  0  0  0  0  0  0  0  0
   -1.2530   19.0630   -6.3550 O   0  0  0  0  0  0  0  0  0  0  0  0
    0.7250   20.2940   -7.5630 O   0  0  0  0  0  0  0  0  0  0  0  0
   -0.2420   18.2270   -8.6440 O   0  0  0  0  0  0  0  0  0  0  0  0
   -1.7670   17.6200   -5.9260 P   0  0  2  0  0  0  0  0  0  0  0  0
   -0.4220   16.7640   -5.8570 O   0  0  0  0  0  0  0  0  0  0  0  0
   -2.8040   17.0410   -6.8170 O   0  0  0  0  0  0  0  0  0  0  0  0
   -2.1260   17.6280   -4.3780 O   0  0  0  0  0  0  0  0  0  0  0  0
   -1.8920   16.4130   -3.6760 C   0  0  0  0  0  0  0  0  0  0  0  0
   -3.0930   15.4760   -3.7420 C   0  0  0  0  0  0  0  0  0  0  0  0
   -3.5850   14.8200   -2.4400 C   0  0  1  0  0  0  0  0  0  0  0  0
   -2.5760   13.8910   -1.9280 N   0  0  0  0  0  0  0  0  0  0  0  0
   -3.9740   15.7020   -1.3380 N   0  0  0  0  0  0  0  0  0  0  0  0
   -2.3990   14.2020   -0.5320 C   0  0  2  0  0  0  0  0  0  0  0  0
   -3.6750   14.9200   -0.1310 C   0  0  1  0  0  0  0  0  0  0  0  0
   -1.1940   14.9920   -0.4180 N   0  0  0  0  0  0  0  0  0  0  0  0
   -3.3080   15.7110    1.1080 C   0  0  1  0  0  0  0  0  0  0  0  0
   -4.3660   15.7940    2.1000 N   0  0  0  0  0  0  0  0  0  0  0  0
   -0.9390   15.2450    0.9730 C   0  0  0  0  0  0  0  0  0  0  0  0
   -2.1650   15.1150    1.7460 N   0  0  0  0  0  0  0  0  0  0  0  0
  1  2  1  0
  2  3  1  0
  2  4  2  0
  2  5  1  0
  3  6  1  0
  6  7  1  1
  6  8  2  0
  6  9  1  0
  9 10  1  0
 10 11  1  0
 12 11  1  6
 12 13  1  0
 12 14  1  0
 15 13  1  6
 16 14  1  6
 15 16  1  0
 15 17  1  0
 16 18  1  0
 18 19  1  1
 17 20  1  0
 18 21  1  0
 20 21  1  0
M  END
