mArh-x0591_0_A_α-5CB5_0_Q_α
     RDKit          3D

 27 28  0  0  0  0  0  0  0  0999 V2000
   -5.8280   14.5470    0.9080 N   0  0  0  0  0  0  0  0  0  0  0  0
   -6.7800   14.5070    1.9940 C   0  0  0  0  0  0  0  0  0  0  0  0
   -6.2690   14.7090   -0.3840 C   0  0  0  0  0  0  0  0  0  0  0  0
   -7.4520   14.8310   -0.6750 O   0  0  0  0  0  0  0  0  0  0  0  0
   -5.2370   14.7360   -1.4550 C   0  0  0  0  0  0  0  0  0  0  0  0
   -3.8620   14.6650   -1.1960 C   0  0  0  0  0  0  0  0  0  0  0  0
   -5.6810   14.8370   -2.7750 C   0  0  0  0  0  0  0  0  0  0  0  0
   -2.9460   14.7000   -2.2530 C   0  0  0  0  0  0  0  0  0  0  0  0
   -4.7700   14.8660   -3.8250 C   0  0  0  0  0  0  0  0  0  0  0  0
   -3.4110   14.8030   -3.5670 C   0  0  0  0  0  0  0  0  0  0  0  0
   -2.2960   14.8580   -4.9300 S   0  0  1  0  0  0  0  0  0  0  0  0
   -0.7760   15.2390   -4.3500 N   0  0  0  0  0  0  0  0  0  0  0  0
   -2.0890   13.5210   -5.4350 O   0  0  0  0  0  0  0  0  0  0  0  0
   -2.5370   16.1470   -5.7280 N   0  0  0  0  0  0  0  0  0  0  0  0
   -1.7450   17.3500   -5.3540 C   0  0  0  0  0  0  0  0  0  0  0  0
   -1.7850   18.4870   -6.3820 C   0  0  0  0  0  0  0  0  0  0  0  0
   -2.4200   19.7980   -5.8790 C   0  0  0  0  0  0  0  0  0  0  0  0
   -3.6120   20.0950   -6.7850 C   0  0  0  0  0  0  0  0  0  0  0  0
   -4.6800   20.9040   -6.2680 O   0  0  0  0  0  0  0  0  0  0  0  0
   -5.1240   21.7320   -7.3350 C   0  0  2  0  0  0  0  0  0  0  0  0
   -4.5530   21.2290   -8.5560 O   0  0  0  0  0  0  0  0  0  0  0  0
   -4.5700   23.1500   -7.1410 C   0  0  2  0  0  0  0  0  0  0  0  0
   -5.6320   24.0870   -6.8560 O   0  0  0  0  0  0  0  0  0  0  0  0
   -3.4980   22.1070   -8.9660 C   0  0  1  0  0  0  0  0  0  0  0  0
   -3.9370   23.4740   -8.4990 C   0  0  1  0  0  0  0  0  0  0  0  0
   -2.1450   21.7090   -8.3790 C   0  0  0  0  0  0  0  0  0  0  0  0
   -4.8450   24.0630   -9.4250 O   0  0  0  0  0  0  0  0  0  0  0  0
  1  2  1  0
  1  3  1  0
  3  4  2  0
  3  5  1  0
  5  6  2  0
  5  7  1  0
  6  8  1  0
  7  9  2  0
  8 10  2  0
  9 10  1  0
 10 11  1  0
 11 12  1  1
 11 13  2  0
 11 14  2  0
 14 15  1  0
 15 16  1  0
 16 17  1  0
 17 18  1  0
 18 19  1  0
 20 19  1  1
 20 21  1  0
 20 22  1  0
 22 23  1  6
 21 24  1  0
 22 25  1  0
 24 25  1  0
 24 26  1  1
 25 27  1  6
M  END
