mArh-3vfq_B_0_A_α-mArh-5cms_K_10_K_γ
     RDKit          3D

 21 22  0  0  0  0  0  0  0  0999 V2000
   -4.2110   21.0830   -5.9680 C   0  0  0  0  0  0  0  0  0  0  0  0
   -4.3140   21.9010   -7.2330 C   0  0  1  0  0  0  0  0  0  0  0  0
   -3.6310   21.3810   -8.3800 N   0  0  0  0  0  0  0  0  0  0  0  0
   -5.7600   22.1570   -7.6870 C   0  0  1  0  0  0  0  0  0  0  0  0
   -6.2330   23.3560   -7.1010 O   0  0  0  0  0  0  0  0  0  0  0  0
   -2.1740   21.1040   -8.1830 C   0  0  0  0  0  0  0  0  0  0  0  0
   -4.1700   22.1780   -9.5080 C   0  0  1  0  0  0  0  0  0  0  0  0
   -5.6650   22.4320   -9.1870 C   0  0  1  0  0  0  0  0  0  0  0  0
   -3.6400   23.4800   -9.5480 O   0  0  0  0  0  0  0  0  0  0  0  0
   -6.6430   21.7300   -9.9530 O   0  0  0  0  0  0  0  0  0  0  0  0
   -1.7540   19.6660   -7.6580 C   0  0  0  0  0  0  0  0  0  0  0  0
   -0.7550   19.5300   -6.4980 C   0  0  0  0  0  0  0  0  0  0  0  0
    0.0550   18.2020   -6.3470 C   0  0  0  0  0  0  0  0  0  0  0  0
   -0.5300   17.1090   -5.3760 C   0  0  0  0  0  0  0  0  0  0  0  0
    0.4750   16.0260   -4.8190 C   0  0  1  0  0  0  0  0  0  0  0  0
    0.3210   15.9730   -3.3730 O   0  0  0  0  0  0  0  0  0  0  0  0
    0.2780   14.5350   -5.1970 C   0  0  1  0  0  0  0  0  0  0  0  0
    1.3860   13.6710   -4.9760 O   0  0  0  0  0  0  0  0  0  0  0  0
   -0.4570   14.8040   -3.0220 C   0  0  0  0  0  0  0  0  0  0  0  0
   -0.8850   14.1360   -4.3170 C   0  0  2  0  0  0  0  0  0  0  0  0
   -1.0030   12.7230   -4.2370 O   0  0  0  0  0  0  0  0  0  0  0  0
  2  1  1  1
  2  3  1  0
  2  4  1  0
  4  5  1  1
  3  6  1  0
  3  7  1  0
  4  8  1  0
  7  8  1  0
  7  9  1  1
  8 10  1  6
  6 11  1  0
 11 12  1  0
 12 13  1  0
 13 14  1  0
 15 14  1  6
 15 16  1  0
 15 17  1  0
 17 18  1  1
 16 19  1  0
 17 20  1  0
 19 20  1  0
 20 21  1  1
M  END
