mArh-5cms_Q_16_Q_α-mArh-5cms_E_5_E_γ
     RDKit          3D

 23 24  0  0  0  0  0  0  0  0999 V2000
   -1.5930   22.2920   -7.7590 C   0  0  0  0  0  0  0  0  0  0  0  0
   -1.4370   22.1750   -9.2630 C   0  0  1  0  0  0  0  0  0  0  0  0
   -2.7050   21.7990   -9.7990 O   0  0  0  0  0  0  0  0  0  0  0  0
   -1.0580   23.5000   -9.9370 C   0  0  1  0  0  0  0  0  0  0  0  0
    0.3190   23.5590  -10.2230 O   0  0  0  0  0  0  0  0  0  0  0  0
   -2.7810   22.3360  -11.1190 C   0  0  2  0  0  0  0  0  0  0  0  0
   -1.7030   23.4080  -11.2790 C   0  0  1  0  0  0  0  0  0  0  0  0
   -4.0750   22.8530  -11.3670 O   0  0  0  0  0  0  0  0  0  0  0  0
   -2.2270   24.6820  -11.6880 O   0  0  0  0  0  0  0  0  0  0  0  0
    0.9990   23.5880   -9.0080 C   0  0  0  0  0  0  0  0  0  0  0  0
    1.6420   22.2610   -8.8230 C   0  0  0  0  0  0  0  0  0  0  0  0
    1.1200   21.5500   -7.5820 C   0  0  0  0  0  0  0  0  0  0  0  0
    0.2290   20.2560   -7.6340 C   0  0  0  0  0  0  0  0  0  0  0  0
    0.8110   19.0070   -6.8940 C   0  0  0  0  0  0  0  0  0  0  0  0
   -0.0630   18.1120   -5.9780 C   0  0  0  0  0  0  0  0  0  0  0  0
    0.6590   16.9060   -5.2850 C   0  0  0  0  0  0  0  0  0  0  0  0
   -0.1490   15.6730   -4.7900 C   0  0  2  0  0  0  0  0  0  0  0  0
   -0.4260   15.7460   -3.3760 O   0  0  0  0  0  0  0  0  0  0  0  0
    0.3960   14.2450   -4.8790 C   0  0  2  0  0  0  0  0  0  0  0  0
    0.6170   13.6790   -6.1490 O   0  0  0  0  0  0  0  0  0  0  0  0
   -0.8790   14.4390   -2.9630 C   0  0  0  0  0  0  0  0  0  0  0  0
   -0.7810   13.5690   -4.2050 C   0  0  2  0  0  0  0  0  0  0  0  0
   -0.5620   12.1860   -3.9800 O   0  0  0  0  0  0  0  0  0  0  0  0
  2  1  1  1
  2  3  1  0
  2  4  1  0
  4  5  1  6
  3  6  1  0
  4  7  1  0
  6  7  1  0
  6  8  1  1
  7  9  1  1
  5 10  1  0
 10 11  1  0
 11 12  1  0
 12 13  1  0
 13 14  1  0
 14 15  1  0
 15 16  1  0
 17 16  1  1
 17 18  1  0
 17 19  1  0
 19 20  1  6
 18 21  1  0
 19 22  1  0
 21 22  1  0
 22 23  1  1
M  END
