mArh-5cb5_Q_0_Q_γ-3EW5_1_B_α
     RDKit          3D

 19 19  0  0  0  0  0  0  0  0999 V2000
   -0.7390   12.9510   -4.1960 O   0  0  0  0  0  0  0  0  0  0  0  0
   -0.7430   14.3180   -4.4410 C   0  0  1  0  0  0  0  0  0  0  0  0
   -0.5110   15.0150   -3.1030 C   0  0  0  0  0  0  0  0  0  0  0  0
    0.5610   14.7450   -5.1240 C   0  0  2  0  0  0  0  0  0  0  0  0
    1.6040   13.9130   -4.8100 O   0  0  0  0  0  0  0  0  0  0  0  0
   -0.1270   16.2640   -3.5220 O   0  0  0  0  0  0  0  0  0  0  0  0
    0.7190   16.1590   -4.5780 C   0  0  2  0  0  0  0  0  0  0  0  0
    0.3270   17.1010   -5.7310 C   0  0  0  0  0  0  0  0  0  0  0  0
    0.1690   18.5260   -5.4080 C   0  0  0  0  0  0  0  0  0  0  0  0
    0.2240   19.3970   -6.5160 O   0  0  0  0  0  0  0  0  0  0  0  0
   -0.8040   19.4830   -7.6500 P   0  0  0  0  0  0  0  0  0  0  0  0
   -1.4090   20.9720   -7.4130 O   0  0  0  0  0  0  0  0  0  0  0  0
    0.2580   19.0450   -8.7760 O   0  0  0  0  0  0  0  0  0  0  0  0
   -1.5600   18.2250   -6.8830 O   0  0  0  0  0  0  0  0  0  0  0  0
   -2.6260   20.9820   -6.7750 C   0  0  0  0  0  0  0  0  0  0  0  0
   -3.6620   21.9760   -7.2350 C   0  0  2  0  0  0  0  0  0  0  0  0
   -5.0500   21.3760   -7.0710 C   0  0  0  0  0  0  0  0  0  0  0  0
   -3.5380   22.1680   -8.6230 O   0  0  0  0  0  0  0  0  0  0  0  0
   -5.6090   21.6790   -5.8450 O   0  0  0  0  0  0  0  0  0  0  0  0
  2  1  1  1
  2  3  1  0
  2  4  1  0
  4  5  1  1
  3  6  1  0
  4  7  1  0
  6  7  1  0
  7  8  1  6
  8  9  1  0
  9 10  1  0
 10 11  1  0
 11 12  1  0
 11 13  1  0
 11 14  1  0
 12 15  1  0
 15 16  1  0
 16 17  1  0
 16 18  1  6
 17 19  1  0
M  END
