mArh-x0805_0_A_Î²
     RDKit          3D

  9  9  0  0  0  0  0  0  0  0999 V2000
   -0.4570   14.1750   -4.0000 C   0  0  0  0  0  0  0  0  0  0  0  0
    0.4350   15.3210   -3.5020 C   0  0  0  0  0  0  0  0  0  0  0  0
    0.3270   12.8410   -4.1280 C   0  0  1  0  0  0  0  0  0  0  0  0
    1.7160   15.3860   -4.2910 C   0  0  0  0  0  0  0  0  0  0  0  0
    1.6690   13.0760   -4.8020 C   0  0  0  0  0  0  0  0  0  0  0  0
    0.5560   12.1700   -2.8000 C   0  0  0  0  0  0  0  0  0  0  0  0
    2.4370   14.1500   -4.2120 O   0  0  0  0  0  0  0  0  0  0  0  0
    0.2630   10.9150   -2.8150 O   0  0  0  0  0  0  0  0  0  0  0  0
    0.9680   12.7430   -1.8240 O   0  0  0  0  0  0  0  0  0  0  0  0
  1  2  1  6
  1  3  1  0
  4  2  1  0
  5  3  1  0
  3  6  1  1
  7  4  1  0
  7  5  1  0
  8  6  1  0
  6  9  2  0
M  END
