mArh-5cms_D_3_D_Î³
     RDKit          3D

 10 11  0  0  0  0  0  0  0  0999 V2000
   -1.6890   14.8990   -1.9100 N   0  0  0  0  0  0  0  0  0  0  0  0
   -1.4330   15.0790   -0.6100 C   0  0  0  0  0  0  0  0  0  0  0  0
   -3.0090   15.1020   -2.1100 C   0  0  0  0  0  0  0  0  0  0  0  0
   -0.3030   15.0240    0.1640 N   0  0  0  0  0  0  0  0  0  0  0  0
   -2.7260   15.4220    0.0030 C   0  0  0  0  0  0  0  0  0  0  0  0
   -3.6410   15.4160   -0.9550 N   0  0  0  0  0  0  0  0  0  0  0  0
   -0.3820   15.2840    1.4820 C   0  0  0  0  0  0  0  0  0  0  0  0
   -2.7560   15.6980    1.4330 C   0  0  0  0  0  0  0  0  0  0  0  0
   -1.5590   15.6170    2.0770 N   0  0  0  0  0  0  0  0  0  0  0  0
   -3.9310   16.0110    2.0230 N   0  0  0  0  0  0  0  0  0  0  0  0
  1  2  1  0
  1  3  1  0
  4  2  1  0
  2  5  1  0
  6  3  1  0
  7  4  1  0
  8  5  1  0
  5  6  1  0
  9  7  1  0
  9  8  1  0
  8 10  1  0
M  END
