mArh-5cms_P_15_P_β-mArh-6fx_7_0A_γ
     RDKit          3D

 16 16  0  0  0  0  0  0  0  0999 V2000
   -0.9110   20.7360   -8.6710 O   0  0  0  0  0  0  0  0  0  0  0  0
   -0.1790   19.6740   -7.7490 P   0  0  0  0  0  0  0  0  0  0  0  0
   -1.2700   19.3970   -6.6550 O   0  0  0  0  0  0  0  0  0  0  0  0
    1.1520   20.0930   -7.2790 O   0  0  0  0  0  0  0  0  0  0  0  0
   -0.1370   18.4160   -8.7190 O   0  0  0  0  0  0  0  0  0  0  0  0
   -1.6710   17.9880   -6.0730 P   0  0  2  0  0  0  0  0  0  0  0  0
   -0.4200   17.0220   -5.8150 O   0  0  0  0  0  0  0  0  0  0  0  0
   -2.8410   17.3660   -6.7230 O   0  0  0  0  0  0  0  0  0  0  0  0
   -1.9220   18.4270   -4.5680 O   0  0  0  0  0  0  0  0  0  0  0  0
   -0.7460   15.9930   -4.8800 C   0  0  2  0  0  0  0  0  0  0  0  0
   -0.1050   16.0790   -3.6010 O   0  0  0  0  0  0  0  0  0  0  0  0
   -0.5100   14.5300   -5.2590 C   0  0  1  0  0  0  0  0  0  0  0  0
    0.8630   14.1000   -5.2900 O   0  0  0  0  0  0  0  0  0  0  0  0
   -0.4640   14.8380   -2.9510 C   0  0  0  0  0  0  0  0  0  0  0  0
   -1.1330   13.9680   -4.0170 C   0  0  2  0  0  0  0  0  0  0  0  0
   -0.8590   12.5890   -3.9160 O   0  0  0  0  0  0  0  0  0  0  0  0
  1  2  1  0
  2  3  1  0
  2  4  2  0
  2  5  1  0
  3  6  1  0
  6  7  1  0
  6  8  2  0
  6  9  1  1
 10  7  1  6
 10 11  1  0
 10 12  1  0
 12 13  1  1
 11 14  1  0
 12 15  1  0
 14 15  1  0
 15 16  1  1
M  END
