mArh-mac-362_0_A_Î±
     RDKit          3D

 13 14  0  0  0  0  0  0  0  0999 V2000
   -1.6490   25.8550   14.2990 C   0  0  0  0  0  0  0  0  0  0  0  0
   -0.3540   26.4920   14.7850 C   0  0  0  0  0  0  0  0  0  0  0  0
   -0.3830   27.7820   15.2910 C   0  0  0  0  0  0  0  0  0  0  0  0
    0.7860   28.3840   15.7320 C   0  0  0  0  0  0  0  0  0  0  0  0
    2.0040   27.6870   15.6760 C   0  0  0  0  0  0  0  0  0  0  0  0
    3.3310   28.0060   16.0320 C   0  0  0  0  0  0  0  0  0  0  0  0
    4.0780   26.8860   15.7210 C   0  0  0  0  0  0  0  0  0  0  0  0
    3.2820   25.9590   15.2090 N   0  0  0  0  0  0  0  0  0  0  0  0
    2.0240   26.3980   15.1720 C   0  0  0  0  0  0  0  0  0  0  0  0
    0.8510   25.7950   14.7220 C   0  0  0  0  0  0  0  0  0  0  0  0
    3.8650   29.2910   16.6480 C   0  0  0  0  0  0  0  0  0  0  0  0
    3.0660   30.2400   16.8780 O   0  0  0  0  0  0  0  0  0  0  0  0
    5.0910   29.3780   16.9310 O   0  0  0  0  0  0  0  0  0  0  0  0
  1  2  1  0
  2  3  2  0
  2 10  1  0
  3  4  1  0
 10  9  2  0
  4  5  2  0
  5  6  1  0
  5  9  1  0
  6  7  2  0
  6 11  1  0
  9  8  1  0
  7  8  1  0
 11 12  2  0
 11 13  1  0
M  END
