mArh-5cb5_F_1_F_Î³
     RDKit          3D

  8  8  0  0  0  0  0  0  0  0999 V2000
   -0.5020   14.6570   -3.0620 C   0  0  0  0  0  0  0  0  0  0  0  0
    0.0430   15.9690   -3.3180 O   0  0  0  0  0  0  0  0  0  0  0  0
   -1.0280   14.1960   -4.3760 C   0  0  1  0  0  0  0  0  0  0  0  0
    0.6480   15.8240   -4.6440 C   0  0  1  0  0  0  0  0  0  0  0  0
    0.1020   14.5350   -5.2830 C   0  0  1  0  0  0  0  0  0  0  0  0
   -1.3920   12.8250   -4.3030 O   0  0  0  0  0  0  0  0  0  0  0  0
    0.2200   17.0380   -5.4610 C   0  0  0  0  0  0  0  0  0  0  0  0
    1.0810   13.5490   -5.3900 O   0  0  0  0  0  0  0  0  0  0  0  0
  1  2  1  1
  1  3  1  0
  4  2  1  0
  5  3  1  0
  3  6  1  1
  4  7  1  6
  4  5  1  0
  5  8  1  1
M  END
