
     RDKit          3D

 36 39  0  0  0  0  0  0  0  0999 V2000
   -1.4510   18.1100   -5.7980 P   0  0  0  0  0  0  0  0  0  0  0  0
    0.0530   19.7080   -7.7640 P   0  0  0  0  0  0  0  0  0  0  0  0
    0.7880   16.9140   -5.1000 C   0  0  0  0  0  0  0  0  0  0  0  0
   -0.5890   16.7800   -5.5480 O   0  0  0  0  0  0  0  0  0  0  0  0
    1.2610   15.6170   -4.4840 C   0  0  1  0  0  0  0  0  0  0  0  0
    0.6440   15.4970   -3.1760 O   0  0  0  0  0  0  0  0  0  0  0  0
    0.8970   14.3240   -5.2330 C   0  0  1  0  0  0  0  0  0  0  0  0
    1.7460   13.2110   -4.9930 O   0  0  0  0  0  0  0  0  0  0  0  0
   -0.4180   13.9320   -4.5590 C   0  0  1  0  0  0  0  0  0  0  0  0
   -0.7000   12.5590   -4.7130 O   0  0  0  0  0  0  0  0  0  0  0  0
   -0.0990   14.2990   -3.1130 C   0  0  2  0  0  0  0  0  0  0  0  0
   -4.8020   22.0190   -6.9030 C   0  0  1  0  0  0  0  0  0  0  0  0
   -1.8340   14.6050    1.6830 N   0  0  0  0  0  0  0  0  0  0  0  0
   -1.9450   18.6690   -4.5070 O   0  0  0  0  0  0  0  0  0  0  0  0
    1.1190   20.7330   -7.5610 O   0  0  0  0  0  0  0  0  0  0  0  0
   -5.2160   21.4640   -5.7140 O   0  0  0  0  0  0  0  0  0  0  0  0
   -0.6320   14.3040    1.1710 C   0  0  0  0  0  0  0  0  0  0  0  0
   -4.1440   23.3860   -6.6980 C   0  0  2  0  0  0  0  0  0  0  0  0
   -2.4570   17.8640   -6.8750 O   0  0  0  0  0  0  0  0  0  0  0  0
    0.2900   18.5940   -8.7310 O   0  0  0  0  0  0  0  0  0  0  0  0
   -5.0370   24.4320   -6.3960 O   0  0  0  0  0  0  0  0  0  0  0  0
   -3.4890   23.5440   -8.0630 C   0  0  2  0  0  0  0  0  0  0  0  0
   -0.2480   14.2330   -0.1010 N   0  0  0  0  0  0  0  0  0  0  0  0
   -0.3110   19.0880   -6.3360 O   0  0  0  0  0  0  0  0  0  0  0  0
   -4.4710   23.9130   -9.0220 O   0  0  0  0  0  0  0  0  0  0  0  0
   -1.2820   14.5020   -0.9110 C   0  0  0  0  0  0  0  0  0  0  0  0
   -2.9810   22.1200   -8.3320 C   0  0  2  0  0  0  0  0  0  0  0  0
   -3.7720   21.2490   -7.4890 O   0  0  0  0  0  0  0  0  0  0  0  0
   -2.5750   14.7980   -0.5390 C   0  0  0  0  0  0  0  0  0  0  0  0
   -1.5230   21.8450   -8.0470 C   0  0  0  0  0  0  0  0  0  0  0  0
   -1.3310   20.4210   -8.1240 O   0  0  0  0  0  0  0  0  0  0  0  0
   -2.8590   14.8340    0.8370 C   0  0  0  0  0  0  0  0  0  0  0  0
   -4.0510   15.1250    1.3460 N   0  0  0  0  0  0  0  0  0  0  0  0
   -3.3600   15.0090   -1.6660 N   0  0  0  0  0  0  0  0  0  0  0  0
   -2.5430   14.8470   -2.6810 C   0  0  0  0  0  0  0  0  0  0  0  0
   -1.2630   14.5310   -2.2780 N   0  0  0  0  0  0  0  0  0  0  0  0
  1  4  1  0
  1 14  2  0
  1 19  1  0
  1 24  1  0
  4  3  1  0
 24  2  1  0
  2 15  2  0
  2 20  1  0
  2 31  1  0
 31 30  1  0
  5  3  1  6
  5  6  1  0
  5  7  1  0
  6 11  1  0
  7  8  1  1
  7  9  1  0
 11  9  1  0
 11 36  1  1
  9 10  1  1
 36 26  1  0
 36 35  1  0
 12 16  1  1
 12 18  1  0
 12 28  1  0
 18 21  1  6
 18 22  1  0
 28 27  1  0
 13 17  2  0
 13 32  1  0
 17 23  1  0
 32 29  2  0
 32 33  1  0
 23 26  2  0
 22 25  1  6
 22 27  1  0
 27 30  1  1
 26 29  1  0
 29 34  1  0
 34 35  2  0
M  END
