mArh-x0524_0_A_α-mArh-x0253_0_A_α
     RDKit          3D

 30 32  0  0  0  0  0  0  0  0999 V2000
   -0.4700    7.6630   -8.0960 N   0  0  0  0  0  0  0  0  0  0  0  0
   -1.8510    7.8780   -8.0210 C   0  0  0  0  0  0  0  0  0  0  0  0
   -2.2520    9.0950   -7.2920 C   0  0  0  0  0  0  0  0  0  0  0  0
    0.4800    7.9730   -9.1310 C   0  0  0  0  0  0  0  0  0  0  0  0
   -2.6990    7.2230   -8.5050 O   0  0  0  0  0  0  0  0  0  0  0  0
    1.7590    7.4840   -8.9080 C   0  0  0  0  0  0  0  0  0  0  0  0
    0.2740    8.6930  -10.3200 C   0  0  0  0  0  0  0  0  0  0  0  0
    2.8050    7.7000   -9.8170 C   0  0  0  0  0  0  0  0  0  0  0  0
    1.3290    8.9120  -11.2370 C   0  0  0  0  0  0  0  0  0  0  0  0
   -1.1640    9.8470   -7.8360 C   0  0  0  0  0  0  0  0  0  0  0  0
    2.6150    8.4150  -10.9980 C   0  0  0  0  0  0  0  0  0  0  0  0
   -0.3630   10.5370   -7.0120 C   0  0  0  0  0  0  0  0  0  0  0  0
   -0.9790    9.7970   -9.2140 C   0  0  0  0  0  0  0  0  0  0  0  0
    3.6600    8.6300  -11.9190 N   0  0  0  0  0  0  0  0  0  0  0  0
    0.6900   11.2140   -7.5290 C   0  0  0  0  0  0  0  0  0  0  0  0
    0.0820   10.4650   -9.7640 C   0  0  0  0  0  0  0  0  0  0  0  0
    1.4320   11.9210   -6.4670 C   0  0  0  0  0  0  0  0  0  0  0  0
    3.8800    9.5420  -12.9730 C   0  0  0  0  0  0  0  0  0  0  0  0
    0.9180   11.1580   -8.9320 C   0  0  0  0  0  0  0  0  0  0  0  0
    0.6890   12.2410   -5.3640 N   0  0  0  0  0  0  0  0  0  0  0  0
    2.5960   12.2030   -6.5030 O   0  0  0  0  0  0  0  0  0  0  0  0
    3.1160   10.6930  -13.2040 C   0  0  0  0  0  0  0  0  0  0  0  0
    4.9450    9.2750  -13.8470 C   0  0  0  0  0  0  0  0  0  0  0  0
    1.3540   12.9110   -4.2700 C   0  0  0  0  0  0  0  0  0  0  0  0
    3.4100   11.5470  -14.2730 C   0  0  0  0  0  0  0  0  0  0  0  0
    5.2400   10.1240  -14.9130 C   0  0  0  0  0  0  0  0  0  0  0  0
    0.9070   12.3350   -2.9420 C   0  0  0  0  0  0  0  0  0  0  0  0
    4.4720   11.2630  -15.1260 C   0  0  0  0  0  0  0  0  0  0  0  0
    1.2480   12.7410   -1.8480 O   0  0  0  0  0  0  0  0  0  0  0  0
    0.0640   11.2890   -3.0440 O   0  0  0  0  0  0  0  0  0  0  0  0
  1  2  1  0
  2  3  1  0
  1  4  1  0
  2  5  2  0
  4  6  2  0
  4  7  1  0
  6  8  1  0
  7  9  2  0
  3 10  1  0
  8 11  2  0
  9 11  1  0
 10 12  2  0
 10 13  1  0
 11 14  1  0
 12 15  1  0
 13 16  2  0
 15 17  1  0
 14 18  1  0
 15 19  2  0
 16 19  1  0
 17 20  1  0
 17 21  2  0
 18 22  2  0
 18 23  1  0
 20 24  1  0
 22 25  1  0
 23 26  2  0
 24 27  1  0
 25 28  2  0
 26 28  1  0
 27 29  2  0
 27 30  1  0
M  END
