mArh-3q6z_0_A_β-mArh-2fav_B_0_B_δ
     RDKit          3D

 21 22  0  0  0  0  0  0  0  0999 V2000
   -1.6390   20.4310   -8.0830 O   0  0  0  0  0  0  0  0  0  0  0  0
   -0.2830   19.6540   -7.8090 P   0  0  0  0  0  0  0  0  0  0  0  0
   -0.3230   19.0600   -6.3620 O   0  0  0  0  0  0  0  0  0  0  0  0
    0.0990   18.6630   -8.8400 O   0  0  0  0  0  0  0  0  0  0  0  0
    0.7670   20.8510   -7.7210 O   0  0  0  0  0  0  0  0  0  0  0  0
   -1.4450   18.1170   -5.7850 P   0  0  1  0  0  0  0  0  0  0  0  0
   -0.7770   16.6810   -5.5920 O   0  0  0  0  0  0  0  0  0  0  0  0
   -2.0760   18.6450   -4.5760 O   0  0  0  0  0  0  0  0  0  0  0  0
   -2.4870   17.8790   -6.9800 O   0  0  0  0  0  0  0  0  0  0  0  0
   -0.7830   16.1170   -4.2910 C   0  0  0  0  0  0  0  0  0  0  0  0
   -2.2000   15.9220   -3.7300 C   0  0  0  0  0  0  0  0  0  0  0  0
   -2.4470   14.6790   -2.8620 C   0  0  1  0  0  0  0  0  0  0  0  0
   -1.2090   14.1980   -2.2970 N   0  0  0  0  0  0  0  0  0  0  0  0
   -3.3700   14.8350   -1.7260 N   0  0  0  0  0  0  0  0  0  0  0  0
   -1.0680   14.8300   -0.9980 C   0  0  1  0  0  0  0  0  0  0  0  0
   -2.4600   15.4180   -0.6850 C   0  0  2  0  0  0  0  0  0  0  0  0
   -0.6340   13.7680   -0.1190 N   0  0  0  0  0  0  0  0  0  0  0  0
   -2.9040   15.2200    0.7970 C   0  0  1  0  0  0  0  0  0  0  0  0
   -4.2600   14.7310    0.9610 N   0  0  0  0  0  0  0  0  0  0  0  0
   -0.6820   14.2750    1.2280 C   0  0  0  0  0  0  0  0  0  0  0  0
   -2.0710   14.3560    1.6170 N   0  0  0  0  0  0  0  0  0  0  0  0
  1  2  1  0
  2  3  1  0
  2  4  2  0
  2  5  1  0
  3  6  1  0
  6  7  1  0
  6  8  2  0
  6  9  1  6
  7 10  1  0
 10 11  1  0
 12 11  1  1
 12 13  1  0
 12 14  1  0
 15 13  1  6
 16 14  1  6
 15 16  1  0
 15 17  1  0
 16 18  1  0
 18 19  1  6
 17 20  1  0
 18 21  1  0
 20 21  1  0
M  END
