mArh-5cms_A_0_A_Î±
     RDKit          3D

  9  9  0  0  0  0  0  0  0  0999 V2000
   -2.0490   21.3650   -8.8830 C   0  0  0  0  0  0  0  0  0  0  0  0
   -2.0050   21.7460  -10.3720 C   0  0  1  0  0  0  0  0  0  0  0  0
   -3.3060   22.0150  -10.9420 O   0  0  0  0  0  0  0  0  0  0  0  0
   -1.1840   23.0180  -10.5220 C   0  0  2  0  0  0  0  0  0  0  0  0
   -3.6150   23.3880  -10.7080 C   0  0  2  0  0  0  0  0  0  0  0  0
   -2.2720   24.0690  -10.3440 C   0  0  2  0  0  0  0  0  0  0  0  0
   -0.5040   23.0560  -11.7820 O   0  0  0  0  0  0  0  0  0  0  0  0
   -4.5690   23.4680   -9.6400 O   0  0  0  0  0  0  0  0  0  0  0  0
   -2.0050   25.2410  -11.1250 O   0  0  0  0  0  0  0  0  0  0  0  0
  2  1  1  1
  3  2  1  0
  4  2  1  0
  5  3  1  0
  6  4  1  0
  4  7  1  6
  5  8  1  1
  5  6  1  0
  6  9  1  6
M  END
