mArh-x0626_0_A_α-5CMS_0_E_γ
     RDKit          3D

 21 22  0  0  0  0  0  0  0  0999 V2000
   -4.8870   14.9170    1.4850 N   0  0  0  0  0  0  0  0  0  0  0  0
   -6.0710   14.7340    0.8330 C   0  0  0  0  0  0  0  0  0  0  0  0
   -6.1090   14.8660   -0.3960 O   0  0  0  0  0  0  0  0  0  0  0  0
   -3.6570   14.8550    0.9160 C   0  0  0  0  0  0  0  0  0  0  0  0
   -7.3110   14.3800    1.6320 C   0  0  0  0  0  0  0  0  0  0  0  0
   -2.4630   14.7000    1.4700 N   0  0  0  0  0  0  0  0  0  0  0  0
   -3.7220   15.0190   -0.7790 S   0  0  0  0  0  0  0  0  0  0  0  0
   -8.5900   14.6640    0.8580 C   0  0  0  0  0  0  0  0  0  0  0  0
   -2.0320   14.8500   -0.8200 C   0  0  0  0  0  0  0  0  0  0  0  0
   -1.5250   14.6920    0.4550 C   0  0  0  0  0  0  0  0  0  0  0  0
   -0.0800   14.5300    0.7330 C   0  0  0  0  0  0  0  0  0  0  0  0
    0.6280   14.4630   -0.6250 C   0  0  0  0  0  0  0  0  0  0  0  0
   -0.0030   13.4130   -1.5360 C   0  0  0  0  0  0  0  0  0  0  0  0
    0.1640   13.8200   -3.0030 C   0  0  2  0  0  0  0  0  0  0  0  0
    0.1100   15.2510   -3.2010 O   0  0  0  0  0  0  0  0  0  0  0  0
   -0.8800   13.3260   -3.9890 C   0  0  2  0  0  0  0  0  0  0  0  0
   -0.8390   11.9040   -4.1520 O   0  0  0  0  0  0  0  0  0  0  0  0
   -0.2210   15.4430   -4.6000 C   0  0  2  0  0  0  0  0  0  0  0  0
   -0.3060   14.0210   -5.1980 C   0  0  1  0  0  0  0  0  0  0  0  0
    0.7960   16.3750   -5.2300 C   0  0  0  0  0  0  0  0  0  0  0  0
    0.9880   13.4740   -5.4860 O   0  0  0  0  0  0  0  0  0  0  0  0
  1  2  1  0
  2  3  2  0
  1  4  1  0
  2  5  1  0
  4  6  2  0
  4  7  1  0
  5  8  1  0
  7  9  1  0
  6 10  1  0
  9 10  2  0
 10 11  1  0
 11 12  1  0
 12 13  1  0
 14 13  1  1
 14 15  1  0
 14 16  1  0
 16 17  1  6
 15 18  1  0
 16 19  1  0
 18 19  1  0
 18 20  1  6
 19 21  1  1
M  END
