mArh-5cms_B_1_B_γ-mArh-x0421_0_A_α
     RDKit          3D

 19 21  0  0  0  0  0  0  0  0999 V2000
   -0.4990   12.2620   -3.9610 O   0  0  0  0  0  0  0  0  0  0  0  0
   -0.9110   13.6470   -3.9450 C   0  0  1  0  0  0  0  0  0  0  0  0
   -0.3720   14.3640   -2.7010 C   0  0  2  0  0  0  0  0  0  0  0  0
   -0.2150   14.3290   -5.1080 C   0  0  2  0  0  0  0  0  0  0  0  0
    0.7080   13.4400   -5.7380 O   0  0  0  0  0  0  0  0  0  0  0  0
   -1.3550   14.4740   -1.6440 N   0  0  0  0  0  0  0  0  0  0  0  0
    0.1110   15.6430   -3.1390 O   0  0  0  0  0  0  0  0  0  0  0  0
    0.4810   15.5580   -4.5160 C   0  0  2  0  0  0  0  0  0  0  0  0
    0.1020   16.8690   -5.1870 C   0  0  0  0  0  0  0  0  0  0  0  0
   -2.6170   14.7670   -1.6390 C   0  0  0  0  0  0  0  0  0  0  0  0
   -3.3510   15.0630   -2.7590 N   0  0  0  0  0  0  0  0  0  0  0  0
   -3.3960   14.8160   -0.4020 C   0  0  0  0  0  0  0  0  0  0  0  0
   -2.9000   15.0020    0.8690 C   0  0  0  0  0  0  0  0  0  0  0  0
   -4.7880   14.6650   -0.3440 N   0  0  0  0  0  0  0  0  0  0  0  0
   -3.9710   14.9610    1.6990 N   0  0  0  0  0  0  0  0  0  0  0  0
   -5.0780   14.7560    0.9440 C   0  0  0  0  0  0  0  0  0  0  0  0
   -6.4860   14.6440    1.5760 C   0  0  0  0  0  0  0  0  0  0  0  0
   -7.7150   14.6820    0.7080 C   0  0  0  0  0  0  0  0  0  0  0  0
   -7.2820   13.3920    1.3450 C   0  0  0  0  0  0  0  0  0  0  0  0
  2  1  1  1
  2  3  1  0
  2  4  1  0
  4  5  1  1
  3  6  1  1
  3  7  1  0
  4  8  1  0
  7  8  1  0
  8  9  1  6
  6 10  2  3
 10 11  1  0
 10 12  1  0
 12 13  2  0
 12 14  1  0
 13 15  1  0
 14 16  2  0
 15 16  1  0
 16 17  1  0
 17 18  1  0
 17 19  1  0
 18 19  1  0
M  END
