mArh-2bfq_0_A_γ-mArh-5cb5_A_0_A_β
     RDKit          3D

 16 16  0  0  0  0  0  0  0  0999 V2000
   -1.7630   13.2060   -3.8710 O   0  0  0  0  0  0  0  0  0  0  0  0
   -0.4920   13.8100   -3.7510 C   0  0  2  0  0  0  0  0  0  0  0  0
   -0.3930   14.8260   -2.6040 C   0  0  0  0  0  0  0  0  0  0  0  0
   -0.1160   14.6320   -4.9740 C   0  0  2  0  0  0  0  0  0  0  0  0
    1.3020   14.4810   -5.1120 O   0  0  0  0  0  0  0  0  0  0  0  0
    0.0120   16.0790   -3.1910 O   0  0  0  0  0  0  0  0  0  0  0  0
   -0.5500   16.0210   -4.5080 C   0  0  1  0  0  0  0  0  0  0  0  0
   -0.1400   17.2460   -5.3220 C   0  0  0  0  0  0  0  0  0  0  0  0
   -1.5350   18.2550   -5.9140 P   0  0  1  0  0  0  0  0  0  0  0  0
   -0.9990   19.5490   -6.6240 O   0  0  0  0  0  0  0  0  0  0  0  0
   -2.5660   17.5150   -6.7110 O   0  0  0  0  0  0  0  0  0  0  0  0
   -2.1410   18.9790   -4.6260 O   0  0  0  0  0  0  0  0  0  0  0  0
   -0.2350   19.9030   -7.9230 P   0  0  0  0  0  0  0  0  0  0  0  0
   -1.3860   20.5350   -8.8210 O   0  0  0  0  0  0  0  0  0  0  0  0
    0.9390   20.7830   -7.7840 O   0  0  0  0  0  0  0  0  0  0  0  0
    0.0050   18.5450   -8.7380 O   0  0  0  0  0  0  0  0  0  0  0  0
  2  1  1  6
  2  3  1  0
  2  4  1  0
  4  5  1  1
  3  6  1  0
  4  7  1  0
  6  7  1  0
  7  8  1  6
  8  9  1  0
  9 10  1  0
  9 11  2  0
  9 12  1  1
 10 13  1  0
 13 14  1  0
 13 15  2  0
 13 16  1  0
M  END
