mArh-6vxs_B_0_B_Î±
     RDKit          3D

 13 13  0  0  0  0  0  0  0  0999 V2000
    9.2740   33.6350    8.9990 N   0  0  0  0  0  0  0  0  0  0  0  0
    8.0810   35.6750    9.7500 C   0  0  0  0  0  0  0  0  0  0  0  0
    7.2070   36.8360    9.2820 C   0  0  0  0  0  0  0  0  0  0  0  0
    5.9280   36.3340    8.6460 C   0  0  0  0  0  0  0  0  0  0  0  0
    6.2370   35.4030    7.4910 C   0  0  0  0  0  0  0  0  0  0  0  0
    7.1070   34.2310    7.9450 C   0  0  0  0  0  0  0  0  0  0  0  0
    8.3890   34.7340    8.5930 C   0  0  0  0  0  0  0  0  0  0  0  0
    9.7760   32.8070    7.9030 C   0  0  0  0  0  0  0  0  0  0  0  0
   11.5190   29.8220    9.7850 O   0  0  0  0  0  0  0  0  0  0  0  0
   10.8930   31.8740    8.3510 C   0  0  0  0  0  0  0  0  0  0  0  0
    9.2550   29.9320    8.8070 O   0  0  0  0  0  0  0  0  0  0  0  0
    9.8570   31.3690   10.6930 O   0  0  0  0  0  0  0  0  0  0  0  0
   10.3560   30.5920    9.4490 S   0  0  0  0  0  0  0  0  0  0  0  0
  7  1  1  0
  1  8  1  0
  7  2  1  0
  7  6  1  0
  8 10  1  0
  2  3  1  0
  3  4  1  0
  4  5  1  0
  5  6  1  0
 10 13  1  0
  9 13  2  0
 13 11  2  0
 13 12  1  0
M  END
