mArh-5cms_B_1_B_β-mArh-5cb5_L_0_L_γ
     RDKit          3D

 16 16  0  0  0  0  0  0  0  0999 V2000
   -1.5280   20.4550   -8.5520 O   0  0  0  0  0  0  0  0  0  0  0  0
   -0.3270   19.7660   -7.7670 P   0  0  0  0  0  0  0  0  0  0  0  0
   -0.9630   19.3480   -6.3840 O   0  0  0  0  0  0  0  0  0  0  0  0
    0.8760   20.6170   -7.6910 O   0  0  0  0  0  0  0  0  0  0  0  0
   -0.1200   18.4490   -8.6470 O   0  0  0  0  0  0  0  0  0  0  0  0
   -1.5420   17.9200   -6.0670 P   0  0  2  0  0  0  0  0  0  0  0  0
   -0.3140   16.9100   -5.8100 O   0  0  0  0  0  0  0  0  0  0  0  0
   -2.6420   17.4520   -6.9300 O   0  0  0  0  0  0  0  0  0  0  0  0
   -2.0390   18.1370   -4.5820 O   0  0  0  0  0  0  0  0  0  0  0  0
   -0.5790   15.8490   -4.9020 C   0  0  2  0  0  0  0  0  0  0  0  0
   -0.0110   16.0380   -3.6030 O   0  0  0  0  0  0  0  0  0  0  0  0
   -0.1520   14.4130   -5.2600 C   0  0  1  0  0  0  0  0  0  0  0  0
    1.2590   14.1390   -5.3060 O   0  0  0  0  0  0  0  0  0  0  0  0
   -0.2150   14.7760   -2.9380 C   0  0  0  0  0  0  0  0  0  0  0  0
   -0.6970   13.7810   -4.0000 C   0  0  2  0  0  0  0  0  0  0  0  0
   -0.2090   12.4650   -3.8130 O   0  0  0  0  0  0  0  0  0  0  0  0
  1  2  1  0
  2  3  1  0
  2  4  2  0
  2  5  1  0
  3  6  1  0
  6  7  1  0
  6  8  2  0
  6  9  1  1
 10  7  1  6
 10 11  1  0
 10 12  1  0
 12 13  1  1
 11 14  1  0
 12 15  1  0
 14 15  1  0
 15 16  1  1
M  END
