mArh-6mea_A_0_A_Î³
     RDKit          3D

  8  8  0  0  0  0  0  0  0  0999 V2000
   -0.5810   14.4390   -2.7740 C   0  0  0  0  0  0  0  0  0  0  0  0
    0.1300   15.6440   -2.9660 O   0  0  0  0  0  0  0  0  0  0  0  0
   -1.1660   14.1030   -4.1370 C   0  0  1  0  0  0  0  0  0  0  0  0
    0.6280   15.6780   -4.3240 C   0  0  1  0  0  0  0  0  0  0  0  0
    0.0430   14.4400   -5.0180 C   0  0  1  0  0  0  0  0  0  0  0  0
   -1.5720   12.7400   -4.2000 O   0  0  0  0  0  0  0  0  0  0  0  0
    0.2910   17.0080   -4.9480 C   0  0  0  0  0  0  0  0  0  0  0  0
    1.0040   13.3890   -5.0480 O   0  0  0  0  0  0  0  0  0  0  0  0
  1  2  1  1
  1  3  1  0
  4  2  1  0
  5  3  1  0
  3  6  1  1
  4  7  1  6
  4  5  1  0
  5  8  1  1
M  END
