mArh-5cb5_N_0_N_Î²
     RDKit          3D

  9  8  0  0  0  0  0  0  0  0999 V2000
   -1.7840   20.3960   -8.9600 O   0  0  0  0  0  0  0  0  0  0  0  0
   -0.5340   19.5800   -8.3380 P   0  0  2  0  0  0  0  0  0  0  0  0
   -0.9160   19.2850   -6.8140 O   0  0  0  0  0  0  0  0  0  0  0  0
    0.6810   20.5210   -8.3860 O   0  0  0  0  0  0  0  0  0  0  0  0
   -0.3580   18.3390   -9.1970 O   0  0  0  0  0  0  0  0  0  0  0  0
   -2.1960   18.3370   -6.4220 P   0  0  2  0  0  0  0  0  0  0  0  0
   -1.4280   17.1280   -5.5890 O   0  0  0  0  0  0  0  0  0  0  0  0
   -2.9120   17.8630   -7.6830 O   0  0  0  0  0  0  0  0  0  0  0  0
   -3.1060   19.0560   -5.3650 O   0  0  0  0  0  0  0  0  0  0  0  0
  2  1  1  6
  3  2  1  0
  2  4  2  0
  2  5  1  0
  6  3  1  0
  6  7  1  1
  6  8  2  0
  6  9  1  0
M  END
