
     RDKit          3D

 36 39  0  0  0  0  0  0  0  0999 V2000
   -2.2160   18.2400   -6.3970 P   0  0  0  0  0  0  0  0  0  0  0  0
   -0.3670   19.4630   -8.4010 P   0  0  0  0  0  0  0  0  0  0  0  0
   -0.1690   17.1500   -5.3940 C   0  0  0  0  0  0  0  0  0  0  0  0
   -1.3640   16.8770   -6.1360 O   0  0  0  0  0  0  0  0  0  0  0  0
    0.3180   15.9840   -4.5320 C   0  0  1  0  0  0  0  0  0  0  0  0
   -0.1960   15.9420   -3.1790 O   0  0  0  0  0  0  0  0  0  0  0  0
   -0.1140   14.6580   -5.1100 C   0  0  1  0  0  0  0  0  0  0  0  0
    1.0730   13.9420   -4.8340 O   0  0  0  0  0  0  0  0  0  0  0  0
   -1.3020   14.2170   -4.2710 C   0  0  1  0  0  0  0  0  0  0  0  0
   -1.4440   12.8170   -4.2800 O   0  0  0  0  0  0  0  0  0  0  0  0
   -0.8280   14.6710   -2.9080 C   0  0  2  0  0  0  0  0  0  0  0  0
   -5.4080   21.6860   -7.8210 C   0  0  1  0  0  0  0  0  0  0  0  0
   -1.6370   15.5360    2.1090 N   0  0  0  0  0  0  0  0  0  0  0  0
   -3.3820   17.9850   -7.3590 O   0  0  0  0  0  0  0  0  0  0  0  0
    0.7930   20.3940   -8.0930 O   0  0  0  0  0  0  0  0  0  0  0  0
   -5.9630   21.2960   -6.5530 O   0  0  0  0  0  0  0  0  0  0  0  0
   -0.4930   15.3170    1.4090 C   0  0  0  0  0  0  0  0  0  0  0  0
   -4.8530   23.1160   -7.8380 C   0  0  2  0  0  0  0  0  0  0  0  0
   -2.6470   18.9090   -5.0620 O   0  0  0  0  0  0  0  0  0  0  0  0
   -0.0330   18.2070   -9.2170 O   0  0  0  0  0  0  0  0  0  0  0  0
   -5.8960   24.0370   -8.2410 O   0  0  0  0  0  0  0  0  0  0  0  0
   -3.7990   23.1030   -8.9260 C   0  0  2  0  0  0  0  0  0  0  0  0
   -0.4660   15.1020    0.0730 N   0  0  0  0  0  0  0  0  0  0  0  0
   -1.0630   19.2630   -6.9330 O   0  0  0  0  0  0  0  0  0  0  0  0
   -4.4310   23.4760  -10.1510 O   0  0  0  0  0  0  0  0  0  0  0  0
   -1.6260   15.1050   -0.6270 C   0  0  0  0  0  0  0  0  0  0  0  0
   -3.3840   21.6640   -9.0670 C   0  0  2  0  0  0  0  0  0  0  0  0
   -4.2530   20.9070   -8.1810 O   0  0  0  0  0  0  0  0  0  0  0  0
   -2.9250   15.3480    0.0530 C   0  0  0  0  0  0  0  0  0  0  0  0
   -1.9420   21.5220   -8.6460 C   0  0  0  0  0  0  0  0  0  0  0  0
   -1.4410   20.3420   -9.2520 O   0  0  0  0  0  0  0  0  0  0  0  0
   -2.8450   15.5720    1.5060 C   0  0  0  0  0  0  0  0  0  0  0  0
   -3.9340   15.7940    2.2550 N   0  0  0  0  0  0  0  0  0  0  0  0
   -3.9040   15.2810   -0.8840 N   0  0  0  0  0  0  0  0  0  0  0  0
   -3.2540   15.0120   -2.0750 C   0  0  0  0  0  0  0  0  0  0  0  0
   -1.8920   14.9100   -1.9170 N   0  0  0  0  0  0  0  0  0  0  0  0
  1  4  1  0
  1 14  2  0
  1 19  1  0
  1 24  1  0
  4  3  1  0
 24  2  1  0
  2 15  2  0
  2 20  1  0
  2 31  1  0
 31 30  1  0
  5  3  1  6
  5  6  1  0
  5  7  1  0
  6 11  1  0
  7  8  1  1
  7  9  1  0
 11  9  1  0
 11 36  1  1
  9 10  1  1
 36 26  1  0
 36 35  1  0
 12 16  1  1
 12 18  1  0
 12 28  1  0
 18 21  1  6
 18 22  1  0
 28 27  1  0
 13 17  2  0
 13 32  1  0
 17 23  1  0
 32 29  2  0
 32 33  1  0
 23 26  2  0
 22 25  1  6
 22 27  1  0
 27 30  1  1
 26 29  1  0
 29 34  1  0
 34 35  2  0
M  END
