mArh-5cb5_J_2_J_γ-5DUS_0_A_α
     RDKit          3D

 21 22  0  0  0  0  0  0  0  0999 V2000
   -0.4380   12.3860   -3.9950 O   0  0  0  0  0  0  0  0  0  0  0  0
   -0.8770   13.7280   -4.0470 C   0  0  1  0  0  0  0  0  0  0  0  0
   -0.7510   14.4370   -2.7050 C   0  0  0  0  0  0  0  0  0  0  0  0
   -0.0130   14.5860   -4.9650 C   0  0  2  0  0  0  0  0  0  0  0  0
    1.3420   14.1390   -4.9230 O   0  0  0  0  0  0  0  0  0  0  0  0
   -0.1920   15.7290   -2.9630 O   0  0  0  0  0  0  0  0  0  0  0  0
   -0.3190   15.9550   -4.3670 C   0  0  1  0  0  0  0  0  0  0  0  0
    0.5560   17.1510   -4.7180 C   0  0  0  0  0  0  0  0  0  0  0  0
    0.4150   17.6570   -6.1360 C   0  0  0  0  0  0  0  0  0  0  0  0
   -0.0730   19.0750   -6.3380 C   0  0  0  0  0  0  0  0  0  0  0  0
   -1.0940   19.2190   -7.4640 C   0  0  0  0  0  0  0  0  0  0  0  0
   -1.1560   20.6100   -8.0900 C   0  0  0  0  0  0  0  0  0  0  0  0
   -2.0410   21.6600   -7.3820 C   0  0  0  0  0  0  0  0  0  0  0  0
   -3.4050   21.9030   -8.0570 C   0  0  1  0  0  0  0  0  0  0  0  0
   -4.3430   21.0090   -7.4290 O   0  0  0  0  0  0  0  0  0  0  0  0
   -3.9590   23.3410   -7.9330 C   0  0  1  0  0  0  0  0  0  0  0  0
   -4.1390   24.0310   -9.1510 O   0  0  0  0  0  0  0  0  0  0  0  0
   -5.5070   21.7290   -7.0430 C   0  0  2  0  0  0  0  0  0  0  0  0
   -5.3240   23.2240   -7.2980 C   0  0  1  0  0  0  0  0  0  0  0  0
   -5.7660   21.5220   -5.6750 O   0  0  0  0  0  0  0  0  0  0  0  0
   -5.4710   24.0690   -6.1620 O   0  0  0  0  0  0  0  0  0  0  0  0
  2  1  1  1
  2  3  1  0
  2  4  1  0
  4  5  1  1
  3  6  1  0
  4  7  1  0
  6  7  1  0
  7  8  1  6
  8  9  1  0
  9 10  1  0
 10 11  1  0
 11 12  1  0
 12 13  1  0
 14 13  1  1
 14 15  1  0
 14 16  1  0
 16 17  1  6
 15 18  1  0
 16 19  1  0
 18 19  1  0
 18 20  1  1
 19 21  1  1
M  END
