mArh-5cms_I_8_I_Î±
     RDKit          3D

  9  9  0  0  0  0  0  0  0  0999 V2000
   -1.0190   21.7780   -8.3040 C   0  0  0  0  0  0  0  0  0  0  0  0
   -1.8850   21.8500   -9.5330 C   0  0  1  0  0  0  0  0  0  0  0  0
   -3.2590   21.7360   -9.1890 O   0  0  0  0  0  0  0  0  0  0  0  0
   -1.7170   23.1480  -10.3160 C   0  0  2  0  0  0  0  0  0  0  0  0
   -3.9850   22.2820  -10.3080 C   0  0  2  0  0  0  0  0  0  0  0  0
   -3.0460   23.2400  -11.0550 C   0  0  2  0  0  0  0  0  0  0  0  0
   -0.5470   23.0810  -11.1500 O   0  0  0  0  0  0  0  0  0  0  0  0
   -5.1700   22.9400   -9.8600 O   0  0  0  0  0  0  0  0  0  0  0  0
   -2.9200   22.8040  -12.4090 O   0  0  0  0  0  0  0  0  0  0  0  0
  2  1  1  1
  3  2  1  0
  4  2  1  0
  5  3  1  0
  6  4  1  0
  4  7  1  6
  5  8  1  1
  5  6  1  0
  6  9  1  6
M  END
