mArh-EU0906_0_A_α-mArh-3gqe_A_0_A_α
     RDKit          3D

 24 24  0  0  0  0  0  0  0  0999 V2000
    1.2900   11.2180   -9.8720 N   0  0  0  0  0  0  0  0  0  0  0  0
    0.5770   10.6780   -8.8760 C   0  0  0  0  0  0  0  0  0  0  0  0
   -0.1230    9.5200   -9.0410 C   0  0  0  0  0  0  0  0  0  0  0  0
    0.3620   11.0790   -7.4860 C   0  0  0  0  0  0  0  0  0  0  0  0
    0.8400   12.2130   -6.5400 C   0  0  0  0  0  0  0  0  0  0  0  0
   -0.6980    9.2750   -7.8410 N   0  0  0  0  0  0  0  0  0  0  0  0
   -0.4400   10.1870   -6.9150 N   0  0  0  0  0  0  0  0  0  0  0  0
   -1.5190    8.1690   -7.4530 C   0  0  0  0  0  0  0  0  0  0  0  0
   -0.1100   13.3180   -5.9370 C   0  0  0  0  0  0  0  0  0  0  0  0
   -0.7540    7.3410   -6.4310 C   0  0  0  0  0  0  0  0  0  0  0  0
    0.5650   14.6670   -5.4360 C   0  0  0  0  0  0  0  0  0  0  0  0
   -0.2530   16.0110   -5.3100 C   0  0  0  0  0  0  0  0  0  0  0  0
    0.3980   17.3080   -5.9500 C   0  0  0  0  0  0  0  0  0  0  0  0
   -0.2080   17.7320   -7.2270 O   0  0  0  0  0  0  0  0  0  0  0  0
    0.0540   19.0670   -7.7310 C   0  0  0  0  0  0  0  0  0  0  0  0
   -1.0510   20.1320   -7.5140 C   0  0  0  0  0  0  0  0  0  0  0  0
   -1.9640   19.8570   -6.3880 N   0  0  0  0  0  0  0  0  0  0  0  0
   -2.3700   18.4340   -6.4520 C   0  0  0  0  0  0  0  0  0  0  0  0
   -3.0610   20.8580   -6.2270 C   0  0  0  0  0  0  0  0  0  0  0  0
   -2.2670   17.7290   -5.1170 C   0  0  0  0  0  0  0  0  0  0  0  0
   -3.1430   21.8750   -7.3870 C   0  0  0  0  0  0  0  0  0  0  0  0
   -4.5000   22.1710   -7.7180 O   0  0  0  0  0  0  0  0  0  0  0  0
   -2.8810   16.7670   -4.6880 O   0  0  0  0  0  0  0  0  0  0  0  0
   -1.3510   18.3430   -4.3530 O   0  0  0  0  0  0  0  0  0  0  0  0
  1  2  1  0
  2  3  2  0
  2  4  1  0
  4  5  1  0
  3  6  1  0
  4  7  2  0
  6  7  1  0
  6  8  1  0
  5  9  1  0
  8 10  1  0
  9 11  1  0
 11 12  1  0
 12 13  1  0
 13 14  1  0
 14 15  1  0
 15 16  1  0
 16 17  1  0
 17 18  1  0
 17 19  1  0
 18 20  1  0
 19 21  1  0
 21 22  1  0
 20 23  2  0
 20 24  1  0
M  END
