
     RDKit          3D

  9  9  0  0  0  0  0  0  0  0999 V2000
   -6.4080   14.4600   -0.6150 N   0  0  0  0  0  0  0  0  0  0  0  0
   -8.3650   14.5550    0.9060 C   0  0  0  0  0  0  0  0  0  0  0  0
   -6.0300   14.9480    1.5260 O   0  0  0  0  0  0  0  0  0  0  0  0
   -6.9300   14.6130    0.5490 C   0  0  0  0  0  0  0  0  0  0  0  0
   -3.3560   14.6910   -2.3530 N   0  0  0  0  0  0  0  0  0  0  0  0
   -5.0670   14.7120   -0.4350 C   0  0  0  0  0  0  0  0  0  0  0  0
   -3.7700   15.3810    1.5550 N   0  0  0  0  0  0  0  0  0  0  0  0
   -4.1330   14.7030   -1.5150 C   0  0  0  0  0  0  0  0  0  0  0  0
   -4.8440   15.0140    0.8560 C   0  0  0  0  0  0  0  0  0  0  0  0
  1  4  2  0
  1  6  1  0
  4  2  1  0
  4  3  1  0
  6  8  1  0
  6  9  2  0
  3  9  1  0
  9  7  1  0
  5  8  3  0
M  END
