mArh-5cb5_C_0_C_γ-5CB5_0_I_β
     RDKit          3D

 16 16  0  0  0  0  0  0  0  0999 V2000
   -0.5360   12.6030   -3.7500 O   0  0  0  0  0  0  0  0  0  0  0  0
   -0.8800   13.9440   -3.8610 C   0  0  1  0  0  0  0  0  0  0  0  0
   -0.3080   14.8120   -2.7470 C   0  0  0  0  0  0  0  0  0  0  0  0
   -0.2860   14.5890   -5.0750 C   0  0  2  0  0  0  0  0  0  0  0  0
    1.0550   14.2050   -5.1380 O   0  0  0  0  0  0  0  0  0  0  0  0
    0.1280   15.9950   -3.3850 O   0  0  0  0  0  0  0  0  0  0  0  0
   -0.5020   15.9790   -4.6100 C   0  0  1  0  0  0  0  0  0  0  0  0
   -0.1610   17.1890   -5.4940 C   0  0  0  0  0  0  0  0  0  0  0  0
   -1.6050   18.1310   -5.8000 P   0  0  0  0  0  0  0  0  0  0  0  0
   -1.1220   19.4150   -6.4760 O   0  0  0  0  0  0  0  0  0  0  0  0
   -2.5490   17.9160   -7.1800 O   0  0  0  0  0  0  0  0  0  0  0  0
   -2.1910   19.0720   -4.6670 O   0  0  0  0  0  0  0  0  0  0  0  0
   -0.0520   19.5980   -7.6240 P   0  0  0  0  0  0  0  0  0  0  0  0
   -0.9620   20.5650   -8.3820 O   0  0  0  0  0  0  0  0  0  0  0  0
    1.1100   20.8120   -7.5570 O   0  0  0  0  0  0  0  0  0  0  0  0
    0.0220   18.5060   -8.8420 O   0  0  0  0  0  0  0  0  0  0  0  0
  2  1  1  1
  2  3  1  0
  2  4  1  0
  4  5  1  1
  3  6  1  0
  4  7  1  0
  6  7  1  0
  7  8  1  6
  8  9  1  0
  9 10  1  0
  9 11  1  0
  9 12  1  0
 10 13  1  0
 13 14  1  0
 13 15  1  0
 13 16  1  0
M  CHG  2  11  -1  15  -1
M  END
