mArh-x0895_1_A_α-mArh-EU0815_0_A_α
     RDKit          3D

 14 14  0  0  0  0  0  0  0  0999 V2000
   -2.0330   14.8500    1.7200 O   0  0  0  0  0  0  0  0  0  0  0  0
   -3.1720   14.9520    1.2510 C   0  0  0  0  0  0  0  0  0  0  0  0
   -3.5410   14.9170   -0.2130 C   0  0  0  0  0  0  0  0  0  0  0  0
   -4.3880   15.1160    1.9120 N   0  0  0  0  0  0  0  0  0  0  0  0
   -4.7890   14.2010   -0.0500 N   0  0  0  0  0  0  0  0  0  0  0  0
   -5.4080   14.6330    1.1150 C   0  0  0  0  0  0  0  0  0  0  0  0
   -6.7230   14.5960    1.3810 N   0  0  0  0  0  0  0  0  0  0  0  0
   -7.6180   15.0110    2.4260 C   0  0  0  0  0  0  0  0  0  0  0  0
   -7.4630   14.7480    3.7740 N   0  0  0  0  0  0  0  0  0  0  0  0
   -8.6300   15.6270    2.1130 O   0  0  0  0  0  0  0  0  0  0  0  0
   -8.6570   14.7550    4.6620 C   0  0  1  0  0  0  0  0  0  0  0  0
   -9.0100   13.3320    5.0920 C   0  0  0  0  0  0  0  0  0  0  0  0
   -8.5430   15.6690    5.9120 C   0  0  0  0  0  0  0  0  0  0  0  0
   -9.7720   15.6740    6.6710 O   0  0  0  0  0  0  0  0  0  0  0  0
  1  2  2  0
  2  3  1  0
  2  4  1  0
  3  5  1  0
  4  6  1  0
  5  6  1  0
  6  7  2  3
  7  8  1  0
  8  9  1  0
  8 10  2  0
  9 11  1  0
 11 12  1  1
 11 13  1  0
 13 14  1  0
M  END
