mArh-5cms_E_5_E_Î±
     RDKit          3D

  9  9  0  0  0  0  0  0  0  0999 V2000
   -1.8870   21.6160   -8.7200 C   0  0  0  0  0  0  0  0  0  0  0  0
   -2.7900   21.8640   -9.9620 C   0  0  1  0  0  0  0  0  0  0  0  0
   -3.8070   22.9270   -9.7890 O   0  0  0  0  0  0  0  0  0  0  0  0
   -1.9650   22.3310  -11.1980 C   0  0  2  0  0  0  0  0  0  0  0  0
   -3.3510   24.0110  -10.6780 C   0  0  2  0  0  0  0  0  0  0  0  0
   -1.7830   23.7790  -10.7610 C   0  0  2  0  0  0  0  0  0  0  0  0
   -2.7120   22.1780  -12.5100 O   0  0  0  0  0  0  0  0  0  0  0  0
   -3.6890   24.7640   -9.7650 O   0  0  0  0  0  0  0  0  0  0  0  0
   -0.9460   24.4710  -11.7000 O   0  0  0  0  0  0  0  0  0  0  0  0
  2  1  1  1
  3  2  1  0
  4  2  1  0
  5  3  1  0
  6  4  1  0
  4  7  1  6
  5  8  1  1
  5  6  1  0
  6  9  1  6
M  END
