mArh-5cms_P_15_P_Î±
     RDKit          3D

  9  9  0  0  0  0  0  0  0  0999 V2000
   -2.0540   21.1170   -9.1380 C   0  0  0  0  0  0  0  0  0  0  0  0
   -1.8900   21.8830  -10.4330 C   0  0  1  0  0  0  0  0  0  0  0  0
   -3.1420   22.1920  -11.0570 O   0  0  0  0  0  0  0  0  0  0  0  0
   -1.0810   23.1810  -10.2120 C   0  0  2  0  0  0  0  0  0  0  0  0
   -3.1070   23.5360  -11.5440 C   0  0  2  0  0  0  0  0  0  0  0  0
   -1.7820   24.2090  -11.1100 C   0  0  2  0  0  0  0  0  0  0  0  0
    0.3410   23.0670  -10.4590 O   0  0  0  0  0  0  0  0  0  0  0  0
   -4.2220   24.2310  -10.9640 O   0  0  0  0  0  0  0  0  0  0  0  0
   -0.9640   24.6800  -12.2050 O   0  0  0  0  0  0  0  0  0  0  0  0
  2  1  1  1
  3  2  1  0
  4  2  1  0
  5  3  1  0
  6  4  1  0
  4  7  1  6
  5  8  1  1
  5  6  1  0
  6  9  1  6
M  END
