mArh-5cms_M_12_M_Î³
     RDKit          3D

  8  8  0  0  0  0  0  0  0  0999 V2000
   -0.7360   14.4290   -3.0990 C   0  0  0  0  0  0  0  0  0  0  0  0
   -0.0010   15.6160   -3.3390 O   0  0  0  0  0  0  0  0  0  0  0  0
   -1.1700   13.9160   -4.4570 C   0  0  1  0  0  0  0  0  0  0  0  0
    0.5450   15.5660   -4.6580 C   0  0  1  0  0  0  0  0  0  0  0  0
    0.0750   14.2480   -5.2440 C   0  0  1  0  0  0  0  0  0  0  0  0
   -1.4140   12.5130   -4.4430 O   0  0  0  0  0  0  0  0  0  0  0  0
    0.0640   16.7680   -5.4550 C   0  0  0  0  0  0  0  0  0  0  0  0
    1.0520   13.2350   -5.0190 O   0  0  0  0  0  0  0  0  0  0  0  0
  1  2  1  1
  1  3  1  0
  4  2  1  0
  5  3  1  0
  3  6  1  1
  4  7  1  6
  4  5  1  0
  5  8  1  1
M  END
