mArh-4jca_0_A_α-mArh-5cms_C_2_C_γ
     RDKit          3D

 22 22  0  0  0  0  0  0  0  0999 V2000
   -0.0650    9.9900   -3.0450 C   0  0  0  0  0  0  0  0  0  0  0  0
    0.4070    9.8740   -4.4490 C   0  0  0  0  0  0  0  0  0  0  0  0
    1.0740   11.1830   -4.7460 C   0  0  0  0  0  0  0  0  0  0  0  0
    0.6360    9.9640   -2.0660 O   0  0  0  0  0  0  0  0  0  0  0  0
   -1.3920   10.1270   -2.9000 O   0  0  0  0  0  0  0  0  0  0  0  0
    1.0120   11.5800   -6.2220 C   0  0  0  0  0  0  0  0  0  0  0  0
    0.2750   12.0430   -3.7920 C   0  0  0  0  0  0  0  0  0  0  0  0
    2.4380   11.2640   -4.2960 O   0  0  0  0  0  0  0  0  0  0  0  0
    1.1000   10.4040   -7.1710 C   0  0  0  0  0  0  0  0  0  0  0  0
   -1.0040   12.0070   -3.8410 N   0  0  0  0  0  0  0  0  0  0  0  0
    1.0190   12.7640   -2.9240 O   0  0  0  0  0  0  0  0  0  0  0  0
    0.9560    9.2420   -6.8210 O   0  0  0  0  0  0  0  0  0  0  0  0
    1.3400   10.7340   -8.4580 O   0  0  0  0  0  0  0  0  0  0  0  0
   -1.7650   12.8100   -2.9130 C   0  0  0  0  0  0  0  0  0  0  0  0
   -2.4010   13.8750   -3.5920 O   0  0  0  0  0  0  0  0  0  0  0  0
   -1.6060   15.0650   -3.6810 C   0  0  1  0  0  0  0  0  0  0  0  0
   -0.4540   14.9870   -2.6900 C   0  0  0  0  0  0  0  0  0  0  0  0
   -0.8120   15.1730   -4.9830 C   0  0  2  0  0  0  0  0  0  0  0  0
   -0.5950   13.9570   -5.6710 O   0  0  0  0  0  0  0  0  0  0  0  0
    0.5010   15.9570   -3.1410 O   0  0  0  0  0  0  0  0  0  0  0  0
    0.4990   15.8660   -4.5770 C   0  0  2  0  0  0  0  0  0  0  0  0
    0.6510   17.2550   -5.1760 C   0  0  0  0  0  0  0  0  0  0  0  0
  1  2  1  0
  2  3  1  0
  1  4  2  0
  1  5  1  0
  3  6  1  0
  3  7  1  0
  3  8  1  0
  6  9  1  0
  7 10  2  3
  7 11  1  0
  9 12  2  0
  9 13  1  0
 10 14  1  0
 14 15  1  0
 16 15  1  6
 16 17  1  0
 16 18  1  0
 18 19  1  1
 17 20  1  0
 18 21  1  0
 20 21  1  0
 21 22  1  6
M  END
