mArh-4iqy_B_0_B_Î²
     RDKit          3D

  9  8  0  0  0  0  0  0  0  0999 V2000
   -1.6720   20.0890   -8.9600 O   0  0  0  0  0  0  0  0  0  0  0  0
   -0.5240   19.2800   -8.2080 P   0  0  2  0  0  0  0  0  0  0  0  0
   -1.2460   18.8970   -6.8460 O   0  0  0  0  0  0  0  0  0  0  0  0
    0.5940   20.2190   -7.8990 O   0  0  0  0  0  0  0  0  0  0  0  0
   -0.1750   18.0920   -9.0320 O   0  0  0  0  0  0  0  0  0  0  0  0
   -2.1010   17.6440   -6.3720 P   0  0  1  0  0  0  0  0  0  0  0  0
   -1.0630   16.5000   -6.0750 O   0  0  0  0  0  0  0  0  0  0  0  0
   -2.8390   18.0460   -5.1430 O   0  0  0  0  0  0  0  0  0  0  0  0
   -3.0080   17.1630   -7.4700 O   0  0  0  0  0  0  0  0  0  0  0  0
  2  1  1  6
  3  2  1  0
  2  4  2  0
  2  5  1  0
  6  3  1  0
  6  7  1  1
  6  8  2  0
  6  9  1  0
M  END
