mArh-x0216_0_A_α-mArh-x0729_1_B_α
     RDKit          3D

 19 19  0  0  0  0  0  0  0  0999 V2000
   17.8250   28.7770    6.3770 N   0  0  0  0  0  0  0  0  0  0  0  0
   17.1810   29.7420    7.2680 C   0  0  0  0  0  0  0  0  0  0  0  0
   15.6840   29.6130    6.9900 C   0  0  0  0  0  0  0  0  0  0  0  0
   19.2010   28.3550    6.5960 C   0  0  1  0  0  0  0  0  0  0  0  0
   19.3770   27.7020    7.9360 N   0  0  0  0  0  0  0  0  0  0  0  0
   19.6580   27.5710    5.4130 N   0  0  0  0  0  0  0  0  0  0  0  0
   17.5950   31.2020    7.0530 C   0  0  0  0  0  0  0  0  0  0  0  0
   19.1280   27.6190    4.2050 C   0  0  0  0  0  0  0  0  0  0  0  0
   19.5300   28.7260    8.9640 O   0  0  0  0  0  0  0  0  0  0  0  0
   18.1940   26.9270    8.3060 O   0  0  0  0  0  0  0  0  0  0  0  0
   21.0640   27.1830    5.3000 C   0  0  1  0  0  0  0  0  0  0  0  0
   18.8430   27.5600    3.1000 N   0  0  0  0  0  0  0  0  0  0  0  0
   22.1160   27.4920    6.3310 C   0  0  0  0  0  0  0  0  0  0  0  0
   21.2390   25.7460    4.8510 C   0  0  2  0  0  0  0  0  0  0  0  0
   21.0000   24.6340    5.8580 C   0  0  0  0  0  0  0  0  0  0  0  0
   23.3530   27.2860    5.4440 C   0  0  0  0  0  0  0  0  0  0  0  0
   22.9410   25.9580    4.2900 S   0  0  0  0  0  0  0  0  0  0  0  0
   22.8840   26.5130    2.9390 O   0  0  0  0  0  0  0  0  0  0  0  0
   23.7540   24.8100    4.6170 O   0  0  0  0  0  0  0  0  0  0  0  0
  1  2  1  0
  2  3  1  0
  4  1  1  6
  4  5  1  0
  4  6  1  0
  2  7  1  0
  6  8  1  0
  5  9  1  0
  5 10  1  0
 11  6  1  1
  8 12  3  0
 11 13  1  0
 11 14  1  0
 14 15  1  1
 13 16  1  0
 14 17  1  0
 17 16  1  0
 17 18  2  0
 17 19  2  0
M  END
