mArh-5lw0_A_0_A_β-6WOJ_0_C_δ
     RDKit          3D

 21 22  0  0  0  0  0  0  0  0999 V2000
   -1.5820   20.3920   -8.7050 O   0  0  0  0  0  0  0  0  0  0  0  0
   -0.5510   19.4980   -7.9070 P   0  0  0  0  0  0  0  0  0  0  0  0
   -1.2110   19.2060   -6.4890 O   0  0  0  0  0  0  0  0  0  0  0  0
   -0.1630   18.3460   -8.7550 O   0  0  0  0  0  0  0  0  0  0  0  0
    0.6190   20.5440   -7.6970 O   0  0  0  0  0  0  0  0  0  0  0  0
   -1.7080   17.7790   -6.0220 P   0  0  2  0  0  0  0  0  0  0  0  0
   -0.3510   16.9440   -6.0320 O   0  0  0  0  0  0  0  0  0  0  0  0
   -2.7760   17.1730   -6.8560 O   0  0  0  0  0  0  0  0  0  0  0  0
   -1.9730   17.7930   -4.4630 O   0  0  0  0  0  0  0  0  0  0  0  0
   -1.6360   16.5800   -3.8210 C   0  0  0  0  0  0  0  0  0  0  0  0
   -2.8250   15.6300   -3.7580 C   0  0  0  0  0  0  0  0  0  0  0  0
   -2.7030   14.5060   -2.7450 C   0  0  1  0  0  0  0  0  0  0  0  0
   -1.3110   14.3270   -2.2910 N   0  0  0  0  0  0  0  0  0  0  0  0
   -3.5550   14.6810   -1.5640 N   0  0  0  0  0  0  0  0  0  0  0  0
   -1.4450   14.1010   -0.8760 C   0  0  2  0  0  0  0  0  0  0  0  0
   -2.5960   14.9930   -0.5050 C   0  0  2  0  0  0  0  0  0  0  0  0
   -0.2550   14.4570   -0.1690 N   0  0  0  0  0  0  0  0  0  0  0  0
   -2.9250   14.5500    0.9080 C   0  0  2  0  0  0  0  0  0  0  0  0
   -3.9790   15.3330    1.5290 N   0  0  0  0  0  0  0  0  0  0  0  0
   -0.4770   14.2210    1.2530 C   0  0  0  0  0  0  0  0  0  0  0  0
   -1.7730   14.7070    1.7470 N   0  0  0  0  0  0  0  0  0  0  0  0
  1  2  1  0
  2  3  1  0
  2  4  2  0
  2  5  1  0
  3  6  1  0
  6  7  1  1
  6  8  2  0
  6  9  1  0
  9 10  1  0
 10 11  1  0
 12 11  1  6
 12 13  1  0
 12 14  1  0
 15 13  1  6
 16 14  1  6
 15 16  1  0
 15 17  1  0
 16 18  1  0
 18 19  1  1
 17 20  1  0
 18 21  1  0
 20 21  1  0
M  END
