mArh-5cms_M_12_M_γ-mArh-6woj_D_0_D_β
     RDKit          3D

 16 16  0  0  0  0  0  0  0  0999 V2000
   -1.7810   12.6480   -4.4190 O   0  0  0  0  0  0  0  0  0  0  0  0
   -0.5650   13.2790   -4.0760 C   0  0  2  0  0  0  0  0  0  0  0  0
   -0.6870   14.2300   -2.8750 C   0  0  0  0  0  0  0  0  0  0  0  0
   -0.0360   14.1720   -5.1880 C   0  0  2  0  0  0  0  0  0  0  0  0
    1.3870   14.0250   -5.1500 O   0  0  0  0  0  0  0  0  0  0  0  0
   -0.2350   15.5230   -3.3050 O   0  0  0  0  0  0  0  0  0  0  0  0
   -0.5470   15.5340   -4.7050 C   0  0  1  0  0  0  0  0  0  0  0  0
    0.0340   16.7990   -5.3120 C   0  0  0  0  0  0  0  0  0  0  0  0
   -1.1620   18.1080   -5.6750 P   0  0  2  0  0  0  0  0  0  0  0  0
   -0.3250   19.2810   -6.2970 O   0  0  0  0  0  0  0  0  0  0  0  0
   -1.8090   18.5990   -4.4380 O   0  0  0  0  0  0  0  0  0  0  0  0
   -2.2730   17.6330   -6.7540 O   0  0  0  0  0  0  0  0  0  0  0  0
   -0.0420   19.9210   -7.6840 P   0  0  0  0  0  0  0  0  0  0  0  0
   -1.4500   20.5260   -8.1150 O   0  0  0  0  0  0  0  0  0  0  0  0
    1.0870   20.8940   -7.6880 O   0  0  0  0  0  0  0  0  0  0  0  0
    0.0820   18.7070   -8.7240 O   0  0  0  0  0  0  0  0  0  0  0  0
  2  1  1  6
  2  3  1  0
  2  4  1  0
  4  5  1  1
  3  6  1  0
  4  7  1  0
  6  7  1  0
  7  8  1  6
  8  9  1  0
  9 10  1  0
  9 11  2  0
  9 12  1  6
 10 13  1  0
 13 14  1  0
 13 15  2  0
 13 16  1  0
M  END
