mArh-5cb5_I_0_I_Î²
     RDKit          3D

  9  8  0  0  0  0  0  0  0  0999 V2000
   -1.0110   20.8440   -9.1290 O   0  0  0  0  0  0  0  0  0  0  0  0
   -0.3820   19.6250   -8.2730 P   0  0  2  0  0  0  0  0  0  0  0  0
   -1.3770   19.4720   -7.0110 O   0  0  0  0  0  0  0  0  0  0  0  0
    0.9480   20.0370   -7.7060 O   0  0  0  0  0  0  0  0  0  0  0  0
   -0.4370   18.4370   -9.2580 O   0  0  0  0  0  0  0  0  0  0  0  0
   -2.0020   18.0170   -6.7100 P   0  0  2  0  0  0  0  0  0  0  0  0
   -0.5690   17.3060   -6.3780 O   0  0  0  0  0  0  0  0  0  0  0  0
   -2.6310   17.5320   -8.0040 O   0  0  0  0  0  0  0  0  0  0  0  0
   -2.8090   18.0030   -5.3960 O   0  0  0  0  0  0  0  0  0  0  0  0
  2  1  1  6
  3  2  1  0
  2  4  2  0
  2  5  1  0
  6  3  1  0
  6  7  1  1
  6  8  2  0
  6  9  1  0
M  END
