mArh-x0128_0_A_α-mArh-6fx_7_0A_β
     RDKit          3D

 29 30  0  0  0  0  0  0  0  0999 V2000
   -6.7030   14.6060    2.5090 N   0  0  0  0  0  0  0  0  0  0  0  0
   -7.8470   15.2010    3.0030 C   0  0  0  0  0  0  0  0  0  0  0  0
   -8.8160   15.5820    2.3550 O   0  0  0  0  0  0  0  0  0  0  0  0
   -6.0590   14.7480    1.2670 C   0  0  0  0  0  0  0  0  0  0  0  0
   -7.7030   15.2940    4.3790 N   0  0  0  0  0  0  0  0  0  0  0  0
   -6.8670   14.6000    0.1390 C   0  0  0  0  0  0  0  0  0  0  0  0
   -4.6920   15.0230    1.0990 C   0  0  0  0  0  0  0  0  0  0  0  0
   -6.3270   14.7180   -1.1350 C   0  0  0  0  0  0  0  0  0  0  0  0
   -4.1530   15.1410   -0.1870 C   0  0  0  0  0  0  0  0  0  0  0  0
   -8.4740   16.0410    5.3090 C   0  0  0  0  0  0  0  0  0  0  0  0
   -4.9660   14.9860   -1.3200 C   0  0  0  0  0  0  0  0  0  0  0  0
   -9.1360   17.1950    4.8760 C   0  0  0  0  0  0  0  0  0  0  0  0
   -8.6330   15.7100    6.6540 C   0  0  0  0  0  0  0  0  0  0  0  0
   -4.3970   15.1080   -2.7110 C   0  0  0  0  0  0  0  0  0  0  0  0
   -9.9030   17.9970    5.6480 N   0  0  0  0  0  0  0  0  0  0  0  0
   -9.4180   16.5170    7.4790 C   0  0  0  0  0  0  0  0  0  0  0  0
   -2.9350   14.7970   -3.0350 C   0  0  0  0  0  0  0  0  0  0  0  0
  -10.0270   17.6380    6.9390 C   0  0  0  0  0  0  0  0  0  0  0  0
   -2.6180   15.2970   -4.4610 C   0  0  0  0  0  0  0  0  0  0  0  0
   -1.4940   16.3320   -4.5600 C   0  0  0  0  0  0  0  0  0  0  0  0
   -1.9490   17.7240   -4.7240 N   0  0  0  0  0  0  0  0  0  0  0  0
   -1.4510   18.2830   -6.1670 P   0  0  0  0  0  0  0  0  0  0  0  0
   -1.1090   19.7480   -6.5730 O   0  0  0  0  0  0  0  0  0  0  0  0
   -0.1980   17.4290   -6.5770 O   0  0  0  0  0  0  0  0  0  0  0  0
   -2.6260   17.8170   -7.1060 O   0  0  0  0  0  0  0  0  0  0  0  0
   -0.4320   20.0310   -7.9790 P   0  0  0  0  0  0  0  0  0  0  0  0
   -1.5590   20.9520   -8.6630 O   0  0  0  0  0  0  0  0  0  0  0  0
   -0.0360   18.8470   -8.7990 O   0  0  0  0  0  0  0  0  0  0  0  0
    0.7360   21.0820   -7.6770 O   0  0  0  0  0  0  0  0  0  0  0  0
  1  2  1  0
  2  3  2  0
  1  4  1  0
  2  5  1  0
  4  6  2  0
  4  7  1  0
  6  8  1  0
  7  9  2  0
  5 10  1  0
  8 11  2  0
  9 11  1  0
 10 12  2  0
 10 13  1  0
 11 14  1  0
 12 15  1  0
 13 16  2  0
 14 17  1  0
 15 18  2  0
 16 18  1  0
 17 19  1  0
 19 20  1  0
 20 21  1  0
 21 22  2  3
 22 23  1  0
 22 24  1  0
 22 25  1  0
 23 26  1  0
 26 27  1  0
 26 28  2  0
 26 29  1  0
M  END
