mArh-5cms_J_9_J_β-5CMS_0_L_γ
     RDKit          3D

 16 16  0  0  0  0  0  0  0  0999 V2000
    0.0340   21.2350   -7.6820 O   0  0  0  0  0  0  0  0  0  0  0  0
   -0.2670   19.6730   -7.6650 P   0  0  0  0  0  0  0  0  0  0  0  0
   -1.1790   19.4110   -6.4140 O   0  0  0  0  0  0  0  0  0  0  0  0
    0.8960   18.7950   -7.7550 O   0  0  0  0  0  0  0  0  0  0  0  0
   -1.2030   19.5300   -8.9130 O   0  0  0  0  0  0  0  0  0  0  0  0
   -1.5780   17.9180   -6.0730 P   0  0  2  0  0  0  0  0  0  0  0  0
   -0.2590   17.0530   -5.7340 O   0  0  0  0  0  0  0  0  0  0  0  0
   -2.5450   17.3160   -6.9940 O   0  0  0  0  0  0  0  0  0  0  0  0
   -2.2190   18.0420   -4.6420 O   0  0  0  0  0  0  0  0  0  0  0  0
   -0.3950   15.9700   -4.8130 C   0  0  2  0  0  0  0  0  0  0  0  0
    0.5020   16.0770   -3.7030 O   0  0  0  0  0  0  0  0  0  0  0  0
   -0.1780   14.5260   -5.3230 C   0  0  1  0  0  0  0  0  0  0  0  0
    1.1000   14.2550   -5.9180 O   0  0  0  0  0  0  0  0  0  0  0  0
    0.5360   14.7790   -3.0840 C   0  0  0  0  0  0  0  0  0  0  0  0
   -0.1910   13.7930   -4.0050 C   0  0  2  0  0  0  0  0  0  0  0  0
    0.4610   12.5320   -4.0880 O   0  0  0  0  0  0  0  0  0  0  0  0
  1  2  1  0
  2  3  1  0
  2  4  2  0
  2  5  1  0
  3  6  1  0
  6  7  1  0
  6  8  2  0
  6  9  1  1
 10  7  1  6
 10 11  1  0
 10 12  1  0
 12 13  1  1
 11 14  1  0
 12 15  1  0
 14 15  1  0
 15 16  1  6
M  END
