mArh-6woj_A_0_A_γ-5L9K_0_A_δ
     RDKit          3D

 19 21  0  0  0  0  0  0  0  0999 V2000
   -1.0080   12.6930   -4.9620 O   0  0  0  0  0  0  0  0  0  0  0  0
    0.0440   13.3040   -4.2160 C   0  0  2  0  0  0  0  0  0  0  0  0
   -0.4380   14.2950   -3.1620 C   0  0  2  0  0  0  0  0  0  0  0  0
    0.9400   14.1140   -5.1330 C   0  0  2  0  0  0  0  0  0  0  0  0
    2.0890   13.3280   -5.3980 O   0  0  0  0  0  0  0  0  0  0  0  0
   -1.9490   14.5850   -3.2940 C   0  0  0  0  0  0  0  0  0  0  0  0
    0.3940   15.4760   -3.2340 O   0  0  0  0  0  0  0  0  0  0  0  0
    1.1910   15.4560   -4.4220 C   0  0  2  0  0  0  0  0  0  0  0  0
    0.8690   16.7220   -5.2100 C   0  0  0  0  0  0  0  0  0  0  0  0
   -2.8420   14.2700   -2.1740 N   0  0  0  0  0  0  0  0  0  0  0  0
   -2.4000   14.6420   -0.8700 C   0  0  1  0  0  0  0  0  0  0  0  0
   -4.1360   14.9600   -2.1990 C   0  0  0  0  0  0  0  0  0  0  0  0
   -3.6100   14.4120   -0.0260 C   0  0  2  0  0  0  0  0  0  0  0  0
   -4.5910   15.1910   -0.8060 N   0  0  0  0  0  0  0  0  0  0  0  0
   -1.0880   14.2380   -0.3780 N   0  0  0  0  0  0  0  0  0  0  0  0
   -0.8290   14.6630    0.9820 C   0  0  0  0  0  0  0  0  0  0  0  0
   -3.2170   14.7870    1.4050 C   0  0  2  0  0  0  0  0  0  0  0  0
   -4.1640   15.6690    2.0500 N   0  0  0  0  0  0  0  0  0  0  0  0
   -1.9280   15.4320    1.4840 N   0  0  0  0  0  0  0  0  0  0  0  0
  2  1  1  6
  2  3  1  0
  2  4  1  0
  4  5  1  1
  3  6  1  6
  3  7  1  0
  4  8  1  0
  7  8  1  0
  8  9  1  6
  6 10  1  0
 10 11  1  0
 10 12  1  0
 11 13  1  0
 12 14  1  0
 13 14  1  6
 11 15  1  1
 15 16  1  0
 13 17  1  0
 17 18  1  6
 16 19  1  0
 17 19  1  0
M  END
