mArh-3q6z_0_A_γ-mArh-mac-194_0_A_α
     RDKit          3D

 21 23  0  0  0  0  0  0  0  0999 V2000
   -0.8680   12.3830   -4.6380 O   0  0  0  0  0  0  0  0  0  0  0  0
   -0.9130   13.7880   -4.8410 C   0  0  1  0  0  0  0  0  0  0  0  0
   -1.6380   14.5480   -3.7200 C   0  0  1  0  0  0  0  0  0  0  0  0
    0.4630   14.4350   -4.8790 C   0  0  2  0  0  0  0  0  0  0  0  0
    1.3660   13.7840   -3.9880 O   0  0  0  0  0  0  0  0  0  0  0  0
   -2.2090   13.5980   -2.6870 C   0  0  0  0  0  0  0  0  0  0  0  0
   -0.6870   15.5070   -3.2170 O   0  0  0  0  0  0  0  0  0  0  0  0
    0.0000   15.8090   -4.4310 C   0  0  1  0  0  0  0  0  0  0  0  0
    1.0560   16.8540   -4.2780 C   0  0  0  0  0  0  0  0  0  0  0  0
   -3.1190   14.0070   -1.5670 C   0  0  0  0  0  0  0  0  0  0  0  0
   -2.5330   14.2260   -0.3220 C   0  0  0  0  0  0  0  0  0  0  0  0
   -4.5190   14.1420   -1.7170 C   0  0  0  0  0  0  0  0  0  0  0  0
   -5.2940   14.4600   -0.5890 C   0  0  0  0  0  0  0  0  0  0  0  0
   -3.3110   14.5440    0.7760 C   0  0  0  0  0  0  0  0  0  0  0  0
   -6.7660   14.5950   -0.6050 C   0  0  0  0  0  0  0  0  0  0  0  0
   -4.6870   14.6470    0.6490 C   0  0  0  0  0  0  0  0  0  0  0  0
   -7.4160   14.8400   -1.6140 O   0  0  0  0  0  0  0  0  0  0  0  0
   -7.3530   14.4130    0.6300 N   0  0  0  0  0  0  0  0  0  0  0  0
   -5.4100   14.9110    1.8030 N   0  0  0  0  0  0  0  0  0  0  0  0
   -6.6860   14.7470    1.7740 C   0  0  0  0  0  0  0  0  0  0  0  0
   -7.3750   14.9100    2.9250 N   0  0  0  0  0  0  0  0  0  0  0  0
  2  1  1  1
  2  3  1  0
  2  4  1  0
  4  5  1  1
  3  6  1  1
  3  7  1  0
  4  8  1  0
  7  8  1  0
  8  9  1  1
  6 10  1  0
 10 11  2  0
 10 12  1  0
 12 13  2  0
 11 14  1  0
 13 15  1  0
 13 16  1  0
 14 16  2  0
 15 17  2  0
 15 18  1  0
 16 19  1  0
 18 20  1  0
 19 20  2  0
 20 21  1  0
M  END
