mArh-5cb5_K_0_K_Î³
     RDKit          3D

  8  8  0  0  0  0  0  0  0  0999 V2000
   -0.8410   14.7750   -3.0420 C   0  0  0  0  0  0  0  0  0  0  0  0
   -0.6340   16.0990   -3.6270 O   0  0  0  0  0  0  0  0  0  0  0  0
   -1.0510   13.8520   -4.2280 C   0  0  1  0  0  0  0  0  0  0  0  0
    0.3570   15.8190   -4.6320 C   0  0  1  0  0  0  0  0  0  0  0  0
   -0.0550   14.4660   -5.2110 C   0  0  1  0  0  0  0  0  0  0  0  0
   -0.6010   12.5140   -3.9330 O   0  0  0  0  0  0  0  0  0  0  0  0
    0.4620   16.8940   -5.6810 C   0  0  0  0  0  0  0  0  0  0  0  0
    1.1160   13.6380   -5.1880 O   0  0  0  0  0  0  0  0  0  0  0  0
  1  2  1  1
  1  3  1  0
  4  2  1  0
  5  3  1  0
  3  6  1  1
  4  7  1  6
  4  5  1  0
  5  8  1  1
M  END
