mArh-2bfq_0_A_Î³
     RDKit          3D

  8  8  0  0  0  0  0  0  0  0999 V2000
   -0.7740   14.9610   -2.6970 C   0  0  0  0  0  0  0  0  0  0  0  0
   -0.2660   16.2240   -3.0390 O   0  0  0  0  0  0  0  0  0  0  0  0
   -1.1580   14.3480   -4.0560 C   0  0  1  0  0  0  0  0  0  0  0  0
    0.5310   16.1090   -4.2360 C   0  0  1  0  0  0  0  0  0  0  0  0
    0.0620   14.7700   -4.8640 C   0  0  1  0  0  0  0  0  0  0  0  0
   -1.4530   12.9520   -3.9960 O   0  0  0  0  0  0  0  0  0  0  0  0
    0.2350   17.3650   -5.0440 C   0  0  0  0  0  0  0  0  0  0  0  0
    1.0990   13.8050   -4.8070 O   0  0  0  0  0  0  0  0  0  0  0  0
  1  2  1  1
  1  3  1  0
  4  2  1  0
  5  3  1  0
  3  6  1  1
  4  7  1  6
  4  5  1  0
  5  8  1  1
M  END
