
     RDKit          3D

 36 39  0  0  0  0  0  0  0  0999 V2000
   -2.0190   17.9350   -6.5840 P   0  0  0  0  0  0  0  0  0  0  0  0
   -0.4790   19.7160   -8.3000 P   0  0  0  0  0  0  0  0  0  0  0  0
   -0.0890   16.9310   -5.1930 C   0  0  0  0  0  0  0  0  0  0  0  0
   -0.7850   16.9150   -6.4280 O   0  0  0  0  0  0  0  0  0  0  0  0
    0.5470   15.6350   -4.7250 C   0  0  1  0  0  0  0  0  0  0  0  0
    0.3170   15.5920   -3.3250 O   0  0  0  0  0  0  0  0  0  0  0  0
    0.0070   14.3280   -5.2410 C   0  0  1  0  0  0  0  0  0  0  0  0
    1.0280   13.3270   -5.1030 O   0  0  0  0  0  0  0  0  0  0  0  0
   -1.0600   13.9520   -4.2790 C   0  0  1  0  0  0  0  0  0  0  0  0
   -1.1640   12.5220   -4.2950 O   0  0  0  0  0  0  0  0  0  0  0  0
   -0.4430   14.4510   -2.9790 C   0  0  2  0  0  0  0  0  0  0  0  0
   -3.1380   23.7420  -11.3180 C   0  0  1  0  0  0  0  0  0  0  0  0
   -0.8400   15.2940    2.1700 N   0  0  0  0  0  0  0  0  0  0  0  0
   -3.0620   17.5510   -7.6220 O   0  0  0  0  0  0  0  0  0  0  0  0
    0.5320   20.8510   -8.2010 O   0  0  0  0  0  0  0  0  0  0  0  0
   -4.2050   23.9650  -10.3650 O   0  0  0  0  0  0  0  0  0  0  0  0
    0.2570   15.1090    1.4040 C   0  0  0  0  0  0  0  0  0  0  0  0
   -1.8540   24.5440  -10.9700 C   0  0  2  0  0  0  0  0  0  0  0  0
   -2.6090   18.0130   -5.2040 O   0  0  0  0  0  0  0  0  0  0  0  0
    0.0500   18.4030   -8.8180 O   0  0  0  0  0  0  0  0  0  0  0  0
   -1.2680   25.2460  -12.0830 O   0  0  0  0  0  0  0  0  0  0  0  0
   -0.9030   23.5480  -10.3190 C   0  0  2  0  0  0  0  0  0  0  0  0
    0.2080   14.9110    0.0620 N   0  0  0  0  0  0  0  0  0  0  0  0
   -1.2350   19.3360   -6.9280 O   0  0  0  0  0  0  0  0  0  0  0  0
    0.4060   23.5470  -10.8970 O   0  0  0  0  0  0  0  0  0  0  0  0
   -0.9920   14.8870   -0.5980 C   0  0  0  0  0  0  0  0  0  0  0  0
   -1.6240   22.2020  -10.4530 C   0  0  2  0  0  0  0  0  0  0  0  0
   -2.7790   22.3550  -11.3030 O   0  0  0  0  0  0  0  0  0  0  0  0
   -2.2390   15.0830    0.1620 C   0  0  0  0  0  0  0  0  0  0  0  0
   -2.0670   21.6590   -9.1050 C   0  0  0  0  0  0  0  0  0  0  0  0
   -1.7220   20.2860   -9.1410 O   0  0  0  0  0  0  0  0  0  0  0  0
   -2.0940   15.2840    1.6080 C   0  0  0  0  0  0  0  0  0  0  0  0
   -3.2430   15.4750    2.2850 N   0  0  0  0  0  0  0  0  0  0  0  0
   -3.2810   15.0350   -0.6880 N   0  0  0  0  0  0  0  0  0  0  0  0
   -2.7580   14.8120   -1.9180 C   0  0  0  0  0  0  0  0  0  0  0  0
   -1.3970   14.7240   -1.8640 N   0  0  0  0  0  0  0  0  0  0  0  0
  1  4  1  0
  1 14  2  0
  1 19  1  0
  1 24  1  0
  4  3  1  0
 24  2  1  0
  2 15  2  0
  2 20  1  0
  2 31  1  0
 31 30  1  0
  5  3  1  6
  5  6  1  0
  5  7  1  0
  6 11  1  0
  7  8  1  1
  7  9  1  0
 11  9  1  0
 11 36  1  1
  9 10  1  1
 36 26  1  0
 36 35  1  0
 12 16  1  1
 12 18  1  0
 12 28  1  0
 18 21  1  6
 18 22  1  0
 28 27  1  0
 13 17  2  0
 13 32  1  0
 17 23  1  0
 32 29  2  0
 32 33  1  0
 23 26  2  0
 22 25  1  6
 22 27  1  0
 27 30  1  1
 26 29  1  0
 29 34  1  0
 34 35  2  0
M  END
