mArh-x0524_0_A_α-mArh-x0837_0_A_α
     RDKit          3D

 30 32  0  0  0  0  0  0  0  0999 V2000
   -0.4370    8.5280   -8.0640 N   0  0  0  0  0  0  0  0  0  0  0  0
   -0.7930    9.6150   -7.2110 C   0  0  0  0  0  0  0  0  0  0  0  0
   -1.9660    9.4080   -6.3380 C   0  0  0  0  0  0  0  0  0  0  0  0
    0.5870    8.6040   -9.0510 C   0  0  0  0  0  0  0  0  0  0  0  0
   -0.0990   10.7010   -7.2320 N   0  0  0  0  0  0  0  0  0  0  0  0
    1.7020    7.7810   -8.9620 C   0  0  0  0  0  0  0  0  0  0  0  0
    0.5250    9.4530  -10.1140 C   0  0  0  0  0  0  0  0  0  0  0  0
   -0.3600   11.8630   -6.4280 C   0  0  0  0  0  0  0  0  0  0  0  0
    2.6950    7.8180   -9.9080 C   0  0  0  0  0  0  0  0  0  0  0  0
    1.5460    9.4860  -11.0800 C   0  0  0  0  0  0  0  0  0  0  0  0
    0.6710   12.0600   -5.3330 C   0  0  0  0  0  0  0  0  0  0  0  0
    2.6520    8.6750  -11.0100 C   0  0  0  0  0  0  0  0  0  0  0  0
    3.7080    8.6520  -11.9520 N   0  0  0  0  0  0  0  0  0  0  0  0
    0.5310   13.4070   -4.6470 C   0  0  0  0  0  0  0  0  0  0  0  0
   -0.8900   13.8470   -4.4560 C   0  0  0  0  0  0  0  0  0  0  0  0
    3.9270    9.5490  -13.0070 C   0  0  0  0  0  0  0  0  0  0  0  0
   -1.2010   14.3600   -3.0480 C   0  0  0  0  0  0  0  0  0  0  0  0
    3.1710   10.6930  -13.2380 C   0  0  0  0  0  0  0  0  0  0  0  0
    4.9480    9.3180  -13.8900 C   0  0  0  0  0  0  0  0  0  0  0  0
   -3.2460   14.8220   -3.0060 I   0  0  0  0  0  0  0  0  0  0  0  0
    3.4400   11.5370  -14.2930 C   0  0  0  0  0  0  0  0  0  0  0  0
    5.2320   10.1530  -14.9540 C   0  0  0  0  0  0  0  0  0  0  0  0
    4.4760   11.2770  -15.1670 C   0  0  0  0  0  0  0  0  0  0  0  0
   -4.1930   15.2420   -1.1500 C   0  0  2  0  0  0  0  0  0  0  0  0
   -3.4040   15.0760    0.0470 C   0  0  0  0  0  0  0  0  0  0  0  0
   -5.4620   14.4420   -1.0560 C   0  0  0  0  0  0  0  0  0  0  0  0
   -3.9930   14.9200    1.2100 C   0  0  0  0  0  0  0  0  0  0  0  0
   -6.1990   14.7320    0.1940 C   0  0  0  0  0  0  0  0  0  0  0  0
   -7.4450   14.8200    0.2140 O   0  0  0  0  0  0  0  0  0  0  0  0
   -5.4010   14.8950    1.3780 N   0  0  0  0  0  0  0  0  0  0  0  0
  1  2  1  0
  2  3  1  0
  1  4  1  0
  2  5  2  3
  4  6  2  0
  4  7  1  0
  5  8  1  0
  6  9  1  0
  7 10  2  0
  8 11  1  0
  9 12  2  0
 10 12  1  0
 12 13  1  0
 11 14  1  0
 14 15  1  0
 13 16  1  0
 15 17  1  0
 16 18  2  0
 16 19  1  0
 17 20  1  0
 18 21  1  0
 19 22  2  0
 21 23  2  0
 22 23  1  0
 24 20  1  6
 24 25  1  0
 24 26  1  0
 25 27  2  0
 26 28  1  0
 28 29  2  0
 27 30  1  0
 28 30  1  0
M  END
