mArh-EU0342_0_A_Î±
     RDKit          3D

 11 11  0  0  0  0  0  0  0  0999 V2000
    0.5440   15.2690    0.2430 C   0  0  0  0  0  0  0  0  0  0  0  0
   -0.8260   15.0910   -0.2110 N   0  0  0  0  0  0  0  0  0  0  0  0
   -7.0900   15.2550   -1.0190 O   0  0  0  0  0  0  0  0  0  0  0  0
   -1.8110   14.8600    0.6580 C   0  0  0  0  0  0  0  0  0  0  0  0
   -5.5420   14.9940    0.6120 N   0  0  0  0  0  0  0  0  0  0  0  0
   -1.5760   14.5600    1.8300 O   0  0  0  0  0  0  0  0  0  0  0  0
   -3.2200   14.9720    0.1570 C   0  0  0  0  0  0  0  0  0  0  0  0
   -3.5020   15.1480   -1.2020 C   0  0  0  0  0  0  0  0  0  0  0  0
   -4.7890   15.2480   -1.6320 C   0  0  0  0  0  0  0  0  0  0  0  0
   -4.2660   14.8900    1.0500 C   0  0  0  0  0  0  0  0  0  0  0  0
   -5.8720   15.1760   -0.7050 C   0  0  0  0  0  0  0  0  0  0  0  0
  1  2  1  0
  2  4  1  0
  4  6  2  0
  4  7  1  0
  3 11  2  0
 11  5  1  0
 11  9  1  0
  7  8  1  0
  7 10  2  0
  5 10  1  0
  8  9  2  0
M  END
