mArh-4j4z_0_A_α-mArh-EU0860_0_A_α
     RDKit          3D

 25 26  0  0  0  0  0  0  0  0999 V2000
   -0.3140   17.0850   -3.3960 O   0  0  0  0  0  0  0  0  0  0  0  0
   -0.8980   16.7010   -4.6570 S   0  0  0  0  0  0  0  0  0  0  0  0
   -0.1140   16.6460   -5.8640 O   0  0  0  0  0  0  0  0  0  0  0  0
   -2.0970   17.7620   -4.9080 O   0  0  0  0  0  0  0  0  0  0  0  0
   -1.8530   15.1980   -4.4850 C   0  0  0  0  0  0  0  0  0  0  0  0
   -0.9640   14.0610   -3.9850 C   0  0  0  0  0  0  0  0  0  0  0  0
   -1.5650   12.7450   -4.1690 N   0  0  0  0  0  0  0  0  0  0  0  0
   -2.7090   12.4700   -3.2940 C   0  0  0  0  0  0  0  0  0  0  0  0
   -0.5870   11.6510   -4.1020 C   0  0  0  0  0  0  0  0  0  0  0  0
   -3.4290   11.1680   -3.7040 C   0  0  0  0  0  0  0  0  0  0  0  0
   -1.1220   10.3010   -3.5450 C   0  0  0  0  0  0  0  0  0  0  0  0
   -2.5780    9.9630   -3.6040 N   0  0  0  0  0  0  0  0  0  0  0  0
   -3.0440    8.8300   -4.4730 C   0  0  1  0  0  0  0  0  0  0  0  0
   -4.0420    7.8090   -3.8780 C   0  0  0  0  0  0  0  0  0  0  0  0
   -3.6520    9.4510   -5.7610 C   0  0  0  0  0  0  0  0  0  0  0  0
   -3.6860    7.3450   -2.5810 O   0  0  0  0  0  0  0  0  0  0  0  0
   -2.6140    9.9100   -6.7780 C   0  0  0  0  0  0  0  0  0  0  0  0
   -1.3510    9.0540   -6.7430 C   0  0  0  0  0  0  0  0  0  0  0  0
   -0.4200    9.4430   -7.7730 N   0  0  0  0  0  0  0  0  0  0  0  0
    0.2920    8.6210   -8.5950 C   0  0  0  0  0  0  0  0  0  0  0  0
   -0.1890   10.7500   -7.9940 N   0  0  0  0  0  0  0  0  0  0  0  0
    1.0310    9.4480   -9.4100 C   0  0  0  0  0  0  0  0  0  0  0  0
    0.6900   10.7390   -8.9910 C   0  0  0  0  0  0  0  0  0  0  0  0
    1.9410    9.0700  -10.4560 C   0  0  0  0  0  0  0  0  0  0  0  0
    2.4230    7.9510  -10.5640 O   0  0  0  0  0  0  0  0  0  0  0  0
  1  2  2  0
  2  3  2  0
  2  4  1  0
  2  5  1  0
  5  6  1  0
  6  7  1  0
  7  8  1  0
  7  9  1  0
  8 10  1  0
  9 11  1  0
 10 12  1  0
 11 12  1  0
 12 13  1  0
 13 14  1  1
 13 15  1  0
 14 16  1  0
 15 17  1  0
 17 18  1  0
 18 19  1  0
 19 20  1  0
 19 21  1  0
 20 22  2  0
 21 23  2  0
 22 23  1  0
 22 24  1  0
 24 25  2  0
M  END
