
     RDKit          3D

  9 10  0  0  0  0  0  0  0  0999 V2000
    0.0400   14.4560   -0.6450 N   0  0  0  0  0  0  0  0  0  0  0  0
   -3.8000   14.9200   -0.9240 C   0  0  0  0  0  0  0  0  0  0  0  0
   -2.3460   14.7740   -0.5640 C   0  0  0  0  0  0  0  0  0  0  0  0
   -1.0210   14.7460    1.4890 N   0  0  0  0  0  0  0  0  0  0  0  0
   -1.1570   14.5610   -1.2350 C   0  0  0  0  0  0  0  0  0  0  0  0
   -3.4210   15.0910    1.3640 N   0  0  0  0  0  0  0  0  0  0  0  0
    0.0340   14.5720    0.6830 C   0  0  0  0  0  0  0  0  0  0  0  0
   -2.1840   14.8630    0.8200 C   0  0  0  0  0  0  0  0  0  0  0  0
   -4.5090   14.8630    0.4250 C   0  0  0  0  0  0  0  0  0  0  0  0
  1  5  2  0
  1  7  1  0
  5  3  1  0
  7  4  2  0
  2  3  1  0
  2  9  1  0
  3  8  2  0
  9  6  1  0
  8  4  1  0
  8  6  1  0
M  END
