mArh-5lw0_B_1_B_α-5CMS_0_E_γ
     RDKit          3D

 22 23  0  0  0  0  0  0  0  0999 V2000
   -2.6420   21.5250   -9.0370 C   0  0  0  0  0  0  0  0  0  0  0  0
   -3.6190   22.4810   -8.4000 C   0  0  2  0  0  0  0  0  0  0  0  0
   -3.8060   21.9850   -7.0800 O   0  0  0  0  0  0  0  0  0  0  0  0
   -4.9990   22.7230   -9.0140 C   0  0  1  0  0  0  0  0  0  0  0  0
   -5.2340   22.0920  -10.2630 O   0  0  0  0  0  0  0  0  0  0  0  0
   -5.1550   21.7400   -6.7920 C   0  0  1  0  0  0  0  0  0  0  0  0
   -5.9920   22.2410   -7.9690 C   0  0  2  0  0  0  0  0  0  0  0  0
   -5.2240   20.3660   -6.6220 O   0  0  0  0  0  0  0  0  0  0  0  0
   -6.9660   21.3060   -8.4470 O   0  0  0  0  0  0  0  0  0  0  0  0
   -3.8700   19.9150   -6.8790 C   0  0  0  0  0  0  0  0  0  0  0  0
   -2.7380   20.2910   -5.9150 C   0  0  0  0  0  0  0  0  0  0  0  0
   -1.5380   19.3380   -6.1430 C   0  0  0  0  0  0  0  0  0  0  0  0
   -1.2660   18.4620   -4.9230 C   0  0  0  0  0  0  0  0  0  0  0  0
    0.1920   17.9820   -4.7560 C   0  0  0  0  0  0  0  0  0  0  0  0
    0.4350   16.6270   -5.4090 C   0  0  0  0  0  0  0  0  0  0  0  0
    0.6970   15.4340   -4.4730 C   0  0  1  0  0  0  0  0  0  0  0  0
   -0.0930   15.6090   -3.2690 O   0  0  0  0  0  0  0  0  0  0  0  0
    0.3100   14.0480   -5.0470 C   0  0  1  0  0  0  0  0  0  0  0  0
    1.2810   13.0260   -4.9210 O   0  0  0  0  0  0  0  0  0  0  0  0
   -0.7600   14.3780   -2.9780 C   0  0  0  0  0  0  0  0  0  0  0  0
   -0.9660   13.6780   -4.3010 C   0  0  2  0  0  0  0  0  0  0  0  0
   -1.0980   12.2650   -4.1860 O   0  0  0  0  0  0  0  0  0  0  0  0
  2  1  1  6
  2  3  1  0
  2  4  1  0
  4  5  1  6
  3  6  1  0
  4  7  1  0
  6  7  1  0
  6  8  1  6
  7  9  1  6
  8 10  1  0
 10 11  1  0
 11 12  1  0
 12 13  1  0
 13 14  1  0
 14 15  1  0
 16 15  1  6
 16 17  1  0
 16 18  1  0
 18 19  1  1
 17 20  1  0
 18 21  1  0
 20 21  1  0
 21 22  1  1
M  END
