mArh-5cms_R_17_R_γ-mArh-1spv_0_A_α
     RDKit          3D

 21 22  0  0  0  0  0  0  0  0999 V2000
   -0.0200   12.4120   -3.9470 O   0  0  0  0  0  0  0  0  0  0  0  0
   -0.3420   13.8040   -4.1400 C   0  0  1  0  0  0  0  0  0  0  0  0
   -0.0180   14.6060   -2.8870 C   0  0  0  0  0  0  0  0  0  0  0  0
    0.5920   14.3700   -5.1940 C   0  0  2  0  0  0  0  0  0  0  0  0
    1.7600   13.5720   -5.3140 O   0  0  0  0  0  0  0  0  0  0  0  0
    0.7530   15.7590   -3.2660 O   0  0  0  0  0  0  0  0  0  0  0  0
    0.8860   15.7960   -4.6940 C   0  0  2  0  0  0  0  0  0  0  0  0
   -0.0390   16.8990   -5.2150 C   0  0  0  0  0  0  0  0  0  0  0  0
    0.6910   18.0850   -5.8440 C   0  0  0  0  0  0  0  0  0  0  0  0
   -0.2820   18.9470   -6.4240 O   0  0  0  0  0  0  0  0  0  0  0  0
    0.0050   19.6400   -7.8610 S   0  0  0  0  0  0  0  0  0  0  0  0
    0.9360   20.7300   -7.6900 O   0  0  0  0  0  0  0  0  0  0  0  0
    0.2300   18.5830   -8.8200 O   0  0  0  0  0  0  0  0  0  0  0  0
   -1.5840   20.3150   -8.2010 C   0  0  0  0  0  0  0  0  0  0  0  0
   -1.8750   21.7160   -7.7360 C   0  0  0  0  0  0  0  0  0  0  0  0
   -3.3350   21.9470   -7.7940 N   0  0  0  0  0  0  0  0  0  0  0  0
   -3.7730   22.4180   -9.1250 C   0  0  0  0  0  0  0  0  0  0  0  0
   -3.7840   22.9180   -6.7820 C   0  0  0  0  0  0  0  0  0  0  0  0
   -5.2630   22.7630   -9.2000 C   0  0  0  0  0  0  0  0  0  0  0  0
   -5.2420   23.3780   -6.9370 C   0  0  0  0  0  0  0  0  0  0  0  0
   -5.5500   23.8070   -8.2690 O   0  0  0  0  0  0  0  0  0  0  0  0
  2  1  1  1
  2  3  1  0
  2  4  1  0
  4  5  1  1
  3  6  1  0
  4  7  1  0
  6  7  1  0
  7  8  1  6
  8  9  1  0
  9 10  1  0
 11 10  1  0
 11 12  2  0
 11 13  2  0
 11 14  1  0
 14 15  1  0
 15 16  1  0
 16 17  1  0
 16 18  1  0
 17 19  1  0
 18 20  1  0
 19 21  1  0
 20 21  1  0
M  END
