mArh-5cms_C_2_C_γ-5CB3_0_A_γ
     RDKit          3D

  8  8  0  0  0  0  0  0  0  0999 V2000
   -0.6410   12.0800   -4.0130 O   0  0  0  0  0  0  0  0  0  0  0  0
   -1.0780   13.4330   -4.1320 C   0  0  1  0  0  0  0  0  0  0  0  0
   -0.7670   14.2480   -2.8830 C   0  0  0  0  0  0  0  0  0  0  0  0
   -0.2350   14.0980   -5.1890 C   0  0  2  0  0  0  0  0  0  0  0  0
    1.0420   13.4790   -5.2470 O   0  0  0  0  0  0  0  0  0  0  0  0
   -0.1620   15.4880   -3.3060 O   0  0  0  0  0  0  0  0  0  0  0  0
   -0.3030   15.5560   -4.7310 C   0  0  1  0  0  0  0  0  0  0  0  0
    0.7010   16.5420   -5.3100 C   0  0  0  0  0  0  0  0  0  0  0  0
  2  1  1  1
  2  3  1  0
  2  4  1  0
  4  5  1  1
  3  6  1  0
  4  7  1  0
  6  7  1  0
  7  8  1  6
M  END
