mArh-x0722_0_A_α-5CB5_0_I_β
     RDKit          3D

 24 24  0  0  0  0  0  0  0  0999 V2000
   -4.8000   15.3110    2.3340 C   0  0  0  0  0  0  0  0  0  0  0  0
   -3.6350   15.0680    1.4510 C   0  0  0  0  0  0  0  0  0  0  0  0
   -2.4600   14.7430    1.8940 N   0  0  0  0  0  0  0  0  0  0  0  0
   -3.5270   15.1240    0.0340 C   0  0  0  0  0  0  0  0  0  0  0  0
   -4.6910   15.4790   -0.7830 C   0  0  0  0  0  0  0  0  0  0  0  0
   -2.2510   14.8070   -0.2980 C   0  0  0  0  0  0  0  0  0  0  0  0
   -1.6230   14.5850    0.9180 N   0  0  0  0  0  0  0  0  0  0  0  0
   -0.2470   14.2280    1.1540 C   0  0  0  0  0  0  0  0  0  0  0  0
   -1.4460   14.6510   -1.5120 C   0  0  0  0  0  0  0  0  0  0  0  0
   -5.8840   14.6110   -0.5920 C   0  0  0  0  0  0  0  0  0  0  0  0
   -7.0040   15.1180   -0.8700 O   0  0  0  0  0  0  0  0  0  0  0  0
   -5.8220   13.2950   -0.1280 N   0  0  0  0  0  0  0  0  0  0  0  0
   -0.7710   15.8370   -2.0640 C   0  0  0  0  0  0  0  0  0  0  0  0
   -1.4600   16.3250   -3.2830 C   0  0  0  0  0  0  0  0  0  0  0  0
   -0.8560   17.4680   -3.9980 C   0  0  0  0  0  0  0  0  0  0  0  0
   -1.6670   18.3720   -4.5690 O   0  0  0  0  0  0  0  0  0  0  0  0
   -1.4970   18.0640   -6.1730 P   0  0  0  0  0  0  0  0  0  0  0  0
   -1.2930   19.5420   -6.5280 O   0  0  0  0  0  0  0  0  0  0  0  0
   -0.0340   17.6140   -6.6610 O   0  0  0  0  0  0  0  0  0  0  0  0
   -2.7830   17.9800   -7.1400 O   0  0  0  0  0  0  0  0  0  0  0  0
   -0.3320   19.9900   -7.7530 P   0  0  0  0  0  0  0  0  0  0  0  0
   -1.4620   20.4980   -8.6690 O   0  0  0  0  0  0  0  0  0  0  0  0
    0.9210   19.4990   -7.0400 O   0  0  0  0  0  0  0  0  0  0  0  0
    0.0490   18.7960   -8.8740 O   0  0  0  0  0  0  0  0  0  0  0  0
  1  2  1  0
  2  3  2  0
  2  4  1  0
  4  5  1  0
  4  6  2  0
  3  7  1  0
  6  7  1  0
  7  8  1  0
  6  9  1  0
  5 10  1  0
 10 11  2  0
 10 12  1  0
  9 13  1  0
 13 14  1  0
 14 15  1  0
 15 16  1  0
 16 17  1  0
 17 18  1  0
 17 19  1  0
 17 20  1  0
 18 21  1  0
 21 22  1  0
 21 23  1  0
 21 24  1  0
M  CHG  2  20  -1  23  -1
M  END
