mArh-x0837_0_A_α-mArh-EU0172_0_A_α
     RDKit          3D

 11 11  0  0  0  0  0  0  0  0999 V2000
   -7.5300   15.0220   -0.2720 O   0  0  0  0  0  0  0  0  0  0  0  0
   -6.3200   14.8840   -0.1320 C   0  0  0  0  0  0  0  0  0  0  0  0
   -5.6890   14.7480    1.0850 N   0  0  0  0  0  0  0  0  0  0  0  0
   -5.4370   14.8220   -1.3140 C   0  0  0  0  0  0  0  0  0  0  0  0
   -6.3680   13.9080    2.0590 C   0  0  0  0  0  0  0  0  0  0  0  0
   -4.3340   14.9840    1.2300 C   0  0  0  0  0  0  0  0  0  0  0  0
   -4.1140   14.8960   -1.1640 C   0  0  0  0  0  0  0  0  0  0  0  0
   -2.9100   14.7600   -2.8360 I   0  0  0  0  0  0  0  0  0  0  0  0
   -7.2830   14.7510    2.9600 C   0  0  0  0  0  0  0  0  0  0  0  0
   -3.5420   15.0590    0.1610 C   0  0  0  0  0  0  0  0  0  0  0  0
   -7.9420   13.9660    3.9900 N   0  0  0  0  0  0  0  0  0  0  0  0
  1  2  2  0
  2  3  1  0
  2  4  1  0
  3  5  1  0
  3  6  1  0
  4  7  2  0
  7  8  1  0
  5  9  1  0
  6 10  2  0
  7 10  1  0
  9 11  1  0
M  END
