mArh-2fav_B_0_B_δ-6WOJ_0_D_α
     RDKit          3D

 24 26  0  0  0  0  0  0  0  0999 V2000
   -3.8940   15.5420    1.2720 N   0  0  0  0  0  0  0  0  0  0  0  0
   -2.9920   14.7070    0.5040 C   0  0  1  0  0  0  0  0  0  0  0  0
   -2.2300   15.3100   -0.7040 C   0  0  1  0  0  0  0  0  0  0  0  0
   -2.0210   14.2490    1.4890 N   0  0  0  0  0  0  0  0  0  0  0  0
   -1.5390   14.0520   -1.1560 C   0  0  1  0  0  0  0  0  0  0  0  0
   -2.8230   15.8170   -1.9630 N   0  0  0  0  0  0  0  0  0  0  0  0
   -0.6180   14.3250    1.0560 C   0  0  0  0  0  0  0  0  0  0  0  0
   -1.2540   14.2000   -2.5780 N   0  0  0  0  0  0  0  0  0  0  0  0
   -1.8040   15.4870   -3.0080 C   0  0  2  0  0  0  0  0  0  0  0  0
   -0.3890   13.8310   -0.3170 N   0  0  0  0  0  0  0  0  0  0  0  0
   -0.6110   16.4890   -3.1900 C   0  0  0  0  0  0  0  0  0  0  0  0
   -0.5420   17.6450   -4.2650 C   0  0  0  0  0  0  0  0  0  0  0  0
   -1.6640   17.8290   -5.3120 C   0  0  0  0  0  0  0  0  0  0  0  0
   -1.6420   19.2370   -6.0100 C   0  0  0  0  0  0  0  0  0  0  0  0
   -2.9060   20.0750   -5.7300 C   0  0  0  0  0  0  0  0  0  0  0  0
   -2.9020   21.4740   -5.9010 O   0  0  0  0  0  0  0  0  0  0  0  0
   -4.1080   21.9140   -6.4990 C   0  0  2  0  0  0  0  0  0  0  0  0
   -4.1010   21.3750   -7.8030 O   0  0  0  0  0  0  0  0  0  0  0  0
   -4.0540   23.4410   -6.6550 C   0  0  2  0  0  0  0  0  0  0  0  0
   -5.3580   24.0740   -6.6120 O   0  0  0  0  0  0  0  0  0  0  0  0
   -3.1050   22.1480   -8.4470 C   0  0  1  0  0  0  0  0  0  0  0  0
   -3.4610   23.5820   -8.0680 C   0  0  1  0  0  0  0  0  0  0  0  0
   -1.7050   21.7340   -8.0150 C   0  0  0  0  0  0  0  0  0  0  0  0
   -4.3990   24.1190   -8.9920 O   0  0  0  0  0  0  0  0  0  0  0  0
  2  1  1  1
  2  3  1  0
  2  4  1  0
  3  5  1  0
  3  6  1  6
  4  7  1  0
  5  8  1  6
  6  9  1  0
  8  9  1  0
  5 10  1  0
  7 10  1  0
  9 11  1  1
 11 12  1  0
 12 13  1  0
 13 14  1  0
 14 15  1  0
 15 16  1  0
 17 16  1  1
 17 18  1  0
 17 19  1  0
 19 20  1  6
 18 21  1  0
 19 22  1  0
 21 22  1  0
 21 23  1  1
 22 24  1  6
M  END
