mArh-EU0056_0_A_α-5L9K_0_B_γ
     RDKit          3D

 20 21  0  0  0  0  0  0  0  0999 V2000
   -8.1990   13.7520    4.2470 N   0  0  0  0  0  0  0  0  0  0  0  0
   -8.3120   14.9290    3.4010 C   0  0  0  0  0  0  0  0  0  0  0  0
   -7.5380   14.7710    2.1250 C   0  0  0  0  0  0  0  0  0  0  0  0
   -8.1880   14.6800    0.8980 C   0  0  0  0  0  0  0  0  0  0  0  0
   -6.1350   14.7130    2.1160 C   0  0  0  0  0  0  0  0  0  0  0  0
   -7.5490   14.5430   -0.2820 N   0  0  0  0  0  0  0  0  0  0  0  0
   -5.4340   14.5670    0.9240 C   0  0  0  0  0  0  0  0  0  0  0  0
   -4.0770   14.4830    0.7500 O   0  0  0  0  0  0  0  0  0  0  0  0
   -6.1950   14.4900   -0.2390 C   0  0  0  0  0  0  0  0  0  0  0  0
   -3.2510   15.6360    0.7850 C   0  0  0  0  0  0  0  0  0  0  0  0
   -2.6200   15.8750   -0.5890 C   0  0  0  0  0  0  0  0  0  0  0  0
   -2.1690   14.6430   -1.3690 C   0  0  0  0  0  0  0  0  0  0  0  0
   -1.9660   14.9400   -2.8610 C   0  0  1  0  0  0  0  0  0  0  0  0
   -0.9710   15.9590   -3.0550 O   0  0  0  0  0  0  0  0  0  0  0  0
   -1.5040   13.7140   -3.6450 C   0  0  1  0  0  0  0  0  0  0  0  0
   -2.5870   12.9200   -4.1050 O   0  0  0  0  0  0  0  0  0  0  0  0
   -0.2320   15.6680   -4.2620 C   0  0  1  0  0  0  0  0  0  0  0  0
   -0.7000   14.3030   -4.7980 C   0  0  1  0  0  0  0  0  0  0  0  0
   -0.3730   16.8440   -5.2170 C   0  0  0  0  0  0  0  0  0  0  0  0
    0.3790   13.3860   -5.0240 O   0  0  0  0  0  0  0  0  0  0  0  0
  1  2  1  0
  2  3  1  0
  3  4  2  0
  3  5  1  0
  4  6  1  0
  5  7  2  0
  7  8  1  0
  6  9  2  0
  7  9  1  0
  8 10  1  0
 10 11  1  0
 11 12  1  0
 13 12  1  1
 13 14  1  0
 13 15  1  0
 15 16  1  6
 14 17  1  0
 15 18  1  0
 17 18  1  0
 17 19  1  6
 18 20  1  1
M  END
