mArh-5cms_H_7_H_β-5CB5_0_C_β
     RDKit          3D

 10  9  0  0  0  0  0  0  0  0999 V2000
    0.4500   18.9270   -8.8470 O   0  0  0  0  0  0  0  0  0  0  0  0
   -0.4080   19.4540   -7.7170 P   0  0  0  0  0  0  0  0  0  0  0  0
   -1.8480   18.8430   -7.2780 O   0  0  0  0  0  0  0  0  0  0  0  0
   -0.0570   18.2480   -7.0600 O   0  0  0  0  0  0  0  0  0  0  0  0
   -1.1420   19.7470   -9.0370 O   0  0  0  0  0  0  0  0  0  0  0  0
   -0.7700   20.9390   -7.1950 O   0  0  0  0  0  0  0  0  0  0  0  0
   -1.9200   17.8200   -5.9870 P   0  0  0  0  0  0  0  0  0  0  0  0
   -0.5140   16.9080   -5.8130 O   0  0  0  0  0  0  0  0  0  0  0  0
   -3.1230   16.8970   -6.2190 O   0  0  0  0  0  0  0  0  0  0  0  0
   -2.0410   18.7580   -4.6180 O   0  0  0  0  0  0  0  0  0  0  0  0
  1  2  1  0
  2  3  1  0
  2  4  2  0
  2  5  1  0
  2  6  1  0
  3  7  1  0
  7  8  1  0
  7  9  2  0
  7 10  1  0
M  CHG  1   6  -1
M  END
