mArh-3vfq_B_0_A_α-5CMS_0_K_δ
     RDKit          3D

 26 28  0  0  0  0  0  0  0  0999 V2000
   -3.6010   20.8320   -7.6010 C   0  0  0  0  0  0  0  0  0  0  0  0
   -4.6590   21.3240   -8.5460 C   0  0  2  0  0  0  0  0  0  0  0  0
   -4.0670   21.7850   -9.7420 O   0  0  0  0  0  0  0  0  0  0  0  0
   -5.5040   22.4500   -8.1130 C   0  0  2  0  0  0  0  0  0  0  0  0
   -6.2440   21.9550   -7.0700 O   0  0  0  0  0  0  0  0  0  0  0  0
   -5.0120   22.7140  -10.2910 C   0  0  1  0  0  0  0  0  0  0  0  0
   -6.2520   22.6970   -9.4000 C   0  0  1  0  0  0  0  0  0  0  0  0
   -4.4240   24.0010  -10.1890 O   0  0  0  0  0  0  0  0  0  0  0  0
   -7.1670   21.6490   -9.7270 O   0  0  0  0  0  0  0  0  0  0  0  0
   -5.3800   22.0210   -5.9640 C   0  0  0  0  0  0  0  0  0  0  0  0
   -4.4390   20.8350   -5.8000 C   0  0  0  0  0  0  0  0  0  0  0  0
   -2.9020   20.8520   -5.6850 C   0  0  0  0  0  0  0  0  0  0  0  0
   -1.9790   19.5670   -5.5470 C   0  0  0  0  0  0  0  0  0  0  0  0
   -2.2080   18.0770   -5.9540 C   0  0  0  0  0  0  0  0  0  0  0  0
   -1.7310   17.0260   -4.8790 C   0  0  0  0  0  0  0  0  0  0  0  0
   -2.6960   15.9350   -4.2870 C   0  0  0  0  0  0  0  0  0  0  0  0
   -2.4710   15.7110   -2.7530 C   0  0  2  0  0  0  0  0  0  0  0  0
   -1.3950   14.7710   -2.4430 N   0  0  0  0  0  0  0  0  0  0  0  0
   -3.5870   15.2360   -1.8960 N   0  0  0  0  0  0  0  0  0  0  0  0
   -1.6670   14.3780   -1.0570 C   0  0  2  0  0  0  0  0  0  0  0  0
   -2.7900   15.2790   -0.6340 C   0  0  2  0  0  0  0  0  0  0  0  0
   -0.4990   14.4650   -0.2750 N   0  0  0  0  0  0  0  0  0  0  0  0
   -3.2660   14.7590    0.7370 C   0  0  2  0  0  0  0  0  0  0  0  0
   -4.2460   15.5280    1.4860 N   0  0  0  0  0  0  0  0  0  0  0  0
   -0.7710   14.9700    1.0460 C   0  0  0  0  0  0  0  0  0  0  0  0
   -2.0870   14.5970    1.6000 N   0  0  0  0  0  0  0  0  0  0  0  0
  2  1  1  1
  2  3  1  0
  2  4  1  0
  4  5  1  1
  3  6  1  0
  4  7  1  0
  6  7  1  0
  6  8  1  1
  7  9  1  6
  5 10  1  0
 10 11  1  0
 11 12  1  0
 12 13  1  0
 13 14  1  0
 14 15  1  0
 15 16  1  0
 17 16  1  6
 17 18  1  0
 17 19  1  0
 20 18  1  6
 21 19  1  6
 20 21  1  0
 20 22  1  0
 21 23  1  0
 23 24  1  1
 22 25  1  0
 23 26  1  0
 25 26  1  0
M  END
