mArh-5cms_H_7_H_α-mArh-6mea_B_0_B_γ
     RDKit          3D

 23 24  0  0  0  0  0  0  0  0999 V2000
   -3.6720   21.4120   -8.2660 C   0  0  0  0  0  0  0  0  0  0  0  0
   -2.6400   21.7030   -9.2910 C   0  0  1  0  0  0  0  0  0  0  0  0
   -3.3320   22.3930  -10.3260 O   0  0  0  0  0  0  0  0  0  0  0  0
   -1.7230   22.5880   -8.5140 C   0  0  1  0  0  0  0  0  0  0  0  0
   -0.4100   22.6510   -8.9710 O   0  0  0  0  0  0  0  0  0  0  0  0
   -3.4190   23.7210   -9.8490 C   0  0  2  0  0  0  0  0  0  0  0  0
   -2.3580   23.8960   -8.7190 C   0  0  2  0  0  0  0  0  0  0  0  0
   -4.7220   23.9970   -9.3970 O   0  0  0  0  0  0  0  0  0  0  0  0
   -1.2910   24.7540   -9.0680 O   0  0  0  0  0  0  0  0  0  0  0  0
    0.5030   22.3380   -7.9670 C   0  0  0  0  0  0  0  0  0  0  0  0
   -0.0190   21.0570   -7.4040 C   0  0  0  0  0  0  0  0  0  0  0  0
   -0.7740   20.1320   -8.2950 C   0  0  0  0  0  0  0  0  0  0  0  0
   -0.3300   18.7400   -7.9770 C   0  0  0  0  0  0  0  0  0  0  0  0
    0.6110   18.6460   -6.7780 C   0  0  0  0  0  0  0  0  0  0  0  0
   -0.0140   18.0320   -5.5400 C   0  0  0  0  0  0  0  0  0  0  0  0
    0.7640   16.8930   -4.8930 C   0  0  0  0  0  0  0  0  0  0  0  0
   -0.0870   15.7670   -4.3300 C   0  0  2  0  0  0  0  0  0  0  0  0
    0.1530   15.4800   -2.9480 O   0  0  0  0  0  0  0  0  0  0  0  0
   -0.0950   14.3990   -4.9800 C   0  0  1  0  0  0  0  0  0  0  0  0
    1.1290   13.6750   -4.9250 O   0  0  0  0  0  0  0  0  0  0  0  0
   -0.6090   14.2850   -2.6990 C   0  0  0  0  0  0  0  0  0  0  0  0
   -1.1510   13.8290   -4.0560 C   0  0  2  0  0  0  0  0  0  0  0  0
   -1.3100   12.4280   -4.2050 O   0  0  0  0  0  0  0  0  0  0  0  0
  2  1  1  1
  2  3  1  0
  2  4  1  0
  4  5  1  6
  3  6  1  0
  4  7  1  0
  6  7  1  0
  6  8  1  1
  7  9  1  6
  5 10  1  0
 10 11  1  0
 11 12  1  0
 12 13  1  0
 13 14  1  0
 14 15  1  0
 15 16  1  0
 17 16  1  6
 17 18  1  0
 17 19  1  0
 19 20  1  1
 18 21  1  0
 19 22  1  0
 21 22  1  0
 22 23  1  1
M  END
