
     RDKit          3D

 36 39  0  0  0  0  0  0  0  0999 V2000
   -2.0260   18.1560   -5.7970 P   0  0  0  0  0  0  0  0  0  0  0  0
   -0.4270   19.6840   -7.7850 P   0  0  0  0  0  0  0  0  0  0  0  0
    0.2910   17.0080   -4.9480 C   0  0  0  0  0  0  0  0  0  0  0  0
   -1.0010   16.9000   -5.5720 O   0  0  0  0  0  0  0  0  0  0  0  0
    0.6280   15.6780   -4.3240 C   0  0  1  0  0  0  0  0  0  0  0  0
    0.1300   15.6440   -2.9660 O   0  0  0  0  0  0  0  0  0  0  0  0
    0.0430   14.4400   -5.0180 C   0  0  1  0  0  0  0  0  0  0  0  0
    1.0040   13.3890   -5.0480 O   0  0  0  0  0  0  0  0  0  0  0  0
   -1.1660   14.1030   -4.1370 C   0  0  1  0  0  0  0  0  0  0  0  0
   -1.5720   12.7400   -4.2000 O   0  0  0  0  0  0  0  0  0  0  0  0
   -0.5810   14.4390   -2.7740 C   0  0  2  0  0  0  0  0  0  0  0  0
   -5.3370   21.9340   -6.9260 C   0  0  1  0  0  0  0  0  0  0  0  0
   -1.1080   14.7830    2.3010 N   0  0  0  0  0  0  0  0  0  0  0  0
   -2.8910   17.6200   -6.8280 O   0  0  0  0  0  0  0  0  0  0  0  0
    0.5890   20.6390   -7.4380 O   0  0  0  0  0  0  0  0  0  0  0  0
   -5.5980   21.4060   -5.6820 O   0  0  0  0  0  0  0  0  0  0  0  0
   -0.0670   14.4780    1.5210 C   0  0  0  0  0  0  0  0  0  0  0  0
   -4.6640   23.2900   -6.7590 C   0  0  2  0  0  0  0  0  0  0  0  0
   -2.3840   18.4760   -4.4550 O   0  0  0  0  0  0  0  0  0  0  0  0
   -0.2200   18.4680   -8.4880 O   0  0  0  0  0  0  0  0  0  0  0  0
   -5.6120   24.3230   -6.5190 O   0  0  0  0  0  0  0  0  0  0  0  0
   -3.9500   23.4300   -8.1020 C   0  0  2  0  0  0  0  0  0  0  0  0
   -0.0220   14.3670    0.1910 N   0  0  0  0  0  0  0  0  0  0  0  0
   -0.9640   19.2010   -6.3490 O   0  0  0  0  0  0  0  0  0  0  0  0
   -4.8240   23.8950   -9.1260 O   0  0  0  0  0  0  0  0  0  0  0  0
   -1.2180   14.6210   -0.3560 C   0  0  0  0  0  0  0  0  0  0  0  0
   -3.4910   22.0010   -8.3760 C   0  0  2  0  0  0  0  0  0  0  0  0
   -4.3840   21.1420   -7.6330 O   0  0  0  0  0  0  0  0  0  0  0  0
   -2.3840   14.9470    0.3160 C   0  0  0  0  0  0  0  0  0  0  0  0
   -2.0610   21.7130   -7.9850 C   0  0  0  0  0  0  0  0  0  0  0  0
   -1.7310   20.3510   -8.3310 O   0  0  0  0  0  0  0  0  0  0  0  0
   -2.3070   15.0250    1.7200 C   0  0  0  0  0  0  0  0  0  0  0  0
   -3.3470   15.3070    2.5050 N   0  0  0  0  0  0  0  0  0  0  0  0
   -3.4210   15.1670   -0.5810 N   0  0  0  0  0  0  0  0  0  0  0  0
   -2.8620   14.9790   -1.7530 C   0  0  0  0  0  0  0  0  0  0  0  0
   -1.5330   14.6460   -1.6920 N   0  0  0  0  0  0  0  0  0  0  0  0
  1  4  1  0
  1 14  2  0
  1 19  1  0
  1 24  1  0
  4  3  1  0
 24  2  1  0
  2 15  2  0
  2 20  1  0
  2 31  1  0
 31 30  1  0
  5  3  1  6
  5  6  1  0
  5  7  1  0
  6 11  1  0
  7  8  1  1
  7  9  1  0
 11  9  1  0
 11 36  1  1
  9 10  1  1
 36 26  1  0
 36 35  1  0
 12 16  1  1
 12 18  1  0
 12 28  1  0
 18 21  1  6
 18 22  1  0
 28 27  1  0
 13 17  2  0
 13 32  1  0
 17 23  1  0
 32 29  2  0
 32 33  1  0
 23 26  2  0
 22 25  1  6
 22 27  1  0
 27 30  1  1
 26 29  1  0
 29 34  1  0
 34 35  2  0
M  END
