mArh-5cb5_H_0_H_Î±
     RDKit          3D

  9  9  0  0  0  0  0  0  0  0999 V2000
   -1.9390   21.7690   -8.4600 C   0  0  0  0  0  0  0  0  0  0  0  0
   -3.2960   21.8660   -9.0910 C   0  0  1  0  0  0  0  0  0  0  0  0
   -4.1770   20.9790   -8.4010 O   0  0  0  0  0  0  0  0  0  0  0  0
   -3.8710   23.2180   -8.8850 C   0  0  2  0  0  0  0  0  0  0  0  0
   -5.1230   21.7050   -7.6030 C   0  0  2  0  0  0  0  0  0  0  0  0
   -4.5140   23.0850   -7.5230 C   0  0  2  0  0  0  0  0  0  0  0  0
   -4.8240   23.3760   -9.9270 O   0  0  0  0  0  0  0  0  0  0  0  0
   -5.2470   21.0870   -6.3040 O   0  0  0  0  0  0  0  0  0  0  0  0
   -5.5120   24.0970   -7.2710 O   0  0  0  0  0  0  0  0  0  0  0  0
  2  1  1  1
  3  2  1  0
  4  2  1  0
  5  3  1  0
  6  4  1  0
  4  7  1  6
  5  8  1  1
  5  6  1  0
  6  9  1  6
M  END
