mArh-mac-102_0_A_Î±
     RDKit          3D

 13 14  0  0  0  0  0  0  0  0999 V2000
   16.0620   -0.7720    0.2920 C   0  0  0  0  0  0  0  0  0  0  0  0
   14.7900   -0.2280    0.9350 C   0  0  0  0  0  0  0  0  0  0  0  0
   14.8300    0.1420    2.2790 C   0  0  0  0  0  0  0  0  0  0  0  0
   13.6860    0.6410    2.8990 C   0  0  0  0  0  0  0  0  0  0  0  0
   13.4330    1.1130    4.3140 C   0  0  0  0  0  0  0  0  0  0  0  0
   14.2140    1.1500    5.2110 O   0  0  0  0  0  0  0  0  0  0  0  0
   12.0280    1.5270    4.3840 C   0  0  0  0  0  0  0  0  0  0  0  0
   11.4860    1.9600    5.3330 O   0  0  0  0  0  0  0  0  0  0  0  0
   11.4210    1.3210    3.0850 N   0  0  0  0  0  0  0  0  0  0  0  0
   12.4770    0.7630    2.1570 C   0  0  0  0  0  0  0  0  0  0  0  0
   12.4270    0.3940    0.8080 C   0  0  0  0  0  0  0  0  0  0  0  0
   13.5830   -0.1050    0.1960 C   0  0  0  0  0  0  0  0  0  0  0  0
   10.7610    0.5770   -0.1900 Br  0  0  0  0  0  0  0  0  0  0  0  0
  1  2  1  0
  2  3  2  0
  2 12  1  0
  3  4  1  0
 12 11  2  0
  4  5  1  0
  4 10  2  0
  5  6  2  0
  5  7  1  0
 10  9  1  0
 10 11  1  0
  7  8  2  0
  7  9  1  0
 11 13  1  0
M  END
