mArh-4iqy_A_0_A_β-5CMS_0_R_α
     RDKit          3D

 17 17  0  0  0  0  0  0  0  0999 V2000
   -1.8740   20.8340   -8.4400 O   0  0  0  0  0  0  0  0  0  0  0  0
   -0.5960   19.9810   -7.8310 P   0  0  2  0  0  0  0  0  0  0  0  0
   -1.1380   19.5570   -6.3870 O   0  0  0  0  0  0  0  0  0  0  0  0
   -2.0260   21.3420   -9.8460 N   0  0  0  0  0  0  0  0  0  0  0  0
    0.6940   20.7270   -7.7830 O   0  0  0  0  0  0  0  0  0  0  0  0
   -0.4260   18.6020   -8.6580 O   0  0  0  0  0  0  0  0  0  0  0  0
   -0.9740   22.3240  -10.1550 C   0  0  0  0  0  0  0  0  0  0  0  0
   -3.2710   22.1360   -9.8720 C   0  0  1  0  0  0  0  0  0  0  0  0
   -1.5950   18.1050   -5.9390 P   0  0  0  0  0  0  0  0  0  0  0  0
   -4.0890   21.8670   -8.7470 O   0  0  0  0  0  0  0  0  0  0  0  0
   -2.9500   23.6250   -9.9160 C   0  0  1  0  0  0  0  0  0  0  0  0
   -1.4310   23.7260   -9.8550 C   0  0  2  0  0  0  0  0  0  0  0  0
   -0.3380   17.1710   -6.1820 O   0  0  0  0  0  0  0  0  0  0  0  0
   -2.1580   17.9350   -4.5980 O   0  0  0  0  0  0  0  0  0  0  0  0
   -2.6290   17.5770   -7.0200 O   0  0  0  0  0  0  0  0  0  0  0  0
   -0.9490   24.5990  -10.8850 O   0  0  0  0  0  0  0  0  0  0  0  0
   -3.4550   24.2370  -11.1100 O   0  0  0  0  0  0  0  0  0  0  0  0
  1  2  1  0
  2  3  1  0
  1  4  1  0
  2  5  2  0
  2  6  1  6
  4  7  1  0
  4  8  1  0
  3  9  1  0
  8 10  1  1
  8 11  1  0
  7 12  1  0
 11 12  1  0
  9 13  1  0
  9 14  2  0
  9 15  1  0
 12 16  1  6
 11 17  1  6
M  END
