mArh-5cms_L_11_L_α-mArh-5cms_M_12_M_γ
     RDKit          3D

 23 24  0  0  0  0  0  0  0  0999 V2000
   -1.3130   21.1330   -7.8890 C   0  0  0  0  0  0  0  0  0  0  0  0
   -1.8390   22.0330   -8.9680 C   0  0  1  0  0  0  0  0  0  0  0  0
   -3.1000   21.5220   -9.4680 O   0  0  0  0  0  0  0  0  0  0  0  0
   -2.1300   23.4730   -8.5150 C   0  0  1  0  0  0  0  0  0  0  0  0
   -1.2540   24.4210   -9.0220 O   0  0  0  0  0  0  0  0  0  0  0  0
   -3.8880   22.3300   -8.6370 C   0  0  1  0  0  0  0  0  0  0  0  0
   -3.5150   23.6800   -9.0780 C   0  0  2  0  0  0  0  0  0  0  0  0
   -5.2570   22.1230   -8.4410 O   0  0  0  0  0  0  0  0  0  0  0  0
   -3.6400   23.9980  -10.4720 O   0  0  0  0  0  0  0  0  0  0  0  0
   -5.3030   21.7260   -7.0630 C   0  0  0  0  0  0  0  0  0  0  0  0
   -4.3770   20.5210   -6.9950 C   0  0  0  0  0  0  0  0  0  0  0  0
   -3.1660   20.4490   -6.0400 C   0  0  0  0  0  0  0  0  0  0  0  0
   -2.3060   19.2090   -6.4110 C   0  0  0  0  0  0  0  0  0  0  0  0
   -1.4470   18.5520   -5.3150 C   0  0  0  0  0  0  0  0  0  0  0  0
   -0.0670   18.0830   -5.8410 C   0  0  0  0  0  0  0  0  0  0  0  0
    0.6470   16.8870   -5.1730 C   0  0  0  0  0  0  0  0  0  0  0  0
   -0.2040   15.7270   -4.6530 C   0  0  2  0  0  0  0  0  0  0  0  0
   -0.1380   15.5860   -3.2270 O   0  0  0  0  0  0  0  0  0  0  0  0
   -0.0110   14.2960   -5.1380 C   0  0  1  0  0  0  0  0  0  0  0  0
    1.2490   13.6940   -4.8600 O   0  0  0  0  0  0  0  0  0  0  0  0
   -0.8260   14.3560   -2.9420 C   0  0  0  0  0  0  0  0  0  0  0  0
   -1.1270   13.7070   -4.2960 C   0  0  2  0  0  0  0  0  0  0  0  0
   -1.1330   12.2900   -4.2880 O   0  0  0  0  0  0  0  0  0  0  0  0
  2  1  1  1
  2  3  1  0
  2  4  1  0
  4  5  1  6
  3  6  1  0
  4  7  1  0
  6  7  1  0
  6  8  1  6
  7  9  1  6
  8 10  1  0
 10 11  1  0
 11 12  1  0
 12 13  1  0
 13 14  1  0
 14 15  1  0
 15 16  1  0
 17 16  1  6
 17 18  1  0
 17 19  1  0
 19 20  1  1
 18 21  1  0
 19 22  1  0
 21 22  1  0
 22 23  1  1
M  END
