mArh-3vfq_B_0_A_γ-mArh-4iqy_B_0_B_α
     RDKit          3D

 22 23  0  0  0  0  0  0  0  0999 V2000
   -5.4800   12.4330   -2.4080 O   0  0  0  0  0  0  0  0  0  0  0  0
   -5.1120   13.7990   -2.5890 C   0  0  1  0  0  0  0  0  0  0  0  0
   -4.2910   14.3550   -1.4210 C   0  0  0  0  0  0  0  0  0  0  0  0
   -4.1790   13.9530   -3.7970 C   0  0  2  0  0  0  0  0  0  0  0  0
   -3.9880   12.7240   -4.4880 O   0  0  0  0  0  0  0  0  0  0  0  0
   -3.2760   15.1830   -1.9960 O   0  0  0  0  0  0  0  0  0  0  0  0
   -2.8800   14.4630   -3.1700 C   0  0  2  0  0  0  0  0  0  0  0  0
   -1.9560   15.2610   -4.0800 C   0  0  0  0  0  0  0  0  0  0  0  0
   -2.6360   16.3660   -4.8530 C   0  0  0  0  0  0  0  0  0  0  0  0
   -1.6850   17.1040   -5.7890 C   0  0  0  0  0  0  0  0  0  0  0  0
   -1.4130   18.5760   -5.5320 C   0  0  0  0  0  0  0  0  0  0  0  0
   -1.1200   19.3670   -6.8060 C   0  0  0  0  0  0  0  0  0  0  0  0
   -1.8220   20.7150   -6.8150 C   0  0  0  0  0  0  0  0  0  0  0  0
   -2.0040   21.3270   -8.1930 C   0  0  0  0  0  0  0  0  0  0  0  0
   -3.4340   21.7130   -8.5840 C   0  0  1  0  0  0  0  0  0  0  0  0
   -4.2970   20.8060   -7.8490 O   0  0  0  0  0  0  0  0  0  0  0  0
   -3.8960   23.1380   -8.2660 C   0  0  1  0  0  0  0  0  0  0  0  0
   -4.7150   23.7690   -9.2380 O   0  0  0  0  0  0  0  0  0  0  0  0
   -5.1640   21.5590   -7.0340 C   0  0  1  0  0  0  0  0  0  0  0  0
   -4.6010   22.9690   -6.9310 C   0  0  2  0  0  0  0  0  0  0  0  0
   -6.4460   21.5370   -7.6160 O   0  0  0  0  0  0  0  0  0  0  0  0
   -5.5900   23.9700   -6.7130 O   0  0  0  0  0  0  0  0  0  0  0  0
  2  1  1  1
  2  3  1  0
  2  4  1  0
  4  5  1  1
  3  6  1  0
  4  7  1  0
  6  7  1  0
  7  8  1  6
  8  9  1  0
  9 10  1  0
 10 11  1  0
 11 12  1  0
 12 13  1  0
 13 14  1  0
 15 14  1  1
 15 16  1  0
 15 17  1  0
 17 18  1  6
 16 19  1  0
 17 20  1  0
 19 20  1  0
 19 21  1  6
 20 22  1  6
M  END
