mArh-5cms_B_1_B_Î³
     RDKit          3D

  8  8  0  0  0  0  0  0  0  0999 V2000
   -0.4240   14.2330   -2.6720 C   0  0  0  0  0  0  0  0  0  0  0  0
    0.3480   15.3770   -3.0850 O   0  0  0  0  0  0  0  0  0  0  0  0
   -0.9400   13.5420   -3.9210 C   0  0  1  0  0  0  0  0  0  0  0  0
    0.4030   15.5180   -4.5070 C   0  0  1  0  0  0  0  0  0  0  0  0
   -0.3280   14.3080   -5.0620 C   0  0  1  0  0  0  0  0  0  0  0  0
   -0.4180   12.1910   -3.9990 O   0  0  0  0  0  0  0  0  0  0  0  0
   -0.2680   16.8210   -4.9020 C   0  0  0  0  0  0  0  0  0  0  0  0
    0.6550   13.4610   -5.6770 O   0  0  0  0  0  0  0  0  0  0  0  0
  1  2  1  1
  1  3  1  0
  4  2  1  0
  5  3  1  0
  3  6  1  1
  4  7  1  1
  4  5  1  0
  5  8  1  1
M  END
