mArh-x0805_0_A_β-6MEA_0_B_β
     RDKit          3D

 19 19  0  0  0  0  0  0  0  0999 V2000
    0.3640   12.1380   -2.3790 C   0  0  0  0  0  0  0  0  0  0  0  0
    0.0710   10.8850   -2.8880 O   0  0  0  0  0  0  0  0  0  0  0  0
    0.2870   12.3510   -1.1570 O   0  0  0  0  0  0  0  0  0  0  0  0
    0.7700   13.2220   -3.2400 C   0  0  2  0  0  0  0  0  0  0  0  0
   -0.3300   14.0850   -3.7210 C   0  0  0  0  0  0  0  0  0  0  0  0
    1.7530   12.9060   -4.2970 C   0  0  0  0  0  0  0  0  0  0  0  0
    2.2450   14.0490   -4.8030 O   0  0  0  0  0  0  0  0  0  0  0  0
    0.3010   15.3800   -4.0160 C   0  0  2  0  0  0  0  0  0  0  0  0
   -0.2810   16.0990   -5.1360 C   0  0  0  0  0  0  0  0  0  0  0  0
    1.7820   15.2470   -4.3010 C   0  0  0  0  0  0  0  0  0  0  0  0
   -0.3020   17.4760   -5.0270 O   0  0  0  0  0  0  0  0  0  0  0  0
   -1.3070   18.0930   -6.0110 P   0  0  0  0  0  0  0  0  0  0  0  0
   -0.2560   19.1970   -6.5670 O   0  0  0  0  0  0  0  0  0  0  0  0
   -2.4220   18.4800   -6.9750 O   0  0  0  0  0  0  0  0  0  0  0  0
   -2.2140   18.5230   -4.7170 O   0  0  0  0  0  0  0  0  0  0  0  0
   -0.3100   19.9760   -7.8710 P   0  0  0  0  0  0  0  0  0  0  0  0
   -1.8020   20.5790   -7.7660 O   0  0  0  0  0  0  0  0  0  0  0  0
    1.0340   20.8600   -7.4760 O   0  0  0  0  0  0  0  0  0  0  0  0
   -0.0790   18.5630   -8.7220 O   0  0  0  0  0  0  0  0  0  0  0  0
  1  2  1  0
  1  3  2  0
  4  1  1  6
  4  5  1  0
  4  6  1  0
  6  7  1  0
  5  8  1  0
  8  9  1  6
  7 10  1  0
  8 10  1  0
  9 11  1  0
 11 12  1  0
 12 13  1  0
 12 14  1  0
 12 15  1  0
 13 16  1  0
 16 17  1  0
 16 18  1  0
 16 19  1  0
M  CHG  2  14  -1  18  -1
M  END
