mArh-x0628_0_A_α-mArh-x0849_0_A_α
     RDKit          3D

 25 27  0  0  0  0  0  0  0  0999 V2000
   -0.9280    9.0450   -7.3320 C   0  0  0  0  0  0  0  0  0  0  0  0
   -0.9040   10.2330   -6.4590 C   0  0  0  0  0  0  0  0  0  0  0  0
   -1.8720   10.4820   -5.5250 N   0  0  0  0  0  0  0  0  0  0  0  0
    0.0640   11.1490   -6.5170 N   0  0  0  0  0  0  0  0  0  0  0  0
   -0.3140   12.0180   -5.5610 N   0  0  0  0  0  0  0  0  0  0  0  0
   -1.4880   11.6130   -4.9590 C   0  0  0  0  0  0  0  0  0  0  0  0
   -2.2060   12.3220   -3.8500 C   0  0  0  0  0  0  0  0  0  0  0  0
    0.4870   13.1940   -5.2830 C   0  0  0  0  0  0  0  0  0  0  0  0
    1.6420   12.9630   -4.3160 C   0  0  0  0  0  0  0  0  0  0  0  0
   -2.5430   13.7920   -4.1450 C   0  0  0  0  0  0  0  0  0  0  0  0
    1.1750   12.2130   -3.0980 C   0  0  0  0  0  0  0  0  0  0  0  0
   -3.7200   14.3180   -3.3100 C   0  0  0  0  0  0  0  0  0  0  0  0
    0.4870   11.2030   -3.0990 O   0  0  0  0  0  0  0  0  0  0  0  0
    1.5960   12.7840   -1.9560 O   0  0  0  0  0  0  0  0  0  0  0  0
   -3.2480   15.3620   -2.4550 O   0  0  0  0  0  0  0  0  0  0  0  0
   -3.4270   15.2470   -1.0900 C   0  0  0  0  0  0  0  0  0  0  0  0
   -2.2890   14.9100   -0.3090 C   0  0  0  0  0  0  0  0  0  0  0  0
   -4.6360   15.4470   -0.4440 C   0  0  0  0  0  0  0  0  0  0  0  0
   -2.4420   14.7990    1.0800 C   0  0  0  0  0  0  0  0  0  0  0  0
   -4.6630   15.3060    0.9210 C   0  0  0  0  0  0  0  0  0  0  0  0
   -1.0000   14.6840   -0.8390 C   0  0  0  0  0  0  0  0  0  0  0  0
   -3.6030   14.9930    1.6660 N   0  0  0  0  0  0  0  0  0  0  0  0
   -1.4380   14.4990    1.8760 N   0  0  0  0  0  0  0  0  0  0  0  0
    0.0500   14.3710    0.0070 C   0  0  0  0  0  0  0  0  0  0  0  0
   -0.2330   14.2920    1.3560 C   0  0  0  0  0  0  0  0  0  0  0  0
  1  2  1  0
  2  3  1  0
  2  4  2  0
  4  5  1  0
  3  6  2  0
  5  6  1  0
  6  7  1  0
  5  8  1  0
  8  9  1  0
  7 10  1  0
  9 11  1  0
 10 12  1  0
 11 13  2  0
 11 14  1  0
 12 15  1  0
 15 16  1  0
 16 17  1  0
 16 18  2  0
 17 19  2  0
 18 20  1  0
 17 21  1  0
 19 22  1  0
 20 22  2  0
 19 23  1  0
 21 24  2  0
 23 25  2  0
 24 25  1  0
M  END
