mArh-5cms_C_2_C_γ-5CMS_0_F_α
     RDKit          3D

 21 22  0  0  0  0  0  0  0  0999 V2000
   -0.6690   12.1140   -4.0280 O   0  0  0  0  0  0  0  0  0  0  0  0
   -1.0640   13.4650   -4.1430 C   0  0  1  0  0  0  0  0  0  0  0  0
   -0.7720   14.2870   -2.8980 C   0  0  0  0  0  0  0  0  0  0  0  0
   -0.2360   14.1440   -5.2090 C   0  0  2  0  0  0  0  0  0  0  0  0
    1.0490   13.5270   -5.2320 O   0  0  0  0  0  0  0  0  0  0  0  0
   -0.2670   15.5600   -3.3260 O   0  0  0  0  0  0  0  0  0  0  0  0
   -0.3010   15.6090   -4.7670 C   0  0  1  0  0  0  0  0  0  0  0  0
    0.8310   16.5240   -5.2190 C   0  0  0  0  0  0  0  0  0  0  0  0
    0.5470   18.0130   -5.5010 C   0  0  0  0  0  0  0  0  0  0  0  0
   -0.7660   18.3610   -6.2330 C   0  0  0  0  0  0  0  0  0  0  0  0
   -0.5580   19.3410   -7.4090 C   0  0  0  0  0  0  0  0  0  0  0  0
   -1.5940   20.4840   -7.5020 C   0  0  0  0  0  0  0  0  0  0  0  0
   -1.5340   21.2740   -8.8280 C   0  0  0  0  0  0  0  0  0  0  0  0
   -2.8330   22.0190   -9.1890 C   0  0  2  0  0  0  0  0  0  0  0  0
   -3.2270   21.7460  -10.5400 O   0  0  0  0  0  0  0  0  0  0  0  0
   -2.7740   23.5430   -9.0980 C   0  0  1  0  0  0  0  0  0  0  0  0
   -1.4690   24.0700   -8.9920 O   0  0  0  0  0  0  0  0  0  0  0  0
   -4.1540   22.7630  -10.9010 C   0  0  2  0  0  0  0  0  0  0  0  0
   -3.7140   24.0340  -10.2490 C   0  0  2  0  0  0  0  0  0  0  0  0
   -5.4250   22.5200  -10.3660 O   0  0  0  0  0  0  0  0  0  0  0  0
   -3.2720   25.0240  -11.2040 O   0  0  0  0  0  0  0  0  0  0  0  0
  2  1  1  1
  2  3  1  0
  2  4  1  0
  4  5  1  1
  3  6  1  0
  4  7  1  0
  6  7  1  0
  7  8  1  6
  8  9  1  0
  9 10  1  0
 10 11  1  0
 11 12  1  0
 12 13  1  0
 14 13  1  6
 14 15  1  0
 14 16  1  0
 16 17  1  6
 15 18  1  0
 16 19  1  0
 18 19  1  0
 18 20  1  1
 19 21  1  6
M  END
