mArh-5cb5_A_0_A_Î³
     RDKit          3D

  8  8  0  0  0  0  0  0  0  0999 V2000
   -0.8280   14.6710   -2.9080 C   0  0  0  0  0  0  0  0  0  0  0  0
   -0.1960   15.9420   -3.1790 O   0  0  0  0  0  0  0  0  0  0  0  0
   -1.3020   14.2170   -4.2710 C   0  0  1  0  0  0  0  0  0  0  0  0
    0.3180   15.9840   -4.5320 C   0  0  1  0  0  0  0  0  0  0  0  0
   -0.1140   14.6580   -5.1100 C   0  0  1  0  0  0  0  0  0  0  0  0
   -1.4440   12.8170   -4.2800 O   0  0  0  0  0  0  0  0  0  0  0  0
   -0.1690   17.1500   -5.3940 C   0  0  0  0  0  0  0  0  0  0  0  0
    1.0730   13.9420   -4.8340 O   0  0  0  0  0  0  0  0  0  0  0  0
  1  2  1  1
  1  3  1  0
  4  2  1  0
  5  3  1  0
  3  6  1  1
  4  7  1  6
  4  5  1  0
  5  8  1  1
M  END
