mArh-x0918_0_B_α-4IQY_0_A_β
     RDKit          3D

 23 23  0  0  0  0  0  0  0  0999 V2000
   -3.2390   29.6390  -14.3650 N   0  0  0  0  0  0  0  0  0  0  0  0
   -4.5110   29.3670  -13.7780 C   0  0  0  0  0  0  0  0  0  0  0  0
   -4.6870   28.3440  -12.8840 C   0  0  0  0  0  0  0  0  0  0  0  0
   -5.5820   30.1660  -14.1410 C   0  0  0  0  0  0  0  0  0  0  0  0
   -6.8180   29.9260  -13.5890 C   0  0  0  0  0  0  0  0  0  0  0  0
   -5.9510   28.1170  -12.3540 C   0  0  0  0  0  0  0  0  0  0  0  0
   -6.2590   27.0040  -11.3990 C   0  0  0  0  0  0  0  0  0  0  0  0
   -6.9430   28.9180  -12.7260 N   0  0  0  0  0  0  0  0  0  0  0  0
   -5.3680   25.7940  -11.5690 C   0  0  0  0  0  0  0  0  0  0  0  0
   -6.0120   24.6080  -10.7820 C   0  0  0  0  0  0  0  0  0  0  0  0
   -5.0780   23.4700  -10.6390 C   0  0  0  0  0  0  0  0  0  0  0  0
   -4.2200   23.2510   -9.4750 C   0  0  0  0  0  0  0  0  0  0  0  0
   -3.5910   21.9580   -9.2250 C   0  0  0  0  0  0  0  0  0  0  0  0
   -2.4250   21.7970   -8.3370 C   0  0  0  0  0  0  0  0  0  0  0  0
   -1.6750   20.7370   -8.8580 O   0  0  0  0  0  0  0  0  0  0  0  0
   -0.7020   20.1330   -7.6530 P   0  0  0  0  0  0  0  0  0  0  0  0
   -1.3880   19.5370   -6.3110 O   0  0  0  0  0  0  0  0  0  0  0  0
    0.9010   20.5130   -7.6490 O   0  0  0  0  0  0  0  0  0  0  0  0
   -0.4140   18.8480   -8.4270 O   0  0  0  0  0  0  0  0  0  0  0  0
   -1.6030   17.8980   -6.1750 P   0  0  0  0  0  0  0  0  0  0  0  0
   -0.3720   16.9650   -5.5590 O   0  0  0  0  0  0  0  0  0  0  0  0
   -2.1230   18.1090   -4.7750 O   0  0  0  0  0  0  0  0  0  0  0  0
   -2.8750   17.2100   -6.8070 O   0  0  0  0  0  0  0  0  0  0  0  0
  1  2  1  0
  2  3  2  0
  2  4  1  0
  4  5  2  0
  3  6  1  0
  6  7  1  0
  5  8  1  0
  6  8  2  0
  7  9  1  0
  9 10  1  0
 10 11  1  0
 11 12  1  0
 12 13  1  0
 13 14  1  0
 14 15  1  0
 15 16  1  0
 16 17  1  0
 16 18  1  0
 16 19  1  0
 17 20  1  0
 20 21  1  0
 20 22  1  0
 20 23  1  0
M  CHG  2  18  -1  22  -1
M  END
