mArh-x0524_0_A_α-mArh-x0471_0_A_α
     RDKit          3D

 38 41  0  0  0  0  0  0  0  0999 V2000
   -0.3660    8.6200   -7.9920 N   0  0  0  0  0  0  0  0  0  0  0  0
   -0.7240    9.7040   -7.2000 C   0  0  0  0  0  0  0  0  0  0  0  0
   -1.9960    9.4810   -6.3920 C   0  0  0  0  0  0  0  0  0  0  0  0
    0.6040    8.6650   -9.0190 C   0  0  0  0  0  0  0  0  0  0  0  0
   -0.1100   10.7570   -7.1250 O   0  0  0  0  0  0  0  0  0  0  0  0
    1.7230    7.8350   -8.9020 C   0  0  0  0  0  0  0  0  0  0  0  0
    0.5010    9.4940  -10.1360 C   0  0  0  0  0  0  0  0  0  0  0  0
   -2.6560   10.8160   -5.9980 C   0  0  0  0  0  0  0  0  0  0  0  0
    2.7220    7.8400   -9.8880 C   0  0  0  0  0  0  0  0  0  0  0  0
    1.4980    9.4940  -11.1170 C   0  0  0  0  0  0  0  0  0  0  0  0
   -1.8640   11.5680   -4.9150 C   0  0  0  0  0  0  0  0  0  0  0  0
    2.6220    8.6720  -11.0110 C   0  0  0  0  0  0  0  0  0  0  0  0
    3.6360    8.6610  -11.9800 N   0  0  0  0  0  0  0  0  0  0  0  0
   -2.4550   12.9430   -4.5320 C   0  0  0  0  0  0  0  0  0  0  0  0
   -2.2080   13.4110   -3.0780 C   0  0  0  0  0  0  0  0  0  0  0  0
    3.9210    9.5430  -13.0390 C   0  0  0  0  0  0  0  0  0  0  0  0
   -2.6320   14.8480   -2.6900 C   0  0  0  0  0  0  0  0  0  0  0  0
    3.1930   10.7160  -13.2860 C   0  0  0  0  0  0  0  0  0  0  0  0
    4.9900    9.2420  -13.8940 C   0  0  0  0  0  0  0  0  0  0  0  0
    3.5200   11.5570  -14.3510 C   0  0  0  0  0  0  0  0  0  0  0  0
    5.3190   10.0800  -14.9600 C   0  0  0  0  0  0  0  0  0  0  0  0
   -3.5850   14.8600   -1.5070 C   0  0  0  0  0  0  0  0  0  0  0  0
    4.5850   11.2390  -15.1890 C   0  0  0  0  0  0  0  0  0  0  0  0
   -4.9670   14.7710   -1.7470 C   0  0  0  0  0  0  0  0  0  0  0  0
   -3.1040   14.9420   -0.1860 C   0  0  0  0  0  0  0  0  0  0  0  0
   -5.8140   14.7400   -0.6390 C   0  0  0  0  0  0  0  0  0  0  0  0
   -3.9760   14.9190    0.9110 C   0  0  0  0  0  0  0  0  0  0  0  0
   -7.1770   14.6390   -0.5240 N   0  0  0  0  0  0  0  0  0  0  0  0
   -5.3530   14.8070    0.6670 C   0  0  0  0  0  0  0  0  0  0  0  0
   -7.4920   14.6420    0.8090 C   0  0  0  0  0  0  0  0  0  0  0  0
   -6.4030   14.7460    1.5460 N   0  0  0  0  0  0  0  0  0  0  0  0
   -8.8980   14.5360    1.3070 C   0  0  0  0  0  0  0  0  0  0  0  0
   -8.8440   14.1120    2.6900 N   0  0  0  0  0  0  0  0  0  0  0  0
   -8.9670   15.0130    3.7250 C   0  0  0  0  0  0  0  0  0  0  0  0
   -9.2980   16.1840    3.5510 O   0  0  0  0  0  0  0  0  0  0  0  0
   -8.6660   14.4180    5.1000 C   0  0  0  0  0  0  0  0  0  0  0  0
   -9.8840   13.6530    5.6350 C   0  0  0  0  0  0  0  0  0  0  0  0
   -8.2760   15.5250    6.0800 C   0  0  0  0  0  0  0  0  0  0  0  0
  1  2  1  0
  2  3  1  0
  1  4  1  0
  2  5  2  0
  4  6  2  0
  4  7  1  0
  3  8  1  0
  6  9  1  0
  7 10  2  0
  8 11  1  0
  9 12  2  0
 10 12  1  0
 12 13  1  0
 11 14  1  0
 14 15  1  0
 13 16  1  0
 15 17  1  0
 16 18  2  0
 16 19  1  0
 18 20  1  0
 19 21  2  0
 17 22  1  0
 20 23  2  0
 21 23  1  0
 22 24  2  0
 22 25  1  0
 24 26  1  0
 25 27  2  0
 26 28  1  0
 26 29  2  0
 27 29  1  0
 28 30  1  0
 29 31  1  0
 30 31  2  0
 30 32  1  0
 32 33  1  0
 33 34  1  0
 34 35  2  0
 34 36  1  0
 36 37  1  0
 36 38  1  0
M  END
