mArh-5cms_J_9_J_β-5CB5_0_H_γ
     RDKit          3D

 16 16  0  0  0  0  0  0  0  0999 V2000
    0.1150   21.2020   -7.7300 O   0  0  0  0  0  0  0  0  0  0  0  0
   -0.2270   19.6480   -7.6950 P   0  0  0  0  0  0  0  0  0  0  0  0
   -1.1090   19.4290   -6.4240 O   0  0  0  0  0  0  0  0  0  0  0  0
    0.9090   18.7400   -7.7820 O   0  0  0  0  0  0  0  0  0  0  0  0
   -1.1950   19.5230   -8.9180 O   0  0  0  0  0  0  0  0  0  0  0  0
   -1.5710   17.9750   -6.0330 P   0  0  2  0  0  0  0  0  0  0  0  0
   -0.3600   17.0680   -5.4830 O   0  0  0  0  0  0  0  0  0  0  0  0
   -2.5200   17.3400   -6.9620 O   0  0  0  0  0  0  0  0  0  0  0  0
   -2.2760   18.3190   -4.6790 O   0  0  0  0  0  0  0  0  0  0  0  0
   -0.7340   16.0220   -4.5850 C   0  0  2  0  0  0  0  0  0  0  0  0
    0.0240   15.9680   -3.3680 O   0  0  0  0  0  0  0  0  0  0  0  0
   -0.6500   14.5750   -5.0880 C   0  0  1  0  0  0  0  0  0  0  0  0
    0.6710   14.0920   -5.3910 O   0  0  0  0  0  0  0  0  0  0  0  0
   -0.3720   14.7270   -2.7480 C   0  0  0  0  0  0  0  0  0  0  0  0
   -1.0750   13.8870   -3.8190 C   0  0  2  0  0  0  0  0  0  0  0  0
   -0.6580   12.5350   -3.8350 O   0  0  0  0  0  0  0  0  0  0  0  0
  1  2  1  0
  2  3  1  0
  2  4  2  0
  2  5  1  0
  3  6  1  0
  6  7  1  0
  6  8  2  0
  6  9  1  1
 10  7  1  6
 10 11  1  0
 10 12  1  0
 12 13  1  1
 11 14  1  0
 12 15  1  0
 14 15  1  0
 15 16  1  6
M  END
