mArh-x0417_0_B_α-mArh-5cb5_J_2_J_β
     RDKit          3D

 31 32  0  0  0  0  0  0  0  0999 V2000
   -2.5500   31.1170  -17.1590 N   0  0  0  0  0  0  0  0  0  0  0  0
   -1.3350   31.8580  -17.4690 C   0  0  0  0  0  0  0  0  0  0  0  0
   -2.5900   30.6210  -15.7670 C   0  0  2  0  0  0  0  0  0  0  0  0
   -2.3510   29.1110  -15.7250 C   0  0  0  0  0  0  0  0  0  0  0  0
   -3.9750   30.7360  -15.1300 C   0  0  0  0  0  0  0  0  0  0  0  0
   -4.7340   31.6690  -15.2910 O   0  0  0  0  0  0  0  0  0  0  0  0
   -3.1060   28.6490  -14.4860 C   0  0  0  0  0  0  0  0  0  0  0  0
   -4.2010   29.5860  -14.3650 N   0  0  0  0  0  0  0  0  0  0  0  0
   -5.2910   29.4100  -13.4680 C   0  0  0  0  0  0  0  0  0  0  0  0
   -6.4710   30.1190  -13.7420 C   0  0  0  0  0  0  0  0  0  0  0  0
   -5.2780   28.5840  -12.3290 C   0  0  0  0  0  0  0  0  0  0  0  0
   -4.1660   27.8580  -12.0370 O   0  0  0  0  0  0  0  0  0  0  0  0
   -7.5890   30.0190  -12.9100 C   0  0  0  0  0  0  0  0  0  0  0  0
   -6.4000   28.4970  -11.4950 C   0  0  0  0  0  0  0  0  0  0  0  0
   -4.1220   26.4620  -12.4870 C   0  0  0  0  0  0  0  0  0  0  0  0
   -7.5530   29.2110  -11.7830 C   0  0  0  0  0  0  0  0  0  0  0  0
   -5.1280   25.5430  -11.7240 C   0  0  0  0  0  0  0  0  0  0  0  0
   -4.4690   24.5540  -10.7140 C   0  0  0  0  0  0  0  0  0  0  0  0
   -4.7530   23.0680  -10.8860 C   0  0  0  0  0  0  0  0  0  0  0  0
   -4.1860   22.1210   -9.7830 C   0  0  0  0  0  0  0  0  0  0  0  0
   -3.1610   22.5160   -8.7050 C   0  0  0  0  0  0  0  0  0  0  0  0
   -1.8720   21.6730   -8.7840 C   0  0  0  0  0  0  0  0  0  0  0  0
   -1.8040   20.5000   -7.9730 O   0  0  0  0  0  0  0  0  0  0  0  0
   -0.3010   19.8970   -7.7940 P   0  0  2  0  0  0  0  0  0  0  0  0
   -0.3420   19.0070   -6.5060 O   0  0  0  0  0  0  0  0  0  0  0  0
    0.8150   20.8800   -7.8610 O   0  0  0  0  0  0  0  0  0  0  0  0
   -0.1170   18.7290   -8.8760 O   0  0  0  0  0  0  0  0  0  0  0  0
   -1.6150   18.2830   -5.9530 P   0  0  0  0  0  0  0  0  0  0  0  0
   -1.1040   17.1040   -5.0210 O   0  0  0  0  0  0  0  0  0  0  0  0
   -2.6150   17.8470   -6.9560 O   0  0  0  0  0  0  0  0  0  0  0  0
   -2.2430   19.3090   -4.9170 O   0  0  0  0  0  0  0  0  0  0  0  0
  1  2  1  0
  3  1  1  6
  3  4  1  0
  3  5  1  0
  5  6  2  0
  4  7  1  0
  5  8  1  0
  7  8  1  0
  8  9  1  0
  9 10  2  0
  9 11  1  0
 11 12  1  0
 10 13  1  0
 11 14  2  0
 12 15  1  0
 13 16  2  0
 14 16  1  0
 15 17  1  0
 17 18  1  0
 18 19  1  0
 19 20  1  0
 20 21  1  0
 21 22  1  0
 22 23  1  0
 23 24  1  0
 24 25  1  0
 24 26  2  0
 24 27  1  6
 25 28  1  0
 28 29  1  0
 28 30  2  0
 28 31  1  0
M  END
