mArh-5mqx_0_A_α-mArh-x0895_0_A_α
     RDKit          3D

 19 20  0  0  0  0  0  0  0  0999 V2000
   -5.9050   19.5170   -7.7250 C   0  0  0  0  0  0  0  0  0  0  0  0
   -6.6570   18.1920   -7.9250 C   0  0  2  0  0  0  0  0  0  0  0  0
   -6.0400   16.9610   -8.2750 O   0  0  0  0  0  0  0  0  0  0  0  0
   -7.9910   18.2110   -8.5850 C   0  0  1  0  0  0  0  0  0  0  0  0
   -7.9900   18.4260   -9.9820 O   0  0  0  0  0  0  0  0  0  0  0  0
   -6.9980   16.0770   -7.7330 C   0  0  2  0  0  0  0  0  0  0  0  0
   -8.3550   16.7710   -8.1910 C   0  0  2  0  0  0  0  0  0  0  0  0
   -6.7960   16.0080   -6.2770 O   0  0  0  0  0  0  0  0  0  0  0  0
   -8.8870   16.1990   -9.3800 O   0  0  0  0  0  0  0  0  0  0  0  0
   -6.5840   14.7230   -5.5790 C   0  0  0  0  0  0  0  0  0  0  0  0
   -5.3120   14.6100   -4.6410 C   0  0  0  0  0  0  0  0  0  0  0  0
   -5.5070   14.7750   -3.0760 C   0  0  0  0  0  0  0  0  0  0  0  0
   -4.1920   14.6880   -2.3450 N   0  0  0  0  0  0  0  0  0  0  0  0
   -3.8940   14.9160   -1.0730 C   0  0  0  0  0  0  0  0  0  0  0  0
   -4.7320   15.3110   -0.0690 N   0  0  0  0  0  0  0  0  0  0  0  0
   -2.6480   14.7900   -0.5160 N   0  0  0  0  0  0  0  0  0  0  0  0
   -4.1650   14.9480    1.2260 C   0  0  0  0  0  0  0  0  0  0  0  0
   -2.6920   14.7740    0.8670 C   0  0  0  0  0  0  0  0  0  0  0  0
   -1.7280   14.6360    1.6360 O   0  0  0  0  0  0  0  0  0  0  0  0
  2  1  1  6
  2  3  1  0
  2  4  1  0
  4  5  1  6
  3  6  1  0
  4  7  1  0
  6  7  1  0
  6  8  1  1
  7  9  1  6
  8 10  1  0
 10 11  1  0
 11 12  1  0
 12 13  1  0
 13 14  2  3
 14 15  1  0
 14 16  1  0
 15 17  1  0
 16 18  1  0
 17 18  1  0
 18 19  2  0
M  END
