mArh-5cb3_0_A_Î±
     RDKit          3D

  9  9  0  0  0  0  0  0  0  0999 V2000
   -2.0440   21.4810   -8.6080 C   0  0  0  0  0  0  0  0  0  0  0  0
   -3.4760   21.7420   -9.0320 C   0  0  1  0  0  0  0  0  0  0  0  0
   -4.3650   20.9120   -8.2790 O   0  0  0  0  0  0  0  0  0  0  0  0
   -3.8880   23.1610   -8.7100 C   0  0  2  0  0  0  0  0  0  0  0  0
   -5.2430   21.7320   -7.4890 C   0  0  2  0  0  0  0  0  0  0  0  0
   -4.5240   23.0630   -7.3540 C   0  0  2  0  0  0  0  0  0  0  0  0
   -4.8760   23.5740   -9.6500 O   0  0  0  0  0  0  0  0  0  0  0  0
   -5.4870   21.1600   -6.2050 O   0  0  0  0  0  0  0  0  0  0  0  0
   -5.4040   24.1630   -7.1090 O   0  0  0  0  0  0  0  0  0  0  0  0
  2  1  1  1
  3  2  1  0
  4  2  1  0
  5  3  1  0
  6  4  1  0
  4  7  1  6
  5  8  1  1
  5  6  1  0
  6  9  1  6
M  END
