mArh-5cms_O_14_O_Î³
     RDKit          3D

  8  8  0  0  0  0  0  0  0  0999 V2000
   -0.3750   14.4830   -3.0150 C   0  0  0  0  0  0  0  0  0  0  0  0
    0.2930   15.6800   -3.4220 O   0  0  0  0  0  0  0  0  0  0  0  0
   -0.8750   13.8220   -4.3090 C   0  0  1  0  0  0  0  0  0  0  0  0
    0.6670   15.5830   -4.8020 C   0  0  1  0  0  0  0  0  0  0  0  0
    0.2160   14.1980   -5.2780 C   0  0  1  0  0  0  0  0  0  0  0  0
   -0.9860   12.4160   -4.2320 O   0  0  0  0  0  0  0  0  0  0  0  0
    0.0880   16.7260   -5.6540 C   0  0  0  0  0  0  0  0  0  0  0  0
    1.3430   13.2980   -5.2160 O   0  0  0  0  0  0  0  0  0  0  0  0
  1  2  1  1
  1  3  1  0
  4  2  1  0
  5  3  1  0
  3  6  1  1
  4  7  1  6
  4  5  1  0
  5  8  1  1
M  END
