mArh-5cms_D_3_D_α-mArh-6woj_B_0_B_β
     RDKit          3D

 11 10  0  0  0  0  0  0  0  0999 V2000
   -1.3310   16.7180   -5.4270 O   0  0  0  0  0  0  0  0  0  0  0  0
   -2.0180   18.0250   -5.8250 P   0  0  0  0  0  0  0  0  0  0  0  0
   -2.7900   17.1470   -6.9290 O   0  0  0  0  0  0  0  0  0  0  0  0
   -2.7830   19.2450   -6.2900 O   0  0  0  0  0  0  0  0  0  0  0  0
   -0.5360   18.7210   -6.1200 N   0  0  0  0  0  0  0  0  0  0  0  0
   -0.1260   19.4820   -7.4990 P   0  0  0  0  0  0  0  0  0  0  0  0
    0.5670   17.8620   -5.1440 P   0  0  0  0  0  0  0  0  0  0  0  0
   -1.5890   20.3080   -7.5180 O   0  0  0  0  0  0  0  0  0  0  0  0
    0.0090   18.4500   -8.7100 O   0  0  0  0  0  0  0  0  0  0  0  0
    0.3840   20.9490   -7.9760 N   0  0  0  0  0  0  0  0  0  0  0  0
    1.4270   21.3220   -7.6250 O   0  0  0  0  0  0  0  0  0  0  0  0
  1  2  1  0
  2  3  1  0
  2  4  1  0
  2  5  1  0
  5  6  1  0
  5  7  1  0
  6  8  1  0
  6  9  1  0
  6 10  1  0
 10 11  2  0
M  CHG  2   3  -1   9  -1
M  END
