mArh-5cb5_C_0_C_Î³
     RDKit          3D

  8  8  0  0  0  0  0  0  0  0999 V2000
   -0.7520   14.9390   -2.9240 C   0  0  0  0  0  0  0  0  0  0  0  0
   -0.2610   16.1610   -3.4930 O   0  0  0  0  0  0  0  0  0  0  0  0
   -1.1580   14.0480   -4.0880 C   0  0  1  0  0  0  0  0  0  0  0  0
    0.4120   15.8630   -4.7020 C   0  0  1  0  0  0  0  0  0  0  0  0
   -0.1710   14.5390   -5.1380 C   0  0  1  0  0  0  0  0  0  0  0  0
   -0.8680   12.6710   -3.7600 O   0  0  0  0  0  0  0  0  0  0  0  0
    0.1240   16.9910   -5.6500 C   0  0  0  0  0  0  0  0  0  0  0  0
    0.9630   13.6910   -5.0950 O   0  0  0  0  0  0  0  0  0  0  0  0
  1  2  1  1
  1  3  1  0
  4  2  1  0
  5  3  1  0
  3  6  1  1
  4  7  1  6
  4  5  1  0
  5  8  1  1
M  END
