mArh-5cms_P_15_P_Î³
     RDKit          3D

  8  8  0  0  0  0  0  0  0  0999 V2000
   -0.7270   14.3310   -3.0270 C   0  0  0  0  0  0  0  0  0  0  0  0
   -0.0880   15.5630   -3.4180 O   0  0  0  0  0  0  0  0  0  0  0  0
   -1.2980   13.7410   -4.3330 C   0  0  1  0  0  0  0  0  0  0  0  0
    0.4040   15.4280   -4.7550 C   0  0  1  0  0  0  0  0  0  0  0  0
   -0.1430   14.0750   -5.2270 C   0  0  1  0  0  0  0  0  0  0  0  0
   -1.4790   12.3200   -4.3580 O   0  0  0  0  0  0  0  0  0  0  0  0
    0.0880   16.7260   -5.5080 C   0  0  0  0  0  0  0  0  0  0  0  0
    0.8220   13.0410   -4.9250 O   0  0  0  0  0  0  0  0  0  0  0  0
  1  2  1  1
  1  3  1  0
  4  2  1  0
  5  3  1  0
  3  6  1  1
  4  7  1  6
  4  5  1  0
  5  8  1  1
M  END
