mArh-x0173_0_B_Î±
     RDKit          3D

  8  8  0  0  0  0  0  0  0  0999 V2000
   15.0600   16.3710  -15.8580 C   0  0  0  0  0  0  0  0  0  0  0  0
   16.0080   15.6380  -15.6050 O   0  0  0  0  0  0  0  0  0  0  0  0
   13.8160   15.8680  -16.1350 N   0  0  0  0  0  0  0  0  0  0  0  0
   12.6270   16.7300  -16.2230 C   0  0  0  0  0  0  0  0  0  0  0  0
   13.5280   14.5040  -15.6580 C   0  0  0  0  0  0  0  0  0  0  0  0
   11.5200   16.0220  -16.9670 C   0  0  0  0  0  0  0  0  0  0  0  0
   12.3920   13.9150  -16.4450 C   0  0  0  0  0  0  0  0  0  0  0  0
   11.2360   14.7500  -16.3910 O   0  0  0  0  0  0  0  0  0  0  0  0
  1  2  2  0
  1  3  1  0
  3  4  1  0
  3  5  1  0
  6  4  1  0
  7  5  1  0
  8  6  1  0
  8  7  1  0
M  END
