mArh-5cms_G_3_G_α-mArh-3vfq_B_0_A_γ
     RDKit          3D

 18 18  0  0  0  0  0  0  0  0999 V2000
    0.0310   17.2700   -6.4640 O   0  0  0  0  0  0  0  0  0  0  0  0
   -1.4440   17.7570   -6.1150 P   0  0  0  0  0  0  0  0  0  0  0  0
   -1.8530   17.7490   -4.5380 O   0  0  0  0  0  0  0  0  0  0  0  0
   -2.6270   17.9540   -7.1870 O   0  0  0  0  0  0  0  0  0  0  0  0
   -1.0990   19.2190   -6.3000 O   0  0  0  0  0  0  0  0  0  0  0  0
   -0.8060   19.7140   -7.7860 P   0  0  0  0  0  0  0  0  0  0  0  0
   -1.7230   16.3750   -4.3880 C   0  0  0  0  0  0  0  0  0  0  0  0
   -1.6650   21.0050   -8.4040 O   0  0  0  0  0  0  0  0  0  0  0  0
    0.0710   18.7440   -8.8140 O   0  0  0  0  0  0  0  0  0  0  0  0
    0.4270   20.5530   -7.5390 O   0  0  0  0  0  0  0  0  0  0  0  0
   -3.0360   15.7680   -4.1070 C   0  0  0  0  0  0  0  0  0  0  0  0
   -3.1620   14.4790   -3.4610 C   0  0  1  0  0  0  0  0  0  0  0  0
   -3.1020   14.6440   -2.0820 O   0  0  0  0  0  0  0  0  0  0  0  0
   -4.3870   13.7730   -3.8610 C   0  0  1  0  0  0  0  0  0  0  0  0
   -4.1560   12.5450   -4.4480 O   0  0  0  0  0  0  0  0  0  0  0  0
   -4.2590   14.1860   -1.5150 C   0  0  0  0  0  0  0  0  0  0  0  0
   -5.1570   13.6120   -2.5700 C   0  0  2  0  0  0  0  0  0  0  0  0
   -5.5820   12.3300   -2.3200 O   0  0  0  0  0  0  0  0  0  0  0  0
  1  2  1  0
  2  3  1  0
  2  4  1  0
  2  5  1  0
  5  6  1  0
  3  7  1  0
  6  8  1  0
  6  9  1  0
  6 10  1  0
  7 11  1  0
 12 11  1  6
 12 13  1  0
 12 14  1  0
 14 15  1  1
 13 16  1  0
 14 17  1  0
 16 17  1  0
 17 18  1  1
M  CHG  1   9  -1
M  END
