
     RDKit          3D

  9 10  0  0  0  0  0  0  0  0999 V2000
   -2.4320   43.1270  -11.3590 C   0  0  0  0  0  0  0  0  0  0  0  0
   -2.8560   41.8800  -11.2230 N   0  0  0  0  0  0  0  0  0  0  0  0
   -3.6170   41.8630  -10.0930 N   0  0  0  0  0  0  0  0  0  0  0  0
   -3.6930   43.0790   -9.4790 C   0  0  0  0  0  0  0  0  0  0  0  0
   -4.3040   43.5850   -8.2800 C   0  0  0  0  0  0  0  0  0  0  0  0
   -4.1990   44.9170   -7.9310 C   0  0  0  0  0  0  0  0  0  0  0  0
   -3.4310   45.7720   -8.7250 C   0  0  0  0  0  0  0  0  0  0  0  0
   -2.8080   45.2820   -9.8770 C   0  0  0  0  0  0  0  0  0  0  0  0
   -2.9350   43.9280  -10.2580 C   0  0  0  0  0  0  0  0  0  0  0  0
  1  2  2  0
  1  9  1  0
  2  3  1  0
  9  4  2  0
  9  8  1  0
  3  4  1  0
  4  5  1  0
  5  6  2  0
  6  7  1  0
  7  8  2  0
M  END
