mArh-5cb5_Q_0_Q_α-MAC-194_0_A_α
     RDKit          3D

 27 29  0  0  0  0  0  0  0  0999 V2000
   -1.8770   21.5870   -8.3340 C   0  0  0  0  0  0  0  0  0  0  0  0
   -3.2650   21.9330   -8.8460 C   0  0  1  0  0  0  0  0  0  0  0  0
   -4.2360   20.9900   -8.3840 O   0  0  0  0  0  0  0  0  0  0  0  0
   -3.7360   23.2660   -8.3260 C   0  0  1  0  0  0  0  0  0  0  0  0
   -4.6890   23.8750   -9.2020 O   0  0  0  0  0  0  0  0  0  0  0  0
   -4.5690   21.3330   -7.0480 C   0  0  2  0  0  0  0  0  0  0  0  0
   -4.3190   22.8760   -6.9550 C   0  0  2  0  0  0  0  0  0  0  0  0
   -3.7630   20.5490   -6.0730 O   0  0  0  0  0  0  0  0  0  0  0  0
   -5.4880   23.6790   -6.7260 O   0  0  0  0  0  0  0  0  0  0  0  0
   -2.8880   19.5130   -6.6660 C   0  0  0  0  0  0  0  0  0  0  0  0
   -2.3020   18.3150   -5.7980 C   0  0  0  0  0  0  0  0  0  0  0  0
   -3.0020   16.8710   -5.8770 C   0  0  0  0  0  0  0  0  0  0  0  0
   -3.1080   15.9110   -4.6460 C   0  0  0  0  0  0  0  0  0  0  0  0
   -4.3620   14.9560   -4.4490 C   0  0  0  0  0  0  0  0  0  0  0  0
   -4.8600   14.9000   -2.9660 C   0  0  0  0  0  0  0  0  0  0  0  0
   -6.3140   14.8700   -2.5570 N   0  0  0  0  0  0  0  0  0  0  0  0
   -6.3210   14.7770   -1.2520 C   0  0  0  0  0  0  0  0  0  0  0  0
   -7.2630   14.6970   -0.2170 N   0  0  0  0  0  0  0  0  0  0  0  0
   -4.9310   14.7500   -0.7960 C   0  0  0  0  0  0  0  0  0  0  0  0
   -6.8940   14.6450    1.1140 C   0  0  0  0  0  0  0  0  0  0  0  0
   -4.6530   14.6830    0.5550 C   0  0  0  0  0  0  0  0  0  0  0  0
   -3.9290   14.7930   -1.7540 C   0  0  0  0  0  0  0  0  0  0  0  0
   -7.8970   14.6080    2.0330 N   0  0  0  0  0  0  0  0  0  0  0  0
   -5.6670   14.6430    1.5300 N   0  0  0  0  0  0  0  0  0  0  0  0
   -3.3130   14.6560    0.9430 C   0  0  0  0  0  0  0  0  0  0  0  0
   -2.6100   14.7680   -1.3710 C   0  0  0  0  0  0  0  0  0  0  0  0
   -2.2960   14.6990   -0.0150 C   0  0  0  0  0  0  0  0  0  0  0  0
  2  1  1  1
  2  3  1  0
  2  4  1  0
  4  5  1  6
  3  6  1  0
  4  7  1  0
  6  7  1  0
  6  8  1  1
  7  9  1  6
  8 10  1  0
 10 11  1  0
 11 12  1  0
 12 13  1  0
 13 14  1  0
 14 15  1  0
 15 16  1  0
 16 17  2  3
 17 18  1  0
 17 19  1  0
 18 20  1  0
 19 21  2  0
 19 22  1  0
 20 23  1  0
 20 24  2  0
 21 24  1  0
 21 25  1  0
 22 26  2  0
 25 27  2  0
 26 27  1  0
M  END
