mArh-6woj_A_0_A_γ-5CMS_0_B_β
     RDKit          3D

 16 16  0  0  0  0  0  0  0  0999 V2000
   -1.1210   12.9160   -4.5910 O   0  0  0  0  0  0  0  0  0  0  0  0
    0.0610   13.5060   -4.1660 C   0  0  2  0  0  0  0  0  0  0  0  0
   -0.1000   14.4140   -2.9420 C   0  0  0  0  0  0  0  0  0  0  0  0
    0.6390   14.4480   -5.1780 C   0  0  2  0  0  0  0  0  0  0  0  0
    1.9910   14.3670   -4.8850 O   0  0  0  0  0  0  0  0  0  0  0  0
    0.3210   15.6910   -3.3680 O   0  0  0  0  0  0  0  0  0  0  0  0
   -0.0410   15.6830   -4.6990 C   0  0  1  0  0  0  0  0  0  0  0  0
    0.0870   17.0650   -5.4130 C   0  0  0  0  0  0  0  0  0  0  0  0
   -1.4970   17.8560   -5.6520 P   0  0  0  0  0  0  0  0  0  0  0  0
   -1.2970   19.0630   -6.5990 O   0  0  0  0  0  0  0  0  0  0  0  0
   -2.6080   17.3020   -6.8170 O   0  0  0  0  0  0  0  0  0  0  0  0
   -2.0510   18.9270   -4.6150 O   0  0  0  0  0  0  0  0  0  0  0  0
   -0.1830   19.4170   -7.6780 P   0  0  0  0  0  0  0  0  0  0  0  0
   -1.1910   20.0180   -8.6460 O   0  0  0  0  0  0  0  0  0  0  0  0
    0.6140   20.8910   -7.7010 O   0  0  0  0  0  0  0  0  0  0  0  0
    0.2020   18.3320   -8.8270 O   0  0  0  0  0  0  0  0  0  0  0  0
  2  1  1  6
  2  3  1  0
  2  4  1  0
  4  5  1  1
  3  6  1  0
  4  7  1  0
  6  7  1  0
  7  8  1  6
  8  9  1  0
  9 10  1  0
  9 11  1  0
  9 12  1  0
 10 13  1  0
 13 14  1  0
 13 15  1  0
 13 16  1  0
M  CHG  2  11  -1  15  -1
M  END
