mArh-5cb5_D_0_D_Î²
     RDKit          3D

  9  8  0  0  0  0  0  0  0  0999 V2000
   -1.1860   20.8940   -9.0780 O   0  0  0  0  0  0  0  0  0  0  0  0
   -0.3600   19.6710   -8.3770 P   0  0  2  0  0  0  0  0  0  0  0  0
   -0.9900   19.5060   -6.8640 O   0  0  0  0  0  0  0  0  0  0  0  0
    1.0810   20.0950   -8.0870 O   0  0  0  0  0  0  0  0  0  0  0  0
   -0.4500   18.4010   -9.2570 O   0  0  0  0  0  0  0  0  0  0  0  0
   -2.1520   18.4460   -6.3810 P   0  0  2  0  0  0  0  0  0  0  0  0
   -1.2470   17.2190   -5.9040 O   0  0  0  0  0  0  0  0  0  0  0  0
   -2.9600   17.8140   -7.5340 O   0  0  0  0  0  0  0  0  0  0  0  0
   -2.9950   19.1840   -5.2900 O   0  0  0  0  0  0  0  0  0  0  0  0
  2  1  1  6
  3  2  1  0
  2  4  2  0
  2  5  1  0
  6  3  1  0
  6  7  1  1
  6  8  2  0
  6  9  1  0
M  END
