mArh-5cms_R_17_R_Î³
     RDKit          3D

  8  8  0  0  0  0  0  0  0  0999 V2000
    0.0060   14.6330   -3.1740 C   0  0  0  0  0  0  0  0  0  0  0  0
    0.2770   15.9160   -3.6850 O   0  0  0  0  0  0  0  0  0  0  0  0
   -0.2550   13.6620   -4.3110 C   0  0  1  0  0  0  0  0  0  0  0  0
    0.8660   15.7500   -4.9580 C   0  0  1  0  0  0  0  0  0  0  0  0
    0.5500   14.3100   -5.4380 C   0  0  1  0  0  0  0  0  0  0  0  0
    0.1310   12.3340   -3.8700 O   0  0  0  0  0  0  0  0  0  0  0  0
    0.3510   16.9440   -5.7550 C   0  0  0  0  0  0  0  0  0  0  0  0
    1.7560   13.5690   -5.7000 O   0  0  0  0  0  0  0  0  0  0  0  0
  1  2  1  1
  1  3  1  0
  4  2  1  0
  5  3  1  0
  3  6  1  1
  4  7  1  6
  4  5  1  0
  5  8  1  1
M  END
