mArh-6woj_B_0_B_Î³
     RDKit          3D

  8  8  0  0  0  0  0  0  0  0999 V2000
   -0.3320   14.2910   -3.0310 C   0  0  0  0  0  0  0  0  0  0  0  0
    0.3290   15.5320   -3.1080 O   0  0  0  0  0  0  0  0  0  0  0  0
   -0.6570   13.9580   -4.4740 C   0  0  1  0  0  0  0  0  0  0  0  0
    1.0430   15.6300   -4.3640 C   0  0  1  0  0  0  0  0  0  0  0  0
    0.6440   14.3760   -5.1520 C   0  0  1  0  0  0  0  0  0  0  0  0
   -0.8980   12.5910   -4.6950 O   0  0  0  0  0  0  0  0  0  0  0  0
    0.7250   16.9510   -5.0290 C   0  0  0  0  0  0  0  0  0  0  0  0
    1.5660   13.3240   -4.9320 O   0  0  0  0  0  0  0  0  0  0  0  0
  1  2  1  1
  1  3  1  0
  4  2  1  0
  5  3  1  0
  3  6  1  1
  4  7  1  6
  4  5  1  0
  5  8  1  1
M  END
