mArh-4iqy_A_0_A_Î±
     RDKit          3D

  9  9  0  0  0  0  0  0  0  0999 V2000
   -2.0600   21.3790   -8.5260 C   0  0  0  0  0  0  0  0  0  0  0  0
   -3.5470   21.5630   -8.7790 C   0  0  1  0  0  0  0  0  0  0  0  0
   -4.2760   20.7140   -7.9320 O   0  0  0  0  0  0  0  0  0  0  0  0
   -3.9650   22.9680   -8.4740 C   0  0  2  0  0  0  0  0  0  0  0  0
   -5.1440   21.4780   -7.1480 C   0  0  1  0  0  0  0  0  0  0  0  0
   -4.6320   22.8780   -7.1600 C   0  0  2  0  0  0  0  0  0  0  0  0
   -4.8580   23.4570   -9.4160 O   0  0  0  0  0  0  0  0  0  0  0  0
   -6.4390   21.4020   -7.6460 O   0  0  0  0  0  0  0  0  0  0  0  0
   -5.6160   23.8440   -6.9510 O   0  0  0  0  0  0  0  0  0  0  0  0
  2  1  1  1
  3  2  1  0
  4  2  1  0
  5  3  1  0
  6  4  1  0
  4  7  1  6
  5  8  1  6
  5  6  1  0
  6  9  1  6
M  END
