mArh-x0142_0_A_Î±
     RDKit          3D

  9  9  0  0  0  0  0  0  0  0999 V2000
   14.8200    6.5110   10.8330 C   0  0  0  0  0  0  0  0  0  0  0  0
   14.9170    5.1490   10.7890 N   0  0  0  0  0  0  0  0  0  0  0  0
   14.8180    7.2390    9.8430 O   0  0  0  0  0  0  0  0  0  0  0  0
   14.9500    4.3300    9.6500 C   0  0  0  0  0  0  0  0  0  0  0  0
   14.7140    2.9750    9.8220 C   0  0  0  0  0  0  0  0  0  0  0  0
   15.1790    4.8190    8.3730 C   0  0  0  0  0  0  0  0  0  0  0  0
   14.6820    2.1730    8.6990 C   0  0  0  0  0  0  0  0  0  0  0  0
   15.1310    3.9310    7.3180 C   0  0  0  0  0  0  0  0  0  0  0  0
   14.8750    2.6250    7.4560 N   0  0  0  0  0  0  0  0  0  0  0  0
  1  2  1  0
  1  3  2  0
  2  4  1  0
  4  5  2  0
  4  6  1  0
  7  5  1  0
  8  6  2  0
  9  7  2  0
  9  8  1  0
M  END
