mArh-x0711_0_A_α-mArh-x0910_2_B_α
     RDKit          3D

 26 27  0  0  0  0  0  0  0  0999 V2000
   -1.5820   15.0610   -2.5270 N   0  0  0  0  0  0  0  0  0  0  0  0
   -0.6150   13.8170   -3.1010 S   0  0  0  0  0  0  0  0  0  0  0  0
   -1.7520   12.7540   -3.9630 C   0  0  0  0  0  0  0  0  0  0  0  0
   -2.8330   14.9400   -1.8430 C   0  0  0  0  0  0  0  0  0  0  0  0
    0.3070   14.3750   -4.0650 O   0  0  0  0  0  0  0  0  0  0  0  0
   -0.1260   13.1190   -1.9310 O   0  0  0  0  0  0  0  0  0  0  0  0
   -4.0390   15.1430   -2.5120 C   0  0  0  0  0  0  0  0  0  0  0  0
   -2.8460   14.6310   -0.4800 C   0  0  0  0  0  0  0  0  0  0  0  0
   -5.2590   15.0460   -1.8320 C   0  0  0  0  0  0  0  0  0  0  0  0
   -4.0640   14.5320    0.2040 C   0  0  0  0  0  0  0  0  0  0  0  0
   -5.2860   14.7400   -0.4640 C   0  0  0  0  0  0  0  0  0  0  0  0
   -6.5740   14.6210    0.3330 C   0  0  0  0  0  0  0  0  0  0  0  0
   -6.4440   14.1480    1.6150 N   0  0  0  0  0  0  0  0  0  0  0  0
   -7.7270   14.9550   -0.1740 N   0  0  0  0  0  0  0  0  0  0  0  0
   -8.0410   15.4910   -1.5000 C   0  0  0  0  0  0  0  0  0  0  0  0
   -8.5270   16.9410   -1.3780 C   0  0  0  0  0  0  0  0  0  0  0  0
   -9.9770   17.1550   -0.9540 C   0  0  0  0  0  0  0  0  0  0  0  0
  -10.6360   18.0350   -2.0170 C   0  0  0  0  0  0  0  0  0  0  0  0
  -11.5850   19.0950   -1.4540 C   0  0  0  0  0  0  0  0  0  0  0  0
  -12.3530   19.8140   -2.5750 C   0  0  0  0  0  0  0  0  0  0  0  0
  -11.8420   21.1480   -2.8670 N   0  0  0  0  0  0  0  0  0  0  0  0
  -12.2890   22.2010   -2.1490 C   0  0  0  0  0  0  0  0  0  0  0  0
  -11.7750   23.4530   -2.3350 N   0  0  0  0  0  0  0  0  0  0  0  0
  -13.2150   22.2540   -1.2160 N   0  0  0  0  0  0  0  0  0  0  0  0
  -12.3590   24.3400   -1.5200 N   0  0  0  0  0  0  0  0  0  0  0  0
  -13.2230   23.5690   -0.8600 C   0  0  0  0  0  0  0  0  0  0  0  0
  2  1  1  0
  2  3  1  0
  1  4  1  0
  2  5  2  0
  2  6  2  0
  4  7  2  0
  4  8  1  0
  7  9  1  0
  8 10  2  0
  9 11  2  0
 10 11  1  0
 11 12  1  0
 12 13  1  0
 12 14  2  3
 14 15  1  0
 15 16  1  0
 16 17  1  0
 17 18  1  0
 18 19  1  0
 19 20  1  0
 20 21  1  0
 21 22  1  0
 22 23  1  0
 22 24  2  0
 23 25  1  0
 24 26  1  0
 25 26  2  0
M  END
