mArh-5cb5_H_0_H_Î²
     RDKit          3D

  9  8  0  0  0  0  0  0  0  0999 V2000
   -1.3190   20.6700   -9.0790 O   0  0  0  0  0  0  0  0  0  0  0  0
   -0.3640   19.7180   -8.2030 P   0  0  2  0  0  0  0  0  0  0  0  0
   -1.2080   19.5220   -6.8450 O   0  0  0  0  0  0  0  0  0  0  0  0
    0.9500   20.4490   -7.8280 O   0  0  0  0  0  0  0  0  0  0  0  0
   -0.1820   18.4640   -9.0740 O   0  0  0  0  0  0  0  0  0  0  0  0
   -1.9700   18.1580   -6.4920 P   0  0  2  0  0  0  0  0  0  0  0  0
   -0.7750   17.0810   -6.3090 O   0  0  0  0  0  0  0  0  0  0  0  0
   -2.8120   17.8050   -7.7230 O   0  0  0  0  0  0  0  0  0  0  0  0
   -2.6520   18.3490   -5.0990 O   0  0  0  0  0  0  0  0  0  0  0  0
  2  1  1  6
  3  2  1  0
  2  4  2  0
  2  5  1  0
  6  3  1  0
  6  7  1  1
  6  8  2  0
  6  9  1  0
M  END
