mArh-5l9k_A_0_A_α-2FAV_0_B_α
     RDKit          3D

  9  9  0  0  0  0  0  0  0  0999 V2000
   -2.4470   21.7710   -8.3710 C   0  0  0  0  0  0  0  0  0  0  0  0
   -3.9020   21.9640   -8.7560 C   0  0  1  0  0  0  0  0  0  0  0  0
   -4.6910   21.0600   -7.9650 O   0  0  0  0  0  0  0  0  0  0  0  0
   -4.3930   23.3930   -8.5220 C   0  0  1  0  0  0  0  0  0  0  0  0
   -4.7560   24.0560   -9.7280 O   0  0  0  0  0  0  0  0  0  0  0  0
   -5.7790   21.7570   -7.3930 C   0  0  1  0  0  0  0  0  0  0  0  0
   -5.6340   23.2610   -7.6570 C   0  0  1  0  0  0  0  0  0  0  0  0
   -6.9450   21.2750   -8.0640 O   0  0  0  0  0  0  0  0  0  0  0  0
   -5.5670   24.0640   -6.4770 O   0  0  0  0  0  0  0  0  0  0  0  0
  2  1  1  1
  2  3  1  0
  2  4  1  0
  4  5  1  6
  3  6  1  0
  4  7  1  0
  6  7  1  0
  6  8  1  6
  7  9  1  1
M  END
