mArh-5l9k_A_0_A_α-mArh-x0926_0_A_α
     RDKit          3D

 23 24  0  0  0  0  0  0  0  0999 V2000
   -1.6890   21.5780   -8.4210 C   0  0  0  0  0  0  0  0  0  0  0  0
   -2.9000   22.0370   -7.6630 C   0  0  2  0  0  0  0  0  0  0  0  0
   -4.0320   21.2790   -8.0360 O   0  0  0  0  0  0  0  0  0  0  0  0
   -3.4630   23.4620   -7.7690 C   0  0  1  0  0  0  0  0  0  0  0  0
   -3.9460   23.7970   -9.0810 O   0  0  0  0  0  0  0  0  0  0  0  0
   -4.7340   21.6680   -6.8950 C   0  0  1  0  0  0  0  0  0  0  0  0
   -4.6610   23.2270   -6.8500 C   0  0  2  0  0  0  0  0  0  0  0  0
   -6.0620   21.1910   -6.6880 O   0  0  0  0  0  0  0  0  0  0  0  0
   -5.8980   23.8160   -7.3090 O   0  0  0  0  0  0  0  0  0  0  0  0
   -5.9480   21.6140   -5.4000 C   0  0  0  0  0  0  0  0  0  0  0  0
   -6.7160   21.1450   -4.0610 C   0  0  0  0  0  0  0  0  0  0  0  0
   -8.2780   19.4410   -2.8770 C   0  0  0  0  0  0  0  0  0  0  0  0
   -8.7150   18.3210   -1.6700 C   0  0  0  0  0  0  0  0  0  0  0  0
   -9.3310   16.9650   -2.0110 C   0  0  0  0  0  0  0  0  0  0  0  0
   -8.2740   15.8450   -2.0140 C   0  0  0  0  0  0  0  0  0  0  0  0
   -8.3510   14.9190   -0.8020 C   0  0  0  0  0  0  0  0  0  0  0  0
   -7.0980   14.8860   -0.0380 N   0  0  0  0  0  0  0  0  0  0  0  0
   -5.9140   15.0100   -0.5620 C   0  0  0  0  0  0  0  0  0  0  0  0
   -4.7450   14.9490    0.4570 C   0  0  0  0  0  0  0  0  0  0  0  0
   -5.5740   15.1880   -1.8980 N   0  0  0  0  0  0  0  0  0  0  0  0
   -4.3060   14.9130   -2.3480 N   0  0  0  0  0  0  0  0  0  0  0  0
   -3.3900   14.7820   -0.1630 C   0  0  0  0  0  0  0  0  0  0  0  0
   -3.2450   14.7730   -1.4920 C   0  0  0  0  0  0  0  0  0  0  0  0
  2  1  1  6
  2  3  1  0
  2  4  1  0
  4  5  1  6
  3  6  1  0
  4  7  1  0
  6  7  1  0
  6  8  1  6
  7  9  1  6
  8 10  1  0
 10 11  1  0
 11 12  1  0
 12 13  1  0
 13 14  1  0
 14 15  1  0
 15 16  1  0
 16 17  1  0
 17 18  2  3
 18 19  1  0
 18 20  1  0
 20 21  1  0
 19 22  1  0
 21 23  1  0
 22 23  2  0
M  END
