mArh-EU0716_0_A_α-mArh-3vfq_B_0_A_β
     RDKit          3D

 26 26  0  0  0  0  0  0  0  0999 V2000
  -10.2790   15.3140    0.5720 C   0  0  0  0  0  0  0  0  0  0  0  0
   -9.1560   14.2730    0.6730 C   0  0  0  0  0  0  0  0  0  0  0  0
   -7.9530   14.9570    1.3120 C   0  0  1  0  0  0  0  0  0  0  0  0
   -7.5970   14.5820    2.7530 C   0  0  2  0  0  0  0  0  0  0  0  0
   -6.5700   14.8730    0.5320 C   0  0  2  0  0  0  0  0  0  0  0  0
   -8.4010   15.2280    3.9040 C   0  0  0  0  0  0  0  0  0  0  0  0
   -6.3680   14.0760   -0.7220 C   0  0  0  0  0  0  0  0  0  0  0  0
   -6.2010   15.0110    2.8760 N   0  0  0  0  0  0  0  0  0  0  0  0
   -5.4580   14.8900    1.6110 C   0  0  1  0  0  0  0  0  0  0  0  0
   -7.7940   15.0810    5.1320 N   0  0  0  0  0  0  0  0  0  0  0  0
   -9.4720   15.8230    3.7620 O   0  0  0  0  0  0  0  0  0  0  0  0
   -7.3480   13.7560   -1.3800 O   0  0  0  0  0  0  0  0  0  0  0  0
   -4.3790   13.8090    1.6570 C   0  0  0  0  0  0  0  0  0  0  0  0
   -4.9540   13.7640   -1.1860 C   0  0  0  0  0  0  0  0  0  0  0  0
   -8.4840   15.3140    6.3700 C   0  0  0  0  0  0  0  0  0  0  0  0
   -4.8730   13.6710   -2.7080 C   0  0  0  0  0  0  0  0  0  0  0  0
   -4.0680   14.8080   -3.3290 C   0  0  0  0  0  0  0  0  0  0  0  0
   -3.9300   14.5710   -4.7220 O   0  0  0  0  0  0  0  0  0  0  0  0
   -3.9680   15.7090   -5.8430 P   0  0  2  0  0  0  0  0  0  0  0  0
   -2.9890   16.8860   -5.2570 O   0  0  0  0  0  0  0  0  0  0  0  0
   -5.3360   16.0590   -6.3160 O   0  0  0  0  0  0  0  0  0  0  0  0
   -3.3080   15.0420   -7.0930 O   0  0  0  0  0  0  0  0  0  0  0  0
   -2.1820   17.8660   -6.1920 P   0  0  0  0  0  0  0  0  0  0  0  0
   -2.9410   19.2480   -6.4770 O   0  0  0  0  0  0  0  0  0  0  0  0
   -0.7150   17.9710   -6.1830 O   0  0  0  0  0  0  0  0  0  0  0  0
   -2.7680   17.1030   -7.3630 O   0  0  0  0  0  0  0  0  0  0  0  0
  1  2  1  0
  3  2  1  6
  3  4  1  0
  3  5  1  0
  4  6  1  1
  5  7  1  1
  4  8  1  0
  5  9  1  0
  8  9  1  0
  6 10  1  0
  6 11  2  0
  7 12  2  0
  9 13  1  1
  7 14  1  0
 10 15  1  0
 14 16  1  0
 16 17  1  0
 17 18  1  0
 18 19  1  0
 19 20  1  0
 19 21  2  0
 19 22  1  6
 20 23  1  0
 23 24  1  0
 23 25  2  0
 23 26  1  0
M  END
