mArh-5cb5_K_0_K_α-5CMS_0_B_β
     RDKit          3D

 17 17  0  0  0  0  0  0  0  0999 V2000
   -1.9890   21.4660   -7.3850 C   0  0  0  0  0  0  0  0  0  0  0  0
   -0.8240   20.1880   -7.7550 P   0  0  0  0  0  0  0  0  0  0  0  0
   -1.7300   18.9910   -7.4930 O   0  0  0  0  0  0  0  0  0  0  0  0
   -3.0510   21.8750   -8.4290 C   0  0  1  0  0  0  0  0  0  0  0  0
   -0.4690   19.6900   -9.1800 O   0  0  0  0  0  0  0  0  0  0  0  0
    0.1220   19.4010   -6.5840 O   0  0  0  0  0  0  0  0  0  0  0  0
   -4.2680   21.2320   -8.2850 O   0  0  0  0  0  0  0  0  0  0  0  0
   -3.4970   23.3380   -8.2860 C   0  0  1  0  0  0  0  0  0  0  0  0
   -4.3060   23.7440   -9.3450 O   0  0  0  0  0  0  0  0  0  0  0  0
   -1.6070   18.1800   -6.0740 P   0  0  0  0  0  0  0  0  0  0  0  0
   -5.0060   21.8710   -7.3010 C   0  0  2  0  0  0  0  0  0  0  0  0
   -4.3840   23.1950   -7.0480 C   0  0  2  0  0  0  0  0  0  0  0  0
   -5.0700   21.2170   -6.0750 O   0  0  0  0  0  0  0  0  0  0  0  0
   -5.3870   24.1930   -7.0530 O   0  0  0  0  0  0  0  0  0  0  0  0
   -0.5740   16.8760   -5.8640 O   0  0  0  0  0  0  0  0  0  0  0  0
   -2.7000   17.2520   -6.5950 O   0  0  0  0  0  0  0  0  0  0  0  0
   -2.2910   18.7680   -4.7760 O   0  0  0  0  0  0  0  0  0  0  0  0
  1  2  1  0
  2  3  1  0
  4  1  1  1
  2  5  1  0
  2  6  1  0
  4  7  1  0
  4  8  1  0
  8  9  1  6
  3 10  1  0
  7 11  1  0
  8 12  1  0
 11 12  1  0
 11 13  1  1
 12 14  1  6
 10 15  1  0
 10 16  1  0
 10 17  1  0
M  CHG  2   5  -1  16  -1
M  END
