
     RDKit          3D

 17 18  0  0  0  0  0  0  0  0999 V2000
   -0.1550    7.7910   -6.4950 C   0  0  0  0  0  0  0  0  0  0  0  0
   -0.6870    9.3400   -8.2380 N   0  0  0  0  0  0  0  0  0  0  0  0
    2.6860    8.4470  -10.7690 O   0  0  0  0  0  0  0  0  0  0  0  0
   -1.2450    8.5270   -7.1720 C   0  0  0  0  0  0  0  0  0  0  0  0
   -1.2890   10.4930   -8.5990 N   0  0  0  0  0  0  0  0  0  0  0  0
   -0.5110   11.0240   -9.5290 C   0  0  0  0  0  0  0  0  0  0  0  0
    1.6360   10.4590  -10.6790 N   0  0  0  0  0  0  0  0  0  0  0  0
    0.5780   10.1930   -9.7950 C   0  0  0  0  0  0  0  0  0  0  0  0
    2.4720    9.5480  -11.2500 C   0  0  0  0  0  0  0  0  0  0  0  0
    3.1310    9.9750  -12.5130 C   0  0  0  0  0  0  0  0  0  0  0  0
    2.7600   11.1600  -13.1410 C   0  0  0  0  0  0  0  0  0  0  0  0
    3.4010   11.5830  -14.2920 C   0  0  0  0  0  0  0  0  0  0  0  0
    4.1730    9.2260  -13.0470 C   0  0  0  0  0  0  0  0  0  0  0  0
    4.8310    9.6480  -14.1890 C   0  0  0  0  0  0  0  0  0  0  0  0
    4.4230   10.8140  -14.7760 C   0  0  0  0  0  0  0  0  0  0  0  0
    0.4650    9.1500   -8.9150 C   0  0  0  0  0  0  0  0  0  0  0  0
    5.0700   11.2340  -15.8980 F   0  0  0  0  0  0  0  0  0  0  0  0
  1  4  1  0
  4  2  1  0
  2  5  1  0
  2 16  1  0
  5  6  2  0
 16  8  2  0
  3  9  2  0
  9  7  1  0
  9 10  1  0
  6  8  1  0
  8  7  1  0
 10 11  2  0
 10 13  1  0
 11 12  1  0
 13 14  2  0
 12 15  2  0
 15 14  1  0
 15 17  1  0
M  END
