mArh-5cb5_J_2_J_α-mArh-x0849_0_A_α
     RDKit          3D

 25 27  0  0  0  0  0  0  0  0999 V2000
   -1.9750   21.6970   -8.4180 C   0  0  0  0  0  0  0  0  0  0  0  0
   -3.3420   22.0720   -8.9760 C   0  0  1  0  0  0  0  0  0  0  0  0
   -4.2780   21.1590   -8.4420 O   0  0  0  0  0  0  0  0  0  0  0  0
   -3.8520   23.4630   -8.5620 C   0  0  1  0  0  0  0  0  0  0  0  0
   -4.3870   24.1300   -9.7090 O   0  0  0  0  0  0  0  0  0  0  0  0
   -4.6120   21.7420   -7.2080 C   0  0  2  0  0  0  0  0  0  0  0  0
   -5.0310   23.1330   -7.6570 C   0  0  1  0  0  0  0  0  0  0  0  0
   -3.4350   21.7280   -6.3880 O   0  0  0  0  0  0  0  0  0  0  0  0
   -5.2510   24.0530   -6.5760 O   0  0  0  0  0  0  0  0  0  0  0  0
   -3.2480   20.4340   -5.8050 C   0  0  0  0  0  0  0  0  0  0  0  0
   -2.0010   19.5800   -6.2130 C   0  0  0  0  0  0  0  0  0  0  0  0
   -1.9980   18.0320   -5.8460 C   0  0  0  0  0  0  0  0  0  0  0  0
   -1.3580   17.6890   -4.4590 C   0  0  0  0  0  0  0  0  0  0  0  0
   -1.7530   16.3500   -3.6620 C   0  0  0  0  0  0  0  0  0  0  0  0
   -2.9440   16.3230   -2.7810 O   0  0  0  0  0  0  0  0  0  0  0  0
   -3.1360   15.8620   -1.4170 C   0  0  0  0  0  0  0  0  0  0  0  0
   -2.0600   15.4270   -0.5630 C   0  0  0  0  0  0  0  0  0  0  0  0
   -4.4130   15.8230   -0.8400 C   0  0  0  0  0  0  0  0  0  0  0  0
   -2.3590   15.0090    0.7750 C   0  0  0  0  0  0  0  0  0  0  0  0
   -4.5730   15.3950    0.4690 C   0  0  0  0  0  0  0  0  0  0  0  0
   -0.7070   15.3790   -0.9380 C   0  0  0  0  0  0  0  0  0  0  0  0
   -3.5810   15.0010    1.2600 N   0  0  0  0  0  0  0  0  0  0  0  0
   -1.4350   14.5980    1.6320 N   0  0  0  0  0  0  0  0  0  0  0  0
    0.2520   14.9410   -0.0310 C   0  0  0  0  0  0  0  0  0  0  0  0
   -0.1690   14.5680    1.2260 C   0  0  0  0  0  0  0  0  0  0  0  0
  2  1  1  1
  2  3  1  0
  2  4  1  0
  4  5  1  6
  3  6  1  0
  4  7  1  0
  6  7  1  0
  6  8  1  1
  7  9  1  1
  8 10  1  0
 10 11  1  0
 11 12  1  0
 12 13  1  0
 13 14  1  0
 14 15  1  0
 15 16  1  0
 16 17  1  0
 16 18  2  0
 17 19  2  0
 18 20  1  0
 17 21  1  0
 19 22  1  0
 20 22  2  0
 19 23  1  0
 21 24  2  0
 23 25  2  0
 24 25  1  0
M  END
