mArh-4gvw_0_A_α-5CMS_0_R_α
     RDKit          3D

 20 21  0  0  0  0  0  0  0  0999 V2000
   -0.2270   19.1300   -6.2200 O   0  0  0  0  0  0  0  0  0  0  0  0
   -0.0910   19.7260   -7.5470 S   0  0  0  0  0  0  0  0  0  0  0  0
    0.8430   20.8500   -7.6090 O   0  0  0  0  0  0  0  0  0  0  0  0
    0.0920   18.7140   -8.6270 O   0  0  0  0  0  0  0  0  0  0  0  0
   -1.8070   20.4660   -7.8560 C   0  0  1  0  0  0  0  0  0  0  0  0
   -2.4550   21.1900   -6.6700 C   0  0  0  0  0  0  0  0  0  0  0  0
   -1.8870   21.3940   -9.0220 N   0  0  0  0  0  0  0  0  0  0  0  0
   -3.9230   21.3890   -6.8060 N   0  0  0  0  0  0  0  0  0  0  0  0
   -1.1270   22.4610   -8.4100 C   0  0  0  0  0  0  0  0  0  0  0  0
   -3.2000   21.9410   -9.4060 C   0  0  2  0  0  0  0  0  0  0  0  0
   -3.4790   21.7190  -10.7380 O   0  0  0  0  0  0  0  0  0  0  0  0
   -4.4350   22.2680   -5.8060 C   0  0  0  0  0  0  0  0  0  0  0  0
   -4.3760   21.9260   -8.0990 C   0  0  0  0  0  0  0  0  0  0  0  0
   -3.1540   23.4680   -9.3010 C   0  0  2  0  0  0  0  0  0  0  0  0
   -1.9920   23.6950   -8.3670 C   0  0  2  0  0  0  0  0  0  0  0  0
   -1.2130   24.7260   -8.9100 O   0  0  0  0  0  0  0  0  0  0  0  0
   -4.3870   24.0690   -8.9080 O   0  0  0  0  0  0  0  0  0  0  0  0
   -4.7230   23.6770   -6.3730 C   0  0  0  0  0  0  0  0  0  0  0  0
   -5.8060   22.5000   -8.0510 C   0  0  0  0  0  0  0  0  0  0  0  0
   -5.8840   23.6510   -7.1950 O   0  0  0  0  0  0  0  0  0  0  0  0
  1  2  2  0
  2  3  2  0
  2  4  1  0
  2  5  1  0
  5  6  1  1
  5  7  1  0
  6  8  1  0
  7  9  1  0
  7 10  1  0
 10 11  1  6
  8 12  1  0
  8 13  1  0
 10 14  1  0
  9 15  1  0
 14 15  1  0
 15 16  1  6
 14 17  1  1
 12 18  1  0
 13 19  1  0
 18 20  1  0
 19 20  1  0
M  CHG  1   4  -1
M  END
