mArh-5cb5_E_0_E_Î±
     RDKit          3D

  9  9  0  0  0  0  0  0  0  0999 V2000
   -1.7850   21.7010   -8.7600 C   0  0  0  0  0  0  0  0  0  0  0  0
   -3.2480   21.9100   -9.1950 C   0  0  1  0  0  0  0  0  0  0  0  0
   -4.0740   21.0100   -8.4000 O   0  0  0  0  0  0  0  0  0  0  0  0
   -3.8040   23.3070   -8.9200 C   0  0  2  0  0  0  0  0  0  0  0  0
   -5.2180   21.7010   -7.9030 C   0  0  2  0  0  0  0  0  0  0  0  0
   -4.7690   23.1480   -7.7590 C   0  0  2  0  0  0  0  0  0  0  0  0
   -4.5610   23.7470  -10.0480 O   0  0  0  0  0  0  0  0  0  0  0  0
   -5.6230   21.0660   -6.6970 O   0  0  0  0  0  0  0  0  0  0  0  0
   -5.8710   24.0300   -7.9980 O   0  0  0  0  0  0  0  0  0  0  0  0
  2  1  1  1
  3  2  1  0
  4  2  1  0
  5  3  1  0
  6  4  1  0
  4  7  1  6
  5  8  1  1
  5  6  1  0
  6  9  1  6
M  END
