mArh-x0805_0_A_Î±
     RDKit          3D

  8  8  0  0  0  0  0  0  0  0999 V2000
   -1.7200   14.0210   -3.1700 C   0  0  0  0  0  0  0  0  0  0  0  0
   -1.9380   14.8200   -2.0490 C   0  0  0  0  0  0  0  0  0  0  0  0
   -2.6830   13.0880   -3.5230 C   0  0  0  0  0  0  0  0  0  0  0  0
   -3.1110   14.6970   -1.3160 C   0  0  0  0  0  0  0  0  0  0  0  0
   -3.8520   12.9660   -2.7890 C   0  0  0  0  0  0  0  0  0  0  0  0
   -3.1810   15.5290   -0.2240 O   0  0  0  0  0  0  0  0  0  0  0  0
   -4.0820   13.7800   -1.6880 C   0  0  0  0  0  0  0  0  0  0  0  0
   -4.3450   15.4970    0.6000 C   0  0  0  0  0  0  0  0  0  0  0  0
  2  1  2  0
  1  3  1  0
  4  2  1  0
  3  5  2  0
  6  4  1  0
  4  7  2  0
  7  5  1  0
  8  6  1  0
M  END
