
     RDKit          3D

 15 15  0  0  0  0  0  0  0  0999 V2000
    5.8130   38.2570   -4.0540 N   0  0  0  0  0  0  0  0  0  0  0  0
    6.4950   36.3970   -7.9680 O   0  0  0  0  0  0  0  0  0  0  0  0
    6.2140   39.6650   -3.6980 C   0  0  0  0  0  0  0  0  0  0  0  0
    6.9170   35.0360   -5.9700 O   0  0  0  0  0  0  0  0  0  0  0  0
    5.4430   40.3900   -2.5620 C   0  0  0  0  0  0  0  0  0  0  0  0
    4.9560   34.6800   -7.4020 O   0  0  0  0  0  0  0  0  0  0  0  0
    4.2380   39.6890   -2.0350 N   0  0  0  0  0  0  0  0  0  0  0  0
    4.4890   38.2540   -1.8700 C   0  0  0  0  0  0  0  0  0  0  0  0
    4.8350   37.5500   -3.1720 C   0  0  0  0  0  0  0  0  0  0  0  0
    3.8240   40.1520   -0.6720 C   0  0  0  0  0  0  0  0  0  0  0  0
    4.0390   41.6370   -0.3940 C   0  0  0  0  0  0  0  0  0  0  0  0
    2.9150   42.4060   -0.8420 O   0  0  0  0  0  0  0  0  0  0  0  0
    5.5090   38.0980   -5.5160 C   0  0  0  0  0  0  0  0  0  0  0  0
    4.9080   36.7090   -5.8660 C   0  0  0  0  0  0  0  0  0  0  0  0
    5.8650   35.6800   -6.8310 S   0  0  2  0  0  0  0  0  0  0  0  0
  1  3  1  0
  1  9  1  0
  1 13  1  0
  3  5  1  0
  9  8  1  0
 13 14  1  0
  2 15  2  0
 15  4  2  0
 15  6  1  6
 15 14  1  0
  5  7  1  0
  7  8  1  0
  7 10  1  0
 10 11  1  0
 11 12  1  0
M  END
