mArh-x0685_0_A_α-3Q6Z_0_A_α
     RDKit          3D

 26 27  0  0  0  0  0  0  0  0999 V2000
   -5.7460   14.6180    2.8470 N   0  0  0  0  0  0  0  0  0  0  0  0
   -7.2010   14.7530    2.9590 C   0  0  0  0  0  0  0  0  0  0  0  0
   -7.7950   13.3780    3.2050 C   0  0  0  0  0  0  0  0  0  0  0  0
   -5.2360   14.7870    1.5440 C   0  0  0  0  0  0  0  0  0  0  0  0
   -3.8570   14.9190    1.4080 C   0  0  0  0  0  0  0  0  0  0  0  0
   -6.0500   14.8230    0.4660 N   0  0  0  0  0  0  0  0  0  0  0  0
   -3.2980   15.0960    0.1430 C   0  0  0  0  0  0  0  0  0  0  0  0
   -5.4870   14.9990   -0.7590 C   0  0  0  0  0  0  0  0  0  0  0  0
   -4.1260   15.1410   -0.9740 C   0  0  0  0  0  0  0  0  0  0  0  0
   -3.5850   15.3300   -2.2900 C   0  0  0  0  0  0  0  0  0  0  0  0
   -3.1010   15.5410   -3.3810 C   0  0  0  0  0  0  0  0  0  0  0  0
   -2.4880   15.8520   -4.6950 C   0  0  0  0  0  0  0  0  0  0  0  0
   -1.4400   16.9850   -4.6290 C   0  0  0  0  0  0  0  0  0  0  0  0
   -0.7850   17.3050   -5.9680 C   0  0  0  0  0  0  0  0  0  0  0  0
   -0.1010   18.6560   -6.0020 C   0  0  0  0  0  0  0  0  0  0  0  0
   -0.4900   19.5090   -7.2220 C   0  0  0  0  0  0  0  0  0  0  0  0
   -1.7660   20.3210   -6.9730 C   0  0  0  0  0  0  0  0  0  0  0  0
   -1.9680   21.5390   -7.8920 C   0  0  0  0  0  0  0  0  0  0  0  0
   -3.4260   21.7670   -8.3170 C   0  0  2  0  0  0  0  0  0  0  0  0
   -3.9400   23.1880   -8.0100 C   0  0  1  0  0  0  0  0  0  0  0  0
   -4.2650   20.8290   -7.6190 O   0  0  0  0  0  0  0  0  0  0  0  0
   -4.2290   23.9200   -9.1940 O   0  0  0  0  0  0  0  0  0  0  0  0
   -5.2580   22.9960   -7.2900 C   0  0  1  0  0  0  0  0  0  0  0  0
   -5.4330   21.4870   -7.1470 C   0  0  1  0  0  0  0  0  0  0  0  0
   -5.3060   23.6960   -6.0590 O   0  0  0  0  0  0  0  0  0  0  0  0
   -6.5700   21.0620   -7.9090 O   0  0  0  0  0  0  0  0  0  0  0  0
  1  2  1  0
  2  3  1  0
  1  4  1  0
  4  5  2  0
  4  6  1  0
  5  7  1  0
  6  8  2  0
  7  9  2  0
  8  9  1  0
  9 10  1  0
 10 11  3  0
 11 12  1  0
 12 13  1  0
 13 14  1  0
 14 15  1  0
 15 16  1  0
 16 17  1  0
 17 18  1  0
 19 18  1  1
 19 20  1  0
 19 21  1  0
 20 22  1  6
 20 23  1  0
 21 24  1  0
 23 24  1  0
 23 25  1  1
 24 26  1  6
M  END
