mArh-x0926_0_A_α-5CMS_0_Q_β
     RDKit          3D

 19 19  0  0  0  0  0  0  0  0999 V2000
   -6.6370   15.1760   -0.7610 O   0  0  0  0  0  0  0  0  0  0  0  0
   -5.3920   15.1430   -0.4900 C   0  0  0  0  0  0  0  0  0  0  0  0
   -4.9090   14.9500    0.8810 C   0  0  0  0  0  0  0  0  0  0  0  0
   -4.4760   15.2820   -1.5630 N   0  0  0  0  0  0  0  0  0  0  0  0
   -3.0830   15.3180   -1.3590 N   0  0  0  0  0  0  0  0  0  0  0  0
   -3.5050   15.2510    1.0040 C   0  0  0  0  0  0  0  0  0  0  0  0
   -2.1610   15.7060   -2.3990 C   0  0  0  0  0  0  0  0  0  0  0  0
   -2.6950   15.4160    0.0070 C   0  0  0  0  0  0  0  0  0  0  0  0
   -2.1650   14.8610   -3.6440 C   0  0  0  0  0  0  0  0  0  0  0  0
   -2.4220   15.7780   -4.8180 C   0  0  0  0  0  0  0  0  0  0  0  0
   -1.2510   16.4510   -5.1140 O   0  0  0  0  0  0  0  0  0  0  0  0
   -1.7520   17.9260   -5.8570 P   0  0  0  0  0  0  0  0  0  0  0  0
   -1.6050   18.2780   -7.3260 O   0  0  0  0  0  0  0  0  0  0  0  0
   -3.0420   17.1350   -6.1570 O   0  0  0  0  0  0  0  0  0  0  0  0
   -2.3400   19.0620   -4.8650 O   0  0  0  0  0  0  0  0  0  0  0  0
   -0.4810   19.3550   -7.7430 P   0  0  0  0  0  0  0  0  0  0  0  0
   -0.3910   20.8700   -7.2220 O   0  0  0  0  0  0  0  0  0  0  0  0
   -1.2360   19.8580   -8.8950 O   0  0  0  0  0  0  0  0  0  0  0  0
    0.4450   18.7350   -8.8920 O   0  0  0  0  0  0  0  0  0  0  0  0
  1  2  2  0
  2  3  1  0
  2  4  1  0
  4  5  1  0
  3  6  1  0
  5  7  1  0
  5  8  1  0
  6  8  2  0
  7  9  1  0
  9 10  1  0
 10 11  1  0
 11 12  1  0
 12 13  1  0
 12 14  1  0
 12 15  1  0
 13 16  1  0
 16 17  1  0
 16 18  1  0
 16 19  1  0
M  CHG  2  14  -1  18  -1
M  END
