mArh-5cms_G_3_G_γ-mArh-5cms_B_1_B_α
     RDKit          3D

 25 27  0  0  0  0  0  0  0  0999 V2000
   -3.9610   15.5190    1.5810 N   0  0  0  0  0  0  0  0  0  0  0  0
   -2.8760   14.9140    0.8070 C   0  0  1  0  0  0  0  0  0  0  0  0
   -2.6050   15.6550   -0.5310 C   0  0  1  0  0  0  0  0  0  0  0  0
   -1.7450   15.0780    1.6750 N   0  0  0  0  0  0  0  0  0  0  0  0
   -1.1990   15.3650   -1.0360 C   0  0  2  0  0  0  0  0  0  0  0  0
   -3.4360   15.2810   -1.7290 N   0  0  0  0  0  0  0  0  0  0  0  0
   -0.5640   14.4160    1.1480 C   0  0  0  0  0  0  0  0  0  0  0  0
   -1.4210   14.3730   -2.0920 N   0  0  0  0  0  0  0  0  0  0  0  0
   -2.4820   15.0380   -2.8480 C   0  0  2  0  0  0  0  0  0  0  0  0
   -0.1620   14.9770   -0.1200 N   0  0  0  0  0  0  0  0  0  0  0  0
   -1.9280   16.3330   -3.5550 C   0  0  0  0  0  0  0  0  0  0  0  0
   -2.2050   16.8050   -5.0380 C   0  0  0  0  0  0  0  0  0  0  0  0
   -1.7050   18.2700   -5.4220 C   0  0  0  0  0  0  0  0  0  0  0  0
   -2.3080   19.0230   -6.6740 C   0  0  0  0  0  0  0  0  0  0  0  0
   -2.7910   20.5210   -6.4680 C   0  0  0  0  0  0  0  0  0  0  0  0
   -2.7030   21.6490   -7.6020 C   0  0  0  0  0  0  0  0  0  0  0  0
   -3.4730   21.4830   -8.9620 C   0  0  0  0  0  0  0  0  0  0  0  0
   -4.0930   22.5810   -9.8580 C   0  0  2  0  0  0  0  0  0  0  0  0
   -5.3060   23.1800   -9.5310 O   0  0  0  0  0  0  0  0  0  0  0  0
   -4.4990   22.3720  -11.4000 C   0  0  1  0  0  0  0  0  0  0  0  0
   -5.6980   21.7800  -11.7820 O   0  0  0  0  0  0  0  0  0  0  0  0
   -4.9100   24.2500  -10.3610 C   0  0  2  0  0  0  0  0  0  0  0  0
   -4.7260   23.8130  -11.8020 C   0  0  2  0  0  0  0  0  0  0  0  0
   -3.6160   24.3080   -9.8790 O   0  0  0  0  0  0  0  0  0  0  0  0
   -5.8530   23.9600  -12.6320 O   0  0  0  0  0  0  0  0  0  0  0  0
  2  1  1  1
  2  3  1  0
  2  4  1  0
  3  5  1  0
  3  6  1  6
  4  7  1  0
  5  8  1  6
  6  9  1  0
  8  9  1  0
  5 10  1  0
  7 10  1  0
  9 11  1  1
 11 12  1  0
 12 13  1  0
 13 14  1  0
 14 15  1  0
 15 16  1  0
 16 17  1  0
 18 17  1  1
 18 19  1  0
 18 20  1  0
 20 21  1  1
 19 22  1  0
 20 23  1  0
 22 23  1  0
 22 24  1  1
 23 25  1  6
M  END
