mArh-5cb5_F_1_F_Î±
     RDKit          3D

 12 12  0  0  0  0  0  0  0  0999 V2000
   -1.8420   21.4880   -8.9140 C   0  0  0  0  0  0  0  0  0  0  0  0
   -3.2790   21.6380   -9.3840 C   0  0  2  0  0  0  0  0  0  0  0  0
   -3.6690   23.0450   -9.1080 C   0  0  2  0  0  0  0  0  0  0  0  0
   -4.1000   20.7520   -8.5710 O   0  0  0  0  0  0  0  0  0  0  0  0
   -4.4500   22.9540   -7.8540 C   0  0  2  0  0  0  0  0  0  0  0  0
   -4.4120   23.5080  -10.2280 O   0  0  0  0  0  0  0  0  0  0  0  0
   -5.0770   21.5810   -7.8580 C   0  0  2  0  0  0  0  0  0  0  0  0
   -5.4250   23.9750   -7.8970 O   0  0  0  0  0  0  0  0  0  0  0  0
   -5.3430   21.1410   -6.5090 O   0  0  0  0  0  0  0  0  0  0  0  0
   -5.8570   24.3940   -6.6660 C   0  0  0  0  0  0  0  0  0  0  0  0
   -5.6850   25.8550   -6.3060 C   0  0  0  0  0  0  0  0  0  0  0  0
   -6.7870   23.7580   -6.2520 O   0  0  0  0  0  0  0  0  0  0  0  0
  2  1  1  1
  3  2  1  0
  4  2  1  0
  5  3  1  0
  3  6  1  6
  7  4  1  0
  5  8  1  6
  5  7  1  0
  7  9  1  1
 10  8  1  0
 11 10  1  0
 10 12  2  0
M  END
