mArh-5cb5_C_0_C_Î²
     RDKit          3D

  9  8  0  0  0  0  0  0  0  0999 V2000
   -1.5040   20.4760   -8.9950 O   0  0  0  0  0  0  0  0  0  0  0  0
   -0.3360   19.6470   -8.2460 P   0  0  2  0  0  0  0  0  0  0  0  0
   -0.7840   19.2860   -6.8010 O   0  0  0  0  0  0  0  0  0  0  0  0
    0.7500   20.6400   -8.0200 O   0  0  0  0  0  0  0  0  0  0  0  0
   -0.0510   18.3170   -8.9370 O   0  0  0  0  0  0  0  0  0  0  0  0
   -1.9700   18.3080   -6.4120 P   0  0  2  0  0  0  0  0  0  0  0  0
   -1.2250   16.9090   -6.0900 O   0  0  0  0  0  0  0  0  0  0  0  0
   -2.9750   18.1200   -7.5340 O   0  0  0  0  0  0  0  0  0  0  0  0
   -2.4580   18.8500   -5.0560 O   0  0  0  0  0  0  0  0  0  0  0  0
  2  1  1  6
  3  2  1  0
  2  4  2  0
  2  5  1  0
  6  3  1  0
  6  7  1  1
  6  8  2  0
  6  9  1  0
M  END
