mArh-6woj_D_0_D_γ-5CB5_0_J_α
     RDKit          3D

 21 22  0  0  0  0  0  0  0  0999 V2000
   -0.6780   12.2240   -4.3900 O   0  0  0  0  0  0  0  0  0  0  0  0
   -0.7390   13.6360   -4.3160 C   0  0  1  0  0  0  0  0  0  0  0  0
   -0.4280   14.2100   -2.9370 C   0  0  0  0  0  0  0  0  0  0  0  0
    0.3330   14.3110   -5.1370 C   0  0  2  0  0  0  0  0  0  0  0  0
    1.6060   13.7230   -4.8650 O   0  0  0  0  0  0  0  0  0  0  0  0
    0.1270   15.5200   -3.1720 O   0  0  0  0  0  0  0  0  0  0  0  0
    0.0780   15.7150   -4.6050 C   0  0  1  0  0  0  0  0  0  0  0  0
    1.0280   16.8190   -5.0070 C   0  0  0  0  0  0  0  0  0  0  0  0
    0.4630   18.2120   -5.3100 C   0  0  0  0  0  0  0  0  0  0  0  0
    0.0440   18.5070   -6.7660 C   0  0  0  0  0  0  0  0  0  0  0  0
   -0.4650   19.9510   -6.9730 C   0  0  0  0  0  0  0  0  0  0  0  0
   -1.5800   20.1270   -7.9800 C   0  0  0  0  0  0  0  0  0  0  0  0
   -1.9390   21.5730   -8.3980 C   0  0  0  0  0  0  0  0  0  0  0  0
   -3.2370   22.1380   -7.7940 C   0  0  2  0  0  0  0  0  0  0  0  0
   -4.3200   21.3350   -8.2160 O   0  0  0  0  0  0  0  0  0  0  0  0
   -3.7740   23.5040   -8.2410 C   0  0  1  0  0  0  0  0  0  0  0  0
   -3.8160   23.7210   -9.6390 O   0  0  0  0  0  0  0  0  0  0  0  0
   -5.4580   21.9590   -7.6180 C   0  0  2  0  0  0  0  0  0  0  0  0
   -5.2130   23.4620   -7.7220 C   0  0  1  0  0  0  0  0  0  0  0  0
   -5.5660   21.5720   -6.2510 O   0  0  0  0  0  0  0  0  0  0  0  0
   -5.4360   24.1690   -6.5010 O   0  0  0  0  0  0  0  0  0  0  0  0
  2  1  1  1
  2  3  1  0
  2  4  1  0
  4  5  1  1
  3  6  1  0
  4  7  1  0
  6  7  1  0
  7  8  1  6
  8  9  1  0
  9 10  1  0
 10 11  1  0
 11 12  1  0
 12 13  1  0
 14 13  1  6
 14 15  1  0
 14 16  1  0
 16 17  1  6
 15 18  1  0
 16 19  1  0
 18 19  1  0
 18 20  1  1
 19 21  1  1
M  END
