mArh-6woj_A_0_A_α-MAC-120_0_A_α
     RDKit          3D

 23 24  0  0  0  0  0  0  0  0999 V2000
   -1.5860   21.8760   -7.7270 C   0  0  0  0  0  0  0  0  0  0  0  0
   -3.0140   21.9680   -8.2530 C   0  0  1  0  0  0  0  0  0  0  0  0
   -3.6460   21.0040   -7.4870 O   0  0  0  0  0  0  0  0  0  0  0  0
   -3.7840   23.2850   -7.9240 C   0  0  1  0  0  0  0  0  0  0  0  0
   -4.4920   23.8500   -9.0380 O   0  0  0  0  0  0  0  0  0  0  0  0
   -3.7340   21.7420   -6.3140 C   0  0  1  0  0  0  0  0  0  0  0  0
   -4.7450   22.7680   -6.8360 C   0  0  1  0  0  0  0  0  0  0  0  0
   -3.8990   20.7640   -5.3010 O   0  0  0  0  0  0  0  0  0  0  0  0
   -5.0930   23.8620   -5.9740 O   0  0  0  0  0  0  0  0  0  0  0  0
   -2.5890   20.0820   -5.2880 C   0  0  0  0  0  0  0  0  0  0  0  0
   -2.4380   18.7540   -6.1300 C   0  0  0  0  0  0  0  0  0  0  0  0
   -2.2290   17.3700   -5.4150 C   0  0  0  0  0  0  0  0  0  0  0  0
   -3.2460   16.1800   -5.5670 C   0  0  0  0  0  0  0  0  0  0  0  0
   -3.6750   15.4290   -4.2500 C   0  0  0  0  0  0  0  0  0  0  0  0
   -5.0970   14.7310   -4.1930 C   0  0  0  0  0  0  0  0  0  0  0  0
   -5.8570   14.8300   -2.8100 C   0  0  0  0  0  0  0  0  0  0  0  0
   -4.8540   14.7140   -1.7160 C   0  0  0  0  0  0  0  0  0  0  0  0
   -4.9710   15.1840   -0.4020 C   0  0  0  0  0  0  0  0  0  0  0  0
   -3.7000   14.0760   -2.0910 C   0  0  0  0  0  0  0  0  0  0  0  0
   -3.8880   14.9820    0.4580 C   0  0  0  0  0  0  0  0  0  0  0  0
   -2.6980   13.9250   -1.1820 C   0  0  0  0  0  0  0  0  0  0  0  0
   -3.9000   15.4220    1.7740 N   0  0  0  0  0  0  0  0  0  0  0  0
   -2.7660   14.3640    0.0790 N   0  0  0  0  0  0  0  0  0  0  0  0
  2  1  1  1
  2  3  1  0
  2  4  1  0
  4  5  1  6
  3  6  1  0
  4  7  1  0
  6  7  1  0
  6  8  1  1
  7  9  1  1
  8 10  1  0
 10 11  1  0
 11 12  1  0
 12 13  1  0
 13 14  1  0
 14 15  1  0
 15 16  1  0
 16 17  1  0
 17 18  2  0
 17 19  1  0
 18 20  1  0
 19 21  2  0
 20 22  1  0
 20 23  2  0
 21 23  1  0
M  END
