mArh-5cb5_K_0_K_γ-mArh-x0631_0_A_β
     RDKit          3D

 18 19  0  0  0  0  0  0  0  0999 V2000
   -1.4030   12.5540   -3.9300 O   0  0  0  0  0  0  0  0  0  0  0  0
   -0.6080   13.6770   -3.5720 C   0  0  2  0  0  0  0  0  0  0  0  0
   -1.4230   14.8950   -3.2240 C   0  0  0  0  0  0  0  0  0  0  0  0
    0.1840   14.1810   -4.7470 C   0  0  2  0  0  0  0  0  0  0  0  0
    1.3350   13.3530   -4.8260 O   0  0  0  0  0  0  0  0  0  0  0  0
   -0.6380   16.0420   -3.6010 O   0  0  0  0  0  0  0  0  0  0  0  0
    0.5260   15.6080   -4.3010 C   0  0  2  0  0  0  0  0  0  0  0  0
    0.7580   16.6380   -5.4020 C   0  0  0  0  0  0  0  0  0  0  0  0
    1.3470   12.7480   -6.0940 C   0  0  0  0  0  0  0  0  0  0  0  0
    0.4160   11.5440   -6.2580 C   0  0  0  0  0  0  0  0  0  0  0  0
    0.8750   10.6640   -7.3620 N   0  0  0  0  0  0  0  0  0  0  0  0
   -0.0590    9.6490   -7.7230 N   0  0  0  0  0  0  0  0  0  0  0  0
    0.8700   11.4250   -8.6040 N   0  0  0  0  0  0  0  0  0  0  0  0
   -0.1700    8.5670   -6.7160 C   0  0  0  0  0  0  0  0  0  0  0  0
    0.9580   10.3930   -9.6280 C   0  0  0  0  0  0  0  0  0  0  0  0
    0.5130    9.1670   -8.9630 N   0  0  0  0  0  0  0  0  0  0  0  0
   -1.5180    7.8670   -6.8380 C   0  0  0  0  0  0  0  0  0  0  0  0
   -2.5420    8.8070   -7.4500 C   0  0  0  0  0  0  0  0  0  0  0  0
  2  1  1  6
  2  3  1  0
  2  4  1  0
  4  5  1  1
  3  6  1  0
  4  7  1  0
  6  7  1  0
  7  8  1  6
  5  9  1  0
  9 10  1  0
 10 11  1  0
 11 12  1  0
 11 13  1  0
 12 14  1  0
 13 15  1  0
 12 16  1  0
 15 16  1  0
 14 17  1  0
 17 18  1  0
M  END
