mArh-5cms_O_14_O_β-mArh-5cb5_B_0_B_γ
     RDKit          3D

 16 16  0  0  0  0  0  0  0  0999 V2000
   -1.4090   20.7320   -8.4580 O   0  0  0  0  0  0  0  0  0  0  0  0
   -0.3110   19.8360   -7.7410 P   0  0  0  0  0  0  0  0  0  0  0  0
   -1.0030   19.4090   -6.3900 O   0  0  0  0  0  0  0  0  0  0  0  0
    0.9900   20.5080   -7.5880 O   0  0  0  0  0  0  0  0  0  0  0  0
   -0.2650   18.5640   -8.7000 O   0  0  0  0  0  0  0  0  0  0  0  0
   -1.5600   17.9720   -6.0650 P   0  0  2  0  0  0  0  0  0  0  0  0
   -0.3570   17.0070   -5.6270 O   0  0  0  0  0  0  0  0  0  0  0  0
   -2.5830   17.4300   -6.9780 O   0  0  0  0  0  0  0  0  0  0  0  0
   -2.1840   18.2720   -4.6530 O   0  0  0  0  0  0  0  0  0  0  0  0
   -0.6950   15.9610   -4.7310 C   0  0  2  0  0  0  0  0  0  0  0  0
   -0.0340   16.0320   -3.4630 O   0  0  0  0  0  0  0  0  0  0  0  0
   -0.4010   14.5230   -5.1670 C   0  0  1  0  0  0  0  0  0  0  0  0
    0.9960   14.1760   -5.2860 O   0  0  0  0  0  0  0  0  0  0  0  0
   -0.3060   14.7580   -2.8420 C   0  0  0  0  0  0  0  0  0  0  0  0
   -0.9210   13.8620   -3.9220 C   0  0  2  0  0  0  0  0  0  0  0  0
   -0.5140   12.5100   -3.8570 O   0  0  0  0  0  0  0  0  0  0  0  0
  1  2  1  0
  2  3  1  0
  2  4  2  0
  2  5  1  0
  3  6  1  0
  6  7  1  0
  6  8  2  0
  6  9  1  1
 10  7  1  6
 10 11  1  0
 10 12  1  0
 12 13  1  1
 11 14  1  0
 12 15  1  0
 14 15  1  0
 15 16  1  1
M  END
