mArh-6woj_A_0_A_Î²
     RDKit          3D

  9  8  0  0  0  0  0  0  0  0999 V2000
   -1.3310   20.4210   -8.1240 O   0  0  0  0  0  0  0  0  0  0  0  0
    0.0530   19.7080   -7.7640 P   0  0  2  0  0  0  0  0  0  0  0  0
   -0.3110   19.0880   -6.3360 O   0  0  0  0  0  0  0  0  0  0  0  0
    1.1190   20.7330   -7.5610 O   0  0  0  0  0  0  0  0  0  0  0  0
    0.2900   18.5940   -8.7310 O   0  0  0  0  0  0  0  0  0  0  0  0
   -1.4510   18.1100   -5.7980 P   0  0  1  0  0  0  0  0  0  0  0  0
   -0.5890   16.7800   -5.5480 O   0  0  0  0  0  0  0  0  0  0  0  0
   -1.9450   18.6690   -4.5070 O   0  0  0  0  0  0  0  0  0  0  0  0
   -2.4570   17.8640   -6.8750 O   0  0  0  0  0  0  0  0  0  0  0  0
  2  1  1  6
  3  2  1  0
  2  4  2  0
  2  5  1  0
  6  3  1  0
  6  7  1  1
  6  8  2  0
  6  9  1  0
M  END
