mArh-4iqy_B_0_B_γ-mArh-x1018_0_A_α
     RDKit          3D

 19 21  0  0  0  0  0  0  0  0999 V2000
   -0.8050   12.9230   -3.1660 O   0  0  0  0  0  0  0  0  0  0  0  0
   -1.1880   13.8190   -4.2090 C   0  0  1  0  0  0  0  0  0  0  0  0
   -1.6460   15.2330   -3.8110 C   0  0  1  0  0  0  0  0  0  0  0  0
    0.0830   14.1890   -4.9910 C   0  0  2  0  0  0  0  0  0  0  0  0
    1.2470   13.5720   -4.4510 O   0  0  0  0  0  0  0  0  0  0  0  0
   -2.7060   15.5610   -2.7890 C   0  0  0  0  0  0  0  0  0  0  0  0
   -0.4700   15.9790   -3.6170 O   0  0  0  0  0  0  0  0  0  0  0  0
    0.0360   15.7240   -4.9140 C   0  0  1  0  0  0  0  0  0  0  0  0
    1.2760   16.4930   -5.0960 C   0  0  0  0  0  0  0  0  0  0  0  0
   -3.3610   14.5450   -2.0380 N   0  0  0  0  0  0  0  0  0  0  0  0
   -3.0240   14.6490   -0.6470 N   0  0  0  0  0  0  0  0  0  0  0  0
   -4.7790   14.5750   -2.2330 N   0  0  0  0  0  0  0  0  0  0  0  0
   -5.2410   14.7490   -0.9480 N   0  0  0  0  0  0  0  0  0  0  0  0
   -4.2630   14.1840   -0.0550 C   0  0  2  0  0  0  0  0  0  0  0  0
   -6.5700   14.5990   -0.7120 N   0  0  0  0  0  0  0  0  0  0  0  0
   -4.5660   14.6550    1.2900 C   0  0  0  0  0  0  0  0  0  0  0  0
   -6.8550   14.6590    0.5540 C   0  0  0  0  0  0  0  0  0  0  0  0
   -5.8400   14.8830    1.6240 C   0  0  0  0  0  0  0  0  0  0  0  0
   -8.5190   14.4810    0.9820 Cl  0  0  0  0  0  0  0  0  0  0  0  0
  2  1  1  1
  2  3  1  0
  2  4  1  0
  4  5  1  1
  3  6  1  1
  3  7  1  0
  4  8  1  0
  7  8  1  0
  8  9  1  1
  6 10  1  0
 10 11  1  0
 10 12  1  0
 12 13  1  0
 11 14  1  0
 13 14  1  0
 13 15  1  0
 14 16  1  1
 15 17  2  0
 16 18  2  0
 17 18  1  0
 17 19  1  0
M  END
