mArh-x0681_0_A_α-5CB5_0_R_α
     RDKit          3D

 26 28  0  0  0  0  0  0  0  0999 V2000
   -4.3290   13.9210   -3.6540 N   0  0  0  0  0  0  0  0  0  0  0  0
   -3.4700   14.6290   -2.7460 C   0  0  1  0  0  0  0  0  0  0  0  0
   -2.3890   13.8030   -2.4740 O   0  0  0  0  0  0  0  0  0  0  0  0
   -2.8130   15.7980   -3.5180 C   0  0  0  0  0  0  0  0  0  0  0  0
   -4.2440   14.8890   -1.3460 C   0  0  1  0  0  0  0  0  0  0  0  0
   -2.7940   16.2130   -5.0390 C   0  0  0  0  0  0  0  0  0  0  0  0
   -5.1700   13.7300   -1.0200 C   0  0  0  0  0  0  0  0  0  0  0  0
   -3.4720   15.3110   -0.0400 C   0  0  0  0  0  0  0  0  0  0  0  0
   -1.9830   17.5490   -5.3480 C   0  0  0  0  0  0  0  0  0  0  0  0
   -5.7300   13.5830    0.2020 N   0  0  0  0  0  0  0  0  0  0  0  0
   -3.9980   14.7900    1.3140 C   0  0  0  0  0  0  0  0  0  0  0  0
   -5.5660   12.7540   -1.7990 N   0  0  0  0  0  0  0  0  0  0  0  0
   -2.5200   18.6460   -6.3400 C   0  0  0  0  0  0  0  0  0  0  0  0
   -5.4880   14.5100    1.2360 C   0  0  0  0  0  0  0  0  0  0  0  0
   -6.5000   12.4680    0.2330 C   0  0  0  0  0  0  0  0  0  0  0  0
   -6.3860   11.9600   -1.0330 C   0  0  0  0  0  0  0  0  0  0  0  0
   -2.6840   20.1050   -5.7460 C   0  0  0  0  0  0  0  0  0  0  0  0
   -4.0310   20.7050   -5.6450 O   0  0  0  0  0  0  0  0  0  0  0  0
   -4.4530   21.5210   -6.7560 C   0  0  2  0  0  0  0  0  0  0  0  0
   -3.6850   21.0700   -7.8450 O   0  0  0  0  0  0  0  0  0  0  0  0
   -4.2090   23.0390   -6.5730 C   0  0  2  0  0  0  0  0  0  0  0  0
   -5.4220   23.8140   -6.4670 O   0  0  0  0  0  0  0  0  0  0  0  0
   -3.2360   22.1820   -8.5700 C   0  0  2  0  0  0  0  0  0  0  0  0
   -3.5610   23.4710   -7.8740 C   0  0  1  0  0  0  0  0  0  0  0  0
   -4.0750   22.1340   -9.7780 C   0  0  0  0  0  0  0  0  0  0  0  0
   -4.5410   24.1140   -8.7190 O   0  0  0  0  0  0  0  0  0  0  0  0
  2  1  1  6
  2  3  1  0
  2  4  1  0
  2  5  1  0
  4  6  1  0
  5  7  1  0
  5  8  1  1
  6  9  1  0
  7 10  1  0
  8 11  1  0
  7 12  2  0
  9 13  1  0
 10 14  1  0
 11 14  1  0
 10 15  1  0
 12 16  1  0
 15 16  2  0
 13 17  1  0
 17 18  1  0
 19 18  1  1
 19 20  1  0
 19 21  1  0
 21 22  1  6
 20 23  1  0
 21 24  1  0
 23 24  1  0
 23 25  1  6
 24 26  1  6
M  END
