mArh-4gvw_0_A_α-mArh-x0895_1_A_α
     RDKit          3D

 26 27  0  0  0  0  0  0  0  0999 V2000
   -0.9240   20.1310   -6.0950 O   0  0  0  0  0  0  0  0  0  0  0  0
   -0.4280   20.4120   -7.4100 S   0  0  0  0  0  0  0  0  0  0  0  0
    0.6810   21.3040   -7.6600 O   0  0  0  0  0  0  0  0  0  0  0  0
   -0.0740   18.9470   -7.9480 O   0  0  0  0  0  0  0  0  0  0  0  0
   -1.8760   20.8960   -8.2400 C   0  0  0  0  0  0  0  0  0  0  0  0
   -2.2060   22.2900   -7.8140 C   0  0  0  0  0  0  0  0  0  0  0  0
    0.3880   18.3100   -6.7550 C   0  0  0  0  0  0  0  0  0  0  0  0
   -0.7940   17.7480   -5.9680 C   0  0  0  0  0  0  0  0  0  0  0  0
   -3.6360   22.4200   -7.5860 N   0  0  0  0  0  0  0  0  0  0  0  0
   -0.4380   16.5490   -5.0870 C   0  0  0  0  0  0  0  0  0  0  0  0
   -3.8470   23.6400   -6.8060 C   0  0  0  0  0  0  0  0  0  0  0  0
   -4.3000   22.6000   -8.8910 C   0  0  0  0  0  0  0  0  0  0  0  0
    0.2580   16.9180   -3.7740 C   0  0  0  0  0  0  0  0  0  0  0  0
   -5.3150   23.9070   -6.6820 C   0  0  0  0  0  0  0  0  0  0  0  0
   -5.7870   22.8960   -8.7270 C   0  0  0  0  0  0  0  0  0  0  0  0
   -0.1670   16.0470   -2.5890 C   0  0  0  0  0  0  0  0  0  0  0  0
   -5.9440   24.0820   -7.9560 O   0  0  0  0  0  0  0  0  0  0  0  0
   -1.5460   15.3820   -2.6580 C   0  0  0  0  0  0  0  0  0  0  0  0
   -1.9420   14.5980   -1.3990 C   0  0  0  0  0  0  0  0  0  0  0  0
   -2.8880   15.3540   -0.4810 C   0  0  1  0  0  0  0  0  0  0  0  0
   -4.2660   14.9600   -0.6750 N   0  0  0  0  0  0  0  0  0  0  0  0
   -2.7450   14.9910    1.0060 C   0  0  0  0  0  0  0  0  0  0  0  0
   -1.6970   14.8880    1.6410 O   0  0  0  0  0  0  0  0  0  0  0  0
   -3.9910   14.8010    1.5030 N   0  0  0  0  0  0  0  0  0  0  0  0
   -4.9170   14.8450    0.5260 C   0  0  0  0  0  0  0  0  0  0  0  0
   -6.1250   14.7920    0.6690 O   0  0  0  0  0  0  0  0  0  0  0  0
  1  2  2  0
  2  3  2  0
  2  4  1  0
  2  5  1  0
  5  6  1  0
  4  7  1  0
  7  8  1  0
  6  9  1  0
  8 10  1  0
  9 11  1  0
  9 12  1  0
 10 13  1  0
 11 14  1  0
 12 15  1  0
 13 16  1  0
 14 17  1  0
 15 17  1  0
 16 18  1  0
 18 19  1  0
 20 19  1  6
 20 21  1  0
 20 22  1  0
 22 23  2  0
 22 24  1  0
 21 25  1  0
 24 25  1  0
 25 26  2  0
M  END
