mArh-5cb5_I_0_I_β-mArh-mac-194_0_A_α
     RDKit          3D

 24 25  0  0  0  0  0  0  0  0999 V2000
   -1.4090   20.8320   -8.5970 O   0  0  0  0  0  0  0  0  0  0  0  0
   -0.4270   19.9240   -7.7430 P   0  0  0  0  0  0  0  0  0  0  0  0
   -1.2410   19.4650   -6.4530 O   0  0  0  0  0  0  0  0  0  0  0  0
    0.9100   20.5210   -7.5060 O   0  0  0  0  0  0  0  0  0  0  0  0
   -0.2530   18.6650   -8.7180 O   0  0  0  0  0  0  0  0  0  0  0  0
   -1.6940   17.9820   -6.1820 P   0  0  0  0  0  0  0  0  0  0  0  0
   -0.2900   17.2330   -6.2130 O   0  0  0  0  0  0  0  0  0  0  0  0
   -2.6430   17.4580   -7.1590 O   0  0  0  0  0  0  0  0  0  0  0  0
   -2.1940   17.6390   -4.7070 O   0  0  0  0  0  0  0  0  0  0  0  0
   -2.9290   16.3900   -4.5750 C   0  0  0  0  0  0  0  0  0  0  0  0
   -2.0330   15.1920   -4.3850 C   0  0  0  0  0  0  0  0  0  0  0  0
   -1.7360   14.8450   -2.9200 C   0  0  0  0  0  0  0  0  0  0  0  0
   -2.8430   14.8110   -1.8390 C   0  0  0  0  0  0  0  0  0  0  0  0
   -2.3540   14.7660   -0.5290 C   0  0  0  0  0  0  0  0  0  0  0  0
   -4.2650   14.8130   -2.0130 C   0  0  0  0  0  0  0  0  0  0  0  0
   -5.1120   14.7660   -0.8580 C   0  0  0  0  0  0  0  0  0  0  0  0
   -3.1910   14.7230    0.5750 C   0  0  0  0  0  0  0  0  0  0  0  0
   -6.6050   14.7540   -0.9010 C   0  0  0  0  0  0  0  0  0  0  0  0
   -4.5640   14.7220    0.4240 C   0  0  0  0  0  0  0  0  0  0  0  0
   -7.2340   14.8760   -1.9400 O   0  0  0  0  0  0  0  0  0  0  0  0
   -7.2570   14.5860    0.3150 N   0  0  0  0  0  0  0  0  0  0  0  0
   -5.3260   14.6730    1.5900 N   0  0  0  0  0  0  0  0  0  0  0  0
   -6.6040   14.6060    1.5130 C   0  0  0  0  0  0  0  0  0  0  0  0
   -7.3240   14.5510    2.6620 N   0  0  0  0  0  0  0  0  0  0  0  0
  1  2  1  0
  2  3  1  0
  2  4  2  0
  2  5  1  0
  3  6  1  0
  6  7  1  0
  6  8  2  0
  6  9  1  0
  9 10  1  0
 10 11  1  0
 11 12  1  0
 12 13  1  0
 13 14  2  0
 13 15  1  0
 15 16  2  0
 14 17  1  0
 16 18  1  0
 16 19  1  0
 17 19  2  0
 18 20  2  0
 18 21  1  0
 19 22  1  0
 21 23  1  0
 22 23  2  0
 23 24  1  0
M  END
