mArh-2fav_B_0_B_α-mArh-2fav_B_0_B_δ
     RDKit          3D

 23 25  0  0  0  0  0  0  0  0999 V2000
   -1.5790   22.5230   -7.8960 C   0  0  0  0  0  0  0  0  0  0  0  0
   -2.8470   21.8360   -8.3690 C   0  0  1  0  0  0  0  0  0  0  0  0
   -3.1410   20.8420   -7.3370 N   0  0  0  0  0  0  0  0  0  0  0  0
   -4.1220   22.7180   -8.4340 C   0  0  2  0  0  0  0  0  0  0  0  0
   -3.7810   24.0720   -8.7210 O   0  0  0  0  0  0  0  0  0  0  0  0
   -1.9390   20.0730   -6.8830 C   0  0  0  0  0  0  0  0  0  0  0  0
   -3.9220   21.5610   -6.2970 C   0  0  0  0  0  0  0  0  0  0  0  0
   -4.8050   22.5600   -7.0560 C   0  0  1  0  0  0  0  0  0  0  0  0
   -5.0720   23.7830   -6.3680 O   0  0  0  0  0  0  0  0  0  0  0  0
   -2.3720   18.8760   -6.0220 C   0  0  0  0  0  0  0  0  0  0  0  0
   -1.4970   17.6590   -5.6490 C   0  0  0  0  0  0  0  0  0  0  0  0
   -2.4300   16.4470   -5.3280 C   0  0  0  0  0  0  0  0  0  0  0  0
   -1.9210   15.2700   -4.4580 C   0  0  0  0  0  0  0  0  0  0  0  0
   -1.8830   15.5220   -2.9310 C   0  0  2  0  0  0  0  0  0  0  0  0
   -0.7760   14.8450   -2.3030 N   0  0  0  0  0  0  0  0  0  0  0  0
   -3.0330   15.0750   -2.1110 N   0  0  0  0  0  0  0  0  0  0  0  0
   -0.9950   15.0630   -0.8920 C   0  0  1  0  0  0  0  0  0  0  0  0
   -2.4860   15.3590   -0.7410 C   0  0  2  0  0  0  0  0  0  0  0  0
   -0.5550   13.9290   -0.1490 N   0  0  0  0  0  0  0  0  0  0  0  0
   -3.0000   14.4830    0.4410 C   0  0  2  0  0  0  0  0  0  0  0  0
   -4.2600   14.9450    1.0130 N   0  0  0  0  0  0  0  0  0  0  0  0
   -0.7300   14.1330    1.2680 C   0  0  0  0  0  0  0  0  0  0  0  0
   -2.0940   14.5790    1.5770 N   0  0  0  0  0  0  0  0  0  0  0  0
  2  1  1  1
  2  3  1  0
  2  4  1  0
  4  5  1  1
  3  6  1  0
  3  7  1  0
  4  8  1  0
  7  8  1  0
  8  9  1  1
  6 10  1  0
 10 11  1  0
 11 12  1  0
 12 13  1  0
 14 13  1  6
 14 15  1  0
 14 16  1  0
 17 15  1  6
 18 16  1  6
 17 18  1  0
 17 19  1  0
 18 20  1  0
 20 21  1  1
 19 22  1  0
 20 23  1  0
 22 23  1  0
M  END
