mArh-2fav_B_0_B_α-5CB5_0_C_α
     RDKit          3D

  9  9  0  0  0  0  0  0  0  0999 V2000
   -1.5120   21.8910   -7.8370 C   0  0  0  0  0  0  0  0  0  0  0  0
   -2.9770   22.0810   -8.2070 C   0  0  1  0  0  0  0  0  0  0  0  0
   -3.7630   21.1970   -7.3790 O   0  0  0  0  0  0  0  0  0  0  0  0
   -3.4870   23.5040   -7.9270 C   0  0  1  0  0  0  0  0  0  0  0  0
   -4.3550   23.9730   -8.9790 O   0  0  0  0  0  0  0  0  0  0  0  0
   -4.9100   21.9430   -6.9750 C   0  0  2  0  0  0  0  0  0  0  0  0
   -4.3160   23.3010   -6.6540 C   0  0  2  0  0  0  0  0  0  0  0  0
   -5.3350   24.2770   -6.4310 O   0  0  0  0  0  0  0  0  0  0  0  0
   -5.5200   21.3990   -5.8030 O   0  0  0  0  0  0  0  0  0  0  0  0
  2  1  1  1
  2  3  1  0
  2  4  1  0
  4  5  1  6
  3  6  1  0
  4  7  1  0
  6  7  1  0
  7  8  1  6
  6  9  1  1
M  END
