mArh-4iqy_A_0_A_α-mArh-x0844_0_A_α
     RDKit          3D

 23 24  0  0  0  0  0  0  0  0999 V2000
   -2.2940   21.6070   -8.9150 C   0  0  0  0  0  0  0  0  0  0  0  0
   -2.7180   22.5350   -7.8200 C   0  0  2  0  0  0  0  0  0  0  0  0
   -3.1140   21.6410   -6.7960 O   0  0  0  0  0  0  0  0  0  0  0  0
   -3.8590   23.5360   -8.0300 C   0  0  1  0  0  0  0  0  0  0  0  0
   -4.3010   23.7640   -9.3800 O   0  0  0  0  0  0  0  0  0  0  0  0
   -4.3880   21.9670   -6.2890 C   0  0  1  0  0  0  0  0  0  0  0  0
   -5.0250   22.9890   -7.2240 C   0  0  1  0  0  0  0  0  0  0  0  0
   -5.0150   20.7230   -6.3650 O   0  0  0  0  0  0  0  0  0  0  0  0
   -5.6710   24.0400   -6.5310 O   0  0  0  0  0  0  0  0  0  0  0  0
   -3.9910   19.9090   -6.9370 C   0  0  0  0  0  0  0  0  0  0  0  0
   -2.6900   19.5680   -6.1460 C   0  0  0  0  0  0  0  0  0  0  0  0
   -2.3130   18.0500   -6.2630 C   0  0  0  0  0  0  0  0  0  0  0  0
   -1.6210   17.4290   -5.0220 C   0  0  0  0  0  0  0  0  0  0  0  0
   -1.9030   15.9250   -4.6410 C   0  0  0  0  0  0  0  0  0  0  0  0
   -3.2010   15.6000   -3.8440 C   0  0  0  0  0  0  0  0  0  0  0  0
   -2.9980   14.8990   -2.5880 O   0  0  0  0  0  0  0  0  0  0  0  0
   -3.8850   15.3180   -1.4960 C   0  0  2  0  0  0  0  0  0  0  0  0
   -3.2800   15.0060   -0.1590 C   0  0  0  0  0  0  0  0  0  0  0  0
   -5.2980   14.7390   -1.6140 C   0  0  0  0  0  0  0  0  0  0  0  0
   -4.0360   14.7980    0.9220 C   0  0  0  0  0  0  0  0  0  0  0  0
   -6.1040   14.8340   -0.3260 C   0  0  0  0  0  0  0  0  0  0  0  0
   -7.3390   14.8870   -0.3120 O   0  0  0  0  0  0  0  0  0  0  0  0
   -5.3960   14.8530    0.8490 N   0  0  0  0  0  0  0  0  0  0  0  0
  2  1  1  6
  2  3  1  0
  2  4  1  0
  4  5  1  6
  3  6  1  0
  4  7  1  0
  6  7  1  0
  6  8  1  6
  7  9  1  1
  8 10  1  0
 10 11  1  0
 11 12  1  0
 12 13  1  0
 13 14  1  0
 14 15  1  0
 15 16  1  0
 17 16  1  6
 17 18  1  0
 17 19  1  0
 18 20  2  0
 19 21  1  0
 21 22  2  0
 20 23  1  0
 21 23  1  0
M  END
