
     RDKit          3D

 36 39  0  0  0  0  0  0  0  0999 V2000
   -1.9590   18.2430   -5.9290 P   0  0  0  0  0  0  0  0  0  0  0  0
   -0.3470   19.7830   -7.8680 P   0  0  0  0  0  0  0  0  0  0  0  0
    0.3270   17.0550   -5.0490 C   0  0  0  0  0  0  0  0  0  0  0  0
   -0.9580   16.9790   -5.7030 O   0  0  0  0  0  0  0  0  0  0  0  0
    0.6500   15.7090   -4.4430 C   0  0  1  0  0  0  0  0  0  0  0  0
    0.1620   15.6580   -3.0820 O   0  0  0  0  0  0  0  0  0  0  0  0
    0.0410   14.4950   -5.1520 C   0  0  1  0  0  0  0  0  0  0  0  0
    0.9730   13.4200   -5.1670 O   0  0  0  0  0  0  0  0  0  0  0  0
   -1.1760   14.1800   -4.2770 C   0  0  1  0  0  0  0  0  0  0  0  0
   -1.6280   12.8390   -4.4220 O   0  0  0  0  0  0  0  0  0  0  0  0
   -0.5650   14.4570   -2.9100 C   0  0  2  0  0  0  0  0  0  0  0  0
   -5.2370   22.0310   -7.0300 C   0  0  1  0  0  0  0  0  0  0  0  0
   -1.0560   14.7050    2.1870 N   0  0  0  0  0  0  0  0  0  0  0  0
   -2.7510   17.6810   -6.9830 O   0  0  0  0  0  0  0  0  0  0  0  0
    0.6540   20.7950   -7.4340 O   0  0  0  0  0  0  0  0  0  0  0  0
   -5.5380   21.4780   -5.7860 O   0  0  0  0  0  0  0  0  0  0  0  0
   -0.0100   14.4420    1.3940 C   0  0  0  0  0  0  0  0  0  0  0  0
   -4.5750   23.3890   -6.8460 C   0  0  2  0  0  0  0  0  0  0  0  0
   -2.2800   18.5070   -4.5650 O   0  0  0  0  0  0  0  0  0  0  0  0
   -0.1930   18.5710   -8.5730 O   0  0  0  0  0  0  0  0  0  0  0  0
   -5.5430   24.4020   -6.6190 O   0  0  0  0  0  0  0  0  0  0  0  0
   -3.8500   23.5470   -8.1810 C   0  0  2  0  0  0  0  0  0  0  0  0
    0.0360   14.3770    0.0610 N   0  0  0  0  0  0  0  0  0  0  0  0
   -0.8730   19.2790   -6.4440 O   0  0  0  0  0  0  0  0  0  0  0  0
   -4.7160   24.0190   -9.2110 O   0  0  0  0  0  0  0  0  0  0  0  0
   -1.1700   14.6180   -0.4740 C   0  0  0  0  0  0  0  0  0  0  0  0
   -3.3800   22.1200   -8.4640 C   0  0  2  0  0  0  0  0  0  0  0  0
   -4.2680   21.2500   -7.7250 O   0  0  0  0  0  0  0  0  0  0  0  0
   -2.3370   14.9090    0.2110 C   0  0  0  0  0  0  0  0  0  0  0  0
   -1.9580   21.8230   -8.0640 C   0  0  0  0  0  0  0  0  0  0  0  0
   -1.6680   20.4550   -8.3920 O   0  0  0  0  0  0  0  0  0  0  0  0
   -2.2580   14.9480    1.6170 C   0  0  0  0  0  0  0  0  0  0  0  0
   -3.2980   15.2070    2.4110 N   0  0  0  0  0  0  0  0  0  0  0  0
   -3.3840   15.1230   -0.6740 N   0  0  0  0  0  0  0  0  0  0  0  0
   -2.8320   14.9590   -1.8520 C   0  0  0  0  0  0  0  0  0  0  0  0
   -1.4980   14.6520   -1.8070 N   0  0  0  0  0  0  0  0  0  0  0  0
  1  4  1  0
  1 14  2  0
  1 19  1  0
  1 24  1  0
  4  3  1  0
 24  2  1  0
  2 15  2  0
  2 20  1  0
  2 31  1  0
 31 30  1  0
  5  3  1  6
  5  6  1  0
  5  7  1  0
  6 11  1  0
  7  8  1  1
  7  9  1  0
 11  9  1  0
 11 36  1  1
  9 10  1  1
 36 26  1  0
 36 35  1  0
 12 16  1  1
 12 18  1  0
 12 28  1  0
 18 21  1  6
 18 22  1  0
 28 27  1  0
 13 17  2  0
 13 32  1  0
 17 23  1  0
 32 29  2  0
 32 33  1  0
 23 26  2  0
 22 25  1  6
 22 27  1  0
 27 30  1  1
 26 29  1  0
 29 34  1  0
 34 35  2  0
M  END
