mArh-5cb5_L_0_L_γ-mArh-6ywk_E_2_E_α
     RDKit          3D

 24 25  0  0  0  0  0  0  0  0999 V2000
   -0.5990   12.5470   -4.0230 O   0  0  0  0  0  0  0  0  0  0  0  0
    0.0230   13.7430   -3.5620 C   0  0  2  0  0  0  0  0  0  0  0  0
   -1.0090   14.8350   -3.3810 C   0  0  0  0  0  0  0  0  0  0  0  0
    0.9510   14.3510   -4.6030 C   0  0  1  0  0  0  0  0  0  0  0  0
    0.6980   13.9240   -5.9220 O   0  0  0  0  0  0  0  0  0  0  0  0
   -0.3560   16.0940   -3.6370 O   0  0  0  0  0  0  0  0  0  0  0  0
    0.8610   15.8690   -4.3570 C   0  0  2  0  0  0  0  0  0  0  0  0
    0.8650   16.7020   -5.6270 C   0  0  0  0  0  0  0  0  0  0  0  0
    0.8050   18.2080   -5.4770 C   0  0  0  0  0  0  0  0  0  0  0  0
   -0.1620   18.6940   -6.4950 N   0  0  0  0  0  0  0  0  0  0  0  0
    0.1190   19.8190   -7.4900 S   0  0  1  0  0  0  0  0  0  0  0  0
    1.2260   20.7550   -7.5480 O   0  0  0  0  0  0  0  0  0  0  0  0
    0.2650   18.7580   -8.6930 O   0  0  0  0  0  0  0  0  0  0  0  0
   -1.4060   20.4990   -8.0710 C   0  0  0  0  0  0  0  0  0  0  0  0
   -1.5640   21.9280   -7.6330 C   0  0  0  0  0  0  0  0  0  0  0  0
   -2.8480   22.5710   -8.0130 N   0  0  0  0  0  0  0  0  0  0  0  0
   -3.2580   23.3360   -6.8340 C   0  0  0  0  0  0  0  0  0  0  0  0
   -3.8950   21.5820   -8.2720 C   0  0  0  0  0  0  0  0  0  0  0  0
   -4.6520   23.9430   -6.7480 C   0  0  0  0  0  0  0  0  0  0  0  0
   -5.1670   21.6520   -7.3960 C   0  0  0  0  0  0  0  0  0  0  0  0
   -5.6910   23.0070   -7.1370 N   0  0  0  0  0  0  0  0  0  0  0  0
   -6.4970   23.5010   -8.2630 C   0  0  0  0  0  0  0  0  0  0  0  0
   -5.7650   23.6840   -9.5600 C   0  0  0  0  0  0  0  0  0  0  0  0
   -6.4690   22.8420  -10.4790 O   0  0  0  0  0  0  0  0  0  0  0  0
  2  1  1  6
  2  3  1  0
  2  4  1  0
  4  5  1  6
  3  6  1  0
  4  7  1  0
  6  7  1  0
  7  8  1  6
  8  9  1  0
  9 10  1  0
 10 11  2  0
 11 12  2  0
 11 13  1  6
 11 14  1  0
 14 15  1  0
 15 16  1  0
 16 17  1  0
 16 18  1  0
 17 19  1  0
 18 20  1  0
 19 21  1  0
 20 21  1  0
 21 22  1  0
 22 23  1  0
 23 24  1  0
M  END
