mArh-x0837_0_A_α-5CMS_0_B_δ
     RDKit          3D

 17 19  0  0  0  0  0  0  0  0999 V2000
   -7.7380   14.8870   -0.1190 O   0  0  0  0  0  0  0  0  0  0  0  0
   -6.5120   14.8460   -0.0180 C   0  0  0  0  0  0  0  0  0  0  0  0
   -5.9050   14.5130    1.1580 N   0  0  0  0  0  0  0  0  0  0  0  0
   -5.5680   15.1520   -1.1590 C   0  0  0  0  0  0  0  0  0  0  0  0
   -4.7380   13.8120    1.2000 C   0  0  0  0  0  0  0  0  0  0  0  0
   -4.4240   14.1250   -1.2690 C   0  0  2  0  0  0  0  0  0  0  0  0
   -4.0180   13.6090    0.0960 C   0  0  0  0  0  0  0  0  0  0  0  0
   -3.2270   14.6710   -2.1030 C   0  0  2  0  0  0  0  0  0  0  0  0
   -1.9940   13.8720   -1.9560 N   0  0  0  0  0  0  0  0  0  0  0  0
   -2.8680   16.0100   -1.7190 N   0  0  0  0  0  0  0  0  0  0  0  0
   -1.0820   14.6300   -1.1040 C   0  0  1  0  0  0  0  0  0  0  0  0
   -1.9340   15.7790   -0.6210 C   0  0  2  0  0  0  0  0  0  0  0  0
   -0.6280   13.7390   -0.0630 N   0  0  0  0  0  0  0  0  0  0  0  0
   -2.6000   15.2660    0.6530 C   0  0  2  0  0  0  0  0  0  0  0  0
   -3.6060   16.1610    1.1970 N   0  0  0  0  0  0  0  0  0  0  0  0
   -0.3960   14.4570    1.1830 C   0  0  0  0  0  0  0  0  0  0  0  0
   -1.6280   15.0460    1.6700 N   0  0  0  0  0  0  0  0  0  0  0  0
  1  2  2  0
  2  3  1  0
  2  4  1  0
  3  5  1  0
  6  4  1  1
  5  7  2  0
  6  7  1  0
  6  8  1  0
  8  9  1  1
  8 10  1  0
 11  9  1  6
 12 10  1  6
 11 12  1  0
 11 13  1  0
 12 14  1  0
 14 15  1  1
 13 16  1  0
 14 17  1  0
 16 17  1  0
M  END
