mArh-5cms_P_15_P_β-5CMS_0_I_β
     RDKit          3D

  9  8  0  0  0  0  0  0  0  0999 V2000
   -0.9870   20.8660   -8.7210 O   0  0  0  0  0  0  0  0  0  0  0  0
   -0.3110   19.7750   -7.8000 P   0  0  0  0  0  0  0  0  0  0  0  0
   -1.4640   19.4380   -6.8010 O   0  0  0  0  0  0  0  0  0  0  0  0
    1.0200   20.1630   -7.2920 O   0  0  0  0  0  0  0  0  0  0  0  0
   -0.1990   18.5470   -8.8020 O   0  0  0  0  0  0  0  0  0  0  0  0
   -1.7260   18.0630   -6.0820 P   0  0  0  0  0  0  0  0  0  0  0  0
   -0.3430   17.2790   -6.1240 O   0  0  0  0  0  0  0  0  0  0  0  0
   -2.8400   17.3050   -6.6880 O   0  0  0  0  0  0  0  0  0  0  0  0
   -1.8660   18.4410   -4.5490 O   0  0  0  0  0  0  0  0  0  0  0  0
  1  2  1  0
  2  3  1  0
  2  4  2  0
  2  5  1  0
  3  6  1  0
  6  7  1  0
  6  8  2  0
  6  9  1  0
M  END
