mArh-x0228_0_B_Î²
     RDKit          3D

 10 10  0  0  0  0  0  0  0  0999 V2000
   -6.1400   25.7250  -13.6820 N   0  0  0  0  0  0  0  0  0  0  0  0
   -5.0460   25.3480  -12.8670 C   0  0  0  0  0  0  0  0  0  0  0  0
   -3.7910   25.7500  -13.3250 C   0  0  0  0  0  0  0  0  0  0  0  0
   -5.1410   24.6490  -11.6660 C   0  0  0  0  0  0  0  0  0  0  0  0
   -3.8130   26.4140  -14.5220 O   0  0  0  0  0  0  0  0  0  0  0  0
   -2.6500   25.4660  -12.5880 C   0  0  0  0  0  0  0  0  0  0  0  0
   -4.0070   24.3550  -10.9170 C   0  0  0  0  0  0  0  0  0  0  0  0
   -2.5820   26.9100  -15.0380 C   0  0  0  0  0  0  0  0  0  0  0  0
   -2.7690   24.7760  -11.3940 C   0  0  0  0  0  0  0  0  0  0  0  0
   -4.1170   23.5840   -9.6230 C   0  0  0  0  0  0  0  0  0  0  0  0
  1  2  1  0
  2  3  2  0
  2  4  1  0
  5  3  1  0
  3  6  1  0
  7  4  2  0
  8  5  1  0
  6  9  2  0
  9  7  1  0
  7 10  1  0
M  END
