mArh-5mqx_0_A_γ-mArh-x0685_1_A_α
     RDKit          3D

 19 21  0  0  0  0  0  0  0  0999 V2000
   -0.3230   11.4570   -1.8770 O   0  0  0  0  0  0  0  0  0  0  0  0
    0.4680   12.3180   -2.9590 S   0  0  0  0  0  0  0  0  0  0  0  0
    1.9580   11.9140   -3.2970 O   0  0  0  0  0  0  0  0  0  0  0  0
   -1.5490   12.2080   -1.9440 C   0  0  1  0  0  0  0  0  0  0  0  0
   -0.6980   12.1430   -4.1530 N   0  0  0  0  0  0  0  0  0  0  0  0
    0.5220   13.7870   -2.3540 O   0  0  0  0  0  0  0  0  0  0  0  0
   -1.3820   13.5280   -1.2040 C   0  0  0  0  0  0  0  0  0  0  0  0
   -1.8240   12.6820   -3.4250 C   0  0  2  0  0  0  0  0  0  0  0  0
   -1.2960   10.9170   -4.5630 C   0  0  0  0  0  0  0  0  0  0  0  0
   -1.1930   14.5370   -2.2230 O   0  0  0  0  0  0  0  0  0  0  0  0
   -2.1130   14.1460   -3.2280 C   0  0  1  0  0  0  0  0  0  0  0  0
   -2.1550   15.0440   -4.4350 C   0  0  0  0  0  0  0  0  0  0  0  0
   -0.3680    9.9970   -5.1110 N   0  0  0  0  0  0  0  0  0  0  0  0
   -0.2720    9.9730   -6.5680 C   0  0  0  0  0  0  0  0  0  0  0  0
   -0.2520    8.5260   -7.0510 C   0  0  0  0  0  0  0  0  0  0  0  0
   -1.4360   10.7300   -7.2320 C   0  0  0  0  0  0  0  0  0  0  0  0
    0.0110    8.5100   -8.5390 C   0  0  0  0  0  0  0  0  0  0  0  0
   -1.2730   10.6970   -8.7530 C   0  0  0  0  0  0  0  0  0  0  0  0
   -1.0820    9.2680   -9.2840 C   0  0  0  0  0  0  0  0  0  0  0  0
  2  1  1  0
  2  3  1  0
  1  4  1  0
  2  5  1  0
  2  6  1  0
  4  7  1  1
  4  8  1  0
  8  5  1  6
  5  9  1  0
  7 10  1  0
  8 11  1  0
 10 11  1  0
 11 12  1  6
  9 13  1  0
 13 14  1  0
 14 15  1  0
 14 16  1  0
 15 17  1  0
 16 18  1  0
 17 19  1  0
 18 19  1  0
M  END
