mArh-x0962_0_A_α-5CB5_0_K_γ
     RDKit          3D

 16 17  0  0  0  0  0  0  0  0999 V2000
   -3.6560   15.4720   -2.7410 N   0  0  0  0  0  0  0  0  0  0  0  0
   -3.0800   14.6270   -1.7360 C   0  0  1  0  0  0  0  0  0  0  0  0
   -1.5450   14.6380   -1.8630 C   0  0  0  0  0  0  0  0  0  0  0  0
   -3.7890   14.8600   -0.4560 C   0  0  0  0  0  0  0  0  0  0  0  0
   -3.2440   15.2270    0.7420 N   0  0  0  0  0  0  0  0  0  0  0  0
   -5.1410   14.7560   -0.2040 C   0  0  0  0  0  0  0  0  0  0  0  0
   -1.1280   14.8030   -3.3190 C   0  0  1  0  0  0  0  0  0  0  0  0
   -4.2680   15.3270    1.6440 C   0  0  0  0  0  0  0  0  0  0  0  0
   -5.4290   15.0370    1.0940 N   0  0  0  0  0  0  0  0  0  0  0  0
   -0.4110   15.9980   -3.6040 O   0  0  0  0  0  0  0  0  0  0  0  0
   -0.2140   13.7120   -3.8450 C   0  0  1  0  0  0  0  0  0  0  0  0
   -0.8430   12.4740   -4.1110 O   0  0  0  0  0  0  0  0  0  0  0  0
   -0.1120   15.8250   -4.9890 C   0  0  2  0  0  0  0  0  0  0  0  0
    0.2930   14.3440   -5.1300 C   0  0  1  0  0  0  0  0  0  0  0  0
    0.8840   16.8870   -5.4260 C   0  0  0  0  0  0  0  0  0  0  0  0
    1.6650   14.0650   -5.2450 O   0  0  0  0  0  0  0  0  0  0  0  0
  2  1  1  6
  2  3  1  0
  2  4  1  0
  4  5  1  0
  4  6  2  0
  7  3  1  1
  5  8  1  0
  6  9  1  0
  8  9  2  0
  7 10  1  0
  7 11  1  0
 11 12  1  6
 10 13  1  0
 11 14  1  0
 13 14  1  0
 13 15  1  1
 14 16  1  1
M  END
