mArh-5cms_L_11_L_β-mArh-5cms_J_9_J_α
     RDKit          3D

 19 19  0  0  0  0  0  0  0  0999 V2000
   -1.2300   20.3050   -8.8570 O   0  0  0  0  0  0  0  0  0  0  0  0
   -0.3870   19.4790   -7.8370 P   0  0  0  0  0  0  0  0  0  0  0  0
   -1.3300   19.2070   -6.6340 O   0  0  0  0  0  0  0  0  0  0  0  0
    0.8780   20.3900   -7.3620 N   0  0  0  0  0  0  0  0  0  0  0  0
   -0.0190   18.2370   -8.6870 O   0  0  0  0  0  0  0  0  0  0  0  0
   -1.7740   17.8640   -5.9690 P   0  0  0  0  0  0  0  0  0  0  0  0
    0.9210   21.5430   -8.1890 C   0  0  0  0  0  0  0  0  0  0  0  0
   -0.4440   17.0030   -5.8450 O   0  0  0  0  0  0  0  0  0  0  0  0
   -2.8950   17.1810   -6.6440 O   0  0  0  0  0  0  0  0  0  0  0  0
   -1.9850   18.2820   -4.4730 O   0  0  0  0  0  0  0  0  0  0  0  0
   -0.0790   22.6540   -7.9470 C   0  0  0  0  0  0  0  0  0  0  0  0
   -1.5540   22.4530   -8.3370 C   0  0  2  0  0  0  0  0  0  0  0  0
   -1.8070   21.6950   -9.5340 O   0  0  0  0  0  0  0  0  0  0  0  0
   -2.2460   23.7620   -8.5970 C   0  0  1  0  0  0  0  0  0  0  0  0
   -1.3990   24.6680   -9.2070 O   0  0  0  0  0  0  0  0  0  0  0  0
   -3.1820   21.9810   -9.7980 C   0  0  2  0  0  0  0  0  0  0  0  0
   -3.4470   23.4180   -9.4740 C   0  0  2  0  0  0  0  0  0  0  0  0
   -3.9830   21.2570   -8.9060 O   0  0  0  0  0  0  0  0  0  0  0  0
   -3.6660   24.2400  -10.6270 O   0  0  0  0  0  0  0  0  0  0  0  0
  1  2  1  0
  2  3  1  0
  2  4  2  3
  2  5  1  0
  3  6  1  0
  4  7  1  0
  6  8  1  0
  6  9  2  0
  6 10  1  0
  7 11  1  0
 12 11  1  6
 12 13  1  0
 12 14  1  0
 14 15  1  6
 13 16  1  0
 14 17  1  0
 16 17  1  0
 16 18  1  1
 17 19  1  6
M  END
