mArh-x0631_0_A_β-mArh-5cms_B_1_B_γ
     RDKit          3D

 17 18  0  0  0  0  0  0  0  0999 V2000
   -0.1920    8.8620   -6.5680 C   0  0  0  0  0  0  0  0  0  0  0  0
   -1.3420    8.2450   -7.3720 C   0  0  0  0  0  0  0  0  0  0  0  0
   -2.4840    9.2170   -7.6090 C   0  0  0  0  0  0  0  0  0  0  0  0
    0.6510    9.8010   -7.3430 N   0  0  0  0  0  0  0  0  0  0  0  0
    0.8080    9.3580   -8.7130 N   0  0  0  0  0  0  0  0  0  0  0  0
    0.0870   11.1250   -7.3340 N   0  0  0  0  0  0  0  0  0  0  0  0
    0.8210   12.0550   -6.3960 C   0  0  0  0  0  0  0  0  0  0  0  0
    0.8210   10.5820   -9.5000 C   0  0  0  0  0  0  0  0  0  0  0  0
    0.1560   11.6020   -8.7030 N   0  0  0  0  0  0  0  0  0  0  0  0
    0.1310   13.3140   -6.1110 O   0  0  0  0  0  0  0  0  0  0  0  0
    0.5530   13.9690   -4.9030 C   0  0  1  0  0  0  0  0  0  0  0  0
   -0.1410   15.3160   -4.6260 C   0  0  2  0  0  0  0  0  0  0  0  0
    0.1490   13.1510   -3.6670 C   0  0  2  0  0  0  0  0  0  0  0  0
   -0.8490   12.1830   -3.9960 O   0  0  0  0  0  0  0  0  0  0  0  0
    0.5130   16.5400   -5.2510 C   0  0  0  0  0  0  0  0  0  0  0  0
   -0.4030   14.1700   -2.6780 C   0  0  0  0  0  0  0  0  0  0  0  0
   -0.0960   15.4620   -3.2040 O   0  0  0  0  0  0  0  0  0  0  0  0
  1  2  1  0
  2  3  1  0
  1  4  1  0
  4  5  1  0
  4  6  1  0
  6  7  1  0
  5  8  1  0
  6  9  1  0
  8  9  1  0
  7 10  1  0
 11 10  1  6
 11 12  1  0
 11 13  1  0
 13 14  1  6
 12 15  1  6
 13 16  1  0
 12 17  1  0
 16 17  1  0
M  END
