mArh-EU0172_0_A_α-5LW0_0_A_γ
     RDKit          3D

 20 21  0  0  0  0  0  0  0  0999 V2000
   -8.0350   14.5620    2.0620 C   0  0  0  0  0  0  0  0  0  0  0  0
   -8.5160   14.4650    3.4460 N   0  0  0  0  0  0  0  0  0  0  0  0
   -6.5370   14.3040    2.0100 C   0  0  0  0  0  0  0  0  0  0  0  0
   -5.8110   14.6110    0.7840 N   0  0  0  0  0  0  0  0  0  0  0  0
   -4.4330   14.7240    0.8700 C   0  0  0  0  0  0  0  0  0  0  0  0
   -6.5100   14.9380   -0.3660 C   0  0  0  0  0  0  0  0  0  0  0  0
   -7.7230   15.0710   -0.4440 O   0  0  0  0  0  0  0  0  0  0  0  0
   -3.7040   14.9700   -0.2000 C   0  0  0  0  0  0  0  0  0  0  0  0
   -5.6810   15.1170   -1.5710 C   0  0  0  0  0  0  0  0  0  0  0  0
   -4.3540   15.1210   -1.4740 C   0  0  0  0  0  0  0  0  0  0  0  0
   -3.4950   15.2530   -2.6580 C   0  0  0  0  0  0  0  0  0  0  0  0
   -2.1500   14.5950   -2.4290 C   0  0  0  0  0  0  0  0  0  0  0  0
   -1.3770   14.5970   -3.7010 C   0  0  1  0  0  0  0  0  0  0  0  0
   -0.3050   15.4850   -3.5730 O   0  0  0  0  0  0  0  0  0  0  0  0
   -0.7670   13.2780   -4.2110 C   0  0  2  0  0  0  0  0  0  0  0  0
   -0.3240   12.4050   -3.1630 O   0  0  0  0  0  0  0  0  0  0  0  0
    0.2160   15.3050   -4.8600 C   0  0  2  0  0  0  0  0  0  0  0  0
    0.4680   13.7960   -4.9480 C   0  0  1  0  0  0  0  0  0  0  0  0
    1.3760   16.1950   -5.0050 C   0  0  0  0  0  0  0  0  0  0  0  0
    1.6630   13.3580   -4.3090 O   0  0  0  0  0  0  0  0  0  0  0  0
  1  2  1  0
  1  3  1  0
  3  4  1  0
  4  5  1  0
  4  6  1  0
  6  7  2  0
  5  8  2  0
  6  9  1  0
  8 10  1  0
  9 10  2  0
 10 11  1  0
 11 12  1  0
 13 12  1  1
 13 14  1  0
 13 15  1  0
 15 16  1  1
 14 17  1  0
 15 18  1  0
 17 18  1  0
 17 19  1  1
 18 20  1  1
M  END
