mArh-5cms_Q_16_Q_Î³
     RDKit          3D

  8  8  0  0  0  0  0  0  0  0999 V2000
   -0.8100   14.3810   -3.0000 C   0  0  0  0  0  0  0  0  0  0  0  0
   -0.0350   15.5400   -3.3710 O   0  0  0  0  0  0  0  0  0  0  0  0
   -1.2670   13.8020   -4.3420 C   0  0  1  0  0  0  0  0  0  0  0  0
    0.5160   15.3860   -4.6800 C   0  0  1  0  0  0  0  0  0  0  0  0
   -0.0390   14.0620   -5.1820 C   0  0  1  0  0  0  0  0  0  0  0  0
   -1.6030   12.4060   -4.3540 O   0  0  0  0  0  0  0  0  0  0  0  0
    0.1500   16.5570   -5.5880 C   0  0  0  0  0  0  0  0  0  0  0  0
    0.9200   13.0420   -4.9320 O   0  0  0  0  0  0  0  0  0  0  0  0
  1  2  1  1
  1  3  1  0
  4  2  1  0
  5  3  1  0
  3  6  1  1
  4  7  1  6
  4  5  1  0
  5  8  1  1
M  END
