mArh-x0228_0_B_β-5CMS_0_H_γ
     RDKit          3D

 24 25  0  0  0  0  0  0  0  0999 V2000
   -6.6920   25.3550  -13.9600 N   0  0  0  0  0  0  0  0  0  0  0  0
   -5.6700   25.1790  -13.0150 C   0  0  0  0  0  0  0  0  0  0  0  0
   -4.4440   25.8550  -13.1960 C   0  0  0  0  0  0  0  0  0  0  0  0
   -5.8810   24.3270  -11.8920 C   0  0  0  0  0  0  0  0  0  0  0  0
   -4.2860   26.6580  -14.3070 O   0  0  0  0  0  0  0  0  0  0  0  0
   -4.8700   24.1390  -10.9410 C   0  0  0  0  0  0  0  0  0  0  0  0
   -3.4880   25.6620  -12.2510 C   0  0  0  0  0  0  0  0  0  0  0  0
   -2.9600   26.7950  -14.8300 C   0  0  0  0  0  0  0  0  0  0  0  0
   -4.9140   23.2610   -9.6710 C   0  0  0  0  0  0  0  0  0  0  0  0
   -3.7440   24.8080  -11.1680 C   0  0  0  0  0  0  0  0  0  0  0  0
   -3.8340   22.1380   -9.5040 C   0  0  0  0  0  0  0  0  0  0  0  0
   -2.6710   22.3620   -8.4930 C   0  0  0  0  0  0  0  0  0  0  0  0
   -2.3470   21.1580   -7.5490 C   0  0  0  0  0  0  0  0  0  0  0  0
   -0.9730   20.4270   -7.6830 C   0  0  0  0  0  0  0  0  0  0  0  0
   -0.9660   18.8990   -7.3750 C   0  0  0  0  0  0  0  0  0  0  0  0
   -0.0200   18.3250   -6.2690 C   0  0  0  0  0  0  0  0  0  0  0  0
   -0.5400   17.1650   -5.3540 C   0  0  0  0  0  0  0  0  0  0  0  0
    0.4120   16.0610   -4.7870 C   0  0  1  0  0  0  0  0  0  0  0  0
    0.3940   16.0280   -3.3360 O   0  0  0  0  0  0  0  0  0  0  0  0
    0.1480   14.5860   -5.1550 C   0  0  1  0  0  0  0  0  0  0  0  0
    1.2640   13.7300   -4.9620 O   0  0  0  0  0  0  0  0  0  0  0  0
   -0.3520   14.8540   -2.9170 C   0  0  0  0  0  0  0  0  0  0  0  0
   -0.9590   14.2630   -4.1780 C   0  0  2  0  0  0  0  0  0  0  0  0
   -1.0890   12.8360   -4.1190 O   0  0  0  0  0  0  0  0  0  0  0  0
  1  2  1  0
  2  3  2  0
  2  4  1  0
  3  5  1  0
  4  6  2  0
  3  7  1  0
  5  8  1  0
  6  9  1  0
  6 10  1  0
  7 10  2  0
  9 11  1  0
 11 12  1  0
 12 13  1  0
 13 14  1  0
 14 15  1  0
 15 16  1  0
 16 17  1  0
 18 17  1  6
 18 19  1  0
 18 20  1  0
 20 21  1  1
 19 22  1  0
 20 23  1  0
 22 23  1  0
 23 24  1  1
M  END
