mArh-5cms_J_9_J_γ-mArh-5cb5_M_1_M_β
     RDKit          3D

 16 16  0  0  0  0  0  0  0  0999 V2000
   -2.0960   12.7600   -4.3660 O   0  0  0  0  0  0  0  0  0  0  0  0
   -0.8520   13.3580   -4.0390 C   0  0  2  0  0  0  0  0  0  0  0  0
   -0.9030   14.3310   -2.8510 C   0  0  0  0  0  0  0  0  0  0  0  0
   -0.3020   14.2150   -5.1700 C   0  0  2  0  0  0  0  0  0  0  0  0
    1.1190   14.0040   -5.1320 O   0  0  0  0  0  0  0  0  0  0  0  0
   -0.3990   15.5940   -3.3180 O   0  0  0  0  0  0  0  0  0  0  0  0
   -0.7680   15.6060   -4.7010 C   0  0  1  0  0  0  0  0  0  0  0  0
   -0.2090   16.8860   -5.3370 C   0  0  0  0  0  0  0  0  0  0  0  0
   -1.4340   18.1300   -5.8940 P   0  0  1  0  0  0  0  0  0  0  0  0
   -0.6290   19.3350   -6.4960 O   0  0  0  0  0  0  0  0  0  0  0  0
   -2.5120   17.6130   -6.8010 O   0  0  0  0  0  0  0  0  0  0  0  0
   -2.0290   18.9130   -4.6390 O   0  0  0  0  0  0  0  0  0  0  0  0
   -0.2630   19.7320   -7.9380 P   0  0  0  0  0  0  0  0  0  0  0  0
   -1.5190   20.5780   -8.4200 O   0  0  0  0  0  0  0  0  0  0  0  0
    0.1170   18.6570   -8.8690 O   0  0  0  0  0  0  0  0  0  0  0  0
    0.8240   20.8880   -7.7660 O   0  0  0  0  0  0  0  0  0  0  0  0
  2  1  1  6
  2  3  1  0
  2  4  1  0
  4  5  1  1
  3  6  1  0
  4  7  1  0
  6  7  1  0
  7  8  1  6
  8  9  1  0
  9 10  1  0
  9 11  2  0
  9 12  1  1
 10 13  1  0
 13 14  1  0
 13 15  2  0
 13 16  1  0
M  END
