mArh-5cb5_H_0_H_α-mArh-3vfq_B_0_A_γ
     RDKit          3D

 21 22  0  0  0  0  0  0  0  0999 V2000
   -1.6190   21.5490   -8.3950 C   0  0  0  0  0  0  0  0  0  0  0  0
   -2.9690   21.9710   -7.9110 C   0  0  2  0  0  0  0  0  0  0  0  0
   -4.0550   21.1930   -8.3530 O   0  0  0  0  0  0  0  0  0  0  0  0
   -3.5510   23.3660   -8.0020 C   0  0  1  0  0  0  0  0  0  0  0  0
   -4.2520   23.7300   -9.2060 O   0  0  0  0  0  0  0  0  0  0  0  0
   -4.8270   21.4770   -7.2130 C   0  0  2  0  0  0  0  0  0  0  0  0
   -4.5650   23.0090   -6.9170 C   0  0  2  0  0  0  0  0  0  0  0  0
   -4.2590   20.6780   -6.1510 O   0  0  0  0  0  0  0  0  0  0  0  0
   -5.7540   23.8240   -7.0260 O   0  0  0  0  0  0  0  0  0  0  0  0
   -3.2060   19.7440   -6.5910 C   0  0  0  0  0  0  0  0  0  0  0  0
   -2.1110   19.3710   -5.5510 C   0  0  0  0  0  0  0  0  0  0  0  0
   -1.5540   17.8900   -5.4420 C   0  0  0  0  0  0  0  0  0  0  0  0
   -2.4910   16.6260   -5.4120 C   0  0  0  0  0  0  0  0  0  0  0  0
   -2.1070   15.5080   -4.3980 C   0  0  0  0  0  0  0  0  0  0  0  0
   -3.2970   14.9650   -3.5540 C   0  0  2  0  0  0  0  0  0  0  0  0
   -3.0390   15.0540   -2.1220 O   0  0  0  0  0  0  0  0  0  0  0  0
   -3.6890   13.4880   -3.7530 C   0  0  1  0  0  0  0  0  0  0  0  0
   -2.5880   12.5890   -3.6610 O   0  0  0  0  0  0  0  0  0  0  0  0
   -3.8580   14.0540   -1.4620 C   0  0  0  0  0  0  0  0  0  0  0  0
   -4.6130   13.2900   -2.5550 C   0  0  2  0  0  0  0  0  0  0  0  0
   -4.7180   11.8840   -2.2680 O   0  0  0  0  0  0  0  0  0  0  0  0
  2  1  1  6
  2  3  1  0
  2  4  1  0
  4  5  1  6
  3  6  1  0
  4  7  1  0
  6  7  1  0
  6  8  1  1
  7  9  1  6
  8 10  1  0
 10 11  1  0
 11 12  1  0
 12 13  1  0
 13 14  1  0
 15 14  1  6
 15 16  1  0
 15 17  1  0
 17 18  1  1
 16 19  1  0
 17 20  1  0
 19 20  1  0
 20 21  1  1
M  END
