mArh-6woj_C_0_C_Î±
     RDKit          3D

  9  9  0  0  0  0  0  0  0  0999 V2000
   -1.5490   21.8220   -7.8430 C   0  0  0  0  0  0  0  0  0  0  0  0
   -2.9770   22.1530   -8.1890 C   0  0  1  0  0  0  0  0  0  0  0  0
   -3.8190   21.2500   -7.4430 O   0  0  0  0  0  0  0  0  0  0  0  0
   -3.4600   23.5710   -7.8610 C   0  0  2  0  0  0  0  0  0  0  0  0
   -4.8400   21.9660   -6.8060 C   0  0  2  0  0  0  0  0  0  0  0  0
   -4.2390   23.3530   -6.5750 C   0  0  2  0  0  0  0  0  0  0  0  0
   -4.3330   24.0200   -8.8890 O   0  0  0  0  0  0  0  0  0  0  0  0
   -5.1890   21.3410   -5.6190 O   0  0  0  0  0  0  0  0  0  0  0  0
   -5.2110   24.3560   -6.4000 O   0  0  0  0  0  0  0  0  0  0  0  0
  2  1  1  1
  3  2  1  0
  4  2  1  0
  5  3  1  0
  6  4  1  0
  4  7  1  6
  5  8  1  1
  5  6  1  0
  6  9  1  6
M  END
