mArh-x0895_0_A_α-mArh-x0371_0_A_α
     RDKit          3D

 17 18  0  0  0  0  0  0  0  0999 V2000
   -1.5330   14.6390    1.7580 O   0  0  0  0  0  0  0  0  0  0  0  0
   -2.6080   14.7590    1.1750 C   0  0  0  0  0  0  0  0  0  0  0  0
   -3.9680   14.9010    1.8240 C   0  0  0  0  0  0  0  0  0  0  0  0
   -2.7900   14.7760   -0.1680 N   0  0  0  0  0  0  0  0  0  0  0  0
   -4.8350   15.0840    0.6940 N   0  0  0  0  0  0  0  0  0  0  0  0
   -4.0690   15.1310   -0.4700 C   0  0  0  0  0  0  0  0  0  0  0  0
   -4.4640   15.4330   -1.5820 O   0  0  0  0  0  0  0  0  0  0  0  0
   -6.2170   14.5800    0.7580 C   0  0  0  0  0  0  0  0  0  0  0  0
   -6.7490   14.3790    2.2110 C   0  0  0  0  0  0  0  0  0  0  0  0
   -8.1930   14.5380    2.4780 N   0  0  0  0  0  0  0  0  0  0  0  0
   -8.7540   15.5490    3.2710 C   0  0  0  0  0  0  0  0  0  0  0  0
   -9.3980   16.4440    2.7330 O   0  0  0  0  0  0  0  0  0  0  0  0
   -8.5880   15.5090    4.7300 C   0  0  0  0  0  0  0  0  0  0  0  0
   -8.0660   14.3890    5.3180 O   0  0  0  0  0  0  0  0  0  0  0  0
   -8.8690   16.4280    5.7350 C   0  0  0  0  0  0  0  0  0  0  0  0
   -8.0110   14.5900    6.6570 C   0  0  0  0  0  0  0  0  0  0  0  0
   -8.4980   15.8330    6.9690 C   0  0  0  0  0  0  0  0  0  0  0  0
  1  2  2  0
  2  3  1  0
  2  4  1  0
  3  5  1  0
  4  6  1  0
  5  6  1  0
  6  7  2  0
  5  8  1  0
  8  9  1  0
  9 10  1  0
 10 11  1  0
 11 12  2  0
 11 13  1  0
 13 14  1  0
 13 15  2  0
 14 16  1  0
 15 17  1  0
 16 17  2  0
M  END
