mArh-5lw0_B_1_B_γ-mArh-5cms_N_13_N_γ
     RDKit          3D

  9  9  0  0  0  0  0  0  0  0999 V2000
   -0.6330   12.0490   -3.8520 O   0  0  0  0  0  0  0  0  0  0  0  0
   -0.6910   13.4680   -4.0380 C   0  0  1  0  0  0  0  0  0  0  0  0
   -0.6650   14.2150   -2.7140 C   0  0  0  0  0  0  0  0  0  0  0  0
    0.6170   13.9130   -4.6840 C   0  0  0  0  0  0  0  0  0  0  0  0
    1.6240   13.0270   -4.2270 O   0  0  0  0  0  0  0  0  0  0  0  0
    0.5850   13.8170   -6.0970 O   0  0  0  0  0  0  0  0  0  0  0  0
   -0.0790   15.4980   -2.9960 O   0  0  0  0  0  0  0  0  0  0  0  0
    0.7690   15.3640   -4.1660 C   0  0  2  0  0  0  0  0  0  0  0  0
    0.4280   16.4690   -5.1490 C   0  0  0  0  0  0  0  0  0  0  0  0
  2  1  1  1
  2  3  1  0
  2  4  1  0
  4  5  1  0
  4  6  1  0
  3  7  1  0
  4  8  1  0
  7  8  1  0
  8  9  1  6
M  END
