mArh-5lw0_B_1_B_α-5CMS_0_J_δ
     RDKit          3D

 24 26  0  0  0  0  0  0  0  0999 V2000
   -2.7270   22.1570   -7.7190 C   0  0  0  0  0  0  0  0  0  0  0  0
   -4.1600   21.8610   -7.2480 C   0  0  2  0  0  0  0  0  0  0  0  0
   -4.3950   20.4270   -7.0710 O   0  0  0  0  0  0  0  0  0  0  0  0
   -5.2800   22.4330   -8.1760 C   0  0  1  0  0  0  0  0  0  0  0  0
   -4.8270   22.8840   -9.4510 O   0  0  0  0  0  0  0  0  0  0  0  0
   -5.7840   20.3440   -7.2550 C   0  0  1  0  0  0  0  0  0  0  0  0
   -6.1460   21.2300   -8.4210 C   0  0  1  0  0  0  0  0  0  0  0  0
   -6.4850   19.0390   -7.1720 O   0  0  0  0  0  0  0  0  0  0  0  0
   -7.5340   21.4890   -8.5470 O   0  0  0  0  0  0  0  0  0  0  0  0
   -6.2790   17.5860   -7.5690 C   0  0  0  0  0  0  0  0  0  0  0  0
   -5.1510   16.5580   -7.0560 C   0  0  0  0  0  0  0  0  0  0  0  0
   -5.7090   15.2690   -6.3210 C   0  0  0  0  0  0  0  0  0  0  0  0
   -5.1620   14.7190   -4.9240 C   0  0  0  0  0  0  0  0  0  0  0  0
   -3.7180   14.9920   -4.3780 C   0  0  0  0  0  0  0  0  0  0  0  0
   -3.3330   15.1460   -2.8380 C   0  0  2  0  0  0  0  0  0  0  0  0
   -1.9270   14.8020   -2.5650 N   0  0  0  0  0  0  0  0  0  0  0  0
   -4.0700   14.4880   -1.7070 N   0  0  0  0  0  0  0  0  0  0  0  0
   -1.8750   14.4340   -1.1650 C   0  0  2  0  0  0  0  0  0  0  0  0
   -3.1740   14.9660   -0.6050 C   0  0  2  0  0  0  0  0  0  0  0  0
   -0.6590   14.7950   -0.4910 N   0  0  0  0  0  0  0  0  0  0  0  0
   -3.2690   14.4980    0.8700 C   0  0  2  0  0  0  0  0  0  0  0  0
   -4.0120   15.4260    1.7060 N   0  0  0  0  0  0  0  0  0  0  0  0
   -0.8160   15.0430    0.9270 C   0  0  0  0  0  0  0  0  0  0  0  0
   -1.9580   14.3470    1.5190 N   0  0  0  0  0  0  0  0  0  0  0  0
  2  1  1  6
  2  3  1  0
  2  4  1  0
  4  5  1  6
  3  6  1  0
  4  7  1  0
  6  7  1  0
  6  8  1  6
  7  9  1  1
  8 10  1  0
 10 11  1  0
 11 12  1  0
 12 13  1  0
 13 14  1  0
 15 14  1  6
 15 16  1  0
 15 17  1  0
 18 16  1  6
 19 17  1  6
 18 19  1  0
 18 20  1  0
 19 21  1  0
 21 22  1  1
 20 23  1  0
 21 24  1  0
 23 24  1  0
M  END
