mArh-3vfq_B_0_A_α-mArh-5cms_H_7_H_β
     RDKit          3D

 21 21  0  0  0  0  0  0  0  0999 V2000
   -4.6320   20.4590   -7.0870 C   0  0  0  0  0  0  0  0  0  0  0  0
   -5.6940   21.4560   -7.4790 C   0  0  1  0  0  0  0  0  0  0  0  0
   -5.0160   22.6890   -7.6460 O   0  0  0  0  0  0  0  0  0  0  0  0
   -6.5290   21.1990   -8.7440 C   0  0  1  0  0  0  0  0  0  0  0  0
   -7.9130   21.2670   -8.5810 O   0  0  0  0  0  0  0  0  0  0  0  0
   -5.2970   23.2350   -8.9280 C   0  0  2  0  0  0  0  0  0  0  0  0
   -6.1000   22.2440   -9.7490 C   0  0  2  0  0  0  0  0  0  0  0  0
   -4.0600   23.5150   -9.5560 O   0  0  0  0  0  0  0  0  0  0  0  0
   -7.2790   22.8350  -10.2910 O   0  0  0  0  0  0  0  0  0  0  0  0
   -3.0460   23.4100   -8.5480 C   0  0  0  0  0  0  0  0  0  0  0  0
   -2.5800   21.9750   -8.4310 C   0  0  0  0  0  0  0  0  0  0  0  0
   -1.2690   21.8350   -7.7040 C   0  0  0  0  0  0  0  0  0  0  0  0
   -0.5650   20.8200   -8.3880 O   0  0  0  0  0  0  0  0  0  0  0  0
   -0.3350   19.3940   -7.7150 P   0  0  2  0  0  0  0  0  0  0  0  0
   -1.7450   18.7630   -7.3630 O   0  0  0  0  0  0  0  0  0  0  0  0
    0.7440   19.3170   -6.7110 O   0  0  0  0  0  0  0  0  0  0  0  0
    0.0870   18.5410   -8.9750 O   0  0  0  0  0  0  0  0  0  0  0  0
   -1.9600   17.8180   -6.1270 P   0  0  0  0  0  0  0  0  0  0  0  0
   -0.5540   17.1410   -5.8430 O   0  0  0  0  0  0  0  0  0  0  0  0
   -3.0920   16.8620   -6.1830 O   0  0  0  0  0  0  0  0  0  0  0  0
   -2.0510   18.8140   -4.8820 O   0  0  0  0  0  0  0  0  0  0  0  0
  2  1  1  6
  2  3  1  0
  2  4  1  0
  4  5  1  1
  3  6  1  0
  4  7  1  0
  6  7  1  0
  6  8  1  6
  7  9  1  1
  8 10  1  0
 10 11  1  0
 11 12  1  0
 12 13  1  0
 13 14  1  0
 14 15  1  0
 14 16  2  0
 14 17  1  6
 15 18  1  0
 18 19  1  0
 18 20  2  0
 18 21  1  0
M  END
