mArh-x0962_0_A_α-mArh-6woj_B_0_B_α
     RDKit          3D

 22 23  0  0  0  0  0  0  0  0999 V2000
   -3.4600   14.1260   -2.7280 N   0  0  0  0  0  0  0  0  0  0  0  0
   -2.7150   14.7230   -1.6450 C   0  0  1  0  0  0  0  0  0  0  0  0
   -2.0710   15.9630   -2.2390 C   0  0  0  0  0  0  0  0  0  0  0  0
   -3.6800   14.9070   -0.5090 C   0  0  0  0  0  0  0  0  0  0  0  0
   -2.2100   16.0840   -3.7830 C   0  0  0  0  0  0  0  0  0  0  0  0
   -3.2810   15.2850    0.7570 N   0  0  0  0  0  0  0  0  0  0  0  0
   -5.0490   14.7680   -0.3980 C   0  0  0  0  0  0  0  0  0  0  0  0
   -1.2470   17.0700   -4.4740 C   0  0  0  0  0  0  0  0  0  0  0  0
   -4.4000   15.3510    1.5420 C   0  0  0  0  0  0  0  0  0  0  0  0
   -5.4820   15.0380    0.8690 N   0  0  0  0  0  0  0  0  0  0  0  0
   -1.8670   17.8530   -5.6510 C   0  0  0  0  0  0  0  0  0  0  0  0
   -1.9020   19.3820   -5.4880 C   0  0  0  0  0  0  0  0  0  0  0  0
   -2.8150   20.1590   -6.4260 C   0  0  0  0  0  0  0  0  0  0  0  0
   -3.8980   20.8660   -5.7520 O   0  0  0  0  0  0  0  0  0  0  0  0
   -4.5670   21.7290   -6.6970 C   0  0  2  0  0  0  0  0  0  0  0  0
   -3.9970   21.3060   -7.9400 O   0  0  0  0  0  0  0  0  0  0  0  0
   -4.2460   23.2390   -6.5590 C   0  0  2  0  0  0  0  0  0  0  0  0
   -5.3530   24.1030   -6.2930 O   0  0  0  0  0  0  0  0  0  0  0  0
   -3.0330   22.2670   -8.3740 C   0  0  1  0  0  0  0  0  0  0  0  0
   -3.5630   23.5970   -7.8880 C   0  0  1  0  0  0  0  0  0  0  0  0
   -1.6410   21.9430   -7.8400 C   0  0  0  0  0  0  0  0  0  0  0  0
   -4.5290   24.0800   -8.8390 O   0  0  0  0  0  0  0  0  0  0  0  0
  2  1  1  6
  2  3  1  0
  2  4  1  0
  3  5  1  0
  4  6  1  0
  4  7  2  0
  5  8  1  0
  6  9  1  0
  7 10  1  0
  9 10  2  0
  8 11  1  0
 11 12  1  0
 12 13  1  0
 13 14  1  0
 15 14  1  1
 15 16  1  0
 15 17  1  0
 17 18  1  6
 16 19  1  0
 17 20  1  0
 19 20  1  0
 19 21  1  1
 20 22  1  6
M  END
