mArh-x0837_0_A_α-mArh-1hjz_A_0_A_α
     RDKit          3D

 25 26  0  0  0  0  0  0  0  0999 V2000
   -7.4610   14.5820    0.1750 O   0  0  0  0  0  0  0  0  0  0  0  0
   -6.2410   14.8240    0.1800 C   0  0  0  0  0  0  0  0  0  0  0  0
   -5.5080   14.8890    1.4370 N   0  0  0  0  0  0  0  0  0  0  0  0
   -5.4380   15.0800   -1.0770 C   0  0  0  0  0  0  0  0  0  0  0  0
   -4.2160   15.4450    1.3720 C   0  0  0  0  0  0  0  0  0  0  0  0
   -4.0200   14.6730   -0.8640 C   0  0  1  0  0  0  0  0  0  0  0  0
   -2.8610   15.2370   -2.5710 I   0  0  0  0  0  0  0  0  0  0  0  0
   -3.4830   15.3570    0.2980 C   0  0  0  0  0  0  0  0  0  0  0  0
   -0.8280   15.5780   -2.1020 C   0  0  0  0  0  0  0  0  0  0  0  0
    0.0540   15.6380   -3.3380 C   0  0  0  0  0  0  0  0  0  0  0  0
    0.3400   17.0620   -3.7130 C   0  0  0  0  0  0  0  0  0  0  0  0
   -0.5180   17.5900   -4.8180 C   0  0  0  0  0  0  0  0  0  0  0  0
    0.2480   18.3370   -5.8660 C   0  0  0  0  0  0  0  0  0  0  0  0
   -0.5070   19.4300   -6.2480 O   0  0  0  0  0  0  0  0  0  0  0  0
   -0.1630   20.0470   -7.7480 S   0  0  0  0  0  0  0  0  0  0  0  0
    1.0860   20.8760   -7.6650 O   0  0  0  0  0  0  0  0  0  0  0  0
    0.1120   18.8840   -8.6850 O   0  0  0  0  0  0  0  0  0  0  0  0
   -1.4570   21.1250   -8.3250 C   0  0  0  0  0  0  0  0  0  0  0  0
   -2.1680   21.7890   -7.1890 C   0  0  0  0  0  0  0  0  0  0  0  0
   -3.4770   22.2740   -7.5400 N   0  0  0  0  0  0  0  0  0  0  0  0
   -3.5320   22.7630   -8.9020 C   0  0  0  0  0  0  0  0  0  0  0  0
   -3.8250   23.3910   -6.7280 C   0  0  0  0  0  0  0  0  0  0  0  0
   -4.9790   23.0460   -9.2460 C   0  0  0  0  0  0  0  0  0  0  0  0
   -5.2360   23.8180   -7.1140 C   0  0  0  0  0  0  0  0  0  0  0  0
   -5.3480   24.1230   -8.4410 O   0  0  0  0  0  0  0  0  0  0  0  0
  1  2  2  0
  2  3  1  0
  2  4  1  0
  3  5  1  0
  4  6  1  0
  6  7  1  6
  5  8  2  0
  6  8  1  0
  7  9  1  0
  9 10  1  0
 10 11  1  0
 11 12  1  0
 12 13  1  0
 13 14  1  0
 15 14  1  0
 15 16  2  0
 15 17  2  0
 15 18  1  0
 18 19  1  0
 19 20  1  0
 20 21  1  0
 20 22  1  0
 21 23  1  0
 22 24  1  0
 23 25  1  0
 24 25  1  0
M  END
