mArh-x0918_0_B_α-5CB5_0_C_α
     RDKit          3D

 19 20  0  0  0  0  0  0  0  0999 V2000
   -3.4410   29.8730  -14.1900 N   0  0  0  0  0  0  0  0  0  0  0  0
   -4.6350   29.3600  -13.6730 C   0  0  0  0  0  0  0  0  0  0  0  0
   -4.7520   28.9530  -12.3370 C   0  0  0  0  0  0  0  0  0  0  0  0
   -5.7440   29.2510  -14.4860 C   0  0  0  0  0  0  0  0  0  0  0  0
   -6.9020   28.7430  -13.9460 C   0  0  0  0  0  0  0  0  0  0  0  0
   -5.9670   28.4390  -11.8650 C   0  0  0  0  0  0  0  0  0  0  0  0
   -6.2240   27.9970  -10.4340 C   0  0  0  0  0  0  0  0  0  0  0  0
   -7.0330   28.3390  -12.6710 N   0  0  0  0  0  0  0  0  0  0  0  0
   -6.2470   26.5730   -9.7200 C   0  0  0  0  0  0  0  0  0  0  0  0
   -5.9230   25.1800  -10.3270 C   0  0  0  0  0  0  0  0  0  0  0  0
   -4.7380   24.5870   -9.6960 O   0  0  0  0  0  0  0  0  0  0  0  0
   -4.9200   23.3830   -8.8740 C   0  0  1  0  0  0  0  0  0  0  0  0
   -3.7490   22.3700   -8.9640 C   0  0  1  0  0  0  0  0  0  0  0  0
   -4.7590   23.5000   -7.3500 C   0  0  1  0  0  0  0  0  0  0  0  0
   -2.4240   22.7160   -8.2930 C   0  0  0  0  0  0  0  0  0  0  0  0
   -5.6840   24.2720   -6.5890 O   0  0  0  0  0  0  0  0  0  0  0  0
   -4.2640   21.3160   -8.1670 O   0  0  0  0  0  0  0  0  0  0  0  0
   -4.7630   21.9850   -6.9970 C   0  0  2  0  0  0  0  0  0  0  0  0
   -6.0380   21.4630   -6.6430 O   0  0  0  0  0  0  0  0  0  0  0  0
  1  2  1  0
  2  3  2  0
  2  4  1  0
  4  5  2  0
  3  6  1  0
  6  7  1  0
  5  8  1  0
  6  8  2  0
  7  9  1  0
  9 10  1  0
 10 11  1  0
 12 11  1  6
 12 13  1  0
 12 14  1  0
 13 15  1  1
 14 16  1  1
 13 17  1  0
 14 18  1  0
 17 18  1  0
 18 19  1  6
M  END
