mArh-5cms_M_12_M_α-mArh-5cb5_I_0_I_β
     RDKit          3D

 17 17  0  0  0  0  0  0  0  0999 V2000
   -1.8760   21.5770   -8.6430 C   0  0  0  0  0  0  0  0  0  0  0  0
   -0.7110   20.3810   -7.9450 P   0  0  2  0  0  0  0  0  0  0  0  0
   -1.3840   19.8870   -6.5910 O   0  0  0  0  0  0  0  0  0  0  0  0
   -1.5730   22.1490  -10.0310 C   0  0  1  0  0  0  0  0  0  0  0  0
    0.7130   20.8140   -7.7720 O   0  0  0  0  0  0  0  0  0  0  0  0
   -0.7740   19.0000   -8.7690 O   0  0  0  0  0  0  0  0  0  0  0  0
   -2.4630   21.6010  -11.0290 O   0  0  0  0  0  0  0  0  0  0  0  0
   -1.6700   23.6650  -10.2330 C   0  0  1  0  0  0  0  0  0  0  0  0
   -0.5770   24.1200  -11.0330 O   0  0  0  0  0  0  0  0  0  0  0  0
   -1.6340   18.3560   -6.2570 P   0  0  0  0  0  0  0  0  0  0  0  0
   -3.5760   22.4990  -11.0860 C   0  0  1  0  0  0  0  0  0  0  0  0
   -2.9980   23.9050  -10.9610 C   0  0  2  0  0  0  0  0  0  0  0  0
   -4.3900   22.3560  -12.2310 O   0  0  0  0  0  0  0  0  0  0  0  0
   -2.7850   24.5510  -12.2450 O   0  0  0  0  0  0  0  0  0  0  0  0
   -0.1990   17.6800   -6.3560 O   0  0  0  0  0  0  0  0  0  0  0  0
   -2.6680   17.6350   -7.0120 O   0  0  0  0  0  0  0  0  0  0  0  0
   -1.8490   18.2900   -4.6880 O   0  0  0  0  0  0  0  0  0  0  0  0
  1  2  1  0
  2  3  1  0
  4  1  1  1
  2  5  2  0
  2  6  1  6
  4  7  1  0
  4  8  1  0
  8  9  1  6
  3 10  1  0
  7 11  1  0
  8 12  1  0
 11 12  1  0
 11 13  1  6
 12 14  1  6
 10 15  1  0
 10 16  2  0
 10 17  1  0
M  END
