mArh-5cb3_0_A_γ-6WOJ_0_A_β
     RDKit          3D

 16 16  0  0  0  0  0  0  0  0999 V2000
   -1.7270   12.9020   -4.1060 O   0  0  0  0  0  0  0  0  0  0  0  0
   -0.5080   13.5190   -3.8500 C   0  0  2  0  0  0  0  0  0  0  0  0
   -0.5860   14.5460   -2.7230 C   0  0  0  0  0  0  0  0  0  0  0  0
   -0.0200   14.3180   -5.0310 C   0  0  2  0  0  0  0  0  0  0  0  0
    1.3590   14.1210   -5.0740 O   0  0  0  0  0  0  0  0  0  0  0  0
    0.0120   15.6920   -3.2590 O   0  0  0  0  0  0  0  0  0  0  0  0
   -0.4230   15.6680   -4.5670 C   0  0  1  0  0  0  0  0  0  0  0  0
    0.0100   16.9060   -5.3500 C   0  0  0  0  0  0  0  0  0  0  0  0
   -1.3170   17.9990   -5.6990 P   0  0  0  0  0  0  0  0  0  0  0  0
   -0.4950   19.2310   -6.0750 O   0  0  0  0  0  0  0  0  0  0  0  0
   -1.8290   19.0200   -4.4600 O   0  0  0  0  0  0  0  0  0  0  0  0
   -2.2150   18.0430   -7.0320 O   0  0  0  0  0  0  0  0  0  0  0  0
    0.0530   19.6600   -7.5090 P   0  0  0  0  0  0  0  0  0  0  0  0
   -1.2670   20.3160   -7.9390 O   0  0  0  0  0  0  0  0  0  0  0  0
    0.8080   21.1470   -7.7220 O   0  0  0  0  0  0  0  0  0  0  0  0
    0.0810   18.5690   -8.7370 O   0  0  0  0  0  0  0  0  0  0  0  0
  2  1  1  6
  2  3  1  0
  2  4  1  0
  4  5  1  1
  3  6  1  0
  4  7  1  0
  6  7  1  0
  7  8  1  6
  8  9  1  0
  9 10  1  0
  9 11  1  0
  9 12  1  0
 10 13  1  0
 13 14  1  0
 13 15  1  0
 13 16  1  0
M  CHG  2  11  -1  15  -1
M  END
