mArh-2bfq_0_A_γ-2BFQ_1_A_α
     RDKit          3D

 21 22  0  0  0  0  0  0  0  0999 V2000
   -0.8730   12.7720   -4.0570 O   0  0  0  0  0  0  0  0  0  0  0  0
   -0.9720   14.1780   -3.9400 C   0  0  1  0  0  0  0  0  0  0  0  0
   -0.5340   14.7170   -2.5800 C   0  0  0  0  0  0  0  0  0  0  0  0
   -0.0040   14.9170   -4.8480 C   0  0  2  0  0  0  0  0  0  0  0  0
    1.2900   14.3230   -4.7440 O   0  0  0  0  0  0  0  0  0  0  0  0
    0.1210   15.9780   -2.8460 O   0  0  0  0  0  0  0  0  0  0  0  0
   -0.2290   16.2810   -4.2030 C   0  0  1  0  0  0  0  0  0  0  0  0
    0.4490   17.5680   -4.6990 C   0  0  0  0  0  0  0  0  0  0  0  0
    0.4860   17.6730   -6.2110 C   0  0  0  0  0  0  0  0  0  0  0  0
    0.4180   19.0220   -6.9520 C   0  0  0  0  0  0  0  0  0  0  0  0
   -0.9670   19.7160   -6.9820 C   0  0  0  0  0  0  0  0  0  0  0  0
   -1.1260   20.7430   -8.1270 C   0  0  0  0  0  0  0  0  0  0  0  0
   -1.5360   22.1800   -7.7300 C   0  0  0  0  0  0  0  0  0  0  0  0
   -2.9920   22.4410   -7.2700 C   0  0  2  0  0  0  0  0  0  0  0  0
   -3.9680   21.5060   -7.7010 O   0  0  0  0  0  0  0  0  0  0  0  0
   -3.6690   23.7600   -7.6630 C   0  0  1  0  0  0  0  0  0  0  0  0
   -3.9010   24.0480   -9.0300 O   0  0  0  0  0  0  0  0  0  0  0  0
   -5.0980   22.0260   -6.9750 C   0  0  1  0  0  0  0  0  0  0  0  0
   -5.0260   23.5500   -7.0660 C   0  0  1  0  0  0  0  0  0  0  0  0
   -6.3250   21.6330   -7.5440 O   0  0  0  0  0  0  0  0  0  0  0  0
   -5.2300   24.2340   -5.8550 O   0  0  0  0  0  0  0  0  0  0  0  0
  2  1  1  1
  2  3  1  0
  2  4  1  0
  4  5  1  1
  3  6  1  0
  4  7  1  0
  6  7  1  0
  7  8  1  6
  8  9  1  0
  9 10  1  0
 10 11  1  0
 11 12  1  0
 12 13  1  0
 14 13  1  6
 14 15  1  0
 14 16  1  0
 16 17  1  6
 15 18  1  0
 16 19  1  0
 18 19  1  0
 18 20  1  6
 19 21  1  1
M  END
