mArh-EU0087_0_A_α-mArh-mac-194_0_A_α
     RDKit          3D

 21 23  0  0  0  0  0  0  0  0999 V2000
   -3.0550   15.8960   -1.7850 N   0  0  0  0  0  0  0  0  0  0  0  0
   -3.7720   15.1480   -2.7290 C   0  0  0  0  0  0  0  0  0  0  0  0
   -3.5300   15.5010   -4.1730 C   0  0  0  0  0  0  0  0  0  0  0  0
   -1.9350   15.5910   -1.0740 C   0  0  0  0  0  0  0  0  0  0  0  0
   -4.5790   14.2080   -2.3960 N   0  0  0  0  0  0  0  0  0  0  0  0
   -1.7850   15.5010    0.2360 N   0  0  0  0  0  0  0  0  0  0  0  0
   -0.4880   15.2670   -1.9600 S   0  0  0  0  0  0  0  0  0  0  0  0
    0.3570   14.9890   -0.5010 C   0  0  0  0  0  0  0  0  0  0  0  0
   -0.4880   15.1590    0.5640 C   0  0  0  0  0  0  0  0  0  0  0  0
   -4.4940   14.0880   -1.0630 C   0  0  0  0  0  0  0  0  0  0  0  0
   -5.4570   14.2390   -0.0700 C   0  0  0  0  0  0  0  0  0  0  0  0
   -3.1790   13.7760   -0.7480 C   0  0  0  0  0  0  0  0  0  0  0  0
   -6.9000   14.5690   -0.2520 C   0  0  0  0  0  0  0  0  0  0  0  0
   -5.0290   14.0680    1.2400 C   0  0  0  0  0  0  0  0  0  0  0  0
   -2.7760   13.6160    0.5370 C   0  0  0  0  0  0  0  0  0  0  0  0
   -7.4370   14.8170   -1.3250 O   0  0  0  0  0  0  0  0  0  0  0  0
   -7.6570   14.5860    0.9090 N   0  0  0  0  0  0  0  0  0  0  0  0
   -5.8680   14.1950    2.3170 N   0  0  0  0  0  0  0  0  0  0  0  0
   -3.7020   13.7620    1.5280 C   0  0  0  0  0  0  0  0  0  0  0  0
   -7.0950   14.4440    2.1470 C   0  0  0  0  0  0  0  0  0  0  0  0
   -7.8270   14.5640    3.2700 N   0  0  0  0  0  0  0  0  0  0  0  0
  1  2  1  0
  2  3  1  0
  1  4  1  0
  2  5  2  3
  4  6  2  0
  4  7  1  0
  7  8  1  0
  6  9  1  0
  8  9  2  0
  5 10  1  0
 10 11  1  0
 10 12  2  0
 11 13  1  0
 11 14  2  0
 12 15  1  0
 13 16  2  0
 13 17  1  0
 14 18  1  0
 14 19  1  0
 15 19  2  0
 17 20  1  0
 18 20  2  0
 20 21  1  0
M  END
