mArh-5lw0_A_0_A_β-4IQY_0_B_α
     RDKit          3D

 19 19  0  0  0  0  0  0  0  0999 V2000
   -1.9360   18.9990   -7.7720 O   0  0  0  0  0  0  0  0  0  0  0  0
   -0.3830   18.9930   -7.6780 P   0  0  1  0  0  0  0  0  0  0  0  0
   -0.2240   18.1390   -6.3810 O   0  0  0  0  0  0  0  0  0  0  0  0
    0.1970   18.3820   -8.8850 O   0  0  0  0  0  0  0  0  0  0  0  0
   -0.0040   20.5010   -7.4300 O   0  0  0  0  0  0  0  0  0  0  0  0
   -1.4900   17.4560   -5.7250 P   0  0  0  0  0  0  0  0  0  0  0  0
   -0.8210   21.4720   -8.0540 C   0  0  0  0  0  0  0  0  0  0  0  0
   -0.9550   16.1600   -4.9750 O   0  0  0  0  0  0  0  0  0  0  0  0
   -2.6270   17.1740   -6.6390 O   0  0  0  0  0  0  0  0  0  0  0  0
   -1.8980   18.4630   -4.5860 O   0  0  0  0  0  0  0  0  0  0  0  0
   -2.2180   21.5230   -7.4820 C   0  0  0  0  0  0  0  0  0  0  0  0
   -3.3010   21.8860   -8.4860 C   0  0  1  0  0  0  0  0  0  0  0  0
   -4.4120   21.0050   -8.2600 O   0  0  0  0  0  0  0  0  0  0  0  0
   -3.8730   23.2820   -8.2840 C   0  0  1  0  0  0  0  0  0  0  0  0
   -4.7250   23.7320   -9.3540 O   0  0  0  0  0  0  0  0  0  0  0  0
   -5.1380   21.5680   -7.1850 C   0  0  1  0  0  0  0  0  0  0  0  0
   -4.6760   23.0310   -7.0100 C   0  0  2  0  0  0  0  0  0  0  0  0
   -6.5040   21.4980   -7.5160 O   0  0  0  0  0  0  0  0  0  0  0  0
   -5.7460   23.9590   -6.8550 O   0  0  0  0  0  0  0  0  0  0  0  0
  2  1  1  6
  2  3  1  0
  2  4  2  0
  2  5  1  0
  3  6  1  0
  5  7  1  0
  6  8  1  0
  6  9  2  0
  6 10  1  0
  7 11  1  0
 12 11  1  1
 12 13  1  0
 12 14  1  0
 14 15  1  6
 13 16  1  0
 14 17  1  0
 16 17  1  0
 16 18  1  6
 17 19  1  6
M  END
