mArh-mac-194_0_A_α-mArh-5cb5_I_0_I_α
     RDKit          3D

 26 28  0  0  0  0  0  0  0  0999 V2000
   -7.5000   14.5420    2.3500 N   0  0  0  0  0  0  0  0  0  0  0  0
   -6.6090   14.6070    1.3200 C   0  0  0  0  0  0  0  0  0  0  0  0
   -5.3600   14.5560    1.6460 N   0  0  0  0  0  0  0  0  0  0  0  0
   -7.0740   14.7270    0.0030 N   0  0  0  0  0  0  0  0  0  0  0  0
   -6.1800   14.8590   -1.0820 C   0  0  0  0  0  0  0  0  0  0  0  0
   -4.4170   14.6050    0.6170 C   0  0  0  0  0  0  0  0  0  0  0  0
   -6.2060   15.0520   -2.3810 N   0  0  0  0  0  0  0  0  0  0  0  0
   -4.7710   14.7490   -0.7100 C   0  0  0  0  0  0  0  0  0  0  0  0
   -3.0610   14.5010    0.9270 C   0  0  0  0  0  0  0  0  0  0  0  0
   -4.7650   15.0840   -2.8620 C   0  0  0  0  0  0  0  0  0  0  0  0
   -2.0970   14.5390   -0.0880 C   0  0  0  0  0  0  0  0  0  0  0  0
   -3.8200   14.7880   -1.7230 C   0  0  0  0  0  0  0  0  0  0  0  0
   -4.3320   15.0200   -4.3770 C   0  0  0  0  0  0  0  0  0  0  0  0
   -2.4810   14.6830   -1.4140 C   0  0  0  0  0  0  0  0  0  0  0  0
   -3.1250   15.9910   -4.7690 C   0  0  0  0  0  0  0  0  0  0  0  0
   -3.2880   16.7280   -6.1350 C   0  0  0  0  0  0  0  0  0  0  0  0
   -2.7690   18.2450   -6.3820 C   0  0  0  0  0  0  0  0  0  0  0  0
   -3.8190   19.2820   -6.7920 O   0  0  0  0  0  0  0  0  0  0  0  0
   -3.4460   20.6850   -6.8720 C   0  0  1  0  0  0  0  0  0  0  0  0
   -2.6770   20.7160   -8.0510 O   0  0  0  0  0  0  0  0  0  0  0  0
   -4.5360   21.8430   -7.0290 C   0  0  2  0  0  0  0  0  0  0  0  0
   -5.9020   21.4950   -6.7410 O   0  0  0  0  0  0  0  0  0  0  0  0
   -2.9400   21.9320   -8.6930 C   0  0  1  0  0  0  0  0  0  0  0  0
   -4.4020   22.2250   -8.5090 C   0  0  2  0  0  0  0  0  0  0  0  0
   -1.9880   22.9130   -8.0560 C   0  0  0  0  0  0  0  0  0  0  0  0
   -4.8550   23.5220   -8.9260 O   0  0  0  0  0  0  0  0  0  0  0  0
  1  2  1  0
  2  3  2  0
  2  4  1  0
  4  5  1  0
  3  6  1  0
  5  7  2  3
  5  8  1  0
  6  8  2  0
  6  9  1  0
  7 10  1  0
  9 11  2  0
  8 12  1  0
 10 13  1  0
 11 14  1  0
 12 14  2  0
 13 15  1  0
 15 16  1  0
 16 17  1  0
 17 18  1  0
 19 18  1  6
 19 20  1  0
 19 21  1  0
 21 22  1  6
 20 23  1  0
 21 24  1  0
 23 24  1  0
 23 25  1  1
 24 26  1  1
M  END
