mArh-5cb5_R_0_R_Î±
     RDKit          3D

  9  9  0  0  0  0  0  0  0  0999 V2000
   -2.0870   21.5350   -8.4170 C   0  0  0  0  0  0  0  0  0  0  0  0
   -3.4040   21.7620   -9.0900 C   0  0  1  0  0  0  0  0  0  0  0  0
   -4.4220   20.9200   -8.5150 O   0  0  0  0  0  0  0  0  0  0  0  0
   -3.7940   23.1450   -8.7320 C   0  0  2  0  0  0  0  0  0  0  0  0
   -5.1020   21.5860   -7.4380 C   0  0  2  0  0  0  0  0  0  0  0  0
   -4.3870   22.9370   -7.3510 C   0  0  2  0  0  0  0  0  0  0  0  0
   -4.7750   23.5640   -9.6740 O   0  0  0  0  0  0  0  0  0  0  0  0
   -4.9890   20.7190   -6.2830 O   0  0  0  0  0  0  0  0  0  0  0  0
   -5.2610   24.0380   -7.0630 O   0  0  0  0  0  0  0  0  0  0  0  0
  2  1  1  1
  3  2  1  0
  4  2  1  0
  5  3  1  0
  6  4  1  0
  4  7  1  6
  5  8  1  1
  5  6  1  0
  6  9  1  6
M  END
