mArh-5cb5_J_2_J_Î²
     RDKit          3D

  9  8  0  0  0  0  0  0  0  0999 V2000
   -1.6430   20.2310   -8.9900 O   0  0  0  0  0  0  0  0  0  0  0  0
   -0.2740   19.5070   -8.4530 P   0  0  2  0  0  0  0  0  0  0  0  0
   -0.5980   19.1320   -6.9260 O   0  0  0  0  0  0  0  0  0  0  0  0
    0.9420   20.4550   -8.3860 O   0  0  0  0  0  0  0  0  0  0  0  0
    0.0620   18.2430   -9.2360 O   0  0  0  0  0  0  0  0  0  0  0  0
   -1.8290   18.2300   -6.4550 P   0  0  2  0  0  0  0  0  0  0  0  0
   -1.2320   17.1200   -5.5300 O   0  0  0  0  0  0  0  0  0  0  0  0
   -2.5990   17.5100   -7.5460 O   0  0  0  0  0  0  0  0  0  0  0  0
   -2.5540   19.1580   -5.4830 O   0  0  0  0  0  0  0  0  0  0  0  0
  2  1  1  6
  3  2  1  0
  2  4  2  0
  2  5  1  0
  6  3  1  0
  6  7  1  1
  6  8  2  0
  6  9  1  0
M  END
