mArh-5cb5_B_0_B_β-5CB5_0_D_β
     RDKit          3D

  9  8  0  0  0  0  0  0  0  0999 V2000
   -1.6440   20.3380   -8.2200 O   0  0  0  0  0  0  0  0  0  0  0  0
   -0.2220   19.7890   -7.7570 P   0  0  0  0  0  0  0  0  0  0  0  0
   -0.4330   19.0020   -6.4250 O   0  0  0  0  0  0  0  0  0  0  0  0
    0.8220   20.8370   -7.7530 O   0  0  0  0  0  0  0  0  0  0  0  0
    0.0450   18.6470   -8.8420 O   0  0  0  0  0  0  0  0  0  0  0  0
   -1.7220   18.2350   -5.9560 P   0  0  0  0  0  0  0  0  0  0  0  0
   -1.1990   16.8540   -5.3670 O   0  0  0  0  0  0  0  0  0  0  0  0
   -2.7400   18.0720   -7.0080 O   0  0  0  0  0  0  0  0  0  0  0  0
   -2.1840   19.0830   -4.6950 O   0  0  0  0  0  0  0  0  0  0  0  0
  1  2  1  0
  2  3  1  0
  2  4  2  0
  2  5  1  0
  3  6  1  0
  6  7  1  0
  6  8  2  0
  6  9  1  0
M  END
