mArh-5cb5_I_0_I_β-mArh-5cb5_D_0_D_β
     RDKit          3D

  9  8  0  0  0  0  0  0  0  0999 V2000
   -1.2740   20.7780   -8.8290 O   0  0  0  0  0  0  0  0  0  0  0  0
   -0.3340   19.9410   -7.8610 P   0  0  0  0  0  0  0  0  0  0  0  0
   -1.2830   19.6050   -6.6680 O   0  0  0  0  0  0  0  0  0  0  0  0
    0.9570   20.6030   -7.5760 O   0  0  0  0  0  0  0  0  0  0  0  0
   -0.1530   18.5970   -8.7190 O   0  0  0  0  0  0  0  0  0  0  0  0
   -1.6050   18.1590   -6.1510 P   0  0  0  0  0  0  0  0  0  0  0  0
   -0.2090   17.4030   -6.1860 O   0  0  0  0  0  0  0  0  0  0  0  0
   -2.6690   17.4830   -6.9090 O   0  0  0  0  0  0  0  0  0  0  0  0
   -1.8620   18.3020   -4.5990 O   0  0  0  0  0  0  0  0  0  0  0  0
  1  2  1  0
  2  3  1  0
  2  4  2  0
  2  5  1  0
  3  6  1  0
  6  7  1  0
  6  8  2  0
  6  9  1  0
M  END
