mArh-5lw0_B_1_B_α-mArh-x0689_0_A_α
     RDKit          3D

 24 25  0  0  0  0  0  0  0  0999 V2000
   -2.5330   21.8210   -8.3130 C   0  0  0  0  0  0  0  0  0  0  0  0
   -3.8890   21.6510   -8.9720 C   0  0  1  0  0  0  0  0  0  0  0  0
   -4.5500   20.5440   -8.3890 O   0  0  0  0  0  0  0  0  0  0  0  0
   -4.8810   22.7620   -8.8050 C   0  0  1  0  0  0  0  0  0  0  0  0
   -5.7460   22.7440   -9.9560 O   0  0  0  0  0  0  0  0  0  0  0  0
   -5.2570   20.8880   -7.2670 C   0  0  2  0  0  0  0  0  0  0  0  0
   -5.7070   22.3200   -7.6080 C   0  0  1  0  0  0  0  0  0  0  0  0
   -4.4190   20.6550   -6.1090 O   0  0  0  0  0  0  0  0  0  0  0  0
   -5.6000   23.2440   -6.5340 O   0  0  0  0  0  0  0  0  0  0  0  0
   -3.0300   20.3270   -6.4890 C   0  0  0  0  0  0  0  0  0  0  0  0
   -2.2300   19.2720   -5.6560 C   0  0  0  0  0  0  0  0  0  0  0  0
   -2.3390   17.7530   -6.0390 C   0  0  0  0  0  0  0  0  0  0  0  0
   -1.8890   16.6980   -4.9730 C   0  0  0  0  0  0  0  0  0  0  0  0
   -2.9690   15.6880   -4.3990 C   0  0  0  0  0  0  0  0  0  0  0  0
   -2.9450   15.1260   -2.9100 C   0  0  0  0  0  0  0  0  0  0  0  0
   -4.0330   15.5600   -1.8360 C   0  0  0  0  0  0  0  0  0  0  0  0
   -4.4010   14.6690   -0.5840 C   0  0  0  0  0  0  0  0  0  0  0  0
   -3.7290   15.0190    0.6750 N   0  0  0  0  0  0  0  0  0  0  0  0
   -2.3880   14.7700    0.5900 C   0  0  0  0  0  0  0  0  0  0  0  0
   -2.0110   14.7330   -0.6780 N   0  0  0  0  0  0  0  0  0  0  0  0
   -1.5670   14.5870    1.6390 N   0  0  0  0  0  0  0  0  0  0  0  0
   -0.7330   14.5130   -0.9430 C   0  0  0  0  0  0  0  0  0  0  0  0
   -0.2800   14.3680    1.3150 C   0  0  0  0  0  0  0  0  0  0  0  0
    0.1940   14.3240    0.0180 C   0  0  0  0  0  0  0  0  0  0  0  0
  2  1  1  1
  2  3  1  0
  2  4  1  0
  4  5  1  6
  3  6  1  0
  4  7  1  0
  6  7  1  0
  6  8  1  1
  7  9  1  1
  8 10  1  0
 10 11  1  0
 11 12  1  0
 12 13  1  0
 13 14  1  0
 14 15  1  0
 15 16  1  0
 16 17  1  0
 17 18  1  0
 18 19  1  0
 19 20  2  0
 19 21  1  0
 20 22  1  0
 21 23  2  0
 22 24  2  0
 23 24  1  0
M  END
