mArh-x0950_0_A_α-5CMS_0_K_γ
     RDKit          3D

 13 13  0  0  0  0  0  0  0  0999 V2000
    2.6340   13.5040   -4.3820 C   0  0  0  0  0  0  0  0  0  0  0  0
    1.2250   12.9550   -4.5950 C   0  0  1  0  0  0  0  0  0  0  0  0
    1.3800   11.9930   -5.6270 O   0  0  0  0  0  0  0  0  0  0  0  0
    0.8420   12.2200   -3.2690 C   0  0  0  0  0  0  0  0  0  0  0  0
    0.1330   13.9740   -5.0760 C   0  0  2  0  0  0  0  0  0  0  0  0
    0.3060   11.1240   -3.1910 O   0  0  0  0  0  0  0  0  0  0  0  0
    1.1520   12.8960   -2.1310 O   0  0  0  0  0  0  0  0  0  0  0  0
    0.0260   15.4620   -4.7060 C   0  0  2  0  0  0  0  0  0  0  0  0
   -1.2260   13.6520   -4.5450 C   0  0  1  0  0  0  0  0  0  0  0  0
   -1.3820   12.2460   -4.6030 O   0  0  0  0  0  0  0  0  0  0  0  0
    1.0770   16.4750   -5.0570 C   0  0  0  0  0  0  0  0  0  0  0  0
   -1.0970   14.2720   -3.1430 C   0  0  0  0  0  0  0  0  0  0  0  0
   -0.2090   15.4020   -3.2930 O   0  0  0  0  0  0  0  0  0  0  0  0
  2  1  1  1
  2  3  1  0
  2  4  1  0
  5  2  1  1
  4  6  2  0
  4  7  1  0
  5  8  1  0
  5  9  1  0
  9 10  1  1
  8 11  1  1
  9 12  1  0
  8 13  1  0
 12 13  1  0
M  END
