mArh-5cb5_G_0_G_Î³
     RDKit          3D

  8  8  0  0  0  0  0  0  0  0999 V2000
   -0.7090   14.8220   -3.0960 C   0  0  0  0  0  0  0  0  0  0  0  0
   -0.1080   16.0630   -3.5120 O   0  0  0  0  0  0  0  0  0  0  0  0
   -1.1990   14.0410   -4.2900 C   0  0  1  0  0  0  0  0  0  0  0  0
    0.4190   15.7960   -4.8300 C   0  0  1  0  0  0  0  0  0  0  0  0
   -0.1170   14.4070   -5.2750 C   0  0  1  0  0  0  0  0  0  0  0  0
   -1.0850   12.6520   -3.9210 O   0  0  0  0  0  0  0  0  0  0  0  0
    0.0070   16.9410   -5.7570 C   0  0  0  0  0  0  0  0  0  0  0  0
    0.9330   13.4210   -5.1100 O   0  0  0  0  0  0  0  0  0  0  0  0
  1  2  1  1
  1  3  1  0
  4  2  1  0
  5  3  1  0
  3  6  1  1
  4  7  1  6
  4  5  1  0
  5  8  1  1
M  END
