
     RDKit          3D

 36 39  0  0  0  0  0  0  0  0999 V2000
   -1.8180   18.1700   -6.5920 P   0  0  0  0  0  0  0  0  0  0  0  0
   -0.5330   19.9190   -8.3420 P   0  0  0  0  0  0  0  0  0  0  0  0
    0.1710   16.8020   -5.6350 C   0  0  0  0  0  0  0  0  0  0  0  0
   -1.2120   17.0900   -5.5900 O   0  0  0  0  0  0  0  0  0  0  0  0
    0.3810   15.6990   -4.6060 C   0  0  1  0  0  0  0  0  0  0  0  0
   -0.4260   15.9280   -3.4550 O   0  0  0  0  0  0  0  0  0  0  0  0
   -0.1030   14.3440   -5.1160 C   0  0  1  0  0  0  0  0  0  0  0  0
    1.1250   13.5890   -5.1730 O   0  0  0  0  0  0  0  0  0  0  0  0
   -1.1910   13.8960   -4.1200 C   0  0  1  0  0  0  0  0  0  0  0  0
   -1.2170   12.5240   -3.7630 O   0  0  0  0  0  0  0  0  0  0  0  0
   -0.8060   14.6840   -2.9020 C   0  0  2  0  0  0  0  0  0  0  0  0
   -5.0860   21.9310   -7.3680 C   0  0  1  0  0  0  0  0  0  0  0  0
   -1.8900   15.4550    2.1360 N   0  0  0  0  0  0  0  0  0  0  0  0
   -2.7350   17.3050   -7.4860 O   0  0  0  0  0  0  0  0  0  0  0  0
    0.7150   20.8040   -8.2090 O   0  0  0  0  0  0  0  0  0  0  0  0
   -4.7080   21.1780   -6.2060 O   0  0  0  0  0  0  0  0  0  0  0  0
   -0.7150   15.1710    1.5200 C   0  0  0  0  0  0  0  0  0  0  0  0
   -4.4060   23.3000   -7.3650 C   0  0  2  0  0  0  0  0  0  0  0  0
   -2.4170   19.3520   -5.7880 O   0  0  0  0  0  0  0  0  0  0  0  0
   -0.7650   19.1130   -9.6020 O   0  0  0  0  0  0  0  0  0  0  0  0
   -5.3800   24.3500   -7.2720 O   0  0  0  0  0  0  0  0  0  0  0  0
   -3.7610   23.4770   -8.7230 C   0  0  2  0  0  0  0  0  0  0  0  0
   -0.5790   15.0070    0.1680 N   0  0  0  0  0  0  0  0  0  0  0  0
   -0.4620   18.7560   -7.2310 O   0  0  0  0  0  0  0  0  0  0  0  0
   -4.6510   24.2420   -9.5370 O   0  0  0  0  0  0  0  0  0  0  0  0
   -1.6880   15.0960   -0.6310 C   0  0  0  0  0  0  0  0  0  0  0  0
   -3.7130   22.0920   -9.3480 C   0  0  2  0  0  0  0  0  0  0  0  0
   -4.6190   21.2690   -8.5660 O   0  0  0  0  0  0  0  0  0  0  0  0
   -2.9970   15.4000   -0.0080 C   0  0  0  0  0  0  0  0  0  0  0  0
   -2.2470   21.5650   -9.4090 C   0  0  0  0  0  0  0  0  0  0  0  0
   -1.8840   20.8080   -8.2250 O   0  0  0  0  0  0  0  0  0  0  0  0
   -3.0330   15.5840    1.4550 C   0  0  0  0  0  0  0  0  0  0  0  0
   -4.1470   15.8760    2.1590 N   0  0  0  0  0  0  0  0  0  0  0  0
   -3.8740   15.4530   -1.0390 N   0  0  0  0  0  0  0  0  0  0  0  0
   -3.2000   15.1970   -2.2180 C   0  0  0  0  0  0  0  0  0  0  0  0
   -1.8920   14.9560   -1.9590 N   0  0  0  0  0  0  0  0  0  0  0  0
  1  4  1  0
  1 14  2  0
  1 19  1  0
  1 24  1  0
  4  3  1  0
 24  2  1  0
  2 15  2  0
  2 20  1  0
  2 31  1  0
 31 30  1  0
  5  3  1  6
  5  6  1  0
  5  7  1  0
  6 11  1  0
  7  8  1  1
  7  9  1  0
 11  9  1  0
 11 36  1  1
  9 10  1  1
 36 26  1  0
 36 35  1  0
 12 16  1  1
 12 18  1  0
 12 28  1  0
 18 21  1  6
 18 22  1  0
 28 27  1  0
 13 17  2  0
 13 32  1  0
 17 23  1  0
 32 29  2  0
 32 33  1  0
 23 26  2  0
 22 25  1  6
 22 27  1  0
 27 30  1  1
 26 29  1  0
 29 34  1  0
 34 35  2  0
M  END
