mArh-5cb3_0_A_Î³
     RDKit          3D

  8  8  0  0  0  0  0  0  0  0999 V2000
   -0.7140   14.6480   -2.9020 C   0  0  0  0  0  0  0  0  0  0  0  0
   -0.0940   15.8940   -3.2200 O   0  0  0  0  0  0  0  0  0  0  0  0
   -1.1550   14.0920   -4.2420 C   0  0  1  0  0  0  0  0  0  0  0  0
    0.5640   15.7300   -4.4800 C   0  0  1  0  0  0  0  0  0  0  0  0
    0.0970   14.3880   -5.0420 C   0  0  1  0  0  0  0  0  0  0  0  0
   -1.4660   12.6990   -4.1390 O   0  0  0  0  0  0  0  0  0  0  0  0
    0.2390   16.9020   -5.4040 C   0  0  0  0  0  0  0  0  0  0  0  0
    1.0950   13.3810   -4.8210 O   0  0  0  0  0  0  0  0  0  0  0  0
  1  2  1  1
  1  3  1  0
  4  2  1  0
  5  3  1  0
  3  6  1  1
  4  7  1  6
  4  5  1  0
  5  8  1  1
M  END
