mArh-x0685_0_A_α-5CB5_0_F_α
     RDKit          3D

 28 29  0  0  0  0  0  0  0  0999 V2000
   -6.2040   14.9330    2.2720 N   0  0  0  0  0  0  0  0  0  0  0  0
   -7.6290   14.6490    2.2990 C   0  0  0  0  0  0  0  0  0  0  0  0
   -7.8990   13.3930    3.1140 C   0  0  0  0  0  0  0  0  0  0  0  0
   -5.5140   15.0010    1.0480 C   0  0  0  0  0  0  0  0  0  0  0  0
   -4.1190   15.0580    1.0800 C   0  0  0  0  0  0  0  0  0  0  0  0
   -6.1850   15.0270   -0.1150 N   0  0  0  0  0  0  0  0  0  0  0  0
   -3.4020   15.1590   -0.1170 C   0  0  0  0  0  0  0  0  0  0  0  0
   -5.4740   15.1310   -1.2680 C   0  0  0  0  0  0  0  0  0  0  0  0
   -4.0890   15.2070   -1.3280 C   0  0  0  0  0  0  0  0  0  0  0  0
   -3.3880   15.3450   -2.5910 C   0  0  0  0  0  0  0  0  0  0  0  0
   -2.7360   15.6090   -3.6010 C   0  0  0  0  0  0  0  0  0  0  0  0
   -1.8120   16.0090   -4.7280 C   0  0  0  0  0  0  0  0  0  0  0  0
   -2.2730   17.1670   -5.6690 C   0  0  0  0  0  0  0  0  0  0  0  0
   -1.7100   18.6060   -5.4020 C   0  0  0  0  0  0  0  0  0  0  0  0
   -2.1600   19.7070   -6.4260 C   0  0  0  0  0  0  0  0  0  0  0  0
   -3.5030   20.4290   -6.1140 C   0  0  0  0  0  0  0  0  0  0  0  0
   -3.6270   21.7560   -6.6370 O   0  0  0  0  0  0  0  0  0  0  0  0
   -4.6650   21.8710   -7.6150 C   0  0  1  0  0  0  0  0  0  0  0  0
   -4.7010   23.2630   -8.2860 C   0  0  1  0  0  0  0  0  0  0  0  0
   -4.3410   21.0330   -8.6850 O   0  0  0  0  0  0  0  0  0  0  0  0
   -4.2890   24.3870   -7.5860 O   0  0  0  0  0  0  0  0  0  0  0  0
   -3.2950   21.7280   -9.3890 C   0  0  1  0  0  0  0  0  0  0  0  0
   -3.7500   23.1640   -9.4430 C   0  0  1  0  0  0  0  0  0  0  0  0
   -1.9830   21.5370   -8.6320 C   0  0  0  0  0  0  0  0  0  0  0  0
   -4.4290   23.4340  -10.6750 O   0  0  0  0  0  0  0  0  0  0  0  0
   -4.8470   24.3760   -6.3300 C   0  0  1  0  0  0  0  0  0  0  0  0
   -4.4780   25.6730   -5.6460 C   0  0  0  0  0  0  0  0  0  0  0  0
   -6.1990   24.2010   -6.5910 O   0  0  0  0  0  0  0  0  0  0  0  0
  1  2  1  0
  2  3  1  0
  1  4  1  0
  4  5  2  0
  4  6  1  0
  5  7  1  0
  6  8  2  0
  7  9  2  0
  8  9  1  0
  9 10  1  0
 10 11  3  0
 11 12  1  0
 12 13  1  0
 13 14  1  0
 14 15  1  0
 15 16  1  0
 16 17  1  0
 18 17  1  1
 18 19  1  0
 18 20  1  0
 19 21  1  1
 20 22  1  0
 19 23  1  0
 22 23  1  0
 22 24  1  1
 23 25  1  6
 21 26  1  0
 26 27  1  6
 26 28  1  0
M  END
