mArh-5cb5_B_0_B_β-mArh-EU0046_0_A_α
     RDKit          3D

 20 20  0  0  0  0  0  0  0  0999 V2000
   -1.5450   20.6080   -8.6120 O   0  0  0  0  0  0  0  0  0  0  0  0
   -0.3160   19.9460   -7.8580 P   0  0  0  0  0  0  0  0  0  0  0  0
   -0.8480   19.5330   -6.4320 O   0  0  0  0  0  0  0  0  0  0  0  0
    0.8590   20.8510   -7.8020 O   0  0  0  0  0  0  0  0  0  0  0  0
   -0.0990   18.6270   -8.7290 O   0  0  0  0  0  0  0  0  0  0  0  0
   -1.6090   18.2100   -6.0600 P   0  0  0  0  0  0  0  0  0  0  0  0
   -0.5710   17.0050   -5.9250 O   0  0  0  0  0  0  0  0  0  0  0  0
   -2.8030   17.9230   -6.8830 O   0  0  0  0  0  0  0  0  0  0  0  0
   -1.9590   18.5020   -4.5440 O   0  0  0  0  0  0  0  0  0  0  0  0
   -0.5490   16.1690   -4.7600 C   0  0  0  0  0  0  0  0  0  0  0  0
   -1.8780   15.4210   -4.5430 C   0  0  0  0  0  0  0  0  0  0  0  0
   -2.0570   15.0330   -3.1210 C   0  0  0  0  0  0  0  0  0  0  0  0
   -2.1600   14.8180   -1.9350 C   0  0  0  0  0  0  0  0  0  0  0  0
   -2.1890   14.7160   -0.5060 C   0  0  0  0  0  0  0  0  0  0  0  0
   -1.0860   14.7830    0.3130 C   0  0  0  0  0  0  0  0  0  0  0  0
   -3.2810   14.5440    0.3780 C   0  0  0  0  0  0  0  0  0  0  0  0
    0.3410   14.9610    0.0300 C   0  0  0  0  0  0  0  0  0  0  0  0
   -4.5730   14.4320    0.0260 N   0  0  0  0  0  0  0  0  0  0  0  0
   -1.5580   14.6500    1.5800 N   0  0  0  0  0  0  0  0  0  0  0  0
   -2.8860   14.5040    1.6460 N   0  0  0  0  0  0  0  0  0  0  0  0
  1  2  1  0
  2  3  1  0
  2  4  2  0
  2  5  1  0
  3  6  1  0
  6  7  1  0
  6  8  2  0
  6  9  1  0
  7 10  1  0
 10 11  1  0
 11 12  1  0
 12 13  3  0
 13 14  1  0
 14 15  2  0
 14 16  1  0
 15 17  1  0
 16 18  1  0
 15 19  1  0
 16 20  2  0
 19 20  1  0
M  END
