mArh-5cb5_F_1_F_Î²
     RDKit          3D

  9  8  0  0  0  0  0  0  0  0999 V2000
   -1.6570   20.0810   -9.0850 O   0  0  0  0  0  0  0  0  0  0  0  0
   -0.3680   19.4760   -8.3340 P   0  0  1  0  0  0  0  0  0  0  0  0
   -0.8150   19.0150   -6.8880 O   0  0  0  0  0  0  0  0  0  0  0  0
    0.3150   18.3960   -9.1410 O   0  0  0  0  0  0  0  0  0  0  0  0
    0.6660   20.5600   -8.1160 O   0  0  0  0  0  0  0  0  0  0  0  0
   -1.9740   18.1240   -6.2090 P   0  0  2  0  0  0  0  0  0  0  0  0
   -1.1760   17.0950   -5.3140 O   0  0  0  0  0  0  0  0  0  0  0  0
   -3.0910   17.4900   -7.0510 O   0  0  0  0  0  0  0  0  0  0  0  0
   -2.6600   19.0510   -5.2110 O   0  0  0  0  0  0  0  0  0  0  0  0
  2  1  1  6
  3  2  1  0
  2  4  2  0
  2  5  1  0
  6  3  1  0
  6  7  1  1
  6  8  2  0
  6  9  1  0
M  END
