mArh-3q6z_0_A_Î±
     RDKit          3D

  9  9  0  0  0  0  0  0  0  0999 V2000
   -1.8700   21.6080   -8.0980 C   0  0  0  0  0  0  0  0  0  0  0  0
   -3.3170   21.8450   -8.4520 C   0  0  2  0  0  0  0  0  0  0  0  0
   -3.9720   23.1430   -7.9740 C   0  0  2  0  0  0  0  0  0  0  0  0
   -4.0150   20.7730   -7.8110 O   0  0  0  0  0  0  0  0  0  0  0  0
   -4.5770   22.7310   -6.6260 C   0  0  2  0  0  0  0  0  0  0  0  0
   -5.0240   23.5200   -8.9170 O   0  0  0  0  0  0  0  0  0  0  0  0
   -5.1230   21.3530   -7.0400 C   0  0  1  0  0  0  0  0  0  0  0  0
   -5.5950   23.6860   -6.2350 O   0  0  0  0  0  0  0  0  0  0  0  0
   -6.1800   21.3560   -8.0400 O   0  0  0  0  0  0  0  0  0  0  0  0
  2  1  1  1
  3  2  1  0
  4  2  1  0
  5  3  1  0
  3  6  1  6
  7  4  1  0
  7  5  1  0
  5  8  1  6
  7  9  1  6
M  END
