mArh-5cms_M_12_M_β-4IQY_0_A_β
     RDKit          3D

  9  8  0  0  0  0  0  0  0  0999 V2000
   -1.6890   20.2840   -8.1110 O   0  0  0  0  0  0  0  0  0  0  0  0
   -0.2330   19.7170   -7.7810 P   0  0  0  0  0  0  0  0  0  0  0  0
   -0.3450   18.7750   -6.5390 O   0  0  0  0  0  0  0  0  0  0  0  0
    0.8040   20.7730   -7.7420 O   0  0  0  0  0  0  0  0  0  0  0  0
    0.0150   18.6630   -8.9470 O   0  0  0  0  0  0  0  0  0  0  0  0
   -1.6700   18.1210   -6.0000 P   0  0  0  0  0  0  0  0  0  0  0  0
   -1.2240   16.8190   -5.2010 O   0  0  0  0  0  0  0  0  0  0  0  0
   -2.6760   17.8480   -7.0380 O   0  0  0  0  0  0  0  0  0  0  0  0
   -2.1430   19.1550   -4.8900 O   0  0  0  0  0  0  0  0  0  0  0  0
  1  2  1  0
  2  3  1  0
  2  4  2  0
  2  5  1  0
  3  6  1  0
  6  7  1  0
  6  8  2  0
  6  9  1  0
M  END
