mArh-5cms_C_2_C_β-mArh-x0742_0_A_α
     RDKit          3D

 28 30  0  0  0  0  0  0  0  0999 V2000
   -1.6330   20.5670   -8.3790 O   0  0  0  0  0  0  0  0  0  0  0  0
   -0.4240   19.8140   -7.6760 P   0  0  0  0  0  0  0  0  0  0  0  0
   -1.0460   19.3720   -6.2750 O   0  0  0  0  0  0  0  0  0  0  0  0
    0.7950   20.6550   -7.6110 O   0  0  0  0  0  0  0  0  0  0  0  0
   -0.3060   18.5550   -8.6510 O   0  0  0  0  0  0  0  0  0  0  0  0
   -1.6320   17.9170   -6.0840 P   0  0  2  0  0  0  0  0  0  0  0  0
   -0.2870   17.0850   -6.1990 O   0  0  0  0  0  0  0  0  0  0  0  0
   -2.6850   17.5390   -7.0240 O   0  0  0  0  0  0  0  0  0  0  0  0
   -1.9650   17.4740   -4.6100 O   0  0  0  0  0  0  0  0  0  0  0  0
   -1.3360   16.1840   -4.3980 C   0  0  0  0  0  0  0  0  0  0  0  0
   -2.1160   15.2040   -3.5140 C   0  0  0  0  0  0  0  0  0  0  0  0
   -3.6140   15.4560   -3.4340 C   0  0  0  0  0  0  0  0  0  0  0  0
   -4.4310   14.9410   -2.2320 C   0  0  1  0  0  0  0  0  0  0  0  0
   -3.7760   14.0550   -1.1690 C   0  0  2  0  0  0  0  0  0  0  0  0
   -5.3650   15.8190   -1.4160 C   0  0  0  0  0  0  0  0  0  0  0  0
   -4.9870   13.6940   -0.2500 C   0  0  1  0  0  0  0  0  0  0  0  0
   -5.9500   14.8860   -0.3710 C   0  0  0  0  0  0  0  0  0  0  0  0
   -2.4580   14.3410   -0.4460 C   0  0  0  0  0  0  0  0  0  0  0  0
   -5.7630   12.4450   -0.6990 C   0  0  0  0  0  0  0  0  0  0  0  0
   -4.6000   13.5000    1.2260 C   0  0  0  0  0  0  0  0  0  0  0  0
   -1.2170   14.3620   -1.1060 C   0  0  0  0  0  0  0  0  0  0  0  0
   -2.4250   14.5740    0.9210 C   0  0  0  0  0  0  0  0  0  0  0  0
   -5.8440   12.1190   -1.8850 O   0  0  0  0  0  0  0  0  0  0  0  0
   -6.4510   11.6030    0.3450 C   0  0  0  0  0  0  0  0  0  0  0  0
   -1.3090   14.8000    1.6310 N   0  0  0  0  0  0  0  0  0  0  0  0
   -0.0470   14.6000   -0.3890 C   0  0  0  0  0  0  0  0  0  0  0  0
   -3.6670   14.5860    1.7120 C   0  0  0  0  0  0  0  0  0  0  0  0
   -0.1570   14.8090    0.9660 C   0  0  0  0  0  0  0  0  0  0  0  0
  1  2  1  0
  2  3  1  0
  2  4  2  0
  2  5  1  0
  3  6  1  0
  6  7  1  6
  6  8  2  0
  6  9  1  0
  9 10  1  0
 10 11  1  0
 11 12  1  0
 13 12  1  1
 13 14  1  0
 13 15  1  0
 14 16  1  0
 15 17  1  0
 16 17  1  0
 14 18  1  1
 16 19  1  6
 16 20  1  0
 18 21  1  0
 18 22  2  0
 19 23  2  0
 19 24  1  0
 22 25  1  0
 21 26  2  0
 20 27  1  0
 22 27  1  0
 25 28  2  0
 26 28  1  0
M  END
