mArh-x0128_0_A_α-mArh-5mqx_0_A_β
     RDKit          3D

 26 27  0  0  0  0  0  0  0  0999 V2000
   -6.5990   14.7700    2.4590 N   0  0  0  0  0  0  0  0  0  0  0  0
   -7.7620   15.1990    3.0470 C   0  0  0  0  0  0  0  0  0  0  0  0
   -8.7220   15.5100    2.3370 O   0  0  0  0  0  0  0  0  0  0  0  0
   -6.1160   14.7960    1.1330 C   0  0  0  0  0  0  0  0  0  0  0  0
   -7.7130   15.2310    4.4050 N   0  0  0  0  0  0  0  0  0  0  0  0
   -6.9430   14.5950    0.0310 C   0  0  0  0  0  0  0  0  0  0  0  0
   -4.7470   15.0400    0.9220 C   0  0  0  0  0  0  0  0  0  0  0  0
   -6.4210   14.6260   -1.2610 C   0  0  0  0  0  0  0  0  0  0  0  0
   -4.2250   15.0700   -0.3850 C   0  0  0  0  0  0  0  0  0  0  0  0
   -8.4760   16.0070    5.3140 C   0  0  0  0  0  0  0  0  0  0  0  0
   -5.0650   14.8560   -1.4920 C   0  0  0  0  0  0  0  0  0  0  0  0
   -9.1210   17.1620    4.8580 C   0  0  0  0  0  0  0  0  0  0  0  0
   -8.6340   15.6960    6.6580 C   0  0  0  0  0  0  0  0  0  0  0  0
   -9.8800   17.9810    5.6250 N   0  0  0  0  0  0  0  0  0  0  0  0
   -9.4100   16.5220    7.4780 C   0  0  0  0  0  0  0  0  0  0  0  0
   -4.5580   14.8590   -2.9270 C   0  0  0  0  0  0  0  0  0  0  0  0
  -10.0040   17.6400    6.9200 C   0  0  0  0  0  0  0  0  0  0  0  0
   -3.5190   15.8530   -3.0750 N   0  0  0  0  0  0  0  0  0  0  0  0
   -2.8390   16.0380   -4.6120 P   0  0  0  0  0  0  0  0  0  0  0  0
   -2.0050   17.4230   -4.6250 O   0  0  0  0  0  0  0  0  0  0  0  0
   -1.8570   14.8560   -4.9330 O   0  0  0  0  0  0  0  0  0  0  0  0
   -3.9190   16.0080   -5.7750 O   0  0  0  0  0  0  0  0  0  0  0  0
   -2.1000   18.8320   -5.4240 P   0  0  0  0  0  0  0  0  0  0  0  0
   -2.7900   18.3850   -6.8030 O   0  0  0  0  0  0  0  0  0  0  0  0
   -2.8320   19.9240   -4.6990 O   0  0  0  0  0  0  0  0  0  0  0  0
   -0.6440   19.1900   -5.8580 O   0  0  0  0  0  0  0  0  0  0  0  0
  1  2  1  0
  2  3  2  0
  1  4  1  0
  2  5  1  0
  4  6  2  0
  4  7  1  0
  6  8  1  0
  7  9  2  0
  5 10  1  0
  8 11  2  0
  9 11  1  0
 10 12  2  0
 10 13  1  0
 12 14  1  0
 13 15  2  0
 11 16  1  0
 14 17  2  0
 15 17  1  0
 16 18  1  0
 18 19  2  3
 19 20  1  0
 19 21  1  0
 19 22  1  0
 20 23  1  0
 23 24  1  0
 23 25  2  0
 23 26  1  0
M  END
