mArh-5cb5_Q_0_Q_β-6MEA_0_A_α
     RDKit          3D

 17 17  0  0  0  0  0  0  0  0999 V2000
   -2.0010   21.2840   -8.6810 O   0  0  0  0  0  0  0  0  0  0  0  0
   -0.9130   20.3740   -7.8770 P   0  0  2  0  0  0  0  0  0  0  0  0
   -1.5610   19.9030   -6.5120 O   0  0  0  0  0  0  0  0  0  0  0  0
   -3.3470   21.6970   -8.3150 C   0  0  1  0  0  0  0  0  0  0  0  0
    0.4190   21.0270   -7.6740 O   0  0  0  0  0  0  0  0  0  0  0  0
   -0.7070   18.9970   -8.6780 O   0  0  0  0  0  0  0  0  0  0  0  0
   -3.8860   21.0400   -7.1660 O   0  0  0  0  0  0  0  0  0  0  0  0
   -3.5860   23.2250   -8.0520 C   0  0  1  0  0  0  0  0  0  0  0  0
   -1.7540   18.3650   -6.1790 P   0  0  0  0  0  0  0  0  0  0  0  0
   -4.3450   23.8570   -9.1020 O   0  0  0  0  0  0  0  0  0  0  0  0
   -4.9980   21.8570   -6.8150 C   0  0  2  0  0  0  0  0  0  0  0  0
   -4.3660   23.2300   -6.7200 C   0  0  2  0  0  0  0  0  0  0  0  0
   -0.3290   17.6800   -6.2870 O   0  0  0  0  0  0  0  0  0  0  0  0
   -2.8310   17.6390   -6.8780 O   0  0  0  0  0  0  0  0  0  0  0  0
   -1.8930   18.3990   -4.6020 O   0  0  0  0  0  0  0  0  0  0  0  0
   -5.5250   21.4700   -5.5580 O   0  0  0  0  0  0  0  0  0  0  0  0
   -5.4000   24.2270   -6.6380 O   0  0  0  0  0  0  0  0  0  0  0  0
  1  2  1  0
  2  3  1  0
  4  1  1  1
  2  5  2  0
  2  6  1  6
  4  7  1  0
  4  8  1  0
  3  9  1  0
  8 10  1  6
  7 11  1  0
  8 12  1  0
 11 12  1  0
  9 13  1  0
  9 14  2  0
  9 15  1  0
 11 16  1  1
 12 17  1  6
M  END
