mArh-5cb5_G_0_G_α-mArh-x1018_0_A_α
     RDKit          3D

 24 26  0  0  0  0  0  0  0  0999 V2000
   -1.9620   21.6920   -8.1820 C   0  0  0  0  0  0  0  0  0  0  0  0
   -3.3180   21.8940   -8.8440 C   0  0  1  0  0  0  0  0  0  0  0  0
   -4.2770   20.9100   -8.4440 O   0  0  0  0  0  0  0  0  0  0  0  0
   -3.9420   23.2280   -8.5110 C   0  0  1  0  0  0  0  0  0  0  0  0
   -4.3840   23.9050   -9.6930 O   0  0  0  0  0  0  0  0  0  0  0  0
   -4.8640   21.3390   -7.2410 C   0  0  2  0  0  0  0  0  0  0  0  0
   -5.1120   22.8450   -7.6020 C   0  0  1  0  0  0  0  0  0  0  0  0
   -3.8880   20.9190   -6.2230 O   0  0  0  0  0  0  0  0  0  0  0  0
   -5.3110   23.7590   -6.5250 O   0  0  0  0  0  0  0  0  0  0  0  0
   -3.1180   19.7240   -6.6820 C   0  0  0  0  0  0  0  0  0  0  0  0
   -2.2600   18.8550   -5.6620 C   0  0  0  0  0  0  0  0  0  0  0  0
   -2.5470   17.2690   -5.7720 C   0  0  0  0  0  0  0  0  0  0  0  0
   -2.4080   16.1730   -4.6050 C   0  0  0  0  0  0  0  0  0  0  0  0
   -3.6550   15.6410   -3.7260 C   0  0  0  0  0  0  0  0  0  0  0  0
   -3.7000   14.5800   -2.6610 N   0  0  0  0  0  0  0  0  0  0  0  0
   -2.3730   14.3350   -2.1870 N   0  0  0  0  0  0  0  0  0  0  0  0
   -4.4530   14.8420   -1.4430 N   0  0  0  0  0  0  0  0  0  0  0  0
   -2.3460   14.7210   -0.7690 N   0  0  0  0  0  0  0  0  0  0  0  0
   -3.6650   14.2490   -0.3800 C   0  0  1  0  0  0  0  0  0  0  0  0
   -5.8410   14.7430   -1.3450 N   0  0  0  0  0  0  0  0  0  0  0  0
   -6.3130   14.7500   -0.1020 C   0  0  0  0  0  0  0  0  0  0  0  0
   -4.1710   14.6210    0.9610 C   0  0  0  0  0  0  0  0  0  0  0  0
   -8.0260   14.6170    0.1200 Cl  0  0  0  0  0  0  0  0  0  0  0  0
   -5.4700   14.8640    1.1260 C   0  0  0  0  0  0  0  0  0  0  0  0
  2  1  1  1
  2  3  1  0
  2  4  1  0
  4  5  1  6
  3  6  1  0
  4  7  1  0
  6  7  1  0
  6  8  1  1
  7  9  1  1
  8 10  1  0
 10 11  1  0
 11 12  1  0
 12 13  1  0
 13 14  1  0
 14 15  1  0
 15 16  1  0
 15 17  1  0
 16 18  1  0
 17 19  1  0
 18 19  1  0
 17 20  1  0
 20 21  2  0
 19 22  1  1
 21 23  1  0
 21 24  1  0
 22 24  2  0
M  END
