mArh-5cb5_G_0_G_Î±
     RDKit          3D

  9  9  0  0  0  0  0  0  0  0999 V2000
   -1.9040   21.7280   -8.5080 C   0  0  0  0  0  0  0  0  0  0  0  0
   -3.3160   21.9080   -9.0600 C   0  0  1  0  0  0  0  0  0  0  0  0
   -4.2600   21.0360   -8.3860 O   0  0  0  0  0  0  0  0  0  0  0  0
   -3.7730   23.3160   -8.8720 C   0  0  2  0  0  0  0  0  0  0  0  0
   -5.3770   21.8010   -7.8650 C   0  0  2  0  0  0  0  0  0  0  0  0
   -4.9780   23.2910   -7.9350 C   0  0  2  0  0  0  0  0  0  0  0  0
   -4.1820   23.7000  -10.1920 O   0  0  0  0  0  0  0  0  0  0  0  0
   -5.6670   21.3400   -6.5110 O   0  0  0  0  0  0  0  0  0  0  0  0
   -6.0440   24.1250   -8.4960 O   0  0  0  0  0  0  0  0  0  0  0  0
  2  1  1  1
  3  2  1  0
  4  2  1  0
  5  3  1  0
  6  4  1  0
  4  7  1  6
  5  8  1  1
  5  6  1  0
  6  9  1  6
M  END
