mArh-x0852_0_B_α-mArh-x0592_0_A_α
     RDKit          3D

 21 22  0  0  0  0  0  0  0  0999 V2000
   -9.6700   17.7240    7.3840 N   0  0  0  0  0  0  0  0  0  0  0  0
   -9.4460   17.2660    6.3470 C   0  0  0  0  0  0  0  0  0  0  0  0
   -9.3060   16.6750    5.0600 C   0  0  0  0  0  0  0  0  0  0  0  0
   -8.4080   15.6390    4.8000 C   0  0  0  0  0  0  0  0  0  0  0  0
  -10.1200   17.1650    4.0290 C   0  0  0  0  0  0  0  0  0  0  0  0
   -7.6080   15.1490    5.8190 O   0  0  0  0  0  0  0  0  0  0  0  0
   -8.3490   15.1180    3.5080 C   0  0  0  0  0  0  0  0  0  0  0  0
  -10.0360   16.6190    2.7590 C   0  0  0  0  0  0  0  0  0  0  0  0
  -11.1110   17.2420    1.3410 Br  0  0  0  0  0  0  0  0  0  0  0  0
   -7.4930   14.1280    3.2410 O   0  0  0  0  0  0  0  0  0  0  0  0
   -9.1590   15.6050    2.5030 C   0  0  0  0  0  0  0  0  0  0  0  0
   -7.7580   13.3860    2.0470 C   0  0  0  0  0  0  0  0  0  0  0  0
   -8.0060   14.2790    0.8280 C   0  0  0  0  0  0  0  0  0  0  0  0
   -6.7660   14.5960    0.1520 N   0  0  0  0  0  0  0  0  0  0  0  0
   -6.7580   15.0510   -1.1280 N   0  0  0  0  0  0  0  0  0  0  0  0
   -5.5280   14.4780    0.6970 C   0  0  0  0  0  0  0  0  0  0  0  0
   -4.6310   14.8710   -0.2660 C   0  0  0  0  0  0  0  0  0  0  0  0
   -5.4530   15.2160   -1.3740 C   0  0  0  0  0  0  0  0  0  0  0  0
   -3.1920   14.9180   -0.1750 C   0  0  0  0  0  0  0  0  0  0  0  0
   -2.6660   14.9440    1.0920 N   0  0  0  0  0  0  0  0  0  0  0  0
   -2.4660   14.9230   -1.1580 O   0  0  0  0  0  0  0  0  0  0  0  0
  1  2  3  0
  2  3  1  0
  3  4  2  0
  3  5  1  0
  4  6  1  0
  4  7  1  0
  5  8  2  0
  8  9  1  0
  7 10  1  0
  7 11  2  0
  8 11  1  0
 10 12  1  0
 12 13  1  0
 13 14  1  0
 14 15  1  0
 14 16  1  0
 16 17  2  0
 15 18  2  0
 17 18  1  0
 17 19  1  0
 19 20  1  0
 19 21  2  0
M  END
