mArh-5l9k_B_0_B_α-5LW0_0_A_δ
     RDKit          3D

 26 28  0  0  0  0  0  0  0  0999 V2000
   -2.5710   21.6420   -8.7290 C   0  0  0  0  0  0  0  0  0  0  0  0
   -3.3550   22.6870   -7.9810 C   0  0  2  0  0  0  0  0  0  0  0  0
   -3.8960   22.0480   -6.8350 O   0  0  0  0  0  0  0  0  0  0  0  0
   -4.4980   23.4250   -8.6860 C   0  0  1  0  0  0  0  0  0  0  0  0
   -4.9450   22.8340   -9.9020 O   0  0  0  0  0  0  0  0  0  0  0  0
   -5.2860   22.2840   -6.7190 C   0  0  1  0  0  0  0  0  0  0  0  0
   -5.6330   23.4130   -7.6610 C   0  0  1  0  0  0  0  0  0  0  0  0
   -5.8430   21.0540   -7.0250 O   0  0  0  0  0  0  0  0  0  0  0  0
   -5.6360   24.5330   -6.7870 O   0  0  0  0  0  0  0  0  0  0  0  0
   -4.6290   20.2850   -7.0820 C   0  0  0  0  0  0  0  0  0  0  0  0
   -3.6360   20.7000   -5.9650 C   0  0  0  0  0  0  0  0  0  0  0  0
   -2.3300   19.8680   -5.8870 C   0  0  0  0  0  0  0  0  0  0  0  0
   -2.3090   18.3710   -6.2770 C   0  0  0  0  0  0  0  0  0  0  0  0
   -1.7080   17.4210   -5.2040 C   0  0  0  0  0  0  0  0  0  0  0  0
   -2.4490   16.1050   -4.8350 C   0  0  0  0  0  0  0  0  0  0  0  0
   -2.8930   15.9400   -3.3590 C   0  0  0  0  0  0  0  0  0  0  0  0
   -2.8040   14.5780   -2.6660 C   0  0  1  0  0  0  0  0  0  0  0  0
   -1.4730   14.3780   -2.1430 N   0  0  0  0  0  0  0  0  0  0  0  0
   -3.6670   14.5080   -1.4860 N   0  0  0  0  0  0  0  0  0  0  0  0
   -1.4410   14.9520   -0.8100 C   0  0  1  0  0  0  0  0  0  0  0  0
   -2.8970   15.2200   -0.4420 C   0  0  2  0  0  0  0  0  0  0  0  0
   -0.7740   13.9830    0.0170 N   0  0  0  0  0  0  0  0  0  0  0  0
   -3.1140   14.7260    0.9910 C   0  0  2  0  0  0  0  0  0  0  0  0
   -4.1480   15.4720    1.6970 N   0  0  0  0  0  0  0  0  0  0  0  0
   -0.6680   14.4390    1.3770 C   0  0  0  0  0  0  0  0  0  0  0  0
   -1.9760   14.9180    1.8410 N   0  0  0  0  0  0  0  0  0  0  0  0
  2  1  1  6
  2  3  1  0
  2  4  1  0
  4  5  1  6
  3  6  1  0
  4  7  1  0
  6  7  1  0
  6  8  1  6
  7  9  1  1
  8 10  1  0
 10 11  1  0
 11 12  1  0
 12 13  1  0
 13 14  1  0
 14 15  1  0
 15 16  1  0
 17 16  1  1
 17 18  1  0
 17 19  1  0
 20 18  1  6
 21 19  1  6
 20 21  1  0
 20 22  1  0
 21 23  1  0
 23 24  1  1
 22 25  1  0
 23 26  1  0
 25 26  1  0
M  END
