mArh-6mea_A_0_A_Î²
     RDKit          3D

  9  8  0  0  0  0  0  0  0  0999 V2000
   -1.7310   20.3510   -8.3310 O   0  0  0  0  0  0  0  0  0  0  0  0
   -0.4270   19.6840   -7.7850 P   0  0  2  0  0  0  0  0  0  0  0  0
   -0.9640   19.2010   -6.3490 O   0  0  0  0  0  0  0  0  0  0  0  0
    0.5890   20.6390   -7.4380 O   0  0  0  0  0  0  0  0  0  0  0  0
   -0.2200   18.4680   -8.4880 O   0  0  0  0  0  0  0  0  0  0  0  0
   -2.0260   18.1560   -5.7970 P   0  0  2  0  0  0  0  0  0  0  0  0
   -1.0010   16.9000   -5.5720 O   0  0  0  0  0  0  0  0  0  0  0  0
   -2.8910   17.6200   -6.8280 O   0  0  0  0  0  0  0  0  0  0  0  0
   -2.3840   18.4760   -4.4550 O   0  0  0  0  0  0  0  0  0  0  0  0
  2  1  1  6
  3  2  1  0
  2  4  2  0
  2  5  1  0
  6  3  1  0
  6  7  1  1
  6  8  2  0
  6  9  1  0
M  END
