mArh-5cms_G_3_G_Î±
     RDKit          3D

  9  8  0  0  0  0  0  0  0  0999 V2000
   -0.9750   16.7420   -6.1500 O   0  0  0  0  0  0  0  0  0  0  0  0
   -2.0720   17.8490   -6.4740 P   0  0  0  0  0  0  0  0  0  0  0  0
   -2.6710   18.2440   -5.1460 O   0  0  0  0  0  0  0  0  0  0  0  0
   -2.9880   17.4140   -7.6150 O   0  0  0  0  0  0  0  0  0  0  0  0
   -1.0850   19.0610   -6.9410 O   0  0  0  0  0  0  0  0  0  0  0  0
   -0.5080   19.4410   -8.4110 P   0  0  0  0  0  0  0  0  0  0  0  0
   -1.5690   20.5050   -9.0810 O   0  0  0  0  0  0  0  0  0  0  0  0
   -0.3400   18.1160   -9.0890 O   0  0  0  0  0  0  0  0  0  0  0  0
    0.7590   20.2230   -8.2100 O   0  0  0  0  0  0  0  0  0  0  0  0
  2  1  1  0
  2  3  1  0
  2  4  1  0
  2  5  1  0
  5  6  1  0
  6  7  1  0
  6  8  1  0
  6  9  1  0
M  CHG  2   3  -1   8  -1
M  END
