
     RDKit          3D

 36 39  0  0  0  0  0  0  0  0999 V2000
   -1.9700   18.1580   -6.4920 P   0  0  0  0  0  0  0  0  0  0  0  0
   -0.3640   19.7180   -8.2030 P   0  0  0  0  0  0  0  0  0  0  0  0
   -0.0210   17.1780   -5.1060 C   0  0  0  0  0  0  0  0  0  0  0  0
   -0.7750   17.0810   -6.3090 O   0  0  0  0  0  0  0  0  0  0  0  0
    0.3260   15.8260   -4.5090 C   0  0  1  0  0  0  0  0  0  0  0  0
   -0.0660   15.8170   -3.1370 O   0  0  0  0  0  0  0  0  0  0  0  0
   -0.3820   14.6250   -5.0880 C   0  0  1  0  0  0  0  0  0  0  0  0
    0.5870   13.5610   -5.1400 O   0  0  0  0  0  0  0  0  0  0  0  0
   -1.2960   14.0530   -4.0680 C   0  0  1  0  0  0  0  0  0  0  0  0
   -0.9140   12.6840   -4.0540 O   0  0  0  0  0  0  0  0  0  0  0  0
   -0.7620   14.6140   -2.8090 C   0  0  2  0  0  0  0  0  0  0  0  0
   -5.1230   21.7050   -7.6030 C   0  0  1  0  0  0  0  0  0  0  0  0
   -1.4470   15.6050    2.1090 N   0  0  0  0  0  0  0  0  0  0  0  0
   -2.8120   17.8050   -7.7230 O   0  0  0  0  0  0  0  0  0  0  0  0
    0.9500   20.4490   -7.8280 O   0  0  0  0  0  0  0  0  0  0  0  0
   -5.2470   21.0870   -6.3040 O   0  0  0  0  0  0  0  0  0  0  0  0
   -0.3360   15.3180    1.4110 C   0  0  0  0  0  0  0  0  0  0  0  0
   -4.5140   23.0850   -7.5230 C   0  0  2  0  0  0  0  0  0  0  0  0
   -2.6520   18.3490   -5.0990 O   0  0  0  0  0  0  0  0  0  0  0  0
   -0.1820   18.4640   -9.0740 O   0  0  0  0  0  0  0  0  0  0  0  0
   -5.5120   24.0970   -7.2710 O   0  0  0  0  0  0  0  0  0  0  0  0
   -3.8710   23.2180   -8.8850 C   0  0  2  0  0  0  0  0  0  0  0  0
   -0.3470   15.0780    0.0780 N   0  0  0  0  0  0  0  0  0  0  0  0
   -1.2080   19.5220   -6.8450 O   0  0  0  0  0  0  0  0  0  0  0  0
   -4.8240   23.3760   -9.9270 O   0  0  0  0  0  0  0  0  0  0  0  0
   -1.5140   15.1350   -0.6090 C   0  0  0  0  0  0  0  0  0  0  0  0
   -3.2960   21.8660   -9.0910 C   0  0  2  0  0  0  0  0  0  0  0  0
   -4.1770   20.9790   -8.4010 O   0  0  0  0  0  0  0  0  0  0  0  0
   -2.7660   15.4560    0.0690 C   0  0  0  0  0  0  0  0  0  0  0  0
   -1.9390   21.7690   -8.4600 C   0  0  0  0  0  0  0  0  0  0  0  0
   -1.3190   20.6700   -9.0790 O   0  0  0  0  0  0  0  0  0  0  0  0
   -2.6770   15.6950    1.5150 C   0  0  0  0  0  0  0  0  0  0  0  0
   -3.7730   16.0090    2.2340 N   0  0  0  0  0  0  0  0  0  0  0  0
   -3.7070   15.4330   -0.8580 N   0  0  0  0  0  0  0  0  0  0  0  0
   -3.1180   15.1260   -2.0440 C   0  0  0  0  0  0  0  0  0  0  0  0
   -1.8130   14.9430   -1.8670 N   0  0  0  0  0  0  0  0  0  0  0  0
  1  4  1  0
  1 14  2  0
  1 19  1  0
  1 24  1  0
  4  3  1  0
 24  2  1  0
  2 15  2  0
  2 20  1  0
  2 31  1  0
 31 30  1  0
  5  3  1  6
  5  6  1  0
  5  7  1  0
  6 11  1  0
  7  8  1  1
  7  9  1  0
 11  9  1  0
 11 36  1  1
  9 10  1  1
 36 26  1  0
 36 35  1  0
 12 16  1  1
 12 18  1  0
 12 28  1  0
 18 21  1  6
 18 22  1  0
 28 27  1  0
 13 17  2  0
 13 32  1  0
 17 23  1  0
 32 29  2  0
 32 33  1  0
 23 26  2  0
 22 25  1  6
 22 27  1  0
 27 30  1  1
 26 29  1  0
 29 34  1  0
 34 35  2  0
M  END
