mArh-5l9k_A_0_A_γ-mArh-6woj_C_0_C_γ
     RDKit          3D

  9  9  0  0  0  0  0  0  0  0999 V2000
   -2.2200   12.9240   -4.7780 O   0  0  0  0  0  0  0  0  0  0  0  0
   -1.6040   14.2050   -4.6270 C   0  0  1  0  0  0  0  0  0  0  0  0
   -1.7350   14.7550   -3.2140 C   0  0  0  0  0  0  0  0  0  0  0  0
   -0.0780   14.1170   -4.6960 C   0  0  0  0  0  0  0  0  0  0  0  0
    0.3560   13.1210   -3.8000 O   0  0  0  0  0  0  0  0  0  0  0  0
    0.4880   13.7830   -5.9340 O   0  0  0  0  0  0  0  0  0  0  0  0
   -0.5950   15.6290   -3.0320 O   0  0  0  0  0  0  0  0  0  0  0  0
    0.2220   15.5370   -4.2150 C   0  0  2  0  0  0  0  0  0  0  0  0
   -0.1250   16.6880   -5.1570 C   0  0  0  0  0  0  0  0  0  0  0  0
  2  1  1  1
  2  3  1  0
  2  4  1  0
  4  5  1  0
  4  6  1  0
  3  7  1  0
  4  8  1  0
  7  8  1  0
  8  9  1  6
M  END
