mArh-EU0342_0_A_α-mArh-x0104_0_A_β
     RDKit          3D

 13 13  0  0  0  0  0  0  0  0999 V2000
    0.4160   14.8370   -0.0240 C   0  0  0  0  0  0  0  0  0  0  0  0
   -0.9610   14.8880   -0.3900 N   0  0  0  0  0  0  0  0  0  0  0  0
   -1.9070   14.8120    0.5920 C   0  0  0  0  0  0  0  0  0  0  0  0
   -1.6620   14.6640    1.7820 O   0  0  0  0  0  0  0  0  0  0  0  0
   -3.3100   14.9160    0.0960 C   0  0  0  0  0  0  0  0  0  0  0  0
   -4.2020   14.9440    1.0860 C   0  0  0  0  0  0  0  0  0  0  0  0
   -3.7690   14.9820   -1.3060 C   0  0  0  0  0  0  0  0  0  0  0  0
   -5.5480   15.0240    0.8370 N   0  0  0  0  0  0  0  0  0  0  0  0
   -5.0810   15.0800   -1.5510 C   0  0  0  0  0  0  0  0  0  0  0  0
   -2.8360   14.9450   -2.4830 C   0  0  0  0  0  0  0  0  0  0  0  0
   -6.4020   14.7690    1.9390 N   0  0  0  0  0  0  0  0  0  0  0  0
   -6.0780   15.1120   -0.4550 C   0  0  0  0  0  0  0  0  0  0  0  0
   -7.2730   15.2080   -0.7170 O   0  0  0  0  0  0  0  0  0  0  0  0
  1  2  1  0
  2  3  1  0
  3  4  2  0
  3  5  1  0
  5  6  2  0
  5  7  1  0
  6  8  1  0
  7  9  2  0
  7 10  1  0
  8 11  1  0
  8 12  1  0
  9 12  1  0
 12 13  2  0
M  END
