mArh-5cb5_B_0_B_Î³
     RDKit          3D

  8  8  0  0  0  0  0  0  0  0999 V2000
   -0.6740   14.7400   -2.9880 C   0  0  0  0  0  0  0  0  0  0  0  0
   -0.1350   15.9980   -3.3460 O   0  0  0  0  0  0  0  0  0  0  0  0
   -1.1680   14.1320   -4.2600 C   0  0  1  0  0  0  0  0  0  0  0  0
    0.3790   15.9140   -4.6910 C   0  0  1  0  0  0  0  0  0  0  0  0
   -0.1740   14.6350   -5.2670 C   0  0  1  0  0  0  0  0  0  0  0  0
   -0.9060   12.7270   -4.2360 O   0  0  0  0  0  0  0  0  0  0  0  0
    0.0040   17.1040   -5.5730 C   0  0  0  0  0  0  0  0  0  0  0  0
    0.9590   13.7640   -5.3310 O   0  0  0  0  0  0  0  0  0  0  0  0
  1  2  1  1
  1  3  1  0
  4  2  1  0
  5  3  1  0
  3  6  1  1
  4  7  1  6
  4  5  1  0
  5  8  1  1
M  END
