mArh-x0626_0_A_α-mArh-x0104_0_A_β
     RDKit          3D

 19 20  0  0  0  0  0  0  0  0999 V2000
   -4.9780   13.2040    1.5840 N   0  0  0  0  0  0  0  0  0  0  0  0
   -6.2690   13.2090    1.0530 C   0  0  0  0  0  0  0  0  0  0  0  0
   -6.6220   12.2940    0.3260 O   0  0  0  0  0  0  0  0  0  0  0  0
   -3.7550   13.6410    1.0450 C   0  0  0  0  0  0  0  0  0  0  0  0
   -7.1660   14.4030    1.2590 C   0  0  2  0  0  0  0  0  0  0  0  0
   -2.6440   14.1220    1.6360 N   0  0  0  0  0  0  0  0  0  0  0  0
   -3.6580   13.5260   -0.6580 S   0  0  0  0  0  0  0  0  0  0  0  0
   -8.5310   14.3940    0.5620 C   0  0  0  0  0  0  0  0  0  0  0  0
   -2.0570   14.1400   -0.6280 C   0  0  0  0  0  0  0  0  0  0  0  0
   -1.6760   14.3950    0.6700 C   0  0  0  0  0  0  0  0  0  0  0  0
   -6.0930   14.9680    0.4900 C   0  0  0  0  0  0  0  0  0  0  0  0
   -0.3520   14.9110    1.0760 C   0  0  0  0  0  0  0  0  0  0  0  0
   -5.0420   15.4530    1.2290 C   0  0  0  0  0  0  0  0  0  0  0  0
   -6.0830   14.9710   -0.8940 C   0  0  0  0  0  0  0  0  0  0  0  0
   -3.9780   15.9260    0.5530 C   0  0  0  0  0  0  0  0  0  0  0  0
   -4.9520   15.4610   -1.4770 C   0  0  0  0  0  0  0  0  0  0  0  0
   -4.8930   15.4470   -2.8410 O   0  0  0  0  0  0  0  0  0  0  0  0
   -3.9040   15.9270   -0.7830 N   0  0  0  0  0  0  0  0  0  0  0  0
   -3.5910   15.0880   -3.2830 C   0  0  0  0  0  0  0  0  0  0  0  0
  1  2  1  0
  2  3  2  0
  1  4  1  0
  2  5  1  0
  4  6  2  0
  4  7  1  0
  5  8  1  6
  7  9  1  0
  6 10  1  0
  9 10  2  0
  5 11  1  0
 10 12  1  0
 11 13  2  0
 11 14  1  0
 13 15  1  0
 14 16  2  0
 16 17  1  0
 15 18  2  0
 16 18  1  0
 17 19  1  0
M  END
