mArh-x0128_0_A_α-mArh-mac-194_0_A_α
     RDKit          3D

 20 22  0  0  0  0  0  0  0  0999 V2000
   -6.5310   14.7950    2.4430 N   0  0  0  0  0  0  0  0  0  0  0  0
   -7.7080   15.1540    3.0720 C   0  0  0  0  0  0  0  0  0  0  0  0
   -8.7660   15.3620    2.4780 O   0  0  0  0  0  0  0  0  0  0  0  0
   -6.3180   14.7740    1.0860 C   0  0  0  0  0  0  0  0  0  0  0  0
   -7.7050   15.3060    4.4360 N   0  0  0  0  0  0  0  0  0  0  0  0
   -7.3020   14.7660    0.1880 C   0  0  0  0  0  0  0  0  0  0  0  0
   -5.0140   14.7770    0.3760 C   0  0  0  0  0  0  0  0  0  0  0  0
   -6.7290   14.7750   -1.1540 C   0  0  0  0  0  0  0  0  0  0  0  0
   -5.2860   14.7870   -0.9990 C   0  0  0  0  0  0  0  0  0  0  0  0
   -8.5060   16.1190    5.2680 C   0  0  0  0  0  0  0  0  0  0  0  0
   -3.6770   14.7710    0.7750 C   0  0  0  0  0  0  0  0  0  0  0  0
   -7.3530   14.7650   -2.1870 O   0  0  0  0  0  0  0  0  0  0  0  0
   -9.1840   17.2680    4.8650 C   0  0  0  0  0  0  0  0  0  0  0  0
   -8.6400   15.7470    6.6070 C   0  0  0  0  0  0  0  0  0  0  0  0
   -2.6820   14.7750   -0.2210 C   0  0  0  0  0  0  0  0  0  0  0  0
   -4.3370   14.7960   -1.9920 C   0  0  0  0  0  0  0  0  0  0  0  0
   -9.9510   18.0300    5.6800 N   0  0  0  0  0  0  0  0  0  0  0  0
   -9.4220   16.5150    7.4710 C   0  0  0  0  0  0  0  0  0  0  0  0
   -3.0090   14.7900   -1.5930 C   0  0  0  0  0  0  0  0  0  0  0  0
  -10.0520   17.6400    6.9620 C   0  0  0  0  0  0  0  0  0  0  0  0
  1  2  1  0
  2  3  2  0
  1  4  1  0
  2  5  1  0
  4  6  2  0
  4  7  1  0
  6  8  1  0
  7  9  2  0
  8  9  1  0
  5 10  1  0
  7 11  1  0
  8 12  2  0
 10 13  2  0
 10 14  1  0
 11 15  2  0
  9 16  1  0
 13 17  1  0
 14 18  2  0
 15 19  1  0
 16 19  2  0
 17 20  2  0
 18 20  1  0
M  END
