mArh-5dus_0_A_Î²
     RDKit          3D

  9  8  0  0  0  0  0  0  0  0999 V2000
   -1.7430   20.4190   -8.2990 O   0  0  0  0  0  0  0  0  0  0  0  0
   -0.5070   19.6800   -7.6600 P   0  0  2  0  0  0  0  0  0  0  0  0
   -0.9980   19.2290   -6.2010 O   0  0  0  0  0  0  0  0  0  0  0  0
    0.6370   20.6690   -7.4300 O   0  0  0  0  0  0  0  0  0  0  0  0
   -0.2120   18.4520   -8.5120 O   0  0  0  0  0  0  0  0  0  0  0  0
   -1.9430   18.1100   -5.6650 P   0  0  2  0  0  0  0  0  0  0  0  0
   -1.0360   16.9070   -5.2040 O   0  0  0  0  0  0  0  0  0  0  0  0
   -2.8580   17.5620   -6.7600 O   0  0  0  0  0  0  0  0  0  0  0  0
   -2.7270   18.6500   -4.4790 O   0  0  0  0  0  0  0  0  0  0  0  0
  2  1  1  6
  3  2  1  0
  2  4  2  0
  2  5  1  0
  6  3  1  0
  6  7  1  1
  6  8  2  0
  6  9  1  0
M  END
