mArh-x0253_0_A_α-mArh-x0421_0_A_α
     RDKit          3D

 27 29  0  0  0  0  0  0  0  0999 V2000
    0.3160   11.9620   -5.3830 N   0  0  0  0  0  0  0  0  0  0  0  0
    1.0640   11.6800   -6.5020 C   0  0  0  0  0  0  0  0  0  0  0  0
    2.1800   12.1340   -6.6540 O   0  0  0  0  0  0  0  0  0  0  0  0
    0.8440   12.8670   -4.3700 C   0  0  0  0  0  0  0  0  0  0  0  0
    0.7990   12.2080   -2.9960 C   0  0  0  0  0  0  0  0  0  0  0  0
    0.4540   10.7500   -7.5110 C   0  0  0  0  0  0  0  0  0  0  0  0
    0.9110   12.8730   -1.9090 N   0  0  0  0  0  0  0  0  0  0  0  0
    0.6140   10.8780   -2.9740 O   0  0  0  0  0  0  0  0  0  0  0  0
   -0.5220    9.8330   -7.1240 C   0  0  0  0  0  0  0  0  0  0  0  0
    0.8580   10.7890   -8.8580 C   0  0  0  0  0  0  0  0  0  0  0  0
    1.0550   14.3240   -1.9150 C   0  0  0  0  0  0  0  0  0  0  0  0
   -1.0950    8.9650   -8.0570 C   0  0  0  0  0  0  0  0  0  0  0  0
    0.2920    9.9280   -9.7890 C   0  0  0  0  0  0  0  0  0  0  0  0
   -2.1430    7.9830   -7.6370 C   0  0  0  0  0  0  0  0  0  0  0  0
   -0.1900   14.9640   -1.2500 C   0  0  0  0  0  0  0  0  0  0  0  0
   -0.6810    9.0180   -9.3940 C   0  0  0  0  0  0  0  0  0  0  0  0
   -1.3590   15.0860   -2.1770 N   0  0  0  0  0  0  0  0  0  0  0  0
   -2.6530   15.1120   -1.8780 C   0  0  0  0  0  0  0  0  0  0  0  0
   -3.5820   15.2370   -2.8730 N   0  0  0  0  0  0  0  0  0  0  0  0
   -3.3270   15.0110   -0.5900 C   0  0  0  0  0  0  0  0  0  0  0  0
   -2.7220   15.0060    0.6440 C   0  0  0  0  0  0  0  0  0  0  0  0
   -4.7050   14.8980   -0.4500 N   0  0  0  0  0  0  0  0  0  0  0  0
   -3.7360   14.8840    1.5340 N   0  0  0  0  0  0  0  0  0  0  0  0
   -4.9060   14.8200    0.8470 C   0  0  0  0  0  0  0  0  0  0  0  0
   -6.2870   14.6720    1.5550 C   0  0  0  0  0  0  0  0  0  0  0  0
   -7.5490   14.6690    0.7310 C   0  0  0  0  0  0  0  0  0  0  0  0
   -7.0760   13.4030    1.3800 C   0  0  0  0  0  0  0  0  0  0  0  0
  1  2  1  0
  2  3  2  0
  1  4  1  0
  4  5  1  0
  2  6  1  0
  5  7  2  3
  5  8  1  0
  6  9  2  0
  6 10  1  0
  7 11  1  0
  9 12  1  0
 10 13  2  0
 12 14  1  0
 11 15  1  0
 12 16  2  0
 13 16  1  0
 15 17  1  0
 17 18  2  3
 18 19  1  0
 18 20  1  0
 20 21  2  0
 20 22  1  0
 21 23  1  0
 22 24  2  0
 23 24  1  0
 24 25  1  0
 25 26  1  0
 25 27  1  0
 26 27  1  0
M  END
