mArh-6mea_B_0_B_α-5CB5_0_P_γ
     RDKit          3D

 22 23  0  0  0  0  0  0  0  0999 V2000
   -2.3120   21.7860   -8.9580 C   0  0  0  0  0  0  0  0  0  0  0  0
   -3.2200   22.3740   -7.9450 C   0  0  2  0  0  0  0  0  0  0  0  0
   -4.2700   21.4630   -7.8180 O   0  0  0  0  0  0  0  0  0  0  0  0
   -3.9820   23.7170   -8.1020 C   0  0  1  0  0  0  0  0  0  0  0  0
   -4.4180   24.0220   -9.4290 O   0  0  0  0  0  0  0  0  0  0  0  0
   -4.6470   22.1670   -6.7150 C   0  0  1  0  0  0  0  0  0  0  0  0
   -5.2390   23.4240   -7.2500 C   0  0  1  0  0  0  0  0  0  0  0  0
   -5.1390   21.4190   -5.6750 O   0  0  0  0  0  0  0  0  0  0  0  0
   -5.5130   24.3830   -6.2420 O   0  0  0  0  0  0  0  0  0  0  0  0
   -3.8170   21.0070   -5.3030 C   0  0  0  0  0  0  0  0  0  0  0  0
   -3.0330   20.1810   -6.3710 C   0  0  0  0  0  0  0  0  0  0  0  0
   -1.5880   19.9250   -5.9960 C   0  0  0  0  0  0  0  0  0  0  0  0
   -0.9040   18.8370   -6.8350 C   0  0  0  0  0  0  0  0  0  0  0  0
    0.1280   18.0270   -6.0300 C   0  0  0  0  0  0  0  0  0  0  0  0
   -0.5420   16.9090   -5.2240 C   0  0  0  0  0  0  0  0  0  0  0  0
    0.3950   15.8500   -4.6130 C   0  0  1  0  0  0  0  0  0  0  0  0
    0.0840   15.8140   -3.1980 O   0  0  0  0  0  0  0  0  0  0  0  0
    0.1950   14.4010   -5.0770 C   0  0  1  0  0  0  0  0  0  0  0  0
    1.3160   13.5410   -4.9610 O   0  0  0  0  0  0  0  0  0  0  0  0
   -0.7380   14.6700   -2.9160 C   0  0  0  0  0  0  0  0  0  0  0  0
   -0.9540   13.9180   -4.2130 C   0  0  2  0  0  0  0  0  0  0  0  0
   -0.8850   12.5100   -4.0710 O   0  0  0  0  0  0  0  0  0  0  0  0
  2  1  1  6
  2  3  1  0
  2  4  1  0
  4  5  1  6
  3  6  1  0
  4  7  1  0
  6  7  1  0
  6  8  1  6
  7  9  1  1
  8 10  1  0
 10 11  1  0
 11 12  1  0
 12 13  1  0
 13 14  1  0
 14 15  1  0
 16 15  1  6
 16 17  1  0
 16 18  1  0
 18 19  1  1
 17 20  1  0
 18 21  1  0
 20 21  1  0
 21 22  1  1
M  END
