mArh-5cms_A_0_A_γ-5CB5_0_M_γ
     RDKit          3D

  8  8  0  0  0  0  0  0  0  0999 V2000
   -0.4790   11.9830   -4.0060 O   0  0  0  0  0  0  0  0  0  0  0  0
   -0.8940   13.3300   -4.2230 C   0  0  1  0  0  0  0  0  0  0  0  0
   -0.7410   14.1800   -2.9640 C   0  0  0  0  0  0  0  0  0  0  0  0
    0.0570   14.0140   -5.1780 C   0  0  2  0  0  0  0  0  0  0  0  0
    1.3810   13.5260   -5.0110 O   0  0  0  0  0  0  0  0  0  0  0  0
   -0.2310   15.4700   -3.3700 O   0  0  0  0  0  0  0  0  0  0  0  0
   -0.2170   15.4720   -4.8050 C   0  0  1  0  0  0  0  0  0  0  0  0
    0.7300   16.5390   -5.3230 C   0  0  0  0  0  0  0  0  0  0  0  0
  2  1  1  1
  2  3  1  0
  2  4  1  0
  4  5  1  1
  3  6  1  0
  4  7  1  0
  6  7  1  0
  7  8  1  1
M  END
