mArh-5cb5_K_0_K_α-6WOJ_0_C_γ
     RDKit          3D

 22 23  0  0  0  0  0  0  0  0999 V2000
   -2.2650   21.4490   -8.9930 C   0  0  0  0  0  0  0  0  0  0  0  0
   -2.6640   22.7120   -8.2950 C   0  0  2  0  0  0  0  0  0  0  0  0
   -2.7670   22.2950   -6.9550 O   0  0  0  0  0  0  0  0  0  0  0  0
   -3.9990   23.3480   -8.6410 C   0  0  1  0  0  0  0  0  0  0  0  0
   -4.3980   23.0900   -9.9910 O   0  0  0  0  0  0  0  0  0  0  0  0
   -4.1020   22.2210   -6.5220 C   0  0  1  0  0  0  0  0  0  0  0  0
   -4.9870   22.7550   -7.6500 C   0  0  1  0  0  0  0  0  0  0  0  0
   -4.3330   20.8680   -6.2120 O   0  0  0  0  0  0  0  0  0  0  0  0
   -5.8670   23.7900   -7.1890 O   0  0  0  0  0  0  0  0  0  0  0  0
   -3.1740   20.1070   -6.6180 C   0  0  0  0  0  0  0  0  0  0  0  0
   -1.9240   20.3060   -5.8410 C   0  0  0  0  0  0  0  0  0  0  0  0
   -1.0030   19.1140   -6.0950 C   0  0  0  0  0  0  0  0  0  0  0  0
   -0.8610   18.2990   -4.8260 C   0  0  0  0  0  0  0  0  0  0  0  0
    0.5760   17.8930   -4.5370 C   0  0  0  0  0  0  0  0  0  0  0  0
    0.9200   16.6350   -5.3000 C   0  0  0  0  0  0  0  0  0  0  0  0
    1.2480   15.4380   -4.4120 C   0  0  1  0  0  0  0  0  0  0  0  0
    0.4870   15.5490   -3.1760 O   0  0  0  0  0  0  0  0  0  0  0  0
    0.8550   14.0970   -5.0310 C   0  0  1  0  0  0  0  0  0  0  0  0
    1.6700   12.9910   -4.6920 O   0  0  0  0  0  0  0  0  0  0  0  0
   -0.4280   14.4450   -3.1120 C   0  0  0  0  0  0  0  0  0  0  0  0
   -0.5650   13.9250   -4.5290 C   0  0  2  0  0  0  0  0  0  0  0  0
   -0.9770   12.5670   -4.6140 O   0  0  0  0  0  0  0  0  0  0  0  0
  2  1  1  6
  2  3  1  0
  2  4  1  0
  4  5  1  6
  3  6  1  0
  4  7  1  0
  6  7  1  0
  6  8  1  6
  7  9  1  1
  8 10  1  0
 10 11  1  0
 11 12  1  0
 12 13  1  0
 13 14  1  0
 14 15  1  0
 16 15  1  6
 16 17  1  0
 16 18  1  0
 18 19  1  1
 17 20  1  0
 18 21  1  0
 20 21  1  0
 21 22  1  1
M  END
