mArh-5mqx_0_A_γ-mArh-x0371_0_A_β
     RDKit          3D

 20 22  0  0  0  0  0  0  0  0999 V2000
    0.2160   10.4820   -2.0930 O   0  0  0  0  0  0  0  0  0  0  0  0
   -0.8840   11.3760   -2.2990 C   0  0  1  0  0  0  0  0  0  0  0  0
   -0.5240   12.7870   -1.8050 C   0  0  0  0  0  0  0  0  0  0  0  0
   -1.1400   11.5990   -3.7780 C   0  0  2  0  0  0  0  0  0  0  0  0
    0.0780   11.5810   -4.5130 O   0  0  0  0  0  0  0  0  0  0  0  0
   -0.8450   13.7000   -2.8790 O   0  0  0  0  0  0  0  0  0  0  0  0
   -1.8020   12.9570   -3.6290 C   0  0  1  0  0  0  0  0  0  0  0  0
   -2.2520   13.6570   -4.9000 C   0  0  0  0  0  0  0  0  0  0  0  0
   -3.3760   14.6420   -4.5850 C   0  0  0  0  0  0  0  0  0  0  0  0
   -3.0270   15.5400   -3.4000 C   0  0  0  0  0  0  0  0  0  0  0  0
   -3.7330   15.2710   -2.0770 C   0  0  0  0  0  0  0  0  0  0  0  0
   -2.9750   15.0840   -0.9030 C   0  0  0  0  0  0  0  0  0  0  0  0
   -5.1350   15.2030   -2.0010 C   0  0  0  0  0  0  0  0  0  0  0  0
   -5.7420   14.9490   -0.7630 C   0  0  0  0  0  0  0  0  0  0  0  0
   -3.5640   14.8360    0.3410 C   0  0  0  0  0  0  0  0  0  0  0  0
   -4.9510   14.7740    0.3620 C   0  0  0  0  0  0  0  0  0  0  0  0
   -7.0730   14.8300   -0.4400 N   0  0  0  0  0  0  0  0  0  0  0  0
   -7.1060   14.5830    0.8530 C   0  0  0  0  0  0  0  0  0  0  0  0
   -5.8350   14.5440    1.3770 N   0  0  0  0  0  0  0  0  0  0  0  0
   -8.3060   14.3690    1.6900 C   0  0  0  0  0  0  0  0  0  0  0  0
  2  1  1  6
  2  3  1  0
  2  4  1  0
  4  5  1  6
  3  6  1  0
  4  7  1  0
  6  7  1  0
  7  8  1  6
  8  9  1  0
  9 10  1  0
 10 11  1  0
 11 12  2  0
 11 13  1  0
 13 14  2  0
 12 15  1  0
 14 16  1  0
 15 16  2  0
 14 17  1  0
 17 18  2  0
 16 19  1  0
 18 19  1  0
 18 20  1  0
M  END
