mArh-5cb5_K_0_K_γ-5CB5_0_L_δ
     RDKit          3D

 17 19  0  0  0  0  0  0  0  0999 V2000
   -1.3110   12.6650   -3.6200 O   0  0  0  0  0  0  0  0  0  0  0  0
   -0.5790   13.8740   -3.4720 C   0  0  2  0  0  0  0  0  0  0  0  0
   -1.2530   15.0560   -2.7370 C   0  0  2  0  0  0  0  0  0  0  0  0
   -0.1730   14.4080   -4.8450 C   0  0  2  0  0  0  0  0  0  0  0  0
    1.1470   13.9970   -5.1720 O   0  0  0  0  0  0  0  0  0  0  0  0
   -0.6440   16.2290   -3.3490 O   0  0  0  0  0  0  0  0  0  0  0  0
   -0.3880   15.9240   -4.7400 C   0  0  1  0  0  0  0  0  0  0  0  0
   -1.0910   15.1760   -1.1880 C   0  0  1  0  0  0  0  0  0  0  0  0
   -2.8040   15.1220   -2.8900 C   0  0  0  0  0  0  0  0  0  0  0  0
    0.7520   16.7980   -5.2570 C   0  0  0  0  0  0  0  0  0  0  0  0
   -2.4780   14.8610   -0.6290 C   0  0  2  0  0  0  0  0  0  0  0  0
   -3.4200   15.4600   -1.5770 N   0  0  0  0  0  0  0  0  0  0  0  0
   -0.0900   14.3750   -0.4750 N   0  0  0  0  0  0  0  0  0  0  0  0
   -0.1310   14.4810    0.9900 C   0  0  0  0  0  0  0  0  0  0  0  0
   -2.3900   15.3840    0.8120 C   0  0  1  0  0  0  0  0  0  0  0  0
   -3.6530   15.4430    1.5260 N   0  0  0  0  0  0  0  0  0  0  0  0
   -1.4520   14.6180    1.5810 N   0  0  0  0  0  0  0  0  0  0  0  0
  2  1  1  6
  2  3  1  0
  2  4  1  0
  4  5  1  1
  3  6  1  0
  4  7  1  0
  6  7  1  0
  3  8  1  0
  3  9  1  1
  7 10  1  1
  8 11  1  0
  9 12  1  0
 11 12  1  6
  8 13  1  1
 13 14  1  0
 11 15  1  0
 15 16  1  1
 14 17  1  0
 15 17  1  0
M  END
