mArh-5l9k_B_0_B_α-mArh-6mea_B_0_B_γ
     RDKit          3D

 22 23  0  0  0  0  0  0  0  0999 V2000
   -2.3690   21.8290   -8.5770 C   0  0  0  0  0  0  0  0  0  0  0  0
   -3.8780   21.9710   -8.6750 C   0  0  1  0  0  0  0  0  0  0  0  0
   -4.5080   21.1140   -7.6310 N   0  0  0  0  0  0  0  0  0  0  0  0
   -4.3140   23.4160   -8.4030 C   0  0  1  0  0  0  0  0  0  0  0  0
   -4.6160   24.1410   -9.5820 O   0  0  0  0  0  0  0  0  0  0  0  0
   -3.5680   20.9680   -6.4880 C   0  0  0  0  0  0  0  0  0  0  0  0
   -5.7670   21.8050   -7.3380 C   0  0  1  0  0  0  0  0  0  0  0  0
   -5.5980   23.3110   -7.6040 C   0  0  1  0  0  0  0  0  0  0  0  0
   -6.8870   21.3080   -8.0550 O   0  0  0  0  0  0  0  0  0  0  0  0
   -5.5610   24.1160   -6.4250 O   0  0  0  0  0  0  0  0  0  0  0  0
   -2.7400   19.6570   -6.4380 C   0  0  0  0  0  0  0  0  0  0  0  0
   -1.3610   19.6230   -7.1140 C   0  0  0  0  0  0  0  0  0  0  0  0
   -0.2610   19.1390   -6.1670 C   0  0  0  0  0  0  0  0  0  0  0  0
    0.1380   17.7180   -6.3280 C   0  0  0  0  0  0  0  0  0  0  0  0
    0.7030   16.9590   -5.1210 C   0  0  0  0  0  0  0  0  0  0  0  0
   -0.1510   15.8180   -4.5590 C   0  0  2  0  0  0  0  0  0  0  0  0
    0.0840   15.6980   -3.1460 O   0  0  0  0  0  0  0  0  0  0  0  0
    0.0600   14.3800   -5.0490 C   0  0  1  0  0  0  0  0  0  0  0  0
    1.3840   13.9030   -5.2020 O   0  0  0  0  0  0  0  0  0  0  0  0
   -0.6300   14.5170   -2.7620 C   0  0  0  0  0  0  0  0  0  0  0  0
   -0.6630   13.5870   -3.9740 C   0  0  1  0  0  0  0  0  0  0  0  0
   -1.9700   13.2140   -4.3780 O   0  0  0  0  0  0  0  0  0  0  0  0
  2  1  1  1
  2  3  1  0
  2  4  1  0
  4  5  1  6
  3  6  1  0
  3  7  1  0
  4  8  1  0
  7  8  1  0
  7  9  1  6
  8 10  1  1
  6 11  1  0
 11 12  1  0
 12 13  1  0
 13 14  1  0
 14 15  1  0
 16 15  1  6
 16 17  1  0
 16 18  1  0
 18 19  1  1
 17 20  1  0
 18 21  1  0
 20 21  1  0
 21 22  1  6
M  END
