mArh-6woj_A_0_A_Î±
     RDKit          3D

  9  9  0  0  0  0  0  0  0  0999 V2000
   -1.5230   21.8450   -8.0470 C   0  0  0  0  0  0  0  0  0  0  0  0
   -2.9810   22.1200   -8.3320 C   0  0  1  0  0  0  0  0  0  0  0  0
   -3.7720   21.2490   -7.4890 O   0  0  0  0  0  0  0  0  0  0  0  0
   -3.4890   23.5440   -8.0630 C   0  0  2  0  0  0  0  0  0  0  0  0
   -4.8020   22.0190   -6.9030 C   0  0  2  0  0  0  0  0  0  0  0  0
   -4.1440   23.3860   -6.6980 C   0  0  2  0  0  0  0  0  0  0  0  0
   -4.4710   23.9130   -9.0220 O   0  0  0  0  0  0  0  0  0  0  0  0
   -5.2160   21.4640   -5.7140 O   0  0  0  0  0  0  0  0  0  0  0  0
   -5.0370   24.4320   -6.3960 O   0  0  0  0  0  0  0  0  0  0  0  0
  2  1  1  1
  3  2  1  0
  4  2  1  0
  5  3  1  0
  6  4  1  0
  4  7  1  6
  5  8  1  1
  5  6  1  0
  6  9  1  6
M  END
