mArh-5cb5_E_0_E_β-mArh-5cb5_R_0_R_β
     RDKit          3D

  9  8  0  0  0  0  0  0  0  0999 V2000
   -1.1420   20.3620   -9.0260 O   0  0  0  0  0  0  0  0  0  0  0  0
   -0.1820   19.8900   -7.8700 P   0  0  0  0  0  0  0  0  0  0  0  0
   -1.1700   19.6620   -6.6950 O   0  0  0  0  0  0  0  0  0  0  0  0
    1.0020   20.7750   -7.6500 O   0  0  0  0  0  0  0  0  0  0  0  0
    0.1240   18.4760   -8.5570 O   0  0  0  0  0  0  0  0  0  0  0  0
   -1.6260   18.2800   -6.1120 P   0  0  0  0  0  0  0  0  0  0  0  0
   -0.3170   17.3800   -6.0410 O   0  0  0  0  0  0  0  0  0  0  0  0
   -2.7280   17.6480   -6.8570 O   0  0  0  0  0  0  0  0  0  0  0  0
   -1.9080   18.6310   -4.5960 O   0  0  0  0  0  0  0  0  0  0  0  0
  1  2  1  0
  2  3  1  0
  2  4  2  0
  2  5  1  0
  3  6  1  0
  6  7  1  0
  6  8  2  0
  6  9  1  0
M  END
