mArh-5l9k_A_0_A_β-mArh-5cb5_O_0_O_γ
     RDKit          3D

 18 18  0  0  0  0  0  0  0  0999 V2000
   -1.9230   20.7410   -8.8390 O   0  0  0  0  0  0  0  0  0  0  0  0
   -1.0080   19.8520   -7.9000 P   0  0  0  0  0  0  0  0  0  0  0  0
   -1.9160   19.4910   -6.6520 O   0  0  0  0  0  0  0  0  0  0  0  0
   -0.4660   18.6860   -8.6490 O   0  0  0  0  0  0  0  0  0  0  0  0
    0.1210   20.8770   -7.4930 O   0  0  0  0  0  0  0  0  0  0  0  0
   -2.1190   18.0360   -6.0750 P   0  0  1  0  0  0  0  0  0  0  0  0
   -0.7460   17.3630   -6.3040 O   0  0  0  0  0  0  0  0  0  0  0  0
   -2.4510   17.8790   -4.6530 O   0  0  0  0  0  0  0  0  0  0  0  0
   -3.1210   17.3000   -7.0850 O   0  0  0  0  0  0  0  0  0  0  0  0
    0.1000   17.8790   -5.3270 C   0  0  0  0  0  0  0  0  0  0  0  0
    1.1510   16.9130   -4.9020 C   0  0  0  0  0  0  0  0  0  0  0  0
    0.7950   15.6150   -4.1900 C   0  0  1  0  0  0  0  0  0  0  0  0
   -0.1760   15.8250   -3.1610 O   0  0  0  0  0  0  0  0  0  0  0  0
    0.3190   14.4710   -5.0870 C   0  0  1  0  0  0  0  0  0  0  0  0
    1.2980   13.4360   -5.1760 O   0  0  0  0  0  0  0  0  0  0  0  0
   -0.8680   14.5820   -3.0140 C   0  0  0  0  0  0  0  0  0  0  0  0
   -0.9340   13.9490   -4.3970 C   0  0  2  0  0  0  0  0  0  0  0  0
   -0.8760   12.5290   -4.2790 O   0  0  0  0  0  0  0  0  0  0  0  0
  1  2  1  0
  2  3  1  0
  2  4  2  0
  2  5  1  0
  3  6  1  0
  6  7  1  0
  6  8  2  0
  6  9  1  6
  7 10  1  0
 10 11  1  0
 12 11  1  6
 12 13  1  0
 12 14  1  0
 14 15  1  1
 13 16  1  0
 14 17  1  0
 16 17  1  0
 17 18  1  1
M  END
