mArh-EU0569_0_A_Î±
     RDKit          3D

 13 14  0  0  0  0  0  0  0  0999 V2000
   -7.7330   15.0160    4.4650 N   0  0  0  0  0  0  0  0  0  0  0  0
   -8.2950   15.0760    3.2630 C   0  0  0  0  0  0  0  0  0  0  0  0
   -7.3060   15.1050   -0.3580 O   0  0  0  0  0  0  0  0  0  0  0  0
   -7.4460   14.8030    2.0870 C   0  0  0  0  0  0  0  0  0  0  0  0
   -9.4890   15.3780    3.1190 O   0  0  0  0  0  0  0  0  0  0  0  0
   -6.1100   14.7430    2.1450 C   0  0  0  0  0  0  0  0  0  0  0  0
   -5.3150   14.7150    0.9640 C   0  0  0  0  0  0  0  0  0  0  0  0
   -3.9260   14.5990    0.9770 C   0  0  0  0  0  0  0  0  0  0  0  0
   -3.1960   14.8100   -0.1760 C   0  0  0  0  0  0  0  0  0  0  0  0
   -3.8300   15.1230   -1.3490 C   0  0  0  0  0  0  0  0  0  0  0  0
   -5.2080   15.2140   -1.3960 C   0  0  0  0  0  0  0  0  0  0  0  0
   -5.9430   15.0000   -0.2480 C   0  0  0  0  0  0  0  0  0  0  0  0
   -8.1280   14.7020    0.7530 C   0  0  0  0  0  0  0  0  0  0  0  0
  1  2  1  0
  2  4  1  0
  2  5  2  0
  4  6  2  0
  4 13  1  0
  3 12  1  0
  3 13  1  0
 12  7  2  0
 12 11  1  0
  6  7  1  0
  7  8  1  0
  8  9  2  0
  9 10  1  0
 10 11  2  0
M  END
