mArh-5cb5_D_0_D_α-4J4Z_0_A_α
     RDKit          3D

 27 28  0  0  0  0  0  0  0  0999 V2000
   -1.9390   21.7700   -8.2130 C   0  0  0  0  0  0  0  0  0  0  0  0
   -3.3230   22.0600   -8.7860 C   0  0  1  0  0  0  0  0  0  0  0  0
   -4.2810   21.0760   -8.3700 O   0  0  0  0  0  0  0  0  0  0  0  0
   -3.8870   23.4210   -8.3920 C   0  0  1  0  0  0  0  0  0  0  0  0
   -4.7480   23.9520   -9.4100 O   0  0  0  0  0  0  0  0  0  0  0  0
   -5.1460   21.6550   -7.3880 C   0  0  2  0  0  0  0  0  0  0  0  0
   -4.6780   23.0960   -7.1290 C   0  0  2  0  0  0  0  0  0  0  0  0
   -4.9810   20.9120   -6.1850 O   0  0  0  0  0  0  0  0  0  0  0  0
   -5.8070   23.9670   -6.9720 O   0  0  0  0  0  0  0  0  0  0  0  0
   -3.5830   20.7920   -5.8510 C   0  0  0  0  0  0  0  0  0  0  0  0
   -2.8940   19.6420   -6.6080 C   0  0  0  0  0  0  0  0  0  0  0  0
   -1.6780   19.0480   -5.9010 C   0  0  0  0  0  0  0  0  0  0  0  0
   -1.9900   17.9710   -5.0100 O   0  0  0  0  0  0  0  0  0  0  0  0
   -0.8590   16.8200   -4.8120 S   0  0  0  0  0  0  0  0  0  0  0  0
    0.2130   17.1030   -3.6530 O   0  0  0  0  0  0  0  0  0  0  0  0
    0.0240   16.6610   -6.1210 O   0  0  0  0  0  0  0  0  0  0  0  0
   -1.6050   15.2380   -4.4500 C   0  0  0  0  0  0  0  0  0  0  0  0
   -0.5970   14.0970   -4.2520 C   0  0  0  0  0  0  0  0  0  0  0  0
   -1.2220   12.7740   -4.3110 N   0  0  0  0  0  0  0  0  0  0  0  0
   -2.3950   12.7740   -5.1970 C   0  0  0  0  0  0  0  0  0  0  0  0
   -0.2950   11.6410   -4.5520 C   0  0  0  0  0  0  0  0  0  0  0  0
   -3.0130   11.3910   -5.5250 C   0  0  0  0  0  0  0  0  0  0  0  0
   -0.9480   10.2310   -4.6830 C   0  0  0  0  0  0  0  0  0  0  0  0
   -2.3850   10.1610   -5.0270 N   0  0  0  0  0  0  0  0  0  0  0  0
   -2.9080    8.9960   -5.7340 C   0  0  0  0  0  0  0  0  0  0  0  0
   -2.7310    7.6150   -5.1710 C   0  0  0  0  0  0  0  0  0  0  0  0
   -3.4050    7.5160   -3.9160 O   0  0  0  0  0  0  0  0  0  0  0  0
  2  1  1  1
  2  3  1  0
  2  4  1  0
  4  5  1  6
  3  6  1  0
  4  7  1  0
  6  7  1  0
  6  8  1  1
  7  9  1  6
  8 10  1  0
 10 11  1  0
 11 12  1  0
 12 13  1  0
 14 13  1  0
 14 15  1  0
 14 16  1  0
 14 17  1  0
 17 18  1  0
 18 19  1  0
 19 20  1  0
 19 21  1  0
 20 22  1  0
 21 23  1  0
 22 24  1  0
 23 24  1  0
 24 25  1  0
 25 26  1  0
 26 27  1  0
M  END
