mArh-5cms_H_7_H_Î²
     RDKit          3D

  9  8  0  0  0  0  0  0  0  0999 V2000
   -0.9180   20.7980   -8.4760 O   0  0  0  0  0  0  0  0  0  0  0  0
   -0.5720   19.2420   -8.2800 P   0  0  2  0  0  0  0  0  0  0  0  0
   -2.0140   18.6780   -7.8100 O   0  0  0  0  0  0  0  0  0  0  0  0
    0.4750   19.2190   -7.2170 O   0  0  0  0  0  0  0  0  0  0  0  0
   -0.2000   18.5890   -9.5740 O   0  0  0  0  0  0  0  0  0  0  0  0
   -2.3640   17.7100   -6.5760 P   0  0  2  0  0  0  0  0  0  0  0  0
   -1.0700   16.7770   -6.3950 O   0  0  0  0  0  0  0  0  0  0  0  0
   -3.5740   16.9260   -7.0980 O   0  0  0  0  0  0  0  0  0  0  0  0
   -2.5290   18.5610   -5.3380 O   0  0  0  0  0  0  0  0  0  0  0  0
  2  1  1  6
  3  2  1  0
  2  4  2  0
  2  5  1  0
  6  3  1  0
  6  7  1  1
  6  8  2  0
  6  9  1  0
M  END
