mArh-5cms_J_9_J_β-mArh-x0900_1_A_α
     RDKit          3D

 20 20  0  0  0  0  0  0  0  0999 V2000
   -0.1810   21.2780   -7.5290 O   0  0  0  0  0  0  0  0  0  0  0  0
   -0.4210   19.7290   -7.8460 P   0  0  0  0  0  0  0  0  0  0  0  0
   -1.5720   19.3060   -6.8460 O   0  0  0  0  0  0  0  0  0  0  0  0
    0.7720   18.8440   -7.8060 O   0  0  0  0  0  0  0  0  0  0  0  0
   -1.1940   19.8680   -9.1870 O   0  0  0  0  0  0  0  0  0  0  0  0
   -1.7020   17.9490   -6.0440 P   0  0  0  0  0  0  0  0  0  0  0  0
   -0.2950   17.2710   -5.8930 O   0  0  0  0  0  0  0  0  0  0  0  0
   -2.9080   16.9400   -6.6460 N   0  0  0  0  0  0  0  0  0  0  0  0
   -2.0630   18.4150   -4.6060 O   0  0  0  0  0  0  0  0  0  0  0  0
   -3.0440   15.6190   -5.9790 C   0  0  0  0  0  0  0  0  0  0  0  0
   -3.7680   14.5560   -6.8520 C   0  0  0  0  0  0  0  0  0  0  0  0
   -3.0700   13.2210   -7.2100 C   0  0  0  0  0  0  0  0  0  0  0  0
   -3.1800   12.6550   -8.6460 C   0  0  0  0  0  0  0  0  0  0  0  0
   -3.0060   11.1560   -8.9380 C   0  0  0  0  0  0  0  0  0  0  0  0
   -1.5890   10.7120   -9.0720 N   0  0  0  0  0  0  0  0  0  0  0  0
   -1.2870    9.7100   -8.3240 C   0  0  0  0  0  0  0  0  0  0  0  0
   -0.1130    9.0090   -8.1330 N   0  0  0  0  0  0  0  0  0  0  0  0
   -2.3690    9.1220   -7.4380 C   0  0  0  0  0  0  0  0  0  0  0  0
   -1.6240    8.0120   -6.6970 C   0  0  0  0  0  0  0  0  0  0  0  0
   -0.1630    8.4150   -6.8130 C   0  0  0  0  0  0  0  0  0  0  0  0
  1  2  1  0
  2  3  1  0
  2  4  2  0
  2  5  1  0
  3  6  1  0
  6  7  1  0
  6  8  2  3
  6  9  1  0
  8 10  1  0
 10 11  1  0
 11 12  1  0
 12 13  1  0
 13 14  1  0
 14 15  1  0
 15 16  2  3
 16 17  1  0
 16 18  1  0
 18 19  1  0
 17 20  1  0
 19 20  1  0
M  END
