mArh-5cb5_F_1_F_α-mArh-5cb5_Q_0_Q_β
     RDKit          3D

 20 20  0  0  0  0  0  0  0  0999 V2000
   -1.8790   21.4810   -7.7590 C   0  0  0  0  0  0  0  0  0  0  0  0
   -0.5330   20.2880   -7.8490 P   0  0  2  0  0  0  0  0  0  0  0  0
   -0.5870   19.3760   -6.5530 O   0  0  0  0  0  0  0  0  0  0  0  0
   -2.8760   21.6820   -8.9020 C   0  0  2  0  0  0  0  0  0  0  0  0
    0.8140   20.9080   -7.9370 O   0  0  0  0  0  0  0  0  0  0  0  0
   -0.7790   19.0940   -8.8780 O   0  0  0  0  0  0  0  0  0  0  0  0
   -3.3340   23.1260   -9.1000 C   0  0  1  0  0  0  0  0  0  0  0  0
   -4.1030   21.0390   -8.5360 O   0  0  0  0  0  0  0  0  0  0  0  0
   -4.1840   23.3170  -10.2350 O   0  0  0  0  0  0  0  0  0  0  0  0
   -1.7240   18.4110   -6.0490 P   0  0  0  0  0  0  0  0  0  0  0  0
   -4.1210   23.2280   -7.8540 C   0  0  2  0  0  0  0  0  0  0  0  0
   -4.9910   22.0040   -8.0070 C   0  0  2  0  0  0  0  0  0  0  0  0
   -4.9470   24.3720   -7.8100 O   0  0  0  0  0  0  0  0  0  0  0  0
   -5.5250   21.5350   -6.7750 O   0  0  0  0  0  0  0  0  0  0  0  0
   -0.9560   17.1900   -5.3880 O   0  0  0  0  0  0  0  0  0  0  0  0
   -2.7600   17.9710   -7.0010 O   0  0  0  0  0  0  0  0  0  0  0  0
   -2.2540   19.2320   -4.7950 O   0  0  0  0  0  0  0  0  0  0  0  0
   -5.1730   24.4390   -6.5140 C   0  0  0  0  0  0  0  0  0  0  0  0
   -4.4950   25.5950   -5.8790 C   0  0  0  0  0  0  0  0  0  0  0  0
   -5.7970   23.5940   -5.9660 O   0  0  0  0  0  0  0  0  0  0  0  0
  1  2  1  0
  2  3  1  0
  4  1  1  1
  2  5  2  0
  2  6  1  6
  4  7  1  0
  4  8  1  0
  7  9  1  6
  3 10  1  0
  7 11  1  0
  8 12  1  0
 11 12  1  0
 11 13  1  6
 12 14  1  1
 10 15  1  0
 10 16  2  0
 10 17  1  0
 13 18  1  0
 18 19  1  0
 18 20  2  0
M  END
