mArh-5cms_K_10_K_α-1VHU_0_A_α
     RDKit          3D

 20 21  0  0  0  0  0  0  0  0999 V2000
   -1.2100   21.8750   -8.4610 C   0  0  1  0  0  0  0  0  0  0  0  0
   -2.0800   22.2790   -7.3020 C   0  0  0  0  0  0  0  0  0  0  0  0
   -3.5310   22.4170   -7.5410 N   0  0  0  0  0  0  0  0  0  0  0  0
   -0.2890   20.3910   -7.9130 S   0  0  0  0  0  0  0  0  0  0  0  0
   -1.9070   22.2760   -9.7850 C   0  0  2  0  0  0  0  0  0  0  0  0
   -0.2710   19.1110   -8.8550 O   0  0  0  0  0  0  0  0  0  0  0  0
   -0.9140   19.9160   -6.5150 O   0  0  0  0  0  0  0  0  0  0  0  0
    1.1850   20.9740   -7.6170 O   0  0  0  0  0  0  0  0  0  0  0  0
   -2.2270   21.3740  -10.8480 O   0  0  0  0  0  0  0  0  0  0  0  0
   -1.4680   23.5610  -10.4770 C   0  0  1  0  0  0  0  0  0  0  0  0
   -0.1910   23.6340  -11.0690 O   0  0  0  0  0  0  0  0  0  0  0  0
   -2.9950   22.2190  -11.7590 C   0  0  2  0  0  0  0  0  0  0  0  0
   -2.5070   23.6710  -11.5620 C   0  0  1  0  0  0  0  0  0  0  0  0
   -3.8450   22.7310   -8.9600 C   0  0  0  0  0  0  0  0  0  0  0  0
   -3.8810   23.6230   -6.7680 C   0  0  0  0  0  0  0  0  0  0  0  0
   -4.4000   22.1780  -11.5340 O   0  0  0  0  0  0  0  0  0  0  0  0
   -3.5430   24.6040  -11.2910 O   0  0  0  0  0  0  0  0  0  0  0  0
   -5.3060   23.1460   -9.1550 C   0  0  0  0  0  0  0  0  0  0  0  0
   -5.3380   23.9440   -6.9710 C   0  0  0  0  0  0  0  0  0  0  0  0
   -5.6130   24.2640   -8.3300 O   0  0  0  0  0  0  0  0  0  0  0  0
  1  2  1  1
  2  3  1  0
  1  4  1  0
  1  5  1  0
  4  6  1  0
  4  7  1  0
  4  8  1  0
  5  9  1  6
  5 10  1  0
 10 11  1  6
  9 12  1  0
 10 13  1  0
 12 13  1  0
  3 14  1  0
  3 15  1  0
 12 16  1  1
 13 17  1  1
 14 18  1  0
 15 19  1  0
 18 20  1  0
 19 20  1  0
M  END
