
     RDKit          3D

 36 39  0  0  0  0  0  0  0  0999 V2000
   -1.6660   18.1520   -6.5500 P   0  0  0  0  0  0  0  0  0  0  0  0
   -0.2370   19.7690   -8.2110 P   0  0  0  0  0  0  0  0  0  0  0  0
    0.4620   16.8940   -5.6810 C   0  0  0  0  0  0  0  0  0  0  0  0
   -0.7060   16.8440   -6.4960 O   0  0  0  0  0  0  0  0  0  0  0  0
    0.3570   15.8190   -4.6320 C   0  0  1  0  0  0  0  0  0  0  0  0
   -0.6340   16.0990   -3.6270 O   0  0  0  0  0  0  0  0  0  0  0  0
   -0.0550   14.4660   -5.2110 C   0  0  1  0  0  0  0  0  0  0  0  0
    1.1160   13.6380   -5.1880 O   0  0  0  0  0  0  0  0  0  0  0  0
   -1.0510   13.8520   -4.2280 C   0  0  1  0  0  0  0  0  0  0  0  0
   -0.6010   12.5140   -3.9330 O   0  0  0  0  0  0  0  0  0  0  0  0
   -0.8410   14.7750   -3.0420 C   0  0  2  0  0  0  0  0  0  0  0  0
   -5.1210   21.6720   -7.5590 C   0  0  1  0  0  0  0  0  0  0  0  0
   -1.1200   15.3170    1.9640 N   0  0  0  0  0  0  0  0  0  0  0  0
   -2.4900   18.0100   -7.8300 O   0  0  0  0  0  0  0  0  0  0  0  0
    0.6800   20.9540   -7.9700 O   0  0  0  0  0  0  0  0  0  0  0  0
   -5.0820   21.0150   -6.2660 O   0  0  0  0  0  0  0  0  0  0  0  0
   -0.0920   15.1670    1.0950 C   0  0  0  0  0  0  0  0  0  0  0  0
   -4.5260   23.0750   -7.4750 C   0  0  2  0  0  0  0  0  0  0  0  0
   -2.3410   18.4330   -5.2200 O   0  0  0  0  0  0  0  0  0  0  0  0
    0.1060   18.6740   -9.2130 O   0  0  0  0  0  0  0  0  0  0  0  0
   -5.5620   24.0760   -7.4240 O   0  0  0  0  0  0  0  0  0  0  0  0
   -3.6690   23.2920   -8.7080 C   0  0  2  0  0  0  0  0  0  0  0  0
   -0.2390   15.0290   -0.2420 N   0  0  0  0  0  0  0  0  0  0  0  0
   -0.5050   19.2520   -6.7420 O   0  0  0  0  0  0  0  0  0  0  0  0
   -4.4090   23.8300   -9.7780 O   0  0  0  0  0  0  0  0  0  0  0  0
   -1.4770   15.0110   -0.7620 C   0  0  0  0  0  0  0  0  0  0  0  0
   -3.3420   21.9070   -9.1450 C   0  0  2  0  0  0  0  0  0  0  0  0
   -4.3020   21.0000   -8.5280 O   0  0  0  0  0  0  0  0  0  0  0  0
   -2.6850   15.1530    0.0830 C   0  0  0  0  0  0  0  0  0  0  0  0
   -1.8920   21.6190   -8.7560 C   0  0  0  0  0  0  0  0  0  0  0  0
   -1.6940   20.2170   -8.7020 O   0  0  0  0  0  0  0  0  0  0  0  0
   -2.4050   15.3230    1.5510 C   0  0  0  0  0  0  0  0  0  0  0  0
   -3.3620   15.4660    2.4980 N   0  0  0  0  0  0  0  0  0  0  0  0
   -3.7620   15.0980   -0.7680 N   0  0  0  0  0  0  0  0  0  0  0  0
   -3.2480   14.9410   -2.0400 C   0  0  0  0  0  0  0  0  0  0  0  0
   -1.8850   14.8720   -2.0020 N   0  0  0  0  0  0  0  0  0  0  0  0
  1  4  1  0
  1 14  2  0
  1 19  1  0
  1 24  1  0
  4  3  1  0
 24  2  1  0
  2 15  2  0
  2 20  1  0
  2 31  1  0
 31 30  1  0
  5  3  1  6
  5  6  1  0
  5  7  1  0
  6 11  1  0
  7  8  1  1
  7  9  1  0
 11  9  1  0
 11 36  1  1
  9 10  1  1
 36 26  1  0
 36 35  1  0
 12 16  1  1
 12 18  1  0
 12 28  1  0
 18 21  1  6
 18 22  1  0
 28 27  1  0
 13 17  2  0
 13 32  1  0
 17 23  1  0
 32 29  2  0
 32 33  1  0
 23 26  2  0
 22 25  1  6
 22 27  1  0
 27 30  1  1
 26 29  1  0
 29 34  1  0
 34 35  2  0
M  END
