
     RDKit          3D

 12 12  0  0  0  0  0  0  0  0999 V2000
   -6.4070   24.0360   -8.2710 O   0  0  0  0  0  0  0  0  0  0  0  0
   -1.5030   19.1260   -6.9570 O   0  0  0  0  0  0  0  0  0  0  0  0
   -5.9460   23.6930   -6.9600 C   0  0  0  0  0  0  0  0  0  0  0  0
   -0.0020   20.6380   -8.1460 O   0  0  0  0  0  0  0  0  0  0  0  0
   -4.4540   23.3840   -6.9790 C   0  0  0  0  0  0  0  0  0  0  0  0
   -0.9360   18.7830   -9.2770 O   0  0  0  0  0  0  0  0  0  0  0  0
   -4.1870   22.3510   -7.9900 N   0  0  0  0  0  0  0  0  0  0  0  0
   -4.5800   22.8160   -9.3440 C   0  0  0  0  0  0  0  0  0  0  0  0
   -6.0660   23.1340   -9.3240 C   0  0  0  0  0  0  0  0  0  0  0  0
   -2.7540   21.9650   -7.9940 C   0  0  0  0  0  0  0  0  0  0  0  0
   -2.5420   20.6580   -8.7580 C   0  0  0  0  0  0  0  0  0  0  0  0
   -1.2080   19.7760   -8.2640 S   0  0  1  0  0  0  0  0  0  0  0  0
  1  3  1  0
  1  9  1  0
  3  5  1  0
  9  8  1  0
  2 12  2  0
 12  4  2  0
 12  6  1  6
 12 11  1  0
  5  7  1  0
  7  8  1  0
  7 10  1  0
 10 11  1  0
M  CHG  2   6  -1   7   1
M  END
