mArh-5cms_Q_16_Q_β-mArh-5cb5_N_0_N_β
     RDKit          3D

  9  8  0  0  0  0  0  0  0  0999 V2000
   -1.7040   20.2470   -7.8870 O   0  0  0  0  0  0  0  0  0  0  0  0
   -0.2880   19.5400   -7.7110 P   0  0  0  0  0  0  0  0  0  0  0  0
   -0.4360   18.4080   -6.6400 O   0  0  0  0  0  0  0  0  0  0  0  0
    0.8340   20.4840   -7.5810 O   0  0  0  0  0  0  0  0  0  0  0  0
   -0.1170   18.6570   -9.0120 O   0  0  0  0  0  0  0  0  0  0  0  0
   -1.7310   17.9620   -5.8630 P   0  0  0  0  0  0  0  0  0  0  0  0
   -1.1900   16.9300   -4.7820 O   0  0  0  0  0  0  0  0  0  0  0  0
   -2.7860   17.3940   -6.7280 O   0  0  0  0  0  0  0  0  0  0  0  0
   -2.1670   19.2260   -5.0020 O   0  0  0  0  0  0  0  0  0  0  0  0
  1  2  1  0
  2  3  1  0
  2  4  2  0
  2  5  1  0
  3  6  1  0
  6  7  1  0
  6  8  2  0
  6  9  1  0
M  END
