mArh-x0918_0_B_α-mArh-5cb3_0_A_β
     RDKit          3D

 23 23  0  0  0  0  0  0  0  0999 V2000
   -3.2540   29.6180  -14.2950 N   0  0  0  0  0  0  0  0  0  0  0  0
   -4.4950   29.3250  -13.7120 C   0  0  0  0  0  0  0  0  0  0  0  0
   -4.6560   28.2600  -12.8220 C   0  0  0  0  0  0  0  0  0  0  0  0
   -5.6020   30.1040  -14.0230 C   0  0  0  0  0  0  0  0  0  0  0  0
   -6.8120   29.7990  -13.4360 C   0  0  0  0  0  0  0  0  0  0  0  0
   -5.9280   28.0150  -12.2830 C   0  0  0  0  0  0  0  0  0  0  0  0
   -6.2460   26.8720  -11.3370 C   0  0  0  0  0  0  0  0  0  0  0  0
   -6.9940   28.7830  -12.5830 N   0  0  0  0  0  0  0  0  0  0  0  0
   -5.3620   25.6130  -11.4790 C   0  0  0  0  0  0  0  0  0  0  0  0
   -5.6780   24.4210  -10.5340 C   0  0  0  0  0  0  0  0  0  0  0  0
   -4.4400   23.5720  -10.1900 C   0  0  0  0  0  0  0  0  0  0  0  0
   -4.4390   22.9730   -8.7780 C   0  0  0  0  0  0  0  0  0  0  0  0
   -3.0160   22.8200   -8.1940 C   0  0  0  0  0  0  0  0  0  0  0  0
   -2.6390   21.4290   -7.6880 C   0  0  0  0  0  0  0  0  0  0  0  0
   -1.6810   20.7720   -8.5190 O   0  0  0  0  0  0  0  0  0  0  0  0
   -0.4600   19.9850   -7.8490 P   0  0  0  0  0  0  0  0  0  0  0  0
   -1.0030   19.5540   -6.4170 O   0  0  0  0  0  0  0  0  0  0  0  0
    0.8110   20.7530   -7.7310 O   0  0  0  0  0  0  0  0  0  0  0  0
   -0.3050   18.6290   -8.6920 O   0  0  0  0  0  0  0  0  0  0  0  0
   -1.6160   18.1220   -6.1230 P   0  0  0  0  0  0  0  0  0  0  0  0
   -0.3330   17.1780   -6.0930 O   0  0  0  0  0  0  0  0  0  0  0  0
   -2.6980   17.6150   -6.9810 O   0  0  0  0  0  0  0  0  0  0  0  0
   -1.9250   18.1450   -4.5790 O   0  0  0  0  0  0  0  0  0  0  0  0
  1  2  1  0
  2  3  2  0
  2  4  1  0
  4  5  2  0
  3  6  1  0
  6  7  1  0
  5  8  1  0
  6  8  2  0
  7  9  1  0
  9 10  1  0
 10 11  1  0
 11 12  1  0
 12 13  1  0
 13 14  1  0
 14 15  1  0
 15 16  1  0
 16 17  1  0
 16 18  2  0
 16 19  1  0
 17 20  1  0
 20 21  1  0
 20 22  2  0
 20 23  1  0
M  END
