mArh-x0805_0_A_α-mArh-mac-194_0_A_α
     RDKit          3D

 20 22  0  0  0  0  0  0  0  0999 V2000
   -1.8390   14.5300    0.3620 O   0  0  0  0  0  0  0  0  0  0  0  0
   -2.9160   15.1350    1.0410 C   0  0  0  0  0  0  0  0  0  0  0  0
   -3.9000   15.1150   -0.0250 C   0  0  0  0  0  0  0  0  0  0  0  0
   -2.1890   14.0280   -0.8860 C   0  0  0  0  0  0  0  0  0  0  0  0
   -3.2680   13.1730   -1.1790 C   0  0  0  0  0  0  0  0  0  0  0  0
   -1.3610   14.4460   -1.9310 C   0  0  0  0  0  0  0  0  0  0  0  0
   -1.5940   14.0250   -3.2430 C   0  0  0  0  0  0  0  0  0  0  0  0
   -3.5000   12.7510   -2.4970 C   0  0  0  0  0  0  0  0  0  0  0  0
   -5.2340   14.9480    0.2050 C   0  0  0  0  0  0  0  0  0  0  0  0
   -3.3980   15.2690   -1.3190 C   0  0  0  0  0  0  0  0  0  0  0  0
   -2.6650   13.1770   -3.5220 C   0  0  0  0  0  0  0  0  0  0  0  0
   -6.0620   14.9370   -0.9050 C   0  0  0  0  0  0  0  0  0  0  0  0
   -5.7090   14.7970    1.5150 N   0  0  0  0  0  0  0  0  0  0  0  0
   -4.2270   15.2550   -2.4140 C   0  0  0  0  0  0  0  0  0  0  0  0
   -6.9740   14.6290    1.6910 C   0  0  0  0  0  0  0  0  0  0  0  0
   -7.4860   14.7600   -0.6610 C   0  0  0  0  0  0  0  0  0  0  0  0
   -5.5790   15.0860   -2.2070 C   0  0  0  0  0  0  0  0  0  0  0  0
   -7.4640   14.4950    2.9460 N   0  0  0  0  0  0  0  0  0  0  0  0
   -8.2910   14.7660   -1.5770 O   0  0  0  0  0  0  0  0  0  0  0  0
   -7.8590   14.5860    0.6520 N   0  0  0  0  0  0  0  0  0  0  0  0
  1  2  1  0
  2  3  1  0
  1  4  1  0
  4  5  2  0
  4  6  1  0
  6  7  2  0
  5  8  1  0
  3  9  1  0
  3 10  2  0
  7 11  1  0
  8 11  2  0
  9 12  2  0
  9 13  1  0
 10 14  1  0
 13 15  2  0
 12 16  1  0
 12 17  1  0
 14 17  2  0
 15 18  1  0
 16 19  2  0
 15 20  1  0
 16 20  1  0
M  END
