mArh-5cb5_N_0_N_Î³
     RDKit          3D

  8  8  0  0  0  0  0  0  0  0999 V2000
   -0.5920   14.9430   -2.9720 C   0  0  0  0  0  0  0  0  0  0  0  0
   -0.2000   16.2530   -3.4180 O   0  0  0  0  0  0  0  0  0  0  0  0
   -1.0990   14.2570   -4.2180 C   0  0  1  0  0  0  0  0  0  0  0  0
    0.4500   16.0770   -4.6430 C   0  0  1  0  0  0  0  0  0  0  0  0
   -0.0890   14.8010   -5.2110 C   0  0  1  0  0  0  0  0  0  0  0  0
   -0.9990   12.8160   -4.0720 O   0  0  0  0  0  0  0  0  0  0  0  0
    0.0120   17.1460   -5.5790 C   0  0  0  0  0  0  0  0  0  0  0  0
    1.0490   13.9520   -5.2850 O   0  0  0  0  0  0  0  0  0  0  0  0
  1  2  1  1
  1  3  1  0
  4  2  1  0
  5  3  1  0
  3  6  1  1
  4  7  1  6
  4  5  1  0
  5  8  1  1
M  END
