mArh-EU0844_0_A_α-mArh-5cb5_L_0_L_α
     RDKit          3D

 30 32  0  0  0  0  0  0  0  0999 V2000
   -9.6870   14.6970    0.6600 C   0  0  0  0  0  0  0  0  0  0  0  0
   -8.2010   14.7960    0.8420 C   0  0  0  0  0  0  0  0  0  0  0  0
   -7.4670   14.8240   -0.3130 N   0  0  0  0  0  0  0  0  0  0  0  0
   -7.6100   14.8730    2.0990 C   0  0  0  0  0  0  0  0  0  0  0  0
   -8.4100   14.9000    3.3600 C   0  0  0  0  0  0  0  0  0  0  0  0
   -6.1160   14.9350   -0.2650 C   0  0  0  0  0  0  0  0  0  0  0  0
   -6.2040   14.9520    2.1490 C   0  0  0  0  0  0  0  0  0  0  0  0
   -9.4960   15.4770    3.3470 O   0  0  0  0  0  0  0  0  0  0  0  0
   -7.9000   14.3150    4.4940 N   0  0  0  0  0  0  0  0  0  0  0  0
   -5.4320   14.9880    0.9590 C   0  0  0  0  0  0  0  0  0  0  0  0
   -5.3700   15.0160   -1.4560 C   0  0  0  0  0  0  0  0  0  0  0  0
   -8.3110   14.7940    5.7930 C   0  0  0  0  0  0  0  0  0  0  0  0
   -3.9580   15.1490   -1.4970 C   0  0  0  0  0  0  0  0  0  0  0  0
   -4.0250   15.0920    0.9600 C   0  0  0  0  0  0  0  0  0  0  0  0
   -3.4290   15.2510   -2.8210 O   0  0  0  0  0  0  0  0  0  0  0  0
   -3.2970   15.1700   -0.2520 C   0  0  0  0  0  0  0  0  0  0  0  0
   -2.0210   15.1260   -3.2290 C   0  0  0  0  0  0  0  0  0  0  0  0
   -1.4560   16.0470   -4.4130 C   0  0  0  0  0  0  0  0  0  0  0  0
   -2.4300   17.0090   -5.1590 C   0  0  0  0  0  0  0  0  0  0  0  0
   -1.9690   18.5310   -5.4010 C   0  0  0  0  0  0  0  0  0  0  0  0
   -2.7970   19.4210   -6.4460 C   0  0  0  0  0  0  0  0  0  0  0  0
   -3.5650   20.6200   -5.9810 O   0  0  0  0  0  0  0  0  0  0  0  0
   -4.4570   21.2820   -6.9480 C   0  0  2  0  0  0  0  0  0  0  0  0
   -4.1930   20.7740   -8.2420 O   0  0  0  0  0  0  0  0  0  0  0  0
   -4.3710   22.8590   -7.1510 C   0  0  2  0  0  0  0  0  0  0  0  0
   -5.5170   23.6500   -6.7580 O   0  0  0  0  0  0  0  0  0  0  0  0
   -3.4150   21.7710   -8.8860 C   0  0  1  0  0  0  0  0  0  0  0  0
   -4.3690   22.9030   -8.6760 C   0  0  2  0  0  0  0  0  0  0  0  0
   -2.0630   21.9080   -8.1950 C   0  0  0  0  0  0  0  0  0  0  0  0
   -4.0120   24.1210   -9.2890 O   0  0  0  0  0  0  0  0  0  0  0  0
  1  2  1  0
  2  3  2  0
  2  4  1  0
  4  5  1  0
  3  6  1  0
  4  7  2  0
  5  8  2  0
  5  9  1  0
  6 10  2  0
  7 10  1  0
  6 11  1  0
  9 12  1  0
 11 13  2  0
 10 14  1  0
 13 15  1  0
 13 16  1  0
 14 16  2  0
 15 17  1  0
 17 18  1  0
 18 19  1  0
 19 20  1  0
 20 21  1  0
 21 22  1  0
 23 22  1  1
 23 24  1  0
 23 25  1  0
 25 26  1  1
 24 27  1  0
 25 28  1  0
 27 28  1  0
 27 29  1  1
 28 30  1  1
M  END
