mArh-5cms_L_11_L_γ-mArh-x0592_0_A_α
     RDKit          3D

 21 22  0  0  0  0  0  0  0  0999 V2000
    0.4340   12.3130   -4.1880 O   0  0  0  0  0  0  0  0  0  0  0  0
   -0.1840   13.5950   -4.1320 C   0  0  1  0  0  0  0  0  0  0  0  0
    0.3700   14.5370   -3.0690 C   0  0  2  0  0  0  0  0  0  0  0  0
    0.0470   14.3640   -5.4030 C   0  0  2  0  0  0  0  0  0  0  0  0
    1.3670   14.0900   -5.8470 O   0  0  0  0  0  0  0  0  0  0  0  0
   -0.2610   14.3650   -1.6940 C   0  0  0  0  0  0  0  0  0  0  0  0
    0.1330   15.8740   -3.5400 O   0  0  0  0  0  0  0  0  0  0  0  0
   -0.1600   15.8260   -4.9490 C   0  0  1  0  0  0  0  0  0  0  0  0
    0.7290   16.8780   -5.5970 C   0  0  0  0  0  0  0  0  0  0  0  0
   -1.7960   14.4190   -1.7030 C   0  0  0  0  0  0  0  0  0  0  0  0
   -2.1150   14.5980   -0.3060 N   0  0  0  0  0  0  0  0  0  0  0  0
   -3.2080   14.7470    0.3390 C   0  0  0  0  0  0  0  0  0  0  0  0
   -3.0820   14.8750    1.6820 N   0  0  0  0  0  0  0  0  0  0  0  0
   -4.6060   14.8060   -0.0230 C   0  0  0  0  0  0  0  0  0  0  0  0
   -5.2770   15.1090   -1.2370 C   0  0  0  0  0  0  0  0  0  0  0  0
   -5.6360   14.5510    0.8560 C   0  0  0  0  0  0  0  0  0  0  0  0
   -6.6160   15.0460   -1.1160 N   0  0  0  0  0  0  0  0  0  0  0  0
   -6.7960   14.7040    0.1780 N   0  0  0  0  0  0  0  0  0  0  0  0
   -8.1210   14.5320    0.7370 C   0  0  0  0  0  0  0  0  0  0  0  0
   -8.0630   14.0500    2.1870 C   0  0  0  0  0  0  0  0  0  0  0  0
   -7.3370   14.9540    3.0200 O   0  0  0  0  0  0  0  0  0  0  0  0
  2  1  1  6
  2  3  1  0
  2  4  1  0
  4  5  1  1
  3  6  1  1
  3  7  1  0
  4  8  1  0
  7  8  1  0
  8  9  1  6
  6 10  1  0
 10 11  1  0
 11 12  2  3
 12 13  1  0
 12 14  1  0
 14 15  1  0
 14 16  2  0
 15 17  2  0
 16 18  1  0
 17 18  1  0
 18 19  1  0
 19 20  1  0
 20 21  1  0
M  END
