mArh-4iqy_A_0_A_Î³
     RDKit          3D

  8  8  0  0  0  0  0  0  0  0999 V2000
   -0.5780   14.7180   -2.6670 C   0  0  0  0  0  0  0  0  0  0  0  0
   -0.2520   15.9990   -3.1310 O   0  0  0  0  0  0  0  0  0  0  0  0
   -0.9220   13.9610   -3.8990 C   0  0  1  0  0  0  0  0  0  0  0  0
    0.4940   15.7470   -4.3020 C   0  0  1  0  0  0  0  0  0  0  0  0
    0.2210   14.3360   -4.7460 C   0  0  1  0  0  0  0  0  0  0  0  0
   -1.0200   12.5990   -3.6990 O   0  0  0  0  0  0  0  0  0  0  0  0
    0.1750   16.8040   -5.3520 C   0  0  0  0  0  0  0  0  0  0  0  0
    1.3260   13.5360   -4.4700 O   0  0  0  0  0  0  0  0  0  0  0  0
  1  2  1  1
  1  3  1  0
  4  2  1  0
  5  3  1  0
  3  6  1  1
  4  7  1  6
  4  5  1  0
  5  8  1  1
M  END
