mArh-5cms_F_6_F_α-5CB5_0_R_α
     RDKit          3D

 16 18  0  0  0  0  0  0  0  0999 V2000
   -2.0880   21.5210   -9.7190 C   0  0  0  0  0  0  0  0  0  0  0  0
   -1.6700   22.5990  -10.6770 C   0  0  2  0  0  0  0  0  0  0  0  0
   -0.4490   23.4630  -10.3300 C   0  0  1  0  0  0  0  0  0  0  0  0
   -2.8650   22.0040   -8.4890 C   0  0  2  0  0  0  0  0  0  0  0  0
   -2.8450   23.5300  -11.0540 C   0  0  1  0  0  0  0  0  0  0  0  0
   -3.8500   21.0320   -8.1020 O   0  0  0  0  0  0  0  0  0  0  0  0
   -3.6190   23.3190   -8.6610 C   0  0  1  0  0  0  0  0  0  0  0  0
    0.6190   23.3320  -11.2440 O   0  0  0  0  0  0  0  0  0  0  0  0
   -3.8850   23.7100  -10.0380 O   0  0  0  0  0  0  0  0  0  0  0  0
   -2.1480   24.8470  -11.3890 C   0  0  1  0  0  0  0  0  0  0  0  0
   -4.6440   21.7170   -7.1600 C   0  0  1  0  0  0  0  0  0  0  0  0
   -4.9100   23.0780   -7.8120 C   0  0  1  0  0  0  0  0  0  0  0  0
   -0.9200   24.8780  -10.4570 C   0  0  0  0  0  0  0  0  0  0  0  0
   -1.7190   25.0150  -12.7130 O   0  0  0  0  0  0  0  0  0  0  0  0
   -5.8480   21.0130   -6.9020 O   0  0  0  0  0  0  0  0  0  0  0  0
   -5.2170   24.0570   -6.8020 O   0  0  0  0  0  0  0  0  0  0  0  0
  2  1  1  1
  2  3  1  0
  4  1  1  6
  2  5  1  0
  4  6  1  0
  4  7  1  0
  3  8  1  6
  5  9  1  1
  7  9  1  6
  5 10  1  0
  6 11  1  0
  7 12  1  0
 11 12  1  0
  3 13  1  0
 10 13  1  0
 10 14  1  6
 11 15  1  6
 12 16  1  1
M  END
