
     RDKit          3D

 11 12  0  0  0  0  0  0  0  0999 V2000
   -3.9210   14.5770    1.9860 N   0  0  0  0  0  0  0  0  0  0  0  0
   -2.6300   14.3580    1.3620 C   0  0  0  0  0  0  0  0  0  0  0  0
   -1.5690   14.0950    2.0970 N   0  0  0  0  0  0  0  0  0  0  0  0
   -0.3640   13.9020    1.6000 C   0  0  0  0  0  0  0  0  0  0  0  0
   -0.1990   13.9480    0.2180 C   0  0  0  0  0  0  0  0  0  0  0  0
   -1.3220   14.2200   -0.6290 C   0  0  0  0  0  0  0  0  0  0  0  0
   -1.2080   14.2830   -2.0470 C   0  0  0  0  0  0  0  0  0  0  0  0
   -2.3360   14.5460   -2.8190 C   0  0  0  0  0  0  0  0  0  0  0  0
   -3.5750   14.7530   -2.2100 C   0  0  0  0  0  0  0  0  0  0  0  0
   -3.6920   14.6950   -0.8330 C   0  0  0  0  0  0  0  0  0  0  0  0
   -2.5420   14.4240   -0.0490 C   0  0  0  0  0  0  0  0  0  0  0  0
  1  2  1  0
  2  3  2  0
  2 11  1  0
  3  4  1  0
 11  6  2  0
 11 10  1  0
  4  5  2  0
  5  6  1  0
  6  7  1  0
  7  8  2  0
  8  9  1  0
  9 10  2  0
M  END
