mArh-2bfq_0_A_Î±
     RDKit          3D

  9  9  0  0  0  0  0  0  0  0999 V2000
   -1.6780   22.2990   -7.8800 C   0  0  0  0  0  0  0  0  0  0  0  0
   -3.0970   22.6420   -8.2980 C   0  0  1  0  0  0  0  0  0  0  0  0
   -4.0250   21.6880   -7.6970 O   0  0  0  0  0  0  0  0  0  0  0  0
   -3.7830   23.9280   -7.8510 C   0  0  2  0  0  0  0  0  0  0  0  0
   -4.9530   22.2400   -6.7620 C   0  0  1  0  0  0  0  0  0  0  0  0
   -4.4360   23.6410   -6.5110 C   0  0  2  0  0  0  0  0  0  0  0  0
   -4.6600   24.4830   -8.8240 O   0  0  0  0  0  0  0  0  0  0  0  0
   -6.2790   22.1820   -7.3310 O   0  0  0  0  0  0  0  0  0  0  0  0
   -5.3790   24.6190   -6.0580 O   0  0  0  0  0  0  0  0  0  0  0  0
  2  1  1  1
  3  2  1  0
  4  2  1  0
  5  3  1  0
  6  4  1  0
  4  7  1  6
  5  8  1  6
  5  6  1  0
  6  9  1  6
M  END
