
     RDKit          3D

 36 39  0  0  0  0  0  0  0  0999 V2000
   -2.1020   17.8040   -6.5240 P   0  0  0  0  0  0  0  0  0  0  0  0
   -0.2990   19.3700   -8.1820 P   0  0  0  0  0  0  0  0  0  0  0  0
    0.0880   16.7260   -5.5080 C   0  0  0  0  0  0  0  0  0  0  0  0
   -0.9490   16.6920   -6.4740 O   0  0  0  0  0  0  0  0  0  0  0  0
    0.4040   15.4280   -4.7550 C   0  0  1  0  0  0  0  0  0  0  0  0
   -0.0880   15.5630   -3.4180 O   0  0  0  0  0  0  0  0  0  0  0  0
   -0.1430   14.0750   -5.2270 C   0  0  1  0  0  0  0  0  0  0  0  0
    0.8220   13.0410   -4.9250 O   0  0  0  0  0  0  0  0  0  0  0  0
   -1.2980   13.7410   -4.3330 C   0  0  1  0  0  0  0  0  0  0  0  0
   -1.4790   12.3200   -4.3580 O   0  0  0  0  0  0  0  0  0  0  0  0
   -0.7270   14.3310   -3.0270 C   0  0  2  0  0  0  0  0  0  0  0  0
   -3.1070   23.5360  -11.5440 C   0  0  1  0  0  0  0  0  0  0  0  0
   -1.2140   14.9600    2.1180 N   0  0  0  0  0  0  0  0  0  0  0  0
   -3.3020   17.3260   -7.3550 O   0  0  0  0  0  0  0  0  0  0  0  0
    0.9800   19.6910   -7.4310 O   0  0  0  0  0  0  0  0  0  0  0  0
   -4.2220   24.2310  -10.9640 O   0  0  0  0  0  0  0  0  0  0  0  0
   -0.1100   14.6150    1.3870 C   0  0  0  0  0  0  0  0  0  0  0  0
   -1.7820   24.2090  -11.1100 C   0  0  2  0  0  0  0  0  0  0  0  0
   -2.4350   18.2170   -5.1080 O   0  0  0  0  0  0  0  0  0  0  0  0
   -0.3180   18.1850   -9.1020 O   0  0  0  0  0  0  0  0  0  0  0  0
   -0.9640   24.6800  -12.2050 O   0  0  0  0  0  0  0  0  0  0  0  0
   -1.0810   23.1810  -10.2120 C   0  0  2  0  0  0  0  0  0  0  0  0
   -0.1040   14.4860    0.0290 N   0  0  0  0  0  0  0  0  0  0  0  0
   -1.5410   19.1540   -7.2110 O   0  0  0  0  0  0  0  0  0  0  0  0
    0.3410   23.0670  -10.4590 O   0  0  0  0  0  0  0  0  0  0  0  0
   -1.2780   14.7060   -0.6440 C   0  0  0  0  0  0  0  0  0  0  0  0
   -1.8900   21.8830  -10.4330 C   0  0  2  0  0  0  0  0  0  0  0  0
   -3.1420   22.1920  -11.0570 O   0  0  0  0  0  0  0  0  0  0  0  0
   -2.5050   15.0710    0.0820 C   0  0  0  0  0  0  0  0  0  0  0  0
   -2.0540   21.1170   -9.1380 C   0  0  0  0  0  0  0  0  0  0  0  0
   -0.7150   20.7600   -8.8870 O   0  0  0  0  0  0  0  0  0  0  0  0
   -2.4230   15.1960    1.5220 C   0  0  0  0  0  0  0  0  0  0  0  0
   -3.5720   15.5470    2.1280 N   0  0  0  0  0  0  0  0  0  0  0  0
   -3.5030   15.2310   -0.7880 N   0  0  0  0  0  0  0  0  0  0  0  0
   -2.9800   14.9890   -2.0090 C   0  0  0  0  0  0  0  0  0  0  0  0
   -1.6640   14.6670   -1.9190 N   0  0  0  0  0  0  0  0  0  0  0  0
  1  4  1  0
  1 14  2  0
  1 19  1  0
  1 24  1  0
  4  3  1  0
 24  2  1  0
  2 15  2  0
  2 20  1  0
  2 31  1  0
 31 30  1  0
  5  3  1  6
  5  6  1  0
  5  7  1  0
  6 11  1  0
  7  8  1  1
  7  9  1  0
 11  9  1  0
 11 36  1  1
  9 10  1  1
 36 26  1  0
 36 35  1  0
 12 16  1  1
 12 18  1  0
 12 28  1  0
 18 21  1  6
 18 22  1  0
 28 27  1  0
 13 17  2  0
 13 32  1  0
 17 23  1  0
 32 29  2  0
 32 33  1  0
 23 26  2  0
 22 25  1  6
 22 27  1  0
 27 30  1  1
 26 29  1  0
 29 34  1  0
 34 35  2  0
M  END
