mArh-5cms_O_14_O_β-4J4Z_0_A_α
     RDKit          3D

 22 22  0  0  0  0  0  0  0  0999 V2000
   -1.6000   20.4410   -8.1640 O   0  0  0  0  0  0  0  0  0  0  0  0
   -0.2410   19.7410   -7.7450 P   0  0  0  0  0  0  0  0  0  0  0  0
   -0.4300   18.9030   -6.4250 O   0  0  0  0  0  0  0  0  0  0  0  0
    0.9070   20.6730   -7.7030 O   0  0  0  0  0  0  0  0  0  0  0  0
   -0.0510   18.6460   -8.8820 O   0  0  0  0  0  0  0  0  0  0  0  0
   -1.6160   17.9590   -5.9420 P   0  0  2  0  0  0  0  0  0  0  0  0
   -0.7660   16.5880   -4.9800 C   0  0  0  0  0  0  0  0  0  0  0  0
   -2.6010   17.5320   -6.9630 O   0  0  0  0  0  0  0  0  0  0  0  0
   -2.2470   18.9580   -4.8520 O   0  0  0  0  0  0  0  0  0  0  0  0
   -0.0450   17.2110   -3.9360 O   0  0  0  0  0  0  0  0  0  0  0  0
    0.2640   16.1300   -5.8410 O   0  0  0  0  0  0  0  0  0  0  0  0
   -1.6910   15.4250   -4.5390 C   0  0  0  0  0  0  0  0  0  0  0  0
   -0.9570   14.2470   -3.8590 C   0  0  0  0  0  0  0  0  0  0  0  0
   -1.4720   12.9190   -4.2480 N   0  0  0  0  0  0  0  0  0  0  0  0
   -2.8200   12.6580   -3.7400 C   0  0  0  0  0  0  0  0  0  0  0  0
   -0.5860   11.8100   -3.7840 C   0  0  0  0  0  0  0  0  0  0  0  0
   -3.3510   11.3850   -4.4070 C   0  0  0  0  0  0  0  0  0  0  0  0
   -1.2800   10.4510   -3.4660 C   0  0  0  0  0  0  0  0  0  0  0  0
   -2.6180   10.1590   -4.0640 N   0  0  0  0  0  0  0  0  0  0  0  0
   -3.4650    9.3760   -3.1620 C   0  0  0  0  0  0  0  0  0  0  0  0
   -3.8190    7.9890   -3.6930 C   0  0  0  0  0  0  0  0  0  0  0  0
   -3.7590    7.0760   -2.6070 O   0  0  0  0  0  0  0  0  0  0  0  0
  1  2  1  0
  2  3  1  0
  2  4  2  0
  2  5  1  0
  3  6  1  0
  6  7  1  0
  6  8  2  0
  6  9  1  1
  7 10  1  0
  7 11  1  0
  7 12  1  0
 12 13  1  0
 13 14  1  0
 14 15  1  0
 14 16  1  0
 15 17  1  0
 16 18  1  0
 17 19  1  0
 18 19  1  0
 19 20  1  0
 20 21  1  0
 21 22  1  0
M  END
