mArh-2fav_B_0_B_γ-mArh-4iqy_B_0_B_α
     RDKit          3D

 21 22  0  0  0  0  0  0  0  0999 V2000
    0.1150   12.4180   -4.6310 O   0  0  0  0  0  0  0  0  0  0  0  0
   -0.2010   13.7840   -4.4340 C   0  0  1  0  0  0  0  0  0  0  0  0
   -0.2080   14.2060   -2.9690 C   0  0  0  0  0  0  0  0  0  0  0  0
    0.8440   14.7440   -4.9730 C   0  0  2  0  0  0  0  0  0  0  0  0
    2.1280   14.3400   -4.5000 O   0  0  0  0  0  0  0  0  0  0  0  0
    0.1570   15.6030   -2.9580 O   0  0  0  0  0  0  0  0  0  0  0  0
    0.2160   15.9880   -4.3460 C   0  0  1  0  0  0  0  0  0  0  0  0
    0.8200   17.3970   -4.4550 C   0  0  0  0  0  0  0  0  0  0  0  0
    0.9410   18.0470   -5.8370 C   0  0  0  0  0  0  0  0  0  0  0  0
   -0.3590   18.6710   -6.3860 C   0  0  0  0  0  0  0  0  0  0  0  0
   -0.1490   19.6740   -7.5410 C   0  0  0  0  0  0  0  0  0  0  0  0
   -1.4460   20.2670   -8.1190 C   0  0  0  0  0  0  0  0  0  0  0  0
   -1.6910   21.7860   -7.9760 C   0  0  0  0  0  0  0  0  0  0  0  0
   -3.0890   22.2200   -7.4580 C   0  0  2  0  0  0  0  0  0  0  0  0
   -4.1030   21.2710   -7.7050 O   0  0  0  0  0  0  0  0  0  0  0  0
   -3.7580   23.4630   -8.0650 C   0  0  1  0  0  0  0  0  0  0  0  0
   -3.9000   23.4740   -9.4750 O   0  0  0  0  0  0  0  0  0  0  0  0
   -5.2480   21.9070   -7.1170 C   0  0  1  0  0  0  0  0  0  0  0  0
   -5.1430   23.3860   -7.4390 C   0  0  1  0  0  0  0  0  0  0  0  0
   -6.4690   21.4590   -7.6610 O   0  0  0  0  0  0  0  0  0  0  0  0
   -5.3580   24.2160   -6.3040 O   0  0  0  0  0  0  0  0  0  0  0  0
  2  1  1  1
  2  3  1  0
  2  4  1  0
  4  5  1  1
  3  6  1  0
  4  7  1  0
  6  7  1  0
  7  8  1  1
  8  9  1  0
  9 10  1  0
 10 11  1  0
 11 12  1  0
 12 13  1  0
 14 13  1  6
 14 15  1  0
 14 16  1  0
 16 17  1  6
 15 18  1  0
 16 19  1  0
 18 19  1  0
 18 20  1  6
 19 21  1  1
M  END
