mArh-x0104_0_A_Î±
     RDKit          3D

  8  8  0  0  0  0  0  0  0  0999 V2000
   -7.9370   15.0280    3.2410 C   0  0  0  0  0  0  0  0  0  0  0  0
   -8.0910   14.9550    4.6330 N   0  0  0  0  0  0  0  0  0  0  0  0
   -8.9010   15.1680    2.4860 O   0  0  0  0  0  0  0  0  0  0  0  0
   -9.2910   14.9890    5.3520 C   0  0  0  0  0  0  0  0  0  0  0  0
   -9.3760   15.1250    6.7410 C   0  0  0  0  0  0  0  0  0  0  0  0
  -10.8730   14.8370    4.6140 S   0  0  0  0  0  0  0  0  0  0  0  0
  -10.7580   15.0930    7.1630 C   0  0  0  0  0  0  0  0  0  0  0  0
  -11.6410   14.9480    6.1430 C   0  0  0  0  0  0  0  0  0  0  0  0
  1  2  1  0
  1  3  2  0
  2  4  1  0
  4  5  2  0
  4  6  1  0
  5  7  1  0
  6  8  1  0
  7  8  2  0
M  END
