mArh-3q6z_0_A_β-mArh-5cms_H_7_H_β
     RDKit          3D

 10  9  0  0  0  0  0  0  0  0999 V2000
   -1.6570   20.3050   -7.8850 O   0  0  0  0  0  0  0  0  0  0  0  0
   -0.2390   19.6050   -7.7610 P   0  0  0  0  0  0  0  0  0  0  0  0
   -0.1600   18.9660   -6.3330 O   0  0  0  0  0  0  0  0  0  0  0  0
    0.1140   18.6480   -8.8340 O   0  0  0  0  0  0  0  0  0  0  0  0
    0.7330   20.8620   -7.7060 O   0  0  0  0  0  0  0  0  0  0  0  0
   -1.3550   18.1520   -5.6780 P   0  0  0  0  0  0  0  0  0  0  0  0
   -0.6520   16.7730   -5.2480 O   0  0  0  0  0  0  0  0  0  0  0  0
   -1.9220   18.9050   -4.5340 O   0  0  0  0  0  0  0  0  0  0  0  0
   -2.6380   17.8260   -6.7400 N   0  0  0  0  0  0  0  0  0  0  0  0
   -3.1830   16.7420   -6.5080 O   0  0  0  0  0  0  0  0  0  0  0  0
  1  2  1  0
  2  3  1  0
  2  4  2  0
  2  5  1  0
  3  6  1  0
  6  7  1  0
  6  8  2  0
  6  9  1  0
  9 10  2  0
M  END
