mArh-5cms_N_13_N_β-5CB5_0_K_γ
     RDKit          3D

 16 16  0  0  0  0  0  0  0  0999 V2000
   -1.3980   20.4670   -8.5910 O   0  0  0  0  0  0  0  0  0  0  0  0
   -0.2640   19.7230   -7.7650 P   0  0  0  0  0  0  0  0  0  0  0  0
   -0.9730   19.3410   -6.4120 O   0  0  0  0  0  0  0  0  0  0  0  0
    0.9680   20.5150   -7.6140 O   0  0  0  0  0  0  0  0  0  0  0  0
   -0.0930   18.4140   -8.6590 O   0  0  0  0  0  0  0  0  0  0  0  0
   -1.5820   17.9380   -6.0590 P   0  0  2  0  0  0  0  0  0  0  0  0
   -0.4040   16.8700   -5.8380 O   0  0  0  0  0  0  0  0  0  0  0  0
   -2.7380   17.5210   -6.8680 O   0  0  0  0  0  0  0  0  0  0  0  0
   -1.9590   18.1850   -4.5450 O   0  0  0  0  0  0  0  0  0  0  0  0
   -0.7350   15.8020   -4.9490 C   0  0  2  0  0  0  0  0  0  0  0  0
   -0.2980   15.9920   -3.5990 O   0  0  0  0  0  0  0  0  0  0  0  0
   -0.2510   14.3730   -5.2610 C   0  0  1  0  0  0  0  0  0  0  0  0
    1.1650   14.1350   -5.1730 O   0  0  0  0  0  0  0  0  0  0  0  0
   -0.5670   14.7330   -2.9510 C   0  0  0  0  0  0  0  0  0  0  0  0
   -0.8940   13.7220   -4.0560 C   0  0  2  0  0  0  0  0  0  0  0  0
   -0.3620   12.4310   -3.8270 O   0  0  0  0  0  0  0  0  0  0  0  0
  1  2  1  0
  2  3  1  0
  2  4  2  0
  2  5  1  0
  3  6  1  0
  6  7  1  0
  6  8  2  0
  6  9  1  1
 10  7  1  6
 10 11  1  0
 10 12  1  0
 12 13  1  1
 11 14  1  0
 12 15  1  0
 14 15  1  0
 15 16  1  1
M  END
