mArh-4iqy_B_0_B_γ-mArh-5cb5_H_0_H_β
     RDKit          3D

 16 16  0  0  0  0  0  0  0  0999 V2000
   -1.4290   12.7020   -3.7360 O   0  0  0  0  0  0  0  0  0  0  0  0
   -0.3020   13.5490   -3.6150 C   0  0  2  0  0  0  0  0  0  0  0  0
   -0.4640   14.6400   -2.5530 C   0  0  0  0  0  0  0  0  0  0  0  0
    0.0050   14.3290   -4.8920 C   0  0  2  0  0  0  0  0  0  0  0  0
    1.4340   14.2630   -5.0160 O   0  0  0  0  0  0  0  0  0  0  0  0
   -0.1000   15.8830   -3.1750 O   0  0  0  0  0  0  0  0  0  0  0  0
   -0.5260   15.7230   -4.5330 C   0  0  1  0  0  0  0  0  0  0  0  0
   -0.0610   16.9320   -5.3490 C   0  0  0  0  0  0  0  0  0  0  0  0
   -1.3950   18.0390   -5.9090 P   0  0  1  0  0  0  0  0  0  0  0  0
   -0.8110   19.3910   -6.4570 O   0  0  0  0  0  0  0  0  0  0  0  0
   -2.4510   17.4310   -6.7800 O   0  0  0  0  0  0  0  0  0  0  0  0
   -1.9900   18.5850   -4.5490 O   0  0  0  0  0  0  0  0  0  0  0  0
   -0.1280   19.8720   -7.7650 P   0  0  0  0  0  0  0  0  0  0  0  0
   -1.3430   20.5650   -8.5300 O   0  0  0  0  0  0  0  0  0  0  0  0
    1.0700   20.7480   -7.6220 O   0  0  0  0  0  0  0  0  0  0  0  0
    0.0500   18.5810   -8.7010 O   0  0  0  0  0  0  0  0  0  0  0  0
  2  1  1  6
  2  3  1  0
  2  4  1  0
  4  5  1  1
  3  6  1  0
  4  7  1  0
  6  7  1  0
  7  8  1  6
  8  9  1  0
  9 10  1  0
  9 11  2  0
  9 12  1  1
 10 13  1  0
 13 14  1  0
 13 15  2  0
 13 16  1  0
M  END
