mArh-5cms_P_15_P_β-mArh-4iqy_B_0_B_α
     RDKit          3D

 17 17  0  0  0  0  0  0  0  0999 V2000
   -1.6240   21.3960   -8.4660 O   0  0  0  0  0  0  0  0  0  0  0  0
   -0.8120   20.1520   -7.7920 P   0  0  2  0  0  0  0  0  0  0  0  0
   -1.6540   19.6720   -6.5380 O   0  0  0  0  0  0  0  0  0  0  0  0
   -3.0580   21.6720   -8.4880 C   0  0  1  0  0  0  0  0  0  0  0  0
    0.6230   20.4240   -7.4570 O   0  0  0  0  0  0  0  0  0  0  0  0
   -0.8570   18.8680   -8.7390 O   0  0  0  0  0  0  0  0  0  0  0  0
   -3.8620   20.9340   -7.5490 O   0  0  0  0  0  0  0  0  0  0  0  0
   -3.4810   23.1670   -8.2100 C   0  0  1  0  0  0  0  0  0  0  0  0
   -1.7840   18.1310   -6.1930 P   0  0  0  0  0  0  0  0  0  0  0  0
   -4.2300   23.7660   -9.2900 O   0  0  0  0  0  0  0  0  0  0  0  0
   -5.0210   21.7610   -7.4540 C   0  0  2  0  0  0  0  0  0  0  0  0
   -4.3810   23.0250   -6.9720 C   0  0  2  0  0  0  0  0  0  0  0  0
   -0.3350   17.5130   -6.3710 O   0  0  0  0  0  0  0  0  0  0  0  0
   -2.8680   17.3750   -6.8580 O   0  0  0  0  0  0  0  0  0  0  0  0
   -1.8680   18.1320   -4.6130 O   0  0  0  0  0  0  0  0  0  0  0  0
   -6.0340   21.3100   -6.5640 O   0  0  0  0  0  0  0  0  0  0  0  0
   -5.3770   24.0540   -6.8090 O   0  0  0  0  0  0  0  0  0  0  0  0
  1  2  1  0
  2  3  1  0
  4  1  1  1
  2  5  2  0
  2  6  1  6
  4  7  1  0
  4  8  1  0
  3  9  1  0
  8 10  1  6
  7 11  1  0
  8 12  1  0
 11 12  1  0
  9 13  1  0
  9 14  2  0
  9 15  1  0
 11 16  1  1
 12 17  1  6
M  END
