mArh-x0685_0_A_α-5CB5_0_P_γ
     RDKit          3D

 19 20  0  0  0  0  0  0  0  0999 V2000
   -6.3630   15.0150    2.6490 N   0  0  0  0  0  0  0  0  0  0  0  0
   -7.7840   14.7700    2.5000 C   0  0  0  0  0  0  0  0  0  0  0  0
   -8.1030   13.3710    2.9860 C   0  0  0  0  0  0  0  0  0  0  0  0
   -5.5690   14.9720    1.5040 C   0  0  0  0  0  0  0  0  0  0  0  0
   -4.1860   15.1060    1.5630 C   0  0  0  0  0  0  0  0  0  0  0  0
   -6.2310   14.8080    0.3440 N   0  0  0  0  0  0  0  0  0  0  0  0
   -3.4560   15.0740    0.3910 C   0  0  0  0  0  0  0  0  0  0  0  0
   -5.4970   14.7830   -0.7880 C   0  0  0  0  0  0  0  0  0  0  0  0
   -4.1220   14.9140   -0.8040 C   0  0  0  0  0  0  0  0  0  0  0  0
   -3.3830   14.8890   -1.9970 C   0  0  0  0  0  0  0  0  0  0  0  0
   -2.6890   14.8870   -2.9480 C   0  0  0  0  0  0  0  0  0  0  0  0
   -1.7810   14.9400   -4.0680 C   0  0  1  0  0  0  0  0  0  0  0  0
   -0.7480   15.8700   -3.8210 O   0  0  0  0  0  0  0  0  0  0  0  0
   -1.0400   13.6610   -4.4790 C   0  0  2  0  0  0  0  0  0  0  0  0
   -0.4060   12.9260   -3.4350 O   0  0  0  0  0  0  0  0  0  0  0  0
   -0.0880   15.7670   -5.0700 C   0  0  2  0  0  0  0  0  0  0  0  0
    0.0790   14.2510   -5.3190 C   0  0  1  0  0  0  0  0  0  0  0  0
    1.1730   16.5590   -5.0130 C   0  0  0  0  0  0  0  0  0  0  0  0
    1.3340   13.7740   -4.8300 O   0  0  0  0  0  0  0  0  0  0  0  0
  1  2  1  0
  2  3  1  0
  1  4  1  0
  4  5  2  0
  4  6  1  0
  5  7  1  0
  6  8  2  0
  7  9  2  0
  8  9  1  0
  9 10  1  0
 10 11  3  0
 12 11  1  1
 12 13  1  0
 12 14  1  0
 14 15  1  1
 13 16  1  0
 14 17  1  0
 16 17  1  0
 16 18  1  1
 17 19  1  1
M  END
