mArh-6fx_7_0A_Î³
     RDKit          3D

  8  8  0  0  0  0  0  0  0  0999 V2000
   -0.9470   14.8180   -3.0950 C   0  0  0  0  0  0  0  0  0  0  0  0
   -0.3790   16.0680   -3.4180 O   0  0  0  0  0  0  0  0  0  0  0  0
   -1.4780   14.2920   -4.4230 C   0  0  1  0  0  0  0  0  0  0  0  0
    0.2780   15.9250   -4.6990 C   0  0  1  0  0  0  0  0  0  0  0  0
   -0.2940   14.6440   -5.3410 C   0  0  1  0  0  0  0  0  0  0  0  0
   -1.7760   12.9030   -4.3640 O   0  0  0  0  0  0  0  0  0  0  0  0
    0.1050   17.1810   -5.5140 C   0  0  0  0  0  0  0  0  0  0  0  0
    0.7250   13.6480   -5.3710 O   0  0  0  0  0  0  0  0  0  0  0  0
  1  2  1  1
  1  3  1  0
  4  2  1  0
  5  3  1  0
  3  6  1  1
  4  7  1  6
  4  5  1  0
  5  8  1  1
M  END
