mArh-5cb5_M_1_M_α-5CMS_0_G_α
     RDKit          3D

 20 20  0  0  0  0  0  0  0  0999 V2000
   -1.7470   21.6590   -7.8860 C   0  0  0  0  0  0  0  0  0  0  0  0
   -0.6610   20.2940   -8.0100 P   0  0  0  0  0  0  0  0  0  0  0  0
   -0.7180   19.7000   -6.6000 O   0  0  0  0  0  0  0  0  0  0  0  0
   -3.0590   21.7820   -8.6350 C   0  0  2  0  0  0  0  0  0  0  0  0
   -0.9390   18.8160   -8.5960 O   0  0  0  0  0  0  0  0  0  0  0  0
    0.9560   20.6940   -7.6610 O   0  0  0  0  0  0  0  0  0  0  0  0
   -3.7200   23.1210   -8.6070 C   0  0  1  0  0  0  0  0  0  0  0  0
   -3.9290   21.0070   -7.9380 O   0  0  0  0  0  0  0  0  0  0  0  0
   -4.6900   23.1900   -9.6220 O   0  0  0  0  0  0  0  0  0  0  0  0
   -1.7580   18.4240   -6.1570 P   0  0  0  0  0  0  0  0  0  0  0  0
   -4.4180   23.1860   -7.2220 C   0  0  2  0  0  0  0  0  0  0  0  0
   -4.9590   21.8540   -7.6050 C   0  0  2  0  0  0  0  0  0  0  0  0
   -4.8260   24.4710   -7.6340 O   0  0  0  0  0  0  0  0  0  0  0  0
   -5.6960   21.3450   -6.5260 O   0  0  0  0  0  0  0  0  0  0  0  0
   -0.5870   17.4460   -6.1890 O   0  0  0  0  0  0  0  0  0  0  0  0
   -1.8770   18.1120   -4.5430 O   0  0  0  0  0  0  0  0  0  0  0  0
   -2.7520   17.7030   -7.1370 O   0  0  0  0  0  0  0  0  0  0  0  0
   -6.0220   24.5630   -8.3430 C   0  0  0  0  0  0  0  0  0  0  0  0
   -6.3520   25.6550   -9.2770 C   0  0  0  0  0  0  0  0  0  0  0  0
   -6.8460   23.6490   -8.1700 O   0  0  0  0  0  0  0  0  0  0  0  0
  1  2  1  0
  2  3  1  0
  4  1  1  1
  2  5  1  0
  2  6  1  0
  4  7  1  0
  4  8  1  0
  7  9  1  6
  3 10  1  0
  7 11  1  0
  8 12  1  0
 11 12  1  0
 11 13  1  6
 12 14  1  1
 10 15  1  0
 10 16  1  0
 10 17  1  0
 13 18  1  0
 18 19  1  0
 18 20  2  0
M  CHG  2   5  -1  16  -1
M  END
