mArh-3q6z_0_A_Î³
     RDKit          3D

  8  8  0  0  0  0  0  0  0  0999 V2000
   -1.0640   14.4230   -2.9170 C   0  0  0  0  0  0  0  0  0  0  0  0
   -0.3900   15.6840   -2.8480 O   0  0  0  0  0  0  0  0  0  0  0  0
   -0.8910   13.9320   -4.3440 C   0  0  1  0  0  0  0  0  0  0  0  0
    0.6480   15.7100   -3.8970 C   0  0  1  0  0  0  0  0  0  0  0  0
    0.5380   14.3580   -4.6310 C   0  0  1  0  0  0  0  0  0  0  0  0
   -1.0320   12.5070   -4.3560 O   0  0  0  0  0  0  0  0  0  0  0  0
    0.4420   16.9460   -4.8370 C   0  0  0  0  0  0  0  0  0  0  0  0
    1.4060   13.4070   -4.0510 O   0  0  0  0  0  0  0  0  0  0  0  0
  1  2  1  1
  3  1  1  0
  2  4  1  0
  3  5  1  0
  3  6  1  1
  4  7  1  6
  4  5  1  0
  5  8  1  1
M  END
