mArh-5l9k_B_0_B_β-4IQY_0_A_γ
     RDKit          3D

 18 18  0  0  0  0  0  0  0  0999 V2000
   -1.7270   20.7750   -8.8620 O   0  0  0  0  0  0  0  0  0  0  0  0
   -0.8000   19.8710   -7.9470 P   0  0  0  0  0  0  0  0  0  0  0  0
   -1.6570   19.6260   -6.6530 O   0  0  0  0  0  0  0  0  0  0  0  0
   -0.3550   18.6510   -8.6900 O   0  0  0  0  0  0  0  0  0  0  0  0
    0.3910   20.8610   -7.6310 O   0  0  0  0  0  0  0  0  0  0  0  0
   -1.8680   18.2330   -5.9740 P   0  0  1  0  0  0  0  0  0  0  0  0
   -0.5820   17.4150   -6.3610 O   0  0  0  0  0  0  0  0  0  0  0  0
   -2.1750   18.2190   -4.5450 O   0  0  0  0  0  0  0  0  0  0  0  0
   -2.9520   17.5160   -6.8800 O   0  0  0  0  0  0  0  0  0  0  0  0
    0.6050   17.7630   -5.6890 C   0  0  0  0  0  0  0  0  0  0  0  0
    1.0640   16.5720   -4.8750 C   0  0  0  0  0  0  0  0  0  0  0  0
   -0.0660   15.6980   -4.3790 C   0  0  2  0  0  0  0  0  0  0  0  0
   -0.0860   15.6510   -2.9410 O   0  0  0  0  0  0  0  0  0  0  0  0
   -0.0010   14.2340   -4.8100 C   0  0  1  0  0  0  0  0  0  0  0  0
    1.2550   13.6140   -4.5170 O   0  0  0  0  0  0  0  0  0  0  0  0
   -0.7930   14.4440   -2.5970 C   0  0  0  0  0  0  0  0  0  0  0  0
   -1.0850   13.6960   -3.9000 C   0  0  2  0  0  0  0  0  0  0  0  0
   -0.9420   12.2930   -3.7150 O   0  0  0  0  0  0  0  0  0  0  0  0
  1  2  1  0
  2  3  1  0
  2  4  2  0
  2  5  1  0
  3  6  1  0
  6  7  1  0
  6  8  2  0
  6  9  1  6
  7 10  1  0
 10 11  1  0
 12 11  1  1
 12 13  1  0
 12 14  1  0
 14 15  1  1
 13 16  1  0
 14 17  1  0
 16 17  1  0
 17 18  1  1
M  END
