mArh-5fud_A_0_A_Î±
     RDKit          3D

 12 12  0  0  0  0  0  0  0  0999 V2000
   -6.4910   23.9270   -8.3320 O   0  0  0  0  0  0  0  0  0  0  0  0
   -1.5280   19.0790   -7.0450 O   0  0  0  0  0  0  0  0  0  0  0  0
   -6.0790   23.5200   -7.0260 C   0  0  0  0  0  0  0  0  0  0  0  0
   -0.0080   20.6300   -8.1810 O   0  0  0  0  0  0  0  0  0  0  0  0
   -4.5690   23.2320   -6.9740 C   0  0  0  0  0  0  0  0  0  0  0  0
   -0.8840   18.7040   -9.3350 O   0  0  0  0  0  0  0  0  0  0  0  0
   -4.2500   22.1970   -7.9770 N   0  0  0  0  0  0  0  0  0  0  0  0
   -4.6210   22.7310   -9.3010 C   0  0  0  0  0  0  0  0  0  0  0  0
   -6.1170   22.9840   -9.3390 C   0  0  0  0  0  0  0  0  0  0  0  0
   -2.8150   21.8380   -7.9620 C   0  0  0  0  0  0  0  0  0  0  0  0
   -2.5270   20.6090   -8.8110 C   0  0  0  0  0  0  0  0  0  0  0  0
   -1.1780   19.7490   -8.3220 S   0  0  0  0  0  0  0  0  0  0  0  0
  1  3  1  0
  1  9  1  0
  3  5  1  0
  9  8  1  0
  2 12  2  0
 12  4  2  0
 12  6  1  0
 12 11  1  0
  5  7  1  0
  7  8  1  0
  7 10  1  0
 10 11  1  0
M  CHG  2   6  -1   7   1
M  END
