
     RDKit          3D

 36 39  0  0  0  0  0  0  0  0999 V2000
   -1.9430   18.1100   -5.6650 P   0  0  0  0  0  0  0  0  0  0  0  0
   -0.5070   19.6800   -7.6600 P   0  0  0  0  0  0  0  0  0  0  0  0
    0.3890   16.9480   -5.0130 C   0  0  0  0  0  0  0  0  0  0  0  0
   -1.0360   16.9070   -5.2040 O   0  0  0  0  0  0  0  0  0  0  0  0
    0.6900   15.5380   -4.4480 C   0  0  1  0  0  0  0  0  0  0  0  0
    0.2870   15.5200   -2.9740 O   0  0  0  0  0  0  0  0  0  0  0  0
   -0.0440   14.5480   -5.0410 C   0  0  1  0  0  0  0  0  0  0  0  0
    0.7400   13.3370   -5.1430 O   0  0  0  0  0  0  0  0  0  0  0  0
   -1.2810   14.2620   -4.0110 C   0  0  1  0  0  0  0  0  0  0  0  0
   -1.8900   12.9970   -4.2970 O   0  0  0  0  0  0  0  0  0  0  0  0
   -0.7230   14.3300   -2.8140 C   0  0  2  0  0  0  0  0  0  0  0  0
   -5.3390   21.9150   -6.9870 C   0  0  1  0  0  0  0  0  0  0  0  0
   -0.9510   15.0370    2.2130 N   0  0  0  0  0  0  0  0  0  0  0  0
   -2.8580   17.5620   -6.7600 O   0  0  0  0  0  0  0  0  0  0  0  0
    0.6370   20.6690   -7.4300 O   0  0  0  0  0  0  0  0  0  0  0  0
   -5.7250   21.3170   -5.7660 O   0  0  0  0  0  0  0  0  0  0  0  0
    0.0910   14.5650    1.4630 C   0  0  0  0  0  0  0  0  0  0  0  0
   -4.5990   23.2260   -6.6960 C   0  0  2  0  0  0  0  0  0  0  0  0
   -2.7270   18.6500   -4.4790 O   0  0  0  0  0  0  0  0  0  0  0  0
   -0.2120   18.4520   -8.5120 O   0  0  0  0  0  0  0  0  0  0  0  0
   -5.5050   24.2440   -6.4390 O   0  0  0  0  0  0  0  0  0  0  0  0
   -3.8330   23.4010   -8.0050 C   0  0  2  0  0  0  0  0  0  0  0  0
   -0.0240   14.4360    0.0920 N   0  0  0  0  0  0  0  0  0  0  0  0
   -0.9980   19.2290   -6.2010 O   0  0  0  0  0  0  0  0  0  0  0  0
   -4.7640   23.9460   -9.0460 O   0  0  0  0  0  0  0  0  0  0  0  0
   -1.2040   14.7890   -0.5120 C   0  0  0  0  0  0  0  0  0  0  0  0
   -3.4400   22.1440   -8.3330 C   0  0  2  0  0  0  0  0  0  0  0  0
   -4.4330   21.1600   -7.5840 O   0  0  0  0  0  0  0  0  0  0  0  0
   -2.2290   15.2580    0.2340 C   0  0  0  0  0  0  0  0  0  0  0  0
   -2.0340   21.7750   -7.9080 C   0  0  0  0  0  0  0  0  0  0  0  0
   -1.7430   20.4190   -8.2990 O   0  0  0  0  0  0  0  0  0  0  0  0
   -2.1120   15.3810    1.6100 C   0  0  0  0  0  0  0  0  0  0  0  0
   -3.1050   15.8600    2.5100 N   0  0  0  0  0  0  0  0  0  0  0  0
   -3.2790   15.5340   -0.5890 N   0  0  0  0  0  0  0  0  0  0  0  0
   -2.8930   15.2390   -1.8590 C   0  0  0  0  0  0  0  0  0  0  0  0
   -1.6170   14.7740   -1.8280 N   0  0  0  0  0  0  0  0  0  0  0  0
  1  4  1  0
  1 14  2  0
  1 19  1  0
  1 24  1  0
  4  3  1  0
 24  2  1  0
  2 15  2  0
  2 20  1  0
  2 31  1  0
 31 30  1  0
  5  3  1  6
  5  6  1  0
  5  7  1  0
  6 11  1  0
  7  8  1  1
  7  9  1  0
 11  9  1  0
 11 36  1  1
  9 10  1  6
 36 26  1  0
 36 35  1  0
 12 16  1  1
 12 18  1  0
 12 28  1  0
 18 21  1  6
 18 22  1  0
 28 27  1  0
 13 17  2  0
 13 32  1  0
 17 23  1  0
 32 29  2  0
 32 33  1  0
 23 26  2  0
 22 25  1  6
 22 27  1  0
 27 30  1  1
 26 29  1  0
 29 34  1  0
 34 35  2  0
M  END
