mArh-EU0815_0_A_Î²
     RDKit          3D

  8  8  0  0  0  0  0  0  0  0999 V2000
   -5.9130   14.7670    1.4830 C   0  0  0  0  0  0  0  0  0  0  0  0
   -6.6470   15.0910    0.3490 C   0  0  0  0  0  0  0  0  0  0  0  0
   -4.5560   14.4890    1.3680 C   0  0  0  0  0  0  0  0  0  0  0  0
   -5.9940   15.1850   -0.8530 C   0  0  0  0  0  0  0  0  0  0  0  0
   -3.9390   14.5390    0.1330 C   0  0  0  0  0  0  0  0  0  0  0  0
   -4.6530   14.9030   -1.0010 C   0  0  0  0  0  0  0  0  0  0  0  0
   -6.7140   15.5990   -1.9220 F   0  0  0  0  0  0  0  0  0  0  0  0
   -3.9590   14.9860   -2.3260 C   0  0  0  0  0  0  0  0  0  0  0  0
  1  2  2  0
  1  3  1  0
  2  4  1  0
  3  5  2  0
  4  6  2  0
  4  7  1  0
  6  5  1  0
  6  8  1  0
M  END
