mArh-x0895_1_A_α-mArh-x0104_0_A_β
     RDKit          3D

  9  9  0  0  0  0  0  0  0  0999 V2000
   -1.7030   14.8380    1.6840 O   0  0  0  0  0  0  0  0  0  0  0  0
   -2.7290   14.9370    1.0120 C   0  0  0  0  0  0  0  0  0  0  0  0
   -2.7880   15.1710   -0.4810 C   0  0  0  0  0  0  0  0  0  0  0  0
   -3.9930   14.8540    1.4940 N   0  0  0  0  0  0  0  0  0  0  0  0
   -4.2100   15.3490   -0.6730 N   0  0  0  0  0  0  0  0  0  0  0  0
   -4.8960   14.9460    0.4820 C   0  0  0  0  0  0  0  0  0  0  0  0
   -6.0900   14.7140    0.6020 O   0  0  0  0  0  0  0  0  0  0  0  0
   -4.6750   14.7360   -1.8660 O   0  0  0  0  0  0  0  0  0  0  0  0
   -3.7150   15.0080   -2.8840 C   0  0  0  0  0  0  0  0  0  0  0  0
  1  2  2  0
  2  3  1  0
  2  4  1  0
  3  5  1  0
  4  6  1  0
  5  6  1  0
  6  7  2  0
  5  8  1  0
  8  9  1  0
M  END
