mArh-5cms_A_0_A_α-5CB5_0_D_β
     RDKit          3D

 17 17  0  0  0  0  0  0  0  0999 V2000
   -1.9820   20.9560   -7.9460 C   0  0  0  0  0  0  0  0  0  0  0  0
   -0.4440   20.1380   -8.0970 P   0  0  0  0  0  0  0  0  0  0  0  0
   -0.3590   19.4110   -6.7510 O   0  0  0  0  0  0  0  0  0  0  0  0
   -2.2050   21.8790   -9.1290 C   0  0  1  0  0  0  0  0  0  0  0  0
    0.9420   20.8840   -7.7430 O   0  0  0  0  0  0  0  0  0  0  0  0
   -0.3730   18.5770   -8.7670 O   0  0  0  0  0  0  0  0  0  0  0  0
   -3.1630   21.4800  -10.0640 O   0  0  0  0  0  0  0  0  0  0  0  0
   -2.5470   23.2930   -8.7370 C   0  0  1  0  0  0  0  0  0  0  0  0
   -1.4540   24.0690   -8.9590 O   0  0  0  0  0  0  0  0  0  0  0  0
   -1.5580   18.6790   -5.8790 P   0  0  0  0  0  0  0  0  0  0  0  0
   -4.1080   22.4560  -10.2650 C   0  0  2  0  0  0  0  0  0  0  0  0
   -3.6840   23.7130   -9.6770 C   0  0  2  0  0  0  0  0  0  0  0  0
   -5.3360   22.2270   -9.6860 O   0  0  0  0  0  0  0  0  0  0  0  0
   -3.2880   24.5600  -10.7190 O   0  0  0  0  0  0  0  0  0  0  0  0
   -1.5420   17.0160   -5.6430 O   0  0  0  0  0  0  0  0  0  0  0  0
   -2.4430   18.4380   -7.1010 O   0  0  0  0  0  0  0  0  0  0  0  0
   -2.5610   19.5840   -5.0350 O   0  0  0  0  0  0  0  0  0  0  0  0
  1  2  1  0
  2  3  1  0
  4  1  1  1
  2  5  1  0
  2  6  1  0
  4  7  1  0
  4  8  1  0
  8  9  1  6
  3 10  1  0
  7 11  1  0
  8 12  1  0
 11 12  1  0
 11 13  1  1
 12 14  1  6
 10 15  1  0
 10 16  1  0
 10 17  1  0
M  CHG  2   5  -1  16  -1
M  END
