mArh-5cb5_B_0_B_α-mArh-6woj_C_0_C_γ
     RDKit          3D

 22 23  0  0  0  0  0  0  0  0999 V2000
   -2.0470   21.7910   -8.2630 C   0  0  0  0  0  0  0  0  0  0  0  0
   -3.4390   21.9850   -8.8650 C   0  0  1  0  0  0  0  0  0  0  0  0
   -4.2960   20.9770   -8.3180 O   0  0  0  0  0  0  0  0  0  0  0  0
   -4.0280   23.3490   -8.5490 C   0  0  1  0  0  0  0  0  0  0  0  0
   -4.4180   24.0210   -9.7580 O   0  0  0  0  0  0  0  0  0  0  0  0
   -5.3360   21.5530   -7.5540 C   0  0  2  0  0  0  0  0  0  0  0  0
   -5.3060   23.0760   -7.7750 C   0  0  1  0  0  0  0  0  0  0  0  0
   -5.1610   21.2480   -6.1700 O   0  0  0  0  0  0  0  0  0  0  0  0
   -5.3970   23.8470   -6.5760 O   0  0  0  0  0  0  0  0  0  0  0  0
   -3.7740   21.1240   -5.7840 C   0  0  0  0  0  0  0  0  0  0  0  0
   -2.9660   20.0020   -6.4820 C   0  0  0  0  0  0  0  0  0  0  0  0
   -1.8750   19.4000   -5.5670 C   0  0  0  0  0  0  0  0  0  0  0  0
   -1.9050   17.8660   -5.4730 C   0  0  0  0  0  0  0  0  0  0  0  0
   -0.5620   17.1480   -5.7050 C   0  0  0  0  0  0  0  0  0  0  0  0
    0.5320   17.2630   -4.6460 C   0  0  0  0  0  0  0  0  0  0  0  0
    1.0330   15.8800   -4.1420 C   0  0  1  0  0  0  0  0  0  0  0  0
    0.4070   15.6330   -2.8550 O   0  0  0  0  0  0  0  0  0  0  0  0
    0.7170   14.6300   -4.9860 C   0  0  1  0  0  0  0  0  0  0  0  0
    1.6740   13.5820   -4.9430 O   0  0  0  0  0  0  0  0  0  0  0  0
   -0.4080   14.4550   -2.9420 C   0  0  0  0  0  0  0  0  0  0  0  0
   -0.6130   14.1640   -4.4140 C   0  0  2  0  0  0  0  0  0  0  0  0
   -0.8590   12.7940   -4.6940 O   0  0  0  0  0  0  0  0  0  0  0  0
  2  1  1  1
  2  3  1  0
  2  4  1  0
  4  5  1  6
  3  6  1  0
  4  7  1  0
  6  7  1  0
  6  8  1  1
  7  9  1  1
  8 10  1  0
 10 11  1  0
 11 12  1  0
 12 13  1  0
 13 14  1  0
 14 15  1  0
 16 15  1  6
 16 17  1  0
 16 18  1  0
 18 19  1  1
 17 20  1  0
 18 21  1  0
 20 21  1  0
 21 22  1  1
M  END
