mArh-5lw0_A_0_A_Î²
     RDKit          3D

  9  8  0  0  0  0  0  0  0  0999 V2000
   -2.1110   19.1480   -9.3240 O   0  0  0  0  0  0  0  0  0  0  0  0
   -0.7990   18.4830   -8.6540 P   0  0  1  0  0  0  0  0  0  0  0  0
   -1.2750   18.2460   -7.1240 O   0  0  0  0  0  0  0  0  0  0  0  0
   -0.5220   17.2010   -9.3990 O   0  0  0  0  0  0  0  0  0  0  0  0
    0.2590   19.5440   -8.5740 O   0  0  0  0  0  0  0  0  0  0  0  0
   -2.1880   17.1030   -6.4100 P   0  0  2  0  0  0  0  0  0  0  0  0
   -1.0690   15.9950   -5.9480 O   0  0  0  0  0  0  0  0  0  0  0  0
   -3.0460   16.3800   -7.4690 O   0  0  0  0  0  0  0  0  0  0  0  0
   -2.8410   17.7080   -5.2250 O   0  0  0  0  0  0  0  0  0  0  0  0
  2  1  1  6
  3  2  1  0
  2  4  2  0
  2  5  1  0
  6  3  1  0
  6  7  1  1
  6  8  2  0
  6  9  1  0
M  END
