mArh-5cb5_P_0_P_α-mArh-x0969_0_A_α
     RDKit          3D

 24 26  0  0  0  0  0  0  0  0999 V2000
   -4.0430   22.2300  -10.1130 C   0  0  0  0  0  0  0  0  0  0  0  0
   -3.2910   22.3530   -8.8470 C   0  0  2  0  0  0  0  0  0  0  0  0
   -3.3880   21.1490   -8.1120 O   0  0  0  0  0  0  0  0  0  0  0  0
   -3.9660   23.4420   -8.0760 C   0  0  1  0  0  0  0  0  0  0  0  0
   -4.8300   24.1740   -8.9430 O   0  0  0  0  0  0  0  0  0  0  0  0
   -3.5870   21.5900   -6.7850 C   0  0  1  0  0  0  0  0  0  0  0  0
   -4.7260   22.6170   -7.0530 C   0  0  1  0  0  0  0  0  0  0  0  0
   -3.8210   20.3850   -5.9960 O   0  0  0  0  0  0  0  0  0  0  0  0
   -5.0940   23.5530   -6.0330 O   0  0  0  0  0  0  0  0  0  0  0  0
   -2.5880   19.5820   -5.7090 C   0  0  0  0  0  0  0  0  0  0  0  0
   -2.3910   18.0990   -6.3080 C   0  0  0  0  0  0  0  0  0  0  0  0
   -3.1030   16.7150   -5.8390 C   0  0  0  0  0  0  0  0  0  0  0  0
   -2.9100   16.1070   -4.3900 C   0  0  0  0  0  0  0  0  0  0  0  0
   -3.9460   15.0880   -3.7130 C   0  0  0  0  0  0  0  0  0  0  0  0
   -4.0270   15.0210   -2.1370 C   0  0  0  0  0  0  0  0  0  0  0  0
   -5.2270   14.9330   -1.2620 C   0  0  0  0  0  0  0  0  0  0  0  0
   -2.8510   15.0190   -1.4680 C   0  0  0  0  0  0  0  0  0  0  0  0
   -6.5330   14.8880   -1.4890 N   0  0  0  0  0  0  0  0  0  0  0  0
   -5.0460   14.8730    0.1340 N   0  0  0  0  0  0  0  0  0  0  0  0
   -2.7180   14.9590   -0.0150 C   0  0  0  0  0  0  0  0  0  0  0  0
   -6.3110   14.7880    0.6930 C   0  0  0  0  0  0  0  0  0  0  0  0
   -7.1980   14.7970   -0.2740 N   0  0  0  0  0  0  0  0  0  0  0  0
   -3.8050   14.8940    0.7490 C   0  0  0  0  0  0  0  0  0  0  0  0
   -6.5580   14.7130    2.0310 N   0  0  0  0  0  0  0  0  0  0  0  0
  2  1  1  6
  2  3  1  0
  2  4  1  0
  4  5  1  6
  3  6  1  0
  4  7  1  0
  6  7  1  0
  6  8  1  1
  7  9  1  1
  8 10  1  0
 10 11  1  0
 11 12  1  0
 12 13  1  0
 13 14  1  0
 14 15  1  0
 15 16  1  0
 15 17  2  0
 16 18  2  0
 16 19  1  0
 17 20  1  0
 19 21  1  0
 18 22  1  0
 21 22  2  0
 19 23  1  0
 20 23  2  0
 21 24  1  0
M  END
