mArh-6woj_A_0_A_α-5CMS_0_A_δ
     RDKit          3D

 24 26  0  0  0  0  0  0  0  0999 V2000
   -2.0390   21.4700   -8.7350 C   0  0  0  0  0  0  0  0  0  0  0  0
   -2.8570   22.1120   -7.6650 C   0  0  2  0  0  0  0  0  0  0  0  0
   -4.0610   21.4230   -7.4410 O   0  0  0  0  0  0  0  0  0  0  0  0
   -3.3570   23.5440   -7.7840 C   0  0  1  0  0  0  0  0  0  0  0  0
   -4.2040   23.8170   -8.9080 O   0  0  0  0  0  0  0  0  0  0  0  0
   -4.3360   22.0370   -6.2020 C   0  0  2  0  0  0  0  0  0  0  0  0
   -4.1450   23.5530   -6.4570 C   0  0  2  0  0  0  0  0  0  0  0  0
   -3.3230   21.5690   -5.3320 O   0  0  0  0  0  0  0  0  0  0  0  0
   -5.4160   24.2250   -6.6010 O   0  0  0  0  0  0  0  0  0  0  0  0
   -3.0240   20.2100   -5.6250 C   0  0  0  0  0  0  0  0  0  0  0  0
   -1.6880   19.5370   -5.9810 C   0  0  0  0  0  0  0  0  0  0  0  0
   -1.3240   18.3670   -4.9840 C   0  0  0  0  0  0  0  0  0  0  0  0
   -1.8790   16.9450   -5.3500 C   0  0  0  0  0  0  0  0  0  0  0  0
   -2.6660   15.9650   -4.3640 C   0  0  0  0  0  0  0  0  0  0  0  0
   -2.4040   15.7740   -2.8210 C   0  0  2  0  0  0  0  0  0  0  0  0
   -1.2570   14.9500   -2.4670 N   0  0  0  0  0  0  0  0  0  0  0  0
   -3.4820   15.2850   -1.9010 N   0  0  0  0  0  0  0  0  0  0  0  0
   -1.4760   14.6500   -1.0660 C   0  0  2  0  0  0  0  0  0  0  0  0
   -2.6810   15.4550   -0.6600 C   0  0  2  0  0  0  0  0  0  0  0  0
   -0.3480   14.8410   -0.2140 N   0  0  0  0  0  0  0  0  0  0  0  0
   -3.0500   14.9180    0.7490 C   0  0  2  0  0  0  0  0  0  0  0  0
   -4.1760   15.5610    1.4120 N   0  0  0  0  0  0  0  0  0  0  0  0
   -0.6750   14.5160    1.1610 C   0  0  0  0  0  0  0  0  0  0  0  0
   -1.8990   15.1870    1.5960 N   0  0  0  0  0  0  0  0  0  0  0  0
  2  1  1  6
  2  3  1  0
  2  4  1  0
  4  5  1  6
  3  6  1  0
  4  7  1  0
  6  7  1  0
  6  8  1  1
  7  9  1  6
  8 10  1  0
 10 11  1  0
 11 12  1  0
 12 13  1  0
 13 14  1  0
 15 14  1  6
 15 16  1  0
 15 17  1  0
 18 16  1  6
 19 17  1  6
 18 19  1  0
 18 20  1  0
 19 21  1  0
 21 22  1  1
 20 23  1  0
 21 24  1  0
 23 24  1  0
M  END
