
     RDKit          3D

 36 39  0  0  0  0  0  0  0  0999 V2000
   -1.8400   17.7970   -6.5570 P   0  0  0  0  0  0  0  0  0  0  0  0
   -0.6000   19.6720   -8.2750 P   0  0  0  0  0  0  0  0  0  0  0  0
    0.2400   16.4640   -5.6800 C   0  0  0  0  0  0  0  0  0  0  0  0
   -1.0150   17.0500   -5.3950 O   0  0  0  0  0  0  0  0  0  0  0  0
    0.4630   15.3150   -4.7200 C   0  0  1  0  0  0  0  0  0  0  0  0
   -0.1780   15.6420   -3.4830 O   0  0  0  0  0  0  0  0  0  0  0  0
   -0.1490   13.9830   -5.1750 C   0  0  1  0  0  0  0  0  0  0  0  0
    0.6440   12.8500   -4.7870 O   0  0  0  0  0  0  0  0  0  0  0  0
   -1.4150   13.8360   -4.3790 C   0  0  1  0  0  0  0  0  0  0  0  0
   -1.7410   12.4350   -4.3100 O   0  0  0  0  0  0  0  0  0  0  0  0
   -0.9090   14.4800   -3.0800 C   0  0  2  0  0  0  0  0  0  0  0  0
   -2.8480   21.9430  -10.4940 C   0  0  1  0  0  0  0  0  0  0  0  0
   -1.5060   15.1740    2.0140 N   0  0  0  0  0  0  0  0  0  0  0  0
   -1.6790   17.1240   -7.8770 O   0  0  0  0  0  0  0  0  0  0  0  0
    0.8000   19.1340   -8.3370 O   0  0  0  0  0  0  0  0  0  0  0  0
   -3.1180   21.1410   -9.3450 O   0  0  0  0  0  0  0  0  0  0  0  0
   -0.3860   14.9400    1.2810 C   0  0  0  0  0  0  0  0  0  0  0  0
   -2.9320   23.4120  -10.1380 C   0  0  2  0  0  0  0  0  0  0  0  0
   -3.2310   18.1110   -6.0810 O   0  0  0  0  0  0  0  0  0  0  0  0
   -1.7090   19.2640   -9.1940 O   0  0  0  0  0  0  0  0  0  0  0  0
   -4.0160   24.0130  -10.8660 O   0  0  0  0  0  0  0  0  0  0  0  0
   -1.4880   23.9340  -10.3670 C   0  0  2  0  0  0  0  0  0  0  0  0
   -0.3890   14.7790   -0.0700 N   0  0  0  0  0  0  0  0  0  0  0  0
   -1.0390   19.1680   -6.8090 O   0  0  0  0  0  0  0  0  0  0  0  0
   -1.2670   24.6330  -11.6060 O   0  0  0  0  0  0  0  0  0  0  0  0
   -1.5720   14.8590   -0.7570 C   0  0  0  0  0  0  0  0  0  0  0  0
   -0.5860   22.6990  -10.3760 C   0  0  2  0  0  0  0  0  0  0  0  0
   -1.4960   21.6910  -10.8670 O   0  0  0  0  0  0  0  0  0  0  0  0
   -2.8310   15.1230   -0.0350 C   0  0  0  0  0  0  0  0  0  0  0  0
    0.1330   22.2850   -9.0530 C   0  0  0  0  0  0  0  0  0  0  0  0
   -0.6280   21.3160   -8.2820 O   0  0  0  0  0  0  0  0  0  0  0  0
   -2.7410   15.2770    1.4340 C   0  0  0  0  0  0  0  0  0  0  0  0
   -3.8870   15.5240    2.1290 N   0  0  0  0  0  0  0  0  0  0  0  0
   -3.8240   15.1530   -0.9500 N   0  0  0  0  0  0  0  0  0  0  0  0
   -3.2560   14.9410   -2.1710 C   0  0  0  0  0  0  0  0  0  0  0  0
   -1.9180   14.7760   -2.0410 N   0  0  0  0  0  0  0  0  0  0  0  0
  1  4  1  0
  1 14  2  0
  1 19  1  0
  1 24  1  0
  4  3  1  0
 24  2  1  0
  2 15  2  0
  2 20  1  0
  2 31  1  0
 31 30  1  0
  5  3  1  6
  5  6  1  0
  5  7  1  0
  6 11  1  0
  7  8  1  1
  7  9  1  0
 11  9  1  0
 11 36  1  1
  9 10  1  1
 36 26  1  0
 36 35  1  0
 12 16  1  1
 12 18  1  0
 12 28  1  0
 18 21  1  6
 18 22  1  0
 28 27  1  0
 13 17  2  0
 13 32  1  0
 17 23  1  0
 32 29  2  0
 32 33  1  0
 23 26  2  0
 22 25  1  6
 22 27  1  0
 27 30  1  1
 26 29  1  0
 29 34  1  0
 34 35  2  0
M  END
