mArh-5cms_M_12_M_γ-mArh-3vfq_B_0_A_β
     RDKit          3D

 18 18  0  0  0  0  0  0  0  0999 V2000
   -1.4650   12.6700   -4.6550 O   0  0  0  0  0  0  0  0  0  0  0  0
   -0.3830   13.3720   -4.0670 C   0  0  2  0  0  0  0  0  0  0  0  0
   -0.7790   14.4510   -3.0740 C   0  0  0  0  0  0  0  0  0  0  0  0
    0.4320   14.1380   -5.1070 C   0  0  2  0  0  0  0  0  0  0  0  0
    1.6330   13.3640   -5.2710 O   0  0  0  0  0  0  0  0  0  0  0  0
    0.3300   15.3520   -3.0750 O   0  0  0  0  0  0  0  0  0  0  0  0
    0.6550   15.5300   -4.4700 C   0  0  2  0  0  0  0  0  0  0  0  0
   -0.2500   16.6180   -5.0280 C   0  0  0  0  0  0  0  0  0  0  0  0
    0.4590   17.7410   -5.7710 C   0  0  0  0  0  0  0  0  0  0  0  0
   -0.5020   18.3460   -6.6900 N   0  0  0  0  0  0  0  0  0  0  0  0
   -2.1130   18.1850   -6.2580 P   0  0  0  0  0  0  0  0  0  0  0  0
   -2.8580   19.5530   -6.5240 O   0  0  0  0  0  0  0  0  0  0  0  0
   -2.5910   17.2910   -5.0730 O   0  0  0  0  0  0  0  0  0  0  0  0
   -2.7330   17.2610   -7.3090 O   0  0  0  0  0  0  0  0  0  0  0  0
   -3.4740   15.9620   -5.3940 P   0  0  0  0  0  0  0  0  0  0  0  0
   -2.5210   14.7640   -5.7040 O   0  0  0  0  0  0  0  0  0  0  0  0
   -4.6040   16.1510   -6.3360 O   0  0  0  0  0  0  0  0  0  0  0  0
   -4.1290   15.4450   -4.0570 O   0  0  0  0  0  0  0  0  0  0  0  0
  2  1  1  6
  2  3  1  0
  2  4  1  0
  4  5  1  1
  3  6  1  0
  4  7  1  0
  6  7  1  0
  7  8  1  6
  8  9  1  0
  9 10  1  0
 10 11  2  3
 11 12  1  0
 11 13  1  0
 11 14  1  0
 13 15  1  0
 15 16  1  0
 15 17  2  0
 15 18  1  0
M  END
