mArh-x0628_0_A_α-5CB5_0_G_α
     RDKit          3D

 28 29  0  0  0  0  0  0  0  0999 V2000
   -0.6100    9.3080   -7.4830 C   0  0  0  0  0  0  0  0  0  0  0  0
   -0.7880   10.3810   -6.4850 C   0  0  0  0  0  0  0  0  0  0  0  0
   -1.9420   10.5270   -5.7660 N   0  0  0  0  0  0  0  0  0  0  0  0
    0.1600   11.2830   -6.2050 N   0  0  0  0  0  0  0  0  0  0  0  0
   -0.4330   12.0360   -5.2430 N   0  0  0  0  0  0  0  0  0  0  0  0
   -1.6950   11.5700   -4.9950 C   0  0  0  0  0  0  0  0  0  0  0  0
   -2.6420   12.1410   -4.0060 C   0  0  0  0  0  0  0  0  0  0  0  0
    0.2910   13.1540   -4.6290 C   0  0  1  0  0  0  0  0  0  0  0  0
    1.5560   12.7880   -3.9040 C   0  0  0  0  0  0  0  0  0  0  0  0
    0.4040   14.3970   -5.4930 C   0  0  0  0  0  0  0  0  0  0  0  0
    1.1050   12.1350   -2.6480 C   0  0  0  0  0  0  0  0  0  0  0  0
   -0.2860   15.6540   -4.9360 C   0  0  0  0  0  0  0  0  0  0  0  0
    0.6780   10.9990   -2.5350 O   0  0  0  0  0  0  0  0  0  0  0  0
    1.1990   12.9590   -1.5990 O   0  0  0  0  0  0  0  0  0  0  0  0
    0.5840   16.9020   -5.1230 C   0  0  0  0  0  0  0  0  0  0  0  0
   -0.2010   18.0510   -5.7580 C   0  0  0  0  0  0  0  0  0  0  0  0
    0.6420   18.8240   -6.7700 C   0  0  0  0  0  0  0  0  0  0  0  0
   -0.0560   19.6840   -7.8300 C   0  0  0  0  0  0  0  0  0  0  0  0
   -1.4260   20.2520   -7.4560 C   0  0  0  0  0  0  0  0  0  0  0  0
   -1.9050   21.3640   -8.3880 C   0  0  0  0  0  0  0  0  0  0  0  0
   -3.2080   21.9940   -7.9130 C   0  0  2  0  0  0  0  0  0  0  0  0
   -4.3210   21.0930   -8.0570 O   0  0  0  0  0  0  0  0  0  0  0  0
   -3.7250   23.2830   -8.5260 C   0  0  1  0  0  0  0  0  0  0  0  0
   -4.0140   23.2320   -9.9270 O   0  0  0  0  0  0  0  0  0  0  0  0
   -5.4680   21.8630   -7.6670 C   0  0  2  0  0  0  0  0  0  0  0  0
   -5.0470   23.3560   -7.7780 C   0  0  2  0  0  0  0  0  0  0  0  0
   -5.7520   21.5760   -6.2990 O   0  0  0  0  0  0  0  0  0  0  0  0
   -5.9600   24.1260   -8.5540 O   0  0  0  0  0  0  0  0  0  0  0  0
  1  2  1  0
  2  3  1  0
  2  4  2  0
  4  5  1  0
  3  6  2  0
  5  6  1  0
  6  7  1  0
  5  8  1  0
  8  9  1  6
  8 10  1  0
  9 11  1  0
 10 12  1  0
 11 13  2  0
 11 14  1  0
 12 15  1  0
 15 16  1  0
 16 17  1  0
 17 18  1  0
 18 19  1  0
 19 20  1  0
 21 20  1  6
 21 22  1  0
 21 23  1  0
 23 24  1  6
 22 25  1  0
 23 26  1  0
 25 26  1  0
 25 27  1  1
 26 28  1  6
M  END
