mArh-EU0906_0_A_Î²
     RDKit          3D

  9  9  0  0  0  0  0  0  0  0999 V2000
    2.4720    9.5480  -11.2500 C   0  0  0  0  0  0  0  0  0  0  0  0
    2.6860    8.4470  -10.7690 O   0  0  0  0  0  0  0  0  0  0  0  0
    3.1310    9.9750  -12.5130 C   0  0  0  0  0  0  0  0  0  0  0  0
    2.7600   11.1600  -13.1410 C   0  0  0  0  0  0  0  0  0  0  0  0
    4.1730    9.2260  -13.0470 C   0  0  0  0  0  0  0  0  0  0  0  0
    3.4010   11.5830  -14.2920 C   0  0  0  0  0  0  0  0  0  0  0  0
    4.8310    9.6480  -14.1890 C   0  0  0  0  0  0  0  0  0  0  0  0
    4.4230   10.8140  -14.7760 C   0  0  0  0  0  0  0  0  0  0  0  0
    5.0700   11.2340  -15.8980 F   0  0  0  0  0  0  0  0  0  0  0  0
  2  1  2  0
  1  3  1  0
  3  4  2  0
  3  5  1  0
  4  6  1  0
  5  7  2  0
  6  8  2  0
  8  7  1  0
  8  9  1  0
M  END
