mArh-x0849_0_A_α-3EW5_0_C_α
     RDKit          3D

 26 27  0  0  0  0  0  0  0  0999 V2000
   -3.3530   15.3620   -3.0160 Br  0  0  0  0  0  0  0  0  0  0  0  0
   -3.3820   15.2600   -1.1230 C   0  0  0  0  0  0  0  0  0  0  0  0
   -2.2560   15.0370   -0.4130 C   0  0  0  0  0  0  0  0  0  0  0  0
   -4.6070   15.4160   -0.4800 C   0  0  0  0  0  0  0  0  0  0  0  0
   -2.3700   14.9560    0.9840 C   0  0  0  0  0  0  0  0  0  0  0  0
   -4.6590   15.3320    0.8870 C   0  0  0  0  0  0  0  0  0  0  0  0
   -0.9950   14.8800   -0.9920 C   0  0  0  0  0  0  0  0  0  0  0  0
   -0.7800   14.9390   -2.4750 C   0  0  0  0  0  0  0  0  0  0  0  0
   -3.5600   15.1090    1.5710 N   0  0  0  0  0  0  0  0  0  0  0  0
   -1.3710   14.7340    1.7520 N   0  0  0  0  0  0  0  0  0  0  0  0
    0.0410   14.6520   -0.0870 C   0  0  0  0  0  0  0  0  0  0  0  0
   -0.2680   16.3220   -2.9950 C   0  0  0  0  0  0  0  0  0  0  0  0
   -0.1400   14.5790    1.2560 C   0  0  0  0  0  0  0  0  0  0  0  0
   -1.0440   16.7160   -4.1980 C   0  0  0  0  0  0  0  0  0  0  0  0
   -0.4130   17.5170   -5.2820 C   0  0  0  0  0  0  0  0  0  0  0  0
   -1.2000   18.0870   -6.4130 C   0  0  0  0  0  0  0  0  0  0  0  0
   -0.5070   18.3470   -7.5500 O   0  0  0  0  0  0  0  0  0  0  0  0
   -0.4940   20.0440   -7.9320 P   0  0  0  0  0  0  0  0  0  0  0  0
   -1.8980   20.7260   -8.2360 O   0  0  0  0  0  0  0  0  0  0  0  0
    0.9060   20.8360   -7.7480 O   0  0  0  0  0  0  0  0  0  0  0  0
   -0.8030   20.2210   -6.5050 O   0  0  0  0  0  0  0  0  0  0  0  0
   -2.4450   21.6840   -7.3820 C   0  0  0  0  0  0  0  0  0  0  0  0
   -3.9670   21.7320   -7.8620 C   0  0  2  0  0  0  0  0  0  0  0  0
   -4.1160   22.9770   -8.6380 C   0  0  0  0  0  0  0  0  0  0  0  0
   -4.5550   22.0120   -6.5450 O   0  0  0  0  0  0  0  0  0  0  0  0
   -4.7150   22.7290   -9.8920 O   0  0  0  0  0  0  0  0  0  0  0  0
  1  2  1  0
  2  3  2  0
  2  4  1  0
  3  5  1  0
  4  6  2  0
  3  7  1  0
  7  8  1  0
  5  9  2  0
  6  9  1  0
  5 10  1  0
  7 11  2  0
  8 12  1  0
 10 13  2  0
 11 13  1  0
 12 14  1  0
 14 15  1  0
 15 16  1  0
 16 17  1  0
 17 18  1  0
 18 19  1  0
 18 20  1  0
 18 21  1  0
 19 22  1  0
 22 23  1  0
 23 24  1  0
 23 25  1  1
 24 26  1  0
M  CHG  1  21  -1
M  END
