mArh-5dus_0_A_Î³
     RDKit          3D

  8  8  0  0  0  0  0  0  0  0999 V2000
   -0.7230   14.3300   -2.8140 C   0  0  0  0  0  0  0  0  0  0  0  0
    0.2870   15.5200   -2.9740 O   0  0  0  0  0  0  0  0  0  0  0  0
   -1.2810   14.2620   -4.0110 C   0  0  1  0  0  0  0  0  0  0  0  0
    0.6900   15.5380   -4.4480 C   0  0  1  0  0  0  0  0  0  0  0  0
   -0.0440   14.5480   -5.0410 C   0  0  1  0  0  0  0  0  0  0  0  0
   -1.8900   12.9970   -4.2970 O   0  0  0  0  0  0  0  0  0  0  0  0
    0.3890   16.9480   -5.0130 C   0  0  0  0  0  0  0  0  0  0  0  0
    0.7400   13.3370   -5.1430 O   0  0  0  0  0  0  0  0  0  0  0  0
  1  2  1  1
  1  3  1  0
  4  2  1  0
  5  3  1  0
  3  6  1  6
  4  7  1  6
  4  5  1  0
  5  8  1  1
M  END
