mArh-5cb5_P_0_P_β-6MEA_0_B_β
     RDKit          3D

  9  8  0  0  0  0  0  0  0  0999 V2000
   -1.7120   20.4180   -8.0610 O   0  0  0  0  0  0  0  0  0  0  0  0
   -0.2520   19.8360   -7.7870 P   0  0  0  0  0  0  0  0  0  0  0  0
   -0.3400   18.8810   -6.5590 O   0  0  0  0  0  0  0  0  0  0  0  0
    0.7890   20.8840   -7.7600 O   0  0  0  0  0  0  0  0  0  0  0  0
   -0.0360   18.7740   -8.9550 O   0  0  0  0  0  0  0  0  0  0  0  0
   -1.6530   18.2380   -5.9750 P   0  0  0  0  0  0  0  0  0  0  0  0
   -1.1460   17.0630   -5.0240 O   0  0  0  0  0  0  0  0  0  0  0  0
   -2.6310   17.7770   -6.9830 O   0  0  0  0  0  0  0  0  0  0  0  0
   -2.2130   19.3420   -4.9830 O   0  0  0  0  0  0  0  0  0  0  0  0
  1  2  1  0
  2  3  1  0
  2  4  2  0
  2  5  1  0
  3  6  1  0
  6  7  1  0
  6  8  2  0
  6  9  1  0
M  END
