mArh-5lw0_B_1_B_Î³
     RDKit          3D

  8  8  0  0  0  0  0  0  0  0999 V2000
   -0.6950   14.2540   -2.5370 C   0  0  0  0  0  0  0  0  0  0  0  0
   -0.1850   15.5730   -3.0090 O   0  0  0  0  0  0  0  0  0  0  0  0
   -0.9400   13.4450   -3.8020 C   0  0  1  0  0  0  0  0  0  0  0  0
    0.5610   15.3730   -4.2110 C   0  0  1  0  0  0  0  0  0  0  0  0
    0.3000   13.8810   -4.5960 C   0  0  1  0  0  0  0  0  0  0  0  0
   -1.0230   12.0140   -3.5710 O   0  0  0  0  0  0  0  0  0  0  0  0
    0.0740   16.4050   -5.2530 C   0  0  0  0  0  0  0  0  0  0  0  0
    1.4430   13.0840   -4.1750 O   0  0  0  0  0  0  0  0  0  0  0  0
  1  2  1  1
  1  3  1  0
  4  2  1  0
  5  3  1  0
  3  6  1  1
  4  7  1  6
  4  5  1  0
  5  8  1  1
M  END
