mArh-5cms_H_7_H_Î³
     RDKit          3D

  8  8  0  0  0  0  0  0  0  0999 V2000
   -0.4810   14.6180   -2.8760 C   0  0  0  0  0  0  0  0  0  0  0  0
    0.4160   15.6610   -3.2630 O   0  0  0  0  0  0  0  0  0  0  0  0
   -1.1290   14.1410   -4.1860 C   0  0  1  0  0  0  0  0  0  0  0  0
    0.4790   15.7430   -4.7140 C   0  0  1  0  0  0  0  0  0  0  0  0
   -0.0370   14.4140   -5.1940 C   0  0  1  0  0  0  0  0  0  0  0  0
   -1.4820   12.7670   -4.0910 O   0  0  0  0  0  0  0  0  0  0  0  0
   -0.3160   16.9440   -5.2130 C   0  0  0  0  0  0  0  0  0  0  0  0
    1.0540   13.5080   -5.0570 O   0  0  0  0  0  0  0  0  0  0  0  0
  1  2  1  1
  1  3  1  0
  4  2  1  0
  5  3  1  0
  3  6  1  1
  4  7  1  6
  4  5  1  0
  5  8  1  1
M  END
