mArh-5cb5_A_0_A_Î±
     RDKit          3D

  9  9  0  0  0  0  0  0  0  0999 V2000
   -1.9420   21.5220   -8.6460 C   0  0  0  0  0  0  0  0  0  0  0  0
   -3.3840   21.6640   -9.0670 C   0  0  1  0  0  0  0  0  0  0  0  0
   -4.2530   20.9070   -8.1810 O   0  0  0  0  0  0  0  0  0  0  0  0
   -3.7990   23.1030   -8.9260 C   0  0  2  0  0  0  0  0  0  0  0  0
   -5.4080   21.6860   -7.8210 C   0  0  2  0  0  0  0  0  0  0  0  0
   -4.8530   23.1160   -7.8380 C   0  0  2  0  0  0  0  0  0  0  0  0
   -4.4310   23.4760  -10.1510 O   0  0  0  0  0  0  0  0  0  0  0  0
   -5.9630   21.2960   -6.5530 O   0  0  0  0  0  0  0  0  0  0  0  0
   -5.8960   24.0370   -8.2410 O   0  0  0  0  0  0  0  0  0  0  0  0
  2  1  1  1
  3  2  1  0
  4  2  1  0
  5  3  1  0
  6  4  1  0
  4  7  1  6
  5  8  1  1
  5  6  1  0
  6  9  1  6
M  END
