mArh-5cb5_G_0_G_β-mArh-x0438_0_A_α
     RDKit          3D

 26 27  0  0  0  0  0  0  0  0999 V2000
   -1.6130   20.4860   -8.2790 O   0  0  0  0  0  0  0  0  0  0  0  0
   -0.2640   19.8240   -7.7590 P   0  0  0  0  0  0  0  0  0  0  0  0
   -0.5080   19.1760   -6.3400 O   0  0  0  0  0  0  0  0  0  0  0  0
    0.9020   20.7370   -7.7960 O   0  0  0  0  0  0  0  0  0  0  0  0
   -0.1480   18.5790   -8.7450 O   0  0  0  0  0  0  0  0  0  0  0  0
   -1.9050   18.5500   -5.9620 P   0  0  2  0  0  0  0  0  0  0  0  0
   -1.7280   17.6040   -4.6850 O   0  0  0  0  0  0  0  0  0  0  0  0
   -2.7000   17.9390   -7.0380 O   0  0  0  0  0  0  0  0  0  0  0  0
   -2.6340   19.7440   -5.2210 O   0  0  0  0  0  0  0  0  0  0  0  0
   -1.9150   16.2060   -4.9010 C   0  0  0  0  0  0  0  0  0  0  0  0
   -2.8800   15.5780   -3.8820 C   0  0  0  0  0  0  0  0  0  0  0  0
   -2.3520   15.5480   -2.4490 C   0  0  0  0  0  0  0  0  0  0  0  0
   -3.4010   15.2900   -1.3780 C   0  0  0  0  0  0  0  0  0  0  0  0
   -4.7700   15.0930   -1.6820 C   0  0  0  0  0  0  0  0  0  0  0  0
   -2.9630   15.2420   -0.0490 C   0  0  0  0  0  0  0  0  0  0  0  0
   -5.6330   14.8400   -0.6010 C   0  0  0  0  0  0  0  0  0  0  0  0
   -3.8460   14.9930    1.0030 C   0  0  0  0  0  0  0  0  0  0  0  0
   -6.9940   14.5950   -0.5160 N   0  0  0  0  0  0  0  0  0  0  0  0
   -5.1990   14.7860    0.7160 C   0  0  0  0  0  0  0  0  0  0  0  0
   -7.3170   14.3990    0.8160 C   0  0  0  0  0  0  0  0  0  0  0  0
   -6.2460   14.5180    1.5650 N   0  0  0  0  0  0  0  0  0  0  0  0
   -8.6920   14.0860    1.3040 C   0  0  0  0  0  0  0  0  0  0  0  0
   -9.3270   15.2800    2.4780 S   0  0  0  0  0  0  0  0  0  0  0  0
   -8.1030   15.4490    3.7680 C   0  0  0  0  0  0  0  0  0  0  0  0
  -10.5230   14.7120    3.0800 O   0  0  0  0  0  0  0  0  0  0  0  0
   -9.4450   16.5430    1.7800 O   0  0  0  0  0  0  0  0  0  0  0  0
  1  2  1  0
  2  3  1  0
  2  4  2  0
  2  5  1  0
  3  6  1  0
  6  7  1  0
  6  8  2  0
  6  9  1  1
  7 10  1  0
 10 11  1  0
 11 12  1  0
 12 13  1  0
 13 14  2  0
 13 15  1  0
 14 16  1  0
 15 17  2  0
 16 18  1  0
 16 19  2  0
 17 19  1  0
 18 20  1  0
 19 21  1  0
 20 21  2  0
 20 22  1  0
 23 22  1  0
 23 24  1  0
 23 25  2  0
 23 26  2  0
M  END
