mArh-5cms_K_10_K_Î±
     RDKit          3D

  9  9  0  0  0  0  0  0  0  0999 V2000
   -1.9240   21.4300   -8.9810 C   0  0  0  0  0  0  0  0  0  0  0  0
   -1.7610   22.0050  -10.3890 C   0  0  1  0  0  0  0  0  0  0  0  0
   -2.8110   21.5730  -11.2920 O   0  0  0  0  0  0  0  0  0  0  0  0
   -1.8130   23.5190  -10.3480 C   0  0  2  0  0  0  0  0  0  0  0  0
   -3.5680   22.6950  -11.7770 C   0  0  2  0  0  0  0  0  0  0  0  0
   -3.2410   23.8270  -10.8120 C   0  0  2  0  0  0  0  0  0  0  0  0
   -0.7860   24.0420  -11.2040 O   0  0  0  0  0  0  0  0  0  0  0  0
   -4.9730   22.4160  -11.8830 O   0  0  0  0  0  0  0  0  0  0  0  0
   -3.3580   25.0730  -11.5090 O   0  0  0  0  0  0  0  0  0  0  0  0
  2  1  1  1
  3  2  1  0
  4  2  1  0
  5  3  1  0
  6  4  1  0
  4  7  1  6
  5  8  1  1
  5  6  1  0
  6  9  1  6
M  END
