mArh-5l9k_B_0_B_γ-5CB5_0_J_β
     RDKit          3D

 16 16  0  0  0  0  0  0  0  0999 V2000
   -2.7390   13.0810   -4.0090 O   0  0  0  0  0  0  0  0  0  0  0  0
   -1.4650   13.5940   -3.7990 C   0  0  2  0  0  0  0  0  0  0  0  0
   -1.4250   14.6390   -2.6920 C   0  0  0  0  0  0  0  0  0  0  0  0
   -0.9320   14.3420   -5.0030 C   0  0  2  0  0  0  0  0  0  0  0  0
    0.4040   13.9540   -5.1210 O   0  0  0  0  0  0  0  0  0  0  0  0
   -0.6190   15.6450   -3.2360 O   0  0  0  0  0  0  0  0  0  0  0  0
   -1.0960   15.7380   -4.5250 C   0  0  1  0  0  0  0  0  0  0  0  0
   -0.4500   16.8960   -5.3040 C   0  0  0  0  0  0  0  0  0  0  0  0
   -1.5610   18.1620   -5.8110 P   0  0  0  0  0  0  0  0  0  0  0  0
   -0.5660   19.2450   -6.2500 O   0  0  0  0  0  0  0  0  0  0  0  0
   -2.1660   18.2380   -7.3830 O   0  0  0  0  0  0  0  0  0  0  0  0
   -2.1780   19.2160   -4.7850 O   0  0  0  0  0  0  0  0  0  0  0  0
   -0.0490   19.6390   -7.7090 P   0  0  0  0  0  0  0  0  0  0  0  0
   -1.3830   20.2190   -8.2080 O   0  0  0  0  0  0  0  0  0  0  0  0
    0.6360   21.1450   -8.0070 O   0  0  0  0  0  0  0  0  0  0  0  0
    0.0330   18.4820   -8.8660 O   0  0  0  0  0  0  0  0  0  0  0  0
  2  1  1  6
  2  3  1  0
  2  4  1  0
  4  5  1  1
  3  6  1  0
  4  7  1  0
  6  7  1  0
  7  8  1  6
  8  9  1  0
  9 10  1  0
  9 11  1  0
  9 12  1  0
 10 13  1  0
 13 14  1  0
 13 15  1  0
 13 16  1  0
M  CHG  2  11  -1  15  -1
M  END
