mArh-5cms_R_17_R_Î²
     RDKit          3D

  9  8  0  0  0  0  0  0  0  0999 V2000
   -1.1560   20.2750   -8.9990 O   0  0  0  0  0  0  0  0  0  0  0  0
   -0.3170   19.2060   -8.1740 P   0  0  2  0  0  0  0  0  0  0  0  0
   -1.2650   19.0490   -6.8930 O   0  0  0  0  0  0  0  0  0  0  0  0
    0.9240   19.9570   -7.7490 O   0  0  0  0  0  0  0  0  0  0  0  0
   -0.1640   17.9550   -8.9980 O   0  0  0  0  0  0  0  0  0  0  0  0
   -2.0810   17.7670   -6.3900 P   0  0  2  0  0  0  0  0  0  0  0  0
   -0.9540   16.6560   -6.2120 O   0  0  0  0  0  0  0  0  0  0  0  0
   -3.0700   17.3700   -7.4750 O   0  0  0  0  0  0  0  0  0  0  0  0
   -2.6510   17.9990   -5.0100 O   0  0  0  0  0  0  0  0  0  0  0  0
  2  1  1  6
  3  2  1  0
  2  4  2  0
  2  5  1  0
  6  3  1  0
  6  7  1  1
  6  8  2  0
  6  9  1  0
M  END
