mArh-5cb5_B_0_B_Î²
     RDKit          3D

  9  8  0  0  0  0  0  0  0  0999 V2000
   -1.6640   20.2250   -8.9300 O   0  0  0  0  0  0  0  0  0  0  0  0
   -0.4350   19.5130   -8.1490 P   0  0  2  0  0  0  0  0  0  0  0  0
   -1.1550   19.3910   -6.7570 O   0  0  0  0  0  0  0  0  0  0  0  0
    0.6970   20.4980   -7.9000 O   0  0  0  0  0  0  0  0  0  0  0  0
   -0.0650   18.1270   -8.6790 O   0  0  0  0  0  0  0  0  0  0  0  0
   -2.2190   18.2420   -6.3640 P   0  0  2  0  0  0  0  0  0  0  0  0
   -1.2700   16.9370   -6.1650 O   0  0  0  0  0  0  0  0  0  0  0  0
   -3.2300   17.9220   -7.4660 O   0  0  0  0  0  0  0  0  0  0  0  0
   -2.7330   18.6320   -4.9580 O   0  0  0  0  0  0  0  0  0  0  0  0
  2  1  1  6
  3  2  1  0
  2  4  2  0
  2  5  1  0
  6  3  1  0
  6  7  1  1
  6  8  2  0
  6  9  1  0
M  END
