mArh-5cb5_E_0_E_Î²
     RDKit          3D

  9  8  0  0  0  0  0  0  0  0999 V2000
   -1.3140   20.4330   -9.2610 O   0  0  0  0  0  0  0  0  0  0  0  0
   -0.3230   19.5710   -8.2830 P   0  0  2  0  0  0  0  0  0  0  0  0
   -1.1960   19.5390   -6.9380 O   0  0  0  0  0  0  0  0  0  0  0  0
    0.8890   20.4060   -7.9340 O   0  0  0  0  0  0  0  0  0  0  0  0
   -0.0980   18.1220   -8.7270 O   0  0  0  0  0  0  0  0  0  0  0  0
   -2.0900   18.2730   -6.5250 P   0  0  2  0  0  0  0  0  0  0  0  0
   -1.0340   17.1190   -6.2150 O   0  0  0  0  0  0  0  0  0  0  0  0
   -2.7810   17.6520   -7.7080 O   0  0  0  0  0  0  0  0  0  0  0  0
   -2.9510   18.6960   -5.3260 O   0  0  0  0  0  0  0  0  0  0  0  0
  2  1  1  6
  3  2  1  0
  2  4  2  0
  2  5  1  0
  6  3  1  0
  6  7  1  1
  6  8  2  0
  6  9  1  0
M  END
