mArh-6vxs_A_0_A_Î±
     RDKit          3D

 13 13  0  0  0  0  0  0  0  0999 V2000
    9.3740   34.0750    8.7600 N   0  0  0  0  0  0  0  0  0  0  0  0
    6.9760   34.4300    8.2560 C   0  0  0  0  0  0  0  0  0  0  0  0
    6.0920   35.6250    7.9020 C   0  0  0  0  0  0  0  0  0  0  0  0
    5.9170   36.5450    9.0930 C   0  0  0  0  0  0  0  0  0  0  0  0
    7.2440   37.1540    9.5060 C   0  0  0  0  0  0  0  0  0  0  0  0
    8.4230   36.3610    8.9430 C   0  0  0  0  0  0  0  0  0  0  0  0
    8.1810   34.8660    9.0810 C   0  0  0  0  0  0  0  0  0  0  0  0
    9.2670   32.6440    9.0420 C   0  0  0  0  0  0  0  0  0  0  0  0
   11.8570   29.8000    9.6270 O   0  0  0  0  0  0  0  0  0  0  0  0
   10.6110   31.9460    8.9160 C   0  0  0  0  0  0  0  0  0  0  0  0
    9.5100   29.6140    8.8700 O   0  0  0  0  0  0  0  0  0  0  0  0
   10.0200   30.5920   11.0470 O   0  0  0  0  0  0  0  0  0  0  0  0
   10.5190   30.3200    9.6070 S   0  0  0  0  0  0  0  0  0  0  0  0
  7  1  1  0
  1  8  1  0
  7  2  1  0
  7  6  1  0
  8 10  1  0
  2  3  1  0
  3  4  1  0
  4  5  1  0
  5  6  1  0
 10 13  1  0
  9 13  2  0
 13 11  2  0
 13 12  1  0
M  END
