mArh-4gvw_0_A_α-mArh-5cb5_A_0_A_γ
     RDKit          3D

 22 23  0  0  0  0  0  0  0  0999 V2000
   -0.9470   20.2620   -6.1330 O   0  0  0  0  0  0  0  0  0  0  0  0
   -0.4390   20.3610   -7.4690 S   0  0  0  0  0  0  0  0  0  0  0  0
    0.8150   21.0170   -7.7720 O   0  0  0  0  0  0  0  0  0  0  0  0
   -0.4650   18.8220   -7.9050 O   0  0  0  0  0  0  0  0  0  0  0  0
   -1.8040   20.9920   -8.3450 C   0  0  0  0  0  0  0  0  0  0  0  0
   -2.2020   22.3580   -7.8900 C   0  0  0  0  0  0  0  0  0  0  0  0
   -0.8040   18.1900   -6.6680 C   0  0  0  0  0  0  0  0  0  0  0  0
    0.4130   18.1790   -5.7410 C   0  0  0  0  0  0  0  0  0  0  0  0
   -3.6220   22.4360   -7.6240 N   0  0  0  0  0  0  0  0  0  0  0  0
    0.8480   16.8280   -5.1730 C   0  0  0  0  0  0  0  0  0  0  0  0
   -3.8380   23.4320   -6.5890 C   0  0  0  0  0  0  0  0  0  0  0  0
   -4.3800   22.7560   -8.8420 C   0  0  0  0  0  0  0  0  0  0  0  0
   -5.2740   23.7680   -6.4050 C   0  0  0  0  0  0  0  0  0  0  0  0
   -5.8690   22.9580   -8.5460 C   0  0  0  0  0  0  0  0  0  0  0  0
   -0.2240   15.8390   -4.7350 C   0  0  2  0  0  0  0  0  0  0  0  0
   -6.0430   23.9890   -7.5750 O   0  0  0  0  0  0  0  0  0  0  0  0
   -0.2580   15.8080   -3.2950 O   0  0  0  0  0  0  0  0  0  0  0  0
    0.0410   14.3760   -5.0860 C   0  0  1  0  0  0  0  0  0  0  0  0
    1.4130   14.0120   -4.8570 O   0  0  0  0  0  0  0  0  0  0  0  0
   -0.9730   14.6200   -2.9260 C   0  0  0  0  0  0  0  0  0  0  0  0
   -0.7990   13.6250   -4.0660 C   0  0  1  0  0  0  0  0  0  0  0  0
   -2.0170   13.1870   -4.6300 O   0  0  0  0  0  0  0  0  0  0  0  0
  1  2  2  0
  2  3  2  0
  2  4  1  0
  2  5  1  0
  5  6  1  0
  4  7  1  0
  7  8  1  0
  6  9  1  0
  8 10  1  0
  9 11  1  0
  9 12  1  0
 11 13  1  0
 12 14  1  0
 15 10  1  1
 13 16  1  0
 14 16  1  0
 15 17  1  0
 15 18  1  0
 18 19  1  1
 17 20  1  0
 18 21  1  0
 20 21  1  0
 21 22  1  6
M  END
