mArh-5cb3_0_A_β-4IQY_0_B_β
     RDKit          3D

  9  8  0  0  0  0  0  0  0  0999 V2000
   -1.4780   20.6210   -8.7850 O   0  0  0  0  0  0  0  0  0  0  0  0
   -0.3790   19.9130   -7.8750 P   0  0  0  0  0  0  0  0  0  0  0  0
   -1.1690   19.5100   -6.5780 O   0  0  0  0  0  0  0  0  0  0  0  0
    0.8340   20.7420   -7.7160 O   0  0  0  0  0  0  0  0  0  0  0  0
   -0.1180   18.5990   -8.7470 O   0  0  0  0  0  0  0  0  0  0  0  0
   -1.5980   18.0780   -6.0830 P   0  0  0  0  0  0  0  0  0  0  0  0
   -0.2730   17.2020   -6.0670 O   0  0  0  0  0  0  0  0  0  0  0  0
   -2.7100   17.4820   -6.8480 O   0  0  0  0  0  0  0  0  0  0  0  0
   -1.8640   18.2740   -4.5440 O   0  0  0  0  0  0  0  0  0  0  0  0
  1  2  1  0
  2  3  1  0
  2  4  2  0
  2  5  1  0
  3  6  1  0
  6  7  1  0
  6  8  2  0
  6  9  1  0
M  END
