ucsf378-ucsf004
     RDKit          3D

 20 22  0  0  0  0  0  0  0  0999 V2000
   -2.6030   15.5850   -3.7090 Cl  0  0  0  0  0  0  0  0  0  0  0  0
   -1.0420   14.3720   -2.3940 S   0  0  0  0  0  0  0  0  0  0  0  0
   -0.0240   13.4970   -3.5670 C   0  0  2  0  0  0  0  0  0  0  0  0
    0.2230   15.4410   -2.9680 C   0  0  0  0  0  0  0  0  0  0  0  0
   -1.2250   15.0510   -0.8670 N   0  0  0  0  0  0  0  0  0  0  0  0
   -2.0500   13.6750   -1.0340 C   0  0  1  0  0  0  0  0  0  0  0  0
   -0.0630   11.9680   -3.6030 C   0  0  0  0  0  0  0  0  0  0  0  0
    1.3350   13.9270   -3.8640 C   0  0  1  0  0  0  0  0  0  0  0  0
    0.4390   15.8370   -4.2780 C   0  0  0  0  0  0  0  0  0  0  0  0
   -0.3410   15.0180    0.1400 C   0  0  0  0  0  0  0  0  0  0  0  0
   -2.1900   14.0920    0.3840 C   0  0  1  0  0  0  0  0  0  0  0  0
   -3.4540   14.0630   -1.4740 C   0  0  0  0  0  0  0  0  0  0  0  0
    2.4820   12.7750   -4.5610 Cl  0  0  0  0  0  0  0  0  0  0  0  0
    0.5720   11.4370   -2.4210 C   0  0  1  0  0  0  0  0  0  0  0  0
    1.5500   15.0920   -4.8060 C   0  0  0  0  0  0  0  0  0  0  0  0
   -1.0350   14.3740    1.2370 N   0  0  0  0  0  0  0  0  0  0  0  0
   -3.1540   15.1570    0.5510 N   0  0  0  0  0  0  0  0  0  0  0  0
   -3.9930   15.1640   -0.5970 C   0  0  0  0  0  0  0  0  0  0  0  0
   -0.1700   11.8800   -1.2790 O   0  0  0  0  0  0  0  0  0  0  0  0
    0.3700   10.0540   -2.3670 O   0  0  0  0  0  0  0  0  0  0  0  0
  1  2  1  0
  2  3  1  0
  2  4  1  0
  2  5  1  0
  2  6  1  0
  3  7  1  1
  3  8  1  0
  4  9  1  0
  5 10  1  0
  6 11  1  0
  6 12  1  6
  8 13  1  6
  7 14  1  0
  8 15  1  0
  9 15  1  0
 10 16  1  0
 11 16  1  6
 11 17  1  0
 12 18  1  0
 17 18  1  0
 14 19  1  1
 14 20  1  0
M  CHG  1  19  -1
M  END
