ucsf523-ucsf004
     RDKit          3D

 19 21  0  0  0  0  0  0  0  0999 V2000
    0.5310   14.8240    0.5010 N   0  0  0  0  0  0  0  0  0  0  0  0
   -0.6250   14.0050    0.6790 C   0  0  1  0  0  0  0  0  0  0  0  0
   -1.6120   14.7830    1.3980 N   0  0  0  0  0  0  0  0  0  0  0  0
   -1.2750   13.4500   -0.3440 N   0  0  0  0  0  0  0  0  0  0  0  0
   -1.3080   14.2330   -1.8910 S   0  0  0  0  0  0  0  0  0  0  0  0
   -2.7160   14.4300    0.5950 C   0  0  2  0  0  0  0  0  0  0  0  0
    0.1480   15.7600   -1.7750 O   0  0  0  0  0  0  0  0  0  0  0  0
   -2.7590   14.5800   -0.8130 C   0  0  1  0  0  0  0  0  0  0  0  0
   -3.8460   14.8460    1.4090 N   0  0  0  0  0  0  0  0  0  0  0  0
   -0.9780   12.8890   -3.0610 C   0  0  0  0  0  0  0  0  0  0  0  0
   -1.6270   14.7470   -3.5400 C   0  0  0  0  0  0  0  0  0  0  0  0
   -4.8960   15.4290    0.7760 C   0  0  2  0  0  0  0  0  0  0  0  0
   -3.7520   15.4930   -1.2810 N   0  0  0  0  0  0  0  0  0  0  0  0
   -1.4940   13.1040   -4.3860 C   0  0  2  0  0  0  0  0  0  0  0  0
   -0.4330   14.9170   -4.4390 C   0  0  0  0  0  0  0  0  0  0  0  0
   -6.0540   15.0070    1.4340 O   0  0  0  0  0  0  0  0  0  0  0  0
   -1.7040   11.8480   -4.9810 F   0  0  0  0  0  0  0  0  0  0  0  0
   -4.9890   15.1270   -0.6990 C   0  0  0  0  0  0  0  0  0  0  0  0
   -0.4380   13.6680   -5.3340 C   0  0  0  0  0  0  0  0  0  0  0  0
  2  1  1  6
  2  3  1  0
  2  4  1  0
  4  5  1  0
  6  3  1  1
  5  7  1  0
  5  8  1  0
  6  8  1  0
  6  9  1  0
  5 10  1  0
  5 11  1  0
  9 12  1  0
  8 13  1  1
 10 14  1  0
 11 15  1  0
 12 16  1  1
 14 17  1  6
 12 18  1  0
 13 18  1  0
 14 19  1  0
 15 19  1  0
M  END
