ucsf367-ucsf264
     RDKit          3D

 18 19  0  0  0  0  0  0  0  0999 V2000
    0.7450   11.0950   -2.5450 O   0  0  0  0  0  0  0  0  0  0  0  0
    1.3560   12.1870   -2.9810 C   0  0  2  0  0  0  0  0  0  0  0  0
    0.8270   13.1690   -2.1200 O   0  0  0  0  0  0  0  0  0  0  0  0
    0.9330   12.4690   -4.4450 C   0  0  0  0  0  0  0  0  0  0  0  0
    0.7110   11.2830   -5.2010 O   0  0  0  0  0  0  0  0  0  0  0  0
   -0.5220   11.0680   -5.8310 C   0  0  1  0  0  0  0  0  0  0  0  0
   -0.2880    9.8960   -6.8170 C   0  0  1  0  0  0  0  0  0  0  0  0
   -1.6520   10.8320   -4.8080 C   0  0  0  0  0  0  0  0  0  0  0  0
   -0.7600   12.1560   -6.7370 N   0  0  0  0  0  0  0  0  0  0  0  0
   -1.5880    9.3510   -7.4230 C   0  0  0  0  0  0  0  0  0  0  0  0
   -2.9150   10.2980   -5.4710 C   0  0  0  0  0  0  0  0  0  0  0  0
    0.2570   12.0090   -7.7430 N   0  0  0  0  0  0  0  0  0  0  0  0
    0.7120   10.6040   -7.7600 C   0  0  2  0  0  0  0  0  0  0  0  0
    0.9520   10.0590   -9.1690 C   0  0  0  0  0  0  0  0  0  0  0  0
   -2.6340    9.0840   -6.3420 C   0  0  0  0  0  0  0  0  0  0  0  0
    1.6420    8.8900   -9.1210 F   0  0  0  0  0  0  0  0  0  0  0  0
   -0.1670    9.8410   -9.8800 F   0  0  0  0  0  0  0  0  0  0  0  0
    1.6740   10.9170   -9.9190 F   0  0  0  0  0  0  0  0  0  0  0  0
  2  1  1  1
  2  3  1  0
  2  4  1  0
  4  5  1  0
  6  5  1  1
  6  7  1  0
  6  8  1  0
  6  9  1  0
  7 10  1  6
  8 11  1  0
  9 12  1  0
  7 13  1  0
 12 13  1  0
 13 14  1  6
 10 15  1  0
 11 15  1  0
 14 16  1  0
 14 17  1  0
 14 18  1  0
M  CHG  1   1  -1
M  END
