ucsf487
     RDKit          3D

 11 12  0  0  0  0  0  0  0  0999 V2000
   -7.6090   14.1300    2.9120 N   0  0  0  0  0  0  0  0  0  0  0  0
   -6.9960   14.4340    1.6390 C   0  0  0  0  0  0  0  0  0  0  0  0
   -7.7730   14.4970    0.4860 C   0  0  0  0  0  0  0  0  0  0  0  0
   -7.2570   14.7250   -0.6730 N   0  0  0  0  0  0  0  0  0  0  0  0
   -5.9440   14.9640   -0.8170 C   0  0  0  0  0  0  0  0  0  0  0  0
   -5.4500   15.2040   -2.1250 C   0  0  0  0  0  0  0  0  0  0  0  0
   -4.1070   15.4250   -2.3280 C   0  0  0  0  0  0  0  0  0  0  0  0
   -3.2390   15.3740   -1.2490 C   0  0  0  0  0  0  0  0  0  0  0  0
   -3.6880   15.1180    0.0160 C   0  0  0  0  0  0  0  0  0  0  0  0
   -5.0900   14.9210    0.2410 C   0  0  0  0  0  0  0  0  0  0  0  0
   -5.6250   14.6330    1.5340 C   0  0  0  0  0  0  0  0  0  0  0  0
  1  2  1  0
  2  3  1  0
  3  4  1  0
  4  5  1  0
  5  6  1  0
  6  7  1  0
  7  8  1  0
  8  9  1  0
  5 10  1  0
  9 10  1  0
  2 11  1  0
 10 11  1  0
M  END
