ucsf357-ucsf403
     RDKit          3D

 25 26  0  0  0  0  0  0  0  0999 V2000
   -5.8200   15.4770   -2.1680 O   0  0  0  0  0  0  0  0  0  0  0  0
   -5.7270   14.5770   -1.2250 C   0  0  2  0  0  0  0  0  0  0  0  0
   -6.1040   15.3040   -0.0840 O   0  0  0  0  0  0  0  0  0  0  0  0
   -4.2600   14.1250   -1.0800 C   0  0  1  0  0  0  0  0  0  0  0  0
   -3.6340   14.0060   -2.4950 C   0  0  0  0  0  0  0  0  0  0  0  0
   -3.4170   15.0260   -0.1520 C   0  0  0  0  0  0  0  0  0  0  0  0
   -2.3660   14.8180   -2.6540 C   0  0  2  0  0  0  0  0  0  0  0  0
   -1.9380   14.6270   -0.1490 C   0  0  0  0  0  0  0  0  0  0  0  0
   -1.7340   14.7260   -3.9610 O   0  0  0  0  0  0  0  0  0  0  0  0
   -1.3480   14.4360   -1.5530 C   0  0  2  0  0  0  0  0  0  0  0  0
   -0.1370   15.1970   -1.6730 O   0  0  0  0  0  0  0  0  0  0  0  0
   -2.1350   13.5900   -4.7430 C   0  0  0  0  0  0  0  0  0  0  0  0
   -1.6890   12.3010   -4.0550 C   0  0  0  0  0  0  0  0  0  0  0  0
   -1.7690   10.9660   -4.8310 C   0  0  2  0  0  0  0  0  0  0  0  0
   -0.4610   10.4330   -5.4840 C   0  0  2  0  0  0  0  0  0  0  0  0
   -2.9470   10.7870   -5.7800 C   0  0  0  0  0  0  0  0  0  0  0  0
    0.4150   11.4740   -5.9450 O   0  0  0  0  0  0  0  0  0  0  0  0
   -3.1130    9.3180   -6.0980 C   0  0  0  0  0  0  0  0  0  0  0  0
   -0.5570    9.2840   -6.5490 C   0  0  2  0  0  0  0  0  0  0  0  0
    0.3570    9.5860   -8.0770 Cl  0  0  0  0  0  0  0  0  0  0  0  0
    0.9710   12.4180   -4.9860 C   0  0  0  0  0  0  0  0  0  0  0  0
   -1.9660    8.8390   -6.9750 C   0  0  0  0  0  0  0  0  0  0  0  0
    1.4690   11.9370   -3.5680 C   0  0  1  0  0  0  0  0  0  0  0  0
    1.1680   12.7680   -2.6000 O   0  0  0  0  0  0  0  0  0  0  0  0
    0.7170   10.8040   -3.1470 O   0  0  0  0  0  0  0  0  0  0  0  0
  2  1  1  6
  2  3  1  0
  2  4  1  0
  4  5  1  6
  4  6  1  0
  5  7  1  0
  6  8  1  0
  7  9  1  6
  7 10  1  0
  8 10  1  0
 10 11  1  1
  9 12  1  0
 12 13  1  0
 14 13  1  6
 14 15  1  0
 14 16  1  0
 15 17  1  6
 16 18  1  0
 15 19  1  0
 19 20  1  6
 17 21  1  0
 18 22  1  0
 19 22  1  0
 21 23  1  0
 23 24  1  1
 23 25  1  0
M  CHG  2   1  -1  24  -1
M  END
