ucsf135-ucsf258
     RDKit          3D

 23 25  0  0  0  0  0  0  0  0999 V2000
    1.6780   11.6210   -7.2160 O   0  0  0  0  0  0  0  0  0  0  0  0
    0.4760   11.8830   -6.5570 C   0  0  2  0  0  0  0  0  0  0  0  0
    0.6870   11.8210   -5.1220 N   0  0  0  0  0  0  0  0  0  0  0  0
   -0.5800   10.8100   -6.9660 C   0  0  2  0  0  0  0  0  0  0  0  0
   -0.6890   11.2600   -4.3990 S   0  0  2  0  0  0  0  0  0  0  0  0
   -1.4410   10.3840   -5.7330 C   0  0  2  0  0  0  0  0  0  0  0  0
   -0.1230    9.5850   -7.7420 C   0  0  0  0  0  0  0  0  0  0  0  0
   -1.7880   12.3450   -4.0190 O   0  0  0  0  0  0  0  0  0  0  0  0
   -0.4250   10.2040   -3.2320 O   0  0  0  0  0  0  0  0  0  0  0  0
   -1.6080    8.8900   -5.6280 C   0  0  0  0  0  0  0  0  0  0  0  0
   -1.3550    8.7570   -8.1430 C   0  0  0  0  0  0  0  0  0  0  0  0
   -1.8120   13.5650   -4.7520 C   0  0  0  0  0  0  0  0  0  0  0  0
   -2.2090    8.3670   -6.9320 C   0  0  0  0  0  0  0  0  0  0  0  0
   -2.2070   14.6670   -3.9620 O   0  0  0  0  0  0  0  0  0  0  0  0
   -2.7800   14.3370   -2.6800 C   0  0  1  0  0  0  0  0  0  0  0  0
   -1.6490   13.9780   -1.6540 C   0  0  1  0  0  0  0  0  0  0  0  0
   -3.8210   15.3070   -2.1130 C   0  0  0  0  0  0  0  0  0  0  0  0
   -0.1750   13.8560   -2.2450 C   0  0  2  0  0  0  0  0  0  0  0  0
   -4.0940   15.2110   -0.6100 C   0  0  0  0  0  0  0  0  0  0  0  0
   -1.6270   14.8090   -0.4200 N   0  0  0  0  0  0  0  0  0  0  0  0
    0.7320   13.9880   -1.3040 O   0  0  0  0  0  0  0  0  0  0  0  0
    0.0780   14.8790   -3.2030 O   0  0  0  0  0  0  0  0  0  0  0  0
   -2.9050   14.8550    0.2840 C   0  0  0  0  0  0  0  0  0  0  0  0
  2  1  1  6
  2  3  1  0
  2  4  1  0
  3  5  1  0
  4  6  1  0
  5  6  1  0
  4  7  1  1
  5  8  1  0
  5  9  1  1
  6 10  1  1
  7 11  1  0
  8 12  1  0
 10 13  1  0
 11 13  1  0
 12 14  1  0
 15 14  1  6
 15 16  1  0
 15 17  1  0
 16 18  1  0
 17 19  1  0
 16 20  1  1
 18 21  1  1
 18 22  1  0
 19 23  1  0
 20 23  1  0
M  CHG  1  21  -1
M  END
