ucsf013-ucsf357
     RDKit          3D

 16 17  0  0  0  0  0  0  0  0999 V2000
   -4.0200   15.4290    2.0180 N   0  0  0  0  0  0  0  0  0  0  0  0
   -4.8350   14.3370    1.5720 C   0  0  1  0  0  0  0  0  0  0  0  0
   -6.1500   14.7340    2.0040 N   0  0  0  0  0  0  0  0  0  0  0  0
   -4.7530   14.0490    0.0830 C   0  0  1  0  0  0  0  0  0  0  0  0
   -5.4630   15.2080   -0.6040 C   0  0  2  0  0  0  0  0  0  0  0  0
   -7.1560   14.4060    0.9950 C   0  0  0  0  0  0  0  0  0  0  0  0
   -3.3580   13.7670   -0.5040 C   0  0  0  0  0  0  0  0  0  0  0  0
   -6.8840   15.0550   -0.2590 N   0  0  0  0  0  0  0  0  0  0  0  0
   -5.2390   15.2860   -2.1070 C   0  0  2  0  0  0  0  0  0  0  0  0
   -2.8300   14.9470   -1.2840 C   0  0  1  0  0  0  0  0  0  0  0  0
   -6.2170   14.3970   -2.7870 C   0  0  1  0  0  0  0  0  0  0  0  0
   -1.4160   14.7910   -1.5590 O   0  0  0  0  0  0  0  0  0  0  0  0
   -3.7260   15.2400   -2.4780 C   0  0  1  0  0  0  0  0  0  0  0  0
   -5.6860   13.2810   -3.1470 O   0  0  0  0  0  0  0  0  0  0  0  0
   -7.0870   14.0180   -1.7300 O   0  0  0  0  0  0  0  0  0  0  0  0
   -3.3570   14.4720   -3.5440 F   0  0  0  0  0  0  0  0  0  0  0  0
  2  1  1  6
  2  3  1  0
  2  4  1  0
  4  5  1  0
  3  6  1  0
  4  7  1  6
  5  8  1  6
  6  8  1  0
  5  9  1  0
  7 10  1  0
  9 11  1  6
 10 12  1  6
  9 13  1  0
 10 13  1  0
 11 14  1  1
 11 15  1  0
 13 16  1  6
M  CHG  1  14  -1
M  END
