ucsf357-ucsf333
     RDKit          3D

 19 20  0  0  0  0  0  0  0  0999 V2000
   -6.1740   15.1200   -2.1800 O   0  0  0  0  0  0  0  0  0  0  0  0
   -5.5050   15.4980   -1.1150 C   0  0  1  0  0  0  0  0  0  0  0  0
   -6.3030   14.9410   -0.0900 O   0  0  0  0  0  0  0  0  0  0  0  0
   -4.1190   14.8130   -1.1280 C   0  0  1  0  0  0  0  0  0  0  0  0
   -3.3410   15.2250   -2.4040 C   0  0  0  0  0  0  0  0  0  0  0  0
   -3.3410   15.0390    0.1980 C   0  0  0  0  0  0  0  0  0  0  0  0
   -1.9240   14.6650   -2.4130 C   0  0  2  0  0  0  0  0  0  0  0  0
   -1.9860   14.3310    0.2140 C   0  0  0  0  0  0  0  0  0  0  0  0
   -2.0720   13.4050   -2.8840 F   0  0  0  0  0  0  0  0  0  0  0  0
   -1.1740   14.6410   -1.0430 C   0  0  2  0  0  0  0  0  0  0  0  0
   -0.9450   15.1590   -3.3690 N   0  0  0  0  0  0  0  0  0  0  0  0
   -0.2070   15.6330   -0.7890 O   0  0  0  0  0  0  0  0  0  0  0  0
    0.3300   14.5200   -2.9710 C   0  0  1  0  0  0  0  0  0  0  0  0
    0.0620   13.4790   -1.4880 S   0  0  0  0  0  0  0  0  0  0  0  0
    1.0080   13.7720   -4.1130 C   0  0  0  0  0  0  0  0  0  0  0  0
    1.2230   12.2540   -3.8900 C   0  0  0  0  0  0  0  0  0  0  0  0
    0.3960   11.6230   -2.7140 C   0  0  2  0  0  0  0  0  0  0  0  0
    1.0310   11.7850   -1.5800 O   0  0  0  0  0  0  0  0  0  0  0  0
    0.4100   10.2060   -2.7430 O   0  0  0  0  0  0  0  0  0  0  0  0
  2  1  1  6
  2  3  1  0
  2  4  1  0
  4  5  1  6
  4  6  1  0
  5  7  1  0
  6  8  1  0
  7  9  1  6
  7 10  1  0
  8 10  1  0
  7 11  1  0
 10 12  1  1
 11 13  1  0
 10 14  1  0
 13 14  1  0
 13 15  1  6
 15 16  1  0
 16 17  1  0
 17 18  1  1
 17 19  1  0
M  CHG  2   1  -1  18  -1
M  END
