ucsf411-ucsf170
     RDKit          3D

 25 28  0  0  0  0  0  0  0  0999 V2000
    0.6560   10.4820   -2.1390 O   0  0  0  0  0  0  0  0  0  0  0  0
    0.2750   11.6510   -2.6400 C   0  0  1  0  0  0  0  0  0  0  0  0
    0.2690   12.6460   -1.6120 O   0  0  0  0  0  0  0  0  0  0  0  0
    1.2690   12.2810   -3.6510 C   0  0  0  0  0  0  0  0  0  0  0  0
    0.7980   13.6530   -3.7330 N   0  0  0  0  0  0  0  0  0  0  0  0
    0.3270   13.9110   -2.3480 C   0  0  1  0  0  0  0  0  0  0  0  0
    0.1040   14.0590   -4.9540 C   0  0  2  0  0  0  0  0  0  0  0  0
   -1.0070   14.6900   -2.0480 C   0  0  2  0  0  0  0  0  0  0  0  0
    0.0520   15.6050   -5.2040 C   0  0  1  0  0  0  0  0  0  0  0  0
   -1.2200   13.2710   -5.1500 C   0  0  0  0  0  0  0  0  0  0  0  0
   -1.3560   14.4850   -0.5590 C   0  0  0  0  0  0  0  0  0  0  0  0
   -2.2190   14.2850   -2.9260 C   0  0  2  0  0  0  0  0  0  0  0  0
   -1.8980   14.5920   -4.2650 O   0  0  0  0  0  0  0  0  0  0  0  0
   -1.3170   16.3190   -5.4210 C   0  0  1  0  0  0  0  0  0  0  0  0
   -2.4220   13.9820   -5.7850 C   0  0  0  0  0  0  0  0  0  0  0  0
    0.9390   16.4250   -4.2870 C   0  0  0  0  0  0  0  0  0  0  0  0
   -2.8590   14.6040   -0.2840 C   0  0  1  0  0  0  0  0  0  0  0  0
   -3.5260   15.0340   -2.6510 C   0  0  0  0  0  0  0  0  0  0  0  0
   -3.2230   15.1530    1.4240 S   0  0  0  0  0  0  0  0  0  0  0  0
   -2.6040   15.4850   -5.5370 C   0  0  0  0  0  0  0  0  0  0  0  0
   -1.5170   17.4610   -4.4850 C   0  0  0  0  0  0  0  0  0  0  0  0
    0.9550   17.8590   -4.7780 C   0  0  0  0  0  0  0  0  0  0  0  0
   -3.5360   15.5770   -1.2430 C   0  0  0  0  0  0  0  0  0  0  0  0
   -5.0090   14.8800    1.4640 C   0  0  0  0  0  0  0  0  0  0  0  0
   -0.3950   18.4580   -4.5600 C   0  0  0  0  0  0  0  0  0  0  0  0
  2  1  1  1
  2  3  1  0
  2  4  1  0
  4  5  1  0
  6  3  1  6
  5  6  1  0
  7  5  1  1
  6  8  1  0
  7  9  1  0
  7 10  1  0
  8 11  1  1
  8 12  1  0
 12 13  1  6
  9 14  1  0
 10 15  1  0
  9 16  1  1
 11 17  1  0
 12 18  1  0
 17 19  1  1
 14 20  1  1
 15 20  1  0
 14 21  1  0
 16 22  1  0
 17 23  1  0
 18 23  1  0
 19 24  1  0
 21 25  1  0
 22 25  1  0
M  CHG  1   1  -1
M  END
