ucsf412-ucsf516
     RDKit          3D

 25 29  0  0  0  0  0  0  0  0999 V2000
   -7.6420   13.7590   -0.4820 O   0  0  0  0  0  0  0  0  0  0  0  0
   -6.9740   14.8180    0.1480 C   0  0  1  0  0  0  0  0  0  0  0  0
   -6.7690   14.4570    1.5220 N   0  0  0  0  0  0  0  0  0  0  0  0
   -5.6340   15.1710   -0.5410 C   0  0  1  0  0  0  0  0  0  0  0  0
   -4.3450   14.7610    0.2940 C   0  0  1  0  0  0  0  0  0  0  0  0
   -5.9760   13.2400    1.5170 C   0  0  0  0  0  0  0  0  0  0  0  0
   -5.6070   14.7070   -1.9990 C   0  0  0  0  0  0  0  0  0  0  0  0
   -4.5130   13.4700    1.1110 C   0  0  0  0  0  0  0  0  0  0  0  0
   -2.9490   15.0880   -0.4680 C   0  0  1  0  0  0  0  0  0  0  0  0
   -4.2680   15.0260   -2.6050 C   0  0  0  0  0  0  0  0  0  0  0  0
   -3.4840   15.8790   -1.6330 C   0  0  0  0  0  0  0  0  0  0  0  0
   -2.1530   15.8860    0.5420 C   0  0  0  0  0  0  0  0  0  0  0  0
   -1.8510   14.1290   -1.1570 C   0  0  1  0  0  0  0  0  0  0  0  0
   -1.5900   14.5880   -2.5840 N   0  0  0  0  0  0  0  0  0  0  0  0
   -0.5280   14.2280   -0.4650 N   0  0  0  0  0  0  0  0  0  0  0  0
   -1.6050   14.9660    1.5130 N   0  0  0  0  0  0  0  0  0  0  0  0
   -0.2260   14.3990   -3.1600 C   0  0  1  0  0  0  0  0  0  0  0  0
   -2.3990   14.0530   -3.7080 C   0  0  0  0  0  0  0  0  0  0  0  0
   -0.4110   14.4050    0.9700 C   0  0  0  0  0  0  0  0  0  0  0  0
    0.0030   12.9080   -3.4160 C   0  0  0  0  0  0  0  0  0  0  0  0
   -0.3680   15.0400   -4.5410 C   0  0  0  0  0  0  0  0  0  0  0  0
   -1.7360   14.5400   -4.9890 C   0  0  0  0  0  0  0  0  0  0  0  0
    1.3540   12.2600   -3.0490 C   0  0  0  0  0  0  0  0  0  0  0  0
   -0.6120   11.9120   -2.4080 C   0  0  0  0  0  0  0  0  0  0  0  0
    0.4900   10.9800   -2.8760 C   0  0  0  0  0  0  0  0  0  0  0  0
  2  1  1  6
  2  3  1  0
  2  4  1  0
  4  5  1  0
  3  6  1  0
  4  7  1  6
  5  8  1  6
  6  8  1  0
  5  9  1  0
  7 10  1  0
  9 11  1  6
 10 11  1  0
  9 12  1  0
  9 13  1  0
 13 14  1  6
 13 15  1  0
 12 16  1  0
 14 17  1  0
 14 18  1  0
 15 19  1  0
 16 19  1  0
 17 20  1  6
 17 21  1  0
 18 22  1  0
 21 22  1  0
 20 23  1  0
 20 24  1  0
 23 25  1  0
 24 25  1  0
M  END
