ucsf353-ucsf149
     RDKit          3D

 16 17  0  0  0  0  0  0  0  0999 V2000
   16.4450    7.1890   10.5410 N   0  0  0  0  0  0  0  0  0  0  0  0
   15.7690    6.6190    9.3870 C   0  0  2  0  0  0  0  0  0  0  0  0
   14.7240    7.4230    9.2610 O   0  0  0  0  0  0  0  0  0  0  0  0
   15.1850    4.8910   10.0410 S   0  0  0  0  0  0  0  0  0  0  0  0
   14.2150    4.2010    8.7060 C   0  0  0  0  0  0  0  0  0  0  0  0
   15.9220    3.3270    9.3460 C   0  0  0  0  0  0  0  0  0  0  0  0
   14.8630    4.5210   11.8670 C   0  0  0  0  0  0  0  0  0  0  0  0
   13.7840    5.6920   10.8490 N   0  0  0  0  0  0  0  0  0  0  0  0
   13.9960    2.8330    8.4750 C   0  0  0  0  0  0  0  0  0  0  0  0
   15.9250    3.1090    7.9010 C   0  0  0  0  0  0  0  0  0  0  0  0
   14.3030    6.6250   11.6290 C   0  0  2  0  0  0  0  0  0  0  0  0
   15.1490    5.8820   12.4530 N   0  0  0  0  0  0  0  0  0  0  0  0
   13.5780    7.8110   12.2020 C   0  0  0  0  0  0  0  0  0  0  0  0
   14.9430    2.0830    7.6870 C   0  0  0  0  0  0  0  0  0  0  0  0
   14.6850    1.9160    6.3220 O   0  0  0  0  0  0  0  0  0  0  0  0
   13.7880    8.9640   11.4030 O   0  0  0  0  0  0  0  0  0  0  0  0
  2  1  1  1
  2  3  1  0
  2  4  1  0
  4  5  1  0
  4  6  1  0
  4  7  1  0
  4  8  1  0
  5  9  1  0
  6 10  1  0
  8 11  1  0
  7 12  1  0
 11 12  1  0
 11 13  1  1
  9 14  1  0
 10 14  1  0
 14 15  1  0
 13 16  1  0
M  END
