ucsf365-ucsf336
     RDKit          3D

 18 19  0  0  0  0  0  0  0  0999 V2000
    0.5060   10.6840   -2.3480 O   0  0  0  0  0  0  0  0  0  0  0  0
    0.4170   12.0180   -2.4640 C   0  0  1  0  0  0  0  0  0  0  0  0
    1.6110   12.5750   -1.9150 O   0  0  0  0  0  0  0  0  0  0  0  0
    0.4580   12.5450   -3.9900 C   0  0  2  0  0  0  0  0  0  0  0  0
    1.5820   13.2660   -4.1800 O   0  0  0  0  0  0  0  0  0  0  0  0
   -0.8200   13.4300   -4.3120 C   0  0  2  0  0  0  0  0  0  0  0  0
   -1.7850   12.7000   -5.2560 C   0  0  1  0  0  0  0  0  0  0  0  0
   -0.5750   14.8600   -4.8300 C   0  0  0  0  0  0  0  0  0  0  0  0
   -2.0290   11.3450   -4.8370 O   0  0  0  0  0  0  0  0  0  0  0  0
   -3.1510   13.3700   -5.2830 C   0  0  0  0  0  0  0  0  0  0  0  0
   -1.8960   15.6270   -5.0250 C   0  0  0  0  0  0  0  0  0  0  0  0
   -3.0610   14.8400   -5.6710 C   0  0  0  0  0  0  0  0  0  0  0  0
   -1.9310   10.5440   -5.9950 C   0  0  0  0  0  0  0  0  0  0  0  0
   -0.4750   10.2920   -6.3030 C   0  0  0  0  0  0  0  0  0  0  0  0
   -2.6970    9.2350   -5.8600 C   0  0  0  0  0  0  0  0  0  0  0  0
   -0.3590    9.6640   -7.6700 C   0  0  0  0  0  0  0  0  0  0  0  0
   -2.6160    8.4560   -7.1720 C   0  0  0  0  0  0  0  0  0  0  0  0
   -1.1960    8.3870   -7.7630 C   0  0  0  0  0  0  0  0  0  0  0  0
  2  1  1  6
  2  3  1  0
  2  4  1  0
  4  5  1  1
  4  6  1  0
  6  7  1  0
  6  8  1  6
  7  9  1  1
  7 10  1  0
  8 11  1  0
 10 12  1  0
 11 12  1  0
  9 13  1  0
 13 14  1  0
 13 15  1  0
 14 16  1  0
 15 17  1  0
 16 18  1  0
 17 18  1  0
M  CHG  2   1  -1   5  -1
M  END
