ucsf170-ucsf264
     RDKit          3D

 27 29  0  0  0  0  0  0  0  0999 V2000
   -4.5760   15.2970    1.1850 C   0  0  0  0  0  0  0  0  0  0  0  0
   -2.8200   14.9090    0.9580 S   0  0  0  0  0  0  0  0  0  0  0  0
   -2.5780   15.3710   -0.8200 C   0  0  1  0  0  0  0  0  0  0  0  0
   -1.2950   14.7360   -1.4020 C   0  0  0  0  0  0  0  0  0  0  0  0
   -3.7960   15.0780   -1.7000 C   0  0  0  0  0  0  0  0  0  0  0  0
   -1.4850   13.8560   -2.6830 C   0  0  2  0  0  0  0  0  0  0  0  0
   -3.5440   15.2820   -3.1980 C   0  0  0  0  0  0  0  0  0  0  0  0
   -0.1990   13.0890   -3.1800 C   0  0  2  0  0  0  0  0  0  0  0  0
   -2.3920   14.4610   -3.7610 C   0  0  1  0  0  0  0  0  0  0  0  0
   -1.6600   15.1870   -4.7380 O   0  0  0  0  0  0  0  0  0  0  0  0
    0.8280   13.3610   -2.2050 O   0  0  0  0  0  0  0  0  0  0  0  0
    0.4370   13.0960   -4.5430 N   0  0  0  0  0  0  0  0  0  0  0  0
    1.7910   12.7680   -4.2320 C   0  0  0  0  0  0  0  0  0  0  0  0
   -0.0900   12.3430   -5.7100 N   0  0  0  0  0  0  0  0  0  0  0  0
    1.7990   11.7900   -3.2200 O   0  0  0  0  0  0  0  0  0  0  0  0
    0.8960   12.1710   -6.8030 N   0  0  0  0  0  0  0  0  0  0  0  0
   -0.7930   11.0430   -5.5860 C   0  0  2  0  0  0  0  0  0  0  0  0
    0.8440   10.7900   -7.4050 C   0  0  1  0  0  0  0  0  0  0  0  0
   -0.3110   10.0890   -6.6930 C   0  0  2  0  0  0  0  0  0  0  0  0
   -2.2900   10.9110   -5.3130 C   0  0  0  0  0  0  0  0  0  0  0  0
    0.8760   10.4740   -8.9320 C   0  0  0  0  0  0  0  0  0  0  0  0
   -1.4520    9.6130   -7.5910 C   0  0  0  0  0  0  0  0  0  0  0  0
   -2.8200    9.4700   -5.4640 C   0  0  0  0  0  0  0  0  0  0  0  0
    1.3930    9.2350   -9.1220 F   0  0  0  0  0  0  0  0  0  0  0  0
   -0.3420   10.4730   -9.5080 F   0  0  0  0  0  0  0  0  0  0  0  0
    1.6090   11.2830   -9.7030 F   0  0  0  0  0  0  0  0  0  0  0  0
   -2.4860    8.8170   -6.8010 C   0  0  0  0  0  0  0  0  0  0  0  0
  1  2  1  0
  3  2  1  1
  3  4  1  0
  3  5  1  0
  6  4  1  1
  5  7  1  0
  6  8  1  0
  6  9  1  0
  7  9  1  0
  9 10  1  6
  8 11  1  1
  8 12  1  0
 12 13  1  0
 12 14  1  0
 13 15  1  0
 14 16  1  0
 14 17  1  0
 16 18  1  0
 17 19  1  0
 18 19  1  0
 17 20  1  6
 18 21  1  6
 19 22  1  6
 20 23  1  0
 21 24  1  0
 21 25  1  0
 21 26  1  0
 22 27  1  0
 23 27  1  0
M  END
