ucsf487-ucsf339
     RDKit          3D

 19 21  0  0  0  0  0  0  0  0999 V2000
   -6.9170   13.2520    2.2920 N   0  0  0  0  0  0  0  0  0  0  0  0
   -6.2570   14.1290    1.3010 C   0  0  2  0  0  0  0  0  0  0  0  0
   -7.1690   14.1660    0.2060 C   0  0  0  0  0  0  0  0  0  0  0  0
   -4.8610   13.7550    1.0250 C   0  0  0  0  0  0  0  0  0  0  0  0
   -4.0550   14.1490   -0.7750 S   0  0  0  0  0  0  0  0  0  0  0  0
   -6.6090   15.3750   -0.2160 N   0  0  0  0  0  0  0  0  0  0  0  0
   -5.3900   15.3120   -0.8410 C   0  0  2  0  0  0  0  0  0  0  0  0
   -4.4670   15.5550   -1.8340 C   0  0  0  0  0  0  0  0  0  0  0  0
   -2.1880   14.2700   -0.4990 C   0  0  0  0  0  0  0  0  0  0  0  0
   -2.9290   13.3910   -2.0170 C   0  0  0  0  0  0  0  0  0  0  0  0
   -6.1610   15.2020   -2.1860 C   0  0  0  0  0  0  0  0  0  0  0  0
   -4.3900   15.1720   -3.1510 C   0  0  0  0  0  0  0  0  0  0  0  0
   -1.2560   14.2850   -1.5880 C   0  0  2  0  0  0  0  0  0  0  0  0
   -2.5860   14.3240   -3.0730 N   0  0  0  0  0  0  0  0  0  0  0  0
    0.2500   14.3440   -1.3770 C   0  0  2  0  0  0  0  0  0  0  0  0
   -5.6050   14.6040   -3.4260 C   0  0  0  0  0  0  0  0  0  0  0  0
   -1.4850   15.0910   -2.8440 C   0  0  0  0  0  0  0  0  0  0  0  0
    0.9490   14.5080   -2.5970 O   0  0  0  0  0  0  0  0  0  0  0  0
    0.8290   13.2810   -0.7510 O   0  0  0  0  0  0  0  0  0  0  0  0
  2  1  1  1
  2  3  1  0
  2  4  1  0
  4  5  1  0
  3  6  1  0
  5  7  1  0
  6  7  1  0
  5  8  1  0
  5  9  1  0
  5 10  1  0
  7 11  1  6
  8 12  1  0
 13  9  1  1
 10 14  1  0
 13 15  1  0
 11 16  1  0
 12 16  1  0
 13 17  1  0
 14 17  1  0
 15 18  1  6
 15 19  1  0
M  CHG  1  18  -1
M  END
