ucsf278-ucsf135
     RDKit          3D

 24 27  0  0  0  0  0  0  0  0999 V2000
   -0.4520   14.0350   -0.3460 Cl  0  0  0  0  0  0  0  0  0  0  0  0
    0.1540   14.7500   -1.8690 C   0  0  2  0  0  0  0  0  0  0  0  0
   -0.9400   14.6430   -2.9310 C   0  0  2  0  0  0  0  0  0  0  0  0
    1.4670   14.0990   -2.3170 C   0  0  0  0  0  0  0  0  0  0  0  0
   -1.4010   13.2490   -3.3520 C   0  0  0  0  0  0  0  0  0  0  0  0
   -0.5040   15.2680   -4.2510 C   0  0  2  0  0  0  0  0  0  0  0  0
    1.9710   14.6760   -3.6440 C   0  0  0  0  0  0  0  0  0  0  0  0
   -1.5890   13.3870   -4.8780 C   0  0  2  0  0  0  0  0  0  0  0  0
   -1.6090   14.8550   -5.1090 N   0  0  0  0  0  0  0  0  0  0  0  0
    0.8910   14.8170   -4.7410 C   0  0  0  0  0  0  0  0  0  0  0  0
   -2.7680   12.6510   -5.5890 C   0  0  2  0  0  0  0  0  0  0  0  0
   -3.4660   11.8240   -4.6520 O   0  0  0  0  0  0  0  0  0  0  0  0
   -2.1860   11.8550   -6.7800 C   0  0  1  0  0  0  0  0  0  0  0  0
   -1.4640   10.5710   -6.4420 C   0  0  2  0  0  0  0  0  0  0  0  0
   -3.0320   11.5490   -8.0100 C   0  0  0  0  0  0  0  0  0  0  0  0
   -0.5920   10.5480   -4.8970 S   0  0  0  0  0  0  0  0  0  0  0  0
   -0.2370   10.5130   -7.3520 C   0  0  2  0  0  0  0  0  0  0  0  0
   -2.2010   10.7530   -9.0360 C   0  0  0  0  0  0  0  0  0  0  0  0
   -1.5720   11.0010   -3.7310 O   0  0  0  0  0  0  0  0  0  0  0  0
   -0.1650    9.0400   -4.6820 O   0  0  0  0  0  0  0  0  0  0  0  0
    0.6970   11.6430   -6.7890 C   0  0  1  0  0  0  0  0  0  0  0  0
    0.6160   11.5990   -5.3200 N   0  0  0  0  0  0  0  0  0  0  0  0
   -0.6680   10.7350   -8.8090 C   0  0  0  0  0  0  0  0  0  0  0  0
    2.0230   11.4960   -7.2200 O   0  0  0  0  0  0  0  0  0  0  0  0
  2  1  1  1
  2  3  1  0
  2  4  1  0
  3  5  1  6
  3  6  1  0
  4  7  1  0
  8  5  1  1
  6  9  1  0
  8  9  1  0
  6 10  1  6
  7 10  1  0
  8 11  1  0
 11 12  1  1
 11 13  1  0
 13 14  1  0
 13 15  1  6
 14 16  1  1
 14 17  1  0
 15 18  1  0
 16 19  1  0
 16 20  1  0
 17 21  1  0
 16 22  1  0
 21 22  1  0
 17 23  1  6
 18 23  1  0
 21 24  1  1
M  END
