ucsf424-ucsf124
     RDKit          3D

 14 15  0  0  0  0  0  0  0  0999 V2000
    1.1340   12.1320   -2.1710 O   0  0  0  0  0  0  0  0  0  0  0  0
    0.4990   11.6720   -3.2280 C   0  0  1  0  0  0  0  0  0  0  0  0
   -0.8380   11.9380   -2.8900 O   0  0  0  0  0  0  0  0  0  0  0  0
    0.9020   12.5070   -4.4760 C   0  0  0  0  0  0  0  0  0  0  0  0
    0.2400   12.1170   -5.8240 C   0  0  1  0  0  0  0  0  0  0  0  0
    1.2980   11.6710   -6.7960 N   0  0  0  0  0  0  0  0  0  0  0  0
   -0.8520   11.0230   -5.9540 C   0  0  1  0  0  0  0  0  0  0  0  0
   -2.1070   11.7700   -5.8420 O   0  0  0  0  0  0  0  0  0  0  0  0
    0.7350   10.6130   -7.6410 O   0  0  0  0  0  0  0  0  0  0  0  0
   -0.6670   10.5310   -7.3850 C   0  0  1  0  0  0  0  0  0  0  0  0
   -1.1080    9.8570   -5.0180 C   0  0  0  0  0  0  0  0  0  0  0  0
   -1.1060    9.0970   -7.6460 C   0  0  0  0  0  0  0  0  0  0  0  0
   -2.3260    9.0210   -5.4220 C   0  0  0  0  0  0  0  0  0  0  0  0
   -2.4010    8.7560   -6.9290 C   0  0  0  0  0  0  0  0  0  0  0  0
  2  1  1  1
  2  3  1  0
  2  4  1  0
  5  4  1  1
  5  6  1  0
  5  7  1  0
  7  8  1  6
  6  9  1  0
  7 10  1  0
  9 10  1  0
  7 11  1  0
 10 12  1  1
 11 13  1  0
 12 14  1  0
 13 14  1  0
M  CHG  1   1  -1
M  END
