ucsf378-ucsf278
     RDKit          3D

 18 19  0  0  0  0  0  0  0  0999 V2000
   -2.1390   14.9910   -5.4130 Cl  0  0  0  0  0  0  0  0  0  0  0  0
   -0.4850   14.7800   -4.9300 C   0  0  2  0  0  0  0  0  0  0  0  0
   -0.0220   13.1180   -4.5470 S   0  0  0  0  0  0  0  0  0  0  0  0
   -0.5310   15.7450   -3.8030 C   0  0  1  0  0  0  0  0  0  0  0  0
    0.8050   11.6970   -3.6040 C   0  0  0  0  0  0  0  0  0  0  0  0
   -0.3730   14.9320   -2.1980 Cl  0  0  0  0  0  0  0  0  0  0  0  0
    1.3450   14.1830   -4.2060 C   0  0  2  0  0  0  0  0  0  0  0  0
    0.7380   16.5830   -4.0190 C   0  0  0  0  0  0  0  0  0  0  0  0
   -1.8570   12.5260   -4.5990 C   0  0  0  0  0  0  0  0  0  0  0  0
   -0.7170   12.2660   -5.7830 N   0  0  0  0  0  0  0  0  0  0  0  0
    2.8360   13.0910   -4.0390 Cl  0  0  0  0  0  0  0  0  0  0  0  0
   -0.0000   11.3360   -2.4290 C   0  0  2  0  0  0  0  0  0  0  0  0
    1.5130   15.4160   -3.6390 C   0  0  0  0  0  0  0  0  0  0  0  0
   -1.2230   11.2090   -5.2080 C   0  0  2  0  0  0  0  0  0  0  0  0
    0.3720   11.9990   -1.2620 O   0  0  0  0  0  0  0  0  0  0  0  0
    0.4350   10.0110   -2.1790 O   0  0  0  0  0  0  0  0  0  0  0  0
   -2.2450   10.5470   -6.1050 C   0  0  0  0  0  0  0  0  0  0  0  0
   -3.1630    9.8890   -5.3700 O   0  0  0  0  0  0  0  0  0  0  0  0
  2  1  1  1
  2  3  1  0
  2  4  1  0
  3  5  1  0
  4  6  1  1
  3  7  1  0
  4  8  1  0
  3  9  1  0
  3 10  1  0
  7 11  1  1
  5 12  1  0
  7 13  1  0
  8 13  1  0
  9 14  1  0
 10 14  1  0
 12 15  1  1
 12 16  1  0
 14 17  1  6
 17 18  1  0
M  CHG  1  15  -1
M  END
