ucsf260-ucsf403
     RDKit          3D

 16 17  0  0  0  0  0  0  0  0999 V2000
    0.8010   11.1350   -2.8570 O   0  0  0  0  0  0  0  0  0  0  0  0
    0.7940   12.4300   -3.0710 C   0  0  1  0  0  0  0  0  0  0  0  0
    1.5310   12.8760   -1.9620 O   0  0  0  0  0  0  0  0  0  0  0  0
    1.5570   12.8350   -4.3650 C   0  0  0  0  0  0  0  0  0  0  0  0
    0.8080   12.4040   -5.6450 C   0  0  0  0  0  0  0  0  0  0  0  0
   -0.0020   11.1720   -5.5130 N   0  0  0  0  0  0  0  0  0  0  0  0
   -1.3110   11.3660   -4.8780 C   0  0  1  0  0  0  0  0  0  0  0  0
   -0.2390   10.3990   -6.7620 C   0  0  1  0  0  0  0  0  0  0  0  0
    0.7760    8.9760   -7.2490 Cl  0  0  0  0  0  0  0  0  0  0  0  0
   -1.7700   13.0750   -4.8310 Cl  0  0  0  0  0  0  0  0  0  0  0  0
   -2.3300   10.7960   -5.7590 N   0  0  0  0  0  0  0  0  0  0  0  0
   -1.5730    9.7530   -6.4500 C   0  0  1  0  0  0  0  0  0  0  0  0
   -0.2510   11.1610   -8.0510 C   0  0  0  0  0  0  0  0  0  0  0  0
   -2.2360    9.2710   -7.7450 C   0  0  0  0  0  0  0  0  0  0  0  0
   -0.3090   10.1640   -9.1960 C   0  0  0  0  0  0  0  0  0  0  0  0
   -1.2100    8.9640   -8.8490 C   0  0  0  0  0  0  0  0  0  0  0  0
  2  1  1  1
  2  3  1  0
  2  4  1  0
  4  5  1  0
  5  6  1  0
  6  7  1  0
  6  8  1  0
  8  9  1  6
  7 10  1  6
  7 11  1  0
  8 12  1  0
 11 12  1  0
  8 13  1  0
 12 14  1  6
 13 15  1  0
 14 16  1  0
 15 16  1  0
M  CHG  1   1  -1
M  END
