ucsf387-ucsf487
     RDKit          3D

 25 27  0  0  0  0  0  0  0  0999 V2000
    0.9740   18.1430   -4.4030 Cl  0  0  0  0  0  0  0  0  0  0  0  0
    0.4210   16.5870   -5.0530 C   0  0  2  0  0  0  0  0  0  0  0  0
   -1.1220   16.6730   -5.0120 C   0  0  0  0  0  0  0  0  0  0  0  0
    1.1260   15.4230   -4.3220 C   0  0  0  0  0  0  0  0  0  0  0  0
    0.1680   14.2890   -3.8970 C   0  0  2  0  0  0  0  0  0  0  0  0
   -1.8880   15.3810   -4.6970 C   0  0  1  0  0  0  0  0  0  0  0  0
   -3.2110   15.3110   -5.4820 C   0  0  0  0  0  0  0  0  0  0  0  0
    0.8530   12.9190   -3.5770 C   0  0  0  0  0  0  0  0  0  0  0  0
   -0.9810   14.1780   -4.8910 C   0  0  0  0  0  0  0  0  0  0  0  0
    0.1390   12.0520   -2.4850 C   0  0  1  0  0  0  0  0  0  0  0  0
   -4.2550   14.4140   -4.8070 C   0  0  0  0  0  0  0  0  0  0  0  0
    0.5540   10.7980   -2.3960 O   0  0  0  0  0  0  0  0  0  0  0  0
    0.4360   12.5620   -1.2110 O   0  0  0  0  0  0  0  0  0  0  0  0
   -3.9620   14.1200   -3.3250 C   0  0  0  0  0  0  0  0  0  0  0  0
   -4.0690   15.3340   -2.3750 C   0  0  1  0  0  0  0  0  0  0  0  0
   -5.5360   15.5430   -1.9340 C   0  0  0  0  0  0  0  0  0  0  0  0
   -3.1170   15.2600   -1.1700 C   0  0  0  0  0  0  0  0  0  0  0  0
   -6.0210   14.4810   -0.9720 C   0  0  1  0  0  0  0  0  0  0  0  0
   -3.8790   15.3610    0.1490 C   0  0  0  0  0  0  0  0  0  0  0  0
   -5.0540   14.3590    0.2350 C   0  0  1  0  0  0  0  0  0  0  0  0
   -7.4380   14.6460   -0.6500 N   0  0  0  0  0  0  0  0  0  0  0  0
   -5.6710   14.4200    1.6480 C   0  0  0  0  0  0  0  0  0  0  0  0
   -7.8540   13.8720    0.5040 C   0  0  0  0  0  0  0  0  0  0  0  0
   -7.2070   14.4380    1.7690 C   0  0  1  0  0  0  0  0  0  0  0  0
   -7.6610   13.6820    2.9360 N   0  0  0  0  0  0  0  0  0  0  0  0
  2  1  1  1
  2  3  1  0
  2  4  1  0
  4  5  1  0
  3  6  1  0
  6  7  1  6
  5  8  1  6
  5  9  1  0
  6  9  1  0
  8 10  1  0
  7 11  1  0
 10 12  1  1
 10 13  1  0
 11 14  1  0
 15 14  1  1
 15 16  1  0
 15 17  1  0
 18 16  1  1
 17 19  1  0
 18 20  1  0
 20 19  1  1
 18 21  1  0
 20 22  1  0
 21 23  1  0
 22 24  1  0
 23 24  1  0
 24 25  1  1
M  CHG  1  12  -1
M  END
