ucsf357-ucsf303
     RDKit          3D

 22 25  0  0  0  0  0  0  0  0999 V2000
   -4.4330   13.4260   -2.9250 O   0  0  0  0  0  0  0  0  0  0  0  0
   -4.8620   14.3420   -1.9240 C   0  0  2  0  0  0  0  0  0  0  0  0
   -6.0240   15.0380   -2.4070 O   0  0  0  0  0  0  0  0  0  0  0  0
   -2.8500   13.1520   -2.9580 S   0  0  1  0  0  0  0  0  0  0  0  0
   -2.4930   14.4720   -3.7740 O   0  0  0  0  0  0  0  0  0  0  0  0
   -3.7290   15.4540   -1.7880 C   0  0  2  0  0  0  0  0  0  0  0  0
   -2.1910   13.6600   -1.3520 C   0  0  0  0  0  0  0  0  0  0  0  0
   -5.2940   13.3170   -0.7950 C   0  0  1  0  0  0  0  0  0  0  0  0
   -2.6440   15.5910   -2.9240 C   0  0  1  0  0  0  0  0  0  0  0  0
   -2.9770   15.6520   -0.4600 C   0  0  0  0  0  0  0  0  0  0  0  0
   -0.8150   13.0790   -1.1030 C   0  0  0  0  0  0  0  0  0  0  0  0
   -3.1160   13.4920   -0.1290 C   0  0  0  0  0  0  0  0  0  0  0  0
   -6.7530   13.0610   -0.6370 N   0  0  0  0  0  0  0  0  0  0  0  0
   -4.5820   11.6760   -1.2990 S   0  0  0  0  0  0  0  0  0  0  0  0
   -1.2790   15.8630   -2.2830 C   0  0  1  0  0  0  0  0  0  0  0  0
   -1.4740   15.8170   -0.7670 C   0  0  0  0  0  0  0  0  0  0  0  0
   -0.1270   13.8040    0.0540 C   0  0  0  0  0  0  0  0  0  0  0  0
   -2.5390   14.1080    1.1590 C   0  0  0  0  0  0  0  0  0  0  0  0
   -6.1890   10.9050   -1.3440 C   0  0  0  0  0  0  0  0  0  0  0  0
   -6.9740   11.6370   -0.3670 N   0  0  0  0  0  0  0  0  0  0  0  0
   -0.3460   14.8550   -2.6540 O   0  0  0  0  0  0  0  0  0  0  0  0
   -1.0000   14.1510    1.2760 C   0  0  0  0  0  0  0  0  0  0  0  0
  2  1  1  0
  2  3  1  6
  1  4  1  0
  4  5  1  0
  2  6  1  0
  4  7  1  1
  2  8  1  0
  9  5  1  1
  6  9  1  0
  6 10  1  1
  7 11  1  0
  7 12  1  0
  8 13  1  6
  8 14  1  0
  9 15  1  0
 10 16  1  0
 15 16  1  0
 11 17  1  0
 12 18  1  0
 14 19  1  0
 13 20  1  0
 19 20  1  0
 15 21  1  6
 17 22  1  0
 18 22  1  0
M  END
