ucsf519-ucsf013
     RDKit          3D

 21 22  0  0  0  0  0  0  0  0999 V2000
    0.0130   16.3310   -4.4130 C   0  0  0  0  0  0  0  0  0  0  0  0
   -0.6560   15.1450   -3.7140 C   0  0  2  0  0  0  0  0  0  0  0  0
   -0.4070   13.6570   -4.8220 S   0  0  0  0  0  0  0  0  0  0  0  0
   -2.1830   15.4500   -3.4150 C   0  0  1  0  0  0  0  0  0  0  0  0
   -0.5040   12.2240   -3.6590 C   0  0  0  0  0  0  0  0  0  0  0  0
   -2.9900   15.0610   -4.5290 O   0  0  0  0  0  0  0  0  0  0  0  0
   -2.7460   14.9020   -2.1750 N   0  0  0  0  0  0  0  0  0  0  0  0
    0.7750   11.7160   -2.9480 C   0  0  1  0  0  0  0  0  0  0  0  0
   -3.6240   15.6890   -1.2820 C   0  0  0  0  0  0  0  0  0  0  0  0
   -1.8900   14.2450   -1.2460 C   0  0  1  0  0  0  0  0  0  0  0  0
    1.1410   12.6360   -1.9370 O   0  0  0  0  0  0  0  0  0  0  0  0
    0.5120   10.6240   -2.2210 O   0  0  0  0  0  0  0  0  0  0  0  0
   -1.0130   15.1200   -0.5780 O   0  0  0  0  0  0  0  0  0  0  0  0
   -4.1250   14.5160   -0.4200 C   0  0  1  0  0  0  0  0  0  0  0  0
   -2.8550   13.7210   -0.2850 N   0  0  0  0  0  0  0  0  0  0  0  0
   -4.7340   14.7050    1.0220 C   0  0  1  0  0  0  0  0  0  0  0  0
   -5.2270   13.7840   -1.2230 C   0  0  0  0  0  0  0  0  0  0  0  0
   -4.0840   15.6150    1.9280 N   0  0  0  0  0  0  0  0  0  0  0  0
   -6.5620   14.4140   -1.0470 N   0  0  0  0  0  0  0  0  0  0  0  0
   -6.1640   14.9230    1.1950 N   0  0  0  0  0  0  0  0  0  0  0  0
   -7.0370   14.2120    0.2990 C   0  0  0  0  0  0  0  0  0  0  0  0
  2  1  1  6
  2  3  1  0
  2  4  1  0
  3  5  1  0
  4  6  1  6
  4  7  1  0
  5  8  1  0
  7  9  1  0
  7 10  1  0
  8 11  1  1
  8 12  1  0
 10 13  1  1
 14  9  1  6
 10 15  1  0
 14 15  1  0
 14 16  1  0
 14 17  1  0
 16 18  1  6
 17 19  1  0
 16 20  1  0
 19 21  1  0
 20 21  1  0
M  CHG  1  12  -1
M  END
