ucsf004-ucsf519
     RDKit          3D

 26 28  0  0  0  0  0  0  0  0999 V2000
   -1.1130   13.4890   -6.0250 F   0  0  0  0  0  0  0  0  0  0  0  0
   -0.2950   13.6320   -4.9520 C   0  0  1  0  0  0  0  0  0  0  0  0
    1.0410   14.1760   -5.3670 C   0  0  0  0  0  0  0  0  0  0  0  0
   -0.8930   14.5720   -3.9030 C   0  0  0  0  0  0  0  0  0  0  0  0
   -0.0600   14.5260   -2.7050 N   0  0  0  0  0  0  0  0  0  0  0  0
    1.9340   14.3420   -4.1440 C   0  0  0  0  0  0  0  0  0  0  0  0
    1.2530   15.0760   -2.9890 C   0  0  0  0  0  0  0  0  0  0  0  0
   -0.7470   14.9410   -1.4750 C   0  0  2  0  0  0  0  0  0  0  0  0
    0.2440   14.7810   -0.4530 N   0  0  0  0  0  0  0  0  0  0  0  0
   -2.0810   14.2550   -1.1290 C   0  0  1  0  0  0  0  0  0  0  0  0
   -0.1940   15.2120    0.8300 C   0  0  0  0  0  0  0  0  0  0  0  0
   -2.3720   14.1580    0.3850 C   0  0  1  0  0  0  0  0  0  0  0  0
   -3.2770   15.0350   -1.6840 C   0  0  1  0  0  0  0  0  0  0  0  0
   -3.7440   14.5680   -3.0730 C   0  0  1  0  0  0  0  0  0  0  0  0
   -1.2550   14.3490    1.3180 N   0  0  0  0  0  0  0  0  0  0  0  0
   -3.4230   15.1290    0.6760 N   0  0  0  0  0  0  0  0  0  0  0  0
   -4.2820   15.0510   -0.5260 C   0  0  0  0  0  0  0  0  0  0  0  0
   -2.6380   14.1780   -4.1100 C   0  0  2  0  0  0  0  0  0  0  0  0
   -4.6110   13.4390   -2.8690 O   0  0  0  0  0  0  0  0  0  0  0  0
   -2.7270   16.3830    0.5340 O   0  0  0  0  0  0  0  0  0  0  0  0
   -2.9080   14.7900   -5.4830 C   0  0  0  0  0  0  0  0  0  0  0  0
   -2.4840   12.2960   -4.1710 S   0  0  0  0  0  0  0  0  0  0  0  0
   -0.7590   11.8070   -3.5920 C   0  0  0  0  0  0  0  0  0  0  0  0
   -0.6480   11.1710   -2.1780 C   0  0  2  0  0  0  0  0  0  0  0  0
   -0.0770   12.0830   -1.2640 O   0  0  0  0  0  0  0  0  0  0  0  0
    0.2840   10.2400   -2.1190 O   0  0  0  0  0  0  0  0  0  0  0  0
  2  1  1  6
  2  3  1  0
  2  4  1  0
  4  5  1  0
  3  6  1  0
  5  7  1  0
  6  7  1  0
  8  5  1  6
  8  9  1  0
 10  8  1  1
  9 11  1  0
 10 12  1  0
 10 13  1  0
 13 14  1  0
 11 15  1  0
 12 15  1  1
 12 16  1  0
 13 17  1  1
 16 17  1  0
 14 18  1  0
 14 19  1  1
 16 20  1  0
 18 21  1  6
 18 22  1  0
 22 23  1  0
 23 24  1  0
 24 25  1  1
 24 26  1  0
M  CHG  1  26  -1
M  END
