ucsf138-ucsf278
     RDKit          3D

 26 28  0  0  0  0  0  0  0  0999 V2000
    1.0050   12.3160   -2.4630 O   0  0  0  0  0  0  0  0  0  0  0  0
    1.2080   11.2640   -3.2400 C   0  0  1  0  0  0  0  0  0  0  0  0
    0.6710   10.1960   -2.4750 O   0  0  0  0  0  0  0  0  0  0  0  0
    0.5090   11.2620   -4.6500 C   0  0  2  0  0  0  0  0  0  0  0  0
    1.1540   10.5960   -5.7590 N   0  0  0  0  0  0  0  0  0  0  0  0
   -0.1300   12.3760   -5.2240 N   0  0  0  0  0  0  0  0  0  0  0  0
    0.9550   11.3560   -6.9400 C   0  0  1  0  0  0  0  0  0  0  0  0
   -1.5720   12.2520   -5.1480 C   0  0  2  0  0  0  0  0  0  0  0  0
    0.2620   13.6330   -4.6130 C   0  0  1  0  0  0  0  0  0  0  0  0
    1.8780   12.3810   -6.6810 O   0  0  0  0  0  0  0  0  0  0  0  0
    1.3870   10.7400   -8.1270 N   0  0  0  0  0  0  0  0  0  0  0  0
   -2.4760   11.9240   -6.3320 C   0  0  0  0  0  0  0  0  0  0  0  0
   -1.9490   13.4480   -4.2500 C   0  0  0  0  0  0  0  0  0  0  0  0
   -0.6720   13.4220   -3.4540 C   0  0  2  0  0  0  0  0  0  0  0  0
    1.7120   13.8910   -4.1670 C   0  0  0  0  0  0  0  0  0  0  0  0
   -2.9680   10.5730   -6.2100 O   0  0  0  0  0  0  0  0  0  0  0  0
    0.6540    9.6970   -8.8060 C   0  0  0  0  0  0  0  0  0  0  0  0
   -0.3710   14.2060   -2.2020 C   0  0  2  0  0  0  0  0  0  0  0  0
    1.8390   15.0220   -3.1390 C   0  0  0  0  0  0  0  0  0  0  0  0
   -1.8010   14.6070   -1.2150 Cl  0  0  0  0  0  0  0  0  0  0  0  0
    0.3990   10.2120  -10.2480 C   0  0  0  0  0  0  0  0  0  0  0  0
    1.3710    8.3410   -8.8220 C   0  0  0  0  0  0  0  0  0  0  0  0
    0.5070   15.4070   -2.4960 C   0  0  0  0  0  0  0  0  0  0  0  0
    0.2240    9.1320  -11.3200 C   0  0  0  0  0  0  0  0  0  0  0  0
    2.1750    8.0690  -10.0920 C   0  0  0  0  0  0  0  0  0  0  0  0
    1.3380    8.0940  -11.3620 C   0  0  0  0  0  0  0  0  0  0  0  0
  2  1  1  1
  2  3  1  0
  2  4  1  0
  4  5  1  6
  4  6  1  0
  5  7  1  0
  6  8  1  0
  6  9  1  0
  7 10  1  1
  7 11  1  0
  8 12  1  6
  8 13  1  0
  9 14  1  0
 14 13  1  6
  9 15  1  1
 12 16  1  0
 11 17  1  0
 14 18  1  0
 15 19  1  0
 18 20  1  6
 17 21  1  0
 17 22  1  0
 18 23  1  0
 19 23  1  0
 21 24  1  0
 22 25  1  0
 24 26  1  0
 25 26  1  0
M  CHG  1   1  -1
M  END
