ucsf170
     RDKit          3D

 12 12  0  0  0  0  0  0  0  0999 V2000
   -5.1300   15.1040    1.2500 C   0  0  0  0  0  0  0  0  0  0  0  0
   -3.3200   15.1740    1.1090 S   0  0  0  0  0  0  0  0  0  0  0  0
   -2.8420   15.0010   -0.6350 C   0  0  0  0  0  0  0  0  0  0  0  0
   -3.7860   15.1780   -1.6340 C   0  0  0  0  0  0  0  0  0  0  0  0
   -3.4210   15.0470   -2.9640 C   0  0  0  0  0  0  0  0  0  0  0  0
   -2.1130   14.7370   -3.2950 C   0  0  0  0  0  0  0  0  0  0  0  0
   -1.7440   14.6040   -4.6400 O   0  0  0  0  0  0  0  0  0  0  0  0
   -1.1690   14.5590   -2.2970 C   0  0  0  0  0  0  0  0  0  0  0  0
   -1.5330   14.6910   -0.9670 C   0  0  0  0  0  0  0  0  0  0  0  0
    0.2740   14.2180   -2.6640 C   0  0  0  0  0  0  0  0  0  0  0  0
    1.1110   13.9670   -1.7580 O   0  0  0  0  0  0  0  0  0  0  0  0
    0.6260   14.1900   -3.8720 O   0  0  0  0  0  0  0  0  0  0  0  0
  1  2  1  0
  2  3  1  0
  3  4  1  0
  4  5  1  0
  5  6  1  0
  6  7  1  0
  6  8  1  0
  3  9  1  0
  8  9  1  0
  8 10  1  0
 10 11  1  0
 10 12  1  0
M  CHG  1  12  -1
M  END
