ucsf213-ucsf380
     RDKit          3D

 28 31  0  0  0  0  0  0  0  0999 V2000
    0.7570   10.7660   -2.4490 O   0  0  0  0  0  0  0  0  0  0  0  0
    1.1080   12.0760   -2.3500 C   0  0  2  0  0  0  0  0  0  0  0  0
    0.1500   12.6270   -1.4180 O   0  0  0  0  0  0  0  0  0  0  0  0
    1.2270   12.5980   -3.8740 C   0  0  0  0  0  0  0  0  0  0  0  0
   -0.2160   14.0060   -1.4140 C   0  0  1  0  0  0  0  0  0  0  0  0
    0.7630   13.9200   -4.6080 C   0  0  2  0  0  0  0  0  0  0  0  0
    0.7350   14.7420   -1.9860 O   0  0  0  0  0  0  0  0  0  0  0  0
   -1.5830   14.1790   -2.2610 C   0  0  0  0  0  0  0  0  0  0  0  0
    1.1610   15.3450   -4.1590 C   0  0  0  0  0  0  0  0  0  0  0  0
   -0.9580   14.0770   -5.2550 S   0  0  0  0  0  0  0  0  0  0  0  0
    0.2990   16.2900   -5.0010 C   0  0  1  0  0  0  0  0  0  0  0  0
   -1.1120   15.7890   -4.7490 C   0  0  1  0  0  0  0  0  0  0  0  0
   -2.7780   14.4660   -1.2830 C   0  0  0  0  0  0  0  0  0  0  0  0
   -1.9410   13.0400   -3.3170 C   0  0  0  0  0  0  0  0  0  0  0  0
    0.4530   17.7930   -4.7560 C   0  0  0  0  0  0  0  0  0  0  0  0
   -2.2510   16.5750   -5.3840 C   0  0  0  0  0  0  0  0  0  0  0  0
   -2.4060   14.8260    0.1820 C   0  0  0  0  0  0  0  0  0  0  0  0
   -3.8590   15.3360   -1.9610 C   0  0  0  0  0  0  0  0  0  0  0  0
   -3.0520   12.0610   -2.8650 C   0  0  0  0  0  0  0  0  0  0  0  0
   -0.8030   12.1460   -3.8270 C   0  0  0  0  0  0  0  0  0  0  0  0
   -0.7600   18.6180   -5.2210 C   0  0  0  0  0  0  0  0  0  0  0  0
   -1.7770   17.8650   -6.0520 C   0  0  0  0  0  0  0  0  0  0  0  0
   -3.5220   15.5370    0.9360 C   0  0  0  0  0  0  0  0  0  0  0  0
   -5.0480   15.6320   -1.0590 C   0  0  0  0  0  0  0  0  0  0  0  0
   -3.2510   10.9040   -3.8490 C   0  0  0  0  0  0  0  0  0  0  0  0
   -1.1420   11.4740   -5.1500 C   0  0  0  0  0  0  0  0  0  0  0  0
   -4.8610   15.1410    0.3630 C   0  0  0  0  0  0  0  0  0  0  0  0
   -2.6340   11.1830   -5.2200 C   0  0  0  0  0  0  0  0  0  0  0  0
  2  1  1  6
  2  3  1  0
  2  4  1  0
  3  5  1  0
  6  4  1  1
  5  7  1  6
  5  8  1  0
  6  9  1  0
  6 10  1  0
 11  9  1  1
 10 12  1  0
 11 12  1  0
  8 13  1  0
  8 14  1  0
 11 15  1  0
 12 16  1  6
 13 17  1  0
 13 18  1  0
 14 19  1  0
 14 20  1  0
 15 21  1  0
 16 22  1  0
 21 22  1  0
 17 23  1  0
 18 24  1  0
 19 25  1  0
 20 26  1  0
 23 27  1  0
 24 27  1  0
 25 28  1  0
 26 28  1  0
M  CHG  2   1  -1   7  -1
M  END
