ucsf442-ucsf422
     RDKit          3D

 27 30  0  0  0  0  0  0  0  0999 V2000
   -0.4390   14.2230    0.3310 O   0  0  0  0  0  0  0  0  0  0  0  0
   -1.1980   15.4010    0.2870 C   0  0  1  0  0  0  0  0  0  0  0  0
   -1.6960   15.6250   -1.0270 N   0  0  0  0  0  0  0  0  0  0  0  0
   -2.2220   15.4230    1.2700 N   0  0  0  0  0  0  0  0  0  0  0  0
   -3.3610   14.5900    1.0350 C   0  0  2  0  0  0  0  0  0  0  0  0
   -2.7710   14.7490   -1.4810 C   0  0  2  0  0  0  0  0  0  0  0  0
   -3.5490   15.5060   -2.4140 O   0  0  0  0  0  0  0  0  0  0  0  0
   -3.6860   14.1190   -0.3930 C   0  0  2  0  0  0  0  0  0  0  0  0
   -4.5630   15.2660    1.5020 N   0  0  0  0  0  0  0  0  0  0  0  0
   -4.6310   14.8280   -3.0540 C   0  0  0  0  0  0  0  0  0  0  0  0
   -5.1590   14.1530   -0.4910 N   0  0  0  0  0  0  0  0  0  0  0  0
   -5.5250   15.2100    0.4180 C   0  0  0  0  0  0  0  0  0  0  0  0
   -4.5820   14.7120   -4.5990 C   0  0  0  0  0  0  0  0  0  0  0  0
   -3.8870   15.7250   -5.3380 O   0  0  0  0  0  0  0  0  0  0  0  0
   -2.5850   16.0330   -4.8390 C   0  0  2  0  0  0  0  0  0  0  0  0
   -1.9650   17.2220   -5.5820 C   0  0  0  0  0  0  0  0  0  0  0  0
   -1.7330   14.7750   -4.9660 C   0  0  0  0  0  0  0  0  0  0  0  0
   -0.3600   14.9420   -4.3490 C   0  0  1  0  0  0  0  0  0  0  0  0
   -0.4280   17.3040   -5.4710 C   0  0  0  0  0  0  0  0  0  0  0  0
    0.7940   14.0980   -4.8740 C   0  0  2  0  0  0  0  0  0  0  0  0
    0.1730   16.3940   -4.4000 C   0  0  2  0  0  0  0  0  0  0  0  0
    0.8590   12.6030   -4.5010 C   0  0  0  0  0  0  0  0  0  0  0  0
    1.9030   14.8590   -4.1710 C   0  0  0  0  0  0  0  0  0  0  0  0
    1.6300   16.2700   -4.4630 N   0  0  0  0  0  0  0  0  0  0  0  0
    0.4680   12.2110   -3.0500 C   0  0  1  0  0  0  0  0  0  0  0  0
    0.3960   10.9120   -2.8540 O   0  0  0  0  0  0  0  0  0  0  0  0
    1.4930   12.5800   -2.1630 O   0  0  0  0  0  0  0  0  0  0  0  0
  2  1  1  6
  2  3  1  0
  2  4  1  0
  5  4  1  6
  3  6  1  0
  6  7  1  6
  5  8  1  0
  6  8  1  0
  5  9  1  0
  7 10  1  0
  8 11  1  6
  9 12  1  0
 11 12  1  0
 10 13  1  0
 13 14  1  0
 15 14  1  6
 15 16  1  0
 15 17  1  0
 18 17  1  6
 16 19  1  0
 18 20  1  0
 18 21  1  0
 21 19  1  6
 20 22  1  1
 20 23  1  0
 21 24  1  0
 23 24  1  0
 22 25  1  0
 25 26  1  6
 25 27  1  0
M  CHG  1  26  -1
M  END
