ucsf493-ucsf169
     RDKit          3D

 16 17  0  0  0  0  0  0  0  0999 V2000
   -4.3180   15.2170   -5.9090 C   0  0  0  0  0  0  0  0  0  0  0  0
   -3.5280   16.3960   -5.9220 O   0  0  0  0  0  0  0  0  0  0  0  0
   -2.4040   16.3610   -5.0380 C   0  0  1  0  0  0  0  0  0  0  0  0
   -1.7930   14.9640   -4.9890 C   0  0  0  0  0  0  0  0  0  0  0  0
   -1.4580   17.4760   -5.5060 C   0  0  0  0  0  0  0  0  0  0  0  0
   -0.4350   14.9230   -4.2890 C   0  0  2  0  0  0  0  0  0  0  0  0
   -0.0620   17.5480   -4.8570 C   0  0  1  0  0  0  0  0  0  0  0  0
    0.4340   16.2070   -4.2780 C   0  0  2  0  0  0  0  0  0  0  0  0
    0.5140   13.8210   -4.8040 C   0  0  2  0  0  0  0  0  0  0  0  0
    0.9610   18.2320   -5.7690 C   0  0  0  0  0  0  0  0  0  0  0  0
    0.2210   12.3520   -4.3470 C   0  0  0  0  0  0  0  0  0  0  0  0
    1.7300   15.7770   -4.8100 N   0  0  0  0  0  0  0  0  0  0  0  0
    1.8510   14.3800   -4.3860 C   0  0  0  0  0  0  0  0  0  0  0  0
    0.1730   11.9570   -2.8290 C   0  0  1  0  0  0  0  0  0  0  0  0
    0.4880   10.5810   -2.6390 O   0  0  0  0  0  0  0  0  0  0  0  0
    1.1530   12.5320   -2.1780 O   0  0  0  0  0  0  0  0  0  0  0  0
  1  2  1  0
  3  2  1  6
  3  4  1  0
  3  5  1  0
  6  4  1  6
  5  7  1  0
  6  8  1  0
  7  8  1  0
  6  9  1  0
  7 10  1  6
  9 11  1  1
  8 12  1  6
  9 13  1  0
 12 13  1  0
 11 14  1  0
 14 15  1  6
 14 16  1  0
M  CHG  1  16  -1
M  END
