ucsf385-ucsf442
     RDKit          3D

 14 15  0  0  0  0  0  0  0  0999 V2000
   -3.5020   14.2990   -1.6220 N   0  0  0  0  0  0  0  0  0  0  0  0
   -2.4500   14.0970   -0.5850 C   0  0  2  0  0  0  0  0  0  0  0  0
   -2.9190   14.7230    0.7590 C   0  0  1  0  0  0  0  0  0  0  0  0
   -1.1150   14.7700   -1.0220 C   0  0  2  0  0  0  0  0  0  0  0  0
   -0.6910   14.3400   -2.4540 C   0  0  2  0  0  0  0  0  0  0  0  0
   -0.0180   14.4270    0.0060 C   0  0  0  0  0  0  0  0  0  0  0  0
   -1.8110   15.0480    1.6380 N   0  0  0  0  0  0  0  0  0  0  0  0
   -3.7080   15.9630    0.3240 C   0  0  0  0  0  0  0  0  0  0  0  0
   -3.9770   13.9860    1.4660 N   0  0  0  0  0  0  0  0  0  0  0  0
    0.5460   14.9360   -2.7900 O   0  0  0  0  0  0  0  0  0  0  0  0
   -1.4800   14.8930   -3.3530 O   0  0  0  0  0  0  0  0  0  0  0  0
   -0.5690   14.2970    1.4130 C   0  0  0  0  0  0  0  0  0  0  0  0
   -5.0360   15.4120   -0.0040 N   0  0  0  0  0  0  0  0  0  0  0  0
   -5.2540   14.6190    1.1910 C   0  0  0  0  0  0  0  0  0  0  0  0
  2  1  1  6
  2  3  1  0
  2  4  1  0
  4  5  1  0
  4  6  1  1
  3  7  1  0
  3  8  1  6
  3  9  1  0
  5 10  1  6
  5 11  1  0
  6 12  1  0
  7 12  1  0
  8 13  1  0
  9 14  1  0
 13 14  1  0
M  CHG  1  11  -1
M  END
