ucsf013-ucsf333
     RDKit          3D

 21 23  0  0  0  0  0  0  0  0999 V2000
   -4.1030   14.0020    1.5170 N   0  0  0  0  0  0  0  0  0  0  0  0
   -4.9070   15.1420    1.2040 C   0  0  2  0  0  0  0  0  0  0  0  0
   -6.1710   14.8910    1.8600 N   0  0  0  0  0  0  0  0  0  0  0  0
   -4.9240   15.5560   -0.2820 C   0  0  2  0  0  0  0  0  0  0  0  0
   -6.0360   14.8110   -1.0210 C   0  0  2  0  0  0  0  0  0  0  0  0
   -7.2890   14.4070    1.0730 C   0  0  0  0  0  0  0  0  0  0  0  0
   -3.5340   15.5990   -0.9310 C   0  0  0  0  0  0  0  0  0  0  0  0
   -6.8840   13.9310   -0.2120 N   0  0  0  0  0  0  0  0  0  0  0  0
   -5.6430   14.1150   -2.3210 C   0  0  1  0  0  0  0  0  0  0  0  0
   -3.0870   14.5790   -1.9600 C   0  0  1  0  0  0  0  0  0  0  0  0
   -6.9470   14.5240   -3.4500 Cl  0  0  0  0  0  0  0  0  0  0  0  0
   -4.2650   14.3620   -2.9240 C   0  0  0  0  0  0  0  0  0  0  0  0
   -1.9600   15.0520   -2.8650 N   0  0  0  0  0  0  0  0  0  0  0  0
   -2.5180   13.3870   -1.1690 C   0  0  0  0  0  0  0  0  0  0  0  0
   -0.9500   14.0130   -2.8320 C   0  0  2  0  0  0  0  0  0  0  0  0
   -0.7460   13.7240   -1.0740 S   0  0  0  0  0  0  0  0  0  0  0  0
    0.3700   14.0490   -3.6360 C   0  0  0  0  0  0  0  0  0  0  0  0
    1.0200   12.6420   -3.6000 C   0  0  0  0  0  0  0  0  0  0  0  0
    0.3480   11.7170   -2.5410 C   0  0  2  0  0  0  0  0  0  0  0  0
    0.8230   11.9790   -1.3590 O   0  0  0  0  0  0  0  0  0  0  0  0
    0.5910   10.3390   -2.6260 O   0  0  0  0  0  0  0  0  0  0  0  0
  2  1  1  6
  2  3  1  0
  2  4  1  0
  4  5  1  0
  3  6  1  0
  4  7  1  6
  5  8  1  1
  6  8  1  0
  5  9  1  0
 10  7  1  1
  9 11  1  6
  9 12  1  0
 10 12  1  0
 10 13  1  0
 10 14  1  0
 13 15  1  0
 14 16  1  0
 15 16  1  0
 15 17  1  1
 17 18  1  0
 18 19  1  0
 19 20  1  1
 19 21  1  0
M  CHG  1  20  -1
M  END
