ucsf511-ucsf367
     RDKit          3D

 24 27  0  0  0  0  0  0  0  0999 V2000
    0.8750   13.1160   -2.1370 O   0  0  0  0  0  0  0  0  0  0  0  0
    0.4790   12.1730   -3.1730 C   0  0  2  0  0  0  0  0  0  0  0  0
    0.7590   10.9640   -2.7090 O   0  0  0  0  0  0  0  0  0  0  0  0
    0.0930   14.2970   -2.0610 C   0  0  2  0  0  0  0  0  0  0  0  0
    1.2090   12.4320   -4.5570 C   0  0  0  0  0  0  0  0  0  0  0  0
   -1.3770   13.9550   -1.7270 C   0  0  2  0  0  0  0  0  0  0  0  0
    0.3110   15.0500   -3.3210 N   0  0  0  0  0  0  0  0  0  0  0  0
    0.6760   11.7580   -5.7330 O   0  0  0  0  0  0  0  0  0  0  0  0
   -2.2940   14.0070   -2.9520 C   0  0  2  0  0  0  0  0  0  0  0  0
   -0.5650   14.6920   -4.4050 C   0  0  0  0  0  0  0  0  0  0  0  0
   -2.0160   14.8570   -0.7820 O   0  0  0  0  0  0  0  0  0  0  0  0
   -1.9140   14.9830   -3.9830 N   0  0  0  0  0  0  0  0  0  0  0  0
   -3.3930   14.4620   -0.8310 C   0  0  2  0  0  0  0  0  0  0  0  0
   -3.6670   14.2000   -2.3070 C   0  0  1  0  0  0  0  0  0  0  0  0
   -0.3270   10.7570   -5.5380 C   0  0  0  0  0  0  0  0  0  0  0  0
   -4.6430   15.1460   -2.9380 C   0  0  0  0  0  0  0  0  0  0  0  0
   -4.2950   15.4320   -0.0630 C   0  0  0  0  0  0  0  0  0  0  0  0
   -0.3950    9.9070   -6.8130 C   0  0  0  0  0  0  0  0  0  0  0  0
   -1.7090   11.3550   -5.2960 C   0  0  0  0  0  0  0  0  0  0  0  0
   -5.9020   15.2880   -2.1110 C   0  0  0  0  0  0  0  0  0  0  0  0
   -5.6570   15.7550   -0.6930 C   0  0  0  0  0  0  0  0  0  0  0  0
   -1.3960    8.7700   -6.6630 C   0  0  0  0  0  0  0  0  0  0  0  0
   -2.7800   10.2750   -5.1600 C   0  0  0  0  0  0  0  0  0  0  0  0
   -2.7880    9.3040   -6.3420 C   0  0  0  0  0  0  0  0  0  0  0  0
  1  2  1  0
  2  3  1  1
  4  1  1  6
  2  5  1  0
  4  6  1  0
  4  7  1  0
  5  8  1  0
  6  9  1  0
  7 10  1  0
  6 11  1  1
  9 12  1  6
 10 12  1  0
 11 13  1  0
  9 14  1  0
 13 14  1  0
  8 15  1  0
 14 16  1  6
 13 17  1  6
 15 18  1  0
 15 19  1  0
 16 20  1  0
 17 21  1  0
 20 21  1  0
 18 22  1  0
 19 23  1  0
 22 24  1  0
 23 24  1  0
M  CHG  1   3  -1
M  END
