ucsf172-ucsf224
     RDKit          3D

 27 28  0  0  0  0  0  0  0  0999 V2000
   -8.2760   14.9650    2.5240 C   0  0  0  0  0  0  0  0  0  0  0  0
   -7.1400   14.3900    1.3170 S   0  0  0  0  0  0  0  0  0  0  0  0
   -7.1350   12.8040    1.4900 O   0  0  0  0  0  0  0  0  0  0  0  0
   -7.8560   14.6860   -0.0820 O   0  0  0  0  0  0  0  0  0  0  0  0
   -5.6060   14.9640    1.3880 N   0  0  0  0  0  0  0  0  0  0  0  0
   -4.6920   14.6850    0.2990 C   0  0  2  0  0  0  0  0  0  0  0  0
   -3.2400   14.9180    0.6930 C   0  0  0  0  0  0  0  0  0  0  0  0
   -5.0140   15.5150   -0.9120 C   0  0  0  0  0  0  0  0  0  0  0  0
   -2.2650   14.4300   -0.3800 C   0  0  0  0  0  0  0  0  0  0  0  0
   -4.1490   15.1220   -2.0970 C   0  0  0  0  0  0  0  0  0  0  0  0
   -2.6870   14.6410   -1.8550 C   0  0  2  0  0  0  0  0  0  0  0  0
   -2.2790   13.3920   -2.6560 C   0  0  2  0  0  0  0  0  0  0  0  0
   -0.8660   13.2960   -2.6070 O   0  0  0  0  0  0  0  0  0  0  0  0
   -2.7090   13.4250   -4.0140 O   0  0  0  0  0  0  0  0  0  0  0  0
   -3.5710   14.4930   -4.3850 C   0  0  0  0  0  0  0  0  0  0  0  0
   -2.8260   15.8160   -4.3800 C   0  0  0  0  0  0  0  0  0  0  0  0
   -1.4810   15.6850   -5.0810 C   0  0  2  0  0  0  0  0  0  0  0  0
   -0.7070   14.3660   -4.9100 C   0  0  0  0  0  0  0  0  0  0  0  0
   -0.5370   16.9260   -5.1800 C   0  0  1  0  0  0  0  0  0  0  0  0
   -1.3770   18.5150   -5.0810 Cl  0  0  0  0  0  0  0  0  0  0  0  0
    0.4950   14.4400   -3.9400 C   0  0  1  0  0  0  0  0  0  0  0  0
    0.6720   16.9100   -4.2370 C   0  0  0  0  0  0  0  0  0  0  0  0
    1.1980   13.0490   -3.8890 C   0  0  0  0  0  0  0  0  0  0  0  0
    1.4120   15.5940   -4.3450 C   0  0  0  0  0  0  0  0  0  0  0  0
    1.2620   12.2790   -2.5310 C   0  0  2  0  0  0  0  0  0  0  0  0
    0.6030   11.1360   -2.5840 O   0  0  0  0  0  0  0  0  0  0  0  0
    0.5290   12.9020   -1.4920 O   0  0  0  0  0  0  0  0  0  0  0  0
  1  2  1  0
  2  3  1  0
  2  4  1  0
  2  5  1  0
  6  5  1  1
  6  7  1  0
  6  8  1  0
  7  9  1  0
  8 10  1  0
 11  9  1  1
 10 11  1  0
 11 12  1  0
 12 13  1  6
 12 14  1  0
 14 15  1  0
 15 16  1  0
 17 16  1  1
 17 18  1  0
 17 19  1  0
 19 20  1  1
 18 21  1  0
 19 22  1  0
 21 23  1  6
 21 24  1  0
 22 24  1  0
 23 25  1  0
 25 26  1  6
 25 27  1  0
M  CHG  1  26  -1
M  END
