ucsf365-ucsf274
     RDKit          3D

 21 24  0  0  0  0  0  0  0  0999 V2000
    0.2280   11.1740   -2.6440 O   0  0  0  0  0  0  0  0  0  0  0  0
    0.9020   12.3040   -2.6340 C   0  0  2  0  0  0  0  0  0  0  0  0
    0.4960   12.8270   -1.3840 O   0  0  0  0  0  0  0  0  0  0  0  0
    0.5660   13.2890   -3.8530 C   0  0  1  0  0  0  0  0  0  0  0  0
    0.8300   12.6480   -5.2040 C   0  0  0  0  0  0  0  0  0  0  0  0
   -0.9010   13.8480   -3.9490 C   0  0  2  0  0  0  0  0  0  0  0  0
   -1.9600   12.8810   -4.5960 C   0  0  1  0  0  0  0  0  0  0  0  0
   -0.8320   15.2000   -4.7140 C   0  0  0  0  0  0  0  0  0  0  0  0
   -0.0230   11.4200   -5.4480 C   0  0  1  0  0  0  0  0  0  0  0  0
   -2.6170   13.4880   -5.8460 C   0  0  0  0  0  0  0  0  0  0  0  0
   -2.1700   15.8600   -5.0120 C   0  0  0  0  0  0  0  0  0  0  0  0
   -1.4190   11.4580   -4.7990 C   0  0  2  0  0  0  0  0  0  0  0  0
   -0.0660   11.0270   -6.8540 N   0  0  0  0  0  0  0  0  0  0  0  0
   -3.1790   14.8880   -5.6040 C   0  0  0  0  0  0  0  0  0  0  0  0
   -2.4300   10.5770   -5.4570 N   0  0  0  0  0  0  0  0  0  0  0  0
   -0.5370    9.6470   -6.9120 C   0  0  1  0  0  0  0  0  0  0  0  0
   -1.8050    9.3740   -6.0340 C   0  0  2  0  0  0  0  0  0  0  0  0
   -0.6500    9.2100   -8.3680 C   0  0  0  0  0  0  0  0  0  0  0  0
   -1.0350    7.7510   -8.4900 C   0  0  0  0  0  0  0  0  0  0  0  0
   -2.8310    8.5730   -6.8340 C   0  0  0  0  0  0  0  0  0  0  0  0
   -2.2150    7.3890   -7.5830 C   0  0  0  0  0  0  0  0  0  0  0  0
  2  1  1  6
  2  3  1  0
  2  4  1  0
  4  5  1  6
  4  6  1  0
  6  7  1  0
  6  8  1  6
  9  5  1  6
  7 10  1  6
  8 11  1  0
  7 12  1  0
  9 12  1  0
  9 13  1  0
 10 14  1  0
 11 14  1  0
 12 15  1  6
 13 16  1  0
 15 17  1  0
 16 17  1  0
 16 18  1  6
 18 19  1  0
 17 20  1  6
 19 21  1  0
 20 21  1  0
M  CHG  1   1  -1
M  END
