ucsf424-ucsf114
     RDKit          3D

 29 32  0  0  0  0  0  0  0  0999 V2000
    1.7800   12.5450   -2.3360 O   0  0  0  0  0  0  0  0  0  0  0  0
    1.4430   12.5830   -3.6010 C   0  0  1  0  0  0  0  0  0  0  0  0
    0.8250   11.3010   -3.5280 O   0  0  0  0  0  0  0  0  0  0  0  0
    0.1810   13.5060   -4.0510 C   0  0  1  0  0  0  0  0  0  0  0  0
    0.6260   14.8830   -4.7920 C   0  0  0  0  0  0  0  0  0  0  0  0
   -0.0070   12.2110   -5.1440 C   0  0  2  0  0  0  0  0  0  0  0  0
   -0.3440   13.8100   -2.5750 N   0  0  0  0  0  0  0  0  0  0  0  0
   -0.4600   15.8850   -4.8210 O   0  0  0  0  0  0  0  0  0  0  0  0
    0.8040   12.3270   -6.4130 N   0  0  0  0  0  0  0  0  0  0  0  0
   -1.2260   11.4550   -5.7270 C   0  0  1  0  0  0  0  0  0  0  0  0
   -1.3570   14.9140   -2.3500 C   0  0  2  0  0  0  0  0  0  0  0  0
    0.7150   14.3010   -1.6330 C   0  0  2  0  0  0  0  0  0  0  0  0
   -0.1660   17.2250   -5.2880 C   0  0  0  0  0  0  0  0  0  0  0  0
    2.5130   14.2130   -1.8210 S   0  0  0  0  0  0  0  0  0  0  0  0
    0.6050   11.1000   -7.1960 O   0  0  0  0  0  0  0  0  0  0  0  0
   -0.4750   10.4240   -6.5770 C   0  0  2  0  0  0  0  0  0  0  0  0
   -2.1770   10.6220   -4.8730 C   0  0  0  0  0  0  0  0  0  0  0  0
   -1.7130   15.2440   -0.8290 C   0  0  2  0  0  0  0  0  0  0  0  0
    0.3820   14.0190   -0.2580 N   0  0  0  0  0  0  0  0  0  0  0  0
   -2.7680   14.7900   -2.9460 C   0  0  0  0  0  0  0  0  0  0  0  0
    0.8180   17.9590   -4.3900 C   0  0  0  0  0  0  0  0  0  0  0  0
   -1.4910   18.0000   -5.3270 C   0  0  0  0  0  0  0  0  0  0  0  0
   -1.3700    9.6940   -7.5610 C   0  0  0  0  0  0  0  0  0  0  0  0
   -3.0840    9.6640   -5.6940 C   0  0  0  0  0  0  0  0  0  0  0  0
   -0.5860   14.9690    0.2240 C   0  0  2  0  0  0  0  0  0  0  0  0
   -3.0210   14.6380   -0.5910 N   0  0  0  0  0  0  0  0  0  0  0  0
   -3.7440   15.0190   -1.7930 C   0  0  0  0  0  0  0  0  0  0  0  0
   -1.0870   14.4840    1.4780 O   0  0  0  0  0  0  0  0  0  0  0  0
   -2.3900    8.8540   -6.7980 C   0  0  0  0  0  0  0  0  0  0  0  0
  2  1  1  1
  2  3  1  0
  2  4  1  0
  4  5  1  6
  4  6  1  0
  4  7  1  0
  5  8  1  0
  6  9  1  6
  6 10  1  0
  7 11  1  0
  7 12  1  0
  8 13  1  0
 12 14  1  6
  9 15  1  0
 10 16  1  0
 15 16  1  0
 10 17  1  1
 11 18  1  0
 12 19  1  0
 11 20  1  6
 13 21  1  0
 13 22  1  0
 16 23  1  6
 17 24  1  0
 18 25  1  0
 19 25  1  0
 18 26  1  1
 20 27  1  0
 26 27  1  0
 25 28  1  1
 23 29  1  0
 24 29  1  0
M  CHG  1   1  -1
M  END
