ucsf364-ucsf396
     RDKit          3D

 21 22  0  0  0  0  0  0  0  0999 V2000
    2.2990   13.5240   -4.4290 C   0  0  0  0  0  0  0  0  0  0  0  0
    1.1420   12.5290   -4.5860 C   0  0  2  0  0  0  0  0  0  0  0  0
    0.7460   12.2970   -6.0510 C   0  0  1  0  0  0  0  0  0  0  0  0
   -0.0840   12.8510   -3.6950 C   0  0  2  0  0  0  0  0  0  0  0  0
    1.8790   11.9000   -6.8180 O   0  0  0  0  0  0  0  0  0  0  0  0
    0.1930   13.2000   -2.1650 C   0  0  1  0  0  0  0  0  0  0  0  0
   -1.1300   11.7180   -3.8620 C   0  0  0  0  0  0  0  0  0  0  0  0
   -0.3610   11.2680   -6.2860 C   0  0  0  0  0  0  0  0  0  0  0  0
   -0.6900   14.2950   -1.8130 O   0  0  0  0  0  0  0  0  0  0  0  0
   -0.0240   12.1250   -1.4100 O   0  0  0  0  0  0  0  0  0  0  0  0
   -1.5210   11.3540   -5.3000 C   0  0  0  0  0  0  0  0  0  0  0  0
   -1.5710   14.0900   -0.6980 C   0  0  0  0  0  0  0  0  0  0  0  0
   -2.8070   14.8540   -0.9610 N   0  0  0  0  0  0  0  0  0  0  0  0
   -3.6810   15.0780    0.1850 C   0  0  2  0  0  0  0  0  0  0  0  0
   -2.9860   14.5740    1.3250 O   0  0  0  0  0  0  0  0  0  0  0  0
   -5.0980   14.4740    0.0490 C   0  0  2  0  0  0  0  0  0  0  0  0
   -5.8980   15.2570   -0.9920 C   0  0  0  0  0  0  0  0  0  0  0  0
   -5.8790   14.3730    1.3660 C   0  0  0  0  0  0  0  0  0  0  0  0
   -7.1980   14.6280   -1.1980 N   0  0  0  0  0  0  0  0  0  0  0  0
   -7.4110   14.4380    1.3020 C   0  0  0  0  0  0  0  0  0  0  0  0
   -8.0500   14.8350   -0.0310 C   0  0  0  0  0  0  0  0  0  0  0  0
  2  1  1  6
  2  3  1  0
  2  4  1  0
  3  5  1  6
  4  6  1  0
  4  7  1  1
  3  8  1  0
  6  9  1  0
  6 10  1  1
  7 11  1  0
  8 11  1  0
  9 12  1  0
 12 13  1  0
 13 14  1  0
 14 15  1  1
 14 16  1  0
 16 17  1  6
 16 18  1  0
 17 19  1  0
 18 20  1  0
 19 21  1  0
 20 21  1  0
M  CHG  1  10  -1
M  END
