ucsf190-ucsf247
     RDKit          3D

 28 30  0  0  0  0  0  0  0  0999 V2000
    0.6230   10.4940   -2.5180 O   0  0  0  0  0  0  0  0  0  0  0  0
    0.3870   11.7870   -2.7840 C   0  0  1  0  0  0  0  0  0  0  0  0
    0.6380   12.5510   -1.5910 O   0  0  0  0  0  0  0  0  0  0  0  0
    1.3010   12.3000   -3.9860 C   0  0  0  0  0  0  0  0  0  0  0  0
    0.7330   13.9630   -1.7930 C   0  0  1  0  0  0  0  0  0  0  0  0
    1.0680   13.6960   -4.6850 C   0  0  1  0  0  0  0  0  0  0  0  0
    1.8820   14.1820   -2.6250 O   0  0  0  0  0  0  0  0  0  0  0  0
   -0.4930   14.5990   -2.4960 C   0  0  0  0  0  0  0  0  0  0  0  0
   -0.4270   14.0720   -4.5640 C   0  0  1  0  0  0  0  0  0  0  0  0
    2.0570   14.7090   -4.2440 N   0  0  0  0  0  0  0  0  0  0  0  0
   -1.8250   14.2860   -1.9170 N   0  0  0  0  0  0  0  0  0  0  0  0
   -0.7920   15.5940   -4.4640 C   0  0  1  0  0  0  0  0  0  0  0  0
    1.6270   16.0700   -3.9010 N   0  0  0  0  0  0  0  0  0  0  0  0
   -1.2640   13.2490   -5.5440 C   0  0  0  0  0  0  0  0  0  0  0  0
   -2.8160   15.2920   -2.1970 C   0  0  1  0  0  0  0  0  0  0  0  0
    0.4020   16.5770   -4.5320 C   0  0  1  0  0  0  0  0  0  0  0  0
   -2.0520   16.0780   -5.2080 C   0  0  0  0  0  0  0  0  0  0  0  0
   -2.7330   13.5490   -5.3700 C   0  0  0  0  0  0  0  0  0  0  0  0
    0.6990   17.0670   -5.8120 O   0  0  0  0  0  0  0  0  0  0  0  0
   -3.4450   14.9170   -3.4070 O   0  0  0  0  0  0  0  0  0  0  0  0
   -3.0590   15.0080   -5.6840 C   0  0  0  0  0  0  0  0  0  0  0  0
   -3.9330   15.5060   -1.1620 C   0  0  1  0  0  0  0  0  0  0  0  0
   -5.0840   14.5000   -1.2410 C   0  0  0  0  0  0  0  0  0  0  0  0
   -3.3990   15.6830    0.2660 C   0  0  0  0  0  0  0  0  0  0  0  0
   -6.1050   14.9350   -0.2240 C   0  0  1  0  0  0  0  0  0  0  0  0
   -4.0420   14.7740    1.2940 C   0  0  0  0  0  0  0  0  0  0  0  0
   -7.3620   14.2860   -0.4300 O   0  0  0  0  0  0  0  0  0  0  0  0
   -5.5710   14.6570    1.1820 C   0  0  0  0  0  0  0  0  0  0  0  0
  2  1  1  1
  2  3  1  0
  2  4  1  0
  3  5  1  0
  6  4  1  1
  5  7  1  6
  5  8  1  0
  6  9  1  0
  6 10  1  0
  8 11  1  0
  9 12  1  0
 10 13  1  0
  9 14  1  6
 11 15  1  0
 12 16  1  0
 13 16  1  0
 12 17  1  6
 14 18  1  0
 16 19  1  6
 15 20  1  6
 17 21  1  0
 18 21  1  0
 15 22  1  0
 22 23  1  1
 22 24  1  0
 23 25  1  0
 24 26  1  0
 25 27  1  6
 25 28  1  0
 26 28  1  0
M  CHG  1   1  -1
M  END
