ucsf243-ucsf260
     RDKit          3D

 26 28  0  0  0  0  0  0  0  0999 V2000
   -3.8080   15.5640    0.8890 C   0  0  0  0  0  0  0  0  0  0  0  0
   -3.5730   14.8040   -0.4250 C   0  0  1  0  0  0  0  0  0  0  0  0
   -4.1930   15.5430   -1.5880 C   0  0  0  0  0  0  0  0  0  0  0  0
   -2.0790   14.5160   -0.6630 C   0  0  0  0  0  0  0  0  0  0  0  0
   -1.5940   14.2890   -2.1270 C   0  0  2  0  0  0  0  0  0  0  0  0
   -4.0780   14.7430   -2.8580 C   0  0  0  0  0  0  0  0  0  0  0  0
   -0.2510   15.0430   -2.4080 C   0  0  2  0  0  0  0  0  0  0  0  0
   -2.6280   14.4910   -3.2670 C   0  0  1  0  0  0  0  0  0  0  0  0
   -2.2410   15.5610   -4.1360 O   0  0  0  0  0  0  0  0  0  0  0  0
    0.5430   14.3140   -3.3290 O   0  0  0  0  0  0  0  0  0  0  0  0
    0.5550   15.0900   -1.2640 O   0  0  0  0  0  0  0  0  0  0  0  0
    1.1260   13.8090   -1.1910 C   0  0  0  0  0  0  0  0  0  0  0  0
    0.5050   12.9850   -2.1720 O   0  0  0  0  0  0  0  0  0  0  0  0
    1.3460   12.1690   -2.9860 C   0  0  1  0  0  0  0  0  0  0  0  0
    0.8260   10.9570   -2.8550 O   0  0  0  0  0  0  0  0  0  0  0  0
    1.3550   12.6020   -4.5110 C   0  0  0  0  0  0  0  0  0  0  0  0
    0.0580   13.1810   -5.1310 C   0  0  0  0  0  0  0  0  0  0  0  0
   -0.8270   12.2100   -5.8290 N   0  0  0  0  0  0  0  0  0  0  0  0
   -1.9390   11.7890   -4.9870 C   0  0  0  0  0  0  0  0  0  0  0  0
   -0.2460   10.9520   -6.3040 C   0  0  1  0  0  0  0  0  0  0  0  0
   -2.3440   10.4400   -5.4230 N   0  0  0  0  0  0  0  0  0  0  0  0
   -1.5420   10.2310   -6.6400 C   0  0  2  0  0  0  0  0  0  0  0  0
    0.6790   10.9680   -7.5240 C   0  0  0  0  0  0  0  0  0  0  0  0
   -1.3560    8.7560   -7.0270 C   0  0  0  0  0  0  0  0  0  0  0  0
    0.5500    9.7210   -8.4100 C   0  0  0  0  0  0  0  0  0  0  0  0
   -0.0160    8.4790   -7.7150 C   0  0  0  0  0  0  0  0  0  0  0  0
  2  1  1  1
  2  3  1  0
  2  4  1  0
  5  4  1  1
  3  6  1  0
  5  7  1  0
  5  8  1  0
  6  8  1  0
  8  9  1  1
  7 10  1  6
  7 11  1  0
 11 12  1  0
 12 13  1  0
 13 14  1  0
 14 15  1  6
 14 16  1  0
 16 17  1  0
 17 18  1  0
 18 19  1  0
 18 20  1  0
 19 21  1  0
 20 22  1  0
 21 22  1  0
 20 23  1  6
 22 24  1  1
 23 25  1  0
 24 26  1  0
 25 26  1  0
M  CHG  1  15  -1
M  END
