ucsf320-ucsf345
     RDKit          3D

 12 12  0  0  0  0  0  0  0  0999 V2000
   -0.9030   14.6440   -1.8260 O   0  0  0  0  0  0  0  0  0  0  0  0
   -1.9020   14.7770   -2.6660 C   0  0  1  0  0  0  0  0  0  0  0  0
   -1.6220   13.7760   -3.6170 O   0  0  0  0  0  0  0  0  0  0  0  0
   -3.2700   14.4900   -2.0040 C   0  0  1  0  0  0  0  0  0  0  0  0
   -3.3860   14.9330   -0.5290 C   0  0  0  0  0  0  0  0  0  0  0  0
   -4.4410   14.9890   -2.8790 C   0  0  0  0  0  0  0  0  0  0  0  0
   -4.7140   14.5310    0.0380 C   0  0  0  0  0  0  0  0  0  0  0  0
   -5.8220   14.9160   -2.2330 C   0  0  0  0  0  0  0  0  0  0  0  0
   -5.8270   15.2390   -0.7370 C   0  0  1  0  0  0  0  0  0  0  0  0
   -7.0930   14.8590   -0.1860 O   0  0  0  0  0  0  0  0  0  0  0  0
   -7.0240   14.7010    1.2160 C   0  0  0  0  0  0  0  0  0  0  0  0
   -6.6630   13.3510    1.5220 N   0  0  0  0  0  0  0  0  0  0  0  0
  2  1  1  1
  2  3  1  0
  2  4  1  0
  4  5  1  1
  4  6  1  0
  5  7  1  0
  6  8  1  0
  7  9  1  0
  8  9  1  0
  9 10  1  1
 10 11  1  0
 11 12  1  0
M  CHG  1   1  -1
M  END
