ucsf190-ucsf367
     RDKit          3D

 22 24  0  0  0  0  0  0  0  0999 V2000
    0.7180   10.5580   -2.3580 O   0  0  0  0  0  0  0  0  0  0  0  0
    0.6450   11.8790   -2.5530 C   0  0  1  0  0  0  0  0  0  0  0  0
    1.9110   12.3580   -2.1680 O   0  0  0  0  0  0  0  0  0  0  0  0
    0.3870   12.2490   -4.0590 C   0  0  2  0  0  0  0  0  0  0  0  0
    0.6150   11.2010   -5.0300 O   0  0  0  0  0  0  0  0  0  0  0  0
    0.9640   13.5920   -4.6300 C   0  0  1  0  0  0  0  0  0  0  0  0
   -0.2290   14.2730   -5.3350 C   0  0  2  0  0  0  0  0  0  0  0  0
    1.7360   14.4780   -3.6970 N   0  0  0  0  0  0  0  0  0  0  0  0
   -0.5470   10.8360   -5.7830 C   0  0  0  0  0  0  0  0  0  0  0  0
   -0.4990   15.7770   -5.0070 C   0  0  2  0  0  0  0  0  0  0  0  0
    1.8230   15.7960   -4.3040 N   0  0  0  0  0  0  0  0  0  0  0  0
   -1.4950   13.3970   -5.2600 C   0  0  0  0  0  0  0  0  0  0  0  0
   -0.3630    9.4990   -6.5170 C   0  0  0  0  0  0  0  0  0  0  0  0
   -1.6950   10.6960   -4.7920 C   0  0  0  0  0  0  0  0  0  0  0  0
    0.5400   16.4240   -4.0950 C   0  0  1  0  0  0  0  0  0  0  0  0
   -1.9480   15.9850   -4.5360 C   0  0  0  0  0  0  0  0  0  0  0  0
   -2.7770   13.9450   -5.8370 C   0  0  0  0  0  0  0  0  0  0  0  0
   -1.6360    8.9950   -7.1950 C   0  0  0  0  0  0  0  0  0  0  0  0
   -2.9810   10.2640   -5.4810 C   0  0  0  0  0  0  0  0  0  0  0  0
    0.6640   17.7950   -4.4360 O   0  0  0  0  0  0  0  0  0  0  0  0
   -3.0190   15.3920   -5.4490 C   0  0  0  0  0  0  0  0  0  0  0  0
   -2.8210    8.9540   -6.2440 C   0  0  0  0  0  0  0  0  0  0  0  0
  2  1  1  6
  2  3  1  0
  2  4  1  0
  4  5  1  6
  4  6  1  0
  6  7  1  0
  6  8  1  1
  5  9  1  0
  7 10  1  0
  8 11  1  0
  7 12  1  1
  9 13  1  0
  9 14  1  0
 10 15  1  0
 11 15  1  0
 10 16  1  1
 12 17  1  0
 13 18  1  0
 14 19  1  0
 15 20  1  6
 16 21  1  0
 17 21  1  0
 18 22  1  0
 19 22  1  0
M  CHG  1   1  -1
M  END
