ucsf338-ucsf364
     RDKit          3D

 24 25  0  0  0  0  0  0  0  0999 V2000
   -8.7340   13.9700   -0.0450 O   0  0  0  0  0  0  0  0  0  0  0  0
   -7.5350   14.7470    0.2470 N   0  0  0  0  0  0  0  0  0  0  0  0
   -6.5130   14.3660   -0.7400 C   0  0  1  0  0  0  0  0  0  0  0  0
   -6.5880   15.2770   -1.8080 O   0  0  0  0  0  0  0  0  0  0  0  0
   -5.0960   14.2790   -0.0940 C   0  0  1  0  0  0  0  0  0  0  0  0
   -3.8540   14.5950   -0.9690 C   0  0  1  0  0  0  0  0  0  0  0  0
   -4.8730   15.0320    1.2350 C   0  0  0  0  0  0  0  0  0  0  0  0
   -4.0810   14.8810   -2.3440 O   0  0  0  0  0  0  0  0  0  0  0  0
   -3.0710   15.7220   -0.3230 C   0  0  0  0  0  0  0  0  0  0  0  0
   -3.4940   14.7890    1.8620 C   0  0  0  0  0  0  0  0  0  0  0  0
   -2.8130   14.9440   -3.0540 C   0  0  0  0  0  0  0  0  0  0  0  0
   -2.3950   15.1980    0.9130 C   0  0  0  0  0  0  0  0  0  0  0  0
   -1.6300   15.1360   -2.0680 C   0  0  0  0  0  0  0  0  0  0  0  0
   -0.4000   14.4630   -2.3790 O   0  0  0  0  0  0  0  0  0  0  0  0
   -0.4440   13.0220   -2.3550 C   0  0  2  0  0  0  0  0  0  0  0  0
    0.5550   12.4910   -1.6380 O   0  0  0  0  0  0  0  0  0  0  0  0
   -0.3710   12.6720   -3.8870 C   0  0  1  0  0  0  0  0  0  0  0  0
    0.9970   12.3800   -4.5340 C   0  0  2  0  0  0  0  0  0  0  0  0
   -1.3900   11.5730   -4.2960 C   0  0  0  0  0  0  0  0  0  0  0  0
    1.9680   13.5570   -4.6650 C   0  0  0  0  0  0  0  0  0  0  0  0
   -1.6960   11.5510   -5.7950 C   0  0  0  0  0  0  0  0  0  0  0  0
    0.7390   11.7540   -5.9300 C   0  0  2  0  0  0  0  0  0  0  0  0
    1.8630   11.9370   -6.8000 O   0  0  0  0  0  0  0  0  0  0  0  0
   -0.5590   12.1760   -6.5770 C   0  0  0  0  0  0  0  0  0  0  0  0
  1  2  1  0
  2  3  1  0
  3  4  1  6
  3  5  1  0
  5  6  1  0
  5  7  1  1
  6  8  1  6
  6  9  1  0
  7 10  1  0
  8 11  1  0
  9 12  1  0
 10 12  1  0
 11 13  1  0
 13 14  1  0
 14 15  1  0
 15 16  1  1
 15 17  1  0
 17 18  1  0
 17 19  1  1
 18 20  1  6
 19 21  1  0
 18 22  1  0
 22 23  1  6
 21 24  1  0
 22 24  1  0
M  CHG  1  16  -1
M  END
