ucsf516-ucsf016
     RDKit          3D

 20 24  0  0  0  0  0  0  0  0999 V2000
    0.4180   11.2120   -3.3030 C   0  0  0  0  0  0  0  0  0  0  0  0
   -0.5470   12.2000   -2.6660 C   0  0  0  0  0  0  0  0  0  0  0  0
    0.4880   13.3440   -2.8990 C   0  0  0  0  0  0  0  0  0  0  0  0
    1.2470   12.3910   -3.8690 C   0  0  0  0  0  0  0  0  0  0  0  0
   -0.1630   14.6060   -3.4540 C   0  0  1  0  0  0  0  0  0  0  0  0
   -0.7400   14.4840   -4.8780 C   0  0  0  0  0  0  0  0  0  0  0  0
   -1.2200   15.2150   -2.6060 N   0  0  0  0  0  0  0  0  0  0  0  0
   -2.5130   14.8750   -3.2370 C   0  0  0  0  0  0  0  0  0  0  0  0
   -2.2300   14.5010   -4.6500 C   0  0  0  0  0  0  0  0  0  0  0  0
   -1.3190   14.8660   -1.2020 C   0  0  1  0  0  0  0  0  0  0  0  0
   -0.1400   15.2100   -0.4420 N   0  0  0  0  0  0  0  0  0  0  0  0
   -2.5320   15.4150   -0.4790 C   0  0  2  0  0  0  0  0  0  0  0  0
   -3.1350   13.5010   -5.3310 C   0  0  0  0  0  0  0  0  0  0  0  0
   -3.2270   14.9510   -5.7010 C   0  0  0  0  0  0  0  0  0  0  0  0
   -0.1910   14.6680    0.8990 C   0  0  0  0  0  0  0  0  0  0  0  0
   -2.5810   14.7280    0.8560 C   0  0  1  0  0  0  0  0  0  0  0  0
   -3.9340   15.1290   -0.9500 C   0  0  0  0  0  0  0  0  0  0  0  0
   -1.4070   15.0570    1.5850 N   0  0  0  0  0  0  0  0  0  0  0  0
   -3.7580   15.3240    1.4470 N   0  0  0  0  0  0  0  0  0  0  0  0
   -4.7070   15.4620    0.3230 C   0  0  0  0  0  0  0  0  0  0  0  0
  1  2  1  0
  2  3  1  0
  1  4  1  0
  3  4  1  0
  5  3  1  1
  5  6  1  0
  5  7  1  0
  7  8  1  0
  9  6  1  0
  8  9  1  0
 10  7  1  6
 10 11  1  0
 10 12  1  0
  9 13  1  0
  9 14  1  0
 13 14  1  0
 11 15  1  0
 12 16  1  0
 12 17  1  6
 15 18  1  0
 16 18  1  1
 16 19  1  0
 17 20  1  0
 19 20  1  0
M  END
