ucsf412-ucsf338
     RDKit          3D

 14 16  0  0  0  0  0  0  0  0999 V2000
   -7.8400   14.9410   -0.6150 N   0  0  0  0  0  0  0  0  0  0  0  0
   -9.0060   14.1020   -0.3280 O   0  0  0  0  0  0  0  0  0  0  0  0
   -7.1520   14.4630   -1.8270 C   0  0  1  0  0  0  0  0  0  0  0  0
   -6.8230   14.4650    0.2880 C   0  0  1  0  0  0  0  0  0  0  0  0
   -7.8320   14.8120   -3.0010 O   0  0  0  0  0  0  0  0  0  0  0  0
   -5.5650   15.1310   -0.2540 C   0  0  2  0  0  0  0  0  0  0  0  0
   -7.0210   14.7900    1.6560 N   0  0  0  0  0  0  0  0  0  0  0  0
   -5.7920   15.1350   -1.7560 C   0  0  1  0  0  0  0  0  0  0  0  0
   -4.3650   14.4570    0.3250 C   0  0  2  0  0  0  0  0  0  0  0  0
   -5.7830   14.6420    2.4340 C   0  0  0  0  0  0  0  0  0  0  0  0
   -4.5890   14.5880   -2.4900 C   0  0  0  0  0  0  0  0  0  0  0  0
   -4.3860   14.8930    1.7720 C   0  0  0  0  0  0  0  0  0  0  0  0
   -3.0600   14.7070   -0.4220 C   0  0  0  0  0  0  0  0  0  0  0  0
   -3.3220   15.1740   -1.8610 C   0  0  0  0  0  0  0  0  0  0  0  0
  1  2  1  0
  1  3  1  0
  1  4  1  0
  3  5  1  6
  6  4  1  1
  4  7  1  1
  3  8  1  0
  6  8  1  0
  6  9  1  0
  7 10  1  0
  8 11  1  6
  9 12  1  1
 10 12  1  0
  9 13  1  0
 11 14  1  0
 13 14  1  0
M  END
