ucsf173-ucsf357
     RDKit          3D

 22 24  0  0  0  0  0  0  0  0999 V2000
   -0.2300   13.0820   -1.1670 O   0  0  0  0  0  0  0  0  0  0  0  0
    0.0480   12.7400   -2.5150 C   0  0  2  0  0  0  0  0  0  0  0  0
    1.3200   12.1780   -2.6940 O   0  0  0  0  0  0  0  0  0  0  0  0
   -1.5420   13.7230   -1.0850 C   0  0  2  0  0  0  0  0  0  0  0  0
   -0.1110   14.0690   -3.2550 C   0  0  2  0  0  0  0  0  0  0  0  0
   -2.0430   14.4210   -2.3820 C   0  0  2  0  0  0  0  0  0  0  0  0
   -1.6750   14.7050    0.0870 C   0  0  0  0  0  0  0  0  0  0  0  0
   -1.1710   15.3810   -2.7910 F   0  0  0  0  0  0  0  0  0  0  0  0
   -1.3230   14.0100   -4.1750 C   0  0  0  0  0  0  0  0  0  0  0  0
    1.0150   14.6500   -4.1140 C   0  0  0  0  0  0  0  0  0  0  0  0
   -3.4040   15.0720   -2.2360 C   0  0  0  0  0  0  0  0  0  0  0  0
   -3.1590   15.1140    0.2410 C   0  0  0  0  0  0  0  0  0  0  0  0
   -1.2310   15.2810   -4.9810 C   0  0  2  0  0  0  0  0  0  0  0  0
    0.2670   15.6680   -4.9900 C   0  0  1  0  0  0  0  0  0  0  0  0
   -4.0010   14.5590   -0.9450 C   0  0  1  0  0  0  0  0  0  0  0  0
   -5.5450   14.6400   -0.9160 C   0  0  2  0  0  0  0  0  0  0  0  0
   -2.1460   16.4660   -4.6470 C   0  0  0  0  0  0  0  0  0  0  0  0
    0.4240   17.1570   -4.6760 C   0  0  0  0  0  0  0  0  0  0  0  0
   -5.9900   15.3940   -1.8870 O   0  0  0  0  0  0  0  0  0  0  0  0
   -5.9530   15.3130    0.2410 O   0  0  0  0  0  0  0  0  0  0  0  0
   -1.8820   17.6730   -5.5720 C   0  0  0  0  0  0  0  0  0  0  0  0
   -0.3970   17.9960   -5.6680 C   0  0  0  0  0  0  0  0  0  0  0  0
  1  2  1  0
  2  3  1  1
  4  1  1  6
  2  5  1  0
  4  6  1  0
  4  7  1  0
  6  8  1  1
  5  9  1  6
  5 10  1  0
  6 11  1  0
  7 12  1  0
 13  9  1  1
 14 10  1  1
 13 14  1  0
 15 11  1  6
 12 15  1  0
 15 16  1  0
 13 17  1  0
 14 18  1  0
 16 19  1  6
 16 20  1  0
 17 21  1  0
 18 22  1  0
 21 22  1  0
M  CHG  1  19  -1
M  END
