ucsf264-ucsf340
     RDKit          3D

 28 31  0  0  0  0  0  0  0  0999 V2000
    1.2190   12.3070   -2.3310 O   0  0  0  0  0  0  0  0  0  0  0  0
    1.2510   11.6970   -3.5030 C   0  0  1  0  0  0  0  0  0  0  0  0
    0.1610   10.8190   -3.3030 O   0  0  0  0  0  0  0  0  0  0  0  0
    0.9990   12.7070   -4.7120 C   0  0  2  0  0  0  0  0  0  0  0  0
    0.6640   14.0880   -4.0250 C   0  0  0  0  0  0  0  0  0  0  0  0
    0.0920   12.3730   -5.9050 N   0  0  0  0  0  0  0  0  0  0  0  0
    0.9350   12.1510   -7.1110 N   0  0  0  0  0  0  0  0  0  0  0  0
   -0.8330   11.2210   -5.8630 C   0  0  2  0  0  0  0  0  0  0  0  0
    0.1940   15.1950   -4.9530 C   0  0  2  0  0  0  0  0  0  0  0  0
    0.6120   10.8680   -7.7720 C   0  0  1  0  0  0  0  0  0  0  0  0
   -0.7840   10.5390   -7.2340 C   0  0  2  0  0  0  0  0  0  0  0  0
   -2.2530   11.2000   -5.3060 C   0  0  0  0  0  0  0  0  0  0  0  0
    1.0270   16.4490   -5.0260 C   0  0  0  0  0  0  0  0  0  0  0  0
   -1.1280   15.7610   -4.5000 C   0  0  1  0  0  0  0  0  0  0  0  0
    0.8460   10.5330   -9.2590 C   0  0  0  0  0  0  0  0  0  0  0  0
   -2.0430   10.7550   -8.0120 C   0  0  0  0  0  0  0  0  0  0  0  0
   -3.0160    9.9520   -5.8050 C   0  0  0  0  0  0  0  0  0  0  0  0
    0.1250   17.2830   -5.8130 N   0  0  0  0  0  0  0  0  0  0  0  0
   -1.1660   17.1910   -5.1370 C   0  0  1  0  0  0  0  0  0  0  0  0
   -2.2510   14.7900   -4.7820 C   0  0  0  0  0  0  0  0  0  0  0  0
    1.4760    9.3260   -9.3250 F   0  0  0  0  0  0  0  0  0  0  0  0
   -0.2520   10.4160  -10.0130 F   0  0  0  0  0  0  0  0  0  0  0  0
    1.6680   11.3640   -9.9220 F   0  0  0  0  0  0  0  0  0  0  0  0
    0.6450   18.6150   -6.0330 C   0  0  0  0  0  0  0  0  0  0  0  0
   -3.0970    9.8660   -7.3350 C   0  0  0  0  0  0  0  0  0  0  0  0
   -3.5220   15.5070   -5.0440 C   0  0  0  0  0  0  0  0  0  0  0  0
   -2.2880   17.4960   -6.1170 C   0  0  0  0  0  0  0  0  0  0  0  0
   -3.3750   16.4190   -6.2320 C   0  0  0  0  0  0  0  0  0  0  0  0
  2  1  1  1
  2  3  1  0
  2  4  1  0
  4  5  1  1
  4  6  1  0
  6  7  1  0
  6  8  1  0
  9  5  1  1
  7 10  1  0
  8 11  1  0
 10 11  1  0
  8 12  1  6
  9 13  1  0
  9 14  1  0
 10 15  1  6
 11 16  1  6
 12 17  1  0
 13 18  1  0
 14 19  1  0
 18 19  1  0
 14 20  1  6
 15 21  1  0
 15 22  1  0
 15 23  1  0
 18 24  1  0
 16 25  1  0
 17 25  1  0
 20 26  1  0
 19 27  1  6
 26 28  1  0
 27 28  1  0
M  CHG  1   1  -1
M  END
