ucsf013-ucsf392
     RDKit          3D

 19 21  0  0  0  0  0  0  0  0999 V2000
   -4.0000   13.6480    1.5860 N   0  0  0  0  0  0  0  0  0  0  0  0
   -5.2810   14.1420    1.1340 C   0  0  2  0  0  0  0  0  0  0  0  0
   -6.4040   13.3750    1.6020 N   0  0  0  0  0  0  0  0  0  0  0  0
   -2.9880   13.9030    0.5940 C   0  0  1  0  0  0  0  0  0  0  0  0
   -5.3060   14.3590   -0.3880 C   0  0  2  0  0  0  0  0  0  0  0  0
   -3.3590   15.1430   -0.2250 C   0  0  1  0  0  0  0  0  0  0  0  0
   -1.7650   14.1970    1.2900 N   0  0  0  0  0  0  0  0  0  0  0  0
   -4.0020   16.1970    0.6540 C   0  0  0  0  0  0  0  0  0  0  0  0
   -6.6620   14.8600   -0.8580 C   0  0  2  0  0  0  0  0  0  0  0  0
   -7.6320   14.0470    1.2260 C   0  0  0  0  0  0  0  0  0  0  0  0
   -4.8630   13.1520   -1.2350 C   0  0  0  0  0  0  0  0  0  0  0  0
   -0.6910   14.2660    0.3090 C   0  0  2  0  0  0  0  0  0  0  0  0
   -2.1290   15.6720   -0.9560 C   0  0  0  0  0  0  0  0  0  0  0  0
    0.2870   15.3150    0.7310 C   0  0  0  0  0  0  0  0  0  0  0  0
   -7.7490   14.0810   -0.2300 N   0  0  0  0  0  0  0  0  0  0  0  0
   -6.6970   14.8150   -2.3940 C   0  0  0  0  0  0  0  0  0  0  0  0
   -4.5140   13.5620   -2.6570 C   0  0  0  0  0  0  0  0  0  0  0  0
   -1.1460   14.6120   -1.0280 N   0  0  0  0  0  0  0  0  0  0  0  0
   -5.3080   14.7860   -3.0590 C   0  0  0  0  0  0  0  0  0  0  0  0
  2  1  1  6
  2  3  1  0
  4  1  1  1
  2  5  1  0
  4  6  1  0
  4  7  1  0
  6  8  1  1
  5  9  1  0
  3 10  1  0
  5 11  1  6
  7 12  1  0
  6 13  1  0
 12 14  1  1
  9 15  1  0
 10 15  1  0
  9 16  1  6
 11 17  1  0
 12 18  1  0
 13 18  1  0
 16 19  1  0
 17 19  1  0
M  END
