ucsf115
     RDKit          3D

 16 18  0  0  0  0  0  0  0  0999 V2000
    0.6720   11.5510   -2.5760 C   0  0  0  0  0  0  0  0  0  0  0  0
   -0.1230   10.8810   -3.4930 C   0  0  0  0  0  0  0  0  0  0  0  0
   -1.0140   11.7170   -4.0190 O   0  0  0  0  0  0  0  0  0  0  0  0
   -0.8140   12.9170   -3.4780 C   0  0  0  0  0  0  0  0  0  0  0  0
   -1.6080   14.1720   -3.8380 C   0  0  0  0  0  0  0  0  0  0  0  0
   -1.7660   15.0700   -2.6880 N   0  0  0  0  0  0  0  0  0  0  0  0
   -1.6860   14.8280   -1.2450 C   0  0  1  0  0  0  0  0  0  0  0  0
   -0.5910   14.6940   -0.5340 N   0  0  0  0  0  0  0  0  0  0  0  0
   -0.5910   14.5580    0.7860 C   0  0  0  0  0  0  0  0  0  0  0  0
   -1.7050   14.6020    1.4550 N   0  0  0  0  0  0  0  0  0  0  0  0
   -2.8740   14.7730    0.8100 C   0  0  0  0  0  0  0  0  0  0  0  0
   -4.1680   14.8780    1.2340 N   0  0  0  0  0  0  0  0  0  0  0  0
   -4.8840   15.0680    0.1110 C   0  0  0  0  0  0  0  0  0  0  0  0
   -4.1260   15.1040   -0.9600 N   0  0  0  0  0  0  0  0  0  0  0  0
   -2.8700   14.9260   -0.5470 C   0  0  0  0  0  0  0  0  0  0  0  0
    0.2480   12.8490   -2.5900 C   0  0  0  0  0  0  0  0  0  0  0  0
  1  2  1  0
  2  3  1  0
  3  4  1  0
  4  5  1  0
  5  6  1  0
  7  6  1  1
  7  8  1  0
  8  9  1  0
  9 10  1  0
 10 11  1  0
 11 12  1  0
 12 13  1  0
 13 14  1  0
  7 15  1  0
 11 15  1  0
 14 15  1  0
  1 16  1  0
  4 16  1  0
M  END
