ucsf412-ucsf442
     RDKit          3D

 12 13  0  0  0  0  0  0  0  0999 V2000
   -8.0040   15.1320   -0.5170 O   0  0  0  0  0  0  0  0  0  0  0  0
   -7.0500   14.3680    0.1850 C   0  0  2  0  0  0  0  0  0  0  0  0
   -7.0960   14.8010    1.5660 N   0  0  0  0  0  0  0  0  0  0  0  0
   -5.6750   14.4590   -0.4890 C   0  0  2  0  0  0  0  0  0  0  0  0
   -4.6430   15.2270    0.3330 C   0  0  1  0  0  0  0  0  0  0  0  0
   -5.9360   14.5310    2.4040 C   0  0  0  0  0  0  0  0  0  0  0  0
   -5.6940   15.0570   -1.9020 C   0  0  0  0  0  0  0  0  0  0  0  0
   -4.5610   14.7840    1.7810 C   0  0  0  0  0  0  0  0  0  0  0  0
   -3.3140   15.2180   -0.4250 C   0  0  1  0  0  0  0  0  0  0  0  0
   -4.3640   14.8250   -2.6300 C   0  0  0  0  0  0  0  0  0  0  0  0
   -2.1610   14.9970    0.4220 O   0  0  0  0  0  0  0  0  0  0  0  0
   -3.3030   14.3280   -1.6570 C   0  0  0  0  0  0  0  0  0  0  0  0
  2  1  1  6
  2  3  1  0
  2  4  1  0
  4  5  1  0
  3  6  1  0
  4  7  1  6
  5  8  1  1
  6  8  1  0
  5  9  1  0
  7 10  1  0
  9 11  1  1
  9 12  1  0
 10 12  1  0
M  END
