ucsf247-ucsf006
     RDKit          3D

 22 24  0  0  0  0  0  0  0  0999 V2000
    0.7790   13.4330   -1.5570 O   0  0  0  0  0  0  0  0  0  0  0  0
    0.2960   13.2090   -2.7670 C   0  0  2  0  0  0  0  0  0  0  0  0
    1.2480   13.5470   -3.7750 O   0  0  0  0  0  0  0  0  0  0  0  0
   -0.8830   14.1970   -3.0300 C   0  0  0  0  0  0  0  0  0  0  0  0
   -2.1060   13.9960   -2.2440 N   0  0  0  0  0  0  0  0  0  0  0  0
    1.2430   12.5840   -4.8190 C   0  0  1  0  0  0  0  0  0  0  0  0
   -3.0640   15.0270   -2.5730 C   0  0  1  0  0  0  0  0  0  0  0  0
    0.3400   13.0170   -5.8230 O   0  0  0  0  0  0  0  0  0  0  0  0
    2.4530   12.5850   -5.2970 O   0  0  0  0  0  0  0  0  0  0  0  0
   -1.8210   14.0850   -0.8140 C   0  0  2  0  0  0  0  0  0  0  0  0
   -3.8680   14.5990   -3.6390 O   0  0  0  0  0  0  0  0  0  0  0  0
   -3.8890   15.2810   -1.3000 C   0  0  2  0  0  0  0  0  0  0  0  0
   -3.1280   14.5980   -0.1210 C   0  0  1  0  0  0  0  0  0  0  0  0
   -0.6620   14.8970   -0.5040 N   0  0  0  0  0  0  0  0  0  0  0  0
   -5.3110   14.7900   -1.4480 C   0  0  0  0  0  0  0  0  0  0  0  0
   -4.0970   13.5860    0.5720 C   0  0  0  0  0  0  0  0  0  0  0  0
   -2.6290   15.3480    1.1210 C   0  0  0  0  0  0  0  0  0  0  0  0
   -0.2700   14.6390    0.8620 C   0  0  0  0  0  0  0  0  0  0  0  0
   -6.0390   14.9710   -0.1660 C   0  0  2  0  0  0  0  0  0  0  0  0
   -5.4500   14.1740    0.9800 C   0  0  0  0  0  0  0  0  0  0  0  0
   -1.4740   14.6360    1.7030 N   0  0  0  0  0  0  0  0  0  0  0  0
   -7.4450   14.7290   -0.3390 O   0  0  0  0  0  0  0  0  0  0  0  0
  2  1  1  1
  2  3  1  0
  2  4  1  0
  4  5  1  0
  3  6  1  0
  5  7  1  0
  6  8  1  6
  6  9  1  0
  5 10  1  0
  7 11  1  6
  7 12  1  0
 10 13  1  0
 12 13  1  0
 10 14  1  6
 12 15  1  6
 13 16  1  1
 13 17  1  0
 14 18  1  0
 15 19  1  0
 16 20  1  0
 19 20  1  0
 17 21  1  0
 18 21  1  0
 19 22  1  6
M  CHG  2   1  -1   9  -1
M  END
