ucsf365-ucsf519
     RDKit          3D

 22 23  0  0  0  0  0  0  0  0999 V2000
    0.0520   11.0080   -1.6360 O   0  0  0  0  0  0  0  0  0  0  0  0
    0.5170   11.6060   -2.7420 C   0  0  2  0  0  0  0  0  0  0  0  0
    1.6710   12.2560   -2.2380 O   0  0  0  0  0  0  0  0  0  0  0  0
   -0.4450   12.7300   -3.2440 C   0  0  1  0  0  0  0  0  0  0  0  0
    0.3120   13.9120   -4.4680 S   0  0  0  0  0  0  0  0  0  0  0  0
   -1.8070   12.3480   -3.8780 C   0  0  2  0  0  0  0  0  0  0  0  0
   -0.5800   15.4260   -3.8790 C   0  0  1  0  0  0  0  0  0  0  0  0
   -1.7950   11.3470   -5.0440 C   0  0  2  0  0  0  0  0  0  0  0  0
   -2.6120   13.5810   -4.3210 C   0  0  0  0  0  0  0  0  0  0  0  0
   -0.5530   11.3150   -5.7270 O   0  0  0  0  0  0  0  0  0  0  0  0
   -0.3230   16.5000   -4.9400 C   0  0  0  0  0  0  0  0  0  0  0  0
   -2.1350   15.3660   -3.5090 C   0  0  1  0  0  0  0  0  0  0  0  0
   -2.9250   11.6680   -6.0480 C   0  0  0  0  0  0  0  0  0  0  0  0
   -2.3030   14.0620   -5.7500 C   0  0  0  0  0  0  0  0  0  0  0  0
   -2.9580   14.6520   -4.4060 O   0  0  0  0  0  0  0  0  0  0  0  0
   -2.7930   13.0290   -6.7270 C   0  0  0  0  0  0  0  0  0  0  0  0
   -2.6230   15.1990   -2.1230 N   0  0  0  0  0  0  0  0  0  0  0  0
   -4.0390   15.0250   -1.8620 C   0  0  0  0  0  0  0  0  0  0  0  0
   -1.9340   14.4660   -1.1060 C   0  0  1  0  0  0  0  0  0  0  0  0
   -0.6270   14.9460   -0.9360 O   0  0  0  0  0  0  0  0  0  0  0  0
   -4.0460   15.1310   -0.3380 C   0  0  0  0  0  0  0  0  0  0  0  0
   -2.6640   14.8190    0.1030 N   0  0  0  0  0  0  0  0  0  0  0  0
  2  1  1  1
  2  3  1  0
  2  4  1  0
  4  5  1  6
  4  6  1  0
  5  7  1  0
  6  8  1  0
  6  9  1  6
  8 10  1  6
  7 11  1  6
  7 12  1  0
  8 13  1  0
  9 14  1  0
 12 15  1  6
 13 16  1  0
 14 16  1  0
 12 17  1  0
 17 18  1  0
 17 19  1  0
 19 20  1  1
 18 21  1  0
 19 22  1  0
 21 22  1  0
M  CHG  1   1  -1
M  END
