ucsf274-ucsf357
     RDKit          3D

 28 30  0  0  0  0  0  0  0  0999 V2000
    0.7250   11.0220   -2.5630 O   0  0  0  0  0  0  0  0  0  0  0  0
    1.1400   12.2720   -2.6320 C   0  0  2  0  0  0  0  0  0  0  0  0
    0.8690   12.6850   -1.3160 O   0  0  0  0  0  0  0  0  0  0  0  0
    0.2980   13.1460   -3.6180 C   0  0  2  0  0  0  0  0  0  0  0  0
    0.4870   12.8000   -5.1060 C   0  0  0  0  0  0  0  0  0  0  0  0
    0.2830   14.6660   -3.3810 C   0  0  0  0  0  0  0  0  0  0  0  0
   -1.0810   15.1320   -3.3610 O   0  0  0  0  0  0  0  0  0  0  0  0
   -0.2640   11.4980   -5.4140 C   0  0  1  0  0  0  0  0  0  0  0  0
   -1.8050   11.7470   -5.2750 C   0  0  2  0  0  0  0  0  0  0  0  0
    0.1200   10.9780   -6.7290 N   0  0  0  0  0  0  0  0  0  0  0  0
   -1.8490   14.5490   -2.2900 C   0  0  2  0  0  0  0  0  0  0  0  0
   -2.2090   11.9160   -3.9300 O   0  0  0  0  0  0  0  0  0  0  0  0
   -2.6310   10.6650   -5.8330 N   0  0  0  0  0  0  0  0  0  0  0  0
   -0.4830    9.6660   -6.8890 C   0  0  1  0  0  0  0  0  0  0  0  0
   -3.2830   15.1270   -2.3330 C   0  0  0  0  0  0  0  0  0  0  0  0
   -1.0370   14.7430   -0.9660 C   0  0  2  0  0  0  0  0  0  0  0  0
   -0.0300   13.7600   -0.8050 O   0  0  0  0  0  0  0  0  0  0  0  0
   -1.8080    9.4540   -6.0880 C   0  0  2  0  0  0  0  0  0  0  0  0
   -0.6050    9.4010   -8.3850 C   0  0  0  0  0  0  0  0  0  0  0  0
   -4.0300   15.2090   -0.9820 C   0  0  1  0  0  0  0  0  0  0  0  0
   -1.8360   14.7180    0.3250 C   0  0  0  0  0  0  0  0  0  0  0  0
   -5.4910   14.7340   -1.2000 C   0  0  2  0  0  0  0  0  0  0  0  0
   -1.1300    8.0050   -8.6700 C   0  0  0  0  0  0  0  0  0  0  0  0
   -2.7220    8.3910   -6.7050 C   0  0  0  0  0  0  0  0  0  0  0  0
   -3.3130   14.4110    0.1340 C   0  0  0  0  0  0  0  0  0  0  0  0
   -5.9910   15.2690   -2.2890 O   0  0  0  0  0  0  0  0  0  0  0  0
   -6.3430   15.2400   -0.1960 O   0  0  0  0  0  0  0  0  0  0  0  0
   -1.9120    7.3830   -7.5180 C   0  0  0  0  0  0  0  0  0  0  0  0
  2  1  1  1
  2  3  1  0
  2  4  1  0
  4  5  1  6
  4  6  1  0
  6  7  1  0
  8  5  1  6
  8  9  1  0
  8 10  1  0
 11  7  1  6
  9 12  1  1
  9 13  1  0
 10 14  1  0
 11 15  1  0
 11 16  1  0
 16 17  1  1
 13 18  1  0
 14 18  1  0
 14 19  1  6
 20 15  1  6
 16 21  1  0
 20 22  1  0
 19 23  1  0
 18 24  1  6
 20 25  1  0
 21 25  1  0
 22 26  1  6
 22 27  1  0
 23 28  1  0
 24 28  1  0
M  CHG  2   1  -1  26  -1
M  END
