ucsf243-ucsf114
     RDKit          3D

 22 23  0  0  0  0  0  0  0  0999 V2000
   -3.7670   15.5910    0.9630 C   0  0  0  0  0  0  0  0  0  0  0  0
   -3.2640   15.4690   -0.4730 C   0  0  2  0  0  0  0  0  0  0  0  0
   -4.1790   14.6100   -1.3460 C   0  0  0  0  0  0  0  0  0  0  0  0
   -1.7690   15.1460   -0.7310 C   0  0  2  0  0  0  0  0  0  0  0  0
   -1.4000   14.3010   -1.9820 C   0  0  1  0  0  0  0  0  0  0  0  0
   -3.8690   14.7150   -2.8370 C   0  0  0  0  0  0  0  0  0  0  0  0
   -0.9010   14.6090    0.4100 C   0  0  2  0  0  0  0  0  0  0  0  0
   -1.2960   12.7410   -1.6750 C   0  0  0  0  0  0  0  0  0  0  0  0
   -1.1840   15.3210    1.5980 O   0  0  0  0  0  0  0  0  0  0  0  0
   -2.3730   14.5930   -3.1860 C   0  0  1  0  0  0  0  0  0  0  0  0
   -0.0020   14.7390   -2.2420 N   0  0  0  0  0  0  0  0  0  0  0  0
    0.5040   14.8300    0.0590 N   0  0  0  0  0  0  0  0  0  0  0  0
   -2.0400   15.8600   -3.7660 O   0  0  0  0  0  0  0  0  0  0  0  0
   -0.1360   12.4470   -1.0720 O   0  0  0  0  0  0  0  0  0  0  0  0
    0.8030   14.1610   -1.2040 C   0  0  2  0  0  0  0  0  0  0  0  0
    2.5610   14.2970   -1.6240 S   0  0  0  0  0  0  0  0  0  0  0  0
   -1.7230   15.7320   -5.1230 C   0  0  0  0  0  0  0  0  0  0  0  0
   -0.4640   16.4210   -5.4160 N   0  0  0  0  0  0  0  0  0  0  0  0
   -0.4320   17.8460   -5.0520 C   0  0  0  0  0  0  0  0  0  0  0  0
    0.6650   15.6790   -4.8420 C   0  0  0  0  0  0  0  0  0  0  0  0
    0.9050   18.4220   -5.5360 C   0  0  0  0  0  0  0  0  0  0  0  0
   -1.5920   18.6490   -5.6800 C   0  0  0  0  0  0  0  0  0  0  0  0
  2  1  1  1
  2  3  1  0
  4  2  1  1
  4  5  1  0
  3  6  1  0
  4  7  1  0
  5  8  1  1
  7  9  1  1
  5 10  1  0
  6 10  1  0
  5 11  1  0
  7 12  1  0
 10 13  1  1
  8 14  1  0
 11 15  1  0
 12 15  1  0
 15 16  1  6
 13 17  1  0
 17 18  1  0
 18 19  1  0
 18 20  1  0
 19 21  1  0
 19 22  1  0
M  CHG  1  14  -1
M  END
