ucsf516-ucsf380
     RDKit          3D

 28 32  0  0  0  0  0  0  0  0999 V2000
    0.5410   13.2970   -2.1180 O   0  0  0  0  0  0  0  0  0  0  0  0
   -0.3030   12.4960   -1.5570 C   0  0  1  0  0  0  0  0  0  0  0  0
   -0.0250   12.7530   -0.2290 O   0  0  0  0  0  0  0  0  0  0  0  0
   -1.8010   12.8140   -1.8950 C   0  0  2  0  0  0  0  0  0  0  0  0
   -2.4940   13.5530   -0.6880 C   0  0  1  0  0  0  0  0  0  0  0  0
   -2.3500   11.8070   -2.9490 C   0  0  0  0  0  0  0  0  0  0  0  0
   -2.2950   14.9980   -0.8960 C   0  0  1  0  0  0  0  0  0  0  0  0
   -3.9570   13.6330   -0.2270 C   0  0  0  0  0  0  0  0  0  0  0  0
   -3.7560   12.0070   -3.5170 C   0  0  0  0  0  0  0  0  0  0  0  0
   -1.2680   11.6990   -4.0560 C   0  0  0  0  0  0  0  0  0  0  0  0
   -2.5930   15.4300    0.5420 C   0  0  1  0  0  0  0  0  0  0  0  0
   -0.8750   15.2900   -1.3600 C   0  0  1  0  0  0  0  0  0  0  0  0
   -3.8770   14.7440    0.7960 N   0  0  0  0  0  0  0  0  0  0  0  0
   -4.0270   11.0420   -4.6700 C   0  0  0  0  0  0  0  0  0  0  0  0
   -1.6220   10.8460   -5.2500 C   0  0  0  0  0  0  0  0  0  0  0  0
   -0.6830   15.7070   -2.7750 N   0  0  0  0  0  0  0  0  0  0  0  0
   -0.3280   16.0720   -0.2960 N   0  0  0  0  0  0  0  0  0  0  0  0
   -1.5460   15.0300    1.4660 N   0  0  0  0  0  0  0  0  0  0  0  0
   -3.0020   11.1920   -5.7790 C   0  0  0  0  0  0  0  0  0  0  0  0
   -0.2120   14.6280   -3.7030 C   0  0  2  0  0  0  0  0  0  0  0  0
   -2.0070   16.0990   -3.3640 C   0  0  0  0  0  0  0  0  0  0  0  0
   -0.2460   15.1420    0.8010 C   0  0  0  0  0  0  0  0  0  0  0  0
    1.3030   14.3170   -3.8560 C   0  0  0  0  0  0  0  0  0  0  0  0
   -0.7720   14.9800   -5.0600 C   0  0  0  0  0  0  0  0  0  0  0  0
   -2.1850   15.3570   -4.6870 C   0  0  0  0  0  0  0  0  0  0  0  0
    2.2890   13.8810   -2.7310 C   0  0  0  0  0  0  0  0  0  0  0  0
    1.6300   12.9630   -4.5510 C   0  0  0  0  0  0  0  0  0  0  0  0
    2.2270   12.4430   -3.2470 C   0  0  0  0  0  0  0  0  0  0  0  0
  2  1  1  6
  2  3  1  0
  2  4  1  0
  4  5  1  0
  4  6  1  1
  5  7  1  0
  5  8  1  6
  6  9  1  0
  6 10  1  0
  7 11  1  0
  7 12  1  1
  8 13  1  0
 11 13  1  1
  9 14  1  0
 10 15  1  0
 12 16  1  6
 12 17  1  0
 11 18  1  0
 14 19  1  0
 15 19  1  0
 16 20  1  0
 16 21  1  0
 17 22  1  0
 18 22  1  0
 20 23  1  6
 20 24  1  0
 21 25  1  0
 24 25  1  0
 23 26  1  0
 23 27  1  0
 26 28  1  0
 27 28  1  0
M  CHG  1   1  -1
M  END
