ucsf016-ucsf258
     RDKit          3D

 21 24  0  0  0  0  0  0  0  0999 V2000
   -0.5430   13.0690   -0.8870 O   0  0  0  0  0  0  0  0  0  0  0  0
   -1.5990   13.0670   -1.7210 C   0  0  2  0  0  0  0  0  0  0  0  0
   -0.9430   13.3080   -2.9420 O   0  0  0  0  0  0  0  0  0  0  0  0
   -2.7460   14.1950   -1.4320 C   0  0  2  0  0  0  0  0  0  0  0  0
   -3.3370   14.3880   -2.7200 O   0  0  0  0  0  0  0  0  0  0  0  0
   -2.1420   15.4790   -0.9570 C   0  0  1  0  0  0  0  0  0  0  0  0
   -3.7740   13.8970   -0.3130 C   0  0  0  0  0  0  0  0  0  0  0  0
   -2.3980   15.5470    0.5260 C   0  0  1  0  0  0  0  0  0  0  0  0
   -0.6950   15.6160   -1.4140 C   0  0  2  0  0  0  0  0  0  0  0  0
   -3.2700   14.4680    0.9600 N   0  0  0  0  0  0  0  0  0  0  0  0
   -0.3360   15.4410   -2.8380 N   0  0  0  0  0  0  0  0  0  0  0  0
    0.1860   14.7780   -0.5510 N   0  0  0  0  0  0  0  0  0  0  0  0
   -1.1780   15.5250    1.2610 N   0  0  0  0  0  0  0  0  0  0  0  0
    0.8110   14.6280   -3.2710 C   0  0  0  0  0  0  0  0  0  0  0  0
   -1.3670   15.8190   -3.8330 C   0  0  0  0  0  0  0  0  0  0  0  0
   -0.3570   14.4610    0.7710 C   0  0  0  0  0  0  0  0  0  0  0  0
   -1.7260   14.7170   -4.8430 C   0  0  0  0  0  0  0  0  0  0  0  0
    0.4420   13.5570   -4.3300 C   0  0  0  0  0  0  0  0  0  0  0  0
   -3.0220   13.9280   -4.7080 C   0  0  0  0  0  0  0  0  0  0  0  0
   -2.9250   14.9850   -5.7540 C   0  0  0  0  0  0  0  0  0  0  0  0
   -0.5060   14.0510   -5.4200 C   0  0  0  0  0  0  0  0  0  0  0  0
  2  1  1  1
  2  3  1  0
  2  4  1  0
  4  5  1  6
  4  6  1  0
  4  7  1  0
  6  8  1  0
  6  9  1  1
  7 10  1  0
  8 10  1  1
  9 11  1  6
  9 12  1  0
  8 13  1  0
 11 14  1  0
 11 15  1  0
 12 16  1  0
 13 16  1  0
 17 15  1  0
 14 18  1  0
 17 19  1  0
 17 20  1  0
 19 20  1  0
 17 21  1  0
 18 21  1  0
M  CHG  1   1  -1
M  END
