ucsf348-ucsf172
     RDKit          3D

 18 20  0  0  0  0  0  0  0  0999 V2000
   -6.9700   14.8500    1.0020 N   0  0  0  0  0  0  0  0  0  0  0  0
   -6.1640   13.5290    1.2670 S   0  0  0  0  0  0  0  0  0  0  0  0
   -6.3780   12.5290    0.0660 O   0  0  0  0  0  0  0  0  0  0  0  0
   -6.5550   15.3070   -0.2580 C   0  0  2  0  0  0  0  0  0  0  0  0
   -6.8930   12.8630    2.4620 O   0  0  0  0  0  0  0  0  0  0  0  0
   -4.5640   13.9480    1.4430 N   0  0  0  0  0  0  0  0  0  0  0  0
   -6.9960   14.2480   -1.1230 N   0  0  0  0  0  0  0  0  0  0  0  0
   -5.0150   15.4140   -0.4790 C   0  0  2  0  0  0  0  0  0  0  0  0
   -6.2940   14.7120   -2.2790 C   0  0  2  0  0  0  0  0  0  0  0  0
   -4.9060   14.6030   -1.7280 C   0  0  1  0  0  0  0  0  0  0  0  0
   -3.9490   14.9570    0.5320 C   0  0  2  0  0  0  0  0  0  0  0  0
   -6.7330   16.0240   -2.4420 O   0  0  0  0  0  0  0  0  0  0  0  0
   -2.5770   14.5140   -0.1710 C   0  0  0  0  0  0  0  0  0  0  0  0
   -3.6980   14.9960   -2.4720 C   0  0  0  0  0  0  0  0  0  0  0  0
   -2.6070   14.2210   -1.7340 C   0  0  1  0  0  0  0  0  0  0  0  0
   -1.3030   14.0650   -2.5700 C   0  0  2  0  0  0  0  0  0  0  0  0
   -0.2700   14.8580   -2.0470 O   0  0  0  0  0  0  0  0  0  0  0  0
   -1.4420   14.5640   -3.7840 O   0  0  0  0  0  0  0  0  0  0  0  0
  1  2  1  0
  2  3  1  0
  4  1  1  1
  2  5  1  0
  2  6  1  0
  4  7  1  0
  8  4  1  1
  7  9  1  0
  8 10  1  0
  9 10  1  0
  6 11  1  0
  8 11  1  0
  9 12  1  1
 11 13  1  6
 10 14  1  6
 15 13  1  1
 14 15  1  0
 15 16  1  0
 16 17  1  1
 16 18  1  0
M  CHG  1  18  -1
M  END
