ucsf387-ucsf340
     RDKit          3D

 17 18  0  0  0  0  0  0  0  0999 V2000
    1.0080   17.8750   -5.3030 Cl  0  0  0  0  0  0  0  0  0  0  0  0
   -0.0270   16.7450   -4.3660 C   0  0  1  0  0  0  0  0  0  0  0  0
   -1.1370   16.3400   -5.3200 C   0  0  1  0  0  0  0  0  0  0  0  0
    0.7040   15.5530   -3.6360 C   0  0  2  0  0  0  0  0  0  0  0  0
    2.0080   15.2440   -4.2410 C   0  0  0  0  0  0  0  0  0  0  0  0
   -0.0430   14.1920   -3.5600 C   0  0  2  0  0  0  0  0  0  0  0  0
   -1.8250   14.9850   -5.0080 C   0  0  2  0  0  0  0  0  0  0  0  0
   -2.1670   17.3950   -5.8040 C   0  0  0  0  0  0  0  0  0  0  0  0
   -2.7420   15.1920   -3.4500 Cl  0  0  0  0  0  0  0  0  0  0  0  0
    0.8030   12.9130   -3.2840 C   0  0  0  0  0  0  0  0  0  0  0  0
   -0.8070   13.9080   -4.8170 C   0  0  0  0  0  0  0  0  0  0  0  0
   -2.9790   14.5000   -5.8790 C   0  0  0  0  0  0  0  0  0  0  0  0
   -3.3940   16.7700   -6.5180 C   0  0  0  0  0  0  0  0  0  0  0  0
    0.0400   11.9840   -2.3170 C   0  0  1  0  0  0  0  0  0  0  0  0
   -4.0170   15.5540   -5.8840 C   0  0  0  0  0  0  0  0  0  0  0  0
    0.5560   10.7660   -2.2500 O   0  0  0  0  0  0  0  0  0  0  0  0
    0.2830   12.4770   -1.0280 O   0  0  0  0  0  0  0  0  0  0  0  0
  2  1  1  6
  2  3  1  0
  2  4  1  0
  4  5  1  6
  4  6  1  0
  3  7  1  0
  3  8  1  1
  7  9  1  1
  6 10  1  6
  6 11  1  0
  7 11  1  0
  7 12  1  0
  8 13  1  0
 10 14  1  0
 12 15  1  0
 13 15  1  0
 14 16  1  1
 14 17  1  0
M  CHG  1  16  -1
M  END
