ucsf357-ucsf367
     RDKit          3D

 23 24  0  0  0  0  0  0  0  0999 V2000
   -5.9530   15.3190   -2.2070 O   0  0  0  0  0  0  0  0  0  0  0  0
   -5.5210   14.5830   -1.2200 C   0  0  2  0  0  0  0  0  0  0  0  0
   -6.0020   15.2790   -0.0930 O   0  0  0  0  0  0  0  0  0  0  0  0
   -3.9710   14.5240   -1.1910 C   0  0  1  0  0  0  0  0  0  0  0  0
   -3.3650   15.1190   -2.4650 C   0  0  0  0  0  0  0  0  0  0  0  0
   -3.2590   15.0200    0.0720 C   0  0  0  0  0  0  0  0  0  0  0  0
   -1.8760   14.8270   -2.6220 C   0  0  2  0  0  0  0  0  0  0  0  0
   -1.7700   14.6880    0.0710 C   0  0  0  0  0  0  0  0  0  0  0  0
   -1.7660   13.7150   -3.3910 F   0  0  0  0  0  0  0  0  0  0  0  0
   -1.0370   14.7010   -1.3060 C   0  0  1  0  0  0  0  0  0  0  0  0
   -0.1410   13.5870   -1.2890 O   0  0  0  0  0  0  0  0  0  0  0  0
    1.1830   13.8660   -1.7710 C   0  0  0  0  0  0  0  0  0  0  0  0
    1.6560   12.7870   -2.5580 O   0  0  0  0  0  0  0  0  0  0  0  0
    0.5630   12.1470   -3.2440 C   0  0  2  0  0  0  0  0  0  0  0  0
    0.6340   10.8390   -3.0290 O   0  0  0  0  0  0  0  0  0  0  0  0
    0.7400   12.5170   -4.7590 C   0  0  0  0  0  0  0  0  0  0  0  0
    0.7430   11.3380   -5.5950 O   0  0  0  0  0  0  0  0  0  0  0  0
   -0.5000   10.9800   -6.1980 C   0  0  0  0  0  0  0  0  0  0  0  0
   -0.4180    9.4790   -6.5120 C   0  0  0  0  0  0  0  0  0  0  0  0
   -1.6730   11.3240   -5.2640 C   0  0  0  0  0  0  0  0  0  0  0  0
   -1.7000    8.9260   -7.1060 C   0  0  0  0  0  0  0  0  0  0  0  0
   -2.6180   10.1510   -5.0590 C   0  0  0  0  0  0  0  0  0  0  0  0
   -2.9370    9.4220   -6.3610 C   0  0  0  0  0  0  0  0  0  0  0  0
  2  1  1  6
  2  3  1  0
  2  4  1  0
  4  5  1  6
  4  6  1  0
  5  7  1  0
  6  8  1  0
  7  9  1  1
  7 10  1  0
  8 10  1  0
 10 11  1  6
 11 12  1  0
 12 13  1  0
 13 14  1  0
 14 15  1  6
 14 16  1  0
 16 17  1  0
 17 18  1  0
 18 19  1  0
 18 20  1  0
 19 21  1  0
 20 22  1  0
 21 23  1  0
 22 23  1  0
M  CHG  2   1  -1  15  -1
M  END
