ucsf345-ucsf424
     RDKit          3D

 25 27  0  0  0  0  0  0  0  0999 V2000
   -6.8800   14.6200    1.4180 N   0  0  0  0  0  0  0  0  0  0  0  0
   -6.9770   14.9290   -0.0040 C   0  0  2  0  0  0  0  0  0  0  0  0
   -7.4790   13.7790   -0.6330 O   0  0  0  0  0  0  0  0  0  0  0  0
   -5.6130   15.3420   -0.6560 C   0  0  2  0  0  0  0  0  0  0  0  0
   -5.5640   14.8600   -2.0910 N   0  0  0  0  0  0  0  0  0  0  0  0
   -4.4150   14.9840    0.2850 C   0  0  0  0  0  0  0  0  0  0  0  0
   -4.1930   14.9400   -2.6260 C   0  0  0  0  0  0  0  0  0  0  0  0
   -3.1330   15.0660   -0.3950 N   0  0  0  0  0  0  0  0  0  0  0  0
   -3.1740   14.3160   -1.6400 C   0  0  2  0  0  0  0  0  0  0  0  0
   -1.7560   14.1390   -2.2010 C   0  0  0  0  0  0  0  0  0  0  0  0
   -1.0530   12.9080   -1.6120 C   0  0  0  0  0  0  0  0  0  0  0  0
   -1.1820   11.6370   -2.4570 C   0  0  0  0  0  0  0  0  0  0  0  0
    0.1350   11.2130   -2.8060 O   0  0  0  0  0  0  0  0  0  0  0  0
    0.9220   12.2710   -3.3850 C   0  0  2  0  0  0  0  0  0  0  0  0
    0.9580   13.2700   -2.5360 O   0  0  0  0  0  0  0  0  0  0  0  0
    0.1950   12.7240   -4.6820 C   0  0  0  0  0  0  0  0  0  0  0  0
    0.3950   11.6880   -5.8010 C   0  0  2  0  0  0  0  0  0  0  0  0
    0.2580   12.1070   -7.1800 N   0  0  0  0  0  0  0  0  0  0  0  0
   -0.4790   10.4310   -5.7600 C   0  0  2  0  0  0  0  0  0  0  0  0
    0.4140   10.8570   -7.9150 O   0  0  0  0  0  0  0  0  0  0  0  0
   -0.1760    9.8180   -7.1290 C   0  0  2  0  0  0  0  0  0  0  0  0
   -1.9890   10.6280   -5.5950 C   0  0  0  0  0  0  0  0  0  0  0  0
   -1.3910    9.2760   -7.8780 C   0  0  0  0  0  0  0  0  0  0  0  0
   -2.7380    9.3010   -5.7470 C   0  0  0  0  0  0  0  0  0  0  0  0
   -2.2980    8.4790   -6.9570 C   0  0  0  0  0  0  0  0  0  0  0  0
  2  1  1  1
  2  3  1  0
  2  4  1  0
  4  5  1  0
  4  6  1  1
  5  7  1  0
  6  8  1  0
  7  9  1  0
  8  9  1  0
  9 10  1  6
 10 11  1  0
 11 12  1  0
 12 13  1  0
 13 14  1  0
 14 15  1  1
 14 16  1  0
 17 16  1  1
 17 18  1  0
 17 19  1  0
 18 20  1  0
 19 21  1  0
 20 21  1  0
 19 22  1  6
 21 23  1  6
 22 24  1  0
 23 25  1  0
 24 25  1  0
M  CHG  1  15  -1
M  END
