ucsf012-ucsf028
     RDKit          3D

 20 22  0  0  0  0  0  0  0  0999 V2000
   -3.3140   15.3630   -4.0910 C   0  0  0  0  0  0  0  0  0  0  0  0
   -2.8720   14.7650   -2.7610 C   0  0  2  0  0  0  0  0  0  0  0  0
   -3.6650   15.2450   -1.5280 C   0  0  1  0  0  0  0  0  0  0  0  0
   -1.4610   14.9480   -2.3350 N   0  0  0  0  0  0  0  0  0  0  0  0
   -5.1640   15.0180   -1.6230 C   0  0  0  0  0  0  0  0  0  0  0  0
   -0.4920   14.3260   -3.2440 C   0  0  0  0  0  0  0  0  0  0  0  0
   -2.8470   14.5990   -0.3940 C   0  0  1  0  0  0  0  0  0  0  0  0
   -1.4640   14.3360   -1.0000 C   0  0  2  0  0  0  0  0  0  0  0  0
   -2.6370   15.2110    0.9740 C   0  0  1  0  0  0  0  0  0  0  0  0
   -0.4330   14.9760   -0.2070 N   0  0  0  0  0  0  0  0  0  0  0  0
   -0.6360   12.8020   -3.2250 C   0  0  2  0  0  0  0  0  0  0  0  0
   -3.8620   15.3570    1.7230 N   0  0  0  0  0  0  0  0  0  0  0  0
   -1.6910   14.4840    1.7540 N   0  0  0  0  0  0  0  0  0  0  0  0
   -0.3780   14.4110    1.1190 C   0  0  0  0  0  0  0  0  0  0  0  0
    0.5800   12.0170   -2.8060 C   0  0  0  0  0  0  0  0  0  0  0  0
   -0.9720   12.2210   -4.4740 O   0  0  0  0  0  0  0  0  0  0  0  0
   -0.9170   10.8210   -4.2050 C   0  0  2  0  0  0  0  0  0  0  0  0
   -0.0670   10.6630   -2.9370 C   0  0  0  0  0  0  0  0  0  0  0  0
   -0.3540   10.1070   -5.2870 O   0  0  0  0  0  0  0  0  0  0  0  0
   -0.2470   10.9170   -6.4520 C   0  0  0  0  0  0  0  0  0  0  0  0
  2  1  1  6
  2  3  1  0
  2  4  1  0
  3  5  1  6
  4  6  1  0
  3  7  1  0
  4  8  1  0
  7  8  1  0
  7  9  1  1
  8 10  1  1
 11  6  1  6
  9 12  1  1
  9 13  1  0
 10 14  1  0
 13 14  1  0
 11 15  1  0
 11 16  1  0
 16 17  1  0
 15 18  1  0
 17 18  1  0
 17 19  1  6
 19 20  1  0
M  END
