ucsf364-ucsf378
     RDKit          3D

 20 22  0  0  0  0  0  0  0  0999 V2000
    1.6800   13.4730   -5.1550 C   0  0  0  0  0  0  0  0  0  0  0  0
    1.0350   12.1870   -5.0480 C   0  0  2  0  0  0  0  0  0  0  0  0
    0.3680   12.0980   -6.3900 C   0  0  1  0  0  0  0  0  0  0  0  0
    0.8330   14.5690   -4.8580 C   0  0  1  0  0  0  0  0  0  0  0  0
    0.0130   12.1200   -3.9930 C   0  0  2  0  0  0  0  0  0  0  0  0
   -0.5380   14.2440   -4.3040 C   0  0  1  0  0  0  0  0  0  0  0  0
    1.4760   15.6120   -4.0700 C   0  0  0  0  0  0  0  0  0  0  0  0
    1.2360   11.5600   -7.3280 O   0  0  0  0  0  0  0  0  0  0  0  0
    0.6710   12.8170   -2.5780 S   0  0  0  0  0  0  0  0  0  0  0  0
   -0.6670   13.5740   -3.0080 C   0  0  0  0  0  0  0  0  0  0  0  0
   -0.6160   10.7810   -4.0840 C   0  0  0  0  0  0  0  0  0  0  0  0
   -0.9090   11.3720   -6.4550 C   0  0  0  0  0  0  0  0  0  0  0  0
    0.8020   16.9020   -4.2610 C   0  0  0  0  0  0  0  0  0  0  0  0
   -1.2660   15.4080   -4.6190 C   0  0  1  0  0  0  0  0  0  0  0  0
    1.1850   13.8790   -1.2030 O   0  0  0  0  0  0  0  0  0  0  0  0
   -0.4120   11.1510   -1.2750 O   0  0  0  0  0  0  0  0  0  0  0  0
    2.3190   12.3910   -2.7290 O   0  0  0  0  0  0  0  0  0  0  0  0
   -2.9400   15.3760   -4.0070 Cl  0  0  0  0  0  0  0  0  0  0  0  0
   -0.8890   10.2380   -5.4200 C   0  0  0  0  0  0  0  0  0  0  0  0
   -0.6430   16.7590   -4.8290 C   0  0  0  0  0  0  0  0  0  0  0  0
  2  1  1  6
  2  3  1  0
  4  1  1  1
  2  5  1  0
  4  6  1  0
  4  7  1  0
  3  8  1  6
  5  9  1  0
  6 10  1  1
  9 10  1  0
  5 11  1  1
  3 12  1  0
  7 13  1  0
  6 14  1  0
  9 15  1  0
  9 16  1  0
  9 17  1  0
 14 18  1  1
 11 19  1  0
 12 19  1  0
 13 20  1  0
 14 20  1  0
M  CHG  1  16  -1
M  END
