ucsf520-ucsf333
     RDKit          3D

 25 27  0  0  0  0  0  0  0  0999 V2000
   -4.7100   15.2090    0.9200 N   0  0  0  0  0  0  0  0  0  0  0  0
   -3.6970   14.8810   -0.0770 C   0  0  2  0  0  0  0  0  0  0  0  0
   -2.3730   15.5320    0.4570 C   0  0  0  0  0  0  0  0  0  0  0  0
   -3.9570   15.3340   -1.4760 N   0  0  0  0  0  0  0  0  0  0  0  0
   -5.7670   15.4640   -1.5500 Cl  0  0  0  0  0  0  0  0  0  0  0  0
   -3.4340   14.5400   -2.6560 C   0  0  2  0  0  0  0  0  0  0  0  0
   -1.6310   14.7300    1.4490 N   0  0  0  0  0  0  0  0  0  0  0  0
   -0.2110   14.8060    1.2560 C   0  0  0  0  0  0  0  0  0  0  0  0
   -1.9310   14.3800   -3.1990 C   0  0  1  0  0  0  0  0  0  0  0  0
   -4.0230   14.9690   -4.0310 C   0  0  0  0  0  0  0  0  0  0  0  0
    0.1930   13.9480    0.2020 N   0  0  0  0  0  0  0  0  0  0  0  0
   -1.0550   15.6680   -3.5880 C   0  0  2  0  0  0  0  0  0  0  0  0
   -3.4790   14.0800   -5.0600 N   0  0  0  0  0  0  0  0  0  0  0  0
   -0.7520   13.3060   -2.1980 S   0  0  0  0  0  0  0  0  0  0  0  0
   -2.2110   13.5920   -4.5060 C   0  0  0  0  0  0  0  0  0  0  0  0
   -0.0230   14.5190   -1.1010 C   0  0  0  0  0  0  0  0  0  0  0  0
   -1.7840   16.7500   -4.2200 O   0  0  0  0  0  0  0  0  0  0  0  0
    0.1180   15.4650   -4.5880 C   0  0  1  0  0  0  0  0  0  0  0  0
    0.4700   16.8860   -4.9960 C   0  0  0  0  0  0  0  0  0  0  0  0
   -0.8200   17.6510   -4.8110 C   0  0  0  0  0  0  0  0  0  0  0  0
    1.3050   14.6830   -4.0130 C   0  0  0  0  0  0  0  0  0  0  0  0
    1.2270   13.1640   -4.2700 C   0  0  0  0  0  0  0  0  0  0  0  0
    1.6670   12.2640   -3.1010 C   0  0  1  0  0  0  0  0  0  0  0  0
    1.5320   12.8450   -1.9500 O   0  0  0  0  0  0  0  0  0  0  0  0
    0.7580   11.1770   -2.9710 O   0  0  0  0  0  0  0  0  0  0  0  0
  2  1  1  1
  2  3  1  0
  2  4  1  0
  4  5  1  0
  4  6  1  0
  3  7  1  0
  7  8  1  0
  6  9  1  0
  6 10  1  6
  8 11  1  0
  9 12  1  0
 10 13  1  0
  9 14  1  0
  9 15  1  6
 13 15  1  0
 11 16  1  0
 14 16  1  0
 12 17  1  6
 12 18  1  0
 18 19  1  0
 17 20  1  0
 19 20  1  0
 18 21  1  1
 21 22  1  0
 22 23  1  0
 23 24  1  1
 23 25  1  0
M  CHG  1  24  -1
M  END
