ucsf339-ucsf274
     RDKit          3D

 29 32  0  0  0  0  0  0  0  0999 V2000
    1.2250   14.8090   -3.1700 O   0  0  0  0  0  0  0  0  0  0  0  0
    0.4330   13.7400   -3.2550 C   0  0  2  0  0  0  0  0  0  0  0  0
    0.7900   12.7510   -2.2600 O   0  0  0  0  0  0  0  0  0  0  0  0
    0.6680   13.0720   -4.6880 C   0  0  0  0  0  0  0  0  0  0  0  0
   -1.0940   14.1350   -3.1080 C   0  0  1  0  0  0  0  0  0  0  0  0
    0.3090   11.4000   -2.4520 C   0  0  0  0  0  0  0  0  0  0  0  0
   -1.7370   14.4200   -1.7210 C   0  0  0  0  0  0  0  0  0  0  0  0
   -1.5740   15.1620   -4.1590 C   0  0  0  0  0  0  0  0  0  0  0  0
   -0.0740   11.7200   -5.0890 C   0  0  1  0  0  0  0  0  0  0  0  0
    0.5470   10.7070   -1.3590 O   0  0  0  0  0  0  0  0  0  0  0  0
   -3.1610   14.9980   -1.8590 C   0  0  1  0  0  0  0  0  0  0  0  0
   -3.0330   15.3880   -4.2480 N   0  0  0  0  0  0  0  0  0  0  0  0
   -1.5610   11.5920   -4.6180 C   0  0  1  0  0  0  0  0  0  0  0  0
    0.0640   11.3860   -6.5480 N   0  0  0  0  0  0  0  0  0  0  0  0
   -2.4460   12.5770   -5.0880 O   0  0  0  0  0  0  0  0  0  0  0  0
   -3.7510   14.6510   -3.2160 C   0  0  0  0  0  0  0  0  0  0  0  0
   -4.0760   14.7770   -0.6390 C   0  0  0  0  0  0  0  0  0  0  0  0
   -2.1920   10.3050   -4.8700 N   0  0  0  0  0  0  0  0  0  0  0  0
   -0.8530   10.3500   -7.1030 C   0  0  2  0  0  0  0  0  0  0  0  0
   -3.4100   14.8970    0.7300 C   0  0  0  0  0  0  0  0  0  0  0  0
   -4.9910   13.5480   -0.6900 C   0  0  0  0  0  0  0  0  0  0  0  0
   -2.1020    9.8900   -6.2730 C   0  0  1  0  0  0  0  0  0  0  0  0
    0.0130    9.1450   -7.5220 C   0  0  0  0  0  0  0  0  0  0  0  0
   -4.4600   15.4670    1.6240 C   0  0  0  0  0  0  0  0  0  0  0  0
   -5.6540   13.3690    0.6750 C   0  0  0  0  0  0  0  0  0  0  0  0
   -0.7530    8.1820   -8.4160 C   0  0  0  0  0  0  0  0  0  0  0  0
   -2.3200    8.3710   -6.3910 C   0  0  0  0  0  0  0  0  0  0  0  0
   -5.7880   14.7070    1.4120 C   0  0  0  0  0  0  0  0  0  0  0  0
   -2.1270    7.8670   -7.8250 C   0  0  0  0  0  0  0  0  0  0  0  0
  2  1  1  6
  2  3  1  0
  2  4  1  0
  2  5  1  0
  3  6  1  0
  5  7  1  1
  5  8  1  0
  9  4  1  6
  6 10  1  0
  7 11  1  0
  8 12  1  0
  9 13  1  0
  9 14  1  0
 13 15  1  6
 11 16  1  0
 12 16  1  0
 11 17  1  1
 13 18  1  0
 14 19  1  0
 17 20  1  0
 17 21  1  0
 18 22  1  0
 19 22  1  0
 19 23  1  1
 20 24  1  0
 21 25  1  0
 23 26  1  0
 22 27  1  1
 24 28  1  0
 25 28  1  0
 26 29  1  0
 27 29  1  0
M  CHG  2   1  -1  10  -1
M  END
