ucsf039-ucsf169
     RDKit          3D

 24 26  0  0  0  0  0  0  0  0999 V2000
   -4.1520   15.5270    1.3980 N   0  0  0  0  0  0  0  0  0  0  0  0
   -3.7150   14.7210    0.2700 C   0  0  2  0  0  0  0  0  0  0  0  0
   -2.2210   14.3430    0.3640 C   0  0  1  0  0  0  0  0  0  0  0  0
   -4.0280   15.5550   -0.8590 N   0  0  0  0  0  0  0  0  0  0  0  0
   -3.5690   14.8920   -2.0610 C   0  0  0  0  0  0  0  0  0  0  0  0
   -1.5040   14.2520   -1.0000 C   0  0  1  0  0  0  0  0  0  0  0  0
   -1.3790   15.1990    1.2250 N   0  0  0  0  0  0  0  0  0  0  0  0
   -2.1370   15.0200   -2.0890 N   0  0  0  0  0  0  0  0  0  0  0  0
   -0.1660   14.8090   -0.6790 N   0  0  0  0  0  0  0  0  0  0  0  0
   -0.0680   14.8380    0.7650 C   0  0  0  0  0  0  0  0  0  0  0  0
   -1.6300   14.6560   -3.4380 C   0  0  0  0  0  0  0  0  0  0  0  0
   -0.7220   15.6830   -4.1520 C   0  0  1  0  0  0  0  0  0  0  0  0
    0.4460   15.0890   -4.9110 C   0  0  2  0  0  0  0  0  0  0  0  0
   -1.3990   16.5750   -5.1580 N   0  0  0  0  0  0  0  0  0  0  0  0
    1.3950   14.0350   -4.2520 C   0  0  0  0  0  0  0  0  0  0  0  0
   -2.5080   17.3500   -4.6040 O   0  0  0  0  0  0  0  0  0  0  0  0
   -0.3860   17.5480   -5.5360 C   0  0  1  0  0  0  0  0  0  0  0  0
    1.1640   16.6170   -5.6410 S   0  0  0  0  0  0  0  0  0  0  0  0
   -0.8250   18.3400   -6.7730 C   0  0  0  0  0  0  0  0  0  0  0  0
   -0.2080   18.4060   -4.4550 O   0  0  0  0  0  0  0  0  0  0  0  0
    0.8150   13.1050   -3.1300 C   0  0  2  0  0  0  0  0  0  0  0  0
    1.1180   18.2840   -4.0510 C   0  0  0  0  0  0  0  0  0  0  0  0
    1.8430   12.8350   -2.1990 O   0  0  0  0  0  0  0  0  0  0  0  0
    0.5860   11.8750   -3.5530 O   0  0  0  0  0  0  0  0  0  0  0  0
  2  1  1  1
  2  3  1  0
  2  4  1  0
  4  5  1  0
  3  6  1  0
  3  7  1  1
  5  8  1  0
  6  8  1  0
  6  9  1  1
  7 10  1  0
  9 10  1  0
  8 11  1  0
 12 11  1  6
 12 13  1  0
 12 14  1  0
 13 15  1  1
 14 16  1  0
 14 17  1  0
 13 18  1  0
 17 18  1  0
 17 19  1  6
 17 20  1  0
 15 21  1  0
 20 22  1  0
 21 23  1  1
 21 24  1  0
M  CHG  1  24  -1
M  END
