ucsf348-ucsf123
     RDKit          3D

 24 26  0  0  0  0  0  0  0  0999 V2000
   -6.7320   14.7610    2.2030 N   0  0  0  0  0  0  0  0  0  0  0  0
   -5.9290   14.3640    1.0940 C   0  0  2  0  0  0  0  0  0  0  0  0
   -4.7060   15.0350    1.3310 N   0  0  0  0  0  0  0  0  0  0  0  0
   -6.4830   14.9100   -0.0960 N   0  0  0  0  0  0  0  0  0  0  0  0
   -5.6810   14.5060   -1.2420 C   0  0  1  0  0  0  0  0  0  0  0  0
   -3.6770   14.4720    0.4470 C   0  0  1  0  0  0  0  0  0  0  0  0
   -5.7210   15.5490   -2.1930 O   0  0  0  0  0  0  0  0  0  0  0  0
   -4.2580   13.9480   -0.8840 C   0  0  2  0  0  0  0  0  0  0  0  0
   -2.4030   15.2980    0.2980 C   0  0  0  0  0  0  0  0  0  0  0  0
   -2.1840   15.8040   -1.1460 C   0  0  0  0  0  0  0  0  0  0  0  0
   -3.2430   13.7770   -2.0880 C   0  0  0  0  0  0  0  0  0  0  0  0
   -2.0260   14.7490   -2.3050 C   0  0  2  0  0  0  0  0  0  0  0  0
   -0.4980   14.1760   -2.2130 C   0  0  1  0  0  0  0  0  0  0  0  0
   -2.3190   15.3990   -3.7390 C   0  0  0  0  0  0  0  0  0  0  0  0
   -0.1380   12.6320   -2.2930 C   0  0  1  0  0  0  0  0  0  0  0  0
   -1.1590   15.9630   -4.5880 C   0  0  1  0  0  0  0  0  0  0  0  0
    0.5360   14.9920   -3.0760 C   0  0  0  0  0  0  0  0  0  0  0  0
   -1.5890   17.3630   -5.6240 S   0  0  0  0  0  0  0  0  0  0  0  0
    1.0610   12.4380   -1.6110 O   0  0  0  0  0  0  0  0  0  0  0  0
   -0.8320   11.8460   -1.5170 O   0  0  0  0  0  0  0  0  0  0  0  0
    0.0480   16.2650   -3.7460 C   0  0  0  0  0  0  0  0  0  0  0  0
   -1.9640   18.8190   -5.0040 N   0  0  0  0  0  0  0  0  0  0  0  0
   -0.2880   17.5860   -6.5140 O   0  0  0  0  0  0  0  0  0  0  0  0
   -2.7230   16.8880   -6.6420 O   0  0  0  0  0  0  0  0  0  0  0  0
  2  1  1  1
  2  3  1  0
  2  4  1  0
  4  5  1  0
  3  6  1  0
  5  7  1  6
  5  8  1  0
  6  8  1  0
  6  9  1  6
  9 10  1  0
  8 11  1  6
 12 10  1  1
 11 12  1  0
 12 13  1  0
 12 14  1  0
 13 15  1  0
 14 16  1  0
 13 17  1  6
 16 18  1  1
 15 19  1  1
 15 20  1  0
 16 21  1  0
 17 21  1  0
 18 22  1  0
 18 23  1  0
 18 24  1  0
M  CHG  1  20  -1
M  END
