ucsf173-ucsf012
     RDKit          3D

 29 33  0  0  0  0  0  0  0  0999 V2000
    1.2070   13.3980   -1.8870 O   0  0  0  0  0  0  0  0  0  0  0  0
    1.7640   13.3380   -3.0860 C   0  0  0  0  0  0  0  0  0  0  0  0
    0.9550   14.2420   -4.0800 C   0  0  1  0  0  0  0  0  0  0  0  0
   -0.4020   14.8500   -3.6330 C   0  0  2  0  0  0  0  0  0  0  0  0
    1.6340   15.5670   -4.2890 C   0  0  0  0  0  0  0  0  0  0  0  0
   -1.4400   13.7990   -3.4370 C   0  0  2  0  0  0  0  0  0  0  0  0
   -0.5960   16.1610   -4.3730 C   0  0  1  0  0  0  0  0  0  0  0  0
    0.6410   16.2690   -5.2030 C   0  0  1  0  0  0  0  0  0  0  0  0
   -1.8960   16.4250   -5.1290 C   0  0  0  0  0  0  0  0  0  0  0  0
    0.8640   17.7280   -5.5420 C   0  0  0  0  0  0  0  0  0  0  0  0
   -2.2350   13.7030   -2.2210 N   0  0  0  0  0  0  0  0  0  0  0  0
   -0.6850   12.4760   -3.7420 C   0  0  1  0  0  0  0  0  0  0  0  0
   -1.7140   17.7170   -5.9090 C   0  0  0  0  0  0  0  0  0  0  0  0
   -0.4650   18.4920   -5.4850 C   0  0  0  0  0  0  0  0  0  0  0  0
   -3.5910   14.2900   -2.4960 C   0  0  2  0  0  0  0  0  0  0  0  0
   -1.7450   14.4470   -1.0810 C   0  0  1  0  0  0  0  0  0  0  0  0
    0.0240   11.8090   -2.5670 C   0  0  0  0  0  0  0  0  0  0  0  0
   -1.4890   11.4810   -4.3680 O   0  0  0  0  0  0  0  0  0  0  0  0
   -3.9720   14.8500   -3.8670 C   0  0  0  0  0  0  0  0  0  0  0  0
   -3.9030   15.2940   -1.3600 C   0  0  2  0  0  0  0  0  0  0  0  0
   -3.0240   14.6820   -0.3130 C   0  0  2  0  0  0  0  0  0  0  0  0
   -0.8390   13.7000   -0.2430 N   0  0  0  0  0  0  0  0  0  0  0  0
   -0.6960   10.3200   -4.2450 C   0  0  0  0  0  0  0  0  0  0  0  0
   -0.2150   10.3650   -2.8150 C   0  0  0  0  0  0  0  0  0  0  0  0
   -5.3650   15.4810   -1.0090 C   0  0  0  0  0  0  0  0  0  0  0  0
   -2.7690   15.2320    1.0730 C   0  0  1  0  0  0  0  0  0  0  0  0
   -0.5430   14.3130    1.0260 C   0  0  0  0  0  0  0  0  0  0  0  0
   -3.9040   15.3690    1.9350 N   0  0  0  0  0  0  0  0  0  0  0  0
   -1.7780   14.4570    1.7740 N   0  0  0  0  0  0  0  0  0  0  0  0
  1  2  1  0
  3  2  1  1
  4  3  1  6
  3  5  1  0
  4  6  1  0
  4  7  1  0
  8  5  1  1
  7  8  1  0
  7  9  1  6
  8 10  1  0
  6 11  1  1
  6 12  1  0
  9 13  1  0
 10 14  1  0
 13 14  1  0
 11 15  1  0
 11 16  1  0
 12 17  1  1
 12 18  1  0
 15 19  1  6
 15 20  1  0
 16 21  1  0
 20 21  1  0
 16 22  1  1
 18 23  1  0
 17 24  1  0
 23 24  1  0
 20 25  1  1
 21 26  1  1
 22 27  1  0
 26 28  1  1
 26 29  1  0
 27 29  1  0
M  CHG  1   1  -1
M  END
