ucsf523-ucsf357
     RDKit          3D

 15 16  0  0  0  0  0  0  0  0999 V2000
    0.2440   14.5170    1.4240 N   0  0  0  0  0  0  0  0  0  0  0  0
   -0.9060   14.2870    0.5990 C   0  0  1  0  0  0  0  0  0  0  0  0
   -1.9710   14.1300    1.5190 N   0  0  0  0  0  0  0  0  0  0  0  0
   -1.0070   15.3290   -0.4040 N   0  0  0  0  0  0  0  0  0  0  0  0
    0.2750   15.2750   -1.1070 O   0  0  0  0  0  0  0  0  0  0  0  0
   -2.0090   15.1450   -1.4820 C   0  0  1  0  0  0  0  0  0  0  0  0
   -3.0880   15.0040    1.5440 C   0  0  0  0  0  0  0  0  0  0  0  0
   -1.6810   14.0460   -2.3200 O   0  0  0  0  0  0  0  0  0  0  0  0
   -3.5490   15.3550   -1.1880 C   0  0  1  0  0  0  0  0  0  0  0  0
   -4.2770   14.3960    1.0660 N   0  0  0  0  0  0  0  0  0  0  0  0
   -4.3520   15.1210   -2.4930 C   0  0  2  0  0  0  0  0  0  0  0  0
   -4.4490   14.4330   -0.3510 C   0  0  2  0  0  0  0  0  0  0  0  0
   -4.4560   13.1780   -1.0450 O   0  0  0  0  0  0  0  0  0  0  0  0
   -5.5750   15.6060   -2.3580 O   0  0  0  0  0  0  0  0  0  0  0  0
   -4.4250   13.5670   -2.4430 C   0  0  0  0  0  0  0  0  0  0  0  0
  2  1  1  1
  2  3  1  0
  2  4  1  0
  4  5  1  0
  4  6  1  0
  3  7  1  0
  6  8  1  1
  9  6  1  6
  7 10  1  0
  9 11  1  0
  9 12  1  0
 12 10  1  1
 12 13  1  0
 11 14  1  1
 11 15  1  0
 13 15  1  0
M  CHG  1  14  -1
M  END
