ucsf109-ucsf519
     RDKit          3D

 23 25  0  0  0  0  0  0  0  0999 V2000
   -3.5590   14.7020    1.7780 N   0  0  0  0  0  0  0  0  0  0  0  0
   -4.5900   14.7710    0.7320 C   0  0  1  0  0  0  0  0  0  0  0  0
   -4.1990   13.9970   -0.5240 C   0  0  1  0  0  0  0  0  0  0  0  0
   -5.8890   14.2710    1.2270 N   0  0  0  0  0  0  0  0  0  0  0  0
   -6.8920   14.0490    0.1960 C   0  0  2  0  0  0  0  0  0  0  0  0
   -5.2940   14.1880   -1.5740 C   0  0  1  0  0  0  0  0  0  0  0  0
   -2.8220   14.1340   -1.2690 C   0  0  2  0  0  0  0  0  0  0  0  0
   -6.5310   14.8930    2.4050 N   0  0  0  0  0  0  0  0  0  0  0  0
   -1.9370   15.1390   -0.8230 O   0  0  0  0  0  0  0  0  0  0  0  0
   -6.5520   14.7250   -1.0400 N   0  0  0  0  0  0  0  0  0  0  0  0
   -4.5850   15.0160   -2.6420 C   0  0  0  0  0  0  0  0  0  0  0  0
   -3.2690   14.2360   -2.7580 C   0  0  1  0  0  0  0  0  0  0  0  0
   -8.1180   14.6280    0.7280 N   0  0  0  0  0  0  0  0  0  0  0  0
   -7.9340   14.5840    2.1770 C   0  0  0  0  0  0  0  0  0  0  0  0
   -2.3320   14.7170   -3.9050 C   0  0  2  0  0  0  0  0  0  0  0  0
   -0.7840   14.8500   -3.7150 C   0  0  2  0  0  0  0  0  0  0  0  0
   -2.8930   15.9370   -4.3900 O   0  0  0  0  0  0  0  0  0  0  0  0
   -0.2460   16.1850   -4.2480 C   0  0  0  0  0  0  0  0  0  0  0  0
    0.0790   13.5700   -4.7490 S   0  0  0  0  0  0  0  0  0  0  0  0
   -0.2020   12.0060   -3.8000 C   0  0  0  0  0  0  0  0  0  0  0  0
    0.7720   11.6430   -2.6490 C   0  0  1  0  0  0  0  0  0  0  0  0
    0.4910   12.3620   -1.4630 O   0  0  0  0  0  0  0  0  0  0  0  0
    0.4800   10.4060   -2.2500 O   0  0  0  0  0  0  0  0  0  0  0  0
  2  1  1  1
  3  2  1  1
  2  4  1  0
  4  5  1  0
  3  6  1  0
  3  7  1  0
  4  8  1  0
  7  9  1  1
  5 10  1  6
  6 10  1  0
  6 11  1  6
  7 12  1  0
 12 11  1  1
  5 13  1  0
  8 14  1  0
 13 14  1  0
 12 15  1  0
 15 16  1  0
 15 17  1  1
 16 18  1  6
 16 19  1  0
 19 20  1  0
 20 21  1  0
 21 22  1  1
 21 23  1  0
M  CHG  1  23  -1
M  END
