ucsf487-ucsf241
     RDKit          3D

 16 18  0  0  0  0  0  0  0  0999 V2000
   -7.4430   14.5660    2.9740 N   0  0  0  0  0  0  0  0  0  0  0  0
   -6.9350   14.0700    1.7000 C   0  0  1  0  0  0  0  0  0  0  0  0
   -7.8550   14.4330    0.5060 C   0  0  0  0  0  0  0  0  0  0  0  0
   -5.4990   14.5010    1.4370 C   0  0  0  0  0  0  0  0  0  0  0  0
   -5.1190   13.8140    0.1390 C   0  0  1  0  0  0  0  0  0  0  0  0
   -7.2250   14.8680   -0.7610 N   0  0  0  0  0  0  0  0  0  0  0  0
   -5.8460   14.4440   -1.0550 C   0  0  1  0  0  0  0  0  0  0  0  0
   -3.6050   13.6140   -0.0200 C   0  0  0  0  0  0  0  0  0  0  0  0
   -5.1090   15.6600   -1.5960 C   0  0  0  0  0  0  0  0  0  0  0  0
   -2.8180   14.7460   -0.7350 C   0  0  2  0  0  0  0  0  0  0  0  0
   -3.6380   15.3820   -1.9120 C   0  0  0  0  0  0  0  0  0  0  0  0
   -1.4750   14.1510   -1.3040 C   0  0  0  0  0  0  0  0  0  0  0  0
   -2.3980   15.7340    0.3730 C   0  0  0  0  0  0  0  0  0  0  0  0
   -0.2140   14.6130   -0.5570 C   0  0  0  0  0  0  0  0  0  0  0  0
   -1.6790   15.0180    1.4210 N   0  0  0  0  0  0  0  0  0  0  0  0
   -0.3780   14.5410    0.9610 C   0  0  0  0  0  0  0  0  0  0  0  0
  2  1  1  1
  2  3  1  0
  2  4  1  0
  5  4  1  1
  3  6  1  0
  5  7  1  0
  6  7  1  0
  5  8  1  0
  7  9  1  1
 10  8  1  1
  9 11  1  0
 10 11  1  0
 10 12  1  0
 10 13  1  0
 12 14  1  0
 13 15  1  0
 14 16  1  0
 15 16  1  0
M  END
