ucsf364-ucsf013
     RDKit          3D

 23 25  0  0  0  0  0  0  0  0999 V2000
    2.1770   13.5120   -4.6640 C   0  0  0  0  0  0  0  0  0  0  0  0
    1.1080   12.4220   -4.5520 C   0  0  2  0  0  0  0  0  0  0  0  0
    0.7370   11.7690   -5.8990 C   0  0  2  0  0  0  0  0  0  0  0  0
   -0.1490   12.9060   -3.7920 C   0  0  2  0  0  0  0  0  0  0  0  0
    1.7930   11.8710   -6.8670 O   0  0  0  0  0  0  0  0  0  0  0  0
    0.0700   13.2460   -2.2540 C   0  0  1  0  0  0  0  0  0  0  0  0
   -1.2850   11.8730   -4.0420 C   0  0  0  0  0  0  0  0  0  0  0  0
   -0.5880   12.2340   -6.4370 C   0  0  0  0  0  0  0  0  0  0  0  0
   -1.1070   13.8950   -1.7390 O   0  0  0  0  0  0  0  0  0  0  0  0
    0.2840   12.1080   -1.5800 O   0  0  0  0  0  0  0  0  0  0  0  0
   -1.6840   11.7250   -5.5130 C   0  0  0  0  0  0  0  0  0  0  0  0
   -1.8930   14.5760   -2.7250 C   0  0  0  0  0  0  0  0  0  0  0  0
   -3.2270   15.0740   -2.1200 C   0  0  1  0  0  0  0  0  0  0  0  0
   -4.3810   14.6900   -3.0340 C   0  0  0  0  0  0  0  0  0  0  0  0
   -3.4880   14.6180   -0.6950 C   0  0  0  0  0  0  0  0  0  0  0  0
   -4.7070   15.3610   -0.1310 C   0  0  2  0  0  0  0  0  0  0  0  0
   -5.7860   14.6620   -2.4030 C   0  0  0  0  0  0  0  0  0  0  0  0
   -4.9570   15.0570    1.3510 C   0  0  2  0  0  0  0  0  0  0  0  0
   -5.9620   15.3390   -1.0360 C   0  0  1  0  0  0  0  0  0  0  0  0
   -4.3000   13.8840    1.8310 N   0  0  0  0  0  0  0  0  0  0  0  0
   -7.2020   14.8400   -0.4010 N   0  0  0  0  0  0  0  0  0  0  0  0
   -6.3170   14.7770    1.7330 N   0  0  0  0  0  0  0  0  0  0  0  0
   -7.0080   13.9850    0.7530 C   0  0  0  0  0  0  0  0  0  0  0  0
  2  1  1  6
  2  3  1  0
  2  4  1  0
  3  5  1  6
  4  6  1  0
  4  7  1  1
  3  8  1  0
  6  9  1  0
  6 10  1  1
  7 11  1  0
  8 11  1  0
  9 12  1  0
 13 12  1  6
 13 14  1  0
 13 15  1  0
 16 15  1  6
 14 17  1  0
 16 18  1  0
 16 19  1  0
 19 17  1  6
 18 20  1  6
 19 21  1  0
 18 22  1  0
 21 23  1  0
 22 23  1  0
M  CHG  1  10  -1
M  END
