ucsf262-ucsf006
     RDKit          3D

 28 31  0  0  0  0  0  0  0  0999 V2000
   -3.2300   15.8830   -6.0170 Cl  0  0  0  0  0  0  0  0  0  0  0  0
   -1.9830   17.0620   -5.4690 C   0  0  1  0  0  0  0  0  0  0  0  0
   -0.7590   16.3630   -5.0010 C   0  0  2  0  0  0  0  0  0  0  0  0
   -1.7210   18.1100   -6.5020 C   0  0  0  0  0  0  0  0  0  0  0  0
   -0.7970   16.5480   -3.5260 C   0  0  0  0  0  0  0  0  0  0  0  0
    0.6170   16.9360   -5.3540 C   0  0  2  0  0  0  0  0  0  0  0  0
   -0.6770   18.9890   -5.9520 C   0  0  0  0  0  0  0  0  0  0  0  0
    0.5400   16.0850   -3.2910 C   0  0  2  0  0  0  0  0  0  0  0  0
    1.3260   16.8760   -4.0870 N   0  0  0  0  0  0  0  0  0  0  0  0
    0.6530   18.3050   -5.8760 C   0  0  0  0  0  0  0  0  0  0  0  0
    0.6450   14.4110   -3.1630 S   0  0  0  0  0  0  0  0  0  0  0  0
    1.6980   12.7130   -2.5060 O   0  0  0  0  0  0  0  0  0  0  0  0
    2.4750   14.6020   -2.1270 O   0  0  0  0  0  0  0  0  0  0  0  0
   -1.0240   14.0680   -2.4390 N   0  0  0  0  0  0  0  0  0  0  0  0
    0.7550   13.7410   -4.7300 C   0  0  0  0  0  0  0  0  0  0  0  0
   -2.0970   14.3070   -3.2820 C   0  0  0  0  0  0  0  0  0  0  0  0
    0.2240   12.3600   -4.7720 C   0  0  1  0  0  0  0  0  0  0  0  0
   -1.2700   14.7790   -1.2510 C   0  0  1  0  0  0  0  0  0  0  0  0
    0.3440   11.7980   -6.0230 O   0  0  0  0  0  0  0  0  0  0  0  0
    1.1750   11.7120   -3.9620 O   0  0  0  0  0  0  0  0  0  0  0  0
   -2.5730   14.6180   -0.5380 C   0  0  1  0  0  0  0  0  0  0  0  0
   -0.1410   14.6050   -0.3850 N   0  0  0  0  0  0  0  0  0  0  0  0
   -2.4350   15.3000    0.8000 C   0  0  2  0  0  0  0  0  0  0  0  0
   -0.2020   15.0890    0.8950 C   0  0  0  0  0  0  0  0  0  0  0  0
   -3.7450   15.3880   -1.0390 C   0  0  0  0  0  0  0  0  0  0  0  0
   -1.4310   14.8020    1.6040 N   0  0  0  0  0  0  0  0  0  0  0  0
   -3.7540   15.4000    1.3380 N   0  0  0  0  0  0  0  0  0  0  0  0
   -4.6500   15.2720    0.1860 C   0  0  0  0  0  0  0  0  0  0  0  0
  2  1  1  6
  2  3  1  0
  2  4  1  0
  3  5  1  1
  3  6  1  0
  4  7  1  0
  5  8  1  0
  6  9  1  0
  8  9  1  0
  6 10  1  1
  7 10  1  0
  8 11  1  6
 11 12  1  0
 11 13  1  0
 11 14  1  0
 11 15  1  0
 14 16  1  0
 15 17  1  0
 18 14  1  6
 17 19  1  6
 17 20  1  0
 18 21  1  0
 18 22  1  0
 21 23  1  0
 22 24  1  0
 21 25  1  6
 23 26  1  1
 24 26  1  0
 23 27  1  0
 25 28  1  0
 27 28  1  0
M  CHG  2  12  -1  20  -1
M  END
