ucsf260-ucsf424
     RDKit          3D

 14 15  0  0  0  0  0  0  0  0999 V2000
    0.8710   11.1180   -2.7740 O   0  0  0  0  0  0  0  0  0  0  0  0
    0.8160   12.4170   -2.9640 C   0  0  1  0  0  0  0  0  0  0  0  0
    1.5710   12.8830   -1.8770 O   0  0  0  0  0  0  0  0  0  0  0  0
    1.5470   12.8750   -4.2470 C   0  0  0  0  0  0  0  0  0  0  0  0
    0.5980   12.9520   -5.4510 C   0  0  0  0  0  0  0  0  0  0  0  0
   -0.2640   11.7660   -5.5760 N   0  0  0  0  0  0  0  0  0  0  0  0
   -1.5640   11.8440   -4.9620 C   0  0  0  0  0  0  0  0  0  0  0  0
   -0.5190   11.3250   -6.9420 C   0  0  2  0  0  0  0  0  0  0  0  0
   -2.1980   10.5820   -5.3640 N   0  0  0  0  0  0  0  0  0  0  0  0
   -1.6080   10.2720   -6.6890 C   0  0  2  0  0  0  0  0  0  0  0  0
    0.7110   10.8900   -7.7790 C   0  0  0  0  0  0  0  0  0  0  0  0
   -1.1420    8.8280   -6.7410 C   0  0  0  0  0  0  0  0  0  0  0  0
    0.7860    9.4270   -8.2350 C   0  0  0  0  0  0  0  0  0  0  0  0
   -0.4700    8.5800   -8.0660 C   0  0  0  0  0  0  0  0  0  0  0  0
  2  1  1  6
  2  3  1  0
  2  4  1  0
  4  5  1  0
  5  6  1  0
  6  7  1  0
  6  8  1  0
  7  9  1  0
  8 10  1  0
  9 10  1  0
  8 11  1  1
 10 12  1  1
 11 13  1  0
 12 14  1  0
 13 14  1  0
M  CHG  1   1  -1
M  END
