ucsf380-ucsf442
     RDKit          3D

 21 23  0  0  0  0  0  0  0  0999 V2000
    1.1990   14.4910   -1.8780 O   0  0  0  0  0  0  0  0  0  0  0  0
    0.1420   13.8720   -1.3850 C   0  0  2  0  0  0  0  0  0  0  0  0
    0.5370   12.5180   -1.4030 O   0  0  0  0  0  0  0  0  0  0  0  0
   -1.0510   14.1080   -2.3600 C   0  0  2  0  0  0  0  0  0  0  0  0
   -2.3720   14.4320   -1.6390 C   0  0  1  0  0  0  0  0  0  0  0  0
   -1.4150   13.0170   -3.4240 C   0  0  0  0  0  0  0  0  0  0  0  0
   -2.3070   14.4540   -0.0710 C   0  0  1  0  0  0  0  0  0  0  0  0
   -3.1860   15.5350   -2.3260 C   0  0  0  0  0  0  0  0  0  0  0  0
   -2.1130   11.7520   -2.9110 C   0  0  0  0  0  0  0  0  0  0  0  0
   -0.2520   12.6530   -4.3590 C   0  0  0  0  0  0  0  0  0  0  0  0
   -1.3870   15.4710    0.4290 O   0  0  0  0  0  0  0  0  0  0  0  0
   -3.7800   14.6890    0.3640 C   0  0  1  0  0  0  0  0  0  0  0  0
   -4.4980   15.6700   -1.6010 C   0  0  0  0  0  0  0  0  0  0  0  0
   -2.6410   10.9160   -4.0790 C   0  0  0  0  0  0  0  0  0  0  0  0
   -0.7030   11.7670   -5.5200 C   0  0  0  0  0  0  0  0  0  0  0  0
   -4.1810   15.9770   -0.1710 C   0  0  0  0  0  0  0  0  0  0  0  0
   -2.1920   11.4300   -5.4530 C   0  0  0  0  0  0  0  0  0  0  0  0
   -4.6900   13.6740   -0.2650 C   0  0  0  0  0  0  0  0  0  0  0  0
   -4.2610   14.6140    1.7240 N   0  0  0  0  0  0  0  0  0  0  0  0
   -5.9450   14.3000    0.1040 N   0  0  0  0  0  0  0  0  0  0  0  0
   -5.7210   14.4830    1.5250 C   0  0  0  0  0  0  0  0  0  0  0  0
  2  1  1  6
  2  3  1  0
  2  4  1  0
  4  5  1  0
  4  6  1  1
  5  7  1  0
  5  8  1  6
  6  9  1  0
  6 10  1  0
  7 11  1  6
  7 12  1  0
  8 13  1  0
  9 14  1  0
 10 15  1  0
 12 16  1  6
 13 16  1  0
 14 17  1  0
 15 17  1  0
 12 18  1  0
 12 19  1  0
 18 20  1  0
 19 21  1  0
 20 21  1  0
M  CHG  1   1  -1
M  END
