ucsf248-ucsf005
     RDKit          3D

 21 23  0  0  0  0  0  0  0  0999 V2000
   -8.2910   12.3620    2.4800 N   0  0  0  0  0  0  0  0  0  0  0  0
   -8.2420   13.9240    1.9730 S   0  0  0  0  0  0  0  0  0  0  0  0
   -8.2510   14.9310    3.2180 O   0  0  0  0  0  0  0  0  0  0  0  0
   -9.5520   14.3010    1.1270 O   0  0  0  0  0  0  0  0  0  0  0  0
   -6.8810   14.5580    0.9690 C   0  0  1  0  0  0  0  0  0  0  0  0
   -5.5800   13.9300    0.9280 N   0  0  0  0  0  0  0  0  0  0  0  0
   -7.1170   14.9080   -0.4390 N   0  0  0  0  0  0  0  0  0  0  0  0
   -4.9460   15.1630    0.3670 C   0  0  2  0  0  0  0  0  0  0  0  0
   -5.7770   15.3980   -0.9180 C   0  0  1  0  0  0  0  0  0  0  0  0
   -3.4520   15.5450    0.5330 C   0  0  1  0  0  0  0  0  0  0  0  0
   -5.3410   14.6740   -2.2280 C   0  0  0  0  0  0  0  0  0  0  0  0
   -3.8190   14.5680   -2.4530 C   0  0  1  0  0  0  0  0  0  0  0  0
   -2.9080   14.7760    1.6790 C   0  0  1  0  0  0  0  0  0  0  0  0
   -2.3930   15.4660   -0.5690 C   0  0  2  0  0  0  0  0  0  0  0  0
   -3.3260   14.4740   -3.9060 C   0  0  0  0  0  0  0  0  0  0  0  0
   -3.4130   13.4620    1.6510 N   0  0  0  0  0  0  0  0  0  0  0  0
   -3.0710   15.7070   -1.8690 C   0  0  0  0  0  0  0  0  0  0  0  0
   -1.4830   14.7150    1.7810 N   0  0  0  0  0  0  0  0  0  0  0  0
   -1.5170   14.3040   -0.5130 N   0  0  0  0  0  0  0  0  0  0  0  0
   -0.7570   14.2580    0.6730 C   0  0  1  0  0  0  0  0  0  0  0  0
    0.3820   15.0740    0.5300 N   0  0  0  0  0  0  0  0  0  0  0  0
  1  2  1  0
  2  3  1  0
  2  4  1  0
  5  2  1  6
  5  6  1  0
  5  7  1  0
  8  6  1  6
  7  9  1  0
  8  9  1  0
  8 10  1  0
  9 11  1  6
 11 12  1  0
 10 13  1  1
 10 14  1  0
 12 15  1  6
 13 16  1  6
 12 17  1  0
 14 17  1  6
 13 18  1  0
 14 19  1  0
 18 20  1  0
 19 20  1  0
 20 21  1  6
M  END
