ucsf403-ucsf173
     RDKit          3D

 23 25  0  0  0  0  0  0  0  0999 V2000
    0.8530    9.0790   -8.0970 Cl  0  0  0  0  0  0  0  0  0  0  0  0
   -0.6410    9.6580   -7.3070 C   0  0  2  0  0  0  0  0  0  0  0  0
   -0.4350   10.5820   -6.1150 C   0  0  1  0  0  0  0  0  0  0  0  0
   -1.6060    8.5390   -6.9180 C   0  0  0  0  0  0  0  0  0  0  0  0
    0.7030   11.4650   -6.2880 O   0  0  0  0  0  0  0  0  0  0  0  0
   -1.7840   11.2950   -6.0720 C   0  0  2  0  0  0  0  0  0  0  0  0
   -2.9650    9.0850   -6.4600 C   0  0  0  0  0  0  0  0  0  0  0  0
   -1.8240   12.8410   -5.1870 Cl  0  0  0  0  0  0  0  0  0  0  0  0
    1.0110   12.4110   -5.2170 C   0  0  0  0  0  0  0  0  0  0  0  0
   -2.8270   10.3070   -5.5620 C   0  0  0  0  0  0  0  0  0  0  0  0
    0.9630   11.8980   -3.7270 C   0  0  1  0  0  0  0  0  0  0  0  0
    0.2260   12.7120   -2.7760 N   0  0  0  0  0  0  0  0  0  0  0  0
    0.4780   10.5600   -3.6420 O   0  0  0  0  0  0  0  0  0  0  0  0
    0.8190   12.6370   -1.4440 O   0  0  0  0  0  0  0  0  0  0  0  0
   -0.1060   14.0890   -3.1230 C   0  0  2  0  0  0  0  0  0  0  0  0
   -1.1580   14.2030   -4.2400 C   0  0  0  0  0  0  0  0  0  0  0  0
    0.9430   15.0000   -3.7930 C   0  0  0  0  0  0  0  0  0  0  0  0
   -1.3540   15.6940   -4.2180 C   0  0  1  0  0  0  0  0  0  0  0  0
    0.0960   16.2450   -4.1350 C   0  0  2  0  0  0  0  0  0  0  0  0
   -2.2860   16.2970   -5.2530 C   0  0  0  0  0  0  0  0  0  0  0  0
    0.5950   17.0570   -5.3220 C   0  0  0  0  0  0  0  0  0  0  0  0
   -1.9100   17.7020   -5.7200 C   0  0  0  0  0  0  0  0  0  0  0  0
   -0.4260   17.9880   -5.9760 C   0  0  0  0  0  0  0  0  0  0  0  0
  2  1  1  1
  2  3  1  0
  2  4  1  0
  3  5  1  6
  3  6  1  0
  4  7  1  0
  6  8  1  1
  5  9  1  0
  6 10  1  0
  7 10  1  0
  9 11  1  0
 11 12  1  0
 11 13  1  6
 12 14  1  0
 15 12  1  6
 15 16  1  0
 15 17  1  0
 18 16  1  6
 19 17  1  6
 18 19  1  0
 18 20  1  0
 19 21  1  0
 20 22  1  0
 21 23  1  0
 22 23  1  0
M  CHG  1  14  -1
M  END
