ucsf013-ucsf424
     RDKit          3D

 27 30  0  0  0  0  0  0  0  0999 V2000
   -3.8260   14.6460    2.0680 N   0  0  0  0  0  0  0  0  0  0  0  0
   -4.8110   15.1980    1.1830 C   0  0  2  0  0  0  0  0  0  0  0  0
   -6.1040   14.8260    1.7060 N   0  0  0  0  0  0  0  0  0  0  0  0
   -4.5660   14.7470   -0.2280 C   0  0  1  0  0  0  0  0  0  0  0  0
   -5.7090   15.2690   -1.0780 C   0  0  2  0  0  0  0  0  0  0  0  0
   -6.9820   14.1740    0.7520 C   0  0  0  0  0  0  0  0  0  0  0  0
   -3.2120   15.2330   -0.7270 C   0  0  0  0  0  0  0  0  0  0  0  0
   -7.0230   14.8760   -0.5320 N   0  0  0  0  0  0  0  0  0  0  0  0
   -5.5270   14.8120   -2.5290 C   0  0  0  0  0  0  0  0  0  0  0  0
   -2.9660   14.7030   -2.1350 C   0  0  2  0  0  0  0  0  0  0  0  0
   -1.6120   15.2190   -2.6590 C   0  0  0  0  0  0  0  0  0  0  0  0
   -4.1110   15.0730   -3.0840 C   0  0  0  0  0  0  0  0  0  0  0  0
   -0.3660   14.5270   -2.0760 C   0  0  0  0  0  0  0  0  0  0  0  0
   -0.6160   13.1610   -1.4210 C   0  0  0  0  0  0  0  0  0  0  0  0
   -0.7050   12.1420   -2.4240 O   0  0  0  0  0  0  0  0  0  0  0  0
    0.5070   11.9500   -3.1580 C   0  0  2  0  0  0  0  0  0  0  0  0
    1.4960   12.5220   -2.5030 O   0  0  0  0  0  0  0  0  0  0  0  0
    0.3160   12.6070   -4.5670 C   0  0  0  0  0  0  0  0  0  0  0  0
    0.4180   11.6300   -5.7480 C   0  0  2  0  0  0  0  0  0  0  0  0
    0.1130   12.1710   -7.0650 N   0  0  0  0  0  0  0  0  0  0  0  0
   -0.4490   10.3700   -5.7520 C   0  0  2  0  0  0  0  0  0  0  0  0
    0.2920   10.9920   -7.9170 O   0  0  0  0  0  0  0  0  0  0  0  0
   -0.1830    9.8620   -7.1710 C   0  0  2  0  0  0  0  0  0  0  0  0
   -1.9550   10.5620   -5.5380 C   0  0  0  0  0  0  0  0  0  0  0  0
   -1.3960    9.2810   -7.8910 C   0  0  0  0  0  0  0  0  0  0  0  0
   -2.7190    9.2490   -5.7410 C   0  0  0  0  0  0  0  0  0  0  0  0
   -2.2560    8.4480   -6.9570 C   0  0  0  0  0  0  0  0  0  0  0  0
  2  1  1  1
  2  3  1  0
  2  4  1  0
  4  5  1  0
  3  6  1  0
  4  7  1  6
  5  8  1  0
  6  8  1  0
  5  9  1  6
  7 10  1  0
 10 11  1  6
  9 12  1  0
 10 12  1  0
 11 13  1  0
 13 14  1  0
 14 15  1  0
 15 16  1  0
 16 17  1  1
 16 18  1  0
 19 18  1  1
 19 20  1  0
 19 21  1  0
 20 22  1  0
 21 23  1  0
 22 23  1  0
 21 24  1  6
 23 25  1  6
 24 26  1  0
 25 27  1  0
 26 27  1  0
M  CHG  1  17  -1
M  END
