ucsf367-ucsf247
     RDKit          3D

 24 25  0  0  0  0  0  0  0  0999 V2000
    0.6850   10.8710   -2.9650 O   0  0  0  0  0  0  0  0  0  0  0  0
    0.2870   12.0880   -3.2950 C   0  0  1  0  0  0  0  0  0  0  0  0
    0.9830   12.9920   -2.4270 O   0  0  0  0  0  0  0  0  0  0  0  0
    0.7200   12.4650   -4.7550 C   0  0  0  0  0  0  0  0  0  0  0  0
    0.7280   11.3190   -5.6350 O   0  0  0  0  0  0  0  0  0  0  0  0
    0.7090   14.3610   -2.7000 C   0  0  1  0  0  0  0  0  0  0  0  0
    1.6640   14.6790   -3.7120 O   0  0  0  0  0  0  0  0  0  0  0  0
   -0.7250   14.6580   -3.2250 C   0  0  0  0  0  0  0  0  0  0  0  0
   -0.5430   10.8550   -6.1000 C   0  0  0  0  0  0  0  0  0  0  0  0
   -1.7060   14.6280   -2.1150 N   0  0  0  0  0  0  0  0  0  0  0  0
   -0.4170    9.3850   -6.5320 C   0  0  0  0  0  0  0  0  0  0  0  0
   -1.5570   11.0360   -4.9650 C   0  0  0  0  0  0  0  0  0  0  0  0
   -3.0830   15.0110   -2.3710 C   0  0  1  0  0  0  0  0  0  0  0  0
   -1.7330    8.7850   -7.0010 C   0  0  0  0  0  0  0  0  0  0  0  0
   -2.8170   10.2050   -5.1650 C   0  0  0  0  0  0  0  0  0  0  0  0
   -3.5030   14.6140   -3.6580 O   0  0  0  0  0  0  0  0  0  0  0  0
   -2.9290    9.6300   -6.5730 C   0  0  0  0  0  0  0  0  0  0  0  0
   -4.0510   14.5800   -1.2630 C   0  0  2  0  0  0  0  0  0  0  0  0
   -5.3710   15.3650   -1.3280 C   0  0  0  0  0  0  0  0  0  0  0  0
   -3.3870   14.7270    0.1270 C   0  0  0  0  0  0  0  0  0  0  0  0
   -6.3400   14.9360   -0.2290 C   0  0  1  0  0  0  0  0  0  0  0  0
   -4.2820   15.3820    1.1700 C   0  0  0  0  0  0  0  0  0  0  0  0
   -7.0230   13.7430   -0.5750 O   0  0  0  0  0  0  0  0  0  0  0  0
   -5.6710   14.7590    1.1440 C   0  0  0  0  0  0  0  0  0  0  0  0
  2  1  1  1
  2  3  1  0
  2  4  1  0
  4  5  1  0
  3  6  1  0
  6  7  1  6
  6  8  1  0
  5  9  1  0
  8 10  1  0
  9 11  1  0
  9 12  1  0
 10 13  1  0
 11 14  1  0
 12 15  1  0
 13 16  1  6
 14 17  1  0
 15 17  1  0
 13 18  1  0
 18 19  1  1
 18 20  1  0
 19 21  1  0
 20 22  1  0
 21 23  1  6
 21 24  1  0
 22 24  1  0
M  CHG  1   1  -1
M  END
