ucsf411-ucsf520
     RDKit          3D

 26 29  0  0  0  0  0  0  0  0999 V2000
    0.6100   11.0090   -2.7600 O   0  0  0  0  0  0  0  0  0  0  0  0
    0.7100   12.3050   -3.0230 C   0  0  1  0  0  0  0  0  0  0  0  0
    1.6270   12.6920   -2.0280 O   0  0  0  0  0  0  0  0  0  0  0  0
    1.3500   12.6100   -4.4210 C   0  0  0  0  0  0  0  0  0  0  0  0
    0.8020   13.7910   -5.0600 O   0  0  0  0  0  0  0  0  0  0  0  0
   -0.5790   14.0040   -4.7960 C   0  0  1  0  0  0  0  0  0  0  0  0
   -0.9160   15.4570   -4.3990 C   0  0  2  0  0  0  0  0  0  0  0  0
   -1.5150   13.3730   -5.7950 C   0  0  0  0  0  0  0  0  0  0  0  0
   -1.9020   16.3080   -5.2110 C   0  0  2  0  0  0  0  0  0  0  0  0
   -2.9110   13.9900   -5.7170 C   0  0  0  0  0  0  0  0  0  0  0  0
    0.1830   16.2120   -3.6900 C   0  0  2  0  0  0  0  0  0  0  0  0
   -0.1180   15.8570   -2.2030 C   0  0  0  0  0  0  0  0  0  0  0  0
   -2.9970   15.5040   -5.9330 C   0  0  0  0  0  0  0  0  0  0  0  0
   -1.2160   17.4370   -5.9580 C   0  0  0  0  0  0  0  0  0  0  0  0
    0.3720   17.7470   -4.0270 C   0  0  0  0  0  0  0  0  0  0  0  0
   -0.6300   18.4020   -4.9780 C   0  0  0  0  0  0  0  0  0  0  0  0
   -1.2890   14.9320   -1.9210 N   0  0  0  0  0  0  0  0  0  0  0  0
   -2.6320   15.5570   -2.0920 C   0  0  0  0  0  0  0  0  0  0  0  0
   -1.1960   14.4280   -0.5820 C   0  0  2  0  0  0  0  0  0  0  0  0
   -3.7200   14.8760   -1.3750 N   0  0  0  0  0  0  0  0  0  0  0  0
   -2.0590   15.1440    0.4130 C   0  0  1  0  0  0  0  0  0  0  0  0
    0.0970   14.6810    0.0150 N   0  0  0  0  0  0  0  0  0  0  0  0
   -3.5150   14.8420    0.0600 C   0  0  1  0  0  0  0  0  0  0  0  0
   -1.5660   14.6030    1.6880 N   0  0  0  0  0  0  0  0  0  0  0  0
   -0.1790   14.2590    1.3800 C   0  0  0  0  0  0  0  0  0  0  0  0
   -4.4970   15.7460    0.6340 N   0  0  0  0  0  0  0  0  0  0  0  0
  2  1  1  6
  2  3  1  0
  2  4  1  0
  4  5  1  0
  6  5  1  6
  7  6  1  6
  6  8  1  0
  7  9  1  0
  8 10  1  0
  7 11  1  0
 11 12  1  1
  9 13  1  6
 10 13  1  0
  9 14  1  0
 11 15  1  0
 14 16  1  0
 15 16  1  0
 12 17  1  0
 17 18  1  0
 17 19  1  0
 18 20  1  0
 19 21  1  0
 19 22  1  1
 20 23  1  0
 21 23  1  0
 21 24  1  1
 22 25  1  0
 24 25  1  0
 23 26  1  1
M  CHG  1   1  -1
M  END
