ucsf357-ucsf336
     RDKit          3D

 24 25  0  0  0  0  0  0  0  0999 V2000
   -6.0470   15.0960   -2.0460 O   0  0  0  0  0  0  0  0  0  0  0  0
   -5.3530   14.6300   -1.0330 C   0  0  2  0  0  0  0  0  0  0  0  0
   -6.0750   15.1570    0.0590 O   0  0  0  0  0  0  0  0  0  0  0  0
   -3.9240   15.2390   -1.0730 C   0  0  2  0  0  0  0  0  0  0  0  0
   -3.3750   15.1670   -2.5090 C   0  0  0  0  0  0  0  0  0  0  0  0
   -3.0300   14.6040    0.0220 C   0  0  0  0  0  0  0  0  0  0  0  0
   -1.9830   14.6080   -2.7650 C   0  0  1  0  0  0  0  0  0  0  0  0
   -1.5080   14.6180   -0.1710 C   0  0  0  0  0  0  0  0  0  0  0  0
   -1.4190   15.3820   -3.7350 F   0  0  0  0  0  0  0  0  0  0  0  0
   -0.9740   14.4380   -1.6060 C   0  0  2  0  0  0  0  0  0  0  0  0
    0.2010   15.2290   -1.7640 O   0  0  0  0  0  0  0  0  0  0  0  0
    1.3700   14.3820   -1.8600 C   0  0  0  0  0  0  0  0  0  0  0  0
    1.0720   13.1280   -2.4970 O   0  0  0  0  0  0  0  0  0  0  0  0
    0.9800   13.2760   -3.9410 C   0  0  1  0  0  0  0  0  0  0  0  0
    2.2090   13.4980   -4.3900 O   0  0  0  0  0  0  0  0  0  0  0  0
    0.4700   11.9010   -4.6010 C   0  0  1  0  0  0  0  0  0  0  0  0
    0.0490   10.9890   -3.5770 O   0  0  0  0  0  0  0  0  0  0  0  0
   -0.5890   12.1870   -5.5780 N   0  0  0  0  0  0  0  0  0  0  0  0
   -1.2320   11.0770   -6.3100 C   0  0  0  0  0  0  0  0  0  0  0  0
   -0.3250   10.0670   -7.0290 C   0  0  0  0  0  0  0  0  0  0  0  0
   -2.1060   10.2780   -5.3540 C   0  0  0  0  0  0  0  0  0  0  0  0
   -1.1010    9.1440   -7.9660 C   0  0  0  0  0  0  0  0  0  0  0  0
   -2.6110    8.9520   -5.9190 C   0  0  0  0  0  0  0  0  0  0  0  0
   -2.4970    8.8220   -7.4420 C   0  0  0  0  0  0  0  0  0  0  0  0
  2  1  1  6
  2  3  1  0
  2  4  1  0
  4  5  1  6
  4  6  1  0
  5  7  1  0
  6  8  1  0
  7  9  1  6
  7 10  1  0
  8 10  1  0
 10 11  1  6
 11 12  1  0
 12 13  1  0
 13 14  1  0
 14 15  1  6
 14 16  1  0
 16 17  1  1
 16 18  1  0
 18 19  1  0
 19 20  1  0
 19 21  1  0
 20 22  1  0
 21 23  1  0
 22 24  1  0
 23 24  1  0
M  CHG  2   1  -1  15  -1
M  END
