ucsf028-ucsf147
     RDKit          3D

 21 23  0  0  0  0  0  0  0  0999 V2000
   -4.5530   15.3540    1.0920 N   0  0  0  0  0  0  0  0  0  0  0  0
   -3.5790   14.7800    0.1720 C   0  0  2  0  0  0  0  0  0  0  0  0
   -2.1490   14.9820    0.6520 C   0  0  2  0  0  0  0  0  0  0  0  0
   -3.8030   15.3760   -1.1430 N   0  0  0  0  0  0  0  0  0  0  0  0
   -2.8560   14.9040   -2.2090 C   0  0  0  0  0  0  0  0  0  0  0  0
   -1.2690   14.4010   -0.4330 C   0  0  1  0  0  0  0  0  0  0  0  0
   -1.6500   14.2810    1.8220 N   0  0  0  0  0  0  0  0  0  0  0  0
   -1.4570   14.9070   -1.7520 N   0  0  0  0  0  0  0  0  0  0  0  0
    0.0120   14.5910    0.1830 N   0  0  0  0  0  0  0  0  0  0  0  0
   -0.2160   14.1310    1.5250 C   0  0  0  0  0  0  0  0  0  0  0  0
   -0.3210   14.5350   -2.5890 C   0  0  2  0  0  0  0  0  0  0  0  0
    0.8440   14.7090   -1.8100 O   0  0  0  0  0  0  0  0  0  0  0  0
   -0.0080   15.3380   -3.5630 O   0  0  0  0  0  0  0  0  0  0  0  0
   -0.2200   13.0260   -2.9910 C   0  0  2  0  0  0  0  0  0  0  0  0
    0.4260   12.4900   -4.2820 C   0  0  2  0  0  0  0  0  0  0  0  0
   -1.4130   12.2790   -2.8430 O   0  0  0  0  0  0  0  0  0  0  0  0
    0.4250   13.3700   -5.5360 C   0  0  0  0  0  0  0  0  0  0  0  0
   -1.0000   10.9260   -3.1790 N   0  0  0  0  0  0  0  0  0  0  0  0
   -0.3110   11.1450   -4.4290 C   0  0  1  0  0  0  0  0  0  0  0  0
   -1.1830   11.0030   -5.5310 O   0  0  0  0  0  0  0  0  0  0  0  0
   -0.4750   10.9730   -6.7600 C   0  0  0  0  0  0  0  0  0  0  0  0
  2  1  1  1
  2  3  1  0
  2  4  1  0
  4  5  1  0
  3  6  1  0
  3  7  1  1
  5  8  1  0
  6  8  1  0
  6  9  1  1
  7 10  1  0
  9 10  1  0
  8 11  1  0
 11 12  1  1
 11 13  1  0
 11 14  1  0
 14 15  1  0
 14 16  1  6
 15 17  1  6
 16 18  1  0
 15 19  1  0
 18 19  1  0
 19 20  1  6
 20 21  1  0
M  CHG  1  13  -1
M  END
