ucsf345-ucsf336
     RDKit          3D

 24 25  0  0  0  0  0  0  0  0999 V2000
   -6.8760   14.6930    1.5790 N   0  0  0  0  0  0  0  0  0  0  0  0
   -6.8270   14.7080    0.1250 C   0  0  2  0  0  0  0  0  0  0  0  0
   -7.8960   13.9000   -0.3110 O   0  0  0  0  0  0  0  0  0  0  0  0
   -5.4750   14.2770   -0.5160 C   0  0  1  0  0  0  0  0  0  0  0  0
   -5.5650   14.3100   -2.0000 N   0  0  0  0  0  0  0  0  0  0  0  0
   -4.2670   15.0720    0.0460 C   0  0  0  0  0  0  0  0  0  0  0  0
   -4.5210   15.1700   -2.5390 C   0  0  0  0  0  0  0  0  0  0  0  0
   -2.9730   14.7930   -0.6230 N   0  0  0  0  0  0  0  0  0  0  0  0
   -3.0950   14.8040   -2.0990 C   0  0  1  0  0  0  0  0  0  0  0  0
   -2.6720   13.4720   -2.7330 C   0  0  0  0  0  0  0  0  0  0  0  0
   -2.3650   12.3760   -1.7190 C   0  0  0  0  0  0  0  0  0  0  0  0
   -1.1300   11.5910   -2.1450 C   0  0  0  0  0  0  0  0  0  0  0  0
   -1.0530   11.6820   -3.5520 O   0  0  0  0  0  0  0  0  0  0  0  0
    0.2720   11.6960   -4.0310 C   0  0  2  0  0  0  0  0  0  0  0  0
    1.0460   13.0530   -3.6770 C   0  0  2  0  0  0  0  0  0  0  0  0
    0.1880   11.5710   -5.4920 N   0  0  0  0  0  0  0  0  0  0  0  0
    2.0470   13.3290   -4.4910 O   0  0  0  0  0  0  0  0  0  0  0  0
    1.7250   12.8830   -2.4350 O   0  0  0  0  0  0  0  0  0  0  0  0
   -0.5620   10.3960   -5.9430 C   0  0  0  0  0  0  0  0  0  0  0  0
   -0.5070   10.1990   -7.4710 C   0  0  0  0  0  0  0  0  0  0  0  0
   -2.0210   10.5070   -5.4710 C   0  0  0  0  0  0  0  0  0  0  0  0
   -1.3180    9.0100   -7.9910 C   0  0  0  0  0  0  0  0  0  0  0  0
   -2.9760    9.5160   -6.1440 C   0  0  0  0  0  0  0  0  0  0  0  0
   -2.2770    8.4330   -6.9650 C   0  0  0  0  0  0  0  0  0  0  0  0
  2  1  1  1
  2  3  1  0
  2  4  1  0
  4  5  1  0
  4  6  1  1
  5  7  1  0
  6  8  1  0
  7  9  1  0
  8  9  1  0
  9 10  1  1
 10 11  1  0
 11 12  1  0
 12 13  1  0
 13 14  1  0
 14 15  1  0
 14 16  1  6
 15 17  1  6
 15 18  1  0
 16 19  1  0
 19 20  1  0
 19 21  1  0
 20 22  1  0
 21 23  1  0
 22 24  1  0
 23 24  1  0
M  CHG  1  17  -1
M  END
