ucsf320-ucsf241
     RDKit          3D

 17 19  0  0  0  0  0  0  0  0999 V2000
   -1.2930   14.3570   -2.5250 O   0  0  0  0  0  0  0  0  0  0  0  0
   -2.1160   15.2400   -3.0370 C   0  0  1  0  0  0  0  0  0  0  0  0
   -2.2720   14.7350   -4.3410 O   0  0  0  0  0  0  0  0  0  0  0  0
   -3.4950   15.2510   -2.3180 C   0  0  2  0  0  0  0  0  0  0  0  0
   -3.4830   14.4500   -1.0610 C   0  0  2  0  0  0  0  0  0  0  0  0
   -4.7290   14.7600   -3.0800 C   0  0  0  0  0  0  0  0  0  0  0  0
   -4.5600   14.8370   -0.0740 C   0  0  2  0  0  0  0  0  0  0  0  0
   -6.0050   15.0110   -2.2670 C   0  0  0  0  0  0  0  0  0  0  0  0
   -2.2120   14.4500   -0.2960 C   0  0  2  0  0  0  0  0  0  0  0  0
   -5.7830   15.4700   -0.8050 C   0  0  1  0  0  0  0  0  0  0  0  0
   -2.4190   15.5290    0.6540 C   0  0  1  0  0  0  0  0  0  0  0  0
   -3.8480   15.6270    0.9830 N   0  0  0  0  0  0  0  0  0  0  0  0
   -0.8980   14.7440   -0.9890 C   0  0  0  0  0  0  0  0  0  0  0  0
   -6.9930   15.1510   -0.1010 O   0  0  0  0  0  0  0  0  0  0  0  0
    0.1650   14.6490    0.0720 C   0  0  0  0  0  0  0  0  0  0  0  0
   -1.6590   15.1310    1.7900 N   0  0  0  0  0  0  0  0  0  0  0  0
   -0.4100   14.3880    1.4640 C   0  0  0  0  0  0  0  0  0  0  0  0
  2  1  1  1
  2  3  1  0
  2  4  1  0
  5  4  1  6
  4  6  1  6
  5  7  1  0
  6  8  1  0
  5  9  1  0
  7 10  1  0
  8 10  1  0
  9 11  1  0
  7 12  1  1
 11 12  1  1
  9 13  1  6
 10 14  1  1
 13 15  1  0
 11 16  1  0
 15 17  1  0
 16 17  1  0
M  CHG  1   1  -1
M  END
