ucsf511-ucsf371
     RDKit          3D

 17 20  0  0  0  0  0  0  0  0999 V2000
    0.2230   14.6650   -1.6190 O   0  0  0  0  0  0  0  0  0  0  0  0
   -0.8080   15.6220   -1.3860 C   0  0  2  0  0  0  0  0  0  0  0  0
   -0.4590   16.4520   -0.3880 O   0  0  0  0  0  0  0  0  0  0  0  0
   -0.4550   14.2440   -2.7470 C   0  0  2  0  0  0  0  0  0  0  0  0
   -1.7970   13.8190   -2.2190 C   0  0  1  0  0  0  0  0  0  0  0  0
    0.1310   13.3160   -3.6490 N   0  0  0  0  0  0  0  0  0  0  0  0
   -2.0960   14.8290   -1.1280 C   0  0  1  0  0  0  0  0  0  0  0  0
   -2.2410   14.2740    0.3030 C   0  0  0  0  0  0  0  0  0  0  0  0
   -2.7100   14.0870   -3.4080 C   0  0  2  0  0  0  0  0  0  0  0  0
   -0.7330   13.4220   -4.8150 C   0  0  0  0  0  0  0  0  0  0  0  0
   -3.4460   15.4290   -1.4670 C   0  0  2  0  0  0  0  0  0  0  0  0
   -1.8600   14.3750   -4.5820 N   0  0  0  0  0  0  0  0  0  0  0  0
   -4.5150   15.2510   -0.4070 C   0  0  0  0  0  0  0  0  0  0  0  0
   -3.7880   15.0810   -2.9230 C   0  0  2  0  0  0  0  0  0  0  0  0
   -5.2060   14.5680   -3.1220 C   0  0  0  0  0  0  0  0  0  0  0  0
   -5.8920   15.6580   -0.8570 C   0  0  0  0  0  0  0  0  0  0  0  0
   -6.3050   15.1890   -2.2490 C   0  0  0  0  0  0  0  0  0  0  0  0
  1  2  1  0
  2  3  1  1
  1  4  1  0
  5  4  1  6
  4  6  1  1
  2  7  1  0
  5  7  1  0
  7  8  1  1
  5  9  1  0
  6 10  1  0
  7 11  1  0
  9 12  1  6
 10 12  1  0
 11 13  1  1
  9 14  1  0
 11 14  1  0
 14 15  1  1
 13 16  1  0
 15 17  1  0
 16 17  1  0
M  END
