ucsf169-ucsf303
     RDKit          3D

 28 30  0  0  0  0  0  0  0  0999 V2000
    1.2890   18.5570   -5.7380 C   0  0  0  0  0  0  0  0  0  0  0  0
    0.5130   18.0880   -4.6710 O   0  0  0  0  0  0  0  0  0  0  0  0
   -0.1890   16.9380   -5.1120 C   0  0  2  0  0  0  0  0  0  0  0  0
   -1.5710   17.0320   -4.5280 C   0  0  1  0  0  0  0  0  0  0  0  0
    0.5370   15.6040   -4.7750 C   0  0  0  0  0  0  0  0  0  0  0  0
   -2.2530   18.2030   -4.9610 O   0  0  0  0  0  0  0  0  0  0  0  0
   -2.3040   15.7450   -4.7100 C   0  0  0  0  0  0  0  0  0  0  0  0
   -0.2090   14.5430   -3.8840 C   0  0  2  0  0  0  0  0  0  0  0  0
    0.2600   13.0690   -4.1450 C   0  0  0  0  0  0  0  0  0  0  0  0
   -1.7030   14.8660   -3.6570 C   0  0  2  0  0  0  0  0  0  0  0  0
    0.9500   12.3150   -2.9690 C   0  0  1  0  0  0  0  0  0  0  0  0
   -2.6200   13.8510   -3.3510 O   0  0  0  0  0  0  0  0  0  0  0  0
    0.9160   13.0920   -1.7840 O   0  0  0  0  0  0  0  0  0  0  0  0
    0.2110   11.2940   -2.5750 O   0  0  0  0  0  0  0  0  0  0  0  0
   -3.9230   14.2500   -2.4990 S   0  0  1  0  0  0  0  0  0  0  0  0
   -4.5090   15.5040   -3.2730 O   0  0  0  0  0  0  0  0  0  0  0  0
   -5.0760   13.1050   -2.3160 N   0  0  0  0  0  0  0  0  0  0  0  0
   -3.2640   15.0190   -1.0470 C   0  0  0  0  0  0  0  0  0  0  0  0
   -4.8150   11.8560   -1.6940 C   0  0  1  0  0  0  0  0  0  0  0  0
   -2.0690   14.2430   -0.4440 C   0  0  0  0  0  0  0  0  0  0  0  0
   -4.4610   15.2770   -0.1160 C   0  0  0  0  0  0  0  0  0  0  0  0
   -5.9070   10.9330   -1.8700 N   0  0  0  0  0  0  0  0  0  0  0  0
   -3.2980   11.1620   -2.3330 S   0  0  0  0  0  0  0  0  0  0  0  0
   -1.7480   14.6180    0.9970 C   0  0  0  0  0  0  0  0  0  0  0  0
   -4.2670   14.6470    1.2250 C   0  0  0  0  0  0  0  0  0  0  0  0
   -3.9960    9.5220   -2.3990 C   0  0  0  0  0  0  0  0  0  0  0  0
   -5.4130    9.5570   -1.9770 N   0  0  0  0  0  0  0  0  0  0  0  0
   -2.9640   15.1730    1.7120 C   0  0  0  0  0  0  0  0  0  0  0  0
  1  2  1  0
  3  2  1  1
  3  4  1  0
  3  5  1  0
  4  6  1  6
  4  7  1  0
  5  8  1  0
  8  9  1  6
  7 10  1  0
  8 10  1  0
  9 11  1  0
 10 12  1  6
 11 13  1  1
 11 14  1  0
 15 12  1  0
 15 16  1  6
 15 17  1  0
 15 18  1  0
 19 17  1  6
 18 20  1  0
 18 21  1  0
 19 22  1  0
 19 23  1  0
 20 24  1  0
 21 25  1  0
 23 26  1  0
 22 27  1  0
 26 27  1  0
 24 28  1  0
 25 28  1  0
M  CHG  1  14  -1
M  END
