ucsf135-ucsf005
     RDKit          3D

 25 28  0  0  0  0  0  0  0  0999 V2000
    0.8220   12.8470   -7.0000 O   0  0  0  0  0  0  0  0  0  0  0  0
    0.8160   11.6050   -6.4330 C   0  0  1  0  0  0  0  0  0  0  0  0
    0.7400   11.9040   -5.0040 N   0  0  0  0  0  0  0  0  0  0  0  0
   -0.4260   10.7940   -6.9070 C   0  0  2  0  0  0  0  0  0  0  0  0
   -0.6190   11.2370   -4.3290 S   0  0  2  0  0  0  0  0  0  0  0  0
   -1.3610   10.4240   -5.7170 C   0  0  2  0  0  0  0  0  0  0  0  0
   -0.1600    9.5690   -7.7800 C   0  0  0  0  0  0  0  0  0  0  0  0
   -1.7200   12.2890   -3.8350 O   0  0  0  0  0  0  0  0  0  0  0  0
   -0.2630   10.1550   -3.2250 O   0  0  0  0  0  0  0  0  0  0  0  0
   -1.6160    8.9360   -5.6220 C   0  0  0  0  0  0  0  0  0  0  0  0
   -1.4530    8.8250   -8.1500 C   0  0  0  0  0  0  0  0  0  0  0  0
   -1.7960   13.5990   -4.3950 C   0  0  0  0  0  0  0  0  0  0  0  0
   -2.2480    8.3970   -6.9150 C   0  0  0  0  0  0  0  0  0  0  0  0
   -1.1860   14.6260   -3.4230 C   0  0  0  0  0  0  0  0  0  0  0  0
   -2.0600   15.2220   -2.3850 N   0  0  0  0  0  0  0  0  0  0  0  0
   -3.4850   15.2250   -2.7540 C   0  0  0  0  0  0  0  0  0  0  0  0
   -2.1170   14.5250   -1.1210 C   0  0  2  0  0  0  0  0  0  0  0  0
   -4.2530   15.3890   -1.5030 N   0  0  0  0  0  0  0  0  0  0  0  0
   -3.1920   15.3810   -0.4800 C   0  0  1  0  0  0  0  0  0  0  0  0
   -0.8670   14.5090   -0.3990 N   0  0  0  0  0  0  0  0  0  0  0  0
   -3.3990   14.7410    0.8820 C   0  0  2  0  0  0  0  0  0  0  0  0
   -0.9380   14.9570    0.9580 C   0  0  2  0  0  0  0  0  0  0  0  0
   -4.4160   15.4020    1.6640 N   0  0  0  0  0  0  0  0  0  0  0  0
   -0.0620   14.0640    1.6300 N   0  0  0  0  0  0  0  0  0  0  0  0
   -2.1820   14.7620    1.6550 N   0  0  0  0  0  0  0  0  0  0  0  0
  2  1  1  6
  2  3  1  0
  2  4  1  0
  3  5  1  0
  4  6  1  0
  5  6  1  0
  4  7  1  1
  5  8  1  0
  5  9  1  1
  6 10  1  1
  7 11  1  0
  8 12  1  0
 10 13  1  0
 11 13  1  0
 12 14  1  0
 14 15  1  0
 15 16  1  0
 15 17  1  0
 16 18  1  0
 17 19  1  0
 19 18  1  6
 17 20  1  1
 19 21  1  0
 20 22  1  0
 21 23  1  1
 22 24  1  1
 21 25  1  0
 22 25  1  0
M  END
