ucsf012-ucsf345
     RDKit          3D

 27 30  0  0  0  0  0  0  0  0999 V2000
   -3.1020   15.4420   -4.2540 C   0  0  0  0  0  0  0  0  0  0  0  0
   -2.5220   15.0840   -2.8870 C   0  0  2  0  0  0  0  0  0  0  0  0
   -3.2080   15.6770   -1.6410 C   0  0  1  0  0  0  0  0  0  0  0  0
   -1.0770   15.2900   -2.5720 N   0  0  0  0  0  0  0  0  0  0  0  0
   -4.7410   15.8250   -1.7460 C   0  0  0  0  0  0  0  0  0  0  0  0
   -0.1270   14.3910   -3.2370 C   0  0  0  0  0  0  0  0  0  0  0  0
   -2.4370   14.8220   -0.6400 C   0  0  1  0  0  0  0  0  0  0  0  0
   -1.0470   15.2930   -1.0710 C   0  0  1  0  0  0  0  0  0  0  0  0
   -2.5120   14.7530    0.8950 C   0  0  2  0  0  0  0  0  0  0  0  0
   -0.1260   14.3790   -0.4820 N   0  0  0  0  0  0  0  0  0  0  0  0
   -0.4580   12.8820   -3.1410 C   0  0  2  0  0  0  0  0  0  0  0  0
   -5.6000   14.7420   -1.5070 N   0  0  0  0  0  0  0  0  0  0  0  0
   -3.5610   15.4520    1.5910 N   0  0  0  0  0  0  0  0  0  0  0  0
   -1.3030   15.2440    1.4530 N   0  0  0  0  0  0  0  0  0  0  0  0
   -0.1040   14.6090    0.9550 C   0  0  0  0  0  0  0  0  0  0  0  0
    0.6390   12.0250   -2.5560 C   0  0  0  0  0  0  0  0  0  0  0  0
   -0.8430   12.2210   -4.3590 O   0  0  0  0  0  0  0  0  0  0  0  0
   -5.7190   14.5560   -0.0610 C   0  0  1  0  0  0  0  0  0  0  0  0
   -5.1620   13.5950   -2.2940 C   0  0  0  0  0  0  0  0  0  0  0  0
   -7.1160   14.5120    0.6370 C   0  0  2  0  0  0  0  0  0  0  0  0
   -0.5720   10.8130   -4.1510 C   0  0  0  0  0  0  0  0  0  0  0  0
   -0.0200   10.6910   -2.7430 C   0  0  0  0  0  0  0  0  0  0  0  0
   -3.8380   13.0200   -1.7700 C   0  0  0  0  0  0  0  0  0  0  0  0
   -4.7780   13.4100    0.3890 C   0  0  0  0  0  0  0  0  0  0  0  0
   -7.1300   14.5270    2.0930 N   0  0  0  0  0  0  0  0  0  0  0  0
   -7.9380   13.4620    0.1850 O   0  0  0  0  0  0  0  0  0  0  0  0
   -3.5300   13.4270   -0.3910 N   0  0  0  0  0  0  0  0  0  0  0  0
  2  1  1  6
  2  3  1  0
  2  4  1  0
  3  5  1  6
  4  6  1  0
  3  7  1  0
  4  8  1  0
  7  8  1  0
  7  9  1  1
  8 10  1  6
 11  6  1  6
  5 12  1  0
  9 13  1  1
  9 14  1  0
 10 15  1  0
 14 15  1  0
 11 16  1  0
 11 17  1  0
 12 18  1  0
 12 19  1  0
 18 20  1  0
 17 21  1  0
 16 22  1  0
 21 22  1  0
 19 23  1  0
 18 24  1  6
 20 25  1  1
 20 26  1  0
 23 27  1  0
 24 27  1  0
M  END
