ucsf336-ucsf115
     RDKit          3D

 27 30  0  0  0  0  0  0  0  0999 V2000
    1.7250   14.0380   -4.6690 O   0  0  0  0  0  0  0  0  0  0  0  0
    2.0720   12.7730   -4.6660 C   0  0  1  0  0  0  0  0  0  0  0  0
    2.5550   12.6740   -3.3260 O   0  0  0  0  0  0  0  0  0  0  0  0
    0.7860   11.8670   -4.8010 C   0  0  2  0  0  0  0  0  0  0  0  0
   -0.0120   11.9280   -6.0500 N   0  0  0  0  0  0  0  0  0  0  0  0
    0.0080   12.3200   -3.6480 C   0  0  2  0  0  0  0  0  0  0  0  0
   -0.6270   10.6020   -6.2130 C   0  0  0  0  0  0  0  0  0  0  0  0
   -0.0770   11.4500   -2.4200 C   0  0  0  0  0  0  0  0  0  0  0  0
   -1.3070   12.6220   -3.9910 O   0  0  0  0  0  0  0  0  0  0  0  0
   -0.6080   10.1500   -7.6780 C   0  0  0  0  0  0  0  0  0  0  0  0
   -2.0670   10.5840   -5.6760 C   0  0  0  0  0  0  0  0  0  0  0  0
   -1.4150   13.3090   -2.8020 C   0  0  2  0  0  0  0  0  0  0  0  0
   -1.2070   12.2170   -1.7700 C   0  0  0  0  0  0  0  0  0  0  0  0
   -1.2610    8.7880   -7.8750 C   0  0  0  0  0  0  0  0  0  0  0  0
   -2.7430    9.2250   -5.8620 C   0  0  0  0  0  0  0  0  0  0  0  0
   -2.5880   14.2560   -2.7610 C   0  0  0  0  0  0  0  0  0  0  0  0
   -2.6810    8.7520   -7.3150 C   0  0  0  0  0  0  0  0  0  0  0  0
   -2.1420   15.5860   -2.3580 N   0  0  0  0  0  0  0  0  0  0  0  0
   -1.7890   15.6780   -0.9470 C   0  0  2  0  0  0  0  0  0  0  0  0
   -0.8810   14.5990   -0.7140 N   0  0  0  0  0  0  0  0  0  0  0  0
   -3.0570   15.6750   -0.0590 C   0  0  2  0  0  0  0  0  0  0  0  0
   -0.5420   14.4540    0.6770 C   0  0  0  0  0  0  0  0  0  0  0  0
   -2.9380   14.8450    1.2070 C   0  0  2  0  0  0  0  0  0  0  0  0
   -4.3180   15.2200   -0.6930 N   0  0  0  0  0  0  0  0  0  0  0  0
   -1.6760   14.2100    1.5310 N   0  0  0  0  0  0  0  0  0  0  0  0
   -4.0160   13.8760    1.1280 N   0  0  0  0  0  0  0  0  0  0  0  0
   -5.0420   14.6010    0.3850 C   0  0  0  0  0  0  0  0  0  0  0  0
  2  1  1  1
  2  3  1  0
  2  4  1  0
  4  5  1  6
  4  6  1  0
  5  7  1  0
  6  8  1  1
  6  9  1  0
  7 10  1  0
  7 11  1  0
  9 12  1  0
  8 13  1  0
 12 13  1  0
 10 14  1  0
 11 15  1  0
 12 16  1  1
 14 17  1  0
 15 17  1  0
 16 18  1  0
 19 18  1  6
 19 20  1  0
 19 21  1  0
 20 22  1  0
 21 23  1  0
 21 24  1  6
 22 25  1  0
 23 25  1  6
 23 26  1  0
 24 27  1  0
 26 27  1  0
M  CHG  1   1  -1
M  END
