ucsf115-ucsf442
     RDKit          3D

 16 18  0  0  0  0  0  0  0  0999 V2000
   -1.6820   13.9520   -3.4480 C   0  0  0  0  0  0  0  0  0  0  0  0
   -1.0210   14.8080   -2.4700 N   0  0  0  0  0  0  0  0  0  0  0  0
   -1.4180   14.6970   -1.0660 C   0  0  2  0  0  0  0  0  0  0  0  0
   -1.4230   12.4800   -3.1410 C   0  0  1  0  0  0  0  0  0  0  0  0
   -1.0780   11.7590   -4.3230 O   0  0  0  0  0  0  0  0  0  0  0  0
   -0.2410   12.3280   -2.1990 C   0  0  0  0  0  0  0  0  0  0  0  0
    0.5200   11.1600   -2.7390 C   0  0  0  0  0  0  0  0  0  0  0  0
   -0.3750   10.6320   -3.8310 C   0  0  0  0  0  0  0  0  0  0  0  0
   -0.5920   13.7320   -0.4130 N   0  0  0  0  0  0  0  0  0  0  0  0
   -2.8780   14.3860   -0.6980 C   0  0  1  0  0  0  0  0  0  0  0  0
   -0.4680   14.1650    0.9650 C   0  0  0  0  0  0  0  0  0  0  0  0
   -2.8530   14.3700    0.8400 C   0  0  1  0  0  0  0  0  0  0  0  0
   -4.0210   15.2650   -1.0370 N   0  0  0  0  0  0  0  0  0  0  0  0
   -1.6350   14.9540    1.3470 N   0  0  0  0  0  0  0  0  0  0  0  0
   -4.0170   15.1070    1.2590 N   0  0  0  0  0  0  0  0  0  0  0  0
   -4.8930   15.0210    0.1060 C   0  0  0  0  0  0  0  0  0  0  0  0
  1  2  1  0
  3  2  1  6
  4  1  1  6
  4  5  1  0
  4  6  1  0
  6  7  1  0
  5  8  1  0
  7  8  1  0
  3  9  1  0
  3 10  1  0
  9 11  1  0
 10 12  1  0
 10 13  1  1
 11 14  1  0
 12 14  1  1
 12 15  1  0
 13 16  1  0
 15 16  1  0
M  END
