ucsf380-ucsf260
     RDKit          3D

 29 32  0  0  0  0  0  0  0  0999 V2000
    1.1720   14.7830   -1.7470 O   0  0  0  0  0  0  0  0  0  0  0  0
    0.1970   13.9980   -1.2670 C   0  0  2  0  0  0  0  0  0  0  0  0
    0.6110   12.6020   -1.3360 O   0  0  0  0  0  0  0  0  0  0  0  0
   -1.0890   14.3560   -2.1530 C   0  0  0  0  0  0  0  0  0  0  0  0
    0.4340   11.8530   -2.5880 C   0  0  2  0  0  0  0  0  0  0  0  0
   -2.2230   15.1650   -1.4000 C   0  0  0  0  0  0  0  0  0  0  0  0
   -1.6320   13.2450   -3.1370 C   0  0  0  0  0  0  0  0  0  0  0  0
    0.7450   10.5540   -2.4340 O   0  0  0  0  0  0  0  0  0  0  0  0
    1.4110   12.5100   -3.6410 C   0  0  0  0  0  0  0  0  0  0  0  0
   -2.6020   14.5850   -0.0300 C   0  0  0  0  0  0  0  0  0  0  0  0
   -3.4890   15.3260   -2.2740 C   0  0  0  0  0  0  0  0  0  0  0  0
   -2.8960   12.4620   -2.7330 C   0  0  0  0  0  0  0  0  0  0  0  0
   -1.6840   13.7300   -4.5950 C   0  0  0  0  0  0  0  0  0  0  0  0
    0.9780   12.5100   -5.1410 C   0  0  0  0  0  0  0  0  0  0  0  0
   -3.6170   15.4790    0.6720 C   0  0  0  0  0  0  0  0  0  0  0  0
   -4.8470   15.2290   -1.5700 C   0  0  0  0  0  0  0  0  0  0  0  0
   -3.3170   11.4100   -3.7690 C   0  0  0  0  0  0  0  0  0  0  0  0
   -2.0380   12.6560   -5.6080 C   0  0  0  0  0  0  0  0  0  0  0  0
   -4.8850   15.7330   -0.1380 C   0  0  0  0  0  0  0  0  0  0  0  0
   -3.2940   11.8940   -5.2270 C   0  0  0  0  0  0  0  0  0  0  0  0
   -0.2640   11.7710   -5.5110 N   0  0  0  0  0  0  0  0  0  0  0  0
   -0.7370   10.7600   -4.5810 C   0  0  0  0  0  0  0  0  0  0  0  0
   -0.3520   11.1430   -6.8410 C   0  0  2  0  0  0  0  0  0  0  0  0
   -1.8310   10.0680   -5.2650 N   0  0  0  0  0  0  0  0  0  0  0  0
   -1.3740    9.9980   -6.6540 C   0  0  2  0  0  0  0  0  0  0  0  0
    0.8850   10.7100   -7.6270 C   0  0  0  0  0  0  0  0  0  0  0  0
   -0.8330    8.6130   -6.9550 C   0  0  0  0  0  0  0  0  0  0  0  0
    0.5180    9.7930   -8.7800 C   0  0  0  0  0  0  0  0  0  0  0  0
   -0.2600    8.5440   -8.3620 C   0  0  0  0  0  0  0  0  0  0  0  0
  2  1  1  6
  2  3  1  0
  2  4  1  0
  3  5  1  0
  4  6  1  0
  4  7  1  0
  5  8  1  1
  5  9  1  0
  6 10  1  0
  6 11  1  0
  7 12  1  0
  7 13  1  0
  9 14  1  0
 10 15  1  0
 11 16  1  0
 12 17  1  0
 13 18  1  0
 15 19  1  0
 16 19  1  0
 17 20  1  0
 18 20  1  0
 14 21  1  0
 21 22  1  0
 21 23  1  0
 22 24  1  0
 23 25  1  0
 24 25  1  0
 23 26  1  1
 25 27  1  1
 26 28  1  0
 27 29  1  0
 28 29  1  0
M  CHG  2   1  -1   8  -1
M  END
