ucsf348-ucsf274
     RDKit          3D

 30 33  0  0  0  0  0  0  0  0999 V2000
   -6.9830   14.4170    2.2690 N   0  0  0  0  0  0  0  0  0  0  0  0
   -6.1210   14.2770    1.1430 C   0  0  2  0  0  0  0  0  0  0  0  0
   -5.0160   15.0930    1.5200 N   0  0  0  0  0  0  0  0  0  0  0  0
   -6.8760   14.6990    0.0080 N   0  0  0  0  0  0  0  0  0  0  0  0
   -6.2290   15.4650   -1.0390 C   0  0  2  0  0  0  0  0  0  0  0  0
   -4.0900   15.5130    0.4750 C   0  0  2  0  0  0  0  0  0  0  0  0
   -6.6860   14.9810   -2.2940 O   0  0  0  0  0  0  0  0  0  0  0  0
   -4.6940   15.5390   -0.9520 C   0  0  1  0  0  0  0  0  0  0  0  0
   -2.7320   14.7840    0.5690 C   0  0  0  0  0  0  0  0  0  0  0  0
   -1.7850   15.1310   -0.5820 C   0  0  0  0  0  0  0  0  0  0  0  0
   -3.9010   14.6800   -1.9190 C   0  0  0  0  0  0  0  0  0  0  0  0
   -2.4920   15.2780   -1.9480 C   0  0  2  0  0  0  0  0  0  0  0  0
   -1.6390   14.8220   -3.1340 C   0  0  0  0  0  0  0  0  0  0  0  0
   -2.3610   14.0490   -4.2430 C   0  0  0  0  0  0  0  0  0  0  0  0
   -2.0950   12.6560   -4.0750 O   0  0  0  0  0  0  0  0  0  0  0  0
   -1.8620   11.9790   -5.3060 C   0  0  1  0  0  0  0  0  0  0  0  0
   -0.3960   12.2360   -5.8470 C   0  0  1  0  0  0  0  0  0  0  0  0
   -2.2280   10.5640   -5.1620 N   0  0  0  0  0  0  0  0  0  0  0  0
    0.6180   12.8360   -4.8500 C   0  0  0  0  0  0  0  0  0  0  0  0
   -2.0940    9.8730   -6.4450 C   0  0  1  0  0  0  0  0  0  0  0  0
    0.1940   11.0350   -6.4690 N   0  0  0  0  0  0  0  0  0  0  0  0
    0.1190   12.7790   -3.3950 C   0  0  0  0  0  0  0  0  0  0  0  0
   -0.7810   10.2430   -7.2280 C   0  0  1  0  0  0  0  0  0  0  0  0
   -2.1960    8.3610   -6.2410 C   0  0  0  0  0  0  0  0  0  0  0  0
    0.9340   11.9300   -2.4130 C   0  0  2  0  0  0  0  0  0  0  0  0
   -0.0500    9.0120   -7.7930 C   0  0  0  0  0  0  0  0  0  0  0  0
   -2.1260    7.5870   -7.5620 C   0  0  0  0  0  0  0  0  0  0  0  0
    0.4560   10.6920   -2.2760 O   0  0  0  0  0  0  0  0  0  0  0  0
    0.6310   12.4870   -1.1540 O   0  0  0  0  0  0  0  0  0  0  0  0
   -0.9950    8.0460   -8.4870 C   0  0  0  0  0  0  0  0  0  0  0  0
  2  1  1  1
  2  3  1  0
  2  4  1  0
  4  5  1  0
  3  6  1  0
  5  7  1  6
  5  8  1  0
  6  8  1  0
  6  9  1  6
  9 10  1  0
  8 11  1  6
 10 12  1  0
 11 12  1  0
 12 13  1  6
 13 14  1  0
 14 15  1  0
 16 15  1  1
 16 17  1  0
 16 18  1  0
 17 19  1  1
 18 20  1  0
 17 21  1  0
 19 22  1  0
 20 23  1  0
 21 23  1  0
 20 24  1  1
 22 25  1  0
 23 26  1  1
 24 27  1  0
 25 28  1  1
 25 29  1  0
 26 30  1  0
 27 30  1  0
M  CHG  1  28  -1
M  END
