ucsf274-ucsf224
     RDKit          3D

 24 26  0  0  0  0  0  0  0  0999 V2000
    0.6960   11.1480   -2.4140 O   0  0  0  0  0  0  0  0  0  0  0  0
    1.2500   12.3450   -2.4630 C   0  0  2  0  0  0  0  0  0  0  0  0
    0.4050   12.9630   -1.5270 O   0  0  0  0  0  0  0  0  0  0  0  0
    1.2900   12.9340   -3.9440 C   0  0  1  0  0  0  0  0  0  0  0  0
    0.7570   11.9230   -4.9830 C   0  0  0  0  0  0  0  0  0  0  0  0
    0.6640   14.3450   -4.3240 C   0  0  1  0  0  0  0  0  0  0  0  0
   -0.6200   11.9910   -5.6400 C   0  0  2  0  0  0  0  0  0  0  0  0
   -0.7810   14.6090   -3.8620 C   0  0  0  0  0  0  0  0  0  0  0  0
    1.4710   15.6140   -4.1030 C   0  0  0  0  0  0  0  0  0  0  0  0
   -1.7210   11.4200   -4.6760 C   0  0  1  0  0  0  0  0  0  0  0  0
   -0.4750   11.4890   -7.0160 N   0  0  0  0  0  0  0  0  0  0  0  0
   -1.3540   15.5730   -4.8710 C   0  0  1  0  0  0  0  0  0  0  0  0
    0.9490   16.7280   -5.0150 C   0  0  0  0  0  0  0  0  0  0  0  0
   -2.6340   12.4410   -4.3150 O   0  0  0  0  0  0  0  0  0  0  0  0
   -3.1180   15.7880   -4.7180 Cl  0  0  0  0  0  0  0  0  0  0  0  0
   -2.5670   10.3820   -5.2560 N   0  0  0  0  0  0  0  0  0  0  0  0
   -1.1210   10.2090   -7.2830 C   0  0  2  0  0  0  0  0  0  0  0  0
   -0.5610   16.9020   -4.8680 C   0  0  1  0  0  0  0  0  0  0  0  0
   -1.2440   18.1050   -6.0220 Cl  0  0  0  0  0  0  0  0  0  0  0  0
   -1.6930    9.5070   -6.0380 C   0  0  2  0  0  0  0  0  0  0  0  0
   -0.1280    9.2950   -8.0110 C   0  0  0  0  0  0  0  0  0  0  0  0
   -0.6170    7.8490   -8.1060 C   0  0  0  0  0  0  0  0  0  0  0  0
   -2.5060    8.2710   -6.4570 C   0  0  0  0  0  0  0  0  0  0  0  0
   -2.1070    7.7150   -7.8230 C   0  0  0  0  0  0  0  0  0  0  0  0
  2  1  1  6
  2  3  1  0
  2  4  1  0
  4  5  1  6
  4  6  1  0
  7  5  1  1
  6  8  1  1
  6  9  1  0
  7 10  1  0
  7 11  1  0
  8 12  1  0
  9 13  1  0
 10 14  1  6
 12 15  1  1
 10 16  1  0
 11 17  1  0
 12 18  1  0
 13 18  1  0
 18 19  1  6
 16 20  1  0
 17 20  1  0
 17 21  1  1
 21 22  1  0
 20 23  1  6
 22 24  1  0
 23 24  1  0
M  CHG  1   1  -1
M  END
