ucsf392-ucsf172
     RDKit          3D

 16 16  0  0  0  0  0  0  0  0999 V2000
   -4.9910   15.3770   -1.5360 C   0  0  0  0  0  0  0  0  0  0  0  0
   -3.6710   15.4500   -0.7700 C   0  0  2  0  0  0  0  0  0  0  0  0
   -2.4400   14.8010   -1.4670 C   0  0  1  0  0  0  0  0  0  0  0  0
   -3.7710   14.7560    0.6060 C   0  0  2  0  0  0  0  0  0  0  0  0
   -4.9430   15.0620    1.4560 N   0  0  0  0  0  0  0  0  0  0  0  0
   -1.9300   15.1340   -2.9310 C   0  0  1  0  0  0  0  0  0  0  0  0
   -2.5420   14.8810    1.4040 N   0  0  0  0  0  0  0  0  0  0  0  0
   -1.2570   14.9800   -0.6200 N   0  0  0  0  0  0  0  0  0  0  0  0
   -6.4850   14.4630    1.2290 S   0  0  0  0  0  0  0  0  0  0  0  0
   -0.7490   14.4070   -3.1990 O   0  0  0  0  0  0  0  0  0  0  0  0
   -2.7230   14.7260   -3.9010 O   0  0  0  0  0  0  0  0  0  0  0  0
   -1.3890   14.3790    0.6660 C   0  0  1  0  0  0  0  0  0  0  0  0
   -0.1130   14.2150    1.4470 C   0  0  0  0  0  0  0  0  0  0  0  0
   -7.7490   14.8260    2.3980 C   0  0  0  0  0  0  0  0  0  0  0  0
   -6.4680   12.8690    1.2310 O   0  0  0  0  0  0  0  0  0  0  0  0
   -7.1260   14.8710   -0.1880 O   0  0  0  0  0  0  0  0  0  0  0  0
  2  1  1  6
  2  3  1  0
  2  4  1  0
  4  5  1  1
  3  6  1  0
  4  7  1  0
  3  8  1  1
  5  9  1  0
  6 10  1  6
  6 11  1  0
  7 12  1  0
  8 12  1  0
 12 13  1  1
  9 14  1  0
  9 15  1  0
  9 16  1  0
M  CHG  1  11  -1
M  END
