ucsf224-ucsf170
     RDKit          3D

 19 21  0  0  0  0  0  0  0  0999 V2000
   -1.4040   18.0520   -5.6930 Cl  0  0  0  0  0  0  0  0  0  0  0  0
   -0.5280   16.9280   -4.6050 C   0  0  1  0  0  0  0  0  0  0  0  0
   -0.7250   15.4210   -4.8370 C   0  0  2  0  0  0  0  0  0  0  0  0
    0.9820   17.0470   -4.7930 C   0  0  0  0  0  0  0  0  0  0  0  0
   -2.0630   14.8630   -4.4770 C   0  0  0  0  0  0  0  0  0  0  0  0
    0.4040   14.9070   -3.9690 C   0  0  2  0  0  0  0  0  0  0  0  0
    1.5050   15.6030   -4.6950 C   0  0  0  0  0  0  0  0  0  0  0  0
    0.5700   13.3950   -3.7480 C   0  0  0  0  0  0  0  0  0  0  0  0
   -2.2430   14.8340   -2.9690 C   0  0  2  0  0  0  0  0  0  0  0  0
   -0.1640   13.0130   -2.4490 C   0  0  1  0  0  0  0  0  0  0  0  0
   -1.1040   14.2360   -2.0160 C   0  0  2  0  0  0  0  0  0  0  0  0
   -3.6780   14.5090   -2.6260 C   0  0  0  0  0  0  0  0  0  0  0  0
   -0.7100   11.8170   -2.5830 O   0  0  0  0  0  0  0  0  0  0  0  0
    0.7730   12.7060   -1.4380 O   0  0  0  0  0  0  0  0  0  0  0  0
   -1.5790   14.2520   -0.5180 C   0  0  0  0  0  0  0  0  0  0  0  0
   -3.9330   15.0680   -1.2610 C   0  0  0  0  0  0  0  0  0  0  0  0
   -3.0850   14.3450   -0.2240 C   0  0  2  0  0  0  0  0  0  0  0  0
   -3.2970   15.2560    1.3510 S   0  0  0  0  0  0  0  0  0  0  0  0
   -5.0860   15.0610    1.4130 C   0  0  0  0  0  0  0  0  0  0  0  0
  2  1  1  6
  2  3  1  0
  2  4  1  0
  3  5  1  1
  3  6  1  0
  4  7  1  0
  6  7  1  6
  6  8  1  0
  9  5  1  6
  8 10  1  0
  9 11  1  0
 10 11  1  0
  9 12  1  0
 10 13  1  6
 10 14  1  0
 11 15  1  1
 12 16  1  0
 15 17  1  0
 16 17  1  0
 17 18  1  1
 18 19  1  0
M  CHG  1  13  -1
M  END
