ucsf523-ucsf247
     RDKit          3D

 19 21  0  0  0  0  0  0  0  0999 V2000
    0.1170   13.5810    1.4090 N   0  0  0  0  0  0  0  0  0  0  0  0
   -0.7000   14.6020    0.9180 C   0  0  2  0  0  0  0  0  0  0  0  0
   -1.9000   14.3270    1.6180 N   0  0  0  0  0  0  0  0  0  0  0  0
   -0.8940   14.2820   -0.4350 N   0  0  0  0  0  0  0  0  0  0  0  0
   -1.5660   15.4230   -1.0020 C   0  0  1  0  0  0  0  0  0  0  0  0
   -3.0780   14.9550    1.0620 C   0  0  1  0  0  0  0  0  0  0  0  0
   -1.8970   15.1730   -2.4110 N   0  0  0  0  0  0  0  0  0  0  0  0
   -2.9030   15.6850   -0.2850 C   0  0  2  0  0  0  0  0  0  0  0  0
   -4.0880   13.9220    1.0880 N   0  0  0  0  0  0  0  0  0  0  0  0
   -0.9450   14.2110   -3.0530 C   0  0  0  0  0  0  0  0  0  0  0  0
   -3.3230   14.8530   -2.4140 C   0  0  1  0  0  0  0  0  0  0  0  0
   -5.3380   14.3250    0.4780 C   0  0  1  0  0  0  0  0  0  0  0  0
   -3.9420   15.5740   -1.3050 N   0  0  0  0  0  0  0  0  0  0  0  0
   -6.0650   14.9750    1.5180 O   0  0  0  0  0  0  0  0  0  0  0  0
    0.5520   14.1760   -2.5770 C   0  0  1  0  0  0  0  0  0  0  0  0
   -3.9650   15.1360   -3.6220 O   0  0  0  0  0  0  0  0  0  0  0  0
   -5.2950   15.1710   -0.8470 C   0  0  0  0  0  0  0  0  0  0  0  0
    0.8220   13.0220   -2.0020 O   0  0  0  0  0  0  0  0  0  0  0  0
    1.4350   14.1510   -3.6870 O   0  0  0  0  0  0  0  0  0  0  0  0
  2  1  1  1
  2  3  1  0
  2  4  1  0
  5  4  1  1
  6  3  1  6
  5  7  1  0
  5  8  1  0
  6  8  1  0
  6  9  1  0
  7 10  1  0
  7 11  1  0
  9 12  1  0
  8 13  1  6
 11 13  1  0
 12 14  1  1
 10 15  1  0
 11 16  1  6
 12 17  1  0
 13 17  1  0
 15 18  1  1
 15 19  1  0
M  CHG  1  18  -1
M  END
