ucsf333-ucsf378
     RDKit          3D

 24 26  0  0  0  0  0  0  0  0999 V2000
   -6.6120   15.4820   -1.5610 Cl  0  0  0  0  0  0  0  0  0  0  0  0
   -5.0280   14.8070   -1.0950 C   0  0  1  0  0  0  0  0  0  0  0  0
   -4.0290   14.9150   -2.2520 C   0  0  0  0  0  0  0  0  0  0  0  0
   -4.5400   15.4420    0.2130 C   0  0  0  0  0  0  0  0  0  0  0  0
   -2.7590   15.5770   -1.7500 C   0  0  2  0  0  0  0  0  0  0  0  0
   -3.1440   14.9570    0.6430 C   0  0  0  0  0  0  0  0  0  0  0  0
   -1.7140   15.7190   -2.7600 N   0  0  0  0  0  0  0  0  0  0  0  0
   -2.2060   14.8420   -0.5370 C   0  0  2  0  0  0  0  0  0  0  0  0
   -0.4400   15.3750   -2.0850 C   0  0  1  0  0  0  0  0  0  0  0  0
   -0.6350   15.6470   -0.3260 S   0  0  0  0  0  0  0  0  0  0  0  0
   -0.1610   13.9570   -2.4860 C   0  0  0  0  0  0  0  0  0  0  0  0
    0.3450   13.5730   -3.8680 C   0  0  0  0  0  0  0  0  0  0  0  0
    1.7910   14.0190   -3.9090 C   0  0  1  0  0  0  0  0  0  0  0  0
   -0.5770   14.3360   -4.9160 C   0  0  1  0  0  0  0  0  0  0  0  0
    0.1570   12.0300   -3.8380 C   0  0  0  0  0  0  0  0  0  0  0  0
   -2.3360   13.9760   -4.7140 Cl  0  0  0  0  0  0  0  0  0  0  0  0
    2.8380   12.9700   -4.9300 Cl  0  0  0  0  0  0  0  0  0  0  0  0
    1.8920   15.5040   -4.2190 C   0  0  0  0  0  0  0  0  0  0  0  0
   -0.4430   15.8720   -4.8930 C   0  0  0  0  0  0  0  0  0  0  0  0
    0.3340   11.5340   -2.3940 C   0  0  2  0  0  0  0  0  0  0  0  0
    0.6600   16.3360   -3.9820 C   0  0  0  0  0  0  0  0  0  0  0  0
    1.4490   12.0670   -1.9350 O   0  0  0  0  0  0  0  0  0  0  0  0
    0.4640   10.1310   -2.4590 O   0  0  0  0  0  0  0  0  0  0  0  0
   -0.4050    9.8320   -3.5890 O   0  0  0  0  0  0  0  0  0  0  0  0
  2  1  1  6
  2  3  1  0
  2  4  1  0
  5  3  1  6
  4  6  1  0
  5  7  1  0
  5  8  1  0
  8  6  1  1
  7  9  1  0
  8 10  1  0
  9 10  1  0
  9 11  1  1
 12 11  1  0
 12 13  1  0
 12 14  1  0
 12 15  1  0
 14 16  1  1
 13 17  1  6
 13 18  1  0
 14 19  1  0
 15 20  1  0
 18 21  1  0
 19 21  1  0
 20 22  1  6
 20 23  1  0
 23 24  1  0
M  CHG  1  22  -1
M  END
