ucsf411-ucsf151
     RDKit          3D

 18 20  0  0  0  0  0  0  0  0999 V2000
    0.7320   10.9580   -2.6550 O   0  0  0  0  0  0  0  0  0  0  0  0
    1.2010   12.1940   -2.7190 C   0  0  2  0  0  0  0  0  0  0  0  0
    0.1790   12.9460   -2.0750 O   0  0  0  0  0  0  0  0  0  0  0  0
    1.4600   12.6170   -4.2170 C   0  0  0  0  0  0  0  0  0  0  0  0
    1.3230   13.9940   -4.6610 O   0  0  0  0  0  0  0  0  0  0  0  0
   -0.3130   14.0130   -2.8200 C   0  0  2  0  0  0  0  0  0  0  0  0
   -1.0610   14.9020   -2.0280 O   0  0  0  0  0  0  0  0  0  0  0  0
    0.0240   14.3890   -5.1260 C   0  0  1  0  0  0  0  0  0  0  0  0
   -0.9200   13.6970   -4.2110 C   0  0  2  0  0  0  0  0  0  0  0  0
   -0.1230   15.8850   -4.7760 C   0  0  2  0  0  0  0  0  0  0  0  0
   -2.4080   14.1030   -4.4800 C   0  0  0  0  0  0  0  0  0  0  0  0
   -1.5150   16.4680   -5.0430 C   0  0  2  0  0  0  0  0  0  0  0  0
   -2.6640   15.4770   -5.1470 C   0  0  1  0  0  0  0  0  0  0  0  0
    1.0290   16.7380   -5.2180 C   0  0  0  0  0  0  0  0  0  0  0  0
   -3.1580   15.3580   -6.4680 O   0  0  0  0  0  0  0  0  0  0  0  0
   -1.4780   17.6630   -5.9870 C   0  0  0  0  0  0  0  0  0  0  0  0
    0.7990   18.2250   -5.0050 C   0  0  0  0  0  0  0  0  0  0  0  0
   -0.5860   18.7310   -5.4240 C   0  0  0  0  0  0  0  0  0  0  0  0
  2  1  1  6
  2  3  1  0
  2  4  1  0
  4  5  1  0
  3  6  1  0
  6  7  1  1
  8  5  1  1
  6  9  1  0
  8  9  1  0
  8 10  1  0
  9 11  1  1
 10 12  1  0
 11 13  1  0
 12 13  1  0
 10 14  1  6
 13 15  1  6
 12 16  1  6
 14 17  1  0
 16 18  1  0
 17 18  1  0
M  CHG  1   1  -1
M  END
