ucsf274-ucsf247
     RDKit          3D

 28 30  0  0  0  0  0  0  0  0999 V2000
    0.4250   11.2470   -2.5820 O   0  0  0  0  0  0  0  0  0  0  0  0
    1.0140   12.4240   -2.4230 C   0  0  2  0  0  0  0  0  0  0  0  0
    0.4990   12.7310   -1.1480 O   0  0  0  0  0  0  0  0  0  0  0  0
    0.5920   13.5320   -3.5110 C   0  0  2  0  0  0  0  0  0  0  0  0
    0.1310   13.0410   -4.9320 C   0  0  0  0  0  0  0  0  0  0  0  0
    1.8160   14.2870   -3.7110 O   0  0  0  0  0  0  0  0  0  0  0  0
   -0.3930   14.6680   -2.9640 C   0  0  0  0  0  0  0  0  0  0  0  0
   -1.7090   14.2310   -2.4020 N   0  0  0  0  0  0  0  0  0  0  0  0
   -0.3150   11.5760   -5.1290 C   0  0  1  0  0  0  0  0  0  0  0  0
   -2.7020   15.3010   -2.4650 C   0  0  1  0  0  0  0  0  0  0  0  0
   -1.7620   11.2890   -4.5690 C   0  0  1  0  0  0  0  0  0  0  0  0
   -0.1640   11.1730   -6.5420 N   0  0  0  0  0  0  0  0  0  0  0  0
   -2.4570   12.4520   -4.1860 O   0  0  0  0  0  0  0  0  0  0  0  0
   -3.4620   15.1870   -3.6490 O   0  0  0  0  0  0  0  0  0  0  0  0
   -2.6150   10.5560   -5.4830 N   0  0  0  0  0  0  0  0  0  0  0  0
   -0.5220    9.7690   -6.7680 C   0  0  1  0  0  0  0  0  0  0  0  0
   -3.6880   15.3530   -1.2670 C   0  0  1  0  0  0  0  0  0  0  0  0
   -1.8550    9.4220   -6.0400 C   0  0  2  0  0  0  0  0  0  0  0  0
   -0.5600    9.4240   -8.2550 C   0  0  0  0  0  0  0  0  0  0  0  0
   -5.0160   14.5910   -1.4240 C   0  0  0  0  0  0  0  0  0  0  0  0
   -3.0220   15.0810    0.0950 C   0  0  0  0  0  0  0  0  0  0  0  0
   -0.9020    7.9640   -8.5340 C   0  0  0  0  0  0  0  0  0  0  0  0
   -2.7900    8.5920   -6.9380 C   0  0  0  0  0  0  0  0  0  0  0  0
   -5.9670   15.0650   -0.3390 C   0  0  1  0  0  0  0  0  0  0  0  0
   -3.9660   15.4300    1.2400 C   0  0  0  0  0  0  0  0  0  0  0  0
   -7.2340   14.4190   -0.4100 O   0  0  0  0  0  0  0  0  0  0  0  0
   -2.0840    7.4790   -7.7070 C   0  0  0  0  0  0  0  0  0  0  0  0
   -5.3570   14.8180    1.0520 C   0  0  0  0  0  0  0  0  0  0  0  0
  2  1  1  6
  2  3  1  0
  2  4  1  0
  4  5  1  0
  4  6  1  6
  4  7  1  0
  7  8  1  0
  9  5  1  6
  8 10  1  0
  9 11  1  0
  9 12  1  0
 11 13  1  6
 10 14  1  6
 11 15  1  0
 12 16  1  0
 10 17  1  0
 15 18  1  0
 16 18  1  0
 16 19  1  6
 17 20  1  6
 17 21  1  0
 19 22  1  0
 18 23  1  6
 20 24  1  0
 21 25  1  0
 24 26  1  1
 22 27  1  0
 23 27  1  0
 24 28  1  0
 25 28  1  0
M  CHG  1   1  -1
M  END
