ucsf424-ucsf392
     RDKit          3D

 25 27  0  0  0  0  0  0  0  0999 V2000
    1.6860   12.1710   -3.1400 O   0  0  0  0  0  0  0  0  0  0  0  0
    0.4140   12.3610   -3.3990 C   0  0  2  0  0  0  0  0  0  0  0  0
   -0.1620   11.1000   -3.1380 O   0  0  0  0  0  0  0  0  0  0  0  0
    0.2030   12.7560   -4.8880 C   0  0  0  0  0  0  0  0  0  0  0  0
   -0.1540   13.3740   -2.4140 C   0  0  0  0  0  0  0  0  0  0  0  0
    0.7720   13.6000   -1.2100 C   0  0  0  0  0  0  0  0  0  0  0  0
    0.5010   11.6750   -5.9460 C   0  0  2  0  0  0  0  0  0  0  0  0
    0.7380   14.9930   -0.6130 C   0  0  0  0  0  0  0  0  0  0  0  0
    0.2200   11.9520   -7.3470 N   0  0  0  0  0  0  0  0  0  0  0  0
   -0.3790   10.4300   -5.8150 C   0  0  2  0  0  0  0  0  0  0  0  0
   -0.1310   15.1770    0.6350 C   0  0  0  0  0  0  0  0  0  0  0  0
    0.5640   10.6710   -7.9480 O   0  0  0  0  0  0  0  0  0  0  0  0
   -0.1220    9.7150   -7.1430 C   0  0  2  0  0  0  0  0  0  0  0  0
   -1.8700   10.6270   -5.5570 C   0  0  0  0  0  0  0  0  0  0  0  0
   -1.3980    9.2300   -7.8110 C   0  0  0  0  0  0  0  0  0  0  0  0
   -2.6440    9.2980   -5.6080 C   0  0  0  0  0  0  0  0  0  0  0  0
   -1.4750   14.4550    0.5450 C   0  0  1  0  0  0  0  0  0  0  0  0
   -2.3010    8.4670   -6.8400 C   0  0  0  0  0  0  0  0  0  0  0  0
   -2.4780   14.9460    1.4660 N   0  0  0  0  0  0  0  0  0  0  0  0
   -1.8970   14.3860   -0.8320 N   0  0  0  0  0  0  0  0  0  0  0  0
   -3.5930   15.7060    0.9620 C   0  0  2  0  0  0  0  0  0  0  0  0
   -2.7140   15.4680   -1.3140 C   0  0  0  0  0  0  0  0  0  0  0  0
   -4.6920   15.5050    1.8750 N   0  0  0  0  0  0  0  0  0  0  0  0
   -3.9990   15.5510   -0.5100 C   0  0  1  0  0  0  0  0  0  0  0  0
   -4.9740   14.4310   -0.8360 C   0  0  0  0  0  0  0  0  0  0  0  0
  2  1  1  1
  2  3  1  0
  2  4  1  0
  2  5  1  0
  5  6  1  0
  7  4  1  1
  6  8  1  0
  7  9  1  0
  7 10  1  0
  8 11  1  0
  9 12  1  0
 10 13  1  0
 12 13  1  0
 10 14  1  6
 13 15  1  6
 14 16  1  0
 17 11  1  6
 15 18  1  0
 16 18  1  0
 17 19  1  0
 17 20  1  0
 19 21  1  0
 20 22  1  0
 21 23  1  1
 21 24  1  0
 22 24  1  0
 24 25  1  1
M  CHG  1   1  -1
M  END
