ucsf262-ucsf135
     RDKit          3D

 27 30  0  0  0  0  0  0  0  0999 V2000
   -3.1530   15.6720   -5.7910 Cl  0  0  0  0  0  0  0  0  0  0  0  0
   -1.8930   16.7310   -5.0920 C   0  0  1  0  0  0  0  0  0  0  0  0
   -0.5510   16.0450   -4.8560 C   0  0  2  0  0  0  0  0  0  0  0  0
   -1.7950   18.0660   -5.8630 C   0  0  0  0  0  0  0  0  0  0  0  0
   -0.3830   15.0400   -3.7220 C   0  0  0  0  0  0  0  0  0  0  0  0
    0.5030   17.0630   -4.5090 C   0  0  1  0  0  0  0  0  0  0  0  0
   -0.4130   18.4710   -6.4310 C   0  0  0  0  0  0  0  0  0  0  0  0
    1.1540   14.9120   -3.6480 C   0  0  1  0  0  0  0  0  0  0  0  0
    1.6280   16.2670   -4.0570 N   0  0  0  0  0  0  0  0  0  0  0  0
    0.8260   17.9980   -5.6640 C   0  0  0  0  0  0  0  0  0  0  0  0
    1.7360   14.5480   -2.2230 C   0  0  2  0  0  0  0  0  0  0  0  0
    3.0570   14.4530   -2.3240 O   0  0  0  0  0  0  0  0  0  0  0  0
    1.1960   13.2970   -1.7610 O   0  0  0  0  0  0  0  0  0  0  0  0
    0.9130   12.3580   -2.7830 C   0  0  0  0  0  0  0  0  0  0  0  0
    0.1320   11.2220   -2.1470 C   0  0  0  0  0  0  0  0  0  0  0  0
   -0.4650   10.4070   -3.1230 O   0  0  0  0  0  0  0  0  0  0  0  0
   -0.6600   11.0810   -4.5320 S   0  0  1  0  0  0  0  0  0  0  0  0
   -1.9690   11.9930   -4.5630 O   0  0  0  0  0  0  0  0  0  0  0  0
    0.6780   11.7690   -5.2310 N   0  0  0  0  0  0  0  0  0  0  0  0
   -0.9210    9.7600   -5.6510 C   0  0  2  0  0  0  0  0  0  0  0  0
    0.7430   11.3850   -6.6410 C   0  0  1  0  0  0  0  0  0  0  0  0
   -0.4570   10.4470   -6.9500 C   0  0  1  0  0  0  0  0  0  0  0  0
   -2.3140    9.2120   -5.8150 C   0  0  0  0  0  0  0  0  0  0  0  0
    0.6290   12.5340   -7.3670 O   0  0  0  0  0  0  0  0  0  0  0  0
   -2.2960    8.1850   -6.9540 C   0  0  0  0  0  0  0  0  0  0  0  0
   -0.2690    9.3880   -8.0150 C   0  0  0  0  0  0  0  0  0  0  0  0
   -1.6230    8.6910   -8.2430 C   0  0  0  0  0  0  0  0  0  0  0  0
  2  1  1  6
  2  3  1  0
  2  4  1  0
  3  5  1  1
  3  6  1  0
  4  7  1  0
  8  5  1  1
  6  9  1  0
  8  9  1  0
  6 10  1  6
  7 10  1  0
  8 11  1  0
 11 12  1  6
 11 13  1  0
 13 14  1  0
 14 15  1  0
 15 16  1  0
 17 16  1  0
 17 18  1  1
 17 19  1  0
 17 20  1  0
 19 21  1  0
 20 22  1  0
 21 22  1  0
 20 23  1  6
 21 24  1  6
 23 25  1  0
 22 26  1  6
 25 27  1  0
 26 27  1  0
M  CHG  1  12  -1
M  END
