ucsf017-ucsf520
     RDKit          3D

 24 28  0  0  0  0  0  0  0  0999 V2000
   -2.4630   15.6110   -2.9500 C   0  0  0  0  0  0  0  0  0  0  0  0
   -1.1620   16.3300   -3.4340 C   0  0  2  0  0  0  0  0  0  0  0  0
   -1.5940   17.5120   -4.1480 O   0  0  0  0  0  0  0  0  0  0  0  0
   -2.6960   15.5980   -1.4200 C   0  0  2  0  0  0  0  0  0  0  0  0
   -2.0940   14.3770   -0.8300 C   0  0  2  0  0  0  0  0  0  0  0  0
   -4.0840   15.4370   -0.7750 C   0  0  0  0  0  0  0  0  0  0  0  0
   -0.1970   15.6330   -4.4110 C   0  0  0  0  0  0  0  0  0  0  0  0
   -2.4730   14.5260    0.6380 C   0  0  2  0  0  0  0  0  0  0  0  0
   -0.5890   14.3080   -1.0020 C   0  0  2  0  0  0  0  0  0  0  0  0
   -3.7390   15.2570    0.6590 N   0  0  0  0  0  0  0  0  0  0  0  0
    0.5060   16.8160   -5.0160 C   0  0  0  0  0  0  0  0  0  0  0  0
   -0.6540   17.7660   -5.2070 C   0  0  0  0  0  0  0  0  0  0  0  0
   -0.1760   13.6830   -2.2570 N   0  0  0  0  0  0  0  0  0  0  0  0
    0.0650   13.7410    0.1690 N   0  0  0  0  0  0  0  0  0  0  0  0
   -1.4600   15.2010    1.3670 N   0  0  0  0  0  0  0  0  0  0  0  0
   -1.1680   13.4200   -3.3050 C   0  0  1  0  0  0  0  0  0  0  0  0
    0.7560   12.5780   -2.1580 C   0  0  0  0  0  0  0  0  0  0  0  0
   -0.2020   14.4760    1.3810 C   0  0  0  0  0  0  0  0  0  0  0  0
   -2.2280   14.3920   -3.8350 C   0  0  0  0  0  0  0  0  0  0  0  0
   -0.4940   12.9300   -4.5710 C   0  0  2  0  0  0  0  0  0  0  0  0
    0.2100   11.3080   -2.8100 C   0  0  0  0  0  0  0  0  0  0  0  0
   -1.5920   13.0080   -5.6060 C   0  0  0  0  0  0  0  0  0  0  0  0
   -2.4230   14.1190   -5.2430 O   0  0  0  0  0  0  0  0  0  0  0  0
   -0.0190   11.5080   -4.3060 C   0  0  0  0  0  0  0  0  0  0  0  0
  2  1  1  6
  2  3  1  0
  4  1  1  6
  5  4  1  6
  4  6  1  0
  2  7  1  0
  5  8  1  0
  5  9  1  0
  6 10  1  0
  8 10  1  6
  7 11  1  0
  3 12  1  0
 11 12  1  0
  9 13  1  6
  9 14  1  0
  8 15  1  0
 13 16  1  0
 13 17  1  0
 14 18  1  0
 15 18  1  0
 16 19  1  6
 16 20  1  0
 17 21  1  0
 20 22  1  6
 19 23  1  0
 22 23  1  0
 20 24  1  0
 21 24  1  0
M  END
