ucsf258-ucsf028
     RDKit          3D

 21 23  0  0  0  0  0  0  0  0999 V2000
    0.7970   13.6880   -1.5770 O   0  0  0  0  0  0  0  0  0  0  0  0
   -0.0660   14.5870   -2.0200 C   0  0  1  0  0  0  0  0  0  0  0  0
   -0.1220   14.5710   -3.4340 O   0  0  0  0  0  0  0  0  0  0  0  0
   -1.4800   14.2320   -1.4600 C   0  0  2  0  0  0  0  0  0  0  0  0
   -2.5990   14.3800   -2.5550 C   0  0  2  0  0  0  0  0  0  0  0  0
   -1.7960   14.8910   -0.0790 C   0  0  0  0  0  0  0  0  0  0  0  0
    0.2320   13.3080   -3.9400 C   0  0  2  0  0  0  0  0  0  0  0  0
   -2.0920   14.6230   -3.8740 O   0  0  0  0  0  0  0  0  0  0  0  0
   -3.6110   15.4750   -2.2960 C   0  0  0  0  0  0  0  0  0  0  0  0
   -3.1710   15.6320    0.1140 C   0  0  2  0  0  0  0  0  0  0  0  0
   -1.5300   14.1050    1.1240 N   0  0  0  0  0  0  0  0  0  0  0  0
   -0.6420   15.6830    0.3800 N   0  0  0  0  0  0  0  0  0  0  0  0
   -0.8560   12.6310   -4.7070 C   0  0  0  0  0  0  0  0  0  0  0  0
    0.4110   12.3940   -2.8230 O   0  0  0  0  0  0  0  0  0  0  0  0
   -3.7510   15.3970    1.4540 N   0  0  0  0  0  0  0  0  0  0  0  0
   -4.2260   15.3220   -0.9390 C   0  0  0  0  0  0  0  0  0  0  0  0
   -0.1490   14.4930    1.0520 C   0  0  0  0  0  0  0  0  0  0  0  0
    0.0610   11.0460   -3.3000 N   0  0  0  0  0  0  0  0  0  0  0  0
   -0.1960   11.2910   -4.7140 C   0  0  1  0  0  0  0  0  0  0  0  0
   -1.0130   10.3230   -5.3360 O   0  0  0  0  0  0  0  0  0  0  0  0
   -0.7890   10.3740   -6.7370 C   0  0  0  0  0  0  0  0  0  0  0  0
  2  1  1  1
  2  3  1  0
  2  4  1  0
  4  5  1  0
  4  6  1  1
  7  3  1  1
  5  8  1  6
  5  9  1  0
  6 10  1  0
  6 11  1  0
  6 12  1  0
  7 13  1  0
  7 14  1  0
 10 15  1  1
  9 16  1  0
 10 16  1  0
 11 17  1  0
 12 17  1  0
 14 18  1  0
 13 19  1  0
 18 19  1  0
 19 20  1  1
 20 21  1  0
M  CHG  1   1  -1
M  END
