ucsf172-ucsf110
     RDKit          3D

 21 23  0  0  0  0  0  0  0  0999 V2000
   -7.5200   14.7540    2.5520 C   0  0  0  0  0  0  0  0  0  0  0  0
   -6.5680   14.0670    1.2410 S   0  0  0  0  0  0  0  0  0  0  0  0
   -6.9510   12.5230    1.3170 O   0  0  0  0  0  0  0  0  0  0  0  0
   -7.2930   14.6620   -0.0690 O   0  0  0  0  0  0  0  0  0  0  0  0
   -4.9040   14.2490    1.2340 N   0  0  0  0  0  0  0  0  0  0  0  0
   -3.8580   13.2920    0.9070 C   0  0  0  0  0  0  0  0  0  0  0  0
   -4.1950   15.5010    1.3440 C   0  0  0  0  0  0  0  0  0  0  0  0
   -3.6240   15.8980   -0.0200 C   0  0  2  0  0  0  0  0  0  0  0  0
   -2.5100   14.1190    0.7180 C   0  0  2  0  0  0  0  0  0  0  0  0
   -4.7640   15.9900   -1.0390 C   0  0  0  0  0  0  0  0  0  0  0  0
   -2.4300   15.0480   -0.5120 C   0  0  1  0  0  0  0  0  0  0  0  0
   -1.2390   13.6230    1.2120 N   0  0  0  0  0  0  0  0  0  0  0  0
   -2.7800   14.7310   -2.0280 C   0  0  1  0  0  0  0  0  0  0  0  0
   -5.2420   14.6710   -1.5750 C   0  0  0  0  0  0  0  0  0  0  0  0
   -0.0740   14.4110    1.0970 C   0  0  0  0  0  0  0  0  0  0  0  0
   -1.0410   15.7280   -0.5090 C   0  0  0  0  0  0  0  0  0  0  0  0
   -1.6110   14.4840   -3.0460 C   0  0  1  0  0  0  0  0  0  0  0  0
   -4.0840   13.9430   -2.2280 C   0  0  0  0  0  0  0  0  0  0  0  0
   -0.4050   15.7370    0.7560 N   0  0  0  0  0  0  0  0  0  0  0  0
   -0.9120   13.2810   -2.7780 O   0  0  0  0  0  0  0  0  0  0  0  0
   -2.0890   14.2190   -4.2470 O   0  0  0  0  0  0  0  0  0  0  0  0
  1  2  1  0
  2  3  1  0
  2  4  1  0
  2  5  1  0
  5  6  1  0
  5  7  1  0
  8  7  1  1
  9  6  1  6
  8 10  1  0
  8 11  1  0
  9 11  1  0
  9 12  1  0
 11 13  1  0
 10 14  1  0
 12 15  1  0
 11 16  1  6
 13 17  1  0
 13 18  1  1
 14 18  1  0
 15 19  1  0
 16 19  1  0
 17 20  1  1
 17 21  1  0
M  CHG  1  21  -1
M  END
