ucsf348-ucsf380
     RDKit          3D

 22 24  0  0  0  0  0  0  0  0999 V2000
   -6.9110   14.3450    2.3450 N   0  0  0  0  0  0  0  0  0  0  0  0
   -5.9950   14.7690    1.3400 C   0  0  1  0  0  0  0  0  0  0  0  0
   -4.9550   13.8020    1.2780 N   0  0  0  0  0  0  0  0  0  0  0  0
   -6.7760   14.7410    0.1350 N   0  0  0  0  0  0  0  0  0  0  0  0
   -5.9430   14.5960   -1.0460 C   0  0  1  0  0  0  0  0  0  0  0  0
   -3.9400   14.1810    0.2680 C   0  0  1  0  0  0  0  0  0  0  0  0
   -6.5490   15.2690   -2.1280 O   0  0  0  0  0  0  0  0  0  0  0  0
   -4.5260   15.1010   -0.8010 C   0  0  1  0  0  0  0  0  0  0  0  0
   -2.6840   14.8160    0.8550 C   0  0  0  0  0  0  0  0  0  0  0  0
   -2.0180   15.6800   -0.2220 C   0  0  0  0  0  0  0  0  0  0  0  0
   -3.6440   15.1100   -2.0500 C   0  0  0  0  0  0  0  0  0  0  0  0
   -2.1620   15.1070   -1.6420 C   0  0  2  0  0  0  0  0  0  0  0  0
   -1.3660   13.7580   -1.7730 C   0  0  2  0  0  0  0  0  0  0  0  0
    0.1040   13.9010   -1.2360 C   0  0  2  0  0  0  0  0  0  0  0  0
   -1.4930   12.8030   -3.0260 C   0  0  0  0  0  0  0  0  0  0  0  0
    0.8490   14.6970   -1.9720 O   0  0  0  0  0  0  0  0  0  0  0  0
    0.6720   12.5980   -1.3150 O   0  0  0  0  0  0  0  0  0  0  0  0
   -2.8420   12.0460   -3.0440 C   0  0  0  0  0  0  0  0  0  0  0  0
   -1.1310   13.3660   -4.4040 C   0  0  0  0  0  0  0  0  0  0  0  0
   -3.0840   11.2170   -4.3030 C   0  0  0  0  0  0  0  0  0  0  0  0
   -1.1030   12.2770   -5.4840 C   0  0  0  0  0  0  0  0  0  0  0  0
   -1.8040   10.9770   -5.0880 C   0  0  0  0  0  0  0  0  0  0  0  0
  2  1  1  1
  2  3  1  0
  2  4  1  0
  4  5  1  0
  3  6  1  0
  5  7  1  6
  5  8  1  0
  6  8  1  0
  6  9  1  1
  9 10  1  0
  8 11  1  6
 12 10  1  1
 11 12  1  0
 12 13  1  0
 13 14  1  0
 13 15  1  6
 14 16  1  6
 14 17  1  0
 15 18  1  0
 15 19  1  0
 18 20  1  0
 19 21  1  0
 20 22  1  0
 21 22  1  0
M  CHG  1  16  -1
M  END
