ucsf262-ucsf013
     RDKit          3D

 26 29  0  0  0  0  0  0  0  0999 V2000
   -3.1410   15.6780   -5.7600 Cl  0  0  0  0  0  0  0  0  0  0  0  0
   -1.8720   16.6600   -4.9850 C   0  0  1  0  0  0  0  0  0  0  0  0
   -0.5060   15.9640   -4.9110 C   0  0  2  0  0  0  0  0  0  0  0  0
   -1.7690   18.0060   -5.7490 C   0  0  0  0  0  0  0  0  0  0  0  0
   -0.2350   14.6790   -4.0870 C   0  0  2  0  0  0  0  0  0  0  0  0
    0.4750   17.0040   -4.3890 C   0  0  1  0  0  0  0  0  0  0  0  0
   -0.3880   18.4190   -6.2950 C   0  0  0  0  0  0  0  0  0  0  0  0
   -0.8780   14.6280   -2.6770 C   0  0  0  0  0  0  0  0  0  0  0  0
    1.3100   14.7730   -4.0220 C   0  0  1  0  0  0  0  0  0  0  0  0
    1.5670   16.2370   -3.8010 N   0  0  0  0  0  0  0  0  0  0  0  0
    0.8520   17.9530   -5.5100 C   0  0  0  0  0  0  0  0  0  0  0  0
    2.1450   13.8540   -3.0650 C   0  0  1  0  0  0  0  0  0  0  0  0
   -1.6630   15.8470   -2.2020 C   0  0  0  0  0  0  0  0  0  0  0  0
    2.8360   14.5890   -2.2090 O   0  0  0  0  0  0  0  0  0  0  0  0
    1.2100   13.0940   -2.2760 O   0  0  0  0  0  0  0  0  0  0  0  0
   -3.1230   15.5690   -1.8090 C   0  0  1  0  0  0  0  0  0  0  0  0
   -3.9810   15.0010   -2.9350 C   0  0  0  0  0  0  0  0  0  0  0  0
   -3.1930   14.7050   -0.5850 C   0  0  0  0  0  0  0  0  0  0  0  0
   -4.6120   14.3060   -0.1490 C   0  0  1  0  0  0  0  0  0  0  0  0
   -5.4460   14.8710   -2.5550 C   0  0  0  0  0  0  0  0  0  0  0  0
   -5.1050   15.2160    0.9320 C   0  0  2  0  0  0  0  0  0  0  0  0
   -5.7450   14.2260   -1.2030 C   0  0  2  0  0  0  0  0  0  0  0  0
   -4.1530   15.4170    1.9950 N   0  0  0  0  0  0  0  0  0  0  0  0
   -7.0550   14.6920   -0.6930 N   0  0  0  0  0  0  0  0  0  0  0  0
   -6.3090   14.7810    1.5780 N   0  0  0  0  0  0  0  0  0  0  0  0
   -7.3650   14.3750    0.6860 C   0  0  0  0  0  0  0  0  0  0  0  0
  2  1  1  6
  3  2  1  1
  2  4  1  0
  3  5  1  0
  3  6  1  0
  4  7  1  0
  5  8  1  1
  5  9  1  0
  6 10  1  0
  9 10  1  1
  6 11  1  6
  7 11  1  0
  9 12  1  0
  8 13  1  0
 12 14  1  1
 12 15  1  0
 16 13  1  6
 16 17  1  0
 16 18  1  0
 19 18  1  6
 17 20  1  0
 19 21  1  0
 19 22  1  0
 22 20  1  6
 21 23  1  1
 22 24  1  0
 21 25  1  0
 24 26  1  0
 25 26  1  0
M  CHG  1  14  -1
M  END
