ucsf411-ucsf138
     RDKit          3D

 25 27  0  0  0  0  0  0  0  0999 V2000
    0.5520   10.4910   -2.3400 O   0  0  0  0  0  0  0  0  0  0  0  0
    0.2320   11.7480   -2.7100 C   0  0  1  0  0  0  0  0  0  0  0  0
    0.7110   12.4500   -1.5630 O   0  0  0  0  0  0  0  0  0  0  0  0
    0.9250   12.2320   -4.1190 C   0  0  2  0  0  0  0  0  0  0  0  0
    0.9080   13.6910   -4.2240 O   0  0  0  0  0  0  0  0  0  0  0  0
    0.2290   11.5510   -5.2780 N   0  0  0  0  0  0  0  0  0  0  0  0
    0.9460   11.5030   -6.5340 C   0  0  2  0  0  0  0  0  0  0  0  0
   -0.1850   14.3130   -4.9250 C   0  0  2  0  0  0  0  0  0  0  0  0
    0.8570   12.7690   -7.0400 O   0  0  0  0  0  0  0  0  0  0  0  0
    0.2010   10.5580   -7.3830 N   0  0  0  0  0  0  0  0  0  0  0  0
   -0.2400   15.8400   -4.5700 C   0  0  2  0  0  0  0  0  0  0  0  0
   -1.5010   13.5770   -4.5970 C   0  0  0  0  0  0  0  0  0  0  0  0
   -1.5320   16.5100   -5.1060 C   0  0  1  0  0  0  0  0  0  0  0  0
   -2.7380   14.3110   -5.0810 C   0  0  0  0  0  0  0  0  0  0  0  0
    1.0300   16.5780   -4.9840 C   0  0  0  0  0  0  0  0  0  0  0  0
    0.8280   10.1710   -8.6660 C   0  0  0  0  0  0  0  0  0  0  0  0
   -2.7650   15.7710   -4.6130 C   0  0  0  0  0  0  0  0  0  0  0  0
   -1.5710   18.0360   -5.1330 C   0  0  0  0  0  0  0  0  0  0  0  0
    0.8890   18.0950   -5.1560 C   0  0  0  0  0  0  0  0  0  0  0  0
   -0.0950   10.2920   -9.9030 C   0  0  0  0  0  0  0  0  0  0  0  0
    1.3610    8.7250   -8.5200 C   0  0  0  0  0  0  0  0  0  0  0  0
   -0.3730   18.5270   -5.8840 C   0  0  0  0  0  0  0  0  0  0  0  0
    0.5200    9.7260  -11.1920 C   0  0  0  0  0  0  0  0  0  0  0  0
    1.9900    8.1730   -9.8050 C   0  0  0  0  0  0  0  0  0  0  0  0
    1.0570    8.3060  -11.0040 C   0  0  0  0  0  0  0  0  0  0  0  0
  2  1  1  1
  2  3  1  0
  2  4  1  0
  4  5  1  0
  4  6  1  6
  6  7  1  0
  8  5  1  1
  7  9  1  6
  7 10  1  0
  8 11  1  0
  8 12  1  0
 11 13  1  0
 12 14  1  0
 11 15  1  6
 10 16  1  0
 13 17  1  1
 14 17  1  0
 13 18  1  0
 15 19  1  0
 16 20  1  0
 16 21  1  0
 18 22  1  0
 19 22  1  0
 20 23  1  0
 21 24  1  0
 23 25  1  0
 24 25  1  0
M  CHG  1   1  -1
M  END
