ucsf340-ucsf260
     RDKit          3D

 25 28  0  0  0  0  0  0  0  0999 V2000
    0.3870   18.6160   -6.4550 C   0  0  0  0  0  0  0  0  0  0  0  0
   -0.0130   18.0310   -5.1940 N   0  0  0  0  0  0  0  0  0  0  0  0
    1.0210   17.1590   -4.6110 C   0  0  0  0  0  0  0  0  0  0  0  0
   -1.2910   17.3380   -5.1040 C   0  0  2  0  0  0  0  0  0  0  0  0
    0.2960   16.0310   -3.8810 C   0  0  1  0  0  0  0  0  0  0  0  0
   -0.8550   15.8860   -4.8820 C   0  0  1  0  0  0  0  0  0  0  0  0
   -2.2760   17.5220   -6.2310 C   0  0  0  0  0  0  0  0  0  0  0  0
    1.0970   14.7560   -3.6450 C   0  0  0  0  0  0  0  0  0  0  0  0
   -2.0260   14.9730   -4.5670 C   0  0  0  0  0  0  0  0  0  0  0  0
   -3.3130   16.3830   -6.2220 C   0  0  0  0  0  0  0  0  0  0  0  0
    0.4190   13.3690   -3.7380 C   0  0  2  0  0  0  0  0  0  0  0  0
   -3.3530   15.6040   -4.9160 C   0  0  0  0  0  0  0  0  0  0  0  0
    0.4810   12.3550   -2.5530 C   0  0  2  0  0  0  0  0  0  0  0  0
    0.3750   12.7830   -5.1770 C   0  0  0  0  0  0  0  0  0  0  0  0
    1.7620   12.4590   -2.0020 O   0  0  0  0  0  0  0  0  0  0  0  0
    0.4130   11.0770   -2.8310 O   0  0  0  0  0  0  0  0  0  0  0  0
   -0.6880   12.0060   -5.7670 N   0  0  0  0  0  0  0  0  0  0  0  0
   -1.7220   11.5600   -4.8470 C   0  0  0  0  0  0  0  0  0  0  0  0
   -0.2840   10.7950   -6.4040 C   0  0  1  0  0  0  0  0  0  0  0  0
   -2.4640   10.5070   -5.5870 N   0  0  0  0  0  0  0  0  0  0  0  0
   -1.6410   10.2490   -6.7760 C   0  0  2  0  0  0  0  0  0  0  0  0
    0.6080   10.8760   -7.6390 C   0  0  0  0  0  0  0  0  0  0  0  0
   -1.4840    8.7990   -7.1860 C   0  0  0  0  0  0  0  0  0  0  0  0
    0.7510    9.4930   -8.2820 C   0  0  0  0  0  0  0  0  0  0  0  0
   -0.5700    8.7210   -8.4210 C   0  0  0  0  0  0  0  0  0  0  0  0
  1  2  1  0
  2  3  1  0
  2  4  1  0
  3  5  1  0
  4  6  1  0
  5  6  1  0
  4  7  1  6
  5  8  1  6
  6  9  1  1
  7 10  1  0
 11  8  1  6
  9 12  1  0
 10 12  1  0
 11 13  1  0
 11 14  1  0
 13 15  1  6
 13 16  1  0
 14 17  1  0
 17 18  1  0
 17 19  1  0
 18 20  1  0
 19 21  1  0
 20 21  1  0
 19 22  1  6
 21 23  1  1
 22 24  1  0
 23 25  1  0
 24 25  1  0
M  CHG  1  16  -1
M  END
