ucsf336-ucsf339
     RDKit          3D

 24 26  0  0  0  0  0  0  0  0999 V2000
    1.0880   13.6640   -4.0740 O   0  0  0  0  0  0  0  0  0  0  0  0
    0.2190   13.1100   -3.2350 C   0  0  2  0  0  0  0  0  0  0  0  0
    0.9830   13.0010   -2.0530 O   0  0  0  0  0  0  0  0  0  0  0  0
   -0.1680   11.7020   -3.8620 C   0  0  2  0  0  0  0  0  0  0  0  0
   -1.1030   13.9740   -3.0750 C   0  0  1  0  0  0  0  0  0  0  0  0
    0.3570   10.6430   -3.0620 O   0  0  0  0  0  0  0  0  0  0  0  0
    0.1440   11.4320   -5.2560 N   0  0  0  0  0  0  0  0  0  0  0  0
   -1.5780   14.4000   -1.6570 C   0  0  0  0  0  0  0  0  0  0  0  0
   -1.2210   15.2160   -3.9850 C   0  0  0  0  0  0  0  0  0  0  0  0
   -0.5470   10.2640   -5.7920 C   0  0  0  0  0  0  0  0  0  0  0  0
   -2.8640   15.2740   -1.7680 C   0  0  1  0  0  0  0  0  0  0  0  0
   -2.6430   15.5610   -4.2310 N   0  0  0  0  0  0  0  0  0  0  0  0
   -0.4300   10.0970   -7.3160 C   0  0  0  0  0  0  0  0  0  0  0  0
   -2.0350   10.3370   -5.4190 C   0  0  0  0  0  0  0  0  0  0  0  0
   -3.5050   15.0860   -3.1470 C   0  0  0  0  0  0  0  0  0  0  0  0
   -3.9260   15.1560   -0.6420 C   0  0  0  0  0  0  0  0  0  0  0  0
   -1.1850    8.8730   -7.8230 C   0  0  0  0  0  0  0  0  0  0  0  0
   -2.8200    9.1140   -5.8860 C   0  0  0  0  0  0  0  0  0  0  0  0
   -3.2910   15.0280    0.7300 C   0  0  0  0  0  0  0  0  0  0  0  0
   -5.0290   14.0980   -0.8730 C   0  0  0  0  0  0  0  0  0  0  0  0
   -2.6490    8.8710   -7.3860 C   0  0  0  0  0  0  0  0  0  0  0  0
   -4.3310   15.2130    1.8130 C   0  0  0  0  0  0  0  0  0  0  0  0
   -5.6020   13.4970    0.4160 C   0  0  0  0  0  0  0  0  0  0  0  0
   -5.6630   14.4980    1.5480 C   0  0  0  0  0  0  0  0  0  0  0  0
  2  1  1  6
  2  3  1  0
  2  4  1  0
  2  5  1  0
  4  6  1  1
  4  7  1  0
  5  8  1  1
  5  9  1  0
  7 10  1  0
  8 11  1  0
  9 12  1  0
 10 13  1  0
 10 14  1  0
 11 15  1  0
 12 15  1  0
 11 16  1  1
 13 17  1  0
 14 18  1  0
 16 19  1  0
 16 20  1  0
 17 21  1  0
 18 21  1  0
 19 22  1  0
 20 23  1  0
 22 24  1  0
 23 24  1  0
M  CHG  1   1  -1
M  END
