ucsf340-ucsf339
     RDKit          3D

 27 30  0  0  0  0  0  0  0  0999 V2000
    0.7870   18.5000   -5.9650 C   0  0  0  0  0  0  0  0  0  0  0  0
    0.2430   17.1760   -5.7140 N   0  0  0  0  0  0  0  0  0  0  0  0
    1.0150   16.4330   -4.6910 C   0  0  0  0  0  0  0  0  0  0  0  0
   -1.1090   17.2110   -5.1510 C   0  0  2  0  0  0  0  0  0  0  0  0
    0.1280   15.2200   -4.4790 C   0  0  2  0  0  0  0  0  0  0  0  0
   -1.2630   15.8050   -4.5260 C   0  0  2  0  0  0  0  0  0  0  0  0
   -2.1760   17.6140   -6.1590 C   0  0  0  0  0  0  0  0  0  0  0  0
    0.2770   14.2580   -3.2560 C   0  0  2  0  0  0  0  0  0  0  0  0
   -2.2350   14.8260   -5.1750 C   0  0  0  0  0  0  0  0  0  0  0  0
   -3.2990   16.5940   -6.4040 C   0  0  0  0  0  0  0  0  0  0  0  0
    1.0240   12.9380   -3.5340 C   0  0  0  0  0  0  0  0  0  0  0  0
   -3.5260   15.5140   -5.4100 C   0  0  0  0  0  0  0  0  0  0  0  0
   -1.1470   13.8140   -2.7840 C   0  0  1  0  0  0  0  0  0  0  0  0
    1.1260   12.0120   -2.3020 C   0  0  1  0  0  0  0  0  0  0  0  0
   -1.7260   14.3090   -1.4510 C   0  0  0  0  0  0  0  0  0  0  0  0
   -2.1980   13.8820   -3.9000 C   0  0  0  0  0  0  0  0  0  0  0  0
    0.4110   12.5540   -1.2220 O   0  0  0  0  0  0  0  0  0  0  0  0
    0.4920   10.8440   -2.4580 O   0  0  0  0  0  0  0  0  0  0  0  0
   -3.2460   14.1730   -1.6010 C   0  0  2  0  0  0  0  0  0  0  0  0
   -3.0450   15.0790   -3.8750 N   0  0  0  0  0  0  0  0  0  0  0  0
   -3.7460   15.1840   -2.6240 C   0  0  0  0  0  0  0  0  0  0  0  0
   -4.0990   14.2380   -0.3320 C   0  0  0  0  0  0  0  0  0  0  0  0
   -3.9450   15.4810    0.5200 C   0  0  0  0  0  0  0  0  0  0  0  0
   -5.5900   14.1520   -0.6200 C   0  0  0  0  0  0  0  0  0  0  0  0
   -4.4820   15.1350    1.8790 C   0  0  0  0  0  0  0  0  0  0  0  0
   -6.3690   13.7900    0.6280 C   0  0  0  0  0  0  0  0  0  0  0  0
   -5.8890   14.5100    1.8970 C   0  0  0  0  0  0  0  0  0  0  0  0
  1  2  1  0
  2  3  1  0
  2  4  1  0
  5  3  1  1
  4  6  1  0
  5  6  1  0
  4  7  1  6
  5  8  1  0
  6  9  1  6
  7 10  1  0
  8 11  1  6
  9 12  1  0
 10 12  1  0
  8 13  1  0
 11 14  1  0
 13 15  1  1
 13 16  1  0
 14 17  1  1
 14 18  1  0
 15 19  1  0
 16 20  1  0
 19 21  1  0
 20 21  1  0
 19 22  1  1
 22 23  1  0
 22 24  1  0
 23 25  1  0
 24 26  1  0
 25 27  1  0
 26 27  1  0
M  CHG  1  18  -1
M  END
