ucsf274-ucsf380
     RDKit          3D

 31 34  0  0  0  0  0  0  0  0999 V2000
    0.7080   10.6600   -2.1310 O   0  0  0  0  0  0  0  0  0  0  0  0
    0.2660   11.8900   -2.4140 C   0  0  1  0  0  0  0  0  0  0  0  0
    0.2710   12.8240   -1.3110 O   0  0  0  0  0  0  0  0  0  0  0  0
    1.2580   12.5710   -3.4300 C   0  0  0  0  0  0  0  0  0  0  0  0
    0.7130   12.5220   -4.8640 C   0  0  0  0  0  0  0  0  0  0  0  0
    0.2390   14.2430   -1.6970 C   0  0  2  0  0  0  0  0  0  0  0  0
    0.4530   14.9450   -0.6010 O   0  0  0  0  0  0  0  0  0  0  0  0
   -1.2250   14.7500   -2.2690 C   0  0  0  0  0  0  0  0  0  0  0  0
   -0.0610   11.2190   -5.1390 C   0  0  1  0  0  0  0  0  0  0  0  0
   -1.5020   11.0120   -4.5760 C   0  0  1  0  0  0  0  0  0  0  0  0
    0.0730   10.9250   -6.5650 N   0  0  0  0  0  0  0  0  0  0  0  0
   -2.3220   15.2430   -1.2590 C   0  0  0  0  0  0  0  0  0  0  0  0
   -1.9360   13.8480   -3.4030 C   0  0  0  0  0  0  0  0  0  0  0  0
   -2.2540   12.1980   -4.6990 O   0  0  0  0  0  0  0  0  0  0  0  0
   -2.3440    9.9510   -5.1250 N   0  0  0  0  0  0  0  0  0  0  0  0
   -0.5230    9.6580   -6.8780 C   0  0  1  0  0  0  0  0  0  0  0  0
   -2.2810   14.4420    0.0640 C   0  0  0  0  0  0  0  0  0  0  0  0
   -3.7350   15.3020   -1.8560 C   0  0  0  0  0  0  0  0  0  0  0  0
   -2.6260   12.5790   -2.8200 C   0  0  0  0  0  0  0  0  0  0  0  0
   -1.1510   13.4750   -4.6610 C   0  0  0  0  0  0  0  0  0  0  0  0
   -2.0260    9.6280   -6.5270 C   0  0  1  0  0  0  0  0  0  0  0  0
   -0.2550    9.2970   -8.3370 C   0  0  0  0  0  0  0  0  0  0  0  0
   -3.3730   14.7570    1.0610 C   0  0  0  0  0  0  0  0  0  0  0  0
   -4.8340   15.6370   -0.8550 C   0  0  0  0  0  0  0  0  0  0  0  0
   -3.5210   11.8370   -3.8260 C   0  0  0  0  0  0  0  0  0  0  0  0
   -2.0410   12.8810   -5.7690 C   0  0  0  0  0  0  0  0  0  0  0  0
   -1.0120    8.0430   -8.7730 C   0  0  0  0  0  0  0  0  0  0  0  0
   -2.6440    8.2630   -6.8340 C   0  0  0  0  0  0  0  0  0  0  0  0
   -4.3580   15.7980    0.5850 C   0  0  0  0  0  0  0  0  0  0  0  0
   -3.3670   12.2120   -5.3220 C   0  0  0  0  0  0  0  0  0  0  0  0
   -1.7130    7.3420   -7.6170 C   0  0  0  0  0  0  0  0  0  0  0  0
  2  1  1  1
  2  3  1  0
  2  4  1  0
  4  5  1  0
  3  6  1  0
  6  7  1  1
  6  8  1  0
  9  5  1  6
  9 10  1  0
  9 11  1  0
  8 12  1  0
  8 13  1  0
 10 14  1  6
 10 15  1  0
 11 16  1  0
 12 17  1  0
 12 18  1  0
 13 19  1  0
 13 20  1  0
 15 21  1  0
 16 21  1  0
 16 22  1  6
 17 23  1  0
 18 24  1  0
 19 25  1  0
 20 26  1  0
 22 27  1  0
 21 28  1  1
 23 29  1  0
 24 29  1  0
 25 30  1  0
 26 30  1  0
 27 31  1  0
 28 31  1  0
M  CHG  2   1  -1   7  -1
M  END
