ucsf241-ucsf511
     RDKit          3D

 22 26  0  0  0  0  0  0  0  0999 V2000
    0.4230   13.0970   -1.3640 O   0  0  0  0  0  0  0  0  0  0  0  0
   -0.3640   13.2350   -2.5420 C   0  0  2  0  0  0  0  0  0  0  0  0
    0.3770   13.9970   -3.5440 N   0  0  0  0  0  0  0  0  0  0  0  0
   -1.7230   13.8880   -2.3140 C   0  0  1  0  0  0  0  0  0  0  0  0
   -1.9700   14.7200   -1.0670 C   0  0  1  0  0  0  0  0  0  0  0  0
   -2.0100   14.8920   -3.3980 C   0  0  1  0  0  0  0  0  0  0  0  0
   -0.3070   14.0910   -4.8410 C   0  0  0  0  0  0  0  0  0  0  0  0
   -2.5050   13.8380    0.0320 C   0  0  2  0  0  0  0  0  0  0  0  0
   -0.6460   15.4470   -0.6620 C   0  0  0  0  0  0  0  0  0  0  0  0
   -1.7550   14.2710   -4.6840 N   0  0  0  0  0  0  0  0  0  0  0  0
   -3.1020   15.7250   -1.4780 C   0  0  1  0  0  0  0  0  0  0  0  0
   -3.3940   15.4190   -2.9730 C   0  0  2  0  0  0  0  0  0  0  0  0
   -3.9990   13.6630    0.0690 C   0  0  0  0  0  0  0  0  0  0  0  0
   -2.3110   14.2530    1.4490 C   0  0  2  0  0  0  0  0  0  0  0  0
   -0.3740   15.5960    0.8200 C   0  0  0  0  0  0  0  0  0  0  0  0
   -4.6060   14.5150   -3.2100 C   0  0  0  0  0  0  0  0  0  0  0  0
   -4.3260   15.6850   -0.5380 C   0  0  0  0  0  0  0  0  0  0  0  0
   -4.4240   14.9350    0.8170 C   0  0  0  0  0  0  0  0  0  0  0  0
   -3.3100   15.2590    1.7220 N   0  0  0  0  0  0  0  0  0  0  0  0
   -0.9860   14.6580    1.7400 N   0  0  0  0  0  0  0  0  0  0  0  0
   -5.8830   14.9550   -2.4860 C   0  0  0  0  0  0  0  0  0  0  0  0
   -5.7240   15.6590   -1.1460 C   0  0  0  0  0  0  0  0  0  0  0  0
  2  1  1  1
  2  3  1  0
  4  2  1  1
  4  5  1  0
  4  6  1  0
  3  7  1  0
  5  8  1  0
  5  9  1  1
  6 10  1  6
  7 10  1  0
  5 11  1  0
  6 12  1  0
 11 12  1  0
  8 13  1  6
  8 14  1  0
  9 15  1  0
 12 16  1  1
 11 17  1  1
 13 18  1  0
 14 19  1  6
 18 19  1  0
 14 20  1  0
 15 20  1  0
 16 21  1  0
 17 22  1  0
 21 22  1  0
M  END
