ucsf365-ucsf213
     RDKit          3D

 20 22  0  0  0  0  0  0  0  0999 V2000
    0.5070   10.7670   -2.4300 O   0  0  0  0  0  0  0  0  0  0  0  0
    0.7380   12.0790   -2.3550 C   0  0  1  0  0  0  0  0  0  0  0  0
    2.0740   12.2260   -2.7560 O   0  0  0  0  0  0  0  0  0  0  0  0
   -0.1830   12.9260   -3.3060 C   0  0  2  0  0  0  0  0  0  0  0  0
   -0.3930   12.6120   -4.8250 C   0  0  1  0  0  0  0  0  0  0  0  0
    0.0490   14.4540   -3.1510 C   0  0  1  0  0  0  0  0  0  0  0  0
   -1.4780   11.6160   -5.2710 C   0  0  1  0  0  0  0  0  0  0  0  0
   -0.6250   13.8930   -5.6080 C   0  0  0  0  0  0  0  0  0  0  0  0
    0.9680   15.3050   -4.1050 C   0  0  0  0  0  0  0  0  0  0  0  0
   -1.6270   15.1370   -3.4640 S   0  0  0  0  0  0  0  0  0  0  0  0
   -1.2810   10.2910   -4.8330 O   0  0  0  0  0  0  0  0  0  0  0  0
   -2.9130   12.0210   -4.9120 C   0  0  0  0  0  0  0  0  0  0  0  0
   -2.1260   14.1780   -5.8980 C   0  0  0  0  0  0  0  0  0  0  0  0
    0.2180   16.5940   -4.4910 C   0  0  2  0  0  0  0  0  0  0  0  0
   -1.1370   16.0760   -4.9000 C   0  0  2  0  0  0  0  0  0  0  0  0
   -3.1460   13.5120   -5.0100 C   0  0  0  0  0  0  0  0  0  0  0  0
    0.8300   17.5880   -5.4750 C   0  0  0  0  0  0  0  0  0  0  0  0
   -2.1980   17.0690   -5.3110 C   0  0  0  0  0  0  0  0  0  0  0  0
   -0.2460   18.4050   -6.1960 C   0  0  0  0  0  0  0  0  0  0  0  0
   -1.5980   18.4490   -5.4800 C   0  0  0  0  0  0  0  0  0  0  0  0
  2  1  1  6
  2  3  1  0
  4  2  1  6
  4  5  1  0
  4  6  1  0
  5  7  1  0
  5  8  1  6
  6  9  1  6
  6 10  1  0
  7 11  1  1
  7 12  1  0
  8 13  1  0
 14  9  1  6
 10 15  1  0
 14 15  1  0
 12 16  1  0
 13 16  1  0
 14 17  1  0
 15 18  1  1
 17 19  1  0
 18 20  1  0
 19 20  1  0
M  CHG  1   1  -1
M  END
