ucsf017-ucsf378
     RDKit          3D

 29 33  0  0  0  0  0  0  0  0999 V2000
   -1.3630   13.3670   -5.8880 Cl  0  0  0  0  0  0  0  0  0  0  0  0
    0.3470   13.8800   -5.6570 C   0  0  2  0  0  0  0  0  0  0  0  0
    0.9720   12.9350   -4.6350 C   0  0  0  0  0  0  0  0  0  0  0  0
    0.3860   15.3910   -5.2830 C   0  0  0  0  0  0  0  0  0  0  0  0
   -0.1050   12.9240   -3.6380 C   0  0  1  0  0  0  0  0  0  0  0  0
    2.1780   13.4600   -3.8920 C   0  0  1  0  0  0  0  0  0  0  0  0
    0.9830   15.7300   -3.9460 C   0  0  0  0  0  0  0  0  0  0  0  0
    3.5770   12.7950   -4.7610 Cl  0  0  0  0  0  0  0  0  0  0  0  0
   -1.0990   13.9740   -4.1390 C   0  0  1  0  0  0  0  0  0  0  0  0
   -0.8550   11.6360   -3.2350 C   0  0  2  0  0  0  0  0  0  0  0  0
    2.2590   14.9670   -3.7160 C   0  0  0  0  0  0  0  0  0  0  0  0
   -2.2020   13.6460   -5.1180 C   0  0  0  0  0  0  0  0  0  0  0  0
   -1.7710   14.5260   -2.9520 C   0  0  1  0  0  0  0  0  0  0  0  0
   -2.0690   12.2130   -2.5670 C   0  0  0  0  0  0  0  0  0  0  0  0
   -0.2140   10.9150   -2.0770 C   0  0  2  0  0  0  0  0  0  0  0  0
   -3.2300   14.5870   -4.8620 O   0  0  0  0  0  0  0  0  0  0  0  0
   -3.1720   14.8650   -3.4520 C   0  0  0  0  0  0  0  0  0  0  0  0
   -1.5720   13.4530   -2.0070 N   0  0  0  0  0  0  0  0  0  0  0  0
    0.5280   11.7050   -1.3520 O   0  0  0  0  0  0  0  0  0  0  0  0
    0.6210    9.8820   -2.3850 O   0  0  0  0  0  0  0  0  0  0  0  0
   -1.5030   13.7060   -0.6110 C   0  0  1  0  0  0  0  0  0  0  0  0
   -0.6030   14.8450   -0.4870 N   0  0  0  0  0  0  0  0  0  0  0  0
   -2.8630   13.9820   -0.0380 C   0  0  1  0  0  0  0  0  0  0  0  0
   -0.4150   15.2680    0.8610 C   0  0  0  0  0  0  0  0  0  0  0  0
   -2.6890   14.5930    1.3290 C   0  0  1  0  0  0  0  0  0  0  0  0
   -3.8200   14.9140   -0.7660 C   0  0  0  0  0  0  0  0  0  0  0  0
   -1.3040   14.5410    1.7320 N   0  0  0  0  0  0  0  0  0  0  0  0
   -3.2510   15.9170    1.2410 N   0  0  0  0  0  0  0  0  0  0  0  0
   -4.4170   15.6700    0.3910 C   0  0  0  0  0  0  0  0  0  0  0  0
  2  1  1  1
  2  3  1  0
  2  4  1  0
  5  3  1  6
  3  6  1  0
  4  7  1  0
  6  8  1  6
  5  9  1  0
  5 10  1  0
  6 11  1  0
  7 11  1  0
  9 12  1  6
  9 13  1  0
 10 14  1  1
 10 15  1  0
 12 16  1  0
 13 17  1  6
 16 17  1  0
 13 18  1  0
 14 18  1  0
 15 19  1  6
 15 20  1  0
 21 18  1  6
 21 22  1  0
 21 23  1  0
 22 24  1  0
 23 25  1  0
 23 26  1  6
 24 27  1  0
 25 27  1  6
 25 28  1  0
 26 29  1  0
 28 29  1  0
M  CHG  1  19  -1
M  END
