ucsf028-ucsf173
     RDKit          3D

 30 35  0  0  0  0  0  0  0  0999 V2000
   -4.2740   15.6360    1.5210 N   0  0  0  0  0  0  0  0  0  0  0  0
   -3.7230   14.8900    0.4000 C   0  0  2  0  0  0  0  0  0  0  0  0
   -2.2840   14.3860    0.5900 C   0  0  1  0  0  0  0  0  0  0  0  0
   -3.9120   15.7220   -0.7300 N   0  0  0  0  0  0  0  0  0  0  0  0
   -3.4210   15.1720   -1.9660 C   0  0  0  0  0  0  0  0  0  0  0  0
   -1.4920   14.2360   -0.7150 C   0  0  1  0  0  0  0  0  0  0  0  0
   -1.4160   15.2270    1.4130 N   0  0  0  0  0  0  0  0  0  0  0  0
   -2.0060   14.8020   -1.9630 N   0  0  0  0  0  0  0  0  0  0  0  0
   -0.1910   14.8350   -0.4330 N   0  0  0  0  0  0  0  0  0  0  0  0
   -0.1010   14.8160    0.9940 C   0  0  0  0  0  0  0  0  0  0  0  0
   -1.9050   13.6630   -2.8780 C   0  0  0  0  0  0  0  0  0  0  0  0
   -0.5900   13.1220   -3.4960 C   0  0  2  0  0  0  0  0  0  0  0  0
   -1.0690   12.1450   -4.5680 C   0  0  0  0  0  0  0  0  0  0  0  0
    0.2510   12.2900   -2.5970 N   0  0  0  0  0  0  0  0  0  0  0  0
    0.3360   14.1370   -4.1580 C   0  0  0  0  0  0  0  0  0  0  0  0
    0.0560   10.8720   -2.9430 N   0  0  0  0  0  0  0  0  0  0  0  0
   -0.8660   10.7580   -4.0560 C   0  0  2  0  0  0  0  0  0  0  0  0
    1.6740   12.6710   -2.9060 C   0  0  1  0  0  0  0  0  0  0  0  0
   -0.4320   14.5410   -5.3940 C   0  0  0  0  0  0  0  0  0  0  0  0
    0.7650   15.5370   -3.5660 C   0  0  0  0  0  0  0  0  0  0  0  0
    1.6050   13.2970   -4.3160 C   0  0  0  0  0  0  0  0  0  0  0  0
   -0.4800    9.9450   -5.1660 O   0  0  0  0  0  0  0  0  0  0  0  0
    2.1580   13.5230   -2.0290 O   0  0  0  0  0  0  0  0  0  0  0  0
   -1.0460   15.7880   -4.8240 C   0  0  1  0  0  0  0  0  0  0  0  0
    0.2880   16.4560   -4.6960 C   0  0  1  0  0  0  0  0  0  0  0  0
   -0.3410   10.6400   -6.4020 C   0  0  0  0  0  0  0  0  0  0  0  0
   -2.1900   16.5210   -5.5020 C   0  0  0  0  0  0  0  0  0  0  0  0
    0.2860   17.9650   -4.5330 C   0  0  0  0  0  0  0  0  0  0  0  0
   -1.7340   17.8200   -6.1470 C   0  0  0  0  0  0  0  0  0  0  0  0
   -0.9070   18.6720   -5.2080 C   0  0  0  0  0  0  0  0  0  0  0  0
  2  1  1  1
  2  3  1  0
  2  4  1  0
  4  5  1  0
  3  6  1  0
  3  7  1  1
  5  8  1  0
  6  8  1  0
  6  9  1  1
  7 10  1  0
  9 10  1  0
  8 11  1  0
 12 11  1  1
 12 13  1  0
 12 14  1  0
 12 15  1  0
 14 16  1  0
 13 17  1  0
 16 17  1  0
 14 18  1  0
 15 19  1  0
 15 20  1  0
 15 21  1  0
 18 21  1  0
 17 22  1  6
 18 23  1  1
 24 19  1  6
 25 20  1  1
 24 25  1  0
 22 26  1  0
 24 27  1  0
 25 28  1  0
 27 29  1  0
 28 30  1  0
 29 30  1  0
M  CHG  1  23  -1
M  END
