ucsf365-ucsf114
     RDKit          3D

 26 29  0  0  0  0  0  0  0  0999 V2000
    0.6600   11.5370   -2.9460 O   0  0  0  0  0  0  0  0  0  0  0  0
    1.2270   12.6970   -3.3040 C   0  0  2  0  0  0  0  0  0  0  0  0
    1.7810   13.1870   -2.0760 O   0  0  0  0  0  0  0  0  0  0  0  0
    0.2010   13.8870   -3.7070 C   0  0  1  0  0  0  0  0  0  0  0  0
    0.8650   15.2560   -4.1820 C   0  0  0  0  0  0  0  0  0  0  0  0
   -0.7820   13.5900   -4.9080 C   0  0  1  0  0  0  0  0  0  0  0  0
   -0.3840   14.0920   -2.3360 N   0  0  0  0  0  0  0  0  0  0  0  0
    0.8290   14.0830   -1.5200 C   0  0  1  0  0  0  0  0  0  0  0  0
   -0.2230   16.2060   -4.3700 O   0  0  0  0  0  0  0  0  0  0  0  0
   -1.7870   12.4330   -4.8230 C   0  0  2  0  0  0  0  0  0  0  0  0
   -1.4530   14.9810   -5.0980 C   0  0  0  0  0  0  0  0  0  0  0  0
   -1.1720   15.2700   -1.9660 C   0  0  2  0  0  0  0  0  0  0  0  0
    0.4630   13.6510   -0.1950 N   0  0  0  0  0  0  0  0  0  0  0  0
   -1.1400   11.1850   -5.1280 O   0  0  0  0  0  0  0  0  0  0  0  0
    0.0020   17.3680   -5.1610 C   0  0  0  0  0  0  0  0  0  0  0  0
   -2.9220   12.5780   -5.8260 C   0  0  0  0  0  0  0  0  0  0  0  0
   -2.8900   15.0850   -5.6130 C   0  0  0  0  0  0  0  0  0  0  0  0
   -1.4360   15.3880   -0.4230 C   0  0  2  0  0  0  0  0  0  0  0  0
   -0.7200   14.2520    0.3880 C   0  0  2  0  0  0  0  0  0  0  0  0
   -2.5860   15.3170   -2.5610 C   0  0  0  0  0  0  0  0  0  0  0  0
    0.9770   18.2110   -4.3980 C   0  0  0  0  0  0  0  0  0  0  0  0
   -1.3490   18.0820   -5.3260 C   0  0  0  0  0  0  0  0  0  0  0  0
   -0.3150   14.7280    1.6670 O   0  0  0  0  0  0  0  0  0  0  0  0
   -3.7250   13.8260   -5.5340 C   0  0  0  0  0  0  0  0  0  0  0  0
   -2.8970   15.4000   -0.1700 N   0  0  0  0  0  0  0  0  0  0  0  0
   -3.5890   15.2050   -1.4300 C   0  0  0  0  0  0  0  0  0  0  0  0
  2  1  1  1
  2  3  1  0
  2  4  1  0
  4  5  1  6
  4  6  1  0
  4  7  1  0
  3  8  1  0
  7  8  1  0
  5  9  1  0
  6 10  1  0
  6 11  1  1
  7 12  1  0
  8 13  1  1
 10 14  1  6
  9 15  1  0
 10 16  1  0
 11 17  1  0
 12 18  1  0
 13 19  1  0
 18 19  1  0
 12 20  1  6
 15 21  1  0
 15 22  1  0
 19 23  1  1
 16 24  1  0
 17 24  1  0
 18 25  1  6
 20 26  1  0
 25 26  1  0
M  CHG  1   1  -1
M  END
