ucsf262-ucsf487
     RDKit          3D

 26 29  0  0  0  0  0  0  0  0999 V2000
   -3.1610   15.8440   -4.7320 Cl  0  0  0  0  0  0  0  0  0  0  0  0
   -1.7050   16.6580   -5.3770 C   0  0  2  0  0  0  0  0  0  0  0  0
   -0.4100   15.9280   -4.9330 C   0  0  2  0  0  0  0  0  0  0  0  0
   -1.5800   18.1560   -5.1940 C   0  0  0  0  0  0  0  0  0  0  0  0
   -0.4590   15.1360   -3.5990 C   0  0  2  0  0  0  0  0  0  0  0  0
    0.6270   16.9430   -4.5300 C   0  0  1  0  0  0  0  0  0  0  0  0
   -0.4250   18.6190   -6.0910 C   0  0  0  0  0  0  0  0  0  0  0  0
   -1.3220   15.7810   -2.5140 C   0  0  0  0  0  0  0  0  0  0  0  0
    0.9810   15.2940   -3.0470 C   0  0  2  0  0  0  0  0  0  0  0  0
    1.7080   16.0850   -4.0710 N   0  0  0  0  0  0  0  0  0  0  0  0
    0.8910   18.0150   -5.5770 C   0  0  0  0  0  0  0  0  0  0  0  0
    1.7900   14.1020   -2.4060 C   0  0  2  0  0  0  0  0  0  0  0  0
   -1.8200   14.8950   -1.3800 C   0  0  0  0  0  0  0  0  0  0  0  0
    3.0950   14.2610   -2.5910 O   0  0  0  0  0  0  0  0  0  0  0  0
    1.4960   12.8670   -3.0180 O   0  0  0  0  0  0  0  0  0  0  0  0
   -3.2500   15.3070   -1.0870 C   0  0  1  0  0  0  0  0  0  0  0  0
   -4.0960   15.1890   -2.3560 C   0  0  0  0  0  0  0  0  0  0  0  0
   -3.8370   14.5260    0.0580 C   0  0  0  0  0  0  0  0  0  0  0  0
   -5.1970   15.1330    0.3890 C   0  0  2  0  0  0  0  0  0  0  0  0
   -5.5490   14.7800   -2.1760 C   0  0  0  0  0  0  0  0  0  0  0  0
   -5.6930   14.5010    1.7030 C   0  0  0  0  0  0  0  0  0  0  0  0
   -6.1630   15.1980   -0.8440 C   0  0  1  0  0  0  0  0  0  0  0  0
   -7.1440   14.0150    1.7390 C   0  0  1  0  0  0  0  0  0  0  0  0
   -7.4410   14.5270   -0.6920 N   0  0  0  0  0  0  0  0  0  0  0  0
   -7.6830   14.2890    3.0670 N   0  0  0  0  0  0  0  0  0  0  0  0
   -8.0420   14.5720    0.6200 C   0  0  0  0  0  0  0  0  0  0  0  0
  2  1  1  1
  3  2  1  1
  2  4  1  0
  3  5  1  0
  3  6  1  0
  4  7  1  0
  5  8  1  1
  5  9  1  0
  6 10  1  0
  9 10  1  6
  6 11  1  6
  7 11  1  0
  9 12  1  0
  8 13  1  0
 12 14  1  6
 12 15  1  0
 16 13  1  6
 16 17  1  0
 16 18  1  0
 19 18  1  6
 17 20  1  0
 19 21  1  0
 19 22  1  0
 22 20  1  6
 21 23  1  0
 22 24  1  0
 23 25  1  1
 23 26  1  0
 24 26  1  0
M  CHG  1  14  -1
M  END
