ucsf012-ucsf248
     RDKit          3D

 30 34  0  0  0  0  0  0  0  0999 V2000
   -3.1670   15.0730   -4.5800 C   0  0  0  0  0  0  0  0  0  0  0  0
   -2.8850   14.4760   -3.2130 C   0  0  2  0  0  0  0  0  0  0  0  0
   -3.2220   15.3030   -1.9560 C   0  0  2  0  0  0  0  0  0  0  0  0
   -1.5040   13.9510   -3.0090 N   0  0  0  0  0  0  0  0  0  0  0  0
   -0.5810   13.9180   -4.1380 C   0  0  0  0  0  0  0  0  0  0  0  0
   -1.8040   15.6130   -1.3370 C   0  0  2  0  0  0  0  0  0  0  0  0
   -0.9100   14.4940   -1.8150 C   0  0  1  0  0  0  0  0  0  0  0  0
   -4.1240   14.7830   -0.8430 C   0  0  2  0  0  0  0  0  0  0  0  0
   -1.6360   15.8080    0.2020 C   0  0  1  0  0  0  0  0  0  0  0  0
   -0.6880   13.4450   -0.8480 N   0  0  0  0  0  0  0  0  0  0  0  0
    0.3410   12.7020   -4.2890 C   0  0  1  0  0  0  0  0  0  0  0  0
   -5.4990   14.0620   -0.7990 C   0  0  1  0  0  0  0  0  0  0  0  0
   -4.3000   15.8190    0.2300 C   0  0  0  0  0  0  0  0  0  0  0  0
   -2.8210   16.0710    0.9530 N   0  0  0  0  0  0  0  0  0  0  0  0
   -1.1020   14.7360    0.9880 N   0  0  0  0  0  0  0  0  0  0  0  0
   -0.0790   14.0190    0.3150 C   0  0  0  0  0  0  0  0  0  0  0  0
    0.9780   12.1880   -3.0040 C   0  0  0  0  0  0  0  0  0  0  0  0
   -0.4360   11.6150   -4.8350 O   0  0  0  0  0  0  0  0  0  0  0  0
   -5.2190   13.0980    0.3680 C   0  0  2  0  0  0  0  0  0  0  0  0
   -6.7920   14.6830   -0.4270 N   0  0  0  0  0  0  0  0  0  0  0  0
   -4.1850   15.0300    1.5010 C   0  0  0  0  0  0  0  0  0  0  0  0
   -0.5360   10.5560   -3.8810 C   0  0  0  0  0  0  0  0  0  0  0  0
    0.1080   11.0210   -2.5980 C   0  0  0  0  0  0  0  0  0  0  0  0
   -6.9060   14.4750    1.0310 C   0  0  2  0  0  0  0  0  0  0  0  0
   -6.3430   13.1670    1.2760 N   0  0  0  0  0  0  0  0  0  0  0  0
   -3.9600   13.5660    1.0830 C   0  0  0  0  0  0  0  0  0  0  0  0
   -8.5440   14.5000    1.7920 S   0  0  0  0  0  0  0  0  0  0  0  0
   -9.1750   13.0790    2.3400 N   0  0  0  0  0  0  0  0  0  0  0  0
   -8.4260   15.5490    2.9930 O   0  0  0  0  0  0  0  0  0  0  0  0
   -9.4970   15.1490    0.6830 O   0  0  0  0  0  0  0  0  0  0  0  0
  2  1  1  6
  3  2  1  6
  2  4  1  0
  4  5  1  0
  3  6  1  0
  4  7  1  0
  6  7  1  0
  3  8  1  0
  6  9  1  1
  7 10  1  1
 11  5  1  1
  8 12  1  0
  8 13  1  1
  9 14  1  1
  9 15  1  0
 10 16  1  0
 15 16  1  0
 11 17  1  0
 11 18  1  0
 12 19  1  0
 12 20  1  1
 13 21  1  0
 18 22  1  0
 17 23  1  0
 22 23  1  0
 20 24  1  0
 19 25  1  0
 24 25  1  0
 19 26  1  1
 21 26  1  0
 24 27  1  6
 27 28  1  0
 27 29  1  0
 27 30  1  0
M  END
