ucsf016-ucsf336
     RDKit          3D

 29 33  0  0  0  0  0  0  0  0999 V2000
    1.9940   12.9010   -4.6670 O   0  0  0  0  0  0  0  0  0  0  0  0
    0.9950   12.7300   -3.8240 C   0  0  2  0  0  0  0  0  0  0  0  0
    1.6180   12.5950   -2.5540 O   0  0  0  0  0  0  0  0  0  0  0  0
    0.1340   11.4640   -4.1490 C   0  0  2  0  0  0  0  0  0  0  0  0
    0.0090   13.8880   -3.8310 C   0  0  2  0  0  0  0  0  0  0  0  0
    0.3270   10.3850   -3.2550 O   0  0  0  0  0  0  0  0  0  0  0  0
    0.1280   11.1950   -5.5770 N   0  0  0  0  0  0  0  0  0  0  0  0
   -0.7410   14.2300   -5.1130 C   0  0  0  0  0  0  0  0  0  0  0  0
    0.4970   15.1830   -3.2320 C   0  0  0  0  0  0  0  0  0  0  0  0
   -2.0050   14.9280   -4.6550 C   0  0  0  0  0  0  0  0  0  0  0  0
   -0.6920   15.7750   -2.6300 N   0  0  0  0  0  0  0  0  0  0  0  0
   -0.6550   10.0520   -5.9650 C   0  0  0  0  0  0  0  0  0  0  0  0
   -3.2710   14.0960   -4.5490 C   0  0  0  0  0  0  0  0  0  0  0  0
   -3.1390   15.1000   -5.6540 C   0  0  0  0  0  0  0  0  0  0  0  0
   -1.7710   16.0420   -3.6220 C   0  0  0  0  0  0  0  0  0  0  0  0
   -1.1380   15.1000   -1.4080 C   0  0  1  0  0  0  0  0  0  0  0  0
   -0.5900    9.9230   -7.4890 C   0  0  0  0  0  0  0  0  0  0  0  0
   -2.1040   10.2200   -5.5110 C   0  0  0  0  0  0  0  0  0  0  0  0
   -0.0410   15.2660   -0.4580 N   0  0  0  0  0  0  0  0  0  0  0  0
   -2.4200   15.6090   -0.7640 C   0  0  2  0  0  0  0  0  0  0  0  0
   -1.4020    8.7200   -7.9490 C   0  0  0  0  0  0  0  0  0  0  0  0
   -2.9300    9.0120   -5.9360 C   0  0  0  0  0  0  0  0  0  0  0  0
   -0.1640   14.4750    0.7430 C   0  0  0  0  0  0  0  0  0  0  0  0
   -2.3580   15.4520    0.7330 C   0  0  2  0  0  0  0  0  0  0  0  0
   -3.6870   14.8670   -1.1080 C   0  0  0  0  0  0  0  0  0  0  0  0
   -2.8390    8.7740   -7.4420 C   0  0  0  0  0  0  0  0  0  0  0  0
   -1.5230   14.4010    1.2030 N   0  0  0  0  0  0  0  0  0  0  0  0
   -3.7220   15.3460    1.2390 N   0  0  0  0  0  0  0  0  0  0  0  0
   -4.5880   15.2470    0.0510 C   0  0  0  0  0  0  0  0  0  0  0  0
  2  1  1  6
  2  3  1  0
  2  4  1  0
  2  5  1  0
  4  6  1  1
  4  7  1  0
  5  8  1  6
  5  9  1  0
 10  8  1  0
  9 11  1  0
  7 12  1  0
 10 13  1  0
 10 14  1  0
 13 14  1  0
 10 15  1  0
 11 15  1  0
 16 11  1  6
 12 17  1  0
 12 18  1  0
 16 19  1  0
 16 20  1  0
 17 21  1  0
 18 22  1  0
 19 23  1  0
 20 24  1  0
 20 25  1  6
 21 26  1  0
 22 26  1  0
 23 27  1  0
 24 27  1  6
 24 28  1  0
 25 29  1  0
 28 29  1  0
M  CHG  1   1  -1
M  END
