ucsf520-ucsf523
     RDKit          3D

 17 19  0  0  0  0  0  0  0  0999 V2000
   -4.2040   15.5940    1.5250 N   0  0  0  0  0  0  0  0  0  0  0  0
   -3.6640   14.8180    0.4050 C   0  0  2  0  0  0  0  0  0  0  0  0
   -2.1470   14.5810    0.4290 C   0  0  1  0  0  0  0  0  0  0  0  0
   -4.2110   15.3750   -0.8300 N   0  0  0  0  0  0  0  0  0  0  0  0
   -5.6410   15.0520   -0.7520 O   0  0  0  0  0  0  0  0  0  0  0  0
   -3.5720   14.8690   -2.0910 C   0  0  0  0  0  0  0  0  0  0  0  0
   -1.4930   15.0570   -0.8420 C   0  0  2  0  0  0  0  0  0  0  0  0
   -1.2910   15.2420    1.3920 N   0  0  0  0  0  0  0  0  0  0  0  0
   -2.1370   14.4660   -1.9820 N   0  0  0  0  0  0  0  0  0  0  0  0
   -0.1570   14.5600   -0.5550 N   0  0  0  0  0  0  0  0  0  0  0  0
   -0.0060   14.7700    0.8820 C   0  0  0  0  0  0  0  0  0  0  0  0
   -1.3190   14.2680   -3.2160 C   0  0  0  0  0  0  0  0  0  0  0  0
   -1.0260   15.4200   -4.2210 C   0  0  1  0  0  0  0  0  0  0  0  0
   -1.4830   16.7340   -3.8450 O   0  0  0  0  0  0  0  0  0  0  0  0
    0.4380   15.5780   -4.6170 C   0  0  0  0  0  0  0  0  0  0  0  0
    0.4410   16.9430   -5.2640 C   0  0  0  0  0  0  0  0  0  0  0  0
   -0.6510   17.6930   -4.5330 C   0  0  0  0  0  0  0  0  0  0  0  0
  2  1  1  1
  2  3  1  0
  2  4  1  0
  4  5  1  0
  4  6  1  0
  3  7  1  0
  3  8  1  1
  6  9  1  0
  7  9  1  0
  7 10  1  1
  8 11  1  0
 10 11  1  0
  9 12  1  0
 13 12  1  1
 13 14  1  0
 13 15  1  0
 15 16  1  0
 14 17  1  0
 16 17  1  0
M  END
