ucsf274-ucsf147
     RDKit          3D

 27 30  0  0  0  0  0  0  0  0999 V2000
    0.5350   10.9630   -2.3770 O   0  0  0  0  0  0  0  0  0  0  0  0
    1.0940   12.1850   -2.2060 C   0  0  2  0  0  0  0  0  0  0  0  0
    0.4370   12.5340   -1.0090 O   0  0  0  0  0  0  0  0  0  0  0  0
    0.7690   13.2820   -3.3370 C   0  0  2  0  0  0  0  0  0  0  0  0
    1.2950   14.4760   -2.9600 O   0  0  0  0  0  0  0  0  0  0  0  0
   -0.7510   13.5010   -3.5650 C   0  0  2  0  0  0  0  0  0  0  0  0
   -1.3160   13.1310   -4.9210 C   0  0  2  0  0  0  0  0  0  0  0  0
   -1.4550   14.8700   -3.4770 C   0  0  1  0  0  0  0  0  0  0  0  0
   -1.2610   11.7720   -5.6130 C   0  0  2  0  0  0  0  0  0  0  0  0
   -0.9630   14.2420   -5.6970 O   0  0  0  0  0  0  0  0  0  0  0  0
   -1.7310   15.2300   -4.9430 N   0  0  0  0  0  0  0  0  0  0  0  0
   -2.7180   14.9840   -2.5490 C   0  0  0  0  0  0  0  0  0  0  0  0
   -1.6730   10.7950   -4.5120 C   0  0  1  0  0  0  0  0  0  0  0  0
   -0.1450   11.1960   -6.3600 N   0  0  0  0  0  0  0  0  0  0  0  0
   -2.5380   14.2400   -1.2020 C   0  0  0  0  0  0  0  0  0  0  0  0
   -4.0810   14.6280   -3.1250 C   0  0  0  0  0  0  0  0  0  0  0  0
   -2.5250   11.4590   -3.5780 O   0  0  0  0  0  0  0  0  0  0  0  0
   -2.4100    9.6780   -5.0300 N   0  0  0  0  0  0  0  0  0  0  0  0
   -0.8310   10.1350   -7.1260 C   0  0  2  0  0  0  0  0  0  0  0  0
   -3.5430   14.6480   -0.1350 C   0  0  0  0  0  0  0  0  0  0  0  0
   -5.1840   14.9610   -2.1080 C   0  0  0  0  0  0  0  0  0  0  0  0
   -2.1580    9.5360   -6.4770 C   0  0  1  0  0  0  0  0  0  0  0  0
    0.1270    9.0160   -7.5250 C   0  0  0  0  0  0  0  0  0  0  0  0
   -4.7190   15.4160   -0.7170 C   0  0  0  0  0  0  0  0  0  0  0  0
   -0.5290    8.0620   -8.5200 C   0  0  0  0  0  0  0  0  0  0  0  0
   -2.3250    8.0360   -6.7400 C   0  0  0  0  0  0  0  0  0  0  0  0
   -1.9670    7.6830   -8.1710 C   0  0  0  0  0  0  0  0  0  0  0  0
  2  1  1  6
  2  3  1  0
  2  4  1  0
  4  5  1  1
  4  6  1  0
  6  7  1  0
  6  8  1  6
  7  9  1  0
  7 10  1  6
  8 11  1  0
 10 11  1  0
  8 12  1  1
  9 13  1  0
  9 14  1  1
 12 15  1  0
 12 16  1  0
 13 17  1  1
 13 18  1  0
 14 19  1  0
 15 20  1  0
 16 21  1  0
 18 22  1  0
 19 22  1  0
 19 23  1  1
 20 24  1  0
 21 24  1  0
 23 25  1  0
 22 26  1  1
 25 27  1  0
 26 27  1  0
M  CHG  2   1  -1   5  -1
M  END
