ucsf224-ucsf348
     RDKit          3D

 26 28  0  0  0  0  0  0  0  0999 V2000
   -1.3570   17.9060   -5.4900 Cl  0  0  0  0  0  0  0  0  0  0  0  0
   -0.5750   16.4790   -4.7170 C   0  0  1  0  0  0  0  0  0  0  0  0
   -1.1660   15.1200   -5.1340 C   0  0  2  0  0  0  0  0  0  0  0  0
    0.9400   16.5040   -4.8430 C   0  0  0  0  0  0  0  0  0  0  0  0
   -2.6660   15.1280   -5.5740 C   0  0  0  0  0  0  0  0  0  0  0  0
   -0.6390   14.0410   -4.2280 C   0  0  0  0  0  0  0  0  0  0  0  0
    1.5330   15.2790   -4.1190 C   0  0  0  0  0  0  0  0  0  0  0  0
   -3.7180   15.3670   -4.5130 C   0  0  0  0  0  0  0  0  0  0  0  0
    0.8550   13.9460   -4.5120 C   0  0  1  0  0  0  0  0  0  0  0  0
    1.4830   12.6520   -3.9670 C   0  0  0  0  0  0  0  0  0  0  0  0
   -3.8140   14.4860   -3.2680 C   0  0  0  0  0  0  0  0  0  0  0  0
    1.2310   12.3080   -2.4860 C   0  0  2  0  0  0  0  0  0  0  0  0
   -3.4190   15.1050   -1.9110 C   0  0  1  0  0  0  0  0  0  0  0  0
    0.4290   11.2730   -2.3240 O   0  0  0  0  0  0  0  0  0  0  0  0
    0.4800   13.3350   -1.8850 O   0  0  0  0  0  0  0  0  0  0  0  0
   -4.4050   15.1890   -0.7050 C   0  0  1  0  0  0  0  0  0  0  0  0
   -1.9900   14.5990   -1.5540 C   0  0  0  0  0  0  0  0  0  0  0  0
   -5.9250   15.3030   -0.9390 C   0  0  1  0  0  0  0  0  0  0  0  0
   -3.9980   14.1330    0.3060 C   0  0  2  0  0  0  0  0  0  0  0  0
   -1.5460   14.5930   -0.0810 C   0  0  0  0  0  0  0  0  0  0  0  0
   -6.3010   14.6670   -2.1500 O   0  0  0  0  0  0  0  0  0  0  0  0
   -6.7060   14.7660    0.1470 N   0  0  0  0  0  0  0  0  0  0  0  0
   -4.9650   13.8230    1.3500 N   0  0  0  0  0  0  0  0  0  0  0  0
   -2.6940   14.6210    0.9240 C   0  0  0  0  0  0  0  0  0  0  0  0
   -6.0140   14.7450    1.3870 C   0  0  2  0  0  0  0  0  0  0  0  0
   -6.9670   14.3010    2.3410 N   0  0  0  0  0  0  0  0  0  0  0  0
  2  1  1  6
  2  3  1  0
  2  4  1  0
  3  5  1  1
  3  6  1  0
  4  7  1  0
  5  8  1  0
  6  9  1  0
  7  9  1  0
  9 10  1  1
  8 11  1  0
 10 12  1  0
 13 11  1  6
 12 14  1  6
 12 15  1  0
 16 13  1  6
 13 17  1  0
 16 18  1  0
 16 19  1  0
 17 20  1  0
 18 21  1  6
 18 22  1  0
 19 23  1  0
 19 24  1  1
 20 24  1  0
 22 25  1  0
 23 25  1  0
 25 26  1  1
M  CHG  1  14  -1
M  END
