ucsf115-ucsf387
     RDKit          3D

 27 30  0  0  0  0  0  0  0  0999 V2000
   -2.1000   13.4700   -3.4220 C   0  0  0  0  0  0  0  0  0  0  0  0
   -1.5310   14.5090   -2.5640 N   0  0  0  0  0  0  0  0  0  0  0  0
   -1.7840   14.1920   -1.1800 C   0  0  1  0  0  0  0  0  0  0  0  0
   -1.0610   12.5010   -4.0190 C   0  0  2  0  0  0  0  0  0  0  0  0
   -1.6300   11.1910   -4.0500 O   0  0  0  0  0  0  0  0  0  0  0  0
    0.3250   12.2370   -3.4080 C   0  0  2  0  0  0  0  0  0  0  0  0
   -0.0850   11.3560   -2.2700 C   0  0  0  0  0  0  0  0  0  0  0  0
   -0.9550   10.4200   -3.0520 C   0  0  0  0  0  0  0  0  0  0  0  0
   -0.5840   14.6880   -0.5170 N   0  0  0  0  0  0  0  0  0  0  0  0
   -3.0540   14.8030   -0.5820 C   0  0  2  0  0  0  0  0  0  0  0  0
    1.1120   13.4460   -2.9720 C   0  0  1  0  0  0  0  0  0  0  0  0
   -0.5810   14.4400    0.9210 C   0  0  0  0  0  0  0  0  0  0  0  0
   -2.9860   14.5160    0.8710 C   0  0  1  0  0  0  0  0  0  0  0  0
   -4.4050   14.2820   -0.8330 N   0  0  0  0  0  0  0  0  0  0  0  0
    2.1330   13.0450   -2.0680 O   0  0  0  0  0  0  0  0  0  0  0  0
    1.7450   14.0780   -4.2110 C   0  0  0  0  0  0  0  0  0  0  0  0
   -1.7960   14.9660    1.5180 N   0  0  0  0  0  0  0  0  0  0  0  0
   -4.1690   15.1960    1.3370 N   0  0  0  0  0  0  0  0  0  0  0  0
   -5.1250   15.0000    0.2320 C   0  0  0  0  0  0  0  0  0  0  0  0
    0.7910   15.1030   -4.8620 C   0  0  1  0  0  0  0  0  0  0  0  0
   -0.6730   14.6680   -5.0290 C   0  0  0  0  0  0  0  0  0  0  0  0
    0.8330   16.3540   -4.0000 C   0  0  0  0  0  0  0  0  0  0  0  0
   -1.7090   15.7960   -4.8410 C   0  0  2  0  0  0  0  0  0  0  0  0
    0.1040   17.5430   -4.6010 C   0  0  1  0  0  0  0  0  0  0  0  0
    1.1040   18.3760   -5.8030 Cl  0  0  0  0  0  0  0  0  0  0  0  0
   -3.2240   15.4580   -5.7330 Cl  0  0  0  0  0  0  0  0  0  0  0  0
   -1.2090   17.1740   -5.2640 C   0  0  0  0  0  0  0  0  0  0  0  0
  1  2  1  0
  3  2  1  6
  4  1  1  1
  4  5  1  0
  4  6  1  0
  6  7  1  1
  5  8  1  0
  7  8  1  0
  3  9  1  0
  3 10  1  0
  6 11  1  0
  9 12  1  0
 10 13  1  0
 10 14  1  6
 11 15  1  1
 11 16  1  0
 12 17  1  0
 13 17  1  1
 13 18  1  0
 14 19  1  0
 18 19  1  0
 20 16  1  1
 20 21  1  0
 20 22  1  0
 21 23  1  0
 22 24  1  0
 24 25  1  6
 23 26  1  6
 23 27  1  0
 24 27  1  0
M  END
