ucsf378-ucsf138
     RDKit          3D

 23 24  0  0  0  0  0  0  0  0999 V2000
   -2.5460   13.8160   -4.3530 Cl  0  0  0  0  0  0  0  0  0  0  0  0
   -0.8730   14.3490   -3.9690 C   0  0  1  0  0  0  0  0  0  0  0  0
    0.2430   13.4250   -4.5620 C   0  0  2  0  0  0  0  0  0  0  0  0
   -0.7150   15.7920   -4.4530 C   0  0  0  0  0  0  0  0  0  0  0  0
    0.2060   11.8750   -4.2420 C   0  0  1  0  0  0  0  0  0  0  0  0
    1.5560   13.9970   -4.0100 C   0  0  1  0  0  0  0  0  0  0  0  0
    0.5760   16.3590   -3.9150 C   0  0  0  0  0  0  0  0  0  0  0  0
    2.9990   13.0770   -4.4570 Cl  0  0  0  0  0  0  0  0  0  0  0  0
   -0.3810   11.3500   -2.8500 C   0  0  2  0  0  0  0  0  0  0  0  0
   -0.1060   11.0170   -5.4300 N   0  0  0  0  0  0  0  0  0  0  0  0
    1.7280   15.4770   -4.3310 C   0  0  0  0  0  0  0  0  0  0  0  0
    0.0680   12.1050   -1.7210 O   0  0  0  0  0  0  0  0  0  0  0  0
    0.1280   10.0560   -2.5900 O   0  0  0  0  0  0  0  0  0  0  0  0
    0.6140   11.2590   -6.6780 C   0  0  2  0  0  0  0  0  0  0  0  0
    1.1820   12.8970   -2.0580 C   0  0  0  0  0  0  0  0  0  0  0  0
    0.2380   12.5090   -7.1030 O   0  0  0  0  0  0  0  0  0  0  0  0
    0.0910   10.2600   -7.5690 N   0  0  0  0  0  0  0  0  0  0  0  0
    0.8010    9.9390   -8.8110 C   0  0  0  0  0  0  0  0  0  0  0  0
    0.0020   10.1580  -10.1100 C   0  0  0  0  0  0  0  0  0  0  0  0
    1.4240    8.5340   -8.7240 C   0  0  0  0  0  0  0  0  0  0  0  0
    0.7360    9.6500  -11.3560 C   0  0  0  0  0  0  0  0  0  0  0  0
    2.1440    8.0950   -9.9990 C   0  0  0  0  0  0  0  0  0  0  0  0
    1.2210    8.2150  -11.1970 C   0  0  0  0  0  0  0  0  0  0  0  0
  2  1  1  6
  3  2  1  1
  2  4  1  0
  3  5  1  0
  3  6  1  0
  4  7  1  0
  6  8  1  6
  5  9  1  0
  5 10  1  6
  6 11  1  0
  7 11  1  0
  9 12  1  0
  9 13  1  1
 10 14  1  0
 12 15  1  0
 14 16  1  6
 14 17  1  0
 17 18  1  0
 18 19  1  0
 18 20  1  0
 19 21  1  0
 20 22  1  0
 21 23  1  0
 22 23  1  0
M  END
