ucsf348-ucsf138
     RDKit          3D

 28 30  0  0  0  0  0  0  0  0999 V2000
   -6.9310   14.4500    2.1770 N   0  0  0  0  0  0  0  0  0  0  0  0
   -6.0590   14.3580    1.0560 C   0  0  2  0  0  0  0  0  0  0  0  0
   -4.9160   15.1010    1.4190 N   0  0  0  0  0  0  0  0  0  0  0  0
   -6.7820   14.7930   -0.0930 N   0  0  0  0  0  0  0  0  0  0  0  0
   -6.0640   15.5640   -1.0920 C   0  0  2  0  0  0  0  0  0  0  0  0
   -3.9360   15.5120    0.4220 C   0  0  2  0  0  0  0  0  0  0  0  0
   -6.4870   15.0540   -2.3510 O   0  0  0  0  0  0  0  0  0  0  0  0
   -4.5200   15.4830   -1.0170 C   0  0  1  0  0  0  0  0  0  0  0  0
   -2.5650   14.7970    0.6840 C   0  0  0  0  0  0  0  0  0  0  0  0
   -1.8500   14.1000   -0.5080 C   0  0  2  0  0  0  0  0  0  0  0  0
   -3.9260   14.4220   -1.9210 C   0  0  0  0  0  0  0  0  0  0  0  0
   -0.3000   14.1640   -0.4620 C   0  0  0  0  0  0  0  0  0  0  0  0
   -2.4140   14.4590   -1.8930 C   0  0  0  0  0  0  0  0  0  0  0  0
    0.4440   14.0070   -1.8100 C   0  0  0  0  0  0  0  0  0  0  0  0
    0.9600   12.6700   -1.9860 O   0  0  0  0  0  0  0  0  0  0  0  0
    0.2660   11.8720   -2.9570 C   0  0  2  0  0  0  0  0  0  0  0  0
    0.4270   10.4850   -2.6700 O   0  0  0  0  0  0  0  0  0  0  0  0
    0.7570   12.2250   -4.4130 C   0  0  0  0  0  0  0  0  0  0  0  0
    0.3050   11.2620   -5.4640 N   0  0  0  0  0  0  0  0  0  0  0  0
    1.0210   11.3710   -6.7110 C   0  0  2  0  0  0  0  0  0  0  0  0
    0.9990   12.7030   -6.9750 O   0  0  0  0  0  0  0  0  0  0  0  0
    0.2130   10.6390   -7.6540 N   0  0  0  0  0  0  0  0  0  0  0  0
    0.9590   10.2090   -8.8610 C   0  0  0  0  0  0  0  0  0  0  0  0
    0.0780   10.3750  -10.1240 C   0  0  0  0  0  0  0  0  0  0  0  0
    1.4240    8.7550   -8.6820 C   0  0  0  0  0  0  0  0  0  0  0  0
    0.6650    9.7020  -11.3680 C   0  0  0  0  0  0  0  0  0  0  0  0
    2.0730    8.1580   -9.9230 C   0  0  0  0  0  0  0  0  0  0  0  0
    1.1200    8.2640  -11.1070 C   0  0  0  0  0  0  0  0  0  0  0  0
  2  1  1  1
  2  3  1  0
  2  4  1  0
  4  5  1  0
  3  6  1  0
  5  7  1  6
  5  8  1  0
  6  8  1  0
  6  9  1  6
  9 10  1  0
  8 11  1  1
 10 12  1  6
 10 13  1  0
 11 13  1  0
 12 14  1  0
 14 15  1  0
 15 16  1  0
 16 17  1  1
 16 18  1  0
 18 19  1  0
 19 20  1  0
 20 21  1  6
 20 22  1  0
 22 23  1  0
 23 24  1  0
 23 25  1  0
 24 26  1  0
 25 27  1  0
 26 28  1  0
 27 28  1  0
M  END
