ucsf380-ucsf378
     RDKit          3D

 27 29  0  0  0  0  0  0  0  0999 V2000
    0.2250   14.9340   -1.8430 O   0  0  0  0  0  0  0  0  0  0  0  0
   -0.0700   13.7690   -1.2980 C   0  0  2  0  0  0  0  0  0  0  0  0
    0.8200   12.7870   -1.8360 O   0  0  0  0  0  0  0  0  0  0  0  0
   -1.5480   13.2640   -1.6110 C   0  0  0  0  0  0  0  0  0  0  0  0
    0.1220   11.7740   -2.5520 C   0  0  2  0  0  0  0  0  0  0  0  0
   -2.7430   14.1070   -1.0100 C   0  0  0  0  0  0  0  0  0  0  0  0
   -1.8980   12.4660   -2.9510 C   0  0  0  0  0  0  0  0  0  0  0  0
    0.5710   10.4510   -2.2700 O   0  0  0  0  0  0  0  0  0  0  0  0
    0.3020   12.0000   -4.0590 C   0  0  0  0  0  0  0  0  0  0  0  0
   -2.4110   14.7970    0.3410 C   0  0  0  0  0  0  0  0  0  0  0  0
   -3.5520   15.0350   -1.9480 C   0  0  0  0  0  0  0  0  0  0  0  0
   -3.3600   12.0570   -3.1190 C   0  0  0  0  0  0  0  0  0  0  0  0
   -1.3680   13.0080   -4.2910 C   0  0  0  0  0  0  0  0  0  0  0  0
   -3.5880   15.5740    0.9220 C   0  0  0  0  0  0  0  0  0  0  0  0
   -4.8180   15.5450   -1.2670 C   0  0  0  0  0  0  0  0  0  0  0  0
   -3.4990   10.9180   -4.1240 C   0  0  0  0  0  0  0  0  0  0  0  0
   -1.7240   12.1080   -5.4810 C   0  0  0  0  0  0  0  0  0  0  0  0
    0.2350   13.4670   -4.6390 C   0  0  0  0  0  0  0  0  0  0  0  0
   -4.8550   15.1700    0.2050 C   0  0  0  0  0  0  0  0  0  0  0  0
   -2.2780   10.7630   -5.0300 C   0  0  0  0  0  0  0  0  0  0  0  0
    1.6590   14.0220   -4.7320 C   0  0  2  0  0  0  0  0  0  0  0  0
   -0.7270   14.5840   -4.0650 C   0  0  2  0  0  0  0  0  0  0  0  0
   -2.4740   14.3980   -4.4980 Cl  0  0  0  0  0  0  0  0  0  0  0  0
    2.9680   12.8550   -4.3060 Cl  0  0  0  0  0  0  0  0  0  0  0  0
    1.8390   15.2570   -3.8810 C   0  0  0  0  0  0  0  0  0  0  0  0
   -0.4000   15.9700   -4.6390 C   0  0  0  0  0  0  0  0  0  0  0  0
    1.0270   16.4190   -4.4080 C   0  0  0  0  0  0  0  0  0  0  0  0
  2  1  1  6
  2  3  1  0
  2  4  1  0
  3  5  1  0
  4  6  1  0
  4  7  1  0
  5  8  1  1
  5  9  1  0
  6 10  1  0
  6 11  1  0
  7 12  1  0
  7 13  1  0
 10 14  1  0
 11 15  1  0
 12 16  1  0
 13 17  1  0
  9 18  1  0
 14 19  1  0
 15 19  1  0
 16 20  1  0
 17 20  1  0
 18 21  1  0
 18 22  1  0
 22 23  1  6
 21 24  1  1
 21 25  1  0
 22 26  1  0
 25 27  1  0
 26 27  1  0
M  CHG  1   1  -1
M  END
