ucsf039-ucsf424
     RDKit          3D

 31 35  0  0  0  0  0  0  0  0999 V2000
   -4.1930   15.4340    1.0360 N   0  0  0  0  0  0  0  0  0  0  0  0
   -3.4890   14.7330   -0.0460 C   0  0  2  0  0  0  0  0  0  0  0  0
   -2.0060   14.3830    0.2780 C   0  0  1  0  0  0  0  0  0  0  0  0
   -3.6650   15.5180   -1.2370 N   0  0  0  0  0  0  0  0  0  0  0  0
   -3.0190   14.9220   -2.4040 C   0  0  0  0  0  0  0  0  0  0  0  0
   -1.1350   14.1690   -0.9890 C   0  0  1  0  0  0  0  0  0  0  0  0
   -1.2980   15.4270    1.0400 N   0  0  0  0  0  0  0  0  0  0  0  0
   -1.5670   14.8430   -2.2030 N   0  0  0  0  0  0  0  0  0  0  0  0
    0.1620   14.7230   -0.5990 N   0  0  0  0  0  0  0  0  0  0  0  0
    0.0590   14.9730    0.8130 C   0  0  0  0  0  0  0  0  0  0  0  0
   -0.7150   14.7530   -3.4640 C   0  0  2  0  0  0  0  0  0  0  0  0
    0.6010   13.8500   -3.4420 C   0  0  0  0  0  0  0  0  0  0  0  0
   -0.4460   16.1990   -4.0430 C   0  0  1  0  0  0  0  0  0  0  0  0
    0.7780   12.3420   -3.8890 C   0  0  1  0  0  0  0  0  0  0  0  0
    0.9700   16.3690   -4.6140 C   0  0  0  0  0  0  0  0  0  0  0  0
   -1.3600   16.7700   -5.0350 N   0  0  0  0  0  0  0  0  0  0  0  0
    0.3070   11.4530   -2.6460 C   0  0  1  0  0  0  0  0  0  0  0  0
   -0.8690   18.1060   -5.3230 C   0  0  1  0  0  0  0  0  0  0  0  0
    0.9340   18.0190   -5.3650 S   0  0  0  0  0  0  0  0  0  0  0  0
    0.4250   11.7240   -5.3300 C   0  0  2  0  0  0  0  0  0  0  0  0
   -1.3990   18.6670   -6.6350 C   0  0  0  0  0  0  0  0  0  0  0  0
    0.6160   12.0160   -1.4950 O   0  0  0  0  0  0  0  0  0  0  0  0
   -1.0940   11.3460   -2.6800 O   0  0  0  0  0  0  0  0  0  0  0  0
   -0.0030   12.5570   -6.4580 N   0  0  0  0  0  0  0  0  0  0  0  0
   -0.5090   10.5370   -5.6070 C   0  0  2  0  0  0  0  0  0  0  0  0
   -0.0740   11.6210   -7.5950 O   0  0  0  0  0  0  0  0  0  0  0  0
   -0.2410   10.3030   -7.0760 C   0  0  2  0  0  0  0  0  0  0  0  0
   -1.9880   10.4720   -5.2470 C   0  0  0  0  0  0  0  0  0  0  0  0
   -1.3110    9.5370   -7.8450 C   0  0  0  0  0  0  0  0  0  0  0  0
   -2.7720    9.2950   -5.8180 C   0  0  0  0  0  0  0  0  0  0  0  0
   -2.0460    8.5640   -6.9400 C   0  0  0  0  0  0  0  0  0  0  0  0
  2  1  1  1
  2  3  1  0
  2  4  1  0
  4  5  1  0
  3  6  1  0
  3  7  1  6
  5  8  1  0
  6  8  1  0
  6  9  1  1
  7 10  1  0
  9 10  1  0
  8 11  1  0
 11 12  1  1
 11 13  1  0
 14 12  1  1
 13 15  1  6
 13 16  1  0
 14 17  1  0
 16 18  1  0
 15 19  1  0
 18 19  1  0
 14 20  1  0
 18 21  1  6
 17 22  1  1
 17 23  1  0
 20 24  1  6
 20 25  1  0
 24 26  1  0
 25 27  1  0
 26 27  1  0
 25 28  1  6
 27 29  1  6
 28 30  1  0
 29 31  1  0
 30 31  1  0
M  CHG  1  22  -1
M  END
