ucsf115-ucsf039
     RDKit          3D

 22 25  0  0  0  0  0  0  0  0999 V2000
   -1.1580   14.4120   -3.9410 C   0  0  2  0  0  0  0  0  0  0  0  0
   -2.1080   14.7710   -2.8460 N   0  0  0  0  0  0  0  0  0  0  0  0
   -2.0330   14.3350   -1.4630 C   0  0  1  0  0  0  0  0  0  0  0  0
   -0.2820   13.1550   -3.6880 C   0  0  2  0  0  0  0  0  0  0  0  0
   -0.4340   15.8020   -4.1870 C   0  0  1  0  0  0  0  0  0  0  0  0
   -0.8940   11.9450   -4.2000 O   0  0  0  0  0  0  0  0  0  0  0  0
    0.1150   12.8200   -2.2630 C   0  0  0  0  0  0  0  0  0  0  0  0
    0.9050   15.9120   -4.9190 C   0  0  0  0  0  0  0  0  0  0  0  0
   -1.3920   16.7180   -4.8900 N   0  0  0  0  0  0  0  0  0  0  0  0
    0.6410   11.4430   -2.4970 C   0  0  0  0  0  0  0  0  0  0  0  0
   -0.3830   10.8490   -3.4290 C   0  0  0  0  0  0  0  0  0  0  0  0
   -0.7340   14.7690   -0.9150 N   0  0  0  0  0  0  0  0  0  0  0  0
   -3.2060   14.8740   -0.6320 C   0  0  2  0  0  0  0  0  0  0  0  0
   -0.7420   17.9710   -5.2280 C   0  0  1  0  0  0  0  0  0  0  0  0
    0.9970   17.6270   -5.4990 S   0  0  0  0  0  0  0  0  0  0  0  0
   -1.3720   18.6530   -6.4350 C   0  0  0  0  0  0  0  0  0  0  0  0
   -0.5580   14.5160    0.5240 C   0  0  0  0  0  0  0  0  0  0  0  0
   -2.9470   14.4920    0.8030 C   0  0  1  0  0  0  0  0  0  0  0  0
   -4.5610   14.3560   -0.7740 N   0  0  0  0  0  0  0  0  0  0  0  0
   -1.6960   14.9700    1.3160 N   0  0  0  0  0  0  0  0  0  0  0  0
   -4.1010   15.1200    1.4070 N   0  0  0  0  0  0  0  0  0  0  0  0
   -5.1340   15.0610    0.3730 C   0  0  0  0  0  0  0  0  0  0  0  0
  1  2  1  1
  3  2  1  6
  1  4  1  0
  1  5  1  0
  4  6  1  0
  4  7  1  1
  5  8  1  6
  5  9  1  0
  7 10  1  0
  6 11  1  0
 10 11  1  0
  3 12  1  0
  3 13  1  0
  9 14  1  0
  8 15  1  0
 14 15  1  0
 14 16  1  6
 12 17  1  0
 13 18  1  0
 13 19  1  6
 17 20  1  0
 18 20  1  1
 18 21  1  0
 19 22  1  0
 21 22  1  0
M  END
