ucsf411-ucsf338
     RDKit          3D

 28 30  0  0  0  0  0  0  0  0999 V2000
    0.5960   10.5890   -2.3060 O   0  0  0  0  0  0  0  0  0  0  0  0
    0.3930   11.8780   -2.5630 C   0  0  1  0  0  0  0  0  0  0  0  0
    0.4700   12.4730   -1.2860 O   0  0  0  0  0  0  0  0  0  0  0  0
    1.4620   12.5290   -3.5300 C   0  0  0  0  0  0  0  0  0  0  0  0
    1.2920   13.9090   -3.9390 O   0  0  0  0  0  0  0  0  0  0  0  0
   -0.0710   14.3170   -4.1190 C   0  0  1  0  0  0  0  0  0  0  0  0
   -0.1900   15.8710   -4.1980 C   0  0  2  0  0  0  0  0  0  0  0  0
   -0.5730   13.6060   -5.3730 C   0  0  0  0  0  0  0  0  0  0  0  0
   -1.2780   16.3110   -5.1660 C   0  0  1  0  0  0  0  0  0  0  0  0
   -2.0460   13.8450   -5.6470 C   0  0  0  0  0  0  0  0  0  0  0  0
    1.0840   16.5620   -4.6910 C   0  0  0  0  0  0  0  0  0  0  0  0
   -2.4480   15.3080   -5.4120 C   0  0  1  0  0  0  0  0  0  0  0  0
   -1.5420   17.8020   -5.1480 C   0  0  0  0  0  0  0  0  0  0  0  0
    0.9120   18.0720   -4.9720 C   0  0  0  0  0  0  0  0  0  0  0  0
   -3.6520   15.3930   -4.5100 C   0  0  0  0  0  0  0  0  0  0  0  0
   -0.3380   18.4610   -5.7540 C   0  0  0  0  0  0  0  0  0  0  0  0
   -3.9030   14.3970   -3.4070 C   0  0  0  0  0  0  0  0  0  0  0  0
   -4.7190   15.0260   -2.4440 O   0  0  0  0  0  0  0  0  0  0  0  0
   -4.3440   14.7400   -1.1030 C   0  0  2  0  0  0  0  0  0  0  0  0
   -5.3940   15.3480   -0.1890 C   0  0  1  0  0  0  0  0  0  0  0  0
   -2.9570   15.3280   -0.7840 C   0  0  0  0  0  0  0  0  0  0  0  0
   -6.8580   15.0300   -0.5720 C   0  0  2  0  0  0  0  0  0  0  0  0
   -2.5570   15.2220    0.6950 C   0  0  0  0  0  0  0  0  0  0  0  0
   -5.0170   14.9660    1.2400 C   0  0  0  0  0  0  0  0  0  0  0  0
   -7.5500   14.1780    0.4000 N   0  0  0  0  0  0  0  0  0  0  0  0
   -6.9530   14.4330   -1.8490 O   0  0  0  0  0  0  0  0  0  0  0  0
   -3.6950   15.6000    1.6330 C   0  0  0  0  0  0  0  0  0  0  0  0
   -8.9780   14.2450    0.0770 O   0  0  0  0  0  0  0  0  0  0  0  0
  2  1  1  1
  2  3  1  0
  2  4  1  0
  4  5  1  0
  6  5  1  6
  6  7  1  0
  6  8  1  0
  7  9  1  0
  8 10  1  0
  7 11  1  6
  9 12  1  0
 10 12  1  0
  9 13  1  1
 11 14  1  0
 12 15  1  1
 13 16  1  0
 14 16  1  0
 15 17  1  0
 17 18  1  0
 19 18  1  6
 19 20  1  0
 19 21  1  0
 20 22  1  0
 21 23  1  0
 20 24  1  1
 22 25  1  0
 22 26  1  6
 23 27  1  0
 24 27  1  0
 25 28  1  0
M  CHG  1   1  -1
M  END
