ucsf016-ucsf260
     RDKit          3D

 30 35  0  0  0  0  0  0  0  0999 V2000
    1.1250   11.3840   -2.8730 O   0  0  0  0  0  0  0  0  0  0  0  0
    1.9730   12.3430   -3.2180 C   0  0  2  0  0  0  0  0  0  0  0  0
    1.8630   13.1670   -2.0840 O   0  0  0  0  0  0  0  0  0  0  0  0
    1.4230   13.1260   -4.4330 C   0  0  0  0  0  0  0  0  0  0  0  0
   -0.1360   13.0490   -4.5890 C   0  0  2  0  0  0  0  0  0  0  0  0
   -0.7580   14.1540   -5.4680 C   0  0  0  0  0  0  0  0  0  0  0  0
   -0.7030   13.4130   -3.1360 C   0  0  0  0  0  0  0  0  0  0  0  0
   -0.5850   11.7270   -5.1500 N   0  0  0  0  0  0  0  0  0  0  0  0
   -1.9980   14.7620   -4.8120 C   0  0  0  0  0  0  0  0  0  0  0  0
   -0.7440   14.8600   -2.7450 N   0  0  0  0  0  0  0  0  0  0  0  0
   -1.6040   10.9890   -4.4390 C   0  0  0  0  0  0  0  0  0  0  0  0
   -0.6510   11.3950   -6.5990 C   0  0  2  0  0  0  0  0  0  0  0  0
   -3.3130   13.9930   -4.8030 C   0  0  0  0  0  0  0  0  0  0  0  0
   -3.1590   15.1920   -5.6970 C   0  0  0  0  0  0  0  0  0  0  0  0
   -1.6480   15.6110   -3.6240 C   0  0  0  0  0  0  0  0  0  0  0  0
   -0.9570   15.1900   -1.3320 C   0  0  2  0  0  0  0  0  0  0  0  0
   -2.5490   10.5540   -5.4780 N   0  0  0  0  0  0  0  0  0  0  0  0
   -1.6650   10.2460   -6.6090 C   0  0  2  0  0  0  0  0  0  0  0  0
    0.6040   11.0290   -7.4190 C   0  0  0  0  0  0  0  0  0  0  0  0
   -0.1990   14.2720   -0.4870 N   0  0  0  0  0  0  0  0  0  0  0  0
   -2.3270   15.4950   -0.7080 C   0  0  2  0  0  0  0  0  0  0  0  0
   -1.0760    8.8480   -6.4570 C   0  0  0  0  0  0  0  0  0  0  0  0
    0.4750    9.7640   -8.2730 C   0  0  0  0  0  0  0  0  0  0  0  0
   -0.0800   14.6860    0.9030 C   0  0  0  0  0  0  0  0  0  0  0  0
   -2.4230   14.7420    0.5860 C   0  0  1  0  0  0  0  0  0  0  0  0
   -3.7050   15.1990   -1.2420 C   0  0  0  0  0  0  0  0  0  0  0  0
   -0.1290    8.5320   -7.5990 C   0  0  0  0  0  0  0  0  0  0  0  0
   -1.3600   14.9770    1.4890 N   0  0  0  0  0  0  0  0  0  0  0  0
   -3.6290   15.3320    1.1640 N   0  0  0  0  0  0  0  0  0  0  0  0
   -4.5790   15.3310    0.0130 C   0  0  0  0  0  0  0  0  0  0  0  0
  2  1  1  1
  2  3  1  0
  2  4  1  0
  5  4  1  1
  5  6  1  0
  5  7  1  0
  5  8  1  0
  9  6  1  0
  7 10  1  0
  8 11  1  0
  8 12  1  0
  9 13  1  0
  9 14  1  0
 13 14  1  0
  9 15  1  0
 10 15  1  0
 16 10  1  6
 11 17  1  0
 12 18  1  0
 17 18  1  0
 12 19  1  1
 16 20  1  0
 16 21  1  0
 18 22  1  1
 19 23  1  0
 20 24  1  0
 21 25  1  0
 21 26  1  6
 22 27  1  0
 23 27  1  0
 24 28  1  0
 25 28  1  1
 25 29  1  0
 26 30  1  0
 29 30  1  0
M  CHG  1   1  -1
M  END
