ucsf367-ucsf412
     RDKit          3D

 25 27  0  0  0  0  0  0  0  0999 V2000
    0.5910   10.7660   -3.0510 O   0  0  0  0  0  0  0  0  0  0  0  0
    0.4850   12.0710   -3.2630 C   0  0  1  0  0  0  0  0  0  0  0  0
    1.3350   12.7380   -2.3030 O   0  0  0  0  0  0  0  0  0  0  0  0
    1.0210   12.4720   -4.6870 C   0  0  0  0  0  0  0  0  0  0  0  0
    0.7430   11.5330   -5.7610 O   0  0  0  0  0  0  0  0  0  0  0  0
    0.6250   13.5790   -1.3910 C   0  0  0  0  0  0  0  0  0  0  0  0
   -0.4620   14.4000   -2.0860 C   0  0  0  0  0  0  0  0  0  0  0  0
   -0.3600   10.6480   -5.5700 C   0  0  0  0  0  0  0  0  0  0  0  0
   -1.9000   13.8560   -1.9540 C   0  0  0  0  0  0  0  0  0  0  0  0
   -0.4680    9.7790   -6.8300 C   0  0  0  0  0  0  0  0  0  0  0  0
   -1.7030   11.3420   -5.3420 C   0  0  0  0  0  0  0  0  0  0  0  0
   -1.5400    8.7120   -6.6580 C   0  0  0  0  0  0  0  0  0  0  0  0
   -2.8310   10.3260   -5.1730 C   0  0  0  0  0  0  0  0  0  0  0  0
   -3.0410   14.8860   -1.8080 C   0  0  2  0  0  0  0  0  0  0  0  0
   -2.8960    9.3250   -6.3310 C   0  0  0  0  0  0  0  0  0  0  0  0
   -3.3420   15.2650   -0.3510 C   0  0  0  0  0  0  0  0  0  0  0  0
   -4.3080   14.6430   -2.6260 C   0  0  0  0  0  0  0  0  0  0  0  0
   -4.4840   14.4780    0.2930 C   0  0  2  0  0  0  0  0  0  0  0  0
   -5.5470   15.1380   -1.8980 C   0  0  0  0  0  0  0  0  0  0  0  0
   -5.7710   14.3900   -0.5860 C   0  0  2  0  0  0  0  0  0  0  0  0
   -4.6940   15.0630    1.6760 C   0  0  0  0  0  0  0  0  0  0  0  0
   -7.1130   14.7960    0.0700 C   0  0  1  0  0  0  0  0  0  0  0  0
   -5.9800   14.5930    2.3180 C   0  0  0  0  0  0  0  0  0  0  0  0
   -8.1720   13.9940   -0.3880 O   0  0  0  0  0  0  0  0  0  0  0  0
   -7.1940   14.7060    1.5220 N   0  0  0  0  0  0  0  0  0  0  0  0
  2  1  1  1
  2  3  1  0
  2  4  1  0
  4  5  1  0
  3  6  1  0
  6  7  1  0
  5  8  1  0
  7  9  1  0
  8 10  1  0
  8 11  1  0
 10 12  1  0
 11 13  1  0
 14  9  1  1
 12 15  1  0
 13 15  1  0
 14 16  1  0
 14 17  1  0
 18 16  1  6
 17 19  1  0
 18 20  1  0
 20 19  1  6
 18 21  1  0
 20 22  1  0
 21 23  1  0
 22 24  1  6
 22 25  1  0
 23 25  1  0
M  CHG  1   1  -1
M  END
