ucsf380-ucsf248
     RDKit          3D

 24 26  0  0  0  0  0  0  0  0999 V2000
    1.1140   14.9280   -1.8370 O   0  0  0  0  0  0  0  0  0  0  0  0
    0.1100   14.1330   -1.5510 C   0  0  2  0  0  0  0  0  0  0  0  0
    0.6110   12.8730   -1.9310 O   0  0  0  0  0  0  0  0  0  0  0  0
   -1.1910   14.5380   -2.3320 C   0  0  2  0  0  0  0  0  0  0  0  0
   -2.3790   15.1930   -1.4960 C   0  0  2  0  0  0  0  0  0  0  0  0
   -1.7010   13.4410   -3.3870 C   0  0  0  0  0  0  0  0  0  0  0  0
   -2.3400   14.6590   -0.0420 C   0  0  0  0  0  0  0  0  0  0  0  0
   -3.8210   15.2900   -2.0460 C   0  0  0  0  0  0  0  0  0  0  0  0
   -2.3700   12.1810   -2.7920 C   0  0  0  0  0  0  0  0  0  0  0  0
   -0.6120   12.9820   -4.3740 C   0  0  0  0  0  0  0  0  0  0  0  0
   -3.4680   15.1160    0.8610 C   0  0  0  0  0  0  0  0  0  0  0  0
   -4.9660   15.6400   -1.0740 C   0  0  0  0  0  0  0  0  0  0  0  0
   -2.9430   11.2670   -3.8820 C   0  0  0  0  0  0  0  0  0  0  0  0
   -1.1840   12.1220   -5.4940 C   0  0  0  0  0  0  0  0  0  0  0  0
   -4.8470   14.8960    0.2610 C   0  0  2  0  0  0  0  0  0  0  0  0
   -1.9200   10.9040   -4.9530 C   0  0  0  0  0  0  0  0  0  0  0  0
   -5.8280   15.1620    1.2980 N   0  0  0  0  0  0  0  0  0  0  0  0
   -5.2700   13.4600    0.0150 C   0  0  0  0  0  0  0  0  0  0  0  0
   -7.0910   14.6720    0.7870 C   0  0  1  0  0  0  0  0  0  0  0  0
   -6.7370   13.5750   -0.1140 N   0  0  0  0  0  0  0  0  0  0  0  0
   -8.3380   14.2680    2.0440 S   0  0  0  0  0  0  0  0  0  0  0  0
   -8.3980   12.7320    2.6550 N   0  0  0  0  0  0  0  0  0  0  0  0
   -8.1270   15.3000    3.2460 O   0  0  0  0  0  0  0  0  0  0  0  0
   -9.7310   14.6310    1.3320 O   0  0  0  0  0  0  0  0  0  0  0  0
  2  1  1  6
  2  3  1  0
  2  4  1  0
  4  5  1  0
  4  6  1  1
  5  7  1  1
  5  8  1  0
  6  9  1  0
  6 10  1  0
  7 11  1  0
  8 12  1  0
  9 13  1  0
 10 14  1  0
 15 11  1  1
 12 15  1  0
 13 16  1  0
 14 16  1  0
 15 17  1  0
 15 18  1  0
 17 19  1  0
 18 20  1  0
 19 20  1  0
 19 21  1  1
 21 22  1  0
 21 23  1  0
 21 24  1  0
M  CHG  1   1  -1
M  END
