ucsf242-ucsf353
     RDKit          3D

 13 15  0  0  0  0  0  0  0  0999 V2000
   15.0810    5.8010   12.0870 N   0  0  0  0  0  0  0  0  0  0  0  0
   14.0810    4.8420   11.6490 C   0  0  1  0  0  0  0  0  0  0  0  0
   13.0100    5.6990   11.3110 O   0  0  0  0  0  0  0  0  0  0  0  0
   15.8070    6.1560   10.8940 C   0  0  2  0  0  0  0  0  0  0  0  0
   15.2220    7.2690   10.1680 N   0  0  0  0  0  0  0  0  0  0  0  0
   15.6120    5.0270    9.9570 C   0  0  1  0  0  0  0  0  0  0  0  0
   14.4620    4.2220   10.3130 C   0  0  1  0  0  0  0  0  0  0  0  0
   15.4620    6.9110    8.7420 O   0  0  0  0  0  0  0  0  0  0  0  0
   15.0880    5.5330    8.7250 C   0  0  1  0  0  0  0  0  0  0  0  0
   14.8730    2.8290    9.8550 C   0  0  0  0  0  0  0  0  0  0  0  0
   15.5300    4.4260    7.7650 C   0  0  0  0  0  0  0  0  0  0  0  0
   15.0190    3.0080    8.2930 C   0  0  1  0  0  0  0  0  0  0  0  0
   15.8010    1.9690    7.6910 O   0  0  0  0  0  0  0  0  0  0  0  0
  1  2  1  0
  2  3  1  6
  4  1  1  1
  4  5  1  0
  6  4  1  1
  2  7  1  0
  6  7  1  0
  5  8  1  0
  6  9  1  0
  8  9  1  0
  7 10  1  1
  9 11  1  6
 10 12  1  0
 11 12  1  0
 12 13  1  1
M  END
