ucsf028-ucsf338
     RDKit          3D

 23 25  0  0  0  0  0  0  0  0999 V2000
   -4.5380   15.1840    1.6290 N   0  0  0  0  0  0  0  0  0  0  0  0
   -3.7710   15.6220    0.4720 C   0  0  1  0  0  0  0  0  0  0  0  0
   -2.2290   15.4540    0.6050 C   0  0  2  0  0  0  0  0  0  0  0  0
   -4.3960   14.9610   -0.6860 N   0  0  0  0  0  0  0  0  0  0  0  0
   -5.8670   15.2370   -0.8260 C   0  0  2  0  0  0  0  0  0  0  0  0
   -3.5780   15.2040   -1.8750 C   0  0  2  0  0  0  0  0  0  0  0  0
   -1.5080   15.4840   -0.7420 C   0  0  2  0  0  0  0  0  0  0  0  0
   -1.6520   14.2970    1.2830 N   0  0  0  0  0  0  0  0  0  0  0  0
   -6.6660   14.5290    0.2070 N   0  0  0  0  0  0  0  0  0  0  0  0
   -6.3970   14.7470   -2.0370 O   0  0  0  0  0  0  0  0  0  0  0  0
   -4.2460   14.7200   -3.0160 O   0  0  0  0  0  0  0  0  0  0  0  0
   -2.2000   14.6710   -1.7170 N   0  0  0  0  0  0  0  0  0  0  0  0
   -0.1580   15.0520   -0.3740 N   0  0  0  0  0  0  0  0  0  0  0  0
   -0.2430   14.4070    0.9330 C   0  0  0  0  0  0  0  0  0  0  0  0
   -1.4730   14.5850   -3.0040 C   0  0  0  0  0  0  0  0  0  0  0  0
   -8.1000   14.4930   -0.1690 O   0  0  0  0  0  0  0  0  0  0  0  0
   -1.0730   13.1530   -3.3790 C   0  0  1  0  0  0  0  0  0  0  0  0
   -0.7200   12.8750   -4.8110 C   0  0  0  0  0  0  0  0  0  0  0  0
    0.0250   12.6510   -2.6270 O   0  0  0  0  0  0  0  0  0  0  0  0
    0.3070   11.3610   -3.2520 N   0  0  0  0  0  0  0  0  0  0  0  0
    0.0600   11.5790   -4.6830 C   0  0  1  0  0  0  0  0  0  0  0  0
   -0.7110   10.5380   -5.2650 O   0  0  0  0  0  0  0  0  0  0  0  0
   -0.5630   10.5490   -6.6780 C   0  0  0  0  0  0  0  0  0  0  0  0
  2  1  1  1
  2  3  1  0
  2  4  1  0
  4  5  1  0
  4  6  1  0
  3  7  1  0
  3  8  1  6
  5  9  1  0
  5 10  1  6
  6 11  1  6
  6 12  1  0
  7 12  1  0
  7 13  1  1
  8 14  1  0
 13 14  1  0
 12 15  1  0
  9 16  1  0
 17 15  1  6
 17 18  1  0
 17 19  1  0
 19 20  1  0
 18 21  1  0
 20 21  1  0
 21 22  1  1
 22 23  1  0
M  END
