ucsf224-ucsf320
     RDKit          3D

 22 23  0  0  0  0  0  0  0  0999 V2000
   -1.3370   18.6880   -5.1960 Cl  0  0  0  0  0  0  0  0  0  0  0  0
   -0.7020   17.0200   -5.3560 C   0  0  2  0  0  0  0  0  0  0  0  0
   -1.6650   16.0050   -4.7070 C   0  0  1  0  0  0  0  0  0  0  0  0
    0.7420   16.9490   -4.8460 C   0  0  0  0  0  0  0  0  0  0  0  0
   -2.9270   15.2950   -5.8040 Cl  0  0  0  0  0  0  0  0  0  0  0  0
   -0.9250   15.0090   -3.7990 C   0  0  1  0  0  0  0  0  0  0  0  0
    1.2850   15.5290   -4.9640 C   0  0  0  0  0  0  0  0  0  0  0  0
   -1.7020   14.0680   -3.0980 O   0  0  0  0  0  0  0  0  0  0  0  0
    0.5520   14.5700   -4.0510 C   0  0  2  0  0  0  0  0  0  0  0  0
    0.8140   13.0400   -4.1610 C   0  0  0  0  0  0  0  0  0  0  0  0
   -1.8230   14.6230   -1.7950 C   0  0  2  0  0  0  0  0  0  0  0  0
    0.5360   12.2870   -2.8330 C   0  0  1  0  0  0  0  0  0  0  0  0
   -1.3380   13.8860   -0.8340 O   0  0  0  0  0  0  0  0  0  0  0  0
   -3.3230   14.9720   -1.5120 C   0  0  2  0  0  0  0  0  0  0  0  0
    0.5650   10.9740   -2.8740 O   0  0  0  0  0  0  0  0  0  0  0  0
    1.5450   12.5860   -1.9080 O   0  0  0  0  0  0  0  0  0  0  0  0
   -3.8610   14.2270   -0.2890 C   0  0  0  0  0  0  0  0  0  0  0  0
   -4.2930   14.7710   -2.6870 C   0  0  0  0  0  0  0  0  0  0  0  0
   -5.0760   14.9330    0.2560 C   0  0  0  0  0  0  0  0  0  0  0  0
   -5.7550   14.7880   -2.2400 C   0  0  0  0  0  0  0  0  0  0  0  0
   -5.9820   15.4370   -0.8690 C   0  0  1  0  0  0  0  0  0  0  0  0
   -7.3410   15.2140   -0.4880 O   0  0  0  0  0  0  0  0  0  0  0  0
  2  1  1  1
  2  3  1  0
  2  4  1  0
  3  5  1  6
  3  6  1  0
  4  7  1  0
  6  8  1  6
  6  9  1  0
  7  9  1  0
  9 10  1  6
  8 11  1  0
 10 12  1  0
 11 13  1  1
 11 14  1  0
 12 15  1  6
 12 16  1  0
 14 17  1  1
 14 18  1  0
 17 19  1  0
 18 20  1  0
 19 21  1  0
 20 21  1  0
 21 22  1  1
M  CHG  2  13  -1  15  -1
M  END
