ucsf114-ucsf396
     RDKit          3D

 25 27  0  0  0  0  0  0  0  0999 V2000
    0.7190   18.1380   -4.5030 C   0  0  0  0  0  0  0  0  0  0  0  0
   -0.3230   17.6170   -5.4840 C   0  0  0  0  0  0  0  0  0  0  0  0
   -1.6050   18.4440   -5.4640 C   0  0  0  0  0  0  0  0  0  0  0  0
   -0.6200   16.2820   -5.0800 O   0  0  0  0  0  0  0  0  0  0  0  0
    0.5170   15.4490   -4.8170 C   0  0  0  0  0  0  0  0  0  0  0  0
    0.1510   14.2410   -3.9260 C   0  0  0  0  0  0  0  0  0  0  0  0
   -0.0990   14.5630   -2.5080 N   0  0  0  0  0  0  0  0  0  0  0  0
   -1.3630   14.0090   -1.9480 C   0  0  1  0  0  0  0  0  0  0  0  0
    1.0700   14.4820   -1.6360 C   0  0  2  0  0  0  0  0  0  0  0  0
    2.6180   13.7780   -2.2550 S   0  0  0  0  0  0  0  0  0  0  0  0
   -1.6950   14.3200   -0.4640 C   0  0  1  0  0  0  0  0  0  0  0  0
    0.7010   13.9650   -0.3650 N   0  0  0  0  0  0  0  0  0  0  0  0
   -2.6320   14.4650   -2.6660 C   0  0  0  0  0  0  0  0  0  0  0  0
   -0.3750   14.6960    0.2240 C   0  0  2  0  0  0  0  0  0  0  0  0
   -2.7120   15.3780   -0.4970 N   0  0  0  0  0  0  0  0  0  0  0  0
   -3.0560   15.6860   -1.8770 C   0  0  0  0  0  0  0  0  0  0  0  0
   -0.3190   14.4240    1.6200 O   0  0  0  0  0  0  0  0  0  0  0  0
   -3.7690   15.3710    0.4770 C   0  0  2  0  0  0  0  0  0  0  0  0
   -3.1760   14.8450    1.6690 O   0  0  0  0  0  0  0  0  0  0  0  0
   -5.1350   14.6870    0.2030 C   0  0  2  0  0  0  0  0  0  0  0  0
   -5.9600   15.2390   -0.9740 C   0  0  0  0  0  0  0  0  0  0  0  0
   -5.9380   14.4280    1.4870 C   0  0  0  0  0  0  0  0  0  0  0  0
   -7.2280   14.5540   -1.1090 N   0  0  0  0  0  0  0  0  0  0  0  0
   -7.4670   14.4680    1.3990 C   0  0  0  0  0  0  0  0  0  0  0  0
   -8.0910   14.7750    0.0330 C   0  0  0  0  0  0  0  0  0  0  0  0
  1  2  1  0
  2  3  1  0
  2  4  1  0
  4  5  1  0
  5  6  1  0
  6  7  1  0
  7  8  1  0
  7  9  1  0
  9 10  1  6
  8 11  1  0
  9 12  1  0
  8 13  1  6
 11 14  1  0
 12 14  1  0
 11 15  1  6
 13 16  1  0
 15 16  1  0
 14 17  1  1
 15 18  1  0
 18 19  1  1
 18 20  1  0
 20 21  1  6
 20 22  1  0
 21 23  1  0
 22 24  1  0
 23 25  1  0
 24 25  1  0
M  END
