ucsf380-ucsf385
     RDKit          3D

 24 26  0  0  0  0  0  0  0  0999 V2000
   -1.5750   14.8450   -5.0070 O   0  0  0  0  0  0  0  0  0  0  0  0
   -0.9130   15.0780   -3.8180 C   0  0  2  0  0  0  0  0  0  0  0  0
    0.4640   14.9040   -4.0290 O   0  0  0  0  0  0  0  0  0  0  0  0
   -1.6120   14.0120   -2.4710 S   0  0  0  0  0  0  0  0  0  0  0  0
   -3.3280   12.9040   -3.7600 O   0  0  0  0  0  0  0  0  0  0  0  0
   -2.8460   15.1150   -1.7170 C   0  0  0  0  0  0  0  0  0  0  0  0
   -0.3440   12.7020   -2.8190 C   0  0  0  0  0  0  0  0  0  0  0  0
   -1.9730   13.4230   -0.8420 C   0  0  2  0  0  0  0  0  0  0  0  0
   -2.9710   15.1610   -0.2540 C   0  0  0  0  0  0  0  0  0  0  0  0
   -3.9130   15.4440   -2.6260 C   0  0  0  0  0  0  0  0  0  0  0  0
   -0.5630   11.2900   -2.4430 C   0  0  0  0  0  0  0  0  0  0  0  0
   -0.0130   12.4380   -4.2130 C   0  0  0  0  0  0  0  0  0  0  0  0
   -3.3800   13.0180   -0.4370 C   0  0  2  0  0  0  0  0  0  0  0  0
   -0.9280   13.6590    0.1490 C   0  0  0  0  0  0  0  0  0  0  0  0
   -4.4610   13.6340   -1.2320 N   0  0  0  0  0  0  0  0  0  0  0  0
   -4.2050   15.8340    0.2820 C   0  0  0  0  0  0  0  0  0  0  0  0
   -5.2420   15.4110   -2.0050 C   0  0  0  0  0  0  0  0  0  0  0  0
   -1.9690   10.9400   -2.9390 C   0  0  0  0  0  0  0  0  0  0  0  0
   -0.5100   11.2050   -4.8990 C   0  0  0  0  0  0  0  0  0  0  0  0
   -1.3540   14.2680    1.5160 C   0  0  0  0  0  0  0  0  0  0  0  0
   -3.7030   13.4270    1.0000 C   0  0  0  0  0  0  0  0  0  0  0  0
   -5.3860   15.9110   -0.6300 C   0  0  0  0  0  0  0  0  0  0  0  0
   -1.8990   10.8020   -4.4490 C   0  0  0  0  0  0  0  0  0  0  0  0
   -2.7820   14.2280    1.7260 N   0  0  0  0  0  0  0  0  0  0  0  0
  2  1  1  6
  2  3  1  0
  2  4  1  0
  4  5  1  0
  4  6  1  0
  4  7  1  0
  8  4  1  1
  6  9  1  0
  6 10  1  0
  7 11  1  0
  7 12  1  0
  8 13  1  0
  8 14  1  0
 13 15  1  6
  9 16  1  0
 10 17  1  0
 11 18  1  0
 12 19  1  0
 14 20  1  0
 13 21  1  0
 16 22  1  0
 17 22  1  0
 18 23  1  0
 19 23  1  0
 20 24  1  0
 21 24  1  0
M  CHG  2   1  -1   5  -1
M  END
