ucsf241-ucsf392
     RDKit          3D

 11 12  0  0  0  0  0  0  0  0999 V2000
   -5.4880   15.8040   -0.6300 C   0  0  0  0  0  0  0  0  0  0  0  0
   -4.2240   15.1010   -0.2140 C   0  0  1  0  0  0  0  0  0  0  0  0
   -3.3380   14.8930   -1.4180 C   0  0  0  0  0  0  0  0  0  0  0  0
   -3.3270   15.7980    0.7560 N   0  0  0  0  0  0  0  0  0  0  0  0
   -2.1990   14.2800   -0.6750 C   0  0  2  0  0  0  0  0  0  0  0  0
   -2.0120   15.1670    0.5180 C   0  0  1  0  0  0  0  0  0  0  0  0
   -0.8020   16.0910    0.2900 C   0  0  0  0  0  0  0  0  0  0  0  0
   -0.8490   14.1460   -1.3090 C   0  0  0  0  0  0  0  0  0  0  0  0
   -1.5700   14.3730    1.5820 N   0  0  0  0  0  0  0  0  0  0  0  0
    0.2410   14.0110   -0.2140 C   0  0  0  0  0  0  0  0  0  0  0  0
   -0.1840   14.0450    1.3000 C   0  0  0  0  0  0  0  0  0  0  0  0
  2  1  1  6
  2  3  1  0
  2  4  1  0
  5  3  1  6
  6  4  1  0
  5  6  1  0
  6  7  1  6
  5  8  1  0
  6  9  1  0
  8 10  1  0
  9 11  1  0
 10 11  1  0
M  END
