ucsf357-ucsf365
     RDKit          3D

 22 23  0  0  0  0  0  0  0  0999 V2000
   -5.8400   15.5030   -2.1750 O   0  0  0  0  0  0  0  0  0  0  0  0
   -5.4960   14.6770   -1.2200 C   0  0  2  0  0  0  0  0  0  0  0  0
   -6.1110   15.2430   -0.0870 O   0  0  0  0  0  0  0  0  0  0  0  0
   -3.9460   14.6140   -1.0730 C   0  0  1  0  0  0  0  0  0  0  0  0
   -3.1970   15.0980   -2.3380 C   0  0  0  0  0  0  0  0  0  0  0  0
   -3.3120   15.2920    0.1450 C   0  0  0  0  0  0  0  0  0  0  0  0
   -1.7550   14.5540   -2.4310 C   0  0  1  0  0  0  0  0  0  0  0  0
   -1.8070   15.4770   -0.0110 C   0  0  0  0  0  0  0  0  0  0  0  0
   -1.0230   15.3470   -3.3870 O   0  0  0  0  0  0  0  0  0  0  0  0
   -1.1210   14.5490   -1.0260 C   0  0  2  0  0  0  0  0  0  0  0  0
    0.2430   15.0020   -1.0680 O   0  0  0  0  0  0  0  0  0  0  0  0
   -0.9080   14.8260   -4.6950 C   0  0  1  0  0  0  0  0  0  0  0  0
   -0.5780   13.2840   -4.7810 C   0  0  1  0  0  0  0  0  0  0  0  0
   -2.2830   15.2750   -5.2870 C   0  0  0  0  0  0  0  0  0  0  0  0
    0.4790   12.6640   -3.7920 C   0  0  0  0  0  0  0  0  0  0  0  0
   -1.7870   12.3870   -5.0150 C   0  0  2  0  0  0  0  0  0  0  0  0
   -3.1870   14.2480   -5.9760 C   0  0  0  0  0  0  0  0  0  0  0  0
    0.0840   11.8740   -2.4950 C   0  0  1  0  0  0  0  0  0  0  0  0
   -1.4550   11.0280   -5.2430 O   0  0  0  0  0  0  0  0  0  0  0  0
   -2.5630   12.8870   -6.2170 C   0  0  0  0  0  0  0  0  0  0  0  0
    0.4840   10.6120   -2.4730 O   0  0  0  0  0  0  0  0  0  0  0  0
    0.6940   12.4550   -1.3790 O   0  0  0  0  0  0  0  0  0  0  0  0
  2  1  1  6
  2  3  1  0
  2  4  1  0
  4  5  1  6
  4  6  1  0
  5  7  1  0
  6  8  1  0
  7  9  1  6
  7 10  1  0
  8 10  1  0
 10 11  1  6
 12  9  1  1
 12 13  1  0
 12 14  1  0
 13 15  1  1
 13 16  1  0
 14 17  1  0
 15 18  1  0
 16 19  1  6
 16 20  1  0
 17 20  1  0
 18 21  1  6
 18 22  1  0
M  CHG  2   1  -1  21  -1
M  END
