ucsf404-ucsf340
     RDKit          3D

 28 31  0  0  0  0  0  0  0  0999 V2000
   -6.0640   14.7980   -2.8500 Cl  0  0  0  0  0  0  0  0  0  0  0  0
   -4.7070   14.6340   -1.6770 C   0  0  2  0  0  0  0  0  0  0  0  0
   -5.0360   15.5090   -0.4650 C   0  0  1  0  0  0  0  0  0  0  0  0
   -3.3320   14.9190   -2.3110 C   0  0  0  0  0  0  0  0  0  0  0  0
   -6.1690   14.9320    0.3110 N   0  0  0  0  0  0  0  0  0  0  0  0
   -3.8170   15.7490    0.4310 C   0  0  1  0  0  0  0  0  0  0  0  0
   -2.1830   15.1010   -1.2790 C   0  0  1  0  0  0  0  0  0  0  0  0
   -5.6780   14.5500    1.5850 C   0  0  1  0  0  0  0  0  0  0  0  0
   -4.3960   15.6770    2.0900 S   0  0  0  0  0  0  0  0  0  0  0  0
   -2.6740   14.8480    0.1310 C   0  0  0  0  0  0  0  0  0  0  0  0
   -0.8980   14.2680   -1.4370 C   0  0  0  0  0  0  0  0  0  0  0  0
   -6.7740   14.6550    2.4940 N   0  0  0  0  0  0  0  0  0  0  0  0
    0.3760   15.0310   -1.6880 C   0  0  0  0  0  0  0  0  0  0  0  0
    0.8500   14.9140   -3.1410 C   0  0  1  0  0  0  0  0  0  0  0  0
    0.6260   13.4440   -3.6650 C   0  0  0  0  0  0  0  0  0  0  0  0
    0.2580   16.1310   -3.8760 C   0  0  1  0  0  0  0  0  0  0  0  0
    1.0740   12.2930   -2.7020 C   0  0  1  0  0  0  0  0  0  0  0  0
    0.7230   16.5010   -5.2550 C   0  0  0  0  0  0  0  0  0  0  0  0
   -1.2540   16.2360   -4.1130 C   0  0  1  0  0  0  0  0  0  0  0  0
    0.7280   12.6300   -1.3740 O   0  0  0  0  0  0  0  0  0  0  0  0
    0.3370   11.2130   -2.8620 O   0  0  0  0  0  0  0  0  0  0  0  0
    0.0780   17.8160   -5.3600 N   0  0  0  0  0  0  0  0  0  0  0  0
   -1.3290   17.5330   -4.9650 C   0  0  1  0  0  0  0  0  0  0  0  0
   -1.9210   15.0180   -4.7370 C   0  0  0  0  0  0  0  0  0  0  0  0
    0.2750   18.5320   -6.6180 C   0  0  0  0  0  0  0  0  0  0  0  0
   -3.3090   15.4080   -5.1650 C   0  0  0  0  0  0  0  0  0  0  0  0
   -2.2460   17.5500   -6.2020 C   0  0  0  0  0  0  0  0  0  0  0  0
   -3.2820   16.4060   -6.2890 C   0  0  0  0  0  0  0  0  0  0  0  0
  2  1  1  6
  2  3  1  0
  2  4  1  0
  3  5  1  1
  3  6  1  0
  4  7  1  0
  5  8  1  0
  6  9  1  0
  8  9  1  0
  6 10  1  1
  7 10  1  0
  7 11  1  6
  8 12  1  1
 11 13  1  0
 14 13  1  1
 14 15  1  0
 14 16  1  0
 15 17  1  0
 16 18  1  6
 16 19  1  0
 17 20  1  1
 17 21  1  0
 18 22  1  0
 19 23  1  0
 22 23  1  0
 19 24  1  6
 22 25  1  0
 24 26  1  0
 23 27  1  6
 26 28  1  0
 27 28  1  0
M  CHG  1  21  -1
M  END
