ucsf147-ucsf424
     RDKit          3D

 26 30  0  0  0  0  0  0  0  0999 V2000
    0.6190   12.5720   -4.8350 C   0  0  2  0  0  0  0  0  0  0  0  0
    0.4810   12.0580   -3.3780 C   0  0  1  0  0  0  0  0  0  0  0  0
    0.5550   10.6670   -3.1630 O   0  0  0  0  0  0  0  0  0  0  0  0
   -0.6120   13.3720   -4.6480 C   0  0  2  0  0  0  0  0  0  0  0  0
    0.5630   11.5570   -5.9980 C   0  0  2  0  0  0  0  0  0  0  0  0
    1.1970   12.7740   -2.4030 O   0  0  0  0  0  0  0  0  0  0  0  0
   -0.8350   14.5210   -5.4450 O   0  0  0  0  0  0  0  0  0  0  0  0
   -0.7220   13.8520   -3.2070 C   0  0  1  0  0  0  0  0  0  0  0  0
    0.0840   12.0230   -7.2950 N   0  0  0  0  0  0  0  0  0  0  0  0
   -0.3540   10.3250   -5.8970 C   0  0  2  0  0  0  0  0  0  0  0  0
    0.5610   14.0410   -2.3160 C   0  0  2  0  0  0  0  0  0  0  0  0
   -2.0500   15.0310   -4.7910 N   0  0  0  0  0  0  0  0  0  0  0  0
   -1.6310   15.0330   -3.3580 C   0  0  1  0  0  0  0  0  0  0  0  0
    0.2900   10.8150   -8.0990 O   0  0  0  0  0  0  0  0  0  0  0  0
   -0.1030    9.7170   -7.2670 C   0  0  2  0  0  0  0  0  0  0  0  0
   -1.8490   10.6160   -5.7480 C   0  0  0  0  0  0  0  0  0  0  0  0
    1.3280   15.0360   -2.6990 O   0  0  0  0  0  0  0  0  0  0  0  0
   -2.7820   14.8510   -2.3510 C   0  0  0  0  0  0  0  0  0  0  0  0
   -1.3100    9.0190   -7.8690 C   0  0  0  0  0  0  0  0  0  0  0  0
   -2.6720    9.3360   -5.7450 C   0  0  0  0  0  0  0  0  0  0  0  0
   -2.4180   15.3470   -0.9420 C   0  0  0  0  0  0  0  0  0  0  0  0
   -4.1460   15.2920   -2.8410 C   0  0  0  0  0  0  0  0  0  0  0  0
   -2.2180    8.3650   -6.8300 C   0  0  0  0  0  0  0  0  0  0  0  0
   -3.4160   14.8910    0.1060 C   0  0  0  0  0  0  0  0  0  0  0  0
   -5.1170   15.5270   -1.6910 C   0  0  0  0  0  0  0  0  0  0  0  0
   -4.8010   14.6550   -0.4870 C   0  0  0  0  0  0  0  0  0  0  0  0
  1  2  1  1
  2  3  1  6
  1  4  1  0
  1  5  1  0
  2  6  1  0
  4  7  1  6
  4  8  1  0
  5  9  1  6
  5 10  1  0
  6 11  1  0
  8 11  1  6
  7 12  1  0
  8 13  1  0
 12 13  1  0
  9 14  1  0
 10 15  1  0
 14 15  1  0
 10 16  1  6
 11 17  1  6
 13 18  1  1
 15 19  1  6
 16 20  1  0
 18 21  1  0
 18 22  1  0
 19 23  1  0
 20 23  1  0
 21 24  1  0
 22 25  1  0
 24 26  1  0
 25 26  1  0
M  CHG  1  17  -1
M  END
