ucsf339-ucsf151
     RDKit          3D

 22 24  0  0  0  0  0  0  0  0999 V2000
    0.8360   15.3050   -2.6240 O   0  0  0  0  0  0  0  0  0  0  0  0
    0.1860   14.2120   -2.9460 C   0  0  1  0  0  0  0  0  0  0  0  0
    1.1180   13.1490   -3.0570 O   0  0  0  0  0  0  0  0  0  0  0  0
   -0.9470   13.7990   -1.9800 C   0  0  1  0  0  0  0  0  0  0  0  0
   -0.6950   14.3800   -4.2320 C   0  0  1  0  0  0  0  0  0  0  0  0
   -1.6320   14.8610   -1.0850 C   0  0  0  0  0  0  0  0  0  0  0  0
   -2.0830   13.2310   -2.9050 C   0  0  0  0  0  0  0  0  0  0  0  0
   -0.9220   15.7500   -4.8730 C   0  0  0  0  0  0  0  0  0  0  0  0
   -0.7900   13.2510   -5.2530 C   0  0  0  0  0  0  0  0  0  0  0  0
   -3.1040   14.5310   -1.3040 C   0  0  2  0  0  0  0  0  0  0  0  0
   -2.8950   14.2520   -3.6200 N   0  0  0  0  0  0  0  0  0  0  0  0
   -2.3650   15.7760   -5.4120 C   0  0  1  0  0  0  0  0  0  0  0  0
   -2.2060   13.0960   -5.6530 N   0  0  0  0  0  0  0  0  0  0  0  0
   -2.5710   16.8410   -6.3660 O   0  0  0  0  0  0  0  0  0  0  0  0
   -3.5260   15.1030   -2.6430 C   0  0  0  0  0  0  0  0  0  0  0  0
   -4.1100   14.6290   -0.1770 C   0  0  0  0  0  0  0  0  0  0  0  0
   -2.8880   14.3970   -5.9730 C   0  0  0  0  0  0  0  0  0  0  0  0
   -3.8860   15.7550    0.7870 C   0  0  0  0  0  0  0  0  0  0  0  0
   -5.5730   14.6060   -0.5890 C   0  0  0  0  0  0  0  0  0  0  0  0
   -4.4810   15.2880    2.0880 C   0  0  0  0  0  0  0  0  0  0  0  0
   -6.4800   14.3620    0.6120 C   0  0  0  0  0  0  0  0  0  0  0  0
   -5.7570   14.4190    1.9660 C   0  0  0  0  0  0  0  0  0  0  0  0
  2  1  1  1
  2  3  1  0
  2  4  1  0
  2  5  1  0
  4  6  1  6
  4  7  1  0
  5  8  1  6
  5  9  1  0
  6 10  1  0
  7 11  1  0
  8 12  1  0
  9 13  1  0
 12 14  1  6
 10 15  1  0
 11 15  1  0
 10 16  1  1
 12 17  1  0
 13 17  1  0
 16 18  1  0
 16 19  1  0
 18 20  1  0
 19 21  1  0
 20 22  1  0
 21 22  1  0
M  CHG  1   1  -1
M  END
