ucsf392-ucsf039
     RDKit          3D

 20 22  0  0  0  0  0  0  0  0999 V2000
   -4.9850   15.5770   -1.8020 C   0  0  0  0  0  0  0  0  0  0  0  0
   -3.6990   14.9490   -1.2730 C   0  0  1  0  0  0  0  0  0  0  0  0
   -2.3240   15.2180   -2.0320 C   0  0  2  0  0  0  0  0  0  0  0  0
   -3.5020   15.4350    0.1700 C   0  0  1  0  0  0  0  0  0  0  0  0
   -4.5910   15.0580    1.1030 N   0  0  0  0  0  0  0  0  0  0  0  0
   -2.1660   15.0880   -3.5700 C   0  0  0  0  0  0  0  0  0  0  0  0
   -2.1270   14.9170    0.5200 C   0  0  2  0  0  0  0  0  0  0  0  0
   -1.3880   14.1720   -1.6290 N   0  0  0  0  0  0  0  0  0  0  0  0
   -0.9550   15.9190    0.4100 C   0  0  0  0  0  0  0  0  0  0  0  0
   -0.9710   15.7690   -4.3120 C   0  0  2  0  0  0  0  0  0  0  0  0
   -1.7530   13.7310   -0.3370 C   0  0  1  0  0  0  0  0  0  0  0  0
   -2.1340   14.2200    1.7900 C   0  0  0  0  0  0  0  0  0  0  0  0
    0.4230   15.3060    0.4320 C   0  0  0  0  0  0  0  0  0  0  0  0
    0.2000   16.3590   -3.4890 C   0  0  0  0  0  0  0  0  0  0  0  0
   -1.5180   16.8290   -5.1630 N   0  0  0  0  0  0  0  0  0  0  0  0
   -0.5690   13.2650    0.3310 N   0  0  0  0  0  0  0  0  0  0  0  0
   -0.6630   13.8070    1.7090 C   0  0  0  0  0  0  0  0  0  0  0  0
   -0.4490   17.6700   -5.6580 C   0  0  2  0  0  0  0  0  0  0  0  0
    0.7010   17.9030   -4.2980 S   0  0  0  0  0  0  0  0  0  0  0  0
   -0.9690   18.9690   -6.2510 C   0  0  0  0  0  0  0  0  0  0  0  0
  2  1  1  6
  2  3  1  0
  2  4  1  0
  4  5  1  1
  3  6  1  6
  4  7  1  0
  3  8  1  0
  7  9  1  1
 10  6  1  1
  7 11  1  0
 11  8  1  6
  7 12  1  0
  9 13  1  0
 10 14  1  0
 10 15  1  0
 11 16  1  0
 12 17  1  0
 16 17  1  0
 15 18  1  0
 14 19  1  0
 18 19  1  0
 18 20  1  1
M  END
