ucsf333-ucsf387
     RDKit          3D

 23 25  0  0  0  0  0  0  0  0999 V2000
   -6.5400   15.0770   -1.6600 Cl  0  0  0  0  0  0  0  0  0  0  0  0
   -4.8720   15.4900   -1.1700 C   0  0  2  0  0  0  0  0  0  0  0  0
   -3.8190   15.1100   -2.2250 C   0  0  0  0  0  0  0  0  0  0  0  0
   -4.5800   14.9890    0.2530 C   0  0  0  0  0  0  0  0  0  0  0  0
   -2.4330   15.4880   -1.7280 C   0  0  2  0  0  0  0  0  0  0  0  0
   -3.1420   15.2690    0.6830 C   0  0  0  0  0  0  0  0  0  0  0  0
   -1.3250   15.1290   -2.5810 N   0  0  0  0  0  0  0  0  0  0  0  0
   -2.1490   14.8420   -0.3870 C   0  0  2  0  0  0  0  0  0  0  0  0
   -0.0780   15.4530   -1.8430 C   0  0  1  0  0  0  0  0  0  0  0  0
   -0.4680   15.4160   -0.0580 S   0  0  0  0  0  0  0  0  0  0  0  0
    1.0170   14.4500   -2.1250 C   0  0  0  0  0  0  0  0  0  0  0  0
    0.4380   13.4430   -3.0950 C   0  0  2  0  0  0  0  0  0  0  0  0
    1.1320   12.0630   -3.1480 C   0  0  2  0  0  0  0  0  0  0  0  0
    0.0310   14.3430   -4.3210 C   0  0  2  0  0  0  0  0  0  0  0  0
    2.4140   12.1820   -3.3250 O   0  0  0  0  0  0  0  0  0  0  0  0
    0.6410   11.2980   -4.2150 O   0  0  0  0  0  0  0  0  0  0  0  0
   -1.1450   14.0710   -5.2130 C   0  0  0  0  0  0  0  0  0  0  0  0
    0.9600   15.4330   -4.8830 C   0  0  0  0  0  0  0  0  0  0  0  0
   -2.0020   15.3500   -5.0620 C   0  0  2  0  0  0  0  0  0  0  0  0
    0.2160   16.7820   -4.7540 C   0  0  1  0  0  0  0  0  0  0  0  0
    0.9990   18.1530   -5.5950 Cl  0  0  0  0  0  0  0  0  0  0  0  0
   -3.4730   15.2970   -6.0880 Cl  0  0  0  0  0  0  0  0  0  0  0  0
   -1.2630   16.7130   -5.1850 C   0  0  0  0  0  0  0  0  0  0  0  0
  2  1  1  6
  2  3  1  0
  2  4  1  0
  5  3  1  6
  4  6  1  0
  5  7  1  0
  5  8  1  0
  8  6  1  1
  7  9  1  0
  8 10  1  0
  9 10  1  0
  9 11  1  1
 12 11  1  1
 12 13  1  0
 12 14  1  0
 13 15  1  6
 13 16  1  0
 14 17  1  6
 14 18  1  0
 17 19  1  0
 18 20  1  0
 20 21  1  6
 19 22  1  6
 19 23  1  0
 20 23  1  0
M  CHG  1  15  -1
M  END
