ucsf339-ucsf138
     RDKit          3D

 28 30  0  0  0  0  0  0  0  0999 V2000
    1.4060   14.6040   -3.4840 O   0  0  0  0  0  0  0  0  0  0  0  0
    0.6660   14.3530   -2.4260 C   0  0  2  0  0  0  0  0  0  0  0  0
    0.7430   12.9610   -2.0740 O   0  0  0  0  0  0  0  0  0  0  0  0
   -0.8560   14.5580   -2.7020 C   0  0  1  0  0  0  0  0  0  0  0  0
    1.0910   12.0510   -3.1270 C   0  0  1  0  0  0  0  0  0  0  0  0
   -1.6500   15.0210   -1.4710 C   0  0  0  0  0  0  0  0  0  0  0  0
   -1.2150   15.3840   -3.9480 C   0  0  0  0  0  0  0  0  0  0  0  0
    0.4560   10.8060   -2.8500 O   0  0  0  0  0  0  0  0  0  0  0  0
    0.6780   12.4880   -4.5680 C   0  0  0  0  0  0  0  0  0  0  0  0
   -3.0530   15.4900   -1.8450 C   0  0  1  0  0  0  0  0  0  0  0  0
   -2.6310   15.1770   -4.3410 N   0  0  0  0  0  0  0  0  0  0  0  0
    0.3550   11.3510   -5.5020 N   0  0  0  0  0  0  0  0  0  0  0  0
   -3.5060   14.9140   -3.1930 C   0  0  0  0  0  0  0  0  0  0  0  0
   -4.0690   15.2740   -0.7000 C   0  0  0  0  0  0  0  0  0  0  0  0
    1.0510   11.2930   -6.7690 C   0  0  2  0  0  0  0  0  0  0  0  0
   -3.3910   15.0310    0.6420 C   0  0  0  0  0  0  0  0  0  0  0  0
   -5.1580   14.2200   -0.9540 C   0  0  0  0  0  0  0  0  0  0  0  0
    1.5860   12.5390   -7.0010 O   0  0  0  0  0  0  0  0  0  0  0  0
    0.2240   10.7380   -7.7990 N   0  0  0  0  0  0  0  0  0  0  0  0
   -4.4220   15.2530    1.7120 C   0  0  0  0  0  0  0  0  0  0  0  0
   -6.2520   14.3260    0.0960 C   0  0  0  0  0  0  0  0  0  0  0  0
   -5.6750   14.3790    1.5070 C   0  0  0  0  0  0  0  0  0  0  0  0
    0.9690   10.2240   -8.9560 C   0  0  0  0  0  0  0  0  0  0  0  0
    0.1150   10.3440  -10.2350 C   0  0  0  0  0  0  0  0  0  0  0  0
    1.4320    8.7710   -8.6970 C   0  0  0  0  0  0  0  0  0  0  0  0
    0.7170    9.6330  -11.4450 C   0  0  0  0  0  0  0  0  0  0  0  0
    2.0700    8.1190   -9.9210 C   0  0  0  0  0  0  0  0  0  0  0  0
    1.1400    8.1970  -11.1220 C   0  0  0  0  0  0  0  0  0  0  0  0
  2  1  1  6
  2  3  1  0
  2  4  1  0
  3  5  1  0
  4  6  1  1
  4  7  1  0
  5  8  1  1
  5  9  1  0
  6 10  1  0
  7 11  1  0
  9 12  1  0
 10 13  1  0
 11 13  1  0
 10 14  1  1
 12 15  1  0
 14 16  1  0
 14 17  1  0
 15 18  1  6
 15 19  1  0
 16 20  1  0
 17 21  1  0
 20 22  1  0
 21 22  1  0
 19 23  1  0
 23 24  1  0
 23 25  1  0
 24 26  1  0
 25 27  1  0
 26 28  1  0
 27 28  1  0
M  CHG  1   1  -1
M  END
