ucsf493-ucsf170
     RDKit          3D

 25 27  0  0  0  0  0  0  0  0999 V2000
   -4.1240   15.3730   -5.8580 C   0  0  0  0  0  0  0  0  0  0  0  0
   -3.4150   16.3340   -5.0770 O   0  0  0  0  0  0  0  0  0  0  0  0
   -2.0180   16.3640   -5.3510 C   0  0  2  0  0  0  0  0  0  0  0  0
   -1.4220   14.9660   -5.1090 C   0  0  0  0  0  0  0  0  0  0  0  0
   -1.3190   17.4010   -4.4960 C   0  0  0  0  0  0  0  0  0  0  0  0
    0.0820   14.8800   -5.3640 C   0  0  1  0  0  0  0  0  0  0  0  0
    0.1740   17.5060   -4.8230 C   0  0  0  0  0  0  0  0  0  0  0  0
    0.8910   16.1550   -5.0770 C   0  0  1  0  0  0  0  0  0  0  0  0
    0.9210   13.7050   -4.8310 C   0  0  2  0  0  0  0  0  0  0  0  0
    0.2060   12.4080   -4.3680 C   0  0  0  0  0  0  0  0  0  0  0  0
    1.7920   15.8070   -3.9850 N   0  0  0  0  0  0  0  0  0  0  0  0
    2.0170   14.3380   -3.9950 C   0  0  0  0  0  0  0  0  0  0  0  0
    0.0410   12.0360   -2.8700 C   0  0  1  0  0  0  0  0  0  0  0  0
    0.5790   10.7370   -2.6060 O   0  0  0  0  0  0  0  0  0  0  0  0
    0.6470   12.9980   -2.0180 O   0  0  0  0  0  0  0  0  0  0  0  0
    0.3120   14.3420   -2.3810 C   0  0  0  0  0  0  0  0  0  0  0  0
   -1.0980   14.7990   -1.9880 C   0  0  2  0  0  0  0  0  0  0  0  0
   -1.5930   14.1450   -0.6940 C   0  0  0  0  0  0  0  0  0  0  0  0
   -2.1270   14.7270   -3.1380 C   0  0  1  0  0  0  0  0  0  0  0  0
   -2.0090   13.5040   -3.8590 O   0  0  0  0  0  0  0  0  0  0  0  0
   -3.0430   14.4800   -0.3540 C   0  0  1  0  0  0  0  0  0  0  0  0
   -3.5720   14.9520   -2.7390 C   0  0  0  0  0  0  0  0  0  0  0  0
   -3.1590   15.1830    1.3230 S   0  0  0  0  0  0  0  0  0  0  0  0
   -3.6380   15.4860   -1.3280 C   0  0  0  0  0  0  0  0  0  0  0  0
   -4.9590   15.1290    1.4270 C   0  0  0  0  0  0  0  0  0  0  0  0
  1  2  1  0
  3  2  1  1
  3  4  1  0
  3  5  1  0
  6  4  1  1
  5  7  1  0
  6  8  1  0
  8  7  1  1
  6  9  1  0
  9 10  1  1
  8 11  1  0
  9 12  1  0
 11 12  1  0
 10 13  1  0
 13 14  1  6
 13 15  1  0
 15 16  1  0
 17 16  1  6
 17 18  1  0
 17 19  1  0
 19 20  1  1
 18 21  1  0
 19 22  1  0
 21 23  1  1
 21 24  1  0
 22 24  1  0
 23 25  1  0
M  END
