ucsf523-ucsf135
     RDKit          3D

 27 30  0  0  0  0  0  0  0  0999 V2000
    0.3210   15.0690    0.9410 N   0  0  0  0  0  0  0  0  0  0  0  0
   -0.6350   14.0350    0.9510 C   0  0  1  0  0  0  0  0  0  0  0  0
   -1.8220   14.7000    1.4050 N   0  0  0  0  0  0  0  0  0  0  0  0
   -0.7340   13.6440   -0.4230 N   0  0  0  0  0  0  0  0  0  0  0  0
   -1.5680   14.6150   -1.0620 C   0  0  1  0  0  0  0  0  0  0  0  0
   -3.0360   14.1670    0.8240 C   0  0  2  0  0  0  0  0  0  0  0  0
   -1.3780   14.7910   -2.4640 O   0  0  0  0  0  0  0  0  0  0  0  0
   -3.0510   14.3540   -0.7220 C   0  0  1  0  0  0  0  0  0  0  0  0
   -4.0630   14.8950    1.5340 N   0  0  0  0  0  0  0  0  0  0  0  0
   -1.0010   13.6010   -3.1420 C   0  0  0  0  0  0  0  0  0  0  0  0
   -5.2900   14.5610    0.8720 C   0  0  1  0  0  0  0  0  0  0  0  0
   -4.0000   15.4250   -1.1740 N   0  0  0  0  0  0  0  0  0  0  0  0
   -6.3370   14.9190    1.7450 O   0  0  0  0  0  0  0  0  0  0  0  0
   -2.1650   12.6190   -3.0920 C   0  0  0  0  0  0  0  0  0  0  0  0
   -5.3320   15.2400   -0.5380 C   0  0  0  0  0  0  0  0  0  0  0  0
   -2.0070   11.6390   -4.1030 O   0  0  0  0  0  0  0  0  0  0  0  0
   -0.5410   11.0870   -4.4150 S   0  0  2  0  0  0  0  0  0  0  0  0
    0.2220   10.5320   -3.1300 O   0  0  0  0  0  0  0  0  0  0  0  0
    0.3880   12.0350   -5.4140 N   0  0  0  0  0  0  0  0  0  0  0  0
   -0.8060    9.6850   -5.4600 C   0  0  2  0  0  0  0  0  0  0  0  0
    1.1070   11.1380   -6.3050 C   0  0  1  0  0  0  0  0  0  0  0  0
    0.1330    9.9740   -6.6600 C   0  0  2  0  0  0  0  0  0  0  0  0
   -2.2350    9.3830   -5.8760 C   0  0  0  0  0  0  0  0  0  0  0  0
    1.4620   11.8250   -7.4660 O   0  0  0  0  0  0  0  0  0  0  0  0
   -2.2900    8.3710   -7.0300 C   0  0  0  0  0  0  0  0  0  0  0  0
   -0.6610   10.0980   -7.9600 C   0  0  0  0  0  0  0  0  0  0  0  0
   -1.4890    8.8300   -8.2440 C   0  0  0  0  0  0  0  0  0  0  0  0
  2  1  1  6
  2  3  1  0
  2  4  1  0
  4  5  1  0
  6  3  1  1
  5  7  1  6
  5  8  1  0
  6  8  1  0
  6  9  1  0
  7 10  1  0
  9 11  1  0
  8 12  1  1
 11 13  1  1
 10 14  1  0
 11 15  1  0
 12 15  1  0
 14 16  1  0
 17 16  1  0
 17 18  1  1
 17 19  1  0
 17 20  1  0
 19 21  1  0
 20 22  1  0
 21 22  1  0
 20 23  1  6
 21 24  1  6
 23 25  1  0
 22 26  1  6
 25 27  1  0
 26 27  1  0
M  END
