ucsf124-ucsf411
     RDKit          3D

 26 29  0  0  0  0  0  0  0  0999 V2000
    0.5850   10.8910   -2.1040 O   0  0  0  0  0  0  0  0  0  0  0  0
    1.1430   11.9490   -2.7230 C   0  0  2  0  0  0  0  0  0  0  0  0
    1.0070   12.9790   -1.7510 O   0  0  0  0  0  0  0  0  0  0  0  0
    0.4170   12.4440   -4.0640 C   0  0  1  0  0  0  0  0  0  0  0  0
    0.8710   13.7050   -4.5710 O   0  0  0  0  0  0  0  0  0  0  0  0
    0.2870   11.3950   -5.1100 N   0  0  0  0  0  0  0  0  0  0  0  0
   -0.9210   10.5950   -4.9530 C   0  0  1  0  0  0  0  0  0  0  0  0
    0.4730   11.6640   -6.5190 C   0  0  1  0  0  0  0  0  0  0  0  0
   -0.1660   14.4020   -5.2250 C   0  0  2  0  0  0  0  0  0  0  0  0
   -1.8580   11.2480   -4.1230 O   0  0  0  0  0  0  0  0  0  0  0  0
    1.7980   11.6750   -6.9780 O   0  0  0  0  0  0  0  0  0  0  0  0
   -1.5270   10.3320   -6.3370 C   0  0  1  0  0  0  0  0  0  0  0  0
   -0.4120   10.6950   -7.3190 C   0  0  2  0  0  0  0  0  0  0  0  0
   -0.3260   15.8390   -4.6970 C   0  0  2  0  0  0  0  0  0  0  0  0
   -1.4750   13.6440   -5.0190 C   0  0  0  0  0  0  0  0  0  0  0  0
   -2.0480    8.9100   -6.5520 C   0  0  0  0  0  0  0  0  0  0  0  0
    0.2950    9.4710   -7.9260 C   0  0  0  0  0  0  0  0  0  0  0  0
   -1.6960   16.5440   -5.0230 C   0  0  2  0  0  0  0  0  0  0  0  0
   -2.6430   14.2020   -5.7950 C   0  0  0  0  0  0  0  0  0  0  0  0
    0.9640   16.6410   -4.9700 C   0  0  0  0  0  0  0  0  0  0  0  0
   -2.0510    8.5020   -8.0290 C   0  0  0  0  0  0  0  0  0  0  0  0
   -0.6890    8.6170   -8.7220 C   0  0  0  0  0  0  0  0  0  0  0  0
   -2.8150   15.7070   -5.6710 C   0  0  0  0  0  0  0  0  0  0  0  0
   -1.6460   17.9340   -5.6820 C   0  0  0  0  0  0  0  0  0  0  0  0
    0.7780   18.1380   -5.0220 C   0  0  0  0  0  0  0  0  0  0  0  0
   -0.2730   18.4590   -6.0540 C   0  0  0  0  0  0  0  0  0  0  0  0
  2  1  1  1
  2  3  1  0
  2  4  1  0
  4  5  1  6
  4  6  1  0
  6  7  1  0
  6  8  1  0
  9  5  1  1
  7 10  1  1
  8 11  1  6
  7 12  1  0
  8 13  1  0
 12 13  1  0
  9 14  1  0
  9 15  1  0
 12 16  1  1
 13 17  1  1
 14 18  1  0
 15 19  1  0
 14 20  1  6
 16 21  1  0
 17 22  1  0
 21 22  1  0
 18 23  1  6
 19 23  1  0
 18 24  1  0
 20 25  1  0
 24 26  1  0
 25 26  1  0
M  CHG  1   1  -1
M  END
