ucsf345-ucsf110
     RDKit          3D

 18 20  0  0  0  0  0  0  0  0999 V2000
   -6.5940   14.1440    1.6470 N   0  0  0  0  0  0  0  0  0  0  0  0
   -6.2380   14.7430    0.3810 C   0  0  2  0  0  0  0  0  0  0  0  0
   -7.4970   15.0950   -0.1660 O   0  0  0  0  0  0  0  0  0  0  0  0
   -5.4850   13.8840   -0.6870 C   0  0  1  0  0  0  0  0  0  0  0  0
   -5.5890   14.5520   -1.9910 N   0  0  0  0  0  0  0  0  0  0  0  0
   -4.0340   13.3980   -0.3900 C   0  0  0  0  0  0  0  0  0  0  0  0
   -4.3180   14.9560   -2.5410 C   0  0  0  0  0  0  0  0  0  0  0  0
   -2.9110   14.4770   -0.4610 C   0  0  2  0  0  0  0  0  0  0  0  0
   -3.3500   15.5280   -1.5080 C   0  0  1  0  0  0  0  0  0  0  0  0
   -1.4990   14.0220   -1.0500 C   0  0  1  0  0  0  0  0  0  0  0  0
   -2.7380   14.8870    1.0310 C   0  0  2  0  0  0  0  0  0  0  0  0
   -3.7540   15.6700    1.7020 N   0  0  0  0  0  0  0  0  0  0  0  0
   -1.4860   14.5510   -2.4050 N   0  0  0  0  0  0  0  0  0  0  0  0
   -2.0550   15.8520   -2.2370 C   0  0  0  0  0  0  0  0  0  0  0  0
   -1.4940   15.5170    1.3110 N   0  0  0  0  0  0  0  0  0  0  0  0
   -0.2680   14.4940   -0.3930 N   0  0  0  0  0  0  0  0  0  0  0  0
   -0.2120   14.5990   -3.0950 C   0  0  0  0  0  0  0  0  0  0  0  0
   -0.3830   14.6590    1.0370 C   0  0  0  0  0  0  0  0  0  0  0  0
  2  1  1  1
  2  3  1  0
  2  4  1  0
  4  5  1  0
  4  6  1  1
  5  7  1  0
  8  6  1  1
  9  7  1  6
  8  9  1  0
  8 10  1  0
  8 11  1  0
 11 12  1  6
 10 13  1  0
  9 14  1  0
 13 14  1  0
 11 15  1  0
 10 16  1  1
 13 17  1  0
 15 18  1  0
 16 18  1  0
M  END
