ucsf123-ucsf017
     RDKit          3D

 27 30  0  0  0  0  0  0  0  0999 V2000
   -1.9040   18.7760   -4.9150 N   0  0  0  0  0  0  0  0  0  0  0  0
   -1.6650   17.3910   -5.7110 S   0  0  0  0  0  0  0  0  0  0  0  0
   -0.3100   17.5470   -6.5290 O   0  0  0  0  0  0  0  0  0  0  0  0
   -2.7940   17.1840   -6.8030 O   0  0  0  0  0  0  0  0  0  0  0  0
   -1.5630   15.7930   -4.9280 C   0  0  2  0  0  0  0  0  0  0  0  0
   -2.1480   15.6450   -3.5450 C   0  0  0  0  0  0  0  0  0  0  0  0
   -0.1580   15.3770   -4.7740 C   0  0  0  0  0  0  0  0  0  0  0  0
   -2.2970   14.1510   -3.1160 C   0  0  0  0  0  0  0  0  0  0  0  0
   -0.0040   14.1710   -3.7940 C   0  0  2  0  0  0  0  0  0  0  0  0
   -1.1710   13.2120   -3.6000 C   0  0  1  0  0  0  0  0  0  0  0  0
    0.4700   14.5130   -2.4270 N   0  0  0  0  0  0  0  0  0  0  0  0
    1.0010   13.3250   -4.6380 C   0  0  0  0  0  0  0  0  0  0  0  0
   -0.7740   12.0090   -2.6190 C   0  0  1  0  0  0  0  0  0  0  0  0
    1.3060   12.0140   -4.0040 C   0  0  0  0  0  0  0  0  0  0  0  0
    1.6940   13.7620   -2.1350 C   0  0  0  0  0  0  0  0  0  0  0  0
   -0.3080   14.8160   -1.1350 C   0  0  2  0  0  0  0  0  0  0  0  0
   -0.1290   12.4470   -1.4300 O   0  0  0  0  0  0  0  0  0  0  0  0
   -1.7330   11.2880   -2.1570 O   0  0  0  0  0  0  0  0  0  0  0  0
    1.7600   12.2860   -2.5900 C   0  0  0  0  0  0  0  0  0  0  0  0
    0.0110   13.8930   -0.0600 N   0  0  0  0  0  0  0  0  0  0  0  0
   -1.8320   15.2360   -0.8740 C   0  0  2  0  0  0  0  0  0  0  0  0
   -0.0300   14.5540    1.2250 C   0  0  0  0  0  0  0  0  0  0  0  0
   -2.2500   14.7680    0.5160 C   0  0  1  0  0  0  0  0  0  0  0  0
   -3.1570   14.7920   -1.5040 C   0  0  0  0  0  0  0  0  0  0  0  0
   -1.3240   15.1330    1.5120 N   0  0  0  0  0  0  0  0  0  0  0  0
   -3.4980   15.4630    0.7880 N   0  0  0  0  0  0  0  0  0  0  0  0
   -4.2060   15.2780   -0.4820 C   0  0  0  0  0  0  0  0  0  0  0  0
  1  2  1  0
  2  3  1  0
  2  4  1  0
  5  2  1  1
  5  6  1  0
  5  7  1  0
  6  8  1  0
  9  7  1  6
 10  8  1  1
  9 10  1  0
  9 11  1  0
  9 12  1  0
 10 13  1  0
 12 14  1  0
 11 15  1  0
 16 11  1  6
 13 17  1  1
 13 18  1  0
 14 19  1  0
 15 19  1  0
 16 20  1  0
 16 21  1  0
 20 22  1  0
 21 23  1  0
 21 24  1  6
 22 25  1  0
 23 25  1  1
 23 26  1  0
 24 27  1  0
 26 27  1  0
M  CHG  1  18  -1
M  END
