ucsf005-ucsf224
     RDKit          3D

 25 27  0  0  0  0  0  0  0  0999 V2000
   -1.0600   15.9940   -2.4370 C   0  0  0  0  0  0  0  0  0  0  0  0
   -2.0120   14.9180   -2.3500 N   0  0  0  0  0  0  0  0  0  0  0  0
   -3.4230   15.2760   -2.6600 C   0  0  1  0  0  0  0  0  0  0  0  0
   -2.0950   14.3980   -1.0060 C   0  0  2  0  0  0  0  0  0  0  0  0
   -3.9170   14.8750   -4.0450 C   0  0  0  0  0  0  0  0  0  0  0  0
   -4.2700   14.8940   -1.5080 N   0  0  0  0  0  0  0  0  0  0  0  0
   -3.2630   15.1610   -0.4530 C   0  0  1  0  0  0  0  0  0  0  0  0
   -0.8870   14.6570   -0.3000 N   0  0  0  0  0  0  0  0  0  0  0  0
   -2.9810   15.4470   -5.1490 C   0  0  0  0  0  0  0  0  0  0  0  0
   -3.4250   14.6570    0.9840 C   0  0  2  0  0  0  0  0  0  0  0  0
   -1.0330   14.2210    1.0220 C   0  0  1  0  0  0  0  0  0  0  0  0
   -4.4410   15.4150    1.6940 N   0  0  0  0  0  0  0  0  0  0  0  0
    0.1420   14.6600    1.6530 N   0  0  0  0  0  0  0  0  0  0  0  0
   -2.1520   14.8780    1.6400 N   0  0  0  0  0  0  0  0  0  0  0  0
   -1.4550   15.5180   -4.8590 C   0  0  1  0  0  0  0  0  0  0  0  0
   -0.5430   14.3410   -5.2360 C   0  0  0  0  0  0  0  0  0  0  0  0
   -0.6690   16.8650   -4.8100 C   0  0  2  0  0  0  0  0  0  0  0  0
   -1.2680   18.1950   -5.8430 Cl  0  0  0  0  0  0  0  0  0  0  0  0
    0.5540   14.2420   -4.1830 C   0  0  1  0  0  0  0  0  0  0  0  0
    0.8550   16.6910   -5.0080 C   0  0  0  0  0  0  0  0  0  0  0  0
    1.3430   12.9110   -4.2610 C   0  0  0  0  0  0  0  0  0  0  0  0
    1.4610   15.4960   -4.2360 C   0  0  0  0  0  0  0  0  0  0  0  0
    1.4850   12.1900   -2.9020 C   0  0  2  0  0  0  0  0  0  0  0  0
    0.6090   11.2200   -2.7000 O   0  0  0  0  0  0  0  0  0  0  0  0
    1.1040   13.0780   -1.8730 O   0  0  0  0  0  0  0  0  0  0  0  0
  1  2  1  0
  2  3  1  0
  2  4  1  0
  3  5  1  6
  3  6  1  0
  4  7  1  0
  7  6  1  6
  4  8  1  1
  5  9  1  0
  7 10  1  0
  8 11  1  0
 10 12  1  1
 11 13  1  1
 10 14  1  0
 11 14  1  0
 15  9  1  6
 15 16  1  0
 15 17  1  0
 17 18  1  6
 16 19  1  0
 17 20  1  0
 19 21  1  6
 19 22  1  0
 20 22  1  0
 21 23  1  0
 23 24  1  6
 23 25  1  0
M  CHG  1  24  -1
M  END
