ucsf348-ucsf110
     RDKit          3D

 18 20  0  0  0  0  0  0  0  0999 V2000
   -6.9140   13.7010    2.1120 N   0  0  0  0  0  0  0  0  0  0  0  0
   -6.1940   14.5340    1.2180 C   0  0  1  0  0  0  0  0  0  0  0  0
   -4.9490   13.9080    1.0220 N   0  0  0  0  0  0  0  0  0  0  0  0
   -6.9030   14.5440   -0.0110 N   0  0  0  0  0  0  0  0  0  0  0  0
   -6.2270   15.2900   -1.0720 C   0  0  2  0  0  0  0  0  0  0  0  0
   -4.1170   14.9210    0.3480 C   0  0  2  0  0  0  0  0  0  0  0  0
   -6.5550   14.6230   -2.2630 O   0  0  0  0  0  0  0  0  0  0  0  0
   -4.6870   15.3820   -0.9860 C   0  0  1  0  0  0  0  0  0  0  0  0
   -2.5440   14.8860    0.4140 C   0  0  2  0  0  0  0  0  0  0  0  0
   -2.2840   16.1220    0.9870 N   0  0  0  0  0  0  0  0  0  0  0  0
   -1.6950   14.8280   -0.8610 C   0  0  1  0  0  0  0  0  0  0  0  0
   -3.9390   14.8820   -2.2430 C   0  0  0  0  0  0  0  0  0  0  0  0
   -1.8320   14.1960    1.4400 N   0  0  0  0  0  0  0  0  0  0  0  0
   -2.3920   14.8480   -2.2330 C   0  0  1  0  0  0  0  0  0  0  0  0
   -0.3810   14.2740    1.3260 C   0  0  0  0  0  0  0  0  0  0  0  0
   -0.4790   15.7000   -0.6670 C   0  0  0  0  0  0  0  0  0  0  0  0
   -1.7180   15.8300   -3.2040 C   0  0  0  0  0  0  0  0  0  0  0  0
    0.1420   15.4230    0.6080 N   0  0  0  0  0  0  0  0  0  0  0  0
  2  1  1  1
  2  3  1  0
  2  4  1  0
  4  5  1  0
  6  3  1  6
  5  7  1  6
  5  8  1  0
  6  8  1  0
  6  9  1  0
  9 10  1  1
  9 11  1  0
  8 12  1  6
  9 13  1  0
 11 14  1  0
 12 14  1  0
 13 15  1  0
 11 16  1  6
 14 17  1  1
 15 18  1  0
 16 18  1  0
M  END
