ucsf173-ucsf109
     RDKit          3D

 26 30  0  0  0  0  0  0  0  0999 V2000
    0.2960   12.9760   -1.4390 O   0  0  0  0  0  0  0  0  0  0  0  0
    0.6100   12.7880   -2.7150 C   0  0  1  0  0  0  0  0  0  0  0  0
    0.0020   11.5290   -2.9420 O   0  0  0  0  0  0  0  0  0  0  0  0
    0.0450   13.8250   -3.7770 C   0  0  1  0  0  0  0  0  0  0  0  0
   -1.3550   14.5230   -3.6290 C   0  0  1  0  0  0  0  0  0  0  0  0
    1.0180   14.9120   -4.3010 C   0  0  0  0  0  0  0  0  0  0  0  0
   -1.9090   14.6590   -2.2300 C   0  0  0  0  0  0  0  0  0  0  0  0
   -1.2100   15.9930   -4.0610 C   0  0  1  0  0  0  0  0  0  0  0  0
    0.2940   16.2690   -4.1710 C   0  0  2  0  0  0  0  0  0  0  0  0
   -2.1460   16.3580   -5.2200 C   0  0  0  0  0  0  0  0  0  0  0  0
    0.6410   17.3170   -5.2250 C   0  0  0  0  0  0  0  0  0  0  0  0
   -3.2300   13.9630   -2.0280 C   0  0  1  0  0  0  0  0  0  0  0  0
   -1.7860   17.6840   -5.8890 C   0  0  0  0  0  0  0  0  0  0  0  0
   -0.4980   18.3040   -5.3850 C   0  0  0  0  0  0  0  0  0  0  0  0
   -3.3340   13.6750   -0.5330 C   0  0  0  0  0  0  0  0  0  0  0  0
   -4.5220   14.7650   -2.3930 C   0  0  0  0  0  0  0  0  0  0  0  0
   -5.4060   14.2900   -1.2470 C   0  0  1  0  0  0  0  0  0  0  0  0
   -4.4210   14.6230   -0.1400 C   0  0  1  0  0  0  0  0  0  0  0  0
   -4.9110   14.5560    1.2790 C   0  0  1  0  0  0  0  0  0  0  0  0
   -6.7200   14.8600   -1.0090 N   0  0  0  0  0  0  0  0  0  0  0  0
   -4.2530   15.5810    2.0820 N   0  0  0  0  0  0  0  0  0  0  0  0
   -6.3300   14.7970    1.3540 N   0  0  0  0  0  0  0  0  0  0  0  0
   -7.0940   14.3030    0.2610 C   0  0  1  0  0  0  0  0  0  0  0  0
   -8.4270   14.7180    0.6300 N   0  0  0  0  0  0  0  0  0  0  0  0
   -7.0410   14.2960    2.5010 N   0  0  0  0  0  0  0  0  0  0  0  0
   -8.4170   14.5850    2.1010 C   0  0  0  0  0  0  0  0  0  0  0  0
  2  1  1  1
  2  3  1  0
  2  4  1  0
  4  5  1  0
  4  6  1  1
  5  7  1  1
  5  8  1  0
  9  6  1  6
  8  9  1  0
  8 10  1  6
  9 11  1  0
 12  7  1  1
 10 13  1  0
 11 14  1  0
 13 14  1  0
 12 15  1  0
 12 16  1  0
 17 16  1  6
 18 15  1  1
 17 18  1  0
 18 19  1  0
 17 20  1  0
 19 21  1  1
 19 22  1  0
 23 20  1  6
 22 23  1  0
 23 24  1  0
 22 25  1  0
 24 26  1  0
 25 26  1  0
M  CHG  1   1  -1
M  END
