ucsf385-ucsf345
     RDKit          3D

 19 20  0  0  0  0  0  0  0  0999 V2000
   -3.3670   13.3590   -1.1040 N   0  0  0  0  0  0  0  0  0  0  0  0
   -2.5490   14.4790   -0.5630 C   0  0  1  0  0  0  0  0  0  0  0  0
   -2.7430   14.3050    0.9890 C   0  0  0  0  0  0  0  0  0  0  0  0
   -1.0530   14.1900   -1.0580 C   0  0  1  0  0  0  0  0  0  0  0  0
   -3.4180   15.4800   -1.1270 N   0  0  0  0  0  0  0  0  0  0  0  0
   -0.4650   14.7820   -2.3880 C   0  0  1  0  0  0  0  0  0  0  0  0
    0.0360   14.5320    0.0030 C   0  0  0  0  0  0  0  0  0  0  0  0
   -1.6150   14.7420    1.8080 N   0  0  0  0  0  0  0  0  0  0  0  0
   -3.6080   15.2990   -2.5620 C   0  0  0  0  0  0  0  0  0  0  0  0
   -4.6770   15.6390   -0.3700 C   0  0  0  0  0  0  0  0  0  0  0  0
    0.6240   14.0280   -2.8520 O   0  0  0  0  0  0  0  0  0  0  0  0
   -1.2790   14.7600   -3.4130 O   0  0  0  0  0  0  0  0  0  0  0  0
   -0.3360   14.1940    1.4140 C   0  0  0  0  0  0  0  0  0  0  0  0
   -5.8060   14.6600   -0.7220 C   0  0  1  0  0  0  0  0  0  0  0  0
   -4.9080   14.5790   -2.9750 C   0  0  0  0  0  0  0  0  0  0  0  0
   -7.0990   14.7630    0.1430 C   0  0  2  0  0  0  0  0  0  0  0  0
   -6.1250   14.8010   -2.1730 N   0  0  0  0  0  0  0  0  0  0  0  0
   -6.8820   14.7020    1.5770 N   0  0  0  0  0  0  0  0  0  0  0  0
   -7.9510   13.6890   -0.2030 O   0  0  0  0  0  0  0  0  0  0  0  0
  2  1  1  6
  2  3  1  0
  2  4  1  0
  2  5  1  0
  4  6  1  0
  4  7  1  1
  3  8  1  0
  5  9  1  0
  5 10  1  0
  6 11  1  6
  6 12  1  0
  7 13  1  0
  8 13  1  0
 14 10  1  1
  9 15  1  0
 14 16  1  0
 14 17  1  0
 15 17  1  0
 16 18  1  1
 16 19  1  0
M  CHG  1  12  -1
M  END
