ucsf260-ucsf243
     RDKit          3D

 26 28  0  0  0  0  0  0  0  0999 V2000
    0.8690   11.2840   -3.2430 O   0  0  0  0  0  0  0  0  0  0  0  0
    1.7770   12.2430   -3.1670 C   0  0  2  0  0  0  0  0  0  0  0  0
    1.6100   12.8310   -1.8670 O   0  0  0  0  0  0  0  0  0  0  0  0
    1.5900   13.2510   -4.3410 C   0  0  0  0  0  0  0  0  0  0  0  0
    0.5010   12.9860   -5.4180 C   0  0  0  0  0  0  0  0  0  0  0  0
    1.8020   14.2290   -1.7290 C   0  0  0  0  0  0  0  0  0  0  0  0
    0.5010   14.7300   -1.4250 O   0  0  0  0  0  0  0  0  0  0  0  0
   -0.1680   11.6660   -5.4570 N   0  0  0  0  0  0  0  0  0  0  0  0
   -0.3360   14.2860   -2.4660 C   0  0  2  0  0  0  0  0  0  0  0  0
   -1.4620   11.6930   -4.7970 C   0  0  0  0  0  0  0  0  0  0  0  0
   -0.5310   11.2980   -6.8330 C   0  0  2  0  0  0  0  0  0  0  0  0
   -0.3300   15.2560   -3.4850 O   0  0  0  0  0  0  0  0  0  0  0  0
   -2.0870   10.4320   -5.2220 N   0  0  0  0  0  0  0  0  0  0  0  0
   -1.6160   10.2270   -6.6060 C   0  0  2  0  0  0  0  0  0  0  0  0
    0.7150   10.9190   -7.6710 C   0  0  0  0  0  0  0  0  0  0  0  0
   -1.7750   13.9900   -2.0010 C   0  0  1  0  0  0  0  0  0  0  0  0
   -1.1730    8.7970   -6.8460 C   0  0  0  0  0  0  0  0  0  0  0  0
    0.8300    9.4920   -8.2210 C   0  0  0  0  0  0  0  0  0  0  0  0
   -2.1070   14.4920   -0.5780 C   0  0  0  0  0  0  0  0  0  0  0  0
   -2.7360   14.3640   -3.1640 C   0  0  2  0  0  0  0  0  0  0  0  0
   -2.1770   15.4130   -3.9550 O   0  0  0  0  0  0  0  0  0  0  0  0
   -0.4330    8.6500   -8.1600 C   0  0  0  0  0  0  0  0  0  0  0  0
   -3.6010   14.8280   -0.3520 C   0  0  1  0  0  0  0  0  0  0  0  0
   -4.1720   14.7350   -2.7940 C   0  0  0  0  0  0  0  0  0  0  0  0
   -3.8020   15.5950    0.9630 C   0  0  0  0  0  0  0  0  0  0  0  0
   -4.2340   15.5530   -1.5290 C   0  0  0  0  0  0  0  0  0  0  0  0
  2  1  1  6
  2  3  1  0
  2  4  1  0
  4  5  1  0
  3  6  1  0
  6  7  1  0
  5  8  1  0
  7  9  1  0
  8 10  1  0
  8 11  1  0
  9 12  1  6
 10 13  1  0
 11 14  1  0
 13 14  1  0
 11 15  1  1
  9 16  1  0
 14 17  1  1
 15 18  1  0
 16 19  1  1
 16 20  1  0
 20 21  1  1
 17 22  1  0
 18 22  1  0
 19 23  1  0
 20 24  1  0
 23 25  1  1
 23 26  1  0
 24 26  1  0
M  CHG  1   1  -1
M  END
