ucsf320-ucsf109
     RDKit          3D

 18 20  0  0  0  0  0  0  0  0999 V2000
   -1.1540   14.4270   -1.8440 O   0  0  0  0  0  0  0  0  0  0  0  0
   -1.8460   15.1800   -2.6670 C   0  0  1  0  0  0  0  0  0  0  0  0
   -1.8570   14.3860   -3.8340 O   0  0  0  0  0  0  0  0  0  0  0  0
   -3.2960   15.3660   -2.1440 C   0  0  2  0  0  0  0  0  0  0  0  0
   -3.4380   14.9300   -0.6930 C   0  0  0  0  0  0  0  0  0  0  0  0
   -4.3800   14.6740   -2.9860 C   0  0  0  0  0  0  0  0  0  0  0  0
   -4.7960   15.3710   -0.1350 C   0  0  1  0  0  0  0  0  0  0  0  0
   -5.7900   14.9700   -2.4680 C   0  0  0  0  0  0  0  0  0  0  0  0
   -6.0110   14.8850   -0.9590 C   0  0  2  0  0  0  0  0  0  0  0  0
   -4.8970   14.9610    1.3350 C   0  0  2  0  0  0  0  0  0  0  0  0
   -7.1330   15.7380   -0.7110 O   0  0  0  0  0  0  0  0  0  0  0  0
   -3.6850   14.2790    1.7540 N   0  0  0  0  0  0  0  0  0  0  0  0
   -6.0200   14.1150    1.7440 N   0  0  0  0  0  0  0  0  0  0  0  0
   -6.5230   13.6130   -0.5940 N   0  0  0  0  0  0  0  0  0  0  0  0
   -6.9270   13.5410    0.7620 C   0  0  2  0  0  0  0  0  0  0  0  0
   -6.8330   14.7790    2.7720 N   0  0  0  0  0  0  0  0  0  0  0  0
   -8.1440   14.3150    0.9350 N   0  0  0  0  0  0  0  0  0  0  0  0
   -8.1930   14.4400    2.3850 C   0  0  0  0  0  0  0  0  0  0  0  0
  2  1  1  1
  2  3  1  0
  2  4  1  0
  4  5  1  1
  4  6  1  0
  7  5  1  6
  6  8  1  0
  7  9  1  0
  8  9  1  0
  7 10  1  0
  9 11  1  6
 10 12  1  6
 10 13  1  0
  9 14  1  0
 13 15  1  0
 15 14  1  6
 13 16  1  0
 15 17  1  0
 16 18  1  0
 17 18  1  0
M  CHG  1   1  -1
M  END
