ucsf016-ucsf493
     RDKit          3D

 31 36  0  0  0  0  0  0  0  0999 V2000
   -3.8270   15.9670   -5.9110 C   0  0  0  0  0  0  0  0  0  0  0  0
   -3.0520   16.9580   -5.2970 O   0  0  0  0  0  0  0  0  0  0  0  0
   -1.7360   16.9250   -5.7030 C   0  0  2  0  0  0  0  0  0  0  0  0
   -1.1970   15.7170   -5.3130 C   0  0  0  0  0  0  0  0  0  0  0  0
   -1.0040   18.1600   -5.1700 C   0  0  0  0  0  0  0  0  0  0  0  0
    0.1150   15.2240   -5.4460 C   0  0  2  0  0  0  0  0  0  0  0  0
    0.5340   17.8230   -5.3350 C   0  0  0  0  0  0  0  0  0  0  0  0
    0.2410   13.8430   -4.1350 S   0  0  0  0  0  0  0  0  0  0  0  0
    0.9390   16.3530   -5.1500 C   0  0  1  0  0  0  0  0  0  0  0  0
    1.0400   12.0610   -3.9700 C   0  0  0  0  0  0  0  0  0  0  0  0
   -1.4620   13.4670   -3.9030 C   0  0  0  0  0  0  0  0  0  0  0  0
   -0.4090   14.5460   -2.6210 C   0  0  0  0  0  0  0  0  0  0  0  0
    1.6900   16.1130   -4.0760 N   0  0  0  0  0  0  0  0  0  0  0  0
    1.7690   14.6770   -4.2110 C   0  0  0  0  0  0  0  0  0  0  0  0
    0.4840   11.5260   -2.7910 C   0  0  1  0  0  0  0  0  0  0  0  0
   -2.6210   13.9910   -4.2870 C   0  0  0  0  0  0  0  0  0  0  0  0
   -1.5710   15.1760   -2.4570 N   0  0  0  0  0  0  0  0  0  0  0  0
    0.5900   10.1230   -2.6830 O   0  0  0  0  0  0  0  0  0  0  0  0
    0.7210   12.0600   -1.5400 O   0  0  0  0  0  0  0  0  0  0  0  0
   -3.7350   13.1660   -4.7460 C   0  0  0  0  0  0  0  0  0  0  0  0
   -3.2450   14.2130   -5.6230 C   0  0  0  0  0  0  0  0  0  0  0  0
   -2.9190   15.0280   -3.1330 C   0  0  0  0  0  0  0  0  0  0  0  0
   -1.8240   14.7330   -1.1230 C   0  0  1  0  0  0  0  0  0  0  0  0
   -0.6060   14.7580   -0.3810 N   0  0  0  0  0  0  0  0  0  0  0  0
   -3.0400   15.2370   -0.4950 C   0  0  2  0  0  0  0  0  0  0  0  0
   -0.6300   14.5360    0.9620 C   0  0  0  0  0  0  0  0  0  0  0  0
   -2.8550   15.4790    0.9780 C   0  0  2  0  0  0  0  0  0  0  0  0
   -4.0900   14.2080   -0.4720 C   0  0  0  0  0  0  0  0  0  0  0  0
   -1.8660   14.6900    1.6090 N   0  0  0  0  0  0  0  0  0  0  0  0
   -4.2000   15.3770    1.5380 N   0  0  0  0  0  0  0  0  0  0  0  0
   -5.0420   14.9510    0.4310 C   0  0  0  0  0  0  0  0  0  0  0  0
  1  2  1  0
  3  2  1  1
  3  4  1  0
  3  5  1  0
  6  4  1  1
  5  7  1  0
  6  8  1  0
  6  9  1  0
  9  7  1  1
  8 10  1  0
  8 11  1  0
  8 12  1  0
  9 13  1  0
  8 14  1  0
 13 14  1  0
 10 15  1  0
 16 11  1  0
 12 17  1  0
 15 18  1  1
 15 19  1  0
 16 20  1  0
 16 21  1  0
 20 21  1  0
 16 22  1  0
 17 22  1  0
 23 17  1  6
 23 24  1  0
 23 25  1  0
 24 26  1  0
 25 27  1  0
 25 28  1  1
 26 29  1  0
 27 29  1  1
 27 30  1  0
 28 31  1  0
 30 31  1  0
M  CHG  1  19  -1
M  END
