ucsf392-ucsf387
     RDKit          3D

 23 24  0  0  0  0  0  0  0  0999 V2000
   -5.2940   15.6650   -0.7940 C   0  0  0  0  0  0  0  0  0  0  0  0
   -4.0280   14.8600   -0.5360 C   0  0  1  0  0  0  0  0  0  0  0  0
   -2.8250   15.4540   -1.2470 C   0  0  0  0  0  0  0  0  0  0  0  0
   -3.6190   14.7810    0.9300 C   0  0  2  0  0  0  0  0  0  0  0  0
   -4.4410   15.5810    1.8050 N   0  0  0  0  0  0  0  0  0  0  0  0
   -2.2900   15.2630    1.1780 N   0  0  0  0  0  0  0  0  0  0  0  0
   -1.6290   14.6610   -1.0060 N   0  0  0  0  0  0  0  0  0  0  0  0
   -1.3000   14.5280    0.4040 C   0  0  1  0  0  0  0  0  0  0  0  0
    0.0380   15.2080    0.5920 C   0  0  0  0  0  0  0  0  0  0  0  0
    0.9080   15.0320   -0.6580 C   0  0  0  0  0  0  0  0  0  0  0  0
    1.0060   13.6170   -1.1480 C   0  0  0  0  0  0  0  0  0  0  0  0
    0.3870   13.4020   -2.3880 O   0  0  0  0  0  0  0  0  0  0  0  0
    1.0710   12.3620   -3.0820 C   0  0  1  0  0  0  0  0  0  0  0  0
    0.3190   11.2740   -3.0420 O   0  0  0  0  0  0  0  0  0  0  0  0
    1.2420   12.8680   -4.5460 C   0  0  0  0  0  0  0  0  0  0  0  0
    0.5110   14.1620   -5.0160 C   0  0  0  0  0  0  0  0  0  0  0  0
   -1.0210   14.1020   -4.9710 C   0  0  0  0  0  0  0  0  0  0  0  0
    1.0180   15.4460   -4.3270 C   0  0  0  0  0  0  0  0  0  0  0  0
   -1.7320   15.4420   -4.7030 C   0  0  2  0  0  0  0  0  0  0  0  0
    0.4880   16.6890   -5.0390 C   0  0  2  0  0  0  0  0  0  0  0  0
    0.9780   18.1610   -4.1940 Cl  0  0  0  0  0  0  0  0  0  0  0  0
   -3.3410   15.3820   -5.5140 Cl  0  0  0  0  0  0  0  0  0  0  0  0
   -1.0280   16.7370   -5.1490 C   0  0  0  0  0  0  0  0  0  0  0  0
  2  1  1  1
  2  3  1  0
  2  4  1  0
  4  5  1  1
  4  6  1  0
  3  7  1  0
  6  8  1  0
  7  8  1  0
  8  9  1  6
  9 10  1  0
 10 11  1  0
 11 12  1  0
 12 13  1  0
 13 14  1  6
 13 15  1  0
 15 16  1  0
 16 17  1  0
 16 18  1  0
 17 19  1  0
 18 20  1  0
 20 21  1  1
 19 22  1  6
 19 23  1  0
 20 23  1  0
M  CHG  1  14  -1
M  END
