ucsf365-ucsf278
     RDKit          3D

 22 24  0  0  0  0  0  0  0  0999 V2000
    0.1930   10.2770   -1.9780 O   0  0  0  0  0  0  0  0  0  0  0  0
   -0.9860   10.8450   -2.1460 C   0  0  1  0  0  0  0  0  0  0  0  0
   -0.7820   11.9930   -1.3500 O   0  0  0  0  0  0  0  0  0  0  0  0
   -1.2400   11.2520   -3.6180 C   0  0  0  0  0  0  0  0  0  0  0  0
   -2.5670   12.0630   -3.9650 C   0  0  2  0  0  0  0  0  0  0  0  0
   -2.8400   11.8900   -5.5020 C   0  0  2  0  0  0  0  0  0  0  0  0
   -2.5780   13.5580   -3.5260 C   0  0  0  0  0  0  0  0  0  0  0  0
   -1.5550   11.8710   -6.2280 N   0  0  0  0  0  0  0  0  0  0  0  0
   -3.7280   13.0080   -6.1520 C   0  0  0  0  0  0  0  0  0  0  0  0
   -2.3970   14.5740   -4.6600 C   0  0  0  0  0  0  0  0  0  0  0  0
   -1.1630   10.4560   -6.2210 O   0  0  0  0  0  0  0  0  0  0  0  0
   -3.4630   14.4530   -5.7360 C   0  0  0  0  0  0  0  0  0  0  0  0
   -0.6110   12.5270   -5.3550 C   0  0  1  0  0  0  0  0  0  0  0  0
   -0.8270   12.4190   -3.8430 C   0  0  0  0  0  0  0  0  0  0  0  0
    0.7980   12.2220   -5.5380 N   0  0  0  0  0  0  0  0  0  0  0  0
    0.2380   13.3730   -3.4480 C   0  0  2  0  0  0  0  0  0  0  0  0
    1.3640   12.8790   -4.3380 C   0  0  2  0  0  0  0  0  0  0  0  0
    0.7400   13.4840   -2.0090 C   0  0  2  0  0  0  0  0  0  0  0  0
    2.1270   14.1160   -4.5940 C   0  0  0  0  0  0  0  0  0  0  0  0
   -0.4960   14.2890   -0.9610 Cl  0  0  0  0  0  0  0  0  0  0  0  0
    1.9990   14.3420   -2.0690 C   0  0  0  0  0  0  0  0  0  0  0  0
    1.9890   15.0750   -3.4120 C   0  0  0  0  0  0  0  0  0  0  0  0
  2  1  1  6
  2  3  1  0
  2  4  1  0
  5  4  1  6
  5  6  1  0
  5  7  1  0
  6  8  1  6
  6  9  1  0
  7 10  1  0
  8 11  1  0
  9 12  1  0
 10 12  1  0
 13  8  1  6
 13 14  1  0
 13 15  1  0
 16 14  1  1
 15 17  1  0
 16 17  1  0
 16 18  1  0
 17 19  1  6
 18 20  1  1
 18 21  1  0
 19 22  1  0
 21 22  1  0
M  CHG  1   1  -1
M  END
