ucsf248-ucsf260
     RDKit          3D

 30 33  0  0  0  0  0  0  0  0999 V2000
   -8.8860   12.9910    2.9260 N   0  0  0  0  0  0  0  0  0  0  0  0
   -8.4490   14.3590    2.1170 S   0  0  0  0  0  0  0  0  0  0  0  0
   -8.1090   15.5200    3.1650 O   0  0  0  0  0  0  0  0  0  0  0  0
   -9.6430   14.8740    1.1850 O   0  0  0  0  0  0  0  0  0  0  0  0
   -6.9950   14.2650    1.0440 C   0  0  2  0  0  0  0  0  0  0  0  0
   -5.8030   14.8890    1.6110 N   0  0  0  0  0  0  0  0  0  0  0  0
   -7.1260   14.8710   -0.2990 N   0  0  0  0  0  0  0  0  0  0  0  0
   -4.9750   14.6130    0.4680 C   0  0  1  0  0  0  0  0  0  0  0  0
   -5.7490   15.3010   -0.6280 C   0  0  1  0  0  0  0  0  0  0  0  0
   -3.5470   15.0720    0.5070 C   0  0  0  0  0  0  0  0  0  0  0  0
   -5.2200   14.9110   -2.0010 C   0  0  0  0  0  0  0  0  0  0  0  0
   -2.9360   14.5320   -0.8020 C   0  0  1  0  0  0  0  0  0  0  0  0
   -3.6870   15.1110   -2.0470 C   0  0  0  0  0  0  0  0  0  0  0  0
   -1.4020   14.7540   -0.8190 C   0  0  0  0  0  0  0  0  0  0  0  0
   -0.5110   13.5180   -0.7260 C   0  0  0  0  0  0  0  0  0  0  0  0
    0.8280   13.8350   -1.3910 C   0  0  0  0  0  0  0  0  0  0  0  0
    1.3730   12.6130   -1.8680 O   0  0  0  0  0  0  0  0  0  0  0  0
    0.5420   11.9490   -2.8220 C   0  0  2  0  0  0  0  0  0  0  0  0
    0.6590   10.6280   -2.6210 O   0  0  0  0  0  0  0  0  0  0  0  0
    1.1360   12.3900   -4.2140 C   0  0  0  0  0  0  0  0  0  0  0  0
    0.1330   13.1580   -5.0910 C   0  0  0  0  0  0  0  0  0  0  0  0
   -0.8110   12.3010   -5.8470 N   0  0  0  0  0  0  0  0  0  0  0  0
   -1.9420   11.9200   -5.0040 C   0  0  0  0  0  0  0  0  0  0  0  0
   -0.2810   11.0050   -6.2900 C   0  0  1  0  0  0  0  0  0  0  0  0
   -2.4080   10.5990   -5.4600 N   0  0  0  0  0  0  0  0  0  0  0  0
   -1.5750   10.3070   -6.6330 C   0  0  2  0  0  0  0  0  0  0  0  0
    0.6180   11.0660   -7.5150 C   0  0  0  0  0  0  0  0  0  0  0  0
   -1.4040    8.8170   -6.9000 C   0  0  0  0  0  0  0  0  0  0  0  0
    0.5170    9.7790   -8.3520 C   0  0  0  0  0  0  0  0  0  0  0  0
   -0.1060    8.5530   -7.6620 C   0  0  0  0  0  0  0  0  0  0  0  0
  1  2  1  0
  2  3  1  0
  2  4  1  0
  5  2  1  1
  5  6  1  0
  5  7  1  0
  6  8  1  0
  7  9  1  0
  8  9  1  0
  8 10  1  1
  9 11  1  6
 10 12  1  0
 11 13  1  0
 12 13  1  0
 12 14  1  6
 14 15  1  0
 15 16  1  0
 16 17  1  0
 17 18  1  0
 18 19  1  1
 18 20  1  0
 20 21  1  0
 21 22  1  0
 22 23  1  0
 22 24  1  0
 23 25  1  0
 24 26  1  0
 25 26  1  0
 24 27  1  6
 26 28  1  1
 27 29  1  0
 28 30  1  0
 29 30  1  0
M  CHG  1  19  -1
M  END
