ucsf487-ucsf403
     RDKit          3D

 26 28  0  0  0  0  0  0  0  0999 V2000
   -7.2640   14.2590    2.8420 N   0  0  0  0  0  0  0  0  0  0  0  0
   -6.7810   13.9490    1.4970 C   0  0  1  0  0  0  0  0  0  0  0  0
   -7.8180   14.3370    0.4250 C   0  0  0  0  0  0  0  0  0  0  0  0
   -5.4550   14.6630    1.2430 C   0  0  0  0  0  0  0  0  0  0  0  0
   -4.8990   14.3930   -0.1170 C   0  0  1  0  0  0  0  0  0  0  0  0
   -7.2800   14.9310   -0.8050 N   0  0  0  0  0  0  0  0  0  0  0  0
   -5.9710   14.3940   -1.2230 C   0  0  1  0  0  0  0  0  0  0  0  0
   -3.7650   15.3900   -0.2870 C   0  0  0  0  0  0  0  0  0  0  0  0
   -5.5290   15.2410   -2.4050 C   0  0  0  0  0  0  0  0  0  0  0  0
   -3.1010   15.3380   -1.6510 C   0  0  0  0  0  0  0  0  0  0  0  0
   -4.0630   15.0820   -2.8340 C   0  0  1  0  0  0  0  0  0  0  0  0
   -3.7270   13.7410   -3.5250 C   0  0  0  0  0  0  0  0  0  0  0  0
   -2.2470   13.5100   -3.8590 C   0  0  0  0  0  0  0  0  0  0  0  0
   -1.9350   12.7110   -5.1280 C   0  0  0  0  0  0  0  0  0  0  0  0
   -1.7860   11.1630   -5.0250 C   0  0  2  0  0  0  0  0  0  0  0  0
   -0.4260   10.4980   -5.4360 C   0  0  2  0  0  0  0  0  0  0  0  0
   -3.0110   10.5420   -5.7230 C   0  0  0  0  0  0  0  0  0  0  0  0
    0.5560   11.4550   -5.8740 O   0  0  0  0  0  0  0  0  0  0  0  0
   -2.9150    9.0450   -5.9480 C   0  0  0  0  0  0  0  0  0  0  0  0
   -0.4500    9.2590   -6.4030 C   0  0  2  0  0  0  0  0  0  0  0  0
    0.5900    9.5480   -7.8560 Cl  0  0  0  0  0  0  0  0  0  0  0  0
    0.8460   12.5630   -4.9590 C   0  0  0  0  0  0  0  0  0  0  0  0
   -1.8000    8.7580   -6.9170 C   0  0  0  0  0  0  0  0  0  0  0  0
    1.2850   12.1590   -3.5140 C   0  0  1  0  0  0  0  0  0  0  0  0
    0.8170   13.0030   -2.6270 O   0  0  0  0  0  0  0  0  0  0  0  0
    0.6210   10.9840   -3.0770 O   0  0  0  0  0  0  0  0  0  0  0  0
  2  1  1  1
  2  3  1  0
  2  4  1  0
  5  4  1  1
  3  6  1  0
  5  7  1  0
  6  7  1  0
  5  8  1  0
  7  9  1  6
  8 10  1  0
  9 11  1  0
 10 11  1  0
 11 12  1  1
 12 13  1  0
 13 14  1  0
 15 14  1  6
 15 16  1  0
 15 17  1  0
 16 18  1  6
 17 19  1  0
 16 20  1  0
 20 21  1  6
 18 22  1  0
 19 23  1  0
 20 23  1  0
 22 24  1  0
 24 25  1  1
 24 26  1  0
M  CHG  1  25  -1
M  END
