ucsf172-ucsf173
     RDKit          3D

 25 27  0  0  0  0  0  0  0  0999 V2000
   -8.2850   14.8750    2.3230 C   0  0  0  0  0  0  0  0  0  0  0  0
   -6.9830   14.4250    1.2330 S   0  0  0  0  0  0  0  0  0  0  0  0
   -6.8750   12.8400    1.3800 O   0  0  0  0  0  0  0  0  0  0  0  0
   -7.5850   14.6770   -0.2310 O   0  0  0  0  0  0  0  0  0  0  0  0
   -5.5320   15.1580    1.4850 N   0  0  0  0  0  0  0  0  0  0  0  0
   -4.4700   15.2870    0.4800 C   0  0  1  0  0  0  0  0  0  0  0  0
   -3.4550   14.1670    0.7580 C   0  0  0  0  0  0  0  0  0  0  0  0
   -5.0350   15.2740   -0.9500 C   0  0  0  0  0  0  0  0  0  0  0  0
   -2.8320   13.5440   -0.4910 C   0  0  0  0  0  0  0  0  0  0  0  0
   -3.9680   15.1130   -2.0380 C   0  0  0  0  0  0  0  0  0  0  0  0
   -2.5950   14.6260   -1.5370 C   0  0  2  0  0  0  0  0  0  0  0  0
   -1.6520   14.2760   -2.7330 C   0  0  1  0  0  0  0  0  0  0  0  0
   -0.3890   13.2700   -2.4840 C   0  0  1  0  0  0  0  0  0  0  0  0
   -2.4330   13.8810   -3.7510 O   0  0  0  0  0  0  0  0  0  0  0  0
    0.1230   13.1870   -1.2330 O   0  0  0  0  0  0  0  0  0  0  0  0
   -0.6290   11.8840   -2.7550 O   0  0  0  0  0  0  0  0  0  0  0  0
    0.6550   13.7650   -3.4810 C   0  0  1  0  0  0  0  0  0  0  0  0
   -0.0440   13.8440   -4.8550 C   0  0  0  0  0  0  0  0  0  0  0  0
    1.2580   15.1750   -3.2130 C   0  0  0  0  0  0  0  0  0  0  0  0
   -0.2150   15.3380   -5.1550 C   0  0  2  0  0  0  0  0  0  0  0  0
    0.9090   16.0380   -4.4540 C   0  0  1  0  0  0  0  0  0  0  0  0
   -1.6200   15.9560   -4.9700 C   0  0  0  0  0  0  0  0  0  0  0  0
    0.6110   17.5350   -4.3520 C   0  0  0  0  0  0  0  0  0  0  0  0
   -1.6700   17.4040   -5.4640 C   0  0  0  0  0  0  0  0  0  0  0  0
   -0.2740   18.0270   -5.4960 C   0  0  0  0  0  0  0  0  0  0  0  0
  1  2  1  0
  2  3  1  0
  2  4  1  0
  2  5  1  0
  6  5  1  1
  6  7  1  0
  6  8  1  0
  7  9  1  0
  8 10  1  0
 11  9  1  1
 10 11  1  0
 11 12  1  0
 12 13  1  0
 12 14  1  6
 13 15  1  1
 13 16  1  0
 13 17  1  0
 17 18  1  6
 17 19  1  0
 20 18  1  1
 21 19  1  1
 20 21  1  0
 20 22  1  0
 21 23  1  0
 22 24  1  0
 23 25  1  0
 24 25  1  0
M  CHG  2  14  -1  15  -1
M  END
