ucsf028-ucsf190
     RDKit          3D

 33 37  0  0  0  0  0  0  0  0999 V2000
   -4.5210   14.8050    1.3900 N   0  0  0  0  0  0  0  0  0  0  0  0
   -3.7620   15.5260    0.3860 C   0  0  1  0  0  0  0  0  0  0  0  0
   -2.2270   15.4470    0.4570 C   0  0  2  0  0  0  0  0  0  0  0  0
   -4.2950   14.9850   -0.8330 N   0  0  0  0  0  0  0  0  0  0  0  0
   -3.5680   15.3280   -2.0600 C   0  0  0  0  0  0  0  0  0  0  0  0
   -1.7590   14.5610   -0.6490 C   0  0  1  0  0  0  0  0  0  0  0  0
   -1.5640   14.8030    1.6000 N   0  0  0  0  0  0  0  0  0  0  0  0
   -2.1460   15.0180   -1.9620 N   0  0  0  0  0  0  0  0  0  0  0  0
   -0.3320   14.6650   -0.4200 N   0  0  0  0  0  0  0  0  0  0  0  0
   -0.2410   14.5110    1.0310 C   0  0  0  0  0  0  0  0  0  0  0  0
   -1.7700   14.0020   -2.9520 C   0  0  0  0  0  0  0  0  0  0  0  0
   -2.5380   12.6860   -2.9610 C   0  0  1  0  0  0  0  0  0  0  0  0
   -2.7240   11.9610   -4.2620 C   0  0  0  0  0  0  0  0  0  0  0  0
   -1.8570   11.7270   -2.1750 O   0  0  0  0  0  0  0  0  0  0  0  0
   -0.9630   11.0330   -3.0890 N   0  0  0  0  0  0  0  0  0  0  0  0
   -1.3280   11.4120   -4.4460 C   0  0  1  0  0  0  0  0  0  0  0  0
   -1.4080   10.3070   -5.3670 O   0  0  0  0  0  0  0  0  0  0  0  0
    0.3590   11.4050   -2.6880 C   0  0  2  0  0  0  0  0  0  0  0  0
   -0.6150   10.5350   -6.5300 C   0  0  0  0  0  0  0  0  0  0  0  0
    0.8850   10.2660   -2.3420 O   0  0  0  0  0  0  0  0  0  0  0  0
    0.4030   12.1220   -1.4720 O   0  0  0  0  0  0  0  0  0  0  0  0
    1.1440   12.1860   -3.8360 C   0  0  0  0  0  0  0  0  0  0  0  0
    0.8750   13.7300   -3.9550 C   0  0  2  0  0  0  0  0  0  0  0  0
   -0.0080   14.3150   -5.1040 C   0  0  2  0  0  0  0  0  0  0  0  0
    2.1430   14.4760   -3.9200 N   0  0  0  0  0  0  0  0  0  0  0  0
   -0.4910   15.6430   -4.4730 C   0  0  1  0  0  0  0  0  0  0  0  0
    2.0150   15.9150   -4.0300 N   0  0  0  0  0  0  0  0  0  0  0  0
   -1.1460   13.3920   -5.5930 C   0  0  0  0  0  0  0  0  0  0  0  0
    0.7150   16.5700   -4.2230 C   0  0  1  0  0  0  0  0  0  0  0  0
   -1.6890   16.3260   -5.1440 C   0  0  0  0  0  0  0  0  0  0  0  0
   -2.5200   14.0100   -5.9460 C   0  0  0  0  0  0  0  0  0  0  0  0
    0.9030   17.4740   -5.2930 O   0  0  0  0  0  0  0  0  0  0  0  0
   -2.8680   15.3870   -5.3780 C   0  0  0  0  0  0  0  0  0  0  0  0
  2  1  1  1
  2  3  1  0
  2  4  1  0
  4  5  1  0
  3  6  1  0
  3  7  1  1
  5  8  1  0
  6  8  1  0
  6  9  1  6
  7 10  1  0
  9 10  1  0
  8 11  1  0
 12 11  1  6
 12 13  1  0
 12 14  1  0
 14 15  1  0
 13 16  1  0
 15 16  1  0
 16 17  1  6
 15 18  1  0
 17 19  1  0
 18 20  1  1
 18 21  1  0
 18 22  1  0
 23 22  1  6
 23 24  1  0
 23 25  1  0
 24 26  1  0
 25 27  1  0
 24 28  1  1
 26 29  1  0
 27 29  1  0
 26 30  1  6
 28 31  1  0
 29 32  1  6
 30 33  1  0
 31 33  1  0
M  CHG  1  20  -1
M  END
