ucsf523-ucsf274
     RDKit          3D

 30 33  0  0  0  0  0  0  0  0999 V2000
    0.2170   14.2980    1.8550 N   0  0  0  0  0  0  0  0  0  0  0  0
   -0.8370   14.1040    0.9510 C   0  0  1  0  0  0  0  0  0  0  0  0
   -1.9590   14.6780    1.5740 N   0  0  0  0  0  0  0  0  0  0  0  0
   -0.5780   14.8290   -0.2220 N   0  0  0  0  0  0  0  0  0  0  0  0
   -1.6500   14.4260   -1.1330 C   0  0  2  0  0  0  0  0  0  0  0  0
   -3.1350   14.3450    0.8350 C   0  0  2  0  0  0  0  0  0  0  0  0
   -1.3210   14.8540   -2.4440 O   0  0  0  0  0  0  0  0  0  0  0  0
   -3.0630   14.9060   -0.6180 C   0  0  2  0  0  0  0  0  0  0  0  0
   -4.2270   14.9490    1.5150 N   0  0  0  0  0  0  0  0  0  0  0  0
   -1.1450   13.6850   -3.2660 C   0  0  0  0  0  0  0  0  0  0  0  0
   -5.4070   14.5460    0.8090 C   0  0  1  0  0  0  0  0  0  0  0  0
   -4.2920   14.6920   -1.4380 N   0  0  0  0  0  0  0  0  0  0  0  0
   -6.4630   14.9200    1.6520 O   0  0  0  0  0  0  0  0  0  0  0  0
    0.2980   13.3990   -3.7620 C   0  0  1  0  0  0  0  0  0  0  0  0
   -5.4810   15.0940   -0.6600 C   0  0  0  0  0  0  0  0  0  0  0  0
    1.0800   12.2890   -2.9750 C   0  0  2  0  0  0  0  0  0  0  0  0
    0.3520   13.1980   -5.2970 C   0  0  0  0  0  0  0  0  0  0  0  0
    0.3220   11.3460   -2.4390 O   0  0  0  0  0  0  0  0  0  0  0  0
    1.6240   12.8740   -1.8230 O   0  0  0  0  0  0  0  0  0  0  0  0
   -0.6110   12.1870   -5.9850 C   0  0  2  0  0  0  0  0  0  0  0  0
   -1.8960   11.7940   -5.1410 C   0  0  2  0  0  0  0  0  0  0  0  0
    0.1420   10.9890   -6.3980 N   0  0  0  0  0  0  0  0  0  0  0  0
   -1.7750   12.0490   -3.7630 O   0  0  0  0  0  0  0  0  0  0  0  0
   -2.3250   10.3940   -5.2460 N   0  0  0  0  0  0  0  0  0  0  0  0
   -0.7250   10.1450   -7.2230 C   0  0  2  0  0  0  0  0  0  0  0  0
   -2.0810    9.7730   -6.5510 C   0  0  1  0  0  0  0  0  0  0  0  0
    0.0780    8.9070   -7.6510 C   0  0  0  0  0  0  0  0  0  0  0  0
   -0.7480    7.9750   -8.5220 C   0  0  0  0  0  0  0  0  0  0  0  0
   -2.2880    8.2590   -6.4850 C   0  0  0  0  0  0  0  0  0  0  0  0
   -2.0780    7.6130   -7.8570 C   0  0  0  0  0  0  0  0  0  0  0  0
  2  1  1  1
  2  3  1  0
  2  4  1  0
  4  5  1  0
  6  3  1  1
  5  7  1  6
  5  8  1  0
  6  8  1  0
  6  9  1  0
  7 10  1  0
  9 11  1  0
  8 12  1  6
 11 13  1  1
 14 10  1  1
 11 15  1  0
 12 15  1  0
 14 16  1  0
 14 17  1  0
 16 18  1  1
 16 19  1  0
 20 17  1  1
 20 21  1  0
 20 22  1  0
 21 23  1  1
 21 24  1  0
 22 25  1  0
 24 26  1  0
 25 26  1  0
 25 27  1  1
 27 28  1  0
 26 29  1  1
 28 30  1  0
 29 30  1  0
M  CHG  1  18  -1
M  END
