ucsf012-ucsf109
     RDKit          3D

 25 29  0  0  0  0  0  0  0  0999 V2000
   -3.5880   14.6950   -3.6370 C   0  0  0  0  0  0  0  0  0  0  0  0
   -3.3480   14.1970   -2.1840 C   0  0  2  0  0  0  0  0  0  0  0  0
   -4.6310   14.5420   -1.2700 C   0  0  2  0  0  0  0  0  0  0  0  0
   -1.9660   14.6490   -1.8990 N   0  0  0  0  0  0  0  0  0  0  0  0
   -5.0860   15.8710   -1.7790 C   0  0  0  0  0  0  0  0  0  0  0  0
   -1.0140   14.6420   -3.0590 C   0  0  0  0  0  0  0  0  0  0  0  0
   -1.4520   14.2720   -0.6150 C   0  0  2  0  0  0  0  0  0  0  0  0
   -4.6150   14.6720    0.3190 C   0  0  2  0  0  0  0  0  0  0  0  0
   -5.8940   13.7760   -1.7500 C   0  0  0  0  0  0  0  0  0  0  0  0
   -3.4740   14.0940    1.0060 N   0  0  0  0  0  0  0  0  0  0  0  0
   -2.2870   14.7760    0.6070 C   0  0  1  0  0  0  0  0  0  0  0  0
   -0.1640   14.8590   -0.3170 N   0  0  0  0  0  0  0  0  0  0  0  0
   -0.3200   13.2900   -3.3940 C   0  0  1  0  0  0  0  0  0  0  0  0
   -5.8840   14.2000    0.9860 N   0  0  0  0  0  0  0  0  0  0  0  0
   -7.1050   14.2590   -1.1510 N   0  0  0  0  0  0  0  0  0  0  0  0
   -1.3500   14.5880    1.6850 N   0  0  0  0  0  0  0  0  0  0  0  0
   -0.0440   14.5190    1.0770 C   0  0  0  0  0  0  0  0  0  0  0  0
    0.0000   12.4380   -2.1830 C   0  0  0  0  0  0  0  0  0  0  0  0
   -1.1280   12.4010   -4.2030 O   0  0  0  0  0  0  0  0  0  0  0  0
   -7.0940   13.8660    0.2030 C   0  0  2  0  0  0  0  0  0  0  0  0
   -6.3480   14.8630    2.1860 N   0  0  0  0  0  0  0  0  0  0  0  0
   -0.6530   11.0660   -3.9530 C   0  0  0  0  0  0  0  0  0  0  0  0
    0.4240   11.1990   -2.8990 C   0  0  0  0  0  0  0  0  0  0  0  0
   -8.1990   14.5020    0.8760 N   0  0  0  0  0  0  0  0  0  0  0  0
   -7.7460   14.4770    2.2620 C   0  0  0  0  0  0  0  0  0  0  0  0
  2  1  1  6
  2  3  1  0
  2  4  1  0
  3  5  1  6
  4  6  1  0
  4  7  1  0
  3  8  1  0
  3  9  1  0
  8 10  1  1
  7 11  1  0
 11 10  1  1
  7 12  1  1
 13  6  1  1
  8 14  1  0
  9 15  1  0
 11 16  1  0
 12 17  1  0
 16 17  1  0
 13 18  1  0
 13 19  1  0
 14 20  1  0
 20 15  1  6
 14 21  1  0
 19 22  1  0
 18 23  1  0
 22 23  1  0
 20 24  1  0
 21 25  1  0
 24 25  1  0
M  END
