ucsf365-ucsf241
     RDKit          3D

 21 23  0  0  0  0  0  0  0  0999 V2000
    0.5190   10.5340   -2.3190 O   0  0  0  0  0  0  0  0  0  0  0  0
    0.0470   11.7710   -2.3300 C   0  0  1  0  0  0  0  0  0  0  0  0
    0.5980   12.4780   -1.1970 O   0  0  0  0  0  0  0  0  0  0  0  0
    0.4120   12.5310   -3.6470 C   0  0  0  0  0  0  0  0  0  0  0  0
    0.9640   13.8550   -1.3800 C   0  0  0  0  0  0  0  0  0  0  0  0
   -0.8230   13.3320   -4.1430 C   0  0  2  0  0  0  0  0  0  0  0  0
   -1.8510   12.4500   -4.8780 C   0  0  2  0  0  0  0  0  0  0  0  0
   -0.4990   14.5710   -4.9740 C   0  0  0  0  0  0  0  0  0  0  0  0
    0.0270   14.8020   -0.5920 C   0  0  1  0  0  0  0  0  0  0  0  0
   -1.2020   11.2870   -5.3920 O   0  0  0  0  0  0  0  0  0  0  0  0
   -2.5780   13.1610   -6.0260 C   0  0  0  0  0  0  0  0  0  0  0  0
   -1.7830   15.4010   -5.1090 C   0  0  0  0  0  0  0  0  0  0  0  0
   -1.2470   15.1030   -1.4060 C   0  0  0  0  0  0  0  0  0  0  0  0
   -0.1390   14.3580    0.9000 C   0  0  0  0  0  0  0  0  0  0  0  0
   -2.9590   14.6060   -5.6890 C   0  0  0  0  0  0  0  0  0  0  0  0
   -2.4720   14.6830   -0.6470 C   0  0  2  0  0  0  0  0  0  0  0  0
   -1.4610   14.4560    1.5430 N   0  0  0  0  0  0  0  0  0  0  0  0
   -3.7830   15.2810   -1.1300 C   0  0  0  0  0  0  0  0  0  0  0  0
   -2.3820   15.1920    0.7560 C   0  0  2  0  0  0  0  0  0  0  0  0
   -4.5630   15.5250    0.1620 C   0  0  0  0  0  0  0  0  0  0  0  0
   -3.7210   14.9960    1.2320 N   0  0  0  0  0  0  0  0  0  0  0  0
  2  1  1  6
  2  3  1  0
  2  4  1  0
  3  5  1  0
  6  4  1  6
  6  7  1  0
  6  8  1  0
  9  5  1  6
  7 10  1  6
  7 11  1  0
  8 12  1  0
  9 13  1  0
  9 14  1  0
 11 15  1  0
 12 15  1  0
 16 13  1  6
 14 17  1  0
 16 18  1  0
 16 19  1  0
 19 17  1  1
 18 20  1  0
 19 21  1  0
 20 21  1  0
M  CHG  1   1  -1
M  END
