ucsf114-ucsf147
     RDKit          3D

 22 24  0  0  0  0  0  0  0  0999 V2000
    2.3920   14.0690   -2.0600 S   0  0  0  0  0  0  0  0  0  0  0  0
    0.7830   13.8010   -1.3160 C   0  0  2  0  0  0  0  0  0  0  0  0
   -0.4510   14.1160   -1.9800 N   0  0  0  0  0  0  0  0  0  0  0  0
    0.7580   14.4420   -0.0280 N   0  0  0  0  0  0  0  0  0  0  0  0
    0.7060   12.3990   -1.2040 O   0  0  0  0  0  0  0  0  0  0  0  0
   -1.4210   14.3610   -0.8920 C   0  0  1  0  0  0  0  0  0  0  0  0
   -0.5840   14.8390    0.3420 C   0  0  1  0  0  0  0  0  0  0  0  0
   -0.6190   14.6770   -3.3410 C   0  0  2  0  0  0  0  0  0  0  0  0
   -1.0030   14.2110    1.5540 O   0  0  0  0  0  0  0  0  0  0  0  0
   -2.6270   15.0830   -1.2070 N   0  0  0  0  0  0  0  0  0  0  0  0
   -2.1460   14.9530   -3.6660 C   0  0  2  0  0  0  0  0  0  0  0  0
   -0.2810   13.6540   -4.5200 C   0  0  1  0  0  0  0  0  0  0  0  0
    0.2870   15.8770   -3.7840 C   0  0  0  0  0  0  0  0  0  0  0  0
    0.8670   12.6370   -4.4390 C   0  0  0  0  0  0  0  0  0  0  0  0
   -3.1600   14.7400   -2.5190 C   0  0  0  0  0  0  0  0  0  0  0  0
   -1.5140   12.9780   -4.7640 O   0  0  0  0  0  0  0  0  0  0  0  0
   -2.4920   14.0700   -4.8230 N   0  0  0  0  0  0  0  0  0  0  0  0
    0.6160   15.9990   -5.2540 C   0  0  0  0  0  0  0  0  0  0  0  0
   -0.4010   16.7650   -5.8790 O   0  0  0  0  0  0  0  0  0  0  0  0
   -0.2470   18.1530   -5.6520 C   0  0  0  0  0  0  0  0  0  0  0  0
    0.8620   18.3390   -4.6230 C   0  0  0  0  0  0  0  0  0  0  0  0
   -1.5940   18.6550   -5.1560 C   0  0  0  0  0  0  0  0  0  0  0  0
  1  2  1  0
  2  3  1  0
  2  4  1  0
  2  5  1  1
  3  6  1  0
  4  7  1  0
  6  7  1  0
  8  3  1  0
  7  9  1  1
  6 10  1  6
  8 11  1  0
  8 12  1  0
  8 13  1  1
 12 14  1  1
 10 15  1  0
 11 15  1  1
 12 16  1  0
 11 17  1  0
 16 17  1  0
 13 18  1  0
 18 19  1  0
 19 20  1  0
 20 21  1  0
 20 22  1  0
M  END
