ucsf392-ucsf012
     RDKit          3D

 19 21  0  0  0  0  0  0  0  0999 V2000
   -5.0360   15.7070   -0.7720 C   0  0  0  0  0  0  0  0  0  0  0  0
   -4.0500   14.5620   -0.5310 C   0  0  1  0  0  0  0  0  0  0  0  0
   -2.9650   14.4300   -1.6250 C   0  0  2  0  0  0  0  0  0  0  0  0
   -3.4420   14.5820    0.8990 C   0  0  2  0  0  0  0  0  0  0  0  0
   -4.1930   15.4300    1.7880 N   0  0  0  0  0  0  0  0  0  0  0  0
   -2.1040   15.0660    1.0490 N   0  0  0  0  0  0  0  0  0  0  0  0
   -1.6530   14.9480   -1.2310 N   0  0  0  0  0  0  0  0  0  0  0  0
   -3.1790   15.1790   -2.9340 C   0  0  2  0  0  0  0  0  0  0  0  0
   -4.2170   14.5950   -3.8590 C   0  0  0  0  0  0  0  0  0  0  0  0
   -1.1770   14.4940    0.0790 C   0  0  1  0  0  0  0  0  0  0  0  0
   -0.8330   15.1320   -2.4500 N   0  0  0  0  0  0  0  0  0  0  0  0
   -1.7930   15.1520   -3.5680 C   0  0  0  0  0  0  0  0  0  0  0  0
    0.1550   15.0410    0.5530 C   0  0  0  0  0  0  0  0  0  0  0  0
    0.1590   14.0950   -2.7210 C   0  0  0  0  0  0  0  0  0  0  0  0
   -0.3180   12.6570   -2.9220 C   0  0  2  0  0  0  0  0  0  0  0  0
    0.8300   11.7350   -2.6200 C   0  0  0  0  0  0  0  0  0  0  0  0
   -0.7030   12.3200   -4.2650 O   0  0  0  0  0  0  0  0  0  0  0  0
   -0.3560   10.9450   -4.4870 C   0  0  0  0  0  0  0  0  0  0  0  0
    0.3580   10.4580   -3.2450 C   0  0  0  0  0  0  0  0  0  0  0  0
  2  1  1  6
  2  3  1  0
  2  4  1  0
  4  5  1  1
  4  6  1  0
  3  7  1  1
  3  8  1  0
  8  9  1  6
  6 10  1  0
  7 10  1  0
  7 11  1  0
  8 12  1  0
 11 12  1  0
 10 13  1  1
 11 14  1  0
 15 14  1  6
 15 16  1  0
 15 17  1  0
 17 18  1  0
 16 19  1  0
 18 19  1  0
M  END
