ucsf519-ucsf442
     RDKit          3D

 19 20  0  0  0  0  0  0  0  0999 V2000
    0.1370   15.9130   -4.7380 C   0  0  0  0  0  0  0  0  0  0  0  0
   -0.6090   14.7490   -4.0780 C   0  0  2  0  0  0  0  0  0  0  0  0
   -0.4760   13.2150   -5.1170 S   0  0  0  0  0  0  0  0  0  0  0  0
   -2.0990   15.0800   -3.7170 C   0  0  1  0  0  0  0  0  0  0  0  0
    0.7720   12.1620   -4.2350 C   0  0  0  0  0  0  0  0  0  0  0  0
   -2.9230   14.6900   -4.8230 O   0  0  0  0  0  0  0  0  0  0  0  0
   -2.5640   14.4030   -2.4880 N   0  0  0  0  0  0  0  0  0  0  0  0
    0.3960   11.8260   -2.7510 C   0  0  2  0  0  0  0  0  0  0  0  0
   -3.9040   14.8340   -2.0590 C   0  0  0  0  0  0  0  0  0  0  0  0
   -1.7350   14.4750   -1.2700 C   0  0  1  0  0  0  0  0  0  0  0  0
    1.3800   12.4390   -1.9240 O   0  0  0  0  0  0  0  0  0  0  0  0
    0.4860   10.5100   -2.5360 O   0  0  0  0  0  0  0  0  0  0  0  0
   -0.4990   15.1080   -1.3800 O   0  0  0  0  0  0  0  0  0  0  0  0
   -3.8480   14.8500   -0.5390 C   0  0  1  0  0  0  0  0  0  0  0  0
   -2.4770   15.1040   -0.2140 N   0  0  0  0  0  0  0  0  0  0  0  0
   -4.6970   15.8480    0.0740 N   0  0  0  0  0  0  0  0  0  0  0  0
   -4.3770   13.6250    0.1510 C   0  0  0  0  0  0  0  0  0  0  0  0
   -4.2410   14.1060    1.5020 N   0  0  0  0  0  0  0  0  0  0  0  0
   -4.9650   15.3500    1.4060 C   0  0  0  0  0  0  0  0  0  0  0  0
  2  1  1  6
  2  3  1  0
  2  4  1  0
  3  5  1  0
  4  6  1  6
  4  7  1  0
  5  8  1  0
  7  9  1  0
  7 10  1  0
  8 11  1  1
  8 12  1  0
 10 13  1  6
 14  9  1  6
 10 15  1  0
 14 15  1  0
 14 16  1  0
 14 17  1  0
 17 18  1  0
 16 19  1  0
 18 19  1  0
M  CHG  1  12  -1
M  END
