ucsf340-ucsf241
     RDKit          3D

 25 28  0  0  0  0  0  0  0  0999 V2000
    0.6280   18.6050   -6.1950 C   0  0  0  0  0  0  0  0  0  0  0  0
    0.0890   17.3380   -5.7660 N   0  0  0  0  0  0  0  0  0  0  0  0
    0.9320   16.5650   -4.8670 C   0  0  0  0  0  0  0  0  0  0  0  0
   -1.2760   17.2940   -5.2480 C   0  0  2  0  0  0  0  0  0  0  0  0
    0.0630   15.3520   -4.5570 C   0  0  2  0  0  0  0  0  0  0  0  0
   -1.3580   15.8970   -4.6040 C   0  0  2  0  0  0  0  0  0  0  0  0
   -2.3320   17.6500   -6.2990 C   0  0  0  0  0  0  0  0  0  0  0  0
    0.2900   14.5840   -3.2550 C   0  0  2  0  0  0  0  0  0  0  0  0
   -2.3510   14.9050   -5.1730 C   0  0  0  0  0  0  0  0  0  0  0  0
   -3.4530   16.6060   -6.5610 C   0  0  0  0  0  0  0  0  0  0  0  0
    0.0420   13.0310   -3.3980 C   0  0  0  0  0  0  0  0  0  0  0  0
   -0.7110   15.2260   -2.2480 C   0  0  0  0  0  0  0  0  0  0  0  0
   -3.6380   15.5870   -5.4550 C   0  0  0  0  0  0  0  0  0  0  0  0
    0.5440   12.1370   -2.2220 C   0  0  2  0  0  0  0  0  0  0  0  0
   -1.0120   14.3160   -1.0620 C   0  0  2  0  0  0  0  0  0  0  0  0
    1.9300   12.3810   -2.1410 O   0  0  0  0  0  0  0  0  0  0  0  0
    0.3580   10.8270   -2.4080 O   0  0  0  0  0  0  0  0  0  0  0  0
   -2.4210   14.4900   -0.4560 C   0  0  2  0  0  0  0  0  0  0  0  0
    0.0800   14.5240   -0.0050 C   0  0  0  0  0  0  0  0  0  0  0  0
   -3.5030   15.2770   -1.1700 C   0  0  0  0  0  0  0  0  0  0  0  0
   -2.3670   15.2630    0.8100 C   0  0  1  0  0  0  0  0  0  0  0  0
   -0.3210   14.1830    1.4260 C   0  0  0  0  0  0  0  0  0  0  0  0
   -4.5260   15.4770   -0.0480 C   0  0  0  0  0  0  0  0  0  0  0  0
   -3.7410   15.5120    1.1980 N   0  0  0  0  0  0  0  0  0  0  0  0
   -1.6460   14.6090    1.8320 N   0  0  0  0  0  0  0  0  0  0  0  0
  1  2  1  0
  2  3  1  0
  2  4  1  0
  5  3  1  1
  4  6  1  0
  5  6  1  0
  4  7  1  6
  5  8  1  0
  6  9  1  6
  7 10  1  0
  8 11  1  6
  8 12  1  0
  9 13  1  0
 10 13  1  0
 11 14  1  0
 15 12  1  6
 14 16  1  6
 14 17  1  0
 15 18  1  0
 15 19  1  0
 18 20  1  6
 18 21  1  0
 19 22  1  0
 20 23  1  0
 21 24  1  1
 23 24  1  0
 21 25  1  0
 22 25  1  0
M  CHG  1  17  -1
M  END
