ucsf348-ucsf493
     RDKit          3D

 29 32  0  0  0  0  0  0  0  0999 V2000
   -6.8830   13.5430    2.2380 N   0  0  0  0  0  0  0  0  0  0  0  0
   -6.5530   14.5450    1.3010 C   0  0  1  0  0  0  0  0  0  0  0  0
   -5.2010   14.9730    1.5170 N   0  0  0  0  0  0  0  0  0  0  0  0
   -6.8220   14.1160   -0.0150 N   0  0  0  0  0  0  0  0  0  0  0  0
   -6.0170   14.6950   -1.0690 C   0  0  2  0  0  0  0  0  0  0  0  0
   -4.1580   14.4590    0.6020 C   0  0  1  0  0  0  0  0  0  0  0  0
   -6.3470   14.0380   -2.2850 O   0  0  0  0  0  0  0  0  0  0  0  0
   -4.5200   14.4780   -0.8810 C   0  0  2  0  0  0  0  0  0  0  0  0
   -2.8770   15.2660    0.9020 C   0  0  0  0  0  0  0  0  0  0  0  0
   -5.9030   14.8060   -3.3910 C   0  0  0  0  0  0  0  0  0  0  0  0
   -1.7280   15.0750   -0.0970 C   0  0  0  0  0  0  0  0  0  0  0  0
   -3.6480   15.4560   -1.6540 C   0  0  0  0  0  0  0  0  0  0  0  0
   -4.6830   14.2030   -4.1050 C   0  0  0  0  0  0  0  0  0  0  0  0
   -2.1690   15.1690   -1.5540 C   0  0  0  0  0  0  0  0  0  0  0  0
   -4.3970   14.8300   -5.4920 C   0  0  0  0  0  0  0  0  0  0  0  0
   -3.6860   16.0860   -5.4640 O   0  0  0  0  0  0  0  0  0  0  0  0
   -2.4330   16.1070   -4.7520 C   0  0  1  0  0  0  0  0  0  0  0  0
   -1.6750   14.7680   -4.9700 C   0  0  0  0  0  0  0  0  0  0  0  0
   -1.6910   17.3720   -5.2070 C   0  0  0  0  0  0  0  0  0  0  0  0
   -0.1360   14.7880   -5.1130 C   0  0  1  0  0  0  0  0  0  0  0  0
   -0.2930   17.3730   -4.6530 C   0  0  0  0  0  0  0  0  0  0  0  0
    0.4950   16.1960   -5.2080 C   0  0  1  0  0  0  0  0  0  0  0  0
    0.6460   14.0890   -3.9750 C   0  0  1  0  0  0  0  0  0  0  0  0
    0.8300   12.5540   -4.0730 C   0  0  0  0  0  0  0  0  0  0  0  0
    1.8150   16.0430   -4.6560 N   0  0  0  0  0  0  0  0  0  0  0  0
    1.9910   14.7660   -3.9940 C   0  0  0  0  0  0  0  0  0  0  0  0
    0.2390   11.8390   -2.8340 C   0  0  1  0  0  0  0  0  0  0  0  0
    0.6380   10.4870   -2.7020 O   0  0  0  0  0  0  0  0  0  0  0  0
    0.6650   12.3420   -1.6830 O   0  0  0  0  0  0  0  0  0  0  0  0
  2  1  1  1
  2  3  1  0
  2  4  1  0
  4  5  1  0
  3  6  1  0
  5  7  1  6
  5  8  1  0
  6  8  1  0
  6  9  1  6
  7 10  1  0
  9 11  1  0
  8 12  1  6
 10 13  1  0
 11 14  1  0
 12 14  1  0
 13 15  1  0
 15 16  1  0
 17 16  1  6
 17 18  1  0
 17 19  1  0
 20 18  1  1
 19 21  1  0
 20 22  1  0
 22 21  1  1
 20 23  1  0
 23 24  1  6
 22 25  1  0
 23 26  1  0
 25 26  1  0
 24 27  1  0
 27 28  1  6
 27 29  1  0
M  CHG  1  29  -1
M  END
