ucsf172-ucsf493
     RDKit          3D

 28 30  0  0  0  0  0  0  0  0999 V2000
   -8.2320   14.8630    2.2250 C   0  0  0  0  0  0  0  0  0  0  0  0
   -6.9200   14.4480    1.1360 S   0  0  0  0  0  0  0  0  0  0  0  0
   -6.8080   12.8640    1.2760 O   0  0  0  0  0  0  0  0  0  0  0  0
   -7.5040   14.7390   -0.3270 O   0  0  0  0  0  0  0  0  0  0  0  0
   -5.4490   15.1340    1.3910 N   0  0  0  0  0  0  0  0  0  0  0  0
   -4.3660   15.3100    0.4070 C   0  0  1  0  0  0  0  0  0  0  0  0
   -3.2490   14.2960    0.6760 C   0  0  0  0  0  0  0  0  0  0  0  0
   -4.8940   15.2470   -1.0320 C   0  0  0  0  0  0  0  0  0  0  0  0
   -2.1230   14.2700   -0.3560 C   0  0  0  0  0  0  0  0  0  0  0  0
   -3.7970   15.1380   -2.1040 C   0  0  0  0  0  0  0  0  0  0  0  0
   -2.6510   14.1270   -1.7940 C   0  0  1  0  0  0  0  0  0  0  0  0
   -1.5110   14.2310   -2.8630 C   0  0  1  0  0  0  0  0  0  0  0  0
   -0.4120   13.3660   -2.4740 O   0  0  0  0  0  0  0  0  0  0  0  0
   -2.0050   13.7580   -3.9880 O   0  0  0  0  0  0  0  0  0  0  0  0
   -0.2770   12.1910   -3.2770 C   0  0  1  0  0  0  0  0  0  0  0  0
    0.2100   12.5520   -4.6910 C   0  0  0  0  0  0  0  0  0  0  0  0
    0.7260   11.3460   -2.7110 O   0  0  0  0  0  0  0  0  0  0  0  0
    0.8430   13.9240   -4.9800 C   0  0  1  0  0  0  0  0  0  0  0  0
   -0.0530   15.1480   -5.2070 C   0  0  1  0  0  0  0  0  0  0  0  0
    1.9280   14.4600   -4.0690 C   0  0  0  0  0  0  0  0  0  0  0  0
   -1.5640   15.0530   -5.1930 C   0  0  0  0  0  0  0  0  0  0  0  0
    0.4630   16.2320   -4.3160 C   0  0  1  0  0  0  0  0  0  0  0  0
    1.8760   15.9150   -4.3500 N   0  0  0  0  0  0  0  0  0  0  0  0
   -2.2320   16.3840   -5.5430 C   0  0  1  0  0  0  0  0  0  0  0  0
    0.0580   17.5900   -4.8780 C   0  0  0  0  0  0  0  0  0  0  0  0
   -3.5190   16.3450   -4.9930 O   0  0  0  0  0  0  0  0  0  0  0  0
   -1.4540   17.6870   -5.1790 C   0  0  0  0  0  0  0  0  0  0  0  0
   -4.2900   15.3010   -5.6020 C   0  0  0  0  0  0  0  0  0  0  0  0
  1  2  1  0
  2  3  1  0
  2  4  1  0
  2  5  1  0
  6  5  1  1
  6  7  1  0
  6  8  1  0
  7  9  1  0
  8 10  1  0
 11  9  1  1
 10 11  1  0
 11 12  1  0
 12 13  1  0
 12 14  1  6
 13 15  1  0
 15 16  1  0
 15 17  1  1
 18 16  1  1
 18 19  1  0
 18 20  1  0
 19 21  1  1
 19 22  1  0
 20 23  1  0
 22 23  1  0
 21 24  1  0
 22 25  1  6
 24 26  1  1
 24 27  1  0
 25 27  1  0
 26 28  1  0
M  CHG  1  14  -1
M  END
