ucsf005-ucsf303
     RDKit          3D

 20 23  0  0  0  0  0  0  0  0999 V2000
   -3.5830   13.1100   -3.6360 C   0  0  0  0  0  0  0  0  0  0  0  0
   -3.3170   12.1440   -2.1300 S   0  0  1  0  0  0  0  0  0  0  0  0
   -4.7310   12.2430   -1.3770 O   0  0  0  0  0  0  0  0  0  0  0  0
   -3.3210   14.4390   -3.1340 N   0  0  0  0  0  0  0  0  0  0  0  0
   -3.0470   10.5590   -2.4280 N   0  0  0  0  0  0  0  0  0  0  0  0
   -4.3090   15.4240   -3.2710 C   0  0  0  0  0  0  0  0  0  0  0  0
   -3.3010   14.2560   -1.7060 C   0  0  1  0  0  0  0  0  0  0  0  0
   -2.2720   13.3310   -1.4280 N   0  0  0  0  0  0  0  0  0  0  0  0
   -4.7870   15.7930   -1.9010 N   0  0  0  0  0  0  0  0  0  0  0  0
   -3.5790   15.5610   -1.0960 C   0  0  1  0  0  0  0  0  0  0  0  0
   -1.9340   13.5540   -0.0180 C   0  0  1  0  0  0  0  0  0  0  0  0
   -4.1320    9.9940   -3.2230 C   0  0  2  0  0  0  0  0  0  0  0  0
   -0.5530   13.3530    0.2830 N   0  0  0  0  0  0  0  0  0  0  0  0
   -3.6520   15.1160    0.3570 C   0  0  1  0  0  0  0  0  0  0  0  0
   -2.2820   14.8110    0.6170 N   0  0  0  0  0  0  0  0  0  0  0  0
   -5.3320    9.7760   -2.3860 N   0  0  0  0  0  0  0  0  0  0  0  0
   -3.7270    8.4340   -4.0000 S   0  0  0  0  0  0  0  0  0  0  0  0
   -4.0680   16.0430    1.3870 N   0  0  0  0  0  0  0  0  0  0  0  0
   -4.4620    7.5630   -2.6160 C   0  0  0  0  0  0  0  0  0  0  0  0
   -5.6400    8.3370   -2.2590 N   0  0  0  0  0  0  0  0  0  0  0  0
  1  2  1  0
  2  3  1  1
  1  4  1  0
  2  5  1  0
  4  6  1  0
  7  4  1  6
  2  8  1  0
  7  8  1  0
  6  9  1  0
  7 10  1  0
 10  9  1  6
  8 11  1  0
 12  5  1  1
 11 13  1  6
 10 14  1  0
 11 15  1  0
 14 15  1  0
 12 16  1  0
 12 17  1  0
 14 18  1  1
 17 19  1  0
 16 20  1  0
 19 20  1  0
M  END
