ucsf367-ucsf138
     RDKit          3D

 20 21  0  0  0  0  0  0  0  0999 V2000
    0.5290   10.8280   -2.8610 O   0  0  0  0  0  0  0  0  0  0  0  0
    0.4710   12.0720   -3.2880 C   0  0  1  0  0  0  0  0  0  0  0  0
    1.6630   12.6180   -2.7500 O   0  0  0  0  0  0  0  0  0  0  0  0
    0.3930   12.2610   -4.8600 C   0  0  0  0  0  0  0  0  0  0  0  0
    0.5130   11.1400   -5.8560 N   0  0  0  0  0  0  0  0  0  0  0  0
    1.3590   11.3690   -6.9660 C   0  0  2  0  0  0  0  0  0  0  0  0
   -0.6900   10.4230   -6.1930 C   0  0  0  0  0  0  0  0  0  0  0  0
    2.1020   12.5070   -6.7410 O   0  0  0  0  0  0  0  0  0  0  0  0
    0.5490   11.3260   -8.1690 N   0  0  0  0  0  0  0  0  0  0  0  0
   -0.5280    8.9320   -6.4640 C   0  0  0  0  0  0  0  0  0  0  0  0
   -1.7870   10.6380   -5.1940 C   0  0  0  0  0  0  0  0  0  0  0  0
   -1.7810    8.3820   -7.1230 C   0  0  0  0  0  0  0  0  0  0  0  0
   -3.0500    9.8760   -5.5620 C   0  0  0  0  0  0  0  0  0  0  0  0
    0.9170   10.3490   -9.2110 C   0  0  0  0  0  0  0  0  0  0  0  0
   -2.9880    9.2990   -6.9570 C   0  0  0  0  0  0  0  0  0  0  0  0
   -0.0340   10.2200  -10.3900 C   0  0  0  0  0  0  0  0  0  0  0  0
    1.3340    8.9450   -8.7170 C   0  0  0  0  0  0  0  0  0  0  0  0
    0.6090    9.3910  -11.5110 C   0  0  0  0  0  0  0  0  0  0  0  0
    2.0380    8.1370   -9.8180 C   0  0  0  0  0  0  0  0  0  0  0  0
    1.1750    8.0370  -11.0680 C   0  0  0  0  0  0  0  0  0  0  0  0
  2  1  1  6
  2  3  1  0
  2  4  1  0
  4  5  1  0
  5  6  1  0
  5  7  1  0
  6  8  1  1
  6  9  1  0
  7 10  1  0
  7 11  1  0
 10 12  1  0
 11 13  1  0
  9 14  1  0
 12 15  1  0
 13 15  1  0
 14 16  1  0
 14 17  1  0
 16 18  1  0
 17 19  1  0
 18 20  1  0
 19 20  1  0
M  CHG  1   1  -1
M  END
