ucsf365-ucsf172
     RDKit          3D

 25 26  0  0  0  0  0  0  0  0999 V2000
    0.5920   10.5190   -2.3160 O   0  0  0  0  0  0  0  0  0  0  0  0
    0.4450   11.8210   -2.5130 C   0  0  1  0  0  0  0  0  0  0  0  0
    1.6400   12.3770   -2.0140 O   0  0  0  0  0  0  0  0  0  0  0  0
    0.4240   12.1560   -4.0230 C   0  0  0  0  0  0  0  0  0  0  0  0
   -0.8390   12.9680   -4.3910 C   0  0  2  0  0  0  0  0  0  0  0  0
   -1.9320   12.2000   -5.1300 C   0  0  2  0  0  0  0  0  0  0  0  0
   -0.4810   14.2730   -5.1130 C   0  0  0  0  0  0  0  0  0  0  0  0
   -1.3880   11.0270   -5.7230 O   0  0  0  0  0  0  0  0  0  0  0  0
   -2.6300   13.0460   -6.1900 C   0  0  0  0  0  0  0  0  0  0  0  0
   -1.6950   15.1850   -5.1410 C   0  0  2  0  0  0  0  0  0  0  0  0
   -2.0210   15.5750   -3.8120 O   0  0  0  0  0  0  0  0  0  0  0  0
   -2.9210   14.4840   -5.7420 C   0  0  0  0  0  0  0  0  0  0  0  0
   -1.4320   14.8850   -2.7080 C   0  0  2  0  0  0  0  0  0  0  0  0
   -0.5970   13.8430   -3.1150 O   0  0  0  0  0  0  0  0  0  0  0  0
   -2.5910   14.3740   -1.8540 C   0  0  1  0  0  0  0  0  0  0  0  0
   -2.1800   14.3920   -0.3550 C   0  0  0  0  0  0  0  0  0  0  0  0
   -3.8440   15.1800   -2.3000 C   0  0  0  0  0  0  0  0  0  0  0  0
   -3.2120   14.9780    0.5810 C   0  0  0  0  0  0  0  0  0  0  0  0
   -4.9050   15.4200   -1.2460 C   0  0  0  0  0  0  0  0  0  0  0  0
   -4.6160   14.6990    0.0660 C   0  0  2  0  0  0  0  0  0  0  0  0
   -5.5550   15.1080    1.0760 N   0  0  0  0  0  0  0  0  0  0  0  0
   -6.9880   14.3500    1.3140 S   0  0  0  0  0  0  0  0  0  0  0  0
   -8.1150   14.9760    2.5020 C   0  0  0  0  0  0  0  0  0  0  0  0
   -6.7010   12.8720    1.8190 O   0  0  0  0  0  0  0  0  0  0  0  0
   -7.8300   14.2550   -0.0450 O   0  0  0  0  0  0  0  0  0  0  0  0
  2  1  1  6
  2  3  1  0
  2  4  1  0
  5  4  1  6
  5  6  1  0
  5  7  1  0
  6  8  1  6
  6  9  1  0
  7 10  1  0
 10 11  1  1
  9 12  1  0
 10 12  1  0
 11 13  1  0
 13 14  1  6
 13 15  1  0
 15 16  1  1
 15 17  1  0
 16 18  1  0
 17 19  1  0
 18 20  1  0
 19 20  1  0
 20 21  1  1
 21 22  1  0
 22 23  1  0
 22 24  1  0
 22 25  1  0
M  CHG  1   1  -1
M  END
