ucsf337-ucsf013
     RDKit          3D

 13 14  0  0  0  0  0  0  0  0999 V2000
   -8.0850   13.3480    1.1020 C   0  0  0  0  0  0  0  0  0  0  0  0
   -6.7820   12.6830    0.6310 C   0  0  0  0  0  0  0  0  0  0  0  0
   -6.4330   13.0050   -0.7530 N   0  0  0  0  0  0  0  0  0  0  0  0
   -5.0730   13.5470   -0.7820 C   0  0  2  0  0  0  0  0  0  0  0  0
   -7.3290   14.0710   -1.1610 N   0  0  0  0  0  0  0  0  0  0  0  0
   -4.9960   14.6960    0.2450 C   0  0  1  0  0  0  0  0  0  0  0  0
   -4.6150   14.1550   -2.1620 C   0  0  1  0  0  0  0  0  0  0  0  0
   -7.3220   15.1550   -0.2040 C   0  0  0  0  0  0  0  0  0  0  0  0
   -5.6530   14.6230   -3.1060 N   0  0  0  0  0  0  0  0  0  0  0  0
   -3.6640   14.4420    1.6420 Br  0  0  0  0  0  0  0  0  0  0  0  0
   -4.4940   15.9050   -0.5050 C   0  0  0  0  0  0  0  0  0  0  0  0
   -3.7750   15.3480   -1.7230 C   0  0  0  0  0  0  0  0  0  0  0  0
   -6.2950   14.9710    0.8330 N   0  0  0  0  0  0  0  0  0  0  0  0
  1  2  1  0
  2  3  1  0
  4  3  1  6
  3  5  1  0
  4  6  1  0
  4  7  1  0
  5  8  1  0
  7  9  1  6
  6 10  1  1
  6 11  1  0
  7 12  1  0
 11 12  1  0
  6 13  1  0
  8 13  1  0
M  END
