ucsf013-ucsf169
     RDKit          3D

 25 27  0  0  0  0  0  0  0  0999 V2000
   -3.9530   14.5790    1.9790 N   0  0  0  0  0  0  0  0  0  0  0  0
   -5.0210   15.0630    1.1410 C   0  0  2  0  0  0  0  0  0  0  0  0
   -6.2720   14.7070    1.7420 N   0  0  0  0  0  0  0  0  0  0  0  0
   -4.9410   14.5000   -0.2430 C   0  0  1  0  0  0  0  0  0  0  0  0
   -6.0290   15.1690   -1.0960 C   0  0  2  0  0  0  0  0  0  0  0  0
   -7.3110   14.2960    0.8080 C   0  0  0  0  0  0  0  0  0  0  0  0
   -3.5510   14.7190   -0.8340 C   0  0  0  0  0  0  0  0  0  0  0  0
   -7.3510   15.0020   -0.4830 N   0  0  0  0  0  0  0  0  0  0  0  0
   -5.9870   14.6360   -2.5320 C   0  0  0  0  0  0  0  0  0  0  0  0
   -3.6630   15.4540   -2.1610 C   0  0  1  0  0  0  0  0  0  0  0  0
   -2.3540   15.7750   -2.8320 C   0  0  0  0  0  0  0  0  0  0  0  0
   -4.5700   14.6750   -3.1020 C   0  0  0  0  0  0  0  0  0  0  0  0
   -2.2300   15.5370   -4.3430 C   0  0  1  0  0  0  0  0  0  0  0  0
   -1.6790   16.7350   -5.1260 C   0  0  1  0  0  0  0  0  0  0  0  0
   -1.4020   14.3230   -4.6960 C   0  0  0  0  0  0  0  0  0  0  0  0
   -2.2100   18.0170   -4.7480 O   0  0  0  0  0  0  0  0  0  0  0  0
   -0.1390   16.8230   -5.2490 C   0  0  1  0  0  0  0  0  0  0  0  0
   -0.0530   14.5010   -4.0160 C   0  0  1  0  0  0  0  0  0  0  0  0
    0.3810   17.9950   -4.6640 O   0  0  0  0  0  0  0  0  0  0  0  0
    0.7210   13.1680   -3.8130 C   0  0  0  0  0  0  0  0  0  0  0  0
    0.7150   15.6130   -4.7520 C   0  0  0  0  0  0  0  0  0  0  0  0
    1.2690   18.5800   -5.5770 C   0  0  0  0  0  0  0  0  0  0  0  0
    0.0820   12.3280   -2.6580 C   0  0  2  0  0  0  0  0  0  0  0  0
    0.6040   12.7110   -1.3940 O   0  0  0  0  0  0  0  0  0  0  0  0
    0.4770   11.0830   -2.7050 O   0  0  0  0  0  0  0  0  0  0  0  0
  2  1  1  1
  2  3  1  0
  2  4  1  0
  4  5  1  0
  3  6  1  0
  4  7  1  6
  5  8  1  0
  6  8  1  0
  5  9  1  6
  7 10  1  0
 10 11  1  6
  9 12  1  0
 10 12  1  0
 13 11  1  1
 13 14  1  0
 13 15  1  0
 14 16  1  1
 14 17  1  0
 15 18  1  0
 17 19  1  1
 18 20  1  6
 17 21  1  0
 18 21  1  0
 19 22  1  0
 20 23  1  0
 23 24  1  1
 23 25  1  0
M  CHG  1  25  -1
M  END
