ucsf367-ucsf333
     RDKit          3D

 22 24  0  0  0  0  0  0  0  0999 V2000
    0.5990   10.4490   -2.5590 O   0  0  0  0  0  0  0  0  0  0  0  0
    0.2280   11.7150   -2.7690 C   0  0  1  0  0  0  0  0  0  0  0  0
    0.7140   12.2690   -1.5570 O   0  0  0  0  0  0  0  0  0  0  0  0
    0.9410   12.4030   -4.0100 C   0  0  1  0  0  0  0  0  0  0  0  0
    0.5120   11.9330   -5.3330 O   0  0  0  0  0  0  0  0  0  0  0  0
    0.9060   13.9720   -4.0210 C   0  0  0  0  0  0  0  0  0  0  0  0
   -0.4080   10.8300   -5.3710 C   0  0  0  0  0  0  0  0  0  0  0  0
   -0.1470   14.8100   -3.2100 C   0  0  1  0  0  0  0  0  0  0  0  0
   -0.3740   10.1730   -6.7560 C   0  0  0  0  0  0  0  0  0  0  0  0
   -1.8410   11.3040   -5.1390 C   0  0  0  0  0  0  0  0  0  0  0  0
   -1.5660   14.6470   -3.5420 N   0  0  0  0  0  0  0  0  0  0  0  0
   -0.0350   14.5450   -1.3730 S   0  0  0  0  0  0  0  0  0  0  0  0
   -1.2640    8.9290   -6.7730 C   0  0  0  0  0  0  0  0  0  0  0  0
   -2.8170   10.1260   -5.1460 C   0  0  0  0  0  0  0  0  0  0  0  0
   -2.3160   15.2060   -2.4240 C   0  0  2  0  0  0  0  0  0  0  0  0
   -1.8360   14.5440   -1.1500 C   0  0  2  0  0  0  0  0  0  0  0  0
   -2.7090    9.2780   -6.4110 C   0  0  0  0  0  0  0  0  0  0  0  0
   -3.8350   15.0890   -2.5710 C   0  0  0  0  0  0  0  0  0  0  0  0
   -2.3860   15.2790    0.0700 C   0  0  0  0  0  0  0  0  0  0  0  0
   -4.5800   14.8520   -1.2400 C   0  0  1  0  0  0  0  0  0  0  0  0
   -3.9220   15.4200    0.0320 C   0  0  0  0  0  0  0  0  0  0  0  0
   -6.2580   15.4520   -1.3770 Cl  0  0  0  0  0  0  0  0  0  0  0  0
  2  1  1  1
  2  3  1  0
  2  4  1  0
  4  5  1  0
  4  6  1  6
  5  7  1  0
  8  6  1  6
  7  9  1  0
  7 10  1  0
  8 11  1  0
  8 12  1  0
  9 13  1  0
 10 14  1  0
 11 15  1  0
 12 16  1  0
 15 16  1  0
 13 17  1  0
 14 17  1  0
 15 18  1  6
 16 19  1  1
 18 20  1  0
 19 21  1  0
 20 21  1  0
 20 22  1  6
M  CHG  1   1  -1
M  END
