ucsf403-ucsf396
     RDKit          3D

 25 26  0  0  0  0  0  0  0  0999 V2000
    0.7910    9.2580   -7.9170 Cl  0  0  0  0  0  0  0  0  0  0  0  0
   -0.7560    9.7960   -7.1550 C   0  0  2  0  0  0  0  0  0  0  0  0
   -0.6060   11.1170   -6.3410 C   0  0  2  0  0  0  0  0  0  0  0  0
   -1.3200    8.6590   -6.3130 C   0  0  0  0  0  0  0  0  0  0  0  0
    0.6680   11.1910   -5.6990 O   0  0  0  0  0  0  0  0  0  0  0  0
   -1.6730   11.2550   -5.2240 C   0  0  1  0  0  0  0  0  0  0  0  0
   -2.7010    8.9730   -5.7510 C   0  0  0  0  0  0  0  0  0  0  0  0
   -1.9800   12.7180   -4.8020 C   0  0  0  0  0  0  0  0  0  0  0  0
    0.9850   12.4120   -5.0050 C   0  0  0  0  0  0  0  0  0  0  0  0
   -2.9580   10.4700   -5.5390 C   0  0  0  0  0  0  0  0  0  0  0  0
    1.4280   12.1420   -3.5280 C   0  0  2  0  0  0  0  0  0  0  0  0
   -1.2330   13.3460   -3.6180 C   0  0  0  0  0  0  0  0  0  0  0  0
    0.7620   11.1980   -2.9080 O   0  0  0  0  0  0  0  0  0  0  0  0
    0.9920   13.1760   -2.7220 O   0  0  0  0  0  0  0  0  0  0  0  0
   -2.0210   14.3780   -2.8160 C   0  0  0  0  0  0  0  0  0  0  0  0
   -1.9230   14.1620   -1.3020 C   0  0  0  0  0  0  0  0  0  0  0  0
   -3.2530   14.0170   -0.7380 N   0  0  0  0  0  0  0  0  0  0  0  0
   -3.6070   15.0150    0.2300 C   0  0  2  0  0  0  0  0  0  0  0  0
   -3.1020   14.6540    1.5100 O   0  0  0  0  0  0  0  0  0  0  0  0
   -5.1210   15.2750    0.2320 C   0  0  1  0  0  0  0  0  0  0  0  0
   -5.7900   14.9370   -1.1080 C   0  0  0  0  0  0  0  0  0  0  0  0
   -5.8060   14.6030    1.4340 C   0  0  0  0  0  0  0  0  0  0  0  0
   -7.0550   14.1980   -0.9960 N   0  0  0  0  0  0  0  0  0  0  0  0
   -7.3380   14.5200    1.4270 C   0  0  0  0  0  0  0  0  0  0  0  0
   -7.9390   14.6980    0.0450 C   0  0  0  0  0  0  0  0  0  0  0  0
  2  1  1  1
  2  3  1  0
  2  4  1  0
  3  5  1  1
  3  6  1  0
  4  7  1  0
  6  8  1  6
  5  9  1  0
  6 10  1  0
  7 10  1  0
  9 11  1  0
  8 12  1  0
 11 13  1  1
 11 14  1  0
 12 15  1  0
 15 16  1  0
 16 17  1  0
 17 18  1  0
 18 19  1  1
 18 20  1  0
 20 21  1  6
 20 22  1  0
 21 23  1  0
 22 24  1  0
 23 25  1  0
 24 25  1  0
M  CHG  1  13  -1
M  END
