ucsf109-ucsf039
     RDKit          3D

 24 28  0  0  0  0  0  0  0  0999 V2000
   -3.8540   14.8590    2.1180 N   0  0  0  0  0  0  0  0  0  0  0  0
   -4.5800   14.5320    0.9010 C   0  0  2  0  0  0  0  0  0  0  0  0
   -3.9710   15.2680   -0.2890 C   0  0  2  0  0  0  0  0  0  0  0  0
   -5.9860   14.8540    1.1250 N   0  0  0  0  0  0  0  0  0  0  0  0
   -6.8010   14.7660   -0.0910 C   0  0  1  0  0  0  0  0  0  0  0  0
   -4.9470   15.2290   -1.4770 C   0  0  2  0  0  0  0  0  0  0  0  0
   -2.5340   14.8590   -0.7730 C   0  0  1  0  0  0  0  0  0  0  0  0
   -6.6690   14.0050    2.1240 N   0  0  0  0  0  0  0  0  0  0  0  0
   -6.0740   14.2910   -1.2510 N   0  0  0  0  0  0  0  0  0  0  0  0
   -4.0830   15.0240   -2.7430 C   0  0  0  0  0  0  0  0  0  0  0  0
   -2.6520   14.6000   -2.3130 C   0  0  1  0  0  0  0  0  0  0  0  0
   -7.9370   13.9410    0.2780 N   0  0  0  0  0  0  0  0  0  0  0  0
   -8.0520   14.1530    1.7080 C   0  0  0  0  0  0  0  0  0  0  0  0
   -1.5090   15.8730   -0.3270 N   0  0  0  0  0  0  0  0  0  0  0  0
   -1.9250   13.6440   -0.1220 C   0  0  0  0  0  0  0  0  0  0  0  0
   -1.4150   14.8160   -3.2780 C   0  0  0  0  0  0  0  0  0  0  0  0
   -0.4890   13.8500   -0.2800 N   0  0  0  0  0  0  0  0  0  0  0  0
   -0.4010   15.1460    0.3070 C   0  0  0  0  0  0  0  0  0  0  0  0
   -0.8190   16.1850   -3.6890 C   0  0  1  0  0  0  0  0  0  0  0  0
    0.6290   16.0680   -4.2290 C   0  0  0  0  0  0  0  0  0  0  0  0
   -1.5940   16.8190   -4.7630 N   0  0  0  0  0  0  0  0  0  0  0  0
   -0.8670   18.0320   -5.1390 C   0  0  1  0  0  0  0  0  0  0  0  0
    0.8800   17.5960   -5.1700 S   0  0  0  0  0  0  0  0  0  0  0  0
   -1.3200   18.5780   -6.4820 C   0  0  0  0  0  0  0  0  0  0  0  0
  2  1  1  1
  3  2  1  1
  2  4  1  0
  4  5  1  0
  3  6  1  0
  3  7  1  0
  4  8  1  0
  5  9  1  6
  6  9  1  0
  6 10  1  6
  7 11  1  0
 10 11  1  0
  5 12  1  0
  8 13  1  0
 12 13  1  0
  7 14  1  0
  7 15  1  1
 11 16  1  6
 15 17  1  0
 14 18  1  0
 17 18  1  0
 19 16  1  6
 19 20  1  0
 19 21  1  0
 21 22  1  0
 20 23  1  0
 22 23  1  0
 22 24  1  6
M  END
