ucsf147-ucsf278
     RDKit          3D

 22 24  0  0  0  0  0  0  0  0999 V2000
    0.8960   11.9980   -4.6070 C   0  0  0  0  0  0  0  0  0  0  0  0
    0.0340   13.2500   -4.6640 C   0  0  1  0  0  0  0  0  0  0  0  0
   -1.1280   12.8960   -5.5460 N   0  0  0  0  0  0  0  0  0  0  0  0
   -0.6390   13.7380   -3.2800 C   0  0  2  0  0  0  0  0  0  0  0  0
    1.0320   14.2900   -5.2240 C   0  0  0  0  0  0  0  0  0  0  0  0
   -0.1370   13.2070   -1.8690 C   0  0  1  0  0  0  0  0  0  0  0  0
   -1.1090   11.6300   -6.2760 C   0  0  0  0  0  0  0  0  0  0  0  0
   -2.3300   12.9510   -4.7440 N   0  0  0  0  0  0  0  0  0  0  0  0
   -2.1300   13.9820   -3.6890 C   0  0  1  0  0  0  0  0  0  0  0  0
   -0.2370   15.2260   -3.0240 C   0  0  1  0  0  0  0  0  0  0  0  0
    1.9810   14.6760   -4.1280 C   0  0  0  0  0  0  0  0  0  0  0  0
    0.4700   11.9500   -1.7980 O   0  0  0  0  0  0  0  0  0  0  0  0
    0.8240   13.9370   -1.3720 O   0  0  0  0  0  0  0  0  0  0  0  0
   -1.9550   10.6620   -5.6360 O   0  0  0  0  0  0  0  0  0  0  0  0
   -0.7770   15.8150   -1.4090 Cl  0  0  0  0  0  0  0  0  0  0  0  0
   -3.2430   14.0300   -2.5900 C   0  0  0  0  0  0  0  0  0  0  0  0
    1.2480   15.4900   -3.1190 C   0  0  0  0  0  0  0  0  0  0  0  0
   -2.6500   14.1910   -1.1690 C   0  0  0  0  0  0  0  0  0  0  0  0
   -4.2140   15.2140   -2.7940 C   0  0  0  0  0  0  0  0  0  0  0  0
   -3.6970   14.3390   -0.0650 C   0  0  0  0  0  0  0  0  0  0  0  0
   -5.2920   15.3310   -1.7190 C   0  0  0  0  0  0  0  0  0  0  0  0
   -4.7080   15.4460   -0.3250 C   0  0  0  0  0  0  0  0  0  0  0  0
  2  1  1  1
  2  3  1  0
  4  2  1  0
  2  5  1  0
  4  6  1  1
  3  7  1  0
  3  8  1  0
  4  9  1  0
  8  9  1  0
  4 10  1  0
  5 11  1  0
  6 12  1  6
  6 13  1  0
  7 14  1  0
 10 15  1  1
  9 16  1  1
 10 17  1  0
 11 17  1  0
 16 18  1  0
 16 19  1  0
 18 20  1  0
 19 21  1  0
 20 22  1  0
 21 22  1  0
M  CHG  1  13  -1
M  END
