ucsf380-ucsf114
     RDKit          3D

 29 31  0  0  0  0  0  0  0  0999 V2000
    0.7680   13.5290   -2.7080 O   0  0  0  0  0  0  0  0  0  0  0  0
    0.1300   13.1040   -1.6450 C   0  0  2  0  0  0  0  0  0  0  0  0
    0.7130   11.8450   -1.4510 O   0  0  0  0  0  0  0  0  0  0  0  0
   -1.3830   12.8610   -1.8580 C   0  0  1  0  0  0  0  0  0  0  0  0
   -2.4600   13.8030   -1.1710 C   0  0  1  0  0  0  0  0  0  0  0  0
   -1.7120   12.2680   -3.2800 C   0  0  0  0  0  0  0  0  0  0  0  0
   -1.9660   15.0920   -0.3850 C   0  0  2  0  0  0  0  0  0  0  0  0
   -3.6330   14.1550   -2.1400 C   0  0  0  0  0  0  0  0  0  0  0  0
   -3.1790   11.9100   -3.4800 C   0  0  0  0  0  0  0  0  0  0  0  0
   -1.1310   12.9160   -4.5510 C   0  0  0  0  0  0  0  0  0  0  0  0
   -3.2010   15.7270    0.3540 C   0  0  0  0  0  0  0  0  0  0  0  0
   -4.3360   15.4680   -1.8370 C   0  0  0  0  0  0  0  0  0  0  0  0
   -3.3040   10.9080   -4.6180 C   0  0  0  0  0  0  0  0  0  0  0  0
   -1.3320   12.0400   -5.7810 C   0  0  0  0  0  0  0  0  0  0  0  0
   -1.2380   16.0190   -1.3650 C   0  0  0  0  0  0  0  0  0  0  0  0
   -0.8220   15.0420    0.6820 C   0  0  1  0  0  0  0  0  0  0  0  0
   -1.0070   14.1220    1.7350 O   0  0  0  0  0  0  0  0  0  0  0  0
   -4.5300   15.6810   -0.3650 C   0  0  0  0  0  0  0  0  0  0  0  0
   -2.0100   10.7250   -5.4150 C   0  0  0  0  0  0  0  0  0  0  0  0
   -0.0970   15.3920   -2.0430 N   0  0  0  0  0  0  0  0  0  0  0  0
    0.5550   15.0230    0.1770 N   0  0  0  0  0  0  0  0  0  0  0  0
   -0.3670   14.9550   -3.4240 C   0  0  0  0  0  0  0  0  0  0  0  0
    0.7440   14.5730   -1.1940 C   0  0  2  0  0  0  0  0  0  0  0  0
    0.2840   15.8300   -4.5040 C   0  0  0  0  0  0  0  0  0  0  0  0
    2.4920   14.3060   -1.6550 S   0  0  0  0  0  0  0  0  0  0  0  0
   -0.7340   16.4760   -5.2830 O   0  0  0  0  0  0  0  0  0  0  0  0
   -0.3550   17.7940   -5.6890 C   0  0  0  0  0  0  0  0  0  0  0  0
    0.8410   18.2160   -4.8530 C   0  0  0  0  0  0  0  0  0  0  0  0
   -1.5580   18.6910   -5.4470 C   0  0  0  0  0  0  0  0  0  0  0  0
  2  1  1  6
  2  3  1  0
  2  4  1  0
  4  5  1  0
  4  6  1  6
  5  7  1  0
  5  8  1  6
  6  9  1  0
  6 10  1  0
  7 11  1  1
  8 12  1  0
  9 13  1  0
 10 14  1  0
  7 15  1  0
  7 16  1  0
 16 17  1  6
 11 18  1  0
 12 18  1  0
 13 19  1  0
 14 19  1  0
 15 20  1  0
 16 21  1  0
 20 22  1  0
 20 23  1  0
 21 23  1  0
 22 24  1  0
 23 25  1  6
 24 26  1  0
 26 27  1  0
 27 28  1  0
 27 29  1  0
M  CHG  1   1  -1
M  END
