ucsf336-ucsf392
     RDKit          3D

 23 24  0  0  0  0  0  0  0  0999 V2000
    2.0500   12.9550   -4.2110 O   0  0  0  0  0  0  0  0  0  0  0  0
    0.9190   13.0920   -3.5310 C   0  0  2  0  0  0  0  0  0  0  0  0
    1.1980   12.9230   -2.1150 O   0  0  0  0  0  0  0  0  0  0  0  0
   -0.0670   11.9090   -3.9700 C   0  0  2  0  0  0  0  0  0  0  0  0
    0.2130   10.7510   -3.1840 O   0  0  0  0  0  0  0  0  0  0  0  0
    0.0750   11.6170   -5.3940 N   0  0  0  0  0  0  0  0  0  0  0  0
    1.8240   14.0780   -1.5660 C   0  0  0  0  0  0  0  0  0  0  0  0
    0.9210   14.8560   -0.5920 C   0  0  0  0  0  0  0  0  0  0  0  0
   -0.6340   10.4430   -5.8830 C   0  0  0  0  0  0  0  0  0  0  0  0
    0.0440   14.1890    0.4850 C   0  0  0  0  0  0  0  0  0  0  0  0
   -0.4410   10.1180   -7.3670 C   0  0  0  0  0  0  0  0  0  0  0  0
   -2.1210   10.4120   -5.4730 C   0  0  0  0  0  0  0  0  0  0  0  0
   -1.1600    8.8270   -7.7590 C   0  0  0  0  0  0  0  0  0  0  0  0
   -2.8200    9.1130   -5.8600 C   0  0  0  0  0  0  0  0  0  0  0  0
   -1.4560   14.2710    0.2290 C   0  0  1  0  0  0  0  0  0  0  0  0
   -2.6280    8.7610   -7.3260 C   0  0  0  0  0  0  0  0  0  0  0  0
   -2.1040   15.2080    1.1480 N   0  0  0  0  0  0  0  0  0  0  0  0
   -1.6710   14.7440   -1.0980 N   0  0  0  0  0  0  0  0  0  0  0  0
   -3.4580   15.6290    0.7900 C   0  0  2  0  0  0  0  0  0  0  0  0
   -3.0510   14.5260   -1.4440 C   0  0  0  0  0  0  0  0  0  0  0  0
   -4.3430   14.9430    1.6920 N   0  0  0  0  0  0  0  0  0  0  0  0
   -3.9380   15.5000   -0.6740 C   0  0  1  0  0  0  0  0  0  0  0  0
   -5.4310   15.2250   -0.8410 C   0  0  0  0  0  0  0  0  0  0  0  0
  2  1  1  6
  2  3  1  0
  2  4  1  0
  4  5  1  1
  4  6  1  0
  3  7  1  0
  7  8  1  0
  6  9  1  0
  8 10  1  0
  9 11  1  0
  9 12  1  0
 11 13  1  0
 12 14  1  0
 15 10  1  1
 13 16  1  0
 14 16  1  0
 15 17  1  0
 15 18  1  0
 17 19  1  0
 18 20  1  0
 19 21  1  1
 19 22  1  0
 20 22  1  0
 22 23  1  1
M  CHG  1   1  -1
M  END
