ucsf224-ucsf412
     RDKit          3D

 25 27  0  0  0  0  0  0  0  0999 V2000
   -1.1970   18.3130   -5.4370 Cl  0  0  0  0  0  0  0  0  0  0  0  0
   -0.5750   16.9200   -4.4990 C   0  0  1  0  0  0  0  0  0  0  0  0
   -1.4830   15.6760   -4.5470 C   0  0  1  0  0  0  0  0  0  0  0  0
    0.9000   16.6390   -4.7750 C   0  0  0  0  0  0  0  0  0  0  0  0
   -2.8580   15.7650   -5.2250 C   0  0  0  0  0  0  0  0  0  0  0  0
   -0.7120   14.4010   -4.9050 C   0  0  0  0  0  0  0  0  0  0  0  0
    1.4430   15.3500   -4.1000 C   0  0  0  0  0  0  0  0  0  0  0  0
   -3.6950   14.4960   -5.2760 C   0  0  0  0  0  0  0  0  0  0  0  0
    0.4050   14.2240   -3.9070 C   0  0  2  0  0  0  0  0  0  0  0  0
    0.9840   12.7850   -3.7970 C   0  0  0  0  0  0  0  0  0  0  0  0
   -4.8030   14.2890   -4.2340 C   0  0  0  0  0  0  0  0  0  0  0  0
    1.1000   12.0580   -2.4220 C   0  0  2  0  0  0  0  0  0  0  0  0
   -4.5840   14.4790   -2.7070 C   0  0  1  0  0  0  0  0  0  0  0  0
    0.5070   10.8690   -2.4070 O   0  0  0  0  0  0  0  0  0  0  0  0
    0.5410   12.7980   -1.3470 O   0  0  0  0  0  0  0  0  0  0  0  0
   -3.2810   15.0470   -2.1300 C   0  0  0  0  0  0  0  0  0  0  0  0
   -5.7500   15.0970   -1.9840 C   0  0  0  0  0  0  0  0  0  0  0  0
   -5.8260   14.3040   -0.7020 C   0  0  2  0  0  0  0  0  0  0  0  0
   -3.3180   15.1790   -0.5930 C   0  0  0  0  0  0  0  0  0  0  0  0
   -7.2300   14.3710   -0.0310 C   0  0  2  0  0  0  0  0  0  0  0  0
   -4.5170   14.5010    0.1380 C   0  0  1  0  0  0  0  0  0  0  0  0
   -8.1140   15.1400   -0.7990 O   0  0  0  0  0  0  0  0  0  0  0  0
   -4.7980   15.2240    1.4340 C   0  0  0  0  0  0  0  0  0  0  0  0
   -7.3270   14.9220    1.2780 N   0  0  0  0  0  0  0  0  0  0  0  0
   -6.1300   14.7360    2.0350 C   0  0  0  0  0  0  0  0  0  0  0  0
  2  1  1  6
  2  3  1  0
  2  4  1  0
  3  5  1  6
  3  6  1  0
  4  7  1  0
  5  8  1  0
  6  9  1  0
  7  9  1  0
  9 10  1  6
  8 11  1  0
 10 12  1  0
 13 11  1  6
 12 14  1  6
 12 15  1  0
 13 16  1  0
 13 17  1  0
 18 17  1  6
 16 19  1  0
 18 20  1  0
 18 21  1  0
 21 19  1  6
 20 22  1  6
 21 23  1  0
 20 24  1  0
 23 25  1  0
 24 25  1  0
M  CHG  1  14  -1
M  END
