ucsf262-ucsf442
     RDKit          3D

 26 29  0  0  0  0  0  0  0  0999 V2000
   -3.1160   15.6040   -5.6180 Cl  0  0  0  0  0  0  0  0  0  0  0  0
   -1.8350   16.6850   -4.9670 C   0  0  1  0  0  0  0  0  0  0  0  0
   -0.4730   15.9970   -4.8890 C   0  0  2  0  0  0  0  0  0  0  0  0
   -1.7710   17.9950   -5.7820 C   0  0  0  0  0  0  0  0  0  0  0  0
   -0.2900   14.8720   -3.8560 C   0  0  0  0  0  0  0  0  0  0  0  0
    0.6060   16.9720   -4.5200 C   0  0  1  0  0  0  0  0  0  0  0  0
   -0.4040   18.4640   -6.3320 C   0  0  0  0  0  0  0  0  0  0  0  0
    1.0680   15.1860   -3.1880 C   0  0  2  0  0  0  0  0  0  0  0  0
    1.6940   16.0680   -4.2040 N   0  0  0  0  0  0  0  0  0  0  0  0
    0.8670   17.9940   -5.6050 C   0  0  0  0  0  0  0  0  0  0  0  0
    1.8910   13.9610   -2.5860 C   0  0  2  0  0  0  0  0  0  0  0  0
    2.1430   13.0550   -3.4990 O   0  0  0  0  0  0  0  0  0  0  0  0
    1.0850   13.4080   -1.5470 O   0  0  0  0  0  0  0  0  0  0  0  0
    0.7530   14.4410   -0.6240 C   0  0  0  0  0  0  0  0  0  0  0  0
    0.1080   14.0610    0.7110 C   0  0  0  0  0  0  0  0  0  0  0  0
   -1.2770   14.1410    0.6570 O   0  0  0  0  0  0  0  0  0  0  0  0
   -1.6500   15.4560    0.4160 C   0  0  2  0  0  0  0  0  0  0  0  0
   -2.7820   15.7470    1.2320 N   0  0  0  0  0  0  0  0  0  0  0  0
   -1.9130   15.5230   -1.0220 N   0  0  0  0  0  0  0  0  0  0  0  0
   -3.8440   14.8870    0.8570 C   0  0  2  0  0  0  0  0  0  0  0  0
   -3.1980   15.0500   -1.4760 C   0  0  2  0  0  0  0  0  0  0  0  0
   -3.4530   15.6100   -2.7570 O   0  0  0  0  0  0  0  0  0  0  0  0
   -4.3220   15.3550   -0.4770 C   0  0  1  0  0  0  0  0  0  0  0  0
   -5.0460   15.1320    1.5980 N   0  0  0  0  0  0  0  0  0  0  0  0
   -5.6120   14.6480   -0.6260 N   0  0  0  0  0  0  0  0  0  0  0  0
   -6.0610   14.5230    0.7710 C   0  0  0  0  0  0  0  0  0  0  0  0
  2  1  1  6
  2  3  1  0
  2  4  1  0
  3  5  1  1
  3  6  1  0
  4  7  1  0
  8  5  1  6
  6  9  1  0
  8  9  1  0
  6 10  1  6
  7 10  1  0
  8 11  1  0
 11 12  1  6
 11 13  1  0
 13 14  1  0
 14 15  1  0
 15 16  1  0
 17 16  1  1
 17 18  1  0
 17 19  1  0
 20 18  1  1
 19 21  1  0
 21 22  1  6
 20 23  1  0
 21 23  1  0
 20 24  1  0
 23 25  1  6
 24 26  1  0
 25 26  1  0
M  CHG  1  12  -1
M  END
