ucsf378-ucsf303
     RDKit          3D

 26 28  0  0  0  0  0  0  0  0999 V2000
   -2.5340   14.0740   -3.8340 C   0  0  0  0  0  0  0  0  0  0  0  0
   -3.6120   14.4820   -2.4540 S   0  0  1  0  0  0  0  0  0  0  0  0
   -4.3560   15.7590   -3.0450 O   0  0  0  0  0  0  0  0  0  0  0  0
   -1.0590   14.5230   -3.6820 C   0  0  1  0  0  0  0  0  0  0  0  0
   -4.8290   13.4120   -2.1040 N   0  0  0  0  0  0  0  0  0  0  0  0
    0.0070   13.5000   -4.2160 C   0  0  2  0  0  0  0  0  0  0  0  0
   -0.7900   15.8990   -4.3020 C   0  0  0  0  0  0  0  0  0  0  0  0
   -2.8490   15.2360   -1.0280 C   0  0  0  0  0  0  0  0  0  0  0  0
   -0.2290   12.0290   -3.7090 C   0  0  0  0  0  0  0  0  0  0  0  0
    1.4240   13.9800   -3.8320 C   0  0  1  0  0  0  0  0  0  0  0  0
    0.5750   16.4180   -3.9130 C   0  0  0  0  0  0  0  0  0  0  0  0
   -4.6500   12.1050   -1.5580 C   0  0  1  0  0  0  0  0  0  0  0  0
   -1.7980   14.3380   -0.3520 C   0  0  0  0  0  0  0  0  0  0  0  0
   -3.8700   15.7490   -0.0120 C   0  0  0  0  0  0  0  0  0  0  0  0
    2.7460   12.9500   -4.4790 Cl  0  0  0  0  0  0  0  0  0  0  0  0
    0.5280   11.5650   -2.4390 C   0  0  1  0  0  0  0  0  0  0  0  0
    1.6720   15.4210   -4.2610 C   0  0  0  0  0  0  0  0  0  0  0  0
   -5.7880   11.2750   -1.8380 N   0  0  0  0  0  0  0  0  0  0  0  0
   -3.2420   11.3790   -2.3800 S   0  0  0  0  0  0  0  0  0  0  0  0
   -1.5980   14.6790    1.1220 C   0  0  0  0  0  0  0  0  0  0  0  0
   -4.1310   14.7620    1.1070 C   0  0  0  0  0  0  0  0  0  0  0  0
   -0.0760   11.9560   -1.3300 O   0  0  0  0  0  0  0  0  0  0  0  0
    0.3650   10.1600   -2.3570 O   0  0  0  0  0  0  0  0  0  0  0  0
   -4.0010    9.7480   -2.3630 C   0  0  0  0  0  0  0  0  0  0  0  0
   -5.4170    9.8730   -1.9830 N   0  0  0  0  0  0  0  0  0  0  0  0
   -2.8770   14.4600    1.9000 C   0  0  0  0  0  0  0  0  0  0  0  0
  1  2  1  0
  2  3  1  6
  4  1  1  6
  2  5  1  0
  4  6  1  0
  4  7  1  0
  2  8  1  0
  6  9  1  1
  6 10  1  0
  7 11  1  0
 12  5  1  6
  8 13  1  0
  8 14  1  0
 10 15  1  6
  9 16  1  0
 10 17  1  0
 11 17  1  0
 12 18  1  0
 12 19  1  0
 13 20  1  0
 14 21  1  0
 16 22  1  1
 16 23  1  0
 19 24  1  0
 18 25  1  0
 24 25  1  0
 20 26  1  0
 21 26  1  0
M  CHG  1  22  -1
M  END
