ucsf442-ucsf357
     RDKit          3D

 16 17  0  0  0  0  0  0  0  0999 V2000
   -0.2830   15.3330    0.6150 O   0  0  0  0  0  0  0  0  0  0  0  0
   -1.2080   14.3970    0.0610 C   0  0  2  0  0  0  0  0  0  0  0  0
   -1.5360   14.8530   -1.4010 C   0  0  1  0  0  0  0  0  0  0  0  0
   -2.2860   14.3450    1.0440 N   0  0  0  0  0  0  0  0  0  0  0  0
   -0.7190   16.0040   -1.7020 O   0  0  0  0  0  0  0  0  0  0  0  0
   -1.0680   13.9660   -2.3250 F   0  0  0  0  0  0  0  0  0  0  0  0
   -3.5740   13.9780    0.4250 C   0  0  2  0  0  0  0  0  0  0  0  0
   -3.0260   15.1120   -1.7420 C   0  0  2  0  0  0  0  0  0  0  0  0
   -3.1140   16.3590   -2.4440 O   0  0  0  0  0  0  0  0  0  0  0  0
   -4.0690   15.0200   -0.5890 C   0  0  1  0  0  0  0  0  0  0  0  0
   -4.4580   14.0630    1.5590 N   0  0  0  0  0  0  0  0  0  0  0  0
   -5.5430   14.9700   -1.2140 C   0  0  1  0  0  0  0  0  0  0  0  0
   -4.1410   16.0970    0.4220 N   0  0  0  0  0  0  0  0  0  0  0  0
   -4.8800   15.4320    1.5100 C   0  0  0  0  0  0  0  0  0  0  0  0
   -5.6680   14.0270   -2.1230 O   0  0  0  0  0  0  0  0  0  0  0  0
   -6.5280   14.5900   -0.2780 O   0  0  0  0  0  0  0  0  0  0  0  0
  2  1  1  1
  2  3  1  0
  2  4  1  0
  3  5  1  6
  3  6  1  0
  7  4  1  1
  3  8  1  0
  8  9  1  1
  7 10  1  0
  8 10  1  0
  7 11  1  0
 10 12  1  0
 10 13  1  1
 11 14  1  0
 13 14  1  0
 12 15  1  6
 12 16  1  0
M  CHG  1  15  -1
M  END
