ucsf248-ucsf124
     RDKit          3D

 31 34  0  0  0  0  0  0  0  0999 V2000
   -8.8110   12.9490    2.9120 N   0  0  0  0  0  0  0  0  0  0  0  0
   -8.3640   14.3460    2.1610 S   0  0  0  0  0  0  0  0  0  0  0  0
   -8.0550   15.4960    3.2190 O   0  0  0  0  0  0  0  0  0  0  0  0
   -9.5660   14.8800    1.2440 O   0  0  0  0  0  0  0  0  0  0  0  0
   -6.9340   14.2250    1.0340 C   0  0  2  0  0  0  0  0  0  0  0  0
   -5.7550   14.9270    1.5460 N   0  0  0  0  0  0  0  0  0  0  0  0
   -7.1290   14.7760   -0.3150 N   0  0  0  0  0  0  0  0  0  0  0  0
   -4.9120   14.7270    0.3770 C   0  0  1  0  0  0  0  0  0  0  0  0
   -5.8040   15.3190   -0.6870 C   0  0  1  0  0  0  0  0  0  0  0  0
   -3.5460   15.3690    0.3670 C   0  0  0  0  0  0  0  0  0  0  0  0
   -5.3240   14.9580   -2.0920 C   0  0  0  0  0  0  0  0  0  0  0  0
   -2.9810   15.4640   -1.0620 C   0  0  0  0  0  0  0  0  0  0  0  0
   -3.7980   14.6980   -2.1330 C   0  0  2  0  0  0  0  0  0  0  0  0
   -3.2190   14.8510   -3.5620 C   0  0  0  0  0  0  0  0  0  0  0  0
   -3.4070   13.7080   -4.5860 C   0  0  0  0  0  0  0  0  0  0  0  0
   -2.1450   12.9880   -5.0890 C   0  0  0  0  0  0  0  0  0  0  0  0
   -1.9100   11.7460   -4.4160 O   0  0  0  0  0  0  0  0  0  0  0  0
   -0.9990   10.8060   -5.0130 C   0  0  2  0  0  0  0  0  0  0  0  0
    0.3670   11.3240   -5.1760 N   0  0  0  0  0  0  0  0  0  0  0  0
   -1.4250   10.4300   -6.4490 C   0  0  1  0  0  0  0  0  0  0  0  0
    0.7380   12.5260   -4.3930 C   0  0  0  0  0  0  0  0  0  0  0  0
   -0.0820   10.1100   -7.0680 C   0  0  2  0  0  0  0  0  0  0  0  0
    0.6830   11.3400   -6.6000 C   0  0  1  0  0  0  0  0  0  0  0  0
   -2.4200    9.2910   -6.6740 C   0  0  0  0  0  0  0  0  0  0  0  0
    0.6160   12.3780   -2.8290 C   0  0  1  0  0  0  0  0  0  0  0  0
    0.1580   12.4710   -7.1830 O   0  0  0  0  0  0  0  0  0  0  0  0
   -1.8620    8.1790   -7.5800 C   0  0  0  0  0  0  0  0  0  0  0  0
   -0.1650    9.8320   -8.5580 C   0  0  0  0  0  0  0  0  0  0  0  0
    0.6770   11.1180   -2.4340 O   0  0  0  0  0  0  0  0  0  0  0  0
    1.7440   12.9910   -2.2360 O   0  0  0  0  0  0  0  0  0  0  0  0
   -1.1450    8.6830   -8.8410 C   0  0  0  0  0  0  0  0  0  0  0  0
  1  2  1  0
  2  3  1  0
  2  4  1  0
  5  2  1  1
  5  6  1  0
  5  7  1  0
  6  8  1  0
  7  9  1  0
  8  9  1  0
  8 10  1  1
  9 11  1  6
 10 12  1  0
 11 13  1  0
 12 13  1  0
 13 14  1  6
 14 15  1  0
 15 16  1  0
 16 17  1  0
 18 17  1  6
 18 19  1  0
 18 20  1  0
 19 21  1  0
 20 22  1  0
 19 23  1  0
 22 23  1  0
 20 24  1  1
 21 25  1  0
 23 26  1  6
 24 27  1  0
 22 28  1  6
 25 29  1  6
 25 30  1  0
 27 31  1  0
 28 31  1  0
M  CHG  1  29  -1
M  END
