ucsf404-ucsf584
     RDKit          3D

 15 17  0  0  0  0  0  0  0  0999 V2000
   -7.2310   16.0040   -1.7940 Cl  0  0  0  0  0  0  0  0  0  0  0  0
   -6.2280   14.4120   -0.4610 S   0  0  0  0  0  0  0  0  0  0  0  0
   -4.8540   14.7610    0.3320 C   0  0  2  0  0  0  0  0  0  0  0  0
   -4.9820   14.3020   -1.7480 C   0  0  0  0  0  0  0  0  0  0  0  0
   -6.8940   13.4400    0.7940 N   0  0  0  0  0  0  0  0  0  0  0  0
   -7.8100   13.6850   -0.9300 N   0  0  0  0  0  0  0  0  0  0  0  0
   -4.4330   15.9920    0.7660 N   0  0  0  0  0  0  0  0  0  0  0  0
   -3.5560   14.0180    0.2150 C   0  0  2  0  0  0  0  0  0  0  0  0
   -3.6970   14.9720   -1.7380 C   0  0  0  0  0  0  0  0  0  0  0  0
   -8.7420   14.3450   -0.0150 C   0  0  0  0  0  0  0  0  0  0  0  0
   -7.9780   14.2820    1.2610 C   0  0  0  0  0  0  0  0  0  0  0  0
   -4.5290   15.6250    2.1680 C   0  0  2  0  0  0  0  0  0  0  0  0
   -3.1640   14.3760    1.9770 S   0  0  0  0  0  0  0  0  0  0  0  0
   -2.6280   14.5010   -0.7690 C   0  0  0  0  0  0  0  0  0  0  0  0
   -5.7780   14.9460    2.4330 N   0  0  0  0  0  0  0  0  0  0  0  0
  1  2  1  0
  2  3  1  0
  2  4  1  0
  2  5  1  0
  2  6  1  0
  3  7  1  6
  3  8  1  0
  4  9  1  0
  6 10  1  0
  5 11  1  0
 10 11  1  0
  7 12  1  0
  8 13  1  0
 12 13  1  0
  8 14  1  6
  9 14  1  0
 12 15  1  6
M  END
