ucsf109-ucsf487
     RDKit          3D

 14 16  0  0  0  0  0  0  0  0999 V2000
   -3.7530   14.2320    1.7740 N   0  0  0  0  0  0  0  0  0  0  0  0
   -4.9050   14.8950    1.1290 C   0  0  1  0  0  0  0  0  0  0  0  0
   -4.5290   15.3350   -0.2900 C   0  0  2  0  0  0  0  0  0  0  0  0
   -6.3070   14.1980    1.3610 C   0  0  2  0  0  0  0  0  0  0  0  0
   -6.1490   12.8880    1.9560 N   0  0  0  0  0  0  0  0  0  0  0  0
   -7.2240   14.1100    0.1080 C   0  0  2  0  0  0  0  0  0  0  0  0
   -5.6040   15.2660   -1.3950 C   0  0  2  0  0  0  0  0  0  0  0  0
   -3.2890   14.6670   -0.9080 C   0  0  0  0  0  0  0  0  0  0  0  0
   -7.1450   14.8300    2.3480 N   0  0  0  0  0  0  0  0  0  0  0  0
   -6.9630   14.8400   -1.1170 N   0  0  0  0  0  0  0  0  0  0  0  0
   -4.9380   14.5920   -2.6020 C   0  0  0  0  0  0  0  0  0  0  0  0
   -3.4630   14.8810   -2.4020 C   0  0  0  0  0  0  0  0  0  0  0  0
   -8.5450   14.5500    0.5440 N   0  0  0  0  0  0  0  0  0  0  0  0
   -8.5030   14.5590    1.9890 C   0  0  0  0  0  0  0  0  0  0  0  0
  2  1  1  6
  2  3  1  0
  2  4  1  0
  4  5  1  1
  4  6  1  0
  3  7  1  0
  3  8  1  6
  4  9  1  0
  6 10  1  6
  7 10  1  0
  7 11  1  6
  8 12  1  0
 11 12  1  0
  6 13  1  0
  9 14  1  0
 13 14  1  0
M  END
