ucsf339-ucsf412
     RDKit          3D

 21 23  0  0  0  0  0  0  0  0999 V2000
    1.5470   14.2760   -2.8140 O   0  0  0  0  0  0  0  0  0  0  0  0
    0.5940   14.1790   -1.9040 C   0  0  2  0  0  0  0  0  0  0  0  0
    1.0800   13.1130   -1.1070 O   0  0  0  0  0  0  0  0  0  0  0  0
   -0.7310   13.6590   -2.5140 C   0  0  1  0  0  0  0  0  0  0  0  0
   -1.7110   13.3390   -1.3580 C   0  0  0  0  0  0  0  0  0  0  0  0
   -1.3510   14.5580   -3.5910 C   0  0  0  0  0  0  0  0  0  0  0  0
   -3.2010   13.0950   -1.7150 C   0  0  2  0  0  0  0  0  0  0  0  0
   -2.6200   14.0330   -4.1140 N   0  0  0  0  0  0  0  0  0  0  0  0
   -3.6330   13.6470   -3.1030 C   0  0  0  0  0  0  0  0  0  0  0  0
   -4.1400   13.4010   -0.4800 C   0  0  1  0  0  0  0  0  0  0  0  0
   -4.2980   14.8420    0.1200 C   0  0  0  0  0  0  0  0  0  0  0  0
   -5.5510   12.7840   -0.6600 C   0  0  0  0  0  0  0  0  0  0  0  0
   -4.7030   14.6420    1.6040 C   0  0  0  0  0  0  0  0  0  0  0  0
   -6.5360   13.2510    0.4190 C   0  0  2  0  0  0  0  0  0  0  0  0
   -3.0540   15.6590   -0.1010 C   0  0  0  0  0  0  0  0  0  0  0  0
   -5.4150   15.6150   -0.5550 C   0  0  0  0  0  0  0  0  0  0  0  0
   -7.3920   14.2960   -0.0640 O   0  0  0  0  0  0  0  0  0  0  0  0
   -5.8750   13.6610    1.7340 C   0  0  0  0  0  0  0  0  0  0  0  0
   -2.7740   15.7260   -1.5980 C   0  0  0  0  0  0  0  0  0  0  0  0
   -5.3820   15.3840   -2.0250 C   0  0  0  0  0  0  0  0  0  0  0  0
   -3.9430   15.4340   -2.5750 C   0  0  0  0  0  0  0  0  0  0  0  0
  2  1  1  6
  2  3  1  0
  2  4  1  0
  4  5  1  1
  4  6  1  0
  7  5  1  1
  6  8  1  0
  7  9  1  0
  8  9  1  0
  7 10  1  0
 10 11  1  0
 10 12  1  6
 11 13  1  0
 12 14  1  0
 11 15  1  0
 11 16  1  0
 14 17  1  6
 13 18  1  0
 14 18  1  0
 15 19  1  0
 16 20  1  0
 19 21  1  0
 20 21  1  0
M  CHG  1   1  -1
M  END
