ucsf392-ucsf422
     RDKit          3D

 25 27  0  0  0  0  0  0  0  0999 V2000
   -5.5380   15.3120   -0.8890 C   0  0  0  0  0  0  0  0  0  0  0  0
   -4.0860   15.4110   -0.4410 C   0  0  2  0  0  0  0  0  0  0  0  0
   -3.1820   14.6260   -1.3930 C   0  0  0  0  0  0  0  0  0  0  0  0
   -3.7770   15.0230    1.0050 C   0  0  2  0  0  0  0  0  0  0  0  0
   -4.5630   15.6820    2.0050 N   0  0  0  0  0  0  0  0  0  0  0  0
   -2.4460   15.4000    1.2990 N   0  0  0  0  0  0  0  0  0  0  0  0
   -1.8100   14.7580   -0.9700 N   0  0  0  0  0  0  0  0  0  0  0  0
   -1.6000   14.6090    0.4650 C   0  0  1  0  0  0  0  0  0  0  0  0
   -0.1440   14.8270    0.6720 C   0  0  0  0  0  0  0  0  0  0  0  0
    0.3720   13.6670   -0.0990 C   0  0  0  0  0  0  0  0  0  0  0  0
    1.2440   14.0000   -1.2930 C   0  0  0  0  0  0  0  0  0  0  0  0
    0.5830   13.4120   -2.4050 O   0  0  0  0  0  0  0  0  0  0  0  0
    1.1870   12.2820   -3.0200 C   0  0  1  0  0  0  0  0  0  0  0  0
    0.4610   11.2080   -2.7230 O   0  0  0  0  0  0  0  0  0  0  0  0
    1.0350   12.5960   -4.5320 C   0  0  0  0  0  0  0  0  0  0  0  0
    0.8780   14.0880   -4.8950 C   0  0  2  0  0  0  0  0  0  0  0  0
    1.8810   15.0350   -4.3040 C   0  0  0  0  0  0  0  0  0  0  0  0
   -0.3970   14.8430   -4.4910 C   0  0  1  0  0  0  0  0  0  0  0  0
    1.4550   16.2580   -4.9990 N   0  0  0  0  0  0  0  0  0  0  0  0
    0.0640   16.3240   -4.5460 C   0  0  1  0  0  0  0  0  0  0  0  0
   -1.5930   14.3870   -5.3410 C   0  0  0  0  0  0  0  0  0  0  0  0
   -0.7990   17.2530   -5.3770 C   0  0  0  0  0  0  0  0  0  0  0  0
   -2.6310   15.4530   -5.6840 C   0  0  1  0  0  0  0  0  0  0  0  0
   -4.2950   14.8130   -4.9010 Br  0  0  0  0  0  0  0  0  0  0  0  0
   -2.2840   16.8950   -5.3040 C   0  0  0  0  0  0  0  0  0  0  0  0
  2  1  1  6
  2  3  1  0
  2  4  1  0
  4  5  1  1
  4  6  1  0
  3  7  1  0
  6  8  1  0
  7  8  1  0
  8  9  1  6
  9 10  1  0
 10 11  1  0
 11 12  1  0
 12 13  1  0
 13 14  1  6
 13 15  1  0
 16 15  1  1
 16 17  1  0
 16 18  1  0
 17 19  1  0
 18 20  1  0
 19 20  1  0
 18 21  1  6
 20 22  1  6
 21 23  1  0
 23 24  1  1
 22 25  1  0
 23 25  1  0
M  CHG  1  14  -1
M  END
