ucsf493-ucsf367
     RDKit          3D

 22 24  0  0  0  0  0  0  0  0999 V2000
   -4.3040   15.2030   -5.8780 C   0  0  0  0  0  0  0  0  0  0  0  0
   -3.5240   16.3880   -5.9200 O   0  0  0  0  0  0  0  0  0  0  0  0
   -2.4370   16.3960   -4.9940 C   0  0  1  0  0  0  0  0  0  0  0  0
   -1.7550   15.0310   -4.9460 C   0  0  0  0  0  0  0  0  0  0  0  0
   -1.5300   17.5630   -5.4370 C   0  0  0  0  0  0  0  0  0  0  0  0
   -0.4080   15.0220   -4.2200 C   0  0  2  0  0  0  0  0  0  0  0  0
   -0.0260   17.3200   -5.3460 C   0  0  0  0  0  0  0  0  0  0  0  0
    0.4320   16.2940   -4.3240 C   0  0  2  0  0  0  0  0  0  0  0  0
    0.5000   13.9020   -4.7720 C   0  0  2  0  0  0  0  0  0  0  0  0
    0.0100   12.4910   -4.3330 C   0  0  2  0  0  0  0  0  0  0  0  0
    1.8200   15.8380   -4.5210 N   0  0  0  0  0  0  0  0  0  0  0  0
    1.8430   14.3780   -4.2550 C   0  0  0  0  0  0  0  0  0  0  0  0
    0.3110   12.0180   -2.8320 C   0  0  1  0  0  0  0  0  0  0  0  0
    0.4870   11.5420   -5.3250 O   0  0  0  0  0  0  0  0  0  0  0  0
    0.5220   10.6140   -2.6950 O   0  0  0  0  0  0  0  0  0  0  0  0
    1.4630   12.4600   -2.3820 O   0  0  0  0  0  0  0  0  0  0  0  0
   -0.4780   10.5020   -5.4990 C   0  0  0  0  0  0  0  0  0  0  0  0
   -0.4240    9.9590   -6.9300 C   0  0  0  0  0  0  0  0  0  0  0  0
   -1.8560   11.0950   -5.2280 C   0  0  0  0  0  0  0  0  0  0  0  0
   -1.4250    8.8230   -7.1580 C   0  0  0  0  0  0  0  0  0  0  0  0
   -2.9920   10.1940   -5.7040 C   0  0  0  0  0  0  0  0  0  0  0  0
   -2.5420    8.7980   -6.1240 C   0  0  0  0  0  0  0  0  0  0  0  0
  1  2  1  0
  3  2  1  6
  3  4  1  0
  3  5  1  0
  6  4  1  6
  5  7  1  0
  6  8  1  0
  8  7  1  6
  6  9  1  0
  9 10  1  0
  8 11  1  0
  9 12  1  1
 11 12  1  0
 10 13  1  0
 10 14  1  6
 13 15  1  6
 13 16  1  0
 14 17  1  0
 17 18  1  0
 17 19  1  0
 18 20  1  0
 19 21  1  0
 20 22  1  0
 21 22  1  0
M  CHG  1  16  -1
M  END
