ucsf367-ucsf385
     RDKit          3D

 22 23  0  0  0  0  0  0  0  0999 V2000
    0.6490   10.7640   -2.9910 O   0  0  0  0  0  0  0  0  0  0  0  0
    0.4910   12.0540   -3.2840 C   0  0  1  0  0  0  0  0  0  0  0  0
    1.2510   12.7610   -2.2790 O   0  0  0  0  0  0  0  0  0  0  0  0
    1.0760   12.4070   -4.7120 C   0  0  0  0  0  0  0  0  0  0  0  0
    0.6490   11.6170   -5.8510 O   0  0  0  0  0  0  0  0  0  0  0  0
    1.5350   14.1510   -2.5660 C   0  0  0  0  0  0  0  0  0  0  0  0
    0.4000   15.0350   -2.5900 O   0  0  0  0  0  0  0  0  0  0  0  0
   -0.3710   10.6550   -5.6070 C   0  0  0  0  0  0  0  0  0  0  0  0
   -0.8870   14.3690   -2.5460 C   0  0  2  0  0  0  0  0  0  0  0  0
   -0.4630    9.7660   -6.8510 C   0  0  0  0  0  0  0  0  0  0  0  0
   -1.7220   11.3330   -5.3980 C   0  0  0  0  0  0  0  0  0  0  0  0
   -1.8310   15.1940   -2.9820 O   0  0  0  0  0  0  0  0  0  0  0  0
   -1.5090    8.6830   -6.6620 C   0  0  0  0  0  0  0  0  0  0  0  0
   -2.8270   10.3000   -5.2100 C   0  0  0  0  0  0  0  0  0  0  0  0
   -1.1260   14.0210   -1.0380 C   0  0  2  0  0  0  0  0  0  0  0  0
   -2.8790    9.2830   -6.3520 C   0  0  0  0  0  0  0  0  0  0  0  0
   -2.6120   14.2190   -0.5810 C   0  0  2  0  0  0  0  0  0  0  0  0
   -0.1410   14.6660   -0.0540 C   0  0  0  0  0  0  0  0  0  0  0  0
   -3.4340   15.0660   -1.4660 N   0  0  0  0  0  0  0  0  0  0  0  0
   -0.4380   14.2010    1.3630 C   0  0  0  0  0  0  0  0  0  0  0  0
   -2.7720   14.8050    0.8480 C   0  0  0  0  0  0  0  0  0  0  0  0
   -1.8040   14.3930    1.8370 N   0  0  0  0  0  0  0  0  0  0  0  0
  2  1  1  1
  2  3  1  0
  2  4  1  0
  4  5  1  0
  3  6  1  0
  6  7  1  0
  5  8  1  0
  7  9  1  0
  8 10  1  0
  8 11  1  0
  9 12  1  1
 10 13  1  0
 11 14  1  0
  9 15  1  0
 13 16  1  0
 14 16  1  0
 15 17  1  0
 15 18  1  1
 17 19  1  6
 18 20  1  0
 17 21  1  0
 20 22  1  0
 21 22  1  0
M  CHG  2   1  -1  12  -1
M  END
