ucsf017-ucsf320
     RDKit          3D

 26 30  0  0  0  0  0  0  0  0999 V2000
   -1.3990   16.0570   -2.4380 O   0  0  0  0  0  0  0  0  0  0  0  0
   -2.2680   15.3670   -3.1400 C   0  0  2  0  0  0  0  0  0  0  0  0
   -2.3650   16.1670   -4.2920 O   0  0  0  0  0  0  0  0  0  0  0  0
   -3.6200   15.3140   -2.3720 C   0  0  2  0  0  0  0  0  0  0  0  0
   -3.3830   14.4260   -1.2080 C   0  0  1  0  0  0  0  0  0  0  0  0
   -4.8630   14.7780   -3.0430 C   0  0  0  0  0  0  0  0  0  0  0  0
   -2.1240   14.8460   -0.5310 C   0  0  1  0  0  0  0  0  0  0  0  0
   -4.5000   14.4940   -0.1550 C   0  0  1  0  0  0  0  0  0  0  0  0
   -6.0720   15.1030   -2.1630 C   0  0  0  0  0  0  0  0  0  0  0  0
   -2.4750   14.4790    0.8520 C   0  0  2  0  0  0  0  0  0  0  0  0
   -0.7320   14.3400   -0.9470 C   0  0  2  0  0  0  0  0  0  0  0  0
   -3.7930   15.0690    1.0540 N   0  0  0  0  0  0  0  0  0  0  0  0
   -5.7120   15.3290   -0.6780 C   0  0  1  0  0  0  0  0  0  0  0  0
   -6.9000   15.0160    0.0670 O   0  0  0  0  0  0  0  0  0  0  0  0
   -0.5640   13.4330   -2.0940 N   0  0  0  0  0  0  0  0  0  0  0  0
   -0.0870   13.7150    0.2040 N   0  0  0  0  0  0  0  0  0  0  0  0
   -1.4820   14.9670    1.7240 N   0  0  0  0  0  0  0  0  0  0  0  0
   -0.8340   13.9180   -3.4510 C   0  0  2  0  0  0  0  0  0  0  0  0
    0.6200   12.5780   -2.0730 C   0  0  0  0  0  0  0  0  0  0  0  0
   -0.1360   14.5550    1.3690 C   0  0  0  0  0  0  0  0  0  0  0  0
   -2.2690   13.7830   -3.9940 C   0  0  0  0  0  0  0  0  0  0  0  0
   -0.1860   13.0100   -4.4740 C   0  0  2  0  0  0  0  0  0  0  0  0
    0.5270   11.3020   -2.9250 C   0  0  0  0  0  0  0  0  0  0  0  0
   -0.8250   13.4150   -5.7650 C   0  0  0  0  0  0  0  0  0  0  0  0
   -2.1610   13.8560   -5.4320 O   0  0  0  0  0  0  0  0  0  0  0  0
   -0.3310   11.5460   -4.1460 C   0  0  0  0  0  0  0  0  0  0  0  0
  2  1  1  1
  2  3  1  0
  2  4  1  0
  5  4  1  6
  4  6  1  6
  5  7  1  0
  5  8  1  0
  6  9  1  0
  7 10  1  0
  7 11  1  6
  8 12  1  1
 10 12  1  1
  8 13  1  0
  9 13  1  0
 13 14  1  1
 11 15  1  6
 11 16  1  0
 10 17  1  0
 15 18  1  0
 15 19  1  0
 16 20  1  0
 17 20  1  0
 18 21  1  6
 18 22  1  0
 19 23  1  0
 22 24  1  6
 21 25  1  0
 24 25  1  0
 22 26  1  0
 23 26  1  0
M  CHG  1   1  -1
M  END
