ucsf303-ucsf422
     RDKit          3D

 30 33  0  0  0  0  0  0  0  0999 V2000
   -2.6710   13.5170   -3.1110 O   0  0  0  0  0  0  0  0  0  0  0  0
   -3.9550   14.2160   -2.4830 S   0  0  1  0  0  0  0  0  0  0  0  0
   -4.4800   15.2910   -3.5220 O   0  0  0  0  0  0  0  0  0  0  0  0
   -5.1700   13.1460   -2.2060 N   0  0  0  0  0  0  0  0  0  0  0  0
   -3.4310   15.0560   -1.0280 C   0  0  0  0  0  0  0  0  0  0  0  0
   -4.5460   14.9220   -4.9010 C   0  0  0  0  0  0  0  0  0  0  0  0
   -4.8730   11.8960   -1.6100 C   0  0  1  0  0  0  0  0  0  0  0  0
   -2.1170   14.4350   -0.4700 C   0  0  0  0  0  0  0  0  0  0  0  0
   -4.5790   15.1630   -0.0340 C   0  0  0  0  0  0  0  0  0  0  0  0
   -3.6910   15.8070   -5.6130 O   0  0  0  0  0  0  0  0  0  0  0  0
   -5.9950   11.0370   -1.9780 N   0  0  0  0  0  0  0  0  0  0  0  0
   -3.3720   11.2080   -2.3290 S   0  0  0  0  0  0  0  0  0  0  0  0
   -1.7960   14.6790    1.0050 C   0  0  0  0  0  0  0  0  0  0  0  0
   -4.2780   14.5310    1.2920 C   0  0  0  0  0  0  0  0  0  0  0  0
   -4.1810    9.6690   -2.7440 C   0  0  0  0  0  0  0  0  0  0  0  0
   -5.5100    9.6620   -2.1290 N   0  0  0  0  0  0  0  0  0  0  0  0
   -3.0210   15.1580    1.7540 C   0  0  0  0  0  0  0  0  0  0  0  0
   -2.4060   15.9170   -4.9950 C   0  0  2  0  0  0  0  0  0  0  0  0
   -1.7840   17.2050   -5.5500 C   0  0  0  0  0  0  0  0  0  0  0  0
   -1.5580   14.6470   -5.2130 C   0  0  0  0  0  0  0  0  0  0  0  0
   -0.0360   14.7910   -5.1660 C   0  0  2  0  0  0  0  0  0  0  0  0
   -0.3500   17.4500   -5.0770 C   0  0  0  0  0  0  0  0  0  0  0  0
    0.6290   14.0950   -3.9760 C   0  0  1  0  0  0  0  0  0  0  0  0
    0.5720   16.2310   -5.1700 C   0  0  1  0  0  0  0  0  0  0  0  0
    0.7430   12.5490   -3.9020 C   0  0  0  0  0  0  0  0  0  0  0  0
    1.9530   14.8220   -3.9040 C   0  0  0  0  0  0  0  0  0  0  0  0
    1.6060   16.2330   -4.1350 N   0  0  0  0  0  0  0  0  0  0  0  0
    0.1140   11.8470   -2.6430 C   0  0  1  0  0  0  0  0  0  0  0  0
    0.4630   10.5740   -2.5340 O   0  0  0  0  0  0  0  0  0  0  0  0
    0.6680   12.4600   -1.4810 O   0  0  0  0  0  0  0  0  0  0  0  0
  2  1  1  6
  2  3  1  0
  2  4  1  0
  2  5  1  0
  3  6  1  0
  7  4  1  6
  5  8  1  0
  5  9  1  0
  6 10  1  0
  7 11  1  0
  7 12  1  0
  8 13  1  0
  9 14  1  0
 12 15  1  0
 11 16  1  0
 15 16  1  0
 13 17  1  0
 14 17  1  0
 18 10  1  6
 18 19  1  0
 18 20  1  0
 21 20  1  1
 19 22  1  0
 21 23  1  0
 21 24  1  0
 24 22  1  1
 23 25  1  6
 23 26  1  0
 24 27  1  0
 26 27  1  0
 25 28  1  0
 28 29  1  6
 28 30  1  0
M  CHG  1  29  -1
M  END
