ucsf039-ucsf114
     RDKit          3D

 22 25  0  0  0  0  0  0  0  0999 V2000
   -4.1660   14.9750    0.6220 N   0  0  0  0  0  0  0  0  0  0  0  0
   -3.3010   15.4070   -0.4670 C   0  0  1  0  0  0  0  0  0  0  0  0
   -1.7950   15.4560   -0.1370 C   0  0  2  0  0  0  0  0  0  0  0  0
   -3.5720   14.5530   -1.5940 N   0  0  0  0  0  0  0  0  0  0  0  0
   -2.8460   14.9800   -2.7920 C   0  0  0  0  0  0  0  0  0  0  0  0
   -1.0210   14.7160   -1.2360 C   0  0  1  0  0  0  0  0  0  0  0  0
   -1.3460   14.8050    1.0850 N   0  0  0  0  0  0  0  0  0  0  0  0
   -1.3810   15.2110   -2.5870 N   0  0  0  0  0  0  0  0  0  0  0  0
    0.3140   14.7740   -0.6630 N   0  0  0  0  0  0  0  0  0  0  0  0
    0.0710   14.5920    0.7880 C   0  0  0  0  0  0  0  0  0  0  0  0
   -0.5930   15.0200   -3.8920 C   0  0  1  0  0  0  0  0  0  0  0  0
    1.7170   14.2070   -1.4030 S   0  0  0  0  0  0  0  0  0  0  0  0
   -1.3090   14.7040   -5.1790 C   0  0  0  0  0  0  0  0  0  0  0  0
    0.4110   16.1650   -4.2730 C   0  0  2  0  0  0  0  0  0  0  0  0
   -2.2120   15.7080   -5.6760 O   0  0  0  0  0  0  0  0  0  0  0  0
    0.0990   17.2830   -3.4000 C   0  0  0  0  0  0  0  0  0  0  0  0
    0.4230   16.8920   -5.6760 C   0  0  1  0  0  0  0  0  0  0  0  0
   -0.8020   17.5790   -6.2400 C   0  0  0  0  0  0  0  0  0  0  0  0
   -1.9600   17.1050   -5.4990 C   0  0  2  0  0  0  0  0  0  0  0  0
    1.2040   18.4930   -5.5130 S   0  0  0  0  0  0  0  0  0  0  0  0
    1.0870   18.3030   -3.7560 C   0  0  0  0  0  0  0  0  0  0  0  0
   -1.5090   17.3920   -4.1100 C   0  0  0  0  0  0  0  0  0  0  0  0
  2  1  1  1
  2  3  1  0
  2  4  1  0
  4  5  1  0
  3  6  1  0
  3  7  1  1
  5  8  1  0
  6  8  1  6
  6  9  1  0
  7 10  1  0
  9 10  1  0
 11  8  1  1
  9 12  1  0
 11 13  1  0
 11 14  1  0
 13 15  1  0
 14 16  1  1
 14 17  1  0
 17 18  1  1
 15 19  1  0
 18 19  1  0
 17 20  1  0
 16 21  1  0
 20 21  1  0
 19 22  1  1
M  END
