ucsf378-ucsf487
     RDKit          3D

 26 28  0  0  0  0  0  0  0  0999 V2000
   -2.3580   13.7500   -3.9930 Cl  0  0  0  0  0  0  0  0  0  0  0  0
   -0.8090   14.3170   -4.6870 C   0  0  2  0  0  0  0  0  0  0  0  0
    0.3490   13.3000   -4.5210 C   0  0  0  0  0  0  0  0  0  0  0  0
   -0.4830   15.7370   -4.2130 C   0  0  0  0  0  0  0  0  0  0  0  0
   -0.1380   11.8940   -4.0370 C   0  0  0  0  0  0  0  0  0  0  0  0
    1.5990   13.7960   -3.7790 C   0  0  1  0  0  0  0  0  0  0  0  0
    0.9330   16.1770   -4.5290 C   0  0  0  0  0  0  0  0  0  0  0  0
    3.0150   12.8860   -4.3820 Cl  0  0  0  0  0  0  0  0  0  0  0  0
   -0.3200   11.5230   -2.5350 C   0  0  2  0  0  0  0  0  0  0  0  0
    1.9750   15.2530   -3.9340 C   0  0  0  0  0  0  0  0  0  0  0  0
    0.5250   12.2050   -1.6190 O   0  0  0  0  0  0  0  0  0  0  0  0
   -0.0640   10.1400   -2.4590 O   0  0  0  0  0  0  0  0  0  0  0  0
    0.3370   13.6090   -1.4540 C   0  0  0  0  0  0  0  0  0  0  0  0
   -0.9360   13.8750   -0.6630 C   0  0  0  0  0  0  0  0  0  0  0  0
   -1.5010   15.2640   -1.0040 C   0  0  0  0  0  0  0  0  0  0  0  0
   -3.0330   15.4170   -0.9630 C   0  0  1  0  0  0  0  0  0  0  0  0
   -3.7710   15.2700   -2.3010 C   0  0  0  0  0  0  0  0  0  0  0  0
   -3.6880   14.5740    0.1120 C   0  0  0  0  0  0  0  0  0  0  0  0
   -5.0350   15.2010    0.4260 C   0  0  2  0  0  0  0  0  0  0  0  0
   -5.2560   14.9120   -2.1710 C   0  0  0  0  0  0  0  0  0  0  0  0
   -5.6210   14.5640    1.6910 C   0  0  0  0  0  0  0  0  0  0  0  0
   -5.9490   15.2820   -0.8360 C   0  0  1  0  0  0  0  0  0  0  0  0
   -7.0450   14.0040    1.6380 C   0  0  1  0  0  0  0  0  0  0  0  0
   -7.1470   14.4330   -0.7800 N   0  0  0  0  0  0  0  0  0  0  0  0
   -7.6690   14.2750    2.9310 N   0  0  0  0  0  0  0  0  0  0  0  0
   -7.8770   14.5440    0.4680 C   0  0  0  0  0  0  0  0  0  0  0  0
  2  1  1  1
  2  3  1  0
  2  4  1  0
  3  5  1  0
  3  6  1  0
  4  7  1  0
  6  8  1  6
  5  9  1  0
  6 10  1  0
  7 10  1  0
  9 11  1  0
  9 12  1  6
 11 13  1  0
 13 14  1  0
 14 15  1  0
 16 15  1  6
 16 17  1  0
 16 18  1  0
 19 18  1  6
 17 20  1  0
 19 21  1  0
 19 22  1  0
 22 20  1  6
 21 23  1  0
 22 24  1  0
 23 25  1  1
 23 26  1  0
 24 26  1  0
M  END
