ucsf262-ucsf169
     RDKit          3D

 18 19  0  0  0  0  0  0  0  0999 V2000
   -3.2520   15.1720   -6.1590 Cl  0  0  0  0  0  0  0  0  0  0  0  0
   -2.1580   16.3730   -5.3640 C   0  0  1  0  0  0  0  0  0  0  0  0
   -0.9580   15.8340   -4.5610 C   0  0  1  0  0  0  0  0  0  0  0  0
   -1.8510   17.6680   -6.1500 C   0  0  0  0  0  0  0  0  0  0  0  0
   -1.6560   15.7500   -3.3490 O   0  0  0  0  0  0  0  0  0  0  0  0
   -0.2650   14.4190   -4.4990 C   0  0  1  0  0  0  0  0  0  0  0  0
    0.2810   16.7570   -4.7240 C   0  0  2  0  0  0  0  0  0  0  0  0
   -1.1820   18.7580   -5.3070 C   0  0  0  0  0  0  0  0  0  0  0  0
    0.8140   16.9650   -5.9950 O   0  0  0  0  0  0  0  0  0  0  0  0
   -0.2110   13.5180   -5.7150 C   0  0  0  0  0  0  0  0  0  0  0  0
    1.1770   14.7240   -3.9580 C   0  0  1  0  0  0  0  0  0  0  0  0
    1.2440   16.2190   -3.8070 N   0  0  0  0  0  0  0  0  0  0  0  0
    0.0300   18.2520   -4.5220 C   0  0  0  0  0  0  0  0  0  0  0  0
    1.6660   13.8250   -2.7630 C   0  0  0  0  0  0  0  0  0  0  0  0
    1.1100   18.3020   -6.2840 C   0  0  0  0  0  0  0  0  0  0  0  0
    3.0090   14.0860   -2.3840 O   0  0  0  0  0  0  0  0  0  0  0  0
    0.9300   14.0560   -1.6010 O   0  0  0  0  0  0  0  0  0  0  0  0
    1.4400   12.4470   -3.0290 O   0  0  0  0  0  0  0  0  0  0  0  0
  2  1  1  6
  2  3  1  0
  2  4  1  0
  3  5  1  1
  3  6  1  0
  3  7  1  0
  4  8  1  0
  7  9  1  6
  6 10  1  6
  6 11  1  0
  7 12  1  0
 11 12  1  0
  7 13  1  0
  8 13  1  0
 11 14  1  1
  9 15  1  0
 14 16  1  0
 14 17  1  0
 14 18  1  0
M  CHG  2  16  -1  18  -1
M  END
