ucsf387-ucsf523
     RDKit          3D

 25 27  0  0  0  0  0  0  0  0999 V2000
    0.9730   18.2380   -5.3990 Cl  0  0  0  0  0  0  0  0  0  0  0  0
    0.2020   16.9400   -4.4380 C   0  0  1  0  0  0  0  0  0  0  0  0
   -1.2270   16.8010   -4.9780 C   0  0  0  0  0  0  0  0  0  0  0  0
    1.0540   15.6590   -4.4540 C   0  0  0  0  0  0  0  0  0  0  0  0
    0.2560   14.3330   -4.2600 C   0  0  1  0  0  0  0  0  0  0  0  0
   -1.7360   15.3630   -4.9940 C   0  0  2  0  0  0  0  0  0  0  0  0
   -3.4930   15.2920   -5.2730 Cl  0  0  0  0  0  0  0  0  0  0  0  0
    1.0350   13.1720   -3.5730 C   0  0  0  0  0  0  0  0  0  0  0  0
   -1.2200   14.5710   -3.8120 C   0  0  2  0  0  0  0  0  0  0  0  0
    0.2110   12.2820   -2.5990 C   0  0  1  0  0  0  0  0  0  0  0  0
   -1.3350   15.3850   -2.6270 O   0  0  0  0  0  0  0  0  0  0  0  0
    0.5480   11.0130   -2.6640 O   0  0  0  0  0  0  0  0  0  0  0  0
    0.6380   12.5810   -1.2910 O   0  0  0  0  0  0  0  0  0  0  0  0
   -1.6520   14.7560   -1.3610 C   0  0  1  0  0  0  0  0  0  0  0  0
   -0.5570   14.8630   -0.4300 N   0  0  0  0  0  0  0  0  0  0  0  0
   -2.9190   15.4410   -0.7620 C   0  0  2  0  0  0  0  0  0  0  0  0
   -0.8810   14.1960    0.7660 C   0  0  1  0  0  0  0  0  0  0  0  0
   -3.1010   15.1400    0.7700 C   0  0  2  0  0  0  0  0  0  0  0  0
   -4.1470   15.1830   -1.5460 N   0  0  0  0  0  0  0  0  0  0  0  0
    0.2250   14.4030    1.6170 N   0  0  0  0  0  0  0  0  0  0  0  0
   -1.9200   14.8010    1.5260 N   0  0  0  0  0  0  0  0  0  0  0  0
   -4.0670   14.1010    1.0740 N   0  0  0  0  0  0  0  0  0  0  0  0
   -5.3350   15.3610   -0.7100 C   0  0  0  0  0  0  0  0  0  0  0  0
   -5.3680   14.4480    0.5640 C   0  0  2  0  0  0  0  0  0  0  0  0
   -6.1120   14.9920    1.6400 O   0  0  0  0  0  0  0  0  0  0  0  0
  2  1  1  6
  2  3  1  0
  2  4  1  0
  4  5  1  0
  3  6  1  0
  6  7  1  1
  5  8  1  1
  5  9  1  0
  6  9  1  0
  8 10  1  0
  9 11  1  1
 10 12  1  6
 10 13  1  0
 14 11  1  6
 14 15  1  0
 14 16  1  0
 15 17  1  0
 16 18  1  0
 16 19  1  6
 17 20  1  1
 17 21  1  0
 18 21  1  6
 18 22  1  0
 19 23  1  0
 22 24  1  0
 23 24  1  0
 24 25  1  1
M  CHG  1  12  -1
M  END
