ucsf371-ucsf135
     RDKit          3D

 22 24  0  0  0  0  0  0  0  0999 V2000
   -4.8930   14.9800    0.6670 C   0  0  0  0  0  0  0  0  0  0  0  0
   -4.3130   15.4490   -0.6580 C   0  0  2  0  0  0  0  0  0  0  0  0
   -4.6350   14.5510   -1.7540 N   0  0  0  0  0  0  0  0  0  0  0  0
   -2.5160   15.5490   -0.5870 S   0  0  0  0  0  0  0  0  0  0  0  0
   -3.7300   14.8890   -2.8810 C   0  0  0  0  0  0  0  0  0  0  0  0
   -2.3900   15.5230   -2.4260 C   0  0  2  0  0  0  0  0  0  0  0  0
   -1.0990   14.7800   -2.8970 C   0  0  1  0  0  0  0  0  0  0  0  0
   -1.0610   14.7620   -4.3320 O   0  0  0  0  0  0  0  0  0  0  0  0
   -0.0490   15.4770   -2.5020 O   0  0  0  0  0  0  0  0  0  0  0  0
   -1.7590   13.6490   -4.8830 C   0  0  0  0  0  0  0  0  0  0  0  0
   -1.6900   12.5130   -4.0150 O   0  0  0  0  0  0  0  0  0  0  0  0
   -0.6730   11.3410   -4.3980 S   0  0  2  0  0  0  0  0  0  0  0  0
   -0.3660   10.2960   -3.2310 O   0  0  0  0  0  0  0  0  0  0  0  0
    0.7020   11.8830   -5.1400 N   0  0  0  0  0  0  0  0  0  0  0  0
   -1.4880   10.4800   -5.7250 C   0  0  1  0  0  0  0  0  0  0  0  0
    0.4860   11.8980   -6.5690 C   0  0  2  0  0  0  0  0  0  0  0  0
   -0.6420   10.8870   -6.9660 C   0  0  1  0  0  0  0  0  0  0  0  0
   -1.6110    8.9780   -5.5870 C   0  0  0  0  0  0  0  0  0  0  0  0
    1.6810   11.5710   -7.1950 O   0  0  0  0  0  0  0  0  0  0  0  0
   -2.1240    8.3600   -6.8850 C   0  0  0  0  0  0  0  0  0  0  0  0
   -0.1420    9.6830   -7.7750 C   0  0  0  0  0  0  0  0  0  0  0  0
   -1.3000    8.7480   -8.1220 C   0  0  0  0  0  0  0  0  0  0  0  0
  2  1  1  1
  2  3  1  0
  2  4  1  0
  3  5  1  0
  4  6  1  0
  6  5  1  6
  6  7  1  0
  7  8  1  0
  7  9  1  1
  8 10  1  0
 10 11  1  0
 12 11  1  0
 12 13  1  1
 12 14  1  0
 12 15  1  0
 14 16  1  0
 15 17  1  0
 16 17  1  0
 15 18  1  1
 16 19  1  6
 18 20  1  0
 17 21  1  1
 20 22  1  0
 21 22  1  0
M  CHG  1   9  -1
M  END
