ucsf487-ucsf135
     RDKit          3D

 25 28  0  0  0  0  0  0  0  0999 V2000
   -7.6260   13.5280    2.7640 N   0  0  0  0  0  0  0  0  0  0  0  0
   -7.1660   14.5080    1.7840 C   0  0  2  0  0  0  0  0  0  0  0  0
   -7.9670   14.4430    0.4610 C   0  0  0  0  0  0  0  0  0  0  0  0
   -5.6380   14.3870    1.6050 C   0  0  0  0  0  0  0  0  0  0  0  0
   -5.0650   14.3120    0.1690 C   0  0  1  0  0  0  0  0  0  0  0  0
   -7.3080   15.0620   -0.6820 N   0  0  0  0  0  0  0  0  0  0  0  0
   -6.0990   14.3290   -0.9950 C   0  0  1  0  0  0  0  0  0  0  0  0
   -3.9390   15.3340    0.0050 C   0  0  0  0  0  0  0  0  0  0  0  0
   -5.5060   14.7980   -2.3370 C   0  0  0  0  0  0  0  0  0  0  0  0
   -3.3280   15.3030   -1.3960 C   0  0  0  0  0  0  0  0  0  0  0  0
   -4.0370   14.3870   -2.3790 C   0  0  2  0  0  0  0  0  0  0  0  0
   -3.3360   14.4190   -3.7620 C   0  0  0  0  0  0  0  0  0  0  0  0
   -2.9550   13.0360   -4.3470 C   0  0  0  0  0  0  0  0  0  0  0  0
   -1.8670   12.4250   -3.6330 O   0  0  0  0  0  0  0  0  0  0  0  0
   -0.7940   11.4400   -4.3380 S   0  0  2  0  0  0  0  0  0  0  0  0
   -0.2820   10.2970   -3.3440 O   0  0  0  0  0  0  0  0  0  0  0  0
    0.4800   12.1910   -5.0920 N   0  0  0  0  0  0  0  0  0  0  0  0
   -1.5600   10.5980   -5.7140 C   0  0  1  0  0  0  0  0  0  0  0  0
    0.4470   11.8760   -6.5220 C   0  0  2  0  0  0  0  0  0  0  0  0
   -0.3630   10.5440   -6.6790 C   0  0  2  0  0  0  0  0  0  0  0  0
   -2.0690    9.1870   -5.5330 C   0  0  0  0  0  0  0  0  0  0  0  0
    1.7770   11.8060   -6.9620 O   0  0  0  0  0  0  0  0  0  0  0  0
   -2.4590    8.5750   -6.8900 C   0  0  0  0  0  0  0  0  0  0  0  0
   -0.7620   10.0970   -8.0820 C   0  0  0  0  0  0  0  0  0  0  0  0
   -1.4130    8.7140   -8.0240 C   0  0  0  0  0  0  0  0  0  0  0  0
  2  1  1  1
  2  3  1  0
  2  4  1  0
  5  4  1  1
  3  6  1  0
  5  7  1  0
  6  7  1  0
  5  8  1  0
  7  9  1  6
  8 10  1  0
  9 11  1  0
 10 11  1  0
 11 12  1  6
 12 13  1  0
 13 14  1  0
 15 14  1  0
 15 16  1  1
 15 17  1  0
 15 18  1  0
 17 19  1  0
 18 20  1  0
 19 20  1  0
 18 21  1  1
 19 22  1  1
 21 23  1  0
 20 24  1  6
 23 25  1  0
 24 25  1  0
M  END
