ucsf005-ucsf124
     RDKit          3D

 30 33  0  0  0  0  0  0  0  0999 V2000
   -1.6280   14.6170   -3.4710 C   0  0  0  0  0  0  0  0  0  0  0  0
   -2.6480   14.2750   -2.4770 N   0  0  0  0  0  0  0  0  0  0  0  0
   -3.8060   15.1490   -2.7090 C   0  0  0  0  0  0  0  0  0  0  0  0
   -2.2170   14.6020   -1.1120 C   0  0  1  0  0  0  0  0  0  0  0  0
   -4.3950   15.5250   -1.4200 N   0  0  0  0  0  0  0  0  0  0  0  0
   -3.5680   14.8160   -0.4510 C   0  0  2  0  0  0  0  0  0  0  0  0
   -1.5500   13.5730   -0.3650 N   0  0  0  0  0  0  0  0  0  0  0  0
   -3.3240   15.3830    0.9460 C   0  0  1  0  0  0  0  0  0  0  0  0
   -1.1910   14.1400    0.9170 C   0  0  1  0  0  0  0  0  0  0  0  0
   -4.5550   15.2670    1.7100 N   0  0  0  0  0  0  0  0  0  0  0  0
   -0.2820   15.1660    0.6250 N   0  0  0  0  0  0  0  0  0  0  0  0
   -2.3350   14.6120    1.6780 N   0  0  0  0  0  0  0  0  0  0  0  0
    0.7630   14.7560   -0.2800 C   0  0  0  0  0  0  0  0  0  0  0  0
    0.5430   14.8930   -1.7800 C   0  0  0  0  0  0  0  0  0  0  0  0
    1.7250   14.3390   -2.5740 C   0  0  0  0  0  0  0  0  0  0  0  0
    1.7700   12.9300   -2.3450 O   0  0  0  0  0  0  0  0  0  0  0  0
    0.6390   12.2510   -2.9120 C   0  0  2  0  0  0  0  0  0  0  0  0
    0.7370   10.9500   -2.7010 O   0  0  0  0  0  0  0  0  0  0  0  0
    0.7070   12.5610   -4.4620 C   0  0  0  0  0  0  0  0  0  0  0  0
    0.2380   11.4710   -5.3320 N   0  0  0  0  0  0  0  0  0  0  0  0
   -1.1640   11.1440   -5.2920 C   0  0  2  0  0  0  0  0  0  0  0  0
    0.4770   11.6680   -6.7380 C   0  0  1  0  0  0  0  0  0  0  0  0
   -1.5950   10.8030   -4.0070 O   0  0  0  0  0  0  0  0  0  0  0  0
    1.8470   11.6030   -6.9650 O   0  0  0  0  0  0  0  0  0  0  0  0
   -1.0690    9.9270   -6.1950 C   0  0  2  0  0  0  0  0  0  0  0  0
   -0.3460   10.5410   -7.3860 C   0  0  2  0  0  0  0  0  0  0  0  0
   -2.3410    9.2280   -6.6390 C   0  0  0  0  0  0  0  0  0  0  0  0
    0.2840    9.4460   -8.2310 C   0  0  0  0  0  0  0  0  0  0  0  0
   -2.1420    8.5330   -8.0000 C   0  0  0  0  0  0  0  0  0  0  0  0
   -0.6740    8.2410   -8.3650 C   0  0  0  0  0  0  0  0  0  0  0  0
  1  2  1  0
  2  3  1  0
  2  4  1  0
  3  5  1  0
  4  6  1  0
  6  5  1  6
  4  7  1  1
  6  8  1  0
  7  9  1  0
  8 10  1  1
  9 11  1  6
  8 12  1  0
  9 12  1  0
 11 13  1  0
 13 14  1  0
 14 15  1  0
 15 16  1  0
 16 17  1  0
 17 18  1  6
 17 19  1  0
 19 20  1  0
 20 21  1  0
 20 22  1  0
 21 23  1  1
 22 24  1  1
 21 25  1  0
 22 26  1  0
 25 26  1  0
 25 27  1  6
 26 28  1  1
 27 29  1  0
 28 30  1  0
 29 30  1  0
M  CHG  1  18  -1
M  END
