ucsf039-ucsf124
     RDKit          3D

 33 37  0  0  0  0  0  0  0  0999 V2000
   -4.5810   14.8430    0.5420 N   0  0  0  0  0  0  0  0  0  0  0  0
   -3.4590   15.1230   -0.3310 C   0  0  1  0  0  0  0  0  0  0  0  0
   -2.1580   14.4360    0.1450 C   0  0  1  0  0  0  0  0  0  0  0  0
   -3.8430   14.6150   -1.6210 N   0  0  0  0  0  0  0  0  0  0  0  0
   -2.8860   14.9610   -2.6940 C   0  0  0  0  0  0  0  0  0  0  0  0
   -1.1660   14.2240   -1.0150 C   0  0  1  0  0  0  0  0  0  0  0  0
   -1.4150   15.1940    1.1660 N   0  0  0  0  0  0  0  0  0  0  0  0
   -1.4820   14.8370   -2.2940 N   0  0  0  0  0  0  0  0  0  0  0  0
    0.1190   14.6510   -0.4880 N   0  0  0  0  0  0  0  0  0  0  0  0
   -0.0510   14.7690    0.9390 C   0  0  0  0  0  0  0  0  0  0  0  0
   -0.3780   14.9080   -3.3550 C   0  0  1  0  0  0  0  0  0  0  0  0
   -0.4010   13.8980   -4.5340 C   0  0  0  0  0  0  0  0  0  0  0  0
   -0.1410   16.3170   -3.9930 C   0  0  1  0  0  0  0  0  0  0  0  0
   -0.1260   12.4100   -4.2340 C   0  0  2  0  0  0  0  0  0  0  0  0
    1.0520   16.3080   -4.9200 C   0  0  0  0  0  0  0  0  0  0  0  0
   -1.2660   16.8560   -4.8080 N   0  0  0  0  0  0  0  0  0  0  0  0
    1.1610   12.1170   -3.3610 C   0  0  2  0  0  0  0  0  0  0  0  0
   -0.7620   17.8180   -5.7940 C   0  0  2  0  0  0  0  0  0  0  0  0
    1.0030   18.0150   -5.5050 S   0  0  0  0  0  0  0  0  0  0  0  0
   -0.4320   11.6290   -5.4540 N   0  0  0  0  0  0  0  0  0  0  0  0
   -1.5150   19.1350   -5.7750 C   0  0  0  0  0  0  0  0  0  0  0  0
    0.9000   11.1120   -2.5450 O   0  0  0  0  0  0  0  0  0  0  0  0
    1.3820   13.1330   -2.4080 O   0  0  0  0  0  0  0  0  0  0  0  0
   -0.9650   10.3780   -5.0120 C   0  0  1  0  0  0  0  0  0  0  0  0
    0.5410   11.3460   -6.5010 C   0  0  2  0  0  0  0  0  0  0  0  0
   -2.2630   10.6220   -4.5110 O   0  0  0  0  0  0  0  0  0  0  0  0
    0.4070   12.4000   -7.3970 O   0  0  0  0  0  0  0  0  0  0  0  0
   -0.9640    9.4330   -6.2000 C   0  0  2  0  0  0  0  0  0  0  0  0
    0.0900   10.0140   -7.1600 C   0  0  1  0  0  0  0  0  0  0  0  0
   -2.3100    9.2240   -6.8840 C   0  0  0  0  0  0  0  0  0  0  0  0
   -0.3770   10.0450   -8.6140 C   0  0  0  0  0  0  0  0  0  0  0  0
   -2.1560    8.3190   -8.1070 C   0  0  0  0  0  0  0  0  0  0  0  0
   -0.9600    8.6840   -8.9940 C   0  0  0  0  0  0  0  0  0  0  0  0
  2  1  1  1
  2  3  1  0
  2  4  1  0
  4  5  1  0
  3  6  1  0
  3  7  1  1
  5  8  1  0
  6  8  1  0
  6  9  1  1
  7 10  1  0
  9 10  1  0
  8 11  1  0
 11 12  1  6
 11 13  1  0
 14 12  1  6
 13 15  1  6
 13 16  1  0
 14 17  1  0
 16 18  1  0
 15 19  1  0
 18 19  1  0
 14 20  1  0
 18 21  1  1
 17 22  1  1
 17 23  1  0
 20 24  1  0
 20 25  1  0
 24 26  1  6
 25 27  1  6
 24 28  1  0
 25 29  1  0
 28 29  1  0
 28 30  1  6
 29 31  1  6
 30 32  1  0
 31 33  1  0
 32 33  1  0
M  CHG  1  22  -1
M  END
