ucsf303-ucsf367
     RDKit          3D

 27 29  0  0  0  0  0  0  0  0999 V2000
   -2.8420   14.1000   -3.3180 O   0  0  0  0  0  0  0  0  0  0  0  0
   -4.0180   14.4850   -2.3010 S   0  0  0  0  0  0  0  0  0  0  0  0
   -4.2520   16.0230   -2.5370 O   0  0  0  0  0  0  0  0  0  0  0  0
   -5.4230   13.6790   -2.5090 N   0  0  0  0  0  0  0  0  0  0  0  0
   -3.4120   14.4120   -0.6660 C   0  0  0  0  0  0  0  0  0  0  0  0
   -5.3880   12.3080   -2.8180 C   0  0  2  0  0  0  0  0  0  0  0  0
   -1.8890   14.4480   -0.4580 C   0  0  0  0  0  0  0  0  0  0  0  0
   -4.1880   15.5090    0.0360 C   0  0  0  0  0  0  0  0  0  0  0  0
   -5.7800   11.3780   -1.7710 N   0  0  0  0  0  0  0  0  0  0  0  0
   -3.7170   11.8810   -3.1830 S   0  0  0  0  0  0  0  0  0  0  0  0
   -1.5990   14.7110    1.0080 C   0  0  0  0  0  0  0  0  0  0  0  0
   -4.0420   15.3980    1.5070 C   0  0  0  0  0  0  0  0  0  0  0  0
   -4.4270   10.2580   -3.3810 C   0  0  2  0  0  0  0  0  0  0  0  0
   -5.2630   10.0510   -2.1730 N   0  0  0  0  0  0  0  0  0  0  0  0
   -2.8810   14.4630    1.7970 C   0  0  0  0  0  0  0  0  0  0  0  0
   -3.2460    9.3380   -3.5450 C   0  0  0  0  0  0  0  0  0  0  0  0
   -2.3290    9.5500   -4.8050 C   0  0  1  0  0  0  0  0  0  0  0  0
   -2.9270    9.1730   -6.1570 C   0  0  0  0  0  0  0  0  0  0  0  0
   -1.6590   10.9430   -4.9040 C   0  0  0  0  0  0  0  0  0  0  0  0
   -0.6420   11.0420   -6.0620 C   0  0  1  0  0  0  0  0  0  0  0  0
   -1.8290    9.0890   -7.2160 C   0  0  0  0  0  0  0  0  0  0  0  0
    0.6560   11.4430   -5.6180 O   0  0  0  0  0  0  0  0  0  0  0  0
   -0.4930    9.6780   -6.7490 C   0  0  0  0  0  0  0  0  0  0  0  0
    0.6530   12.5300   -4.6760 C   0  0  0  0  0  0  0  0  0  0  0  0
    1.3150   12.1200   -3.3290 C   0  0  2  0  0  0  0  0  0  0  0  0
    0.7170   11.0770   -2.7730 O   0  0  0  0  0  0  0  0  0  0  0  0
    1.0490   13.1070   -2.3560 O   0  0  0  0  0  0  0  0  0  0  0  0
  2  1  1  0
  2  3  1  0
  2  4  1  0
  2  5  1  0
  6  4  1  1
  5  7  1  0
  5  8  1  0
  6  9  1  0
  6 10  1  0
  7 11  1  0
  8 12  1  0
 10 13  1  0
  9 14  1  0
 13 14  1  0
 11 15  1  0
 12 15  1  0
 13 16  1  1
 17 16  1  1
 17 18  1  0
 17 19  1  0
 19 20  1  0
 18 21  1  0
 20 22  1  1
 20 23  1  0
 21 23  1  0
 22 24  1  0
 24 25  1  0
 25 26  1  1
 25 27  1  0
M  CHG  1  26  -1
M  END
