ucsf012-ucsf114
     RDKit          3D

 24 26  0  0  0  0  0  0  0  0999 V2000
   -3.8360   14.4050   -3.7360 C   0  0  0  0  0  0  0  0  0  0  0  0
   -3.0350   15.2420   -2.7350 C   0  0  1  0  0  0  0  0  0  0  0  0
   -3.6280   15.2710   -1.3100 C   0  0  1  0  0  0  0  0  0  0  0  0
   -1.5820   14.9310   -2.5530 N   0  0  0  0  0  0  0  0  0  0  0  0
   -5.1380   15.0980   -1.1990 C   0  0  0  0  0  0  0  0  0  0  0  0
   -0.9380   14.3450   -3.7300 C   0  0  1  0  0  0  0  0  0  0  0  0
   -2.7690   14.2310   -0.5710 C   0  0  1  0  0  0  0  0  0  0  0  0
   -1.3870   14.2230   -1.2690 C   0  0  2  0  0  0  0  0  0  0  0  0
    0.1180   15.3530   -4.3250 C   0  0  0  0  0  0  0  0  0  0  0  0
   -2.7010   14.2660    0.9470 C   0  0  2  0  0  0  0  0  0  0  0  0
   -0.2050   14.8170   -0.5820 N   0  0  0  0  0  0  0  0  0  0  0  0
   -0.6030   12.8210   -3.5480 C   0  0  2  0  0  0  0  0  0  0  0  0
   -3.5420   15.2650    1.5370 N   0  0  0  0  0  0  0  0  0  0  0  0
   -0.5910   16.1910   -5.2640 O   0  0  0  0  0  0  0  0  0  0  0  0
    1.3600   14.5220   -1.1620 S   0  0  0  0  0  0  0  0  0  0  0  0
   -1.3860   14.3440    1.5270 N   0  0  0  0  0  0  0  0  0  0  0  0
   -0.3930   15.1390    0.8350 C   0  0  0  0  0  0  0  0  0  0  0  0
    0.6210   12.2350   -2.8840 C   0  0  0  0  0  0  0  0  0  0  0  0
   -0.7720   12.0030   -4.7020 O   0  0  0  0  0  0  0  0  0  0  0  0
   -0.2570   17.5810   -5.4300 C   0  0  0  0  0  0  0  0  0  0  0  0
   -0.5800   10.6740   -4.1990 C   0  0  0  0  0  0  0  0  0  0  0  0
    0.0830   10.8200   -2.8300 C   0  0  0  0  0  0  0  0  0  0  0  0
    0.8260   17.9820   -4.4390 C   0  0  0  0  0  0  0  0  0  0  0  0
   -1.5060   18.4450   -5.2590 C   0  0  0  0  0  0  0  0  0  0  0  0
  2  1  1  6
  2  3  1  0
  2  4  1  0
  3  5  1  6
  4  6  1  0
  3  7  1  0
  8  4  1  6
  7  8  1  0
  6  9  1  1
  7 10  1  1
  8 11  1  0
  6 12  1  0
 10 13  1  6
  9 14  1  0
 11 15  1  0
 10 16  1  0
 11 17  1  0
 16 17  1  0
 12 18  1  6
 12 19  1  0
 14 20  1  0
 19 21  1  0
 18 22  1  0
 21 22  1  0
 20 23  1  0
 20 24  1  0
M  END
