ucsf442-ucsf278
     RDKit          3D

 22 25  0  0  0  0  0  0  0  0999 V2000
   -0.0520   15.2250    0.4970 O   0  0  0  0  0  0  0  0  0  0  0  0
   -1.2110   14.5430    0.1260 C   0  0  2  0  0  0  0  0  0  0  0  0
   -1.4660   14.6980   -1.3160 N   0  0  0  0  0  0  0  0  0  0  0  0
   -2.2190   15.1810    0.9100 N   0  0  0  0  0  0  0  0  0  0  0  0
   -3.4160   14.4200    0.8520 C   0  0  2  0  0  0  0  0  0  0  0  0
   -2.8830   14.5480   -1.6940 C   0  0  2  0  0  0  0  0  0  0  0  0
   -0.3370   14.1890   -2.2190 C   0  0  1  0  0  0  0  0  0  0  0  0
   -3.3860   15.6990   -2.3470 O   0  0  0  0  0  0  0  0  0  0  0  0
   -3.9250   14.2240   -0.5720 C   0  0  2  0  0  0  0  0  0  0  0  0
   -4.4950   15.1490    1.5190 N   0  0  0  0  0  0  0  0  0  0  0  0
   -0.5530   13.7010   -3.6960 C   0  0  2  0  0  0  0  0  0  0  0  0
    0.8630   15.1610   -2.2170 C   0  0  0  0  0  0  0  0  0  0  0  0
   -5.2250   14.9390   -0.6120 N   0  0  0  0  0  0  0  0  0  0  0  0
   -5.6370   14.7030    0.7520 C   0  0  0  0  0  0  0  0  0  0  0  0
   -1.4430   12.5130   -4.0330 C   0  0  0  0  0  0  0  0  0  0  0  0
    0.7300   13.1760   -4.3340 C   0  0  1  0  0  0  0  0  0  0  0  0
    2.0660   14.9000   -3.1560 C   0  0  0  0  0  0  0  0  0  0  0  0
   -1.0560   12.1670   -5.4820 C   0  0  1  0  0  0  0  0  0  0  0  0
    0.3280   12.6390   -5.6320 N   0  0  0  0  0  0  0  0  0  0  0  0
    1.8020   14.2140   -4.4750 C   0  0  0  0  0  0  0  0  0  0  0  0
   -1.2560   10.6890   -5.8760 C   0  0  0  0  0  0  0  0  0  0  0  0
   -2.4390   10.1340   -5.3220 O   0  0  0  0  0  0  0  0  0  0  0  0
  2  1  1  6
  2  3  1  0
  2  4  1  0
  5  4  1  6
  3  6  1  0
  7  3  1  6
  6  8  1  1
  5  9  1  0
  6  9  1  0
  5 10  1  0
  7 11  1  0
  7 12  1  0
  9 13  1  6
 10 14  1  0
 13 14  1  0
 11 15  1  1
 11 16  1  0
 12 17  1  0
 15 18  1  0
 16 19  1  0
 18 19  1  0
 16 20  1  6
 17 20  1  0
 18 21  1  1
 21 22  1  0
M  END
