ucsf274-ucsf337
     RDKit          3D

 28 30  0  0  0  0  0  0  0  0999 V2000
    0.5990   11.1400   -2.6190 O   0  0  0  0  0  0  0  0  0  0  0  0
    1.1070   12.3450   -2.4630 C   0  0  2  0  0  0  0  0  0  0  0  0
    0.6440   12.7550   -1.1750 O   0  0  0  0  0  0  0  0  0  0  0  0
    0.5370   13.3800   -3.4830 C   0  0  0  0  0  0  0  0  0  0  0  0
    0.4730   12.9780   -4.9680 C   0  0  0  0  0  0  0  0  0  0  0  0
   -0.1760   11.6220   -5.2820 C   0  0  1  0  0  0  0  0  0  0  0  0
   -1.5590   11.3590   -4.5750 C   0  0  1  0  0  0  0  0  0  0  0  0
   -0.1690   11.2240   -6.6890 N   0  0  0  0  0  0  0  0  0  0  0  0
   -2.1950   12.5530   -4.1480 O   0  0  0  0  0  0  0  0  0  0  0  0
   -2.5120   10.5800   -5.3740 N   0  0  0  0  0  0  0  0  0  0  0  0
   -0.5490    9.8130   -6.8090 C   0  0  1  0  0  0  0  0  0  0  0  0
   -2.8670   13.2470   -5.1870 C   0  0  0  0  0  0  0  0  0  0  0  0
   -1.8480    9.4410   -6.0070 C   0  0  2  0  0  0  0  0  0  0  0  0
   -0.5910    9.4220   -8.2870 C   0  0  0  0  0  0  0  0  0  0  0  0
   -4.3530   13.2800   -4.8490 C   0  0  0  0  0  0  0  0  0  0  0  0
   -0.9200    7.9460   -8.4540 C   0  0  0  0  0  0  0  0  0  0  0  0
   -2.8330    8.6840   -6.8970 C   0  0  0  0  0  0  0  0  0  0  0  0
   -4.7780   14.6940   -4.4770 C   0  0  0  0  0  0  0  0  0  0  0  0
   -2.1620    7.5370   -7.6560 C   0  0  0  0  0  0  0  0  0  0  0  0
   -5.8990   14.8160   -3.5330 N   0  0  0  0  0  0  0  0  0  0  0  0
   -5.6220   15.1250   -2.1420 C   0  0  2  0  0  0  0  0  0  0  0  0
   -4.1420   15.2410   -1.6960 C   0  0  0  0  0  0  0  0  0  0  0  0
   -6.3900   14.2100   -1.3440 N   0  0  0  0  0  0  0  0  0  0  0  0
   -6.3980   14.7420   -0.0080 C   0  0  1  0  0  0  0  0  0  0  0  0
   -3.9570   15.3710   -0.1720 C   0  0  0  0  0  0  0  0  0  0  0  0
   -7.5220   14.1440    0.8360 C   0  0  0  0  0  0  0  0  0  0  0  0
   -4.9900   14.5410    0.5890 C   0  0  1  0  0  0  0  0  0  0  0  0
   -4.9190   15.0420    2.5020 Br  0  0  0  0  0  0  0  0  0  0  0  0
  2  1  1  6
  2  3  1  0
  2  4  1  0
  4  5  1  0
  6  5  1  6
  6  7  1  0
  6  8  1  0
  7  9  1  6
  7 10  1  0
  8 11  1  0
  9 12  1  0
 10 13  1  0
 11 13  1  0
 11 14  1  6
 12 15  1  0
 14 16  1  0
 13 17  1  6
 15 18  1  0
 16 19  1  0
 17 19  1  0
 18 20  1  0
 21 20  1  6
 21 22  1  0
 21 23  1  0
 23 24  1  0
 22 25  1  0
 24 26  1  1
 24 27  1  0
 25 27  1  0
 27 28  1  1
M  CHG  1   1  -1
M  END
