ucsf173-ucsf006
     RDKit          3D

 27 30  0  0  0  0  0  0  0  0999 V2000
   -0.4490   12.0490   -1.6630 O   0  0  0  0  0  0  0  0  0  0  0  0
   -0.2370   12.3940   -2.9500 C   0  0  2  0  0  0  0  0  0  0  0  0
   -0.9930   11.4650   -3.6960 O   0  0  0  0  0  0  0  0  0  0  0  0
    1.2640   12.3320   -3.2930 C   0  0  2  0  0  0  0  0  0  0  0  0
   -0.6880   13.8360   -3.3110 C   0  0  2  0  0  0  0  0  0  0  0  0
    2.0950   13.5250   -2.7710 C   0  0  0  0  0  0  0  0  0  0  0  0
    1.4300   12.2100   -4.7220 O   0  0  0  0  0  0  0  0  0  0  0  0
   -1.9300   13.9870   -4.2010 C   0  0  0  0  0  0  0  0  0  0  0  0
    0.4330   14.6630   -4.0070 C   0  0  0  0  0  0  0  0  0  0  0  0
    1.3700   14.3360   -1.6730 C   0  0  0  0  0  0  0  0  0  0  0  0
   -1.6750   15.2120   -5.0880 C   0  0  2  0  0  0  0  0  0  0  0  0
   -0.1370   15.3890   -5.2010 C   0  0  1  0  0  0  0  0  0  0  0  0
   -0.0380   14.8020   -1.9630 N   0  0  0  0  0  0  0  0  0  0  0  0
   -2.4460   16.4770   -4.7600 C   0  0  0  0  0  0  0  0  0  0  0  0
    0.4670   16.8190   -5.2890 C   0  0  0  0  0  0  0  0  0  0  0  0
   -0.1510   16.1950   -2.4020 C   0  0  0  0  0  0  0  0  0  0  0  0
   -1.8790   17.7000   -5.4630 C   0  0  0  0  0  0  0  0  0  0  0  0
   -0.4740   17.9760   -4.9810 C   0  0  0  0  0  0  0  0  0  0  0  0
   -0.8620   14.5540   -0.7920 C   0  0  2  0  0  0  0  0  0  0  0  0
   -2.1510   15.3390   -0.5200 C   0  0  2  0  0  0  0  0  0  0  0  0
    0.0050   14.8770    0.3240 N   0  0  0  0  0  0  0  0  0  0  0  0
   -2.7450   14.6890    0.6890 C   0  0  1  0  0  0  0  0  0  0  0  0
   -0.5490   14.2990    1.5130 C   0  0  0  0  0  0  0  0  0  0  0  0
   -3.3500   15.2750   -1.4540 C   0  0  0  0  0  0  0  0  0  0  0  0
   -1.8610   14.8590    1.7880 N   0  0  0  0  0  0  0  0  0  0  0  0
   -3.9820   15.4270    0.8790 N   0  0  0  0  0  0  0  0  0  0  0  0
   -4.5330   15.4960   -0.5000 C   0  0  0  0  0  0  0  0  0  0  0  0
  2  1  1  1
  2  3  1  0
  2  4  1  0
  2  5  1  0
  4  6  1  0
  4  7  1  6
  5  8  1  6
  5  9  1  0
  6 10  1  0
 11  8  1  1
 12  9  1  1
 11 12  1  0
 10 13  1  0
 11 14  1  0
 12 15  1  0
 13 16  1  0
 14 17  1  0
 15 18  1  0
 17 18  1  0
 19 13  1  6
 19 20  1  0
 19 21  1  0
 20 22  1  0
 21 23  1  0
 20 24  1  6
 22 25  1  1
 23 25  1  0
 22 26  1  0
 24 27  1  0
 26 27  1  0
M  CHG  1   1  -1
M  END
