ucsf365-ucsf243
     RDKit          3D

 21 22  0  0  0  0  0  0  0  0999 V2000
    0.7760   10.8280   -2.5140 O   0  0  0  0  0  0  0  0  0  0  0  0
    0.9620   11.9960   -3.1220 C   0  0  2  0  0  0  0  0  0  0  0  0
    1.9980   12.5270   -2.3360 O   0  0  0  0  0  0  0  0  0  0  0  0
   -0.3750   12.7720   -2.9530 C   0  0  1  0  0  0  0  0  0  0  0  0
   -0.4780   13.8040   -1.7130 C   0  0  1  0  0  0  0  0  0  0  0  0
   -1.1070   13.3610   -4.2260 C   0  0  2  0  0  0  0  0  0  0  0  0
    0.2270   14.9060   -1.9330 O   0  0  0  0  0  0  0  0  0  0  0  0
   -1.8030   12.3920   -5.1880 C   0  0  2  0  0  0  0  0  0  0  0  0
   -0.5750   14.5910   -4.9720 C   0  0  0  0  0  0  0  0  0  0  0  0
   -2.0010   14.1440   -1.5270 C   0  0  1  0  0  0  0  0  0  0  0  0
   -0.9210   11.4280   -5.7610 O   0  0  0  0  0  0  0  0  0  0  0  0
   -2.5550   13.1630   -6.2820 C   0  0  0  0  0  0  0  0  0  0  0  0
   -1.8180   15.4410   -5.2570 C   0  0  0  0  0  0  0  0  0  0  0  0
   -2.3930   14.7100   -0.1560 C   0  0  0  0  0  0  0  0  0  0  0  0
   -2.7250   14.7990   -2.7270 C   0  0  1  0  0  0  0  0  0  0  0  0
   -2.6240   13.9200   -3.8570 O   0  0  0  0  0  0  0  0  0  0  0  0
   -2.9490   14.6110   -5.8960 C   0  0  0  0  0  0  0  0  0  0  0  0
   -3.7430   15.4210   -0.1320 C   0  0  2  0  0  0  0  0  0  0  0  0
   -4.2110   15.0550   -2.5650 C   0  0  0  0  0  0  0  0  0  0  0  0
   -4.2970   15.4160    1.2760 C   0  0  0  0  0  0  0  0  0  0  0  0
   -4.7150   14.8500   -1.1550 C   0  0  0  0  0  0  0  0  0  0  0  0
  2  1  1  1
  2  3  1  0
  4  2  1  6
  4  5  1  0
  4  6  1  0
  5  7  1  6
  6  8  1  0
  6  9  1  6
  5 10  1  0
  8 11  1  6
  8 12  1  0
  9 13  1  0
 10 14  1  1
 10 15  1  0
 15 16  1  6
 12 17  1  0
 13 17  1  0
 14 18  1  0
 15 19  1  0
 18 20  1  1
 18 21  1  0
 19 21  1  0
M  CHG  2   1  -1   7  -1
M  END
