ucsf412-ucsf110
     RDKit          3D

 21 24  0  0  0  0  0  0  0  0999 V2000
   -8.2190   15.1390    0.4370 O   0  0  0  0  0  0  0  0  0  0  0  0
   -6.9530   14.5220    0.4610 C   0  0  2  0  0  0  0  0  0  0  0  0
   -6.3330   14.8400    1.7530 N   0  0  0  0  0  0  0  0  0  0  0  0
   -6.1120   14.9910   -0.7230 C   0  0  1  0  0  0  0  0  0  0  0  0
   -4.8060   14.2330   -0.5210 C   0  0  2  0  0  0  0  0  0  0  0  0
   -4.8420   14.7360    1.8430 C   0  0  0  0  0  0  0  0  0  0  0  0
   -6.8220   14.7880   -2.0770 C   0  0  0  0  0  0  0  0  0  0  0  0
   -4.0800   15.0350    0.5410 C   0  0  1  0  0  0  0  0  0  0  0  0
   -4.0010   13.9640   -1.7880 C   0  0  0  0  0  0  0  0  0  0  0  0
   -5.8860   14.4860   -3.2380 C   0  0  0  0  0  0  0  0  0  0  0  0
   -4.4680   14.8570   -2.9150 C   0  0  0  0  0  0  0  0  0  0  0  0
   -2.5470   14.7400    0.4480 C   0  0  1  0  0  0  0  0  0  0  0  0
   -1.9420   15.6020   -0.6460 C   0  0  2  0  0  0  0  0  0  0  0  0
   -1.7050   14.8210    1.6230 N   0  0  0  0  0  0  0  0  0  0  0  0
   -2.6820   15.5510   -1.9720 C   0  0  0  0  0  0  0  0  0  0  0  0
   -0.5260   15.1600   -0.9310 C   0  0  2  0  0  0  0  0  0  0  0  0
   -0.3730   14.2910    1.3260 C   0  0  0  0  0  0  0  0  0  0  0  0
   -0.5350   14.8380   -2.3620 N   0  0  0  0  0  0  0  0  0  0  0  0
   -1.5900   15.5910   -3.0130 C   0  0  0  0  0  0  0  0  0  0  0  0
   -0.1820   14.0430   -0.0960 N   0  0  0  0  0  0  0  0  0  0  0  0
    0.7370   14.8730   -3.0530 C   0  0  0  0  0  0  0  0  0  0  0  0
  2  1  1  1
  2  3  1  0
  2  4  1  0
  4  5  1  0
  3  6  1  0
  4  7  1  6
  5  8  1  0
  8  6  1  1
  5  9  1  6
  7 10  1  0
  9 11  1  0
 10 11  1  0
  8 12  1  0
 12 13  1  0
 12 14  1  1
 13 15  1  6
 13 16  1  0
 14 17  1  0
 16 18  1  0
 15 19  1  0
 18 19  1  0
 16 20  1  1
 17 20  1  0
 18 21  1  0
M  END
