ucsf123-ucsf248
     RDKit          3D

 27 29  0  0  0  0  0  0  0  0999 V2000
   -2.0880   19.0290   -5.2140 N   0  0  0  0  0  0  0  0  0  0  0  0
   -1.6520   17.5240   -5.6790 S   0  0  0  0  0  0  0  0  0  0  0  0
   -0.2950   17.6570   -6.5050 O   0  0  0  0  0  0  0  0  0  0  0  0
   -2.7310   16.9240   -6.6810 O   0  0  0  0  0  0  0  0  0  0  0  0
   -1.3090   16.2530   -4.4730 C   0  0  2  0  0  0  0  0  0  0  0  0
    0.1790   16.1490   -4.1950 C   0  0  0  0  0  0  0  0  0  0  0  0
   -1.9110   14.8970   -4.8510 C   0  0  0  0  0  0  0  0  0  0  0  0
    0.4500   15.2130   -3.0330 C   0  0  0  0  0  0  0  0  0  0  0  0
   -1.7020   13.7750   -3.8060 C   0  0  2  0  0  0  0  0  0  0  0  0
   -3.0130   13.3940   -3.0220 C   0  0  0  0  0  0  0  0  0  0  0  0
   -0.2660   13.8140   -3.1010 C   0  0  2  0  0  0  0  0  0  0  0  0
   -0.0180   13.0180   -1.7660 C   0  0  2  0  0  0  0  0  0  0  0  0
   -3.6690   14.2530   -1.8650 C   0  0  1  0  0  0  0  0  0  0  0  0
    1.3730   13.0950   -1.5570 O   0  0  0  0  0  0  0  0  0  0  0  0
   -0.1580   11.7060   -1.7840 O   0  0  0  0  0  0  0  0  0  0  0  0
   -2.8210   15.3090   -1.0920 C   0  0  0  0  0  0  0  0  0  0  0  0
   -5.0720   14.8560   -2.1460 C   0  0  0  0  0  0  0  0  0  0  0  0
   -5.6600   15.3350   -0.8110 C   0  0  2  0  0  0  0  0  0  0  0  0
   -3.4250   15.5150    0.3140 C   0  0  0  0  0  0  0  0  0  0  0  0
   -4.7720   14.8080    0.3060 C   0  0  1  0  0  0  0  0  0  0  0  0
   -6.9910   14.8000   -0.4410 N   0  0  0  0  0  0  0  0  0  0  0  0
   -6.8280   14.2750    0.9240 C   0  0  1  0  0  0  0  0  0  0  0  0
   -5.6310   14.9130    1.4690 N   0  0  0  0  0  0  0  0  0  0  0  0
   -8.2870   14.3630    2.0360 S   0  0  0  0  0  0  0  0  0  0  0  0
   -8.7140   12.9570    2.7930 N   0  0  0  0  0  0  0  0  0  0  0  0
   -7.9410   15.4620    3.1390 O   0  0  0  0  0  0  0  0  0  0  0  0
   -9.5100   14.9310    1.1740 O   0  0  0  0  0  0  0  0  0  0  0  0
  1  2  1  0
  2  3  1  0
  2  4  1  0
  5  2  1  6
  5  6  1  0
  5  7  1  0
  6  8  1  0
  7  9  1  0
  9 10  1  1
 11  8  1  1
  9 11  1  0
 11 12  1  0
 13 10  1  6
 12 14  1  6
 12 15  1  0
 13 16  1  0
 13 17  1  0
 18 17  1  6
 16 19  1  0
 18 20  1  0
 20 19  1  1
 18 21  1  0
 21 22  1  0
 20 23  1  0
 22 23  1  0
 22 24  1  1
 24 25  1  0
 24 26  1  0
 24 27  1  0
M  CHG  1  15  -1
M  END
