ucsf241-ucsf278
     RDKit          3D

 20 23  0  0  0  0  0  0  0  0999 V2000
   -2.5140   10.2700   -5.6120 O   0  0  0  0  0  0  0  0  0  0  0  0
   -1.5000   11.0330   -6.2460 C   0  0  0  0  0  0  0  0  0  0  0  0
   -0.5210   11.6010   -5.2130 C   0  0  2  0  0  0  0  0  0  0  0  0
   -1.2230   12.2850   -4.0200 C   0  0  0  0  0  0  0  0  0  0  0  0
    0.4160   12.6040   -5.7590 N   0  0  0  0  0  0  0  0  0  0  0  0
   -0.0880   13.1760   -3.5990 C   0  0  1  0  0  0  0  0  0  0  0  0
    0.2660   13.7920   -4.9200 C   0  0  1  0  0  0  0  0  0  0  0  0
   -0.1240   14.1800   -2.4430 C   0  0  2  0  0  0  0  0  0  0  0  0
    1.4790   14.6910   -4.8390 C   0  0  0  0  0  0  0  0  0  0  0  0
   -0.8800   13.9240   -1.1150 C   0  0  2  0  0  0  0  0  0  0  0  0
    0.1340   15.6170   -2.8980 C   0  0  0  0  0  0  0  0  0  0  0  0
    1.4510   15.6610   -3.6670 C   0  0  0  0  0  0  0  0  0  0  0  0
   -2.3610   14.3000   -0.6790 C   0  0  2  0  0  0  0  0  0  0  0  0
    0.1880   14.1920   -0.0750 C   0  0  0  0  0  0  0  0  0  0  0  0
   -3.1180   15.5840   -0.9940 C   0  0  0  0  0  0  0  0  0  0  0  0
   -2.5990   14.2600    0.8630 C   0  0  2  0  0  0  0  0  0  0  0  0
   -0.2960   14.9870    1.0830 C   0  0  0  0  0  0  0  0  0  0  0  0
   -4.2640   15.5660    0.0070 C   0  0  0  0  0  0  0  0  0  0  0  0
   -3.5960   15.2290    1.2490 N   0  0  0  0  0  0  0  0  0  0  0  0
   -1.4800   14.4690    1.7130 N   0  0  0  0  0  0  0  0  0  0  0  0
  1  2  1  0
  3  2  1  6
  3  4  1  0
  3  5  1  0
  6  4  1  6
  5  7  1  0
  6  7  1  0
  6  8  1  0
  7  9  1  1
  8 10  1  0
  8 11  1  6
  9 12  1  0
 11 12  1  0
 10 13  1  0
 10 14  1  1
 13 15  1  1
 13 16  1  0
 14 17  1  0
 15 18  1  0
 16 19  1  6
 18 19  1  0
 16 20  1  0
 17 20  1  0
M  END
