ucsf028-ucsf340
     RDKit          3D

 32 36  0  0  0  0  0  0  0  0999 V2000
   -4.3300   14.7340    0.8370 N   0  0  0  0  0  0  0  0  0  0  0  0
   -3.4270   15.5080    0.0030 C   0  0  1  0  0  0  0  0  0  0  0  0
   -1.9300   15.3760    0.3140 C   0  0  2  0  0  0  0  0  0  0  0  0
   -3.7340   15.1050   -1.3440 N   0  0  0  0  0  0  0  0  0  0  0  0
   -2.6520   15.4270   -2.2920 C   0  0  0  0  0  0  0  0  0  0  0  0
   -1.2540   14.3980   -0.6190 C   0  0  1  0  0  0  0  0  0  0  0  0
   -1.5330   14.8330    1.6250 N   0  0  0  0  0  0  0  0  0  0  0  0
   -1.4370   14.6170   -2.0300 N   0  0  0  0  0  0  0  0  0  0  0  0
    0.0430   14.6030   -0.0670 N   0  0  0  0  0  0  0  0  0  0  0  0
   -0.1680   14.3420    1.3370 C   0  0  0  0  0  0  0  0  0  0  0  0
   -0.2430   14.5210   -3.0450 C   0  0  1  0  0  0  0  0  0  0  0  0
    1.2140   14.3340   -2.5180 C   0  0  0  0  0  0  0  0  0  0  0  0
   -0.2640   13.0780   -3.7040 C   0  0  2  0  0  0  0  0  0  0  0  0
   -0.1850   15.6380   -4.1560 C   0  0  2  0  0  0  0  0  0  0  0  0
    1.5910   12.9300   -2.0160 C   0  0  1  0  0  0  0  0  0  0  0  0
   -1.2080   12.5280   -4.7230 C   0  0  0  0  0  0  0  0  0  0  0  0
   -0.3720   12.0580   -2.6870 O   0  0  0  0  0  0  0  0  0  0  0  0
    0.4450   17.0270   -3.8890 C   0  0  0  0  0  0  0  0  0  0  0  0
   -1.5000   15.9790   -4.7470 C   0  0  1  0  0  0  0  0  0  0  0  0
    0.7130   12.7580   -0.9270 O   0  0  0  0  0  0  0  0  0  0  0  0
    1.2270   11.9300   -2.8070 O   0  0  0  0  0  0  0  0  0  0  0  0
   -0.3830   10.7830   -3.4040 N   0  0  0  0  0  0  0  0  0  0  0  0
   -0.5090   11.2010   -4.7980 C   0  0  1  0  0  0  0  0  0  0  0  0
   -0.1210   17.9390   -4.9160 N   0  0  0  0  0  0  0  0  0  0  0  0
   -1.0990   17.1480   -5.6350 C   0  0  2  0  0  0  0  0  0  0  0  0
   -2.1860   14.7760   -5.4210 C   0  0  0  0  0  0  0  0  0  0  0  0
   -1.1900   10.2930   -5.6250 O   0  0  0  0  0  0  0  0  0  0  0  0
    0.9460   18.4690   -5.7420 C   0  0  0  0  0  0  0  0  0  0  0  0
   -3.2890   15.2080   -6.3370 C   0  0  0  0  0  0  0  0  0  0  0  0
   -2.3640   17.6700   -6.2360 C   0  0  0  0  0  0  0  0  0  0  0  0
   -0.7410   10.4370   -6.9570 C   0  0  0  0  0  0  0  0  0  0  0  0
   -3.4850   16.6340   -6.0170 C   0  0  0  0  0  0  0  0  0  0  0  0
  2  1  1  1
  2  3  1  0
  2  4  1  0
  4  5  1  0
  3  6  1  0
  3  7  1  1
  5  8  1  0
  6  8  1  0
  6  9  1  6
  7 10  1  0
  9 10  1  0
  8 11  1  0
 11 12  1  1
 11 13  1  0
 11 14  1  0
 12 15  1  0
 13 16  1  6
 13 17  1  0
 14 18  1  1
 14 19  1  0
 15 20  1  1
 15 21  1  0
 17 22  1  0
 16 23  1  0
 22 23  1  0
 18 24  1  0
 19 25  1  0
 24 25  1  0
 19 26  1  6
 23 27  1  6
 24 28  1  0
 26 29  1  0
 25 30  1  1
 27 31  1  0
 29 32  1  0
 30 32  1  0
M  CHG  1  21  -1
M  END
