ucsf147-ucsf487
     RDKit          3D

 21 23  0  0  0  0  0  0  0  0999 V2000
    1.1720   12.6600   -5.3740 C   0  0  0  0  0  0  0  0  0  0  0  0
    0.1450   13.6840   -4.9050 C   0  0  1  0  0  0  0  0  0  0  0  0
   -1.0730   13.5700   -5.6770 O   0  0  0  0  0  0  0  0  0  0  0  0
   -0.3470   13.5120   -3.4690 C   0  0  1  0  0  0  0  0  0  0  0  0
    0.7250   13.7810   -2.3510 C   0  0  2  0  0  0  0  0  0  0  0  0
   -2.1940   13.9810   -4.8080 N   0  0  0  0  0  0  0  0  0  0  0  0
   -1.5110   14.4950   -3.5960 C   0  0  1  0  0  0  0  0  0  0  0  0
    0.4690   12.9870   -1.1800 O   0  0  0  0  0  0  0  0  0  0  0  0
    0.6560   15.0380   -1.9810 O   0  0  0  0  0  0  0  0  0  0  0  0
   -2.5140   14.6830   -2.4070 C   0  0  2  0  0  0  0  0  0  0  0  0
   -2.6960   13.4310   -1.5360 C   0  0  0  0  0  0  0  0  0  0  0  0
   -3.8820   15.3020   -2.7050 C   0  0  0  0  0  0  0  0  0  0  0  0
   -3.4770   13.7260   -0.2570 C   0  0  0  0  0  0  0  0  0  0  0  0
   -4.5300   15.7300   -1.3840 C   0  0  0  0  0  0  0  0  0  0  0  0
   -4.7990   14.5260   -0.4580 C   0  0  2  0  0  0  0  0  0  0  0  0
   -5.2740   14.8990    0.9790 C   0  0  0  0  0  0  0  0  0  0  0  0
   -5.9320   13.7340   -1.1160 C   0  0  0  0  0  0  0  0  0  0  0  0
   -6.6440   14.2630    1.3710 C   0  0  1  0  0  0  0  0  0  0  0  0
   -7.2460   14.3890   -1.0440 N   0  0  0  0  0  0  0  0  0  0  0  0
   -7.0570   14.6300    2.7300 N   0  0  0  0  0  0  0  0  0  0  0  0
   -7.7370   14.5360    0.3270 C   0  0  0  0  0  0  0  0  0  0  0  0
  2  1  1  6
  2  3  1  0
  2  4  1  0
  4  5  1  1
  3  6  1  0
  4  7  1  0
  7  6  1  6
  5  8  1  1
  5  9  1  0
  7 10  1  0
 10 11  1  6
 10 12  1  0
 11 13  1  0
 12 14  1  0
 15 13  1  1
 14 15  1  0
 15 16  1  0
 15 17  1  0
 16 18  1  0
 17 19  1  0
 18 20  1  1
 18 21  1  0
 19 21  1  0
M  CHG  1   9  -1
M  END
