ucsf170-ucsf387
     RDKit          3D

 18 19  0  0  0  0  0  0  0  0999 V2000
   -4.9810   15.0240    1.1800 C   0  0  0  0  0  0  0  0  0  0  0  0
   -3.1920   15.2330    1.2600 S   0  0  0  0  0  0  0  0  0  0  0  0
   -2.7460   15.4660   -0.5220 C   0  0  1  0  0  0  0  0  0  0  0  0
   -1.3320   14.9910   -0.8170 C   0  0  0  0  0  0  0  0  0  0  0  0
   -3.7950   14.8350   -1.4390 C   0  0  0  0  0  0  0  0  0  0  0  0
   -1.2780   13.7360   -1.7150 C   0  0  2  0  0  0  0  0  0  0  0  0
   -3.3550   14.6990   -2.9010 C   0  0  0  0  0  0  0  0  0  0  0  0
    0.1230   13.0190   -1.6970 C   0  0  2  0  0  0  0  0  0  0  0  0
   -1.9140   14.1360   -3.0940 C   0  0  1  0  0  0  0  0  0  0  0  0
    1.1110   13.7180   -2.4020 O   0  0  0  0  0  0  0  0  0  0  0  0
    0.0910   11.8270   -2.2820 O   0  0  0  0  0  0  0  0  0  0  0  0
   -1.0670   15.1480   -3.8980 C   0  0  1  0  0  0  0  0  0  0  0  0
    0.1410   14.6440   -4.6760 C   0  0  0  0  0  0  0  0  0  0  0  0
   -1.9110   15.9860   -4.8600 C   0  0  0  0  0  0  0  0  0  0  0  0
   -1.1490   17.2240   -5.2830 C   0  0  0  0  0  0  0  0  0  0  0  0
    1.0260   15.8530   -4.9540 C   0  0  0  0  0  0  0  0  0  0  0  0
    0.2940   17.2020   -4.7850 C   0  0  1  0  0  0  0  0  0  0  0  0
    1.1410   18.4620   -5.6970 Cl  0  0  0  0  0  0  0  0  0  0  0  0
  1  2  1  0
  3  2  1  1
  3  4  1  0
  3  5  1  0
  6  4  1  1
  5  7  1  0
  6  8  1  0
  6  9  1  0
  9  7  1  1
  8 10  1  6
  8 11  1  0
  9 12  1  0
 12 13  1  6
 12 14  1  0
 14 15  1  0
 13 16  1  0
 15 17  1  0
 16 17  1  0
 17 18  1  6
M  CHG  1  11  -1
M  END
