ucsf248-ucsf339
     RDKit          3D

 21 23  0  0  0  0  0  0  0  0999 V2000
   -7.5930   12.7940    2.1440 N   0  0  0  0  0  0  0  0  0  0  0  0
   -7.2910   14.2470    1.9890 S   0  0  0  0  0  0  0  0  0  0  0  0
   -7.6650   15.1290    3.3080 O   0  0  0  0  0  0  0  0  0  0  0  0
   -8.7490   14.8440    0.9770 O   0  0  0  0  0  0  0  0  0  0  0  0
   -5.8910   14.8460    1.2100 C   0  0  1  0  0  0  0  0  0  0  0  0
   -4.7720   14.0500    1.1220 N   0  0  0  0  0  0  0  0  0  0  0  0
   -6.1880   15.3680   -0.0330 N   0  0  0  0  0  0  0  0  0  0  0  0
   -3.9060   14.1580   -0.6670 S   0  0  0  0  0  0  0  0  0  0  0  0
   -5.6210   14.4620   -0.9050 C   0  0  2  0  0  0  0  0  0  0  0  0
   -4.5360   12.9380   -1.8340 C   0  0  0  0  0  0  0  0  0  0  0  0
   -5.9740   14.9160   -2.2170 C   0  0  0  0  0  0  0  0  0  0  0  0
   -2.1040   14.7260   -0.4910 C   0  0  0  0  0  0  0  0  0  0  0  0
   -3.2610   15.4820   -1.6970 C   0  0  0  0  0  0  0  0  0  0  0  0
   -4.4070   13.5490   -3.2040 C   0  0  0  0  0  0  0  0  0  0  0  0
   -5.0410   14.8570   -3.3170 C   0  0  0  0  0  0  0  0  0  0  0  0
   -1.3430   14.2450   -1.7810 C   0  0  2  0  0  0  0  0  0  0  0  0
   -2.7070   15.2860   -2.9160 N   0  0  0  0  0  0  0  0  0  0  0  0
    0.1420   13.8660   -1.5090 C   0  0  1  0  0  0  0  0  0  0  0  0
   -1.3430   15.0470   -3.0010 C   0  0  0  0  0  0  0  0  0  0  0  0
    0.7780   13.9450   -2.7520 O   0  0  0  0  0  0  0  0  0  0  0  0
    0.7200   14.7240   -0.5960 O   0  0  0  0  0  0  0  0  0  0  0  0
  1  2  1  0
  2  3  1  0
  2  4  1  0
  5  2  1  6
  5  6  1  0
  5  7  1  0
  6  8  1  0
  7  9  1  0
  8  9  1  0
  8 10  1  0
  9 11  1  6
  8 12  1  0
  8 13  1  0
 10 14  1  0
 11 15  1  0
 14 15  1  0
 16 12  1  1
 13 17  1  0
 16 18  1  0
 16 19  1  0
 17 19  1  0
 18 20  1  6
 18 21  1  0
M  CHG  1  20  -1
M  END
