ucsf523-ucsf345
     RDKit          3D

 15 16  0  0  0  0  0  0  0  0999 V2000
    0.2840   14.5380    1.5320 N   0  0  0  0  0  0  0  0  0  0  0  0
   -0.8280   14.9490    0.7880 C   0  0  2  0  0  0  0  0  0  0  0  0
   -1.7610   14.0120    1.2620 N   0  0  0  0  0  0  0  0  0  0  0  0
   -0.4620   14.7110   -0.5660 N   0  0  0  0  0  0  0  0  0  0  0  0
   -1.5400   14.3030   -1.4600 C   0  0  2  0  0  0  0  0  0  0  0  0
   -3.0370   14.0730    0.6060 C   0  0  2  0  0  0  0  0  0  0  0  0
   -1.3540   15.0440   -2.6450 O   0  0  0  0  0  0  0  0  0  0  0  0
   -3.0000   14.4060   -0.9180 C   0  0  1  0  0  0  0  0  0  0  0  0
   -3.8930   14.8690    1.4220 N   0  0  0  0  0  0  0  0  0  0  0  0
   -5.1830   15.0630    0.8060 C   0  0  2  0  0  0  0  0  0  0  0  0
   -3.8000   15.5870   -1.3270 N   0  0  0  0  0  0  0  0  0  0  0  0
   -5.9210   13.8670    0.8060 O   0  0  0  0  0  0  0  0  0  0  0  0
   -5.1180   15.6200   -0.6550 C   0  0  0  0  0  0  0  0  0  0  0  0
   -7.2910   14.1430    0.9720 C   0  0  0  0  0  0  0  0  0  0  0  0
   -7.8620   14.6220   -0.2240 O   0  0  0  0  0  0  0  0  0  0  0  0
  2  1  1  1
  2  3  1  0
  2  4  1  0
  4  5  1  0
  6  3  1  1
  5  7  1  6
  5  8  1  0
  6  8  1  0
  6  9  1  0
  9 10  1  0
  8 11  1  1
 10 12  1  6
 10 13  1  0
 11 13  1  0
 12 14  1  0
 14 15  1  0
M  END
