ucsf412-ucsf012
     RDKit          3D

 28 32  0  0  0  0  0  0  0  0999 V2000
   -7.5930   13.1060   -1.3600 O   0  0  0  0  0  0  0  0  0  0  0  0
   -6.7870   13.2560   -0.2200 C   0  0  2  0  0  0  0  0  0  0  0  0
   -7.3950   14.2660    0.6310 N   0  0  0  0  0  0  0  0  0  0  0  0
   -5.2790   13.5450   -0.5480 C   0  0  2  0  0  0  0  0  0  0  0  0
   -4.8640   14.9000   -0.0260 C   0  0  2  0  0  0  0  0  0  0  0  0
   -6.5910   14.5180    1.8180 C   0  0  0  0  0  0  0  0  0  0  0  0
   -4.8860   13.6260   -2.0430 C   0  0  1  0  0  0  0  0  0  0  0  0
   -5.1960   15.0110    1.4370 C   0  0  0  0  0  0  0  0  0  0  0  0
   -5.3220   16.0000   -0.9670 C   0  0  0  0  0  0  0  0  0  0  0  0
   -5.9760   14.4000   -2.7590 C   0  0  0  0  0  0  0  0  0  0  0  0
   -3.4950   14.3460   -2.1220 C   0  0  2  0  0  0  0  0  0  0  0  0
   -6.4550   15.5300   -1.8710 C   0  0  0  0  0  0  0  0  0  0  0  0
   -2.5760   14.1610   -3.3520 C   0  0  1  0  0  0  0  0  0  0  0  0
   -2.4920   14.5250   -0.9210 C   0  0  2  0  0  0  0  0  0  0  0  0
   -3.1470   14.9680   -4.5330 C   0  0  0  0  0  0  0  0  0  0  0  0
   -1.1430   14.1780   -1.4950 C   0  0  1  0  0  0  0  0  0  0  0  0
   -1.2490   14.6160   -2.8770 N   0  0  0  0  0  0  0  0  0  0  0  0
   -2.5570   14.1200    0.5620 C   0  0  2  0  0  0  0  0  0  0  0  0
   -3.0350   15.1710    1.4650 N   0  0  0  0  0  0  0  0  0  0  0  0
   -0.1180   14.3110   -3.7770 C   0  0  0  0  0  0  0  0  0  0  0  0
   -1.3040   13.9520    1.2280 N   0  0  0  0  0  0  0  0  0  0  0  0
   -0.1040   14.8030   -0.7310 N   0  0  0  0  0  0  0  0  0  0  0  0
   -0.0400   14.2660    0.6070 C   0  0  0  0  0  0  0  0  0  0  0  0
    0.2730   12.8330   -3.9620 C   0  0  1  0  0  0  0  0  0  0  0  0
    0.8750   12.1730   -2.7210 C   0  0  0  0  0  0  0  0  0  0  0  0
   -0.8910   12.0560   -4.3210 O   0  0  0  0  0  0  0  0  0  0  0  0
   -0.6740   10.7390   -3.8250 C   0  0  0  0  0  0  0  0  0  0  0  0
    0.0570   10.9110   -2.5180 C   0  0  0  0  0  0  0  0  0  0  0  0
  2  1  1  6
  2  3  1  0
  4  2  1  6
  4  5  1  0
  3  6  1  0
  4  7  1  0
  5  8  1  1
  6  8  1  0
  5  9  1  0
  7 10  1  6
  7 11  1  0
  9 12  1  0
 10 12  1  0
 11 13  1  6
 11 14  1  0
 13 15  1  6
 14 16  1  0
 13 17  1  0
 16 17  1  0
 14 18  1  1
 18 19  1  1
 17 20  1  0
 18 21  1  0
 16 22  1  1
 21 23  1  0
 22 23  1  0
 24 20  1  1
 24 25  1  0
 24 26  1  0
 26 27  1  0
 25 28  1  0
 27 28  1  0
M  END
