ucsf247-ucsf364
     RDKit          3D

 21 22  0  0  0  0  0  0  0  0999 V2000
    1.3650   14.3870   -1.9050 O   0  0  0  0  0  0  0  0  0  0  0  0
    0.5080   13.8960   -2.7750 C   0  0  2  0  0  0  0  0  0  0  0  0
    1.1060   13.7990   -4.0690 O   0  0  0  0  0  0  0  0  0  0  0  0
   -0.7470   14.8110   -2.9140 C   0  0  0  0  0  0  0  0  0  0  0  0
   -2.0730   14.3540   -2.4420 N   0  0  0  0  0  0  0  0  0  0  0  0
    1.1660   12.4430   -4.5360 C   0  0  1  0  0  0  0  0  0  0  0  0
   -3.0170   15.4310   -2.4700 C   0  0  1  0  0  0  0  0  0  0  0  0
    0.1660   11.6050   -3.7320 C   0  0  0  0  0  0  0  0  0  0  0  0
    0.8300   12.3960   -6.0320 C   0  0  1  0  0  0  0  0  0  0  0  0
   -3.7860   15.2260   -3.6500 O   0  0  0  0  0  0  0  0  0  0  0  0
    2.0250   12.0560   -6.7360 O   0  0  0  0  0  0  0  0  0  0  0  0
   -3.9300   15.4630   -1.2370 C   0  0  1  0  0  0  0  0  0  0  0  0
   -1.2770   11.8460   -4.1440 C   0  0  0  0  0  0  0  0  0  0  0  0
   -0.2420   11.3680   -6.4140 C   0  0  0  0  0  0  0  0  0  0  0  0
   -5.1520   14.5580   -1.3640 C   0  0  0  0  0  0  0  0  0  0  0  0
   -3.2170   15.2080    0.1040 C   0  0  0  0  0  0  0  0  0  0  0  0
   -1.5280   11.4140   -5.5780 C   0  0  0  0  0  0  0  0  0  0  0  0
   -6.0920   15.0070   -0.2620 C   0  0  1  0  0  0  0  0  0  0  0  0
   -4.1230   15.4260    1.3150 C   0  0  0  0  0  0  0  0  0  0  0  0
   -7.3720   14.3770   -0.3590 O   0  0  0  0  0  0  0  0  0  0  0  0
   -5.5030   14.7830    1.1400 C   0  0  0  0  0  0  0  0  0  0  0  0
  2  1  1  1
  2  3  1  0
  2  4  1  0
  4  5  1  0
  6  3  1  1
  5  7  1  0
  6  8  1  0
  6  9  1  0
  7 10  1  6
  9 11  1  6
  7 12  1  0
  8 13  1  0
  9 14  1  0
 12 15  1  6
 12 16  1  0
 13 17  1  0
 14 17  1  0
 15 18  1  0
 16 19  1  0
 18 20  1  1
 18 21  1  0
 19 21  1  0
M  CHG  1   1  -1
M  END
