ucsf333-ucsf519
     RDKit          3D

 22 24  0  0  0  0  0  0  0  0999 V2000
   -5.4410   14.4970   -2.8720 Cl  0  0  0  0  0  0  0  0  0  0  0  0
   -4.0590   15.1850   -1.9550 C   0  0  2  0  0  0  0  0  0  0  0  0
   -2.6090   14.6260   -2.2440 C   0  0  1  0  0  0  0  0  0  0  0  0
   -4.4240   14.9850   -0.4890 C   0  0  0  0  0  0  0  0  0  0  0  0
   -2.0170   14.6180   -3.7130 C   0  0  2  0  0  0  0  0  0  0  0  0
   -1.6890   15.4980   -1.3760 C   0  0  2  0  0  0  0  0  0  0  0  0
   -3.1760   14.5930    0.2670 C   0  0  1  0  0  0  0  0  0  0  0  0
   -0.4070   14.7380   -3.8800 C   0  0  1  0  0  0  0  0  0  0  0  0
   -2.7150   15.6400   -4.4270 O   0  0  0  0  0  0  0  0  0  0  0  0
   -2.5890   13.4130   -0.2650 O   0  0  0  0  0  0  0  0  0  0  0  0
   -0.2690   15.1860   -1.3760 N   0  0  0  0  0  0  0  0  0  0  0  0
   -2.1550   15.6420    0.0600 C   0  0  1  0  0  0  0  0  0  0  0  0
    0.4120   13.3720   -4.1800 C   0  0  1  0  0  0  0  0  0  0  0  0
   -0.1140   15.6520   -5.1010 C   0  0  0  0  0  0  0  0  0  0  0  0
    0.2630   15.4590   -2.6920 C   0  0  0  0  0  0  0  0  0  0  0  0
   -1.0550   15.4640    1.0640 C   0  0  0  0  0  0  0  0  0  0  0  0
    0.1810   13.9500   -0.7640 C   0  0  0  0  0  0  0  0  0  0  0  0
    0.5180   12.3520   -2.9500 C   0  0  2  0  0  0  0  0  0  0  0  0
   -0.0910   12.5300   -5.7580 S   0  0  0  0  0  0  0  0  0  0  0  0
   -0.3050   13.8410    0.9640 S   0  0  0  0  0  0  0  0  0  0  0  0
    1.7190   12.3470   -2.4040 O   0  0  0  0  0  0  0  0  0  0  0  0
    0.3910   10.9980   -3.3490 O   0  0  0  0  0  0  0  0  0  0  0  0
  2  1  1  6
  3  2  1  6
  2  4  1  0
  3  5  1  0
  3  6  1  0
  4  7  1  0
  5  8  1  0
  5  9  1  6
  7 10  1  6
  6 11  1  1
  6 12  1  0
  7 12  1  0
  8 13  1  0
  8 14  1  6
  8 15  1  0
 11 15  1  0
 12 16  1  1
 11 17  1  0
 13 18  1  0
 13 19  1  6
 16 20  1  0
 17 20  1  0
 18 21  1  6
 18 22  1  0
M  CHG  1  21  -1
M  END
