ucsf135-ucsf357
     RDKit          3D

 24 26  0  0  0  0  0  0  0  0999 V2000
    1.8270   11.6610   -7.0720 O   0  0  0  0  0  0  0  0  0  0  0  0
    0.5330   11.7340   -6.5840 C   0  0  2  0  0  0  0  0  0  0  0  0
    0.6390   11.9670   -5.1570 N   0  0  0  0  0  0  0  0  0  0  0  0
   -0.2140   10.3830   -6.7820 C   0  0  1  0  0  0  0  0  0  0  0  0
   -0.7280   11.3300   -4.4620 S   0  0  2  0  0  0  0  0  0  0  0  0
   -1.4420   10.4590   -5.8550 C   0  0  2  0  0  0  0  0  0  0  0  0
   -0.6630   10.0660   -8.1990 C   0  0  0  0  0  0  0  0  0  0  0  0
   -1.7760   12.4710   -4.0850 O   0  0  0  0  0  0  0  0  0  0  0  0
   -0.3820   10.3200   -3.2770 O   0  0  0  0  0  0  0  0  0  0  0  0
   -2.0680    9.0990   -5.6160 C   0  0  0  0  0  0  0  0  0  0  0  0
   -1.8530    9.0910   -8.1830 C   0  0  0  0  0  0  0  0  0  0  0  0
   -1.6450   13.7470   -4.7120 C   0  0  0  0  0  0  0  0  0  0  0  0
   -2.0180    8.2620   -6.8900 C   0  0  0  0  0  0  0  0  0  0  0  0
   -1.3490   14.7670   -3.7670 O   0  0  0  0  0  0  0  0  0  0  0  0
   -1.9790   14.5510   -2.5040 C   0  0  2  0  0  0  0  0  0  0  0  0
   -3.4380   14.9610   -2.4410 C   0  0  0  0  0  0  0  0  0  0  0  0
   -1.2160   15.3050   -1.4000 C   0  0  2  0  0  0  0  0  0  0  0  0
    0.1630   14.9240   -1.3770 O   0  0  0  0  0  0  0  0  0  0  0  0
   -4.0590   14.5280   -1.1060 C   0  0  2  0  0  0  0  0  0  0  0  0
   -1.8360   15.1110    0.0010 C   0  0  0  0  0  0  0  0  0  0  0  0
   -5.6030   14.6140   -1.0900 C   0  0  2  0  0  0  0  0  0  0  0  0
   -3.3690   15.2500    0.0670 C   0  0  0  0  0  0  0  0  0  0  0  0
   -6.0140   15.3250   -2.1070 O   0  0  0  0  0  0  0  0  0  0  0  0
   -6.0580   15.3490    0.0120 O   0  0  0  0  0  0  0  0  0  0  0  0
  2  1  1  1
  2  3  1  0
  2  4  1  0
  3  5  1  0
  4  6  1  0
  5  6  1  0
  4  7  1  6
  5  8  1  0
  5  9  1  1
  6 10  1  1
  7 11  1  0
  8 12  1  0
 10 13  1  0
 11 13  1  0
 12 14  1  0
 15 14  1  6
 15 16  1  0
 15 17  1  0
 17 18  1  1
 19 16  1  6
 17 20  1  0
 19 21  1  0
 19 22  1  0
 20 22  1  0
 21 23  1  6
 21 24  1  0
M  CHG  1  23  -1
M  END
