ucsf016-ucsf338
     RDKit          3D

 22 25  0  0  0  0  0  0  0  0999 V2000
   -8.4800   14.4150    0.0720 O   0  0  0  0  0  0  0  0  0  0  0  0
   -7.0700   14.3240    0.4570 N   0  0  0  0  0  0  0  0  0  0  0  0
   -6.2820   15.0760   -0.5340 C   0  0  2  0  0  0  0  0  0  0  0  0
   -6.4110   14.3730   -1.7510 O   0  0  0  0  0  0  0  0  0  0  0  0
   -4.7530   15.4130   -0.2170 C   0  0  1  0  0  0  0  0  0  0  0  0
   -3.9760   14.6370    0.8090 N   0  0  0  0  0  0  0  0  0  0  0  0
   -3.7780   15.4120   -1.4120 C   0  0  2  0  0  0  0  0  0  0  0  0
   -3.9100   14.2530   -2.2070 O   0  0  0  0  0  0  0  0  0  0  0  0
   -2.6540   15.2590    0.7390 C   0  0  2  0  0  0  0  0  0  0  0  0
   -2.4150   15.6500   -0.7280 C   0  0  1  0  0  0  0  0  0  0  0  0
   -1.7120   14.3320    1.3050 N   0  0  0  0  0  0  0  0  0  0  0  0
   -1.0510   15.2000   -1.3130 C   0  0  2  0  0  0  0  0  0  0  0  0
   -1.0080   14.7430   -2.6910 N   0  0  0  0  0  0  0  0  0  0  0  0
   -0.2860   14.2710   -0.5010 N   0  0  0  0  0  0  0  0  0  0  0  0
   -0.3630   14.6030    0.8910 C   0  0  0  0  0  0  0  0  0  0  0  0
    0.2840   14.2320   -3.1710 C   0  0  0  0  0  0  0  0  0  0  0  0
   -1.6930   15.5590   -3.6870 C   0  0  0  0  0  0  0  0  0  0  0  0
   -1.9660   14.6420   -4.8700 C   0  0  0  0  0  0  0  0  0  0  0  0
    0.1130   13.3090   -4.3830 C   0  0  0  0  0  0  0  0  0  0  0  0
   -3.2470   13.8220   -4.8760 C   0  0  0  0  0  0  0  0  0  0  0  0
   -3.1310   15.0100   -5.7800 C   0  0  0  0  0  0  0  0  0  0  0  0
   -0.7160   13.9940   -5.4580 C   0  0  0  0  0  0  0  0  0  0  0  0
  1  2  1  0
  2  3  1  0
  3  4  1  6
  3  5  1  0
  5  6  1  1
  5  7  1  0
  7  8  1  1
  9  6  1  6
  7 10  1  0
  9 10  1  0
  9 11  1  0
 10 12  1  6
 12 13  1  6
 12 14  1  0
 11 15  1  0
 14 15  1  0
 13 16  1  0
 13 17  1  0
 18 17  1  0
 16 19  1  0
 18 20  1  0
 18 21  1  0
 20 21  1  0
 18 22  1  0
 19 22  1  0
M  END
