ucsf403-ucsf170
     RDKit          3D

 23 25  0  0  0  0  0  0  0  0999 V2000
    0.5400    9.2150   -7.8240 Cl  0  0  0  0  0  0  0  0  0  0  0  0
   -0.9240    9.9170   -7.0150 C   0  0  2  0  0  0  0  0  0  0  0  0
   -0.7080   11.2840   -6.2950 C   0  0  2  0  0  0  0  0  0  0  0  0
   -1.5140    8.8900   -6.0660 C   0  0  0  0  0  0  0  0  0  0  0  0
    0.6850   11.3020   -5.9600 O   0  0  0  0  0  0  0  0  0  0  0  0
   -1.6520   11.6360   -5.0630 C   0  0  1  0  0  0  0  0  0  0  0  0
   -2.8560    9.3370   -5.4830 C   0  0  0  0  0  0  0  0  0  0  0  0
   -1.9730   13.2080   -4.9590 C   0  0  0  0  0  0  0  0  0  0  0  0
    1.0650   12.2750   -5.0050 C   0  0  0  0  0  0  0  0  0  0  0  0
   -2.9750   10.8390   -5.1640 C   0  0  0  0  0  0  0  0  0  0  0  0
    0.4860   12.0170   -3.6160 C   0  0  2  0  0  0  0  0  0  0  0  0
   -2.0730   14.0810   -3.6050 C   0  0  2  0  0  0  0  0  0  0  0  0
    1.1250   12.8980   -2.7370 O   0  0  0  0  0  0  0  0  0  0  0  0
    0.6240   10.6850   -3.1650 O   0  0  0  0  0  0  0  0  0  0  0  0
   -1.0740   13.7750   -2.4100 C   0  0  1  0  0  0  0  0  0  0  0  0
   -3.5440   14.2720   -3.1430 C   0  0  0  0  0  0  0  0  0  0  0  0
    0.4050   14.1230   -2.8440 C   0  0  1  0  0  0  0  0  0  0  0  0
   -1.4450   14.4030   -1.0220 C   0  0  0  0  0  0  0  0  0  0  0  0
   -3.7200   15.0960   -1.8710 C   0  0  0  0  0  0  0  0  0  0  0  0
    0.9830   15.0510   -2.1420 O   0  0  0  0  0  0  0  0  0  0  0  0
   -2.9480   14.4640   -0.7210 C   0  0  2  0  0  0  0  0  0  0  0  0
   -3.2540   15.3450    0.8690 S   0  0  0  0  0  0  0  0  0  0  0  0
   -5.0000   14.9550    1.1090 C   0  0  0  0  0  0  0  0  0  0  0  0
  2  1  1  1
  2  3  1  0
  2  4  1  0
  3  5  1  1
  3  6  1  0
  4  7  1  0
  6  8  1  6
  5  9  1  0
  6 10  1  0
  7 10  1  0
  9 11  1  0
 12  8  1  6
 11 13  1  0
 11 14  1  1
 12 15  1  0
 12 16  1  0
 13 17  1  0
 15 17  1  0
 15 18  1  1
 16 19  1  0
 17 20  1  1
 18 21  1  0
 19 21  1  0
 21 22  1  1
 22 23  1  0
M  CHG  1  20  -1
M  END
