ucsf278-ucsf012
     RDKit          3D

 25 28  0  0  0  0  0  0  0  0999 V2000
   -0.7510   12.7570   -1.3290 Cl  0  0  0  0  0  0  0  0  0  0  0  0
    0.4660   13.1840   -2.5760 C   0  0  1  0  0  0  0  0  0  0  0  0
   -0.1630   13.5500   -3.9380 C   0  0  2  0  0  0  0  0  0  0  0  0
    1.3740   14.3320   -2.1170 C   0  0  0  0  0  0  0  0  0  0  0  0
   -1.0030   14.7850   -3.5200 C   0  0  0  0  0  0  0  0  0  0  0  0
   -1.1000   12.4500   -4.4440 C   0  0  0  0  0  0  0  0  0  0  0  0
    0.9520   13.6760   -4.9780 C   0  0  2  0  0  0  0  0  0  0  0  0
    2.4630   14.5300   -3.1550 C   0  0  0  0  0  0  0  0  0  0  0  0
   -0.2340   11.6230   -5.3720 C   0  0  2  0  0  0  0  0  0  0  0  0
    0.7600   12.5530   -5.9250 N   0  0  0  0  0  0  0  0  0  0  0  0
    2.3150   13.5450   -4.3020 C   0  0  0  0  0  0  0  0  0  0  0  0
   -1.9560   14.4070   -2.4730 N   0  0  0  0  0  0  0  0  0  0  0  0
   -1.0700   10.9010   -6.4290 C   0  0  0  0  0  0  0  0  0  0  0  0
   -3.3070   15.0180   -2.5750 C   0  0  1  0  0  0  0  0  0  0  0  0
   -1.6630   14.5390   -1.0310 C   0  0  1  0  0  0  0  0  0  0  0  0
   -2.2150   10.3160   -5.8110 O   0  0  0  0  0  0  0  0  0  0  0  0
   -4.0900   14.8110   -3.8660 C   0  0  0  0  0  0  0  0  0  0  0  0
   -4.0560   14.5680   -1.2980 C   0  0  1  0  0  0  0  0  0  0  0  0
   -2.9350   14.1490   -0.3260 C   0  0  2  0  0  0  0  0  0  0  0  0
   -0.5230   13.9370   -0.3920 N   0  0  0  0  0  0  0  0  0  0  0  0
   -5.0530   15.6050   -0.8230 C   0  0  0  0  0  0  0  0  0  0  0  0
   -2.8490   14.5440    1.1310 C   0  0  2  0  0  0  0  0  0  0  0  0
   -0.3790   14.4900    0.9530 C   0  0  0  0  0  0  0  0  0  0  0  0
   -3.8860   15.3860    1.6700 N   0  0  0  0  0  0  0  0  0  0  0  0
   -1.5790   15.1990    1.3860 N   0  0  0  0  0  0  0  0  0  0  0  0
  2  1  1  1
  2  3  1  0
  2  4  1  0
  3  5  1  1
  3  6  1  0
  3  7  1  0
  4  8  1  0
  6  9  1  0
  7 10  1  0
  9 10  1  0
  7 11  1  1
  8 11  1  0
  5 12  1  0
  9 13  1  6
 12 14  1  0
 12 15  1  0
 13 16  1  0
 14 17  1  6
 14 18  1  0
 15 19  1  0
 18 19  1  0
 15 20  1  1
 18 21  1  1
 19 22  1  1
 20 23  1  0
 22 24  1  6
 22 25  1  0
 23 25  1  0
M  END
