ucsf340-ucsf519
     RDKit          3D

 25 27  0  0  0  0  0  0  0  0999 V2000
    0.5890   18.6400   -5.9170 C   0  0  0  0  0  0  0  0  0  0  0  0
    0.2190   17.2560   -5.7710 N   0  0  0  0  0  0  0  0  0  0  0  0
    0.8730   16.5160   -4.6750 C   0  0  0  0  0  0  0  0  0  0  0  0
   -1.1950   16.9140   -5.6370 C   0  0  1  0  0  0  0  0  0  0  0  0
   -0.2600   15.5220   -4.3390 C   0  0  2  0  0  0  0  0  0  0  0  0
   -1.4250   16.5060   -4.2690 C   0  0  2  0  0  0  0  0  0  0  0  0
   -2.2880   17.7150   -6.2640 C   0  0  0  0  0  0  0  0  0  0  0  0
   -0.2460   14.4840   -3.1720 C   0  0  1  0  0  0  0  0  0  0  0  0
   -2.8370   15.8900   -4.1970 C   0  0  0  0  0  0  0  0  0  0  0  0
   -3.4310   16.7230   -6.5740 C   0  0  0  0  0  0  0  0  0  0  0  0
    0.3900   13.0620   -3.5970 C   0  0  1  0  0  0  0  0  0  0  0  0
    0.6380   15.2670   -2.2270 C   0  0  0  0  0  0  0  0  0  0  0  0
   -1.8200   14.6500   -2.8450 C   0  0  1  0  0  0  0  0  0  0  0  0
   -3.5270   15.6010   -5.5470 C   0  0  0  0  0  0  0  0  0  0  0  0
    0.7890   11.9530   -2.5100 C   0  0  1  0  0  0  0  0  0  0  0  0
   -0.3150   12.2370   -5.1010 S   0  0  0  0  0  0  0  0  0  0  0  0
   -2.6470   14.1000   -3.8720 O   0  0  0  0  0  0  0  0  0  0  0  0
   -2.4030   14.4540   -1.5350 N   0  0  0  0  0  0  0  0  0  0  0  0
    0.5230   12.4180   -1.2090 O   0  0  0  0  0  0  0  0  0  0  0  0
    0.1480   10.7810   -2.5090 O   0  0  0  0  0  0  0  0  0  0  0  0
   -3.7160   15.0810   -1.3670 C   0  0  0  0  0  0  0  0  0  0  0  0
   -1.6590   14.7340   -0.3300 C   0  0  1  0  0  0  0  0  0  0  0  0
   -0.5990   15.6190   -0.5010 O   0  0  0  0  0  0  0  0  0  0  0  0
   -3.8950   15.1710    0.1350 C   0  0  0  0  0  0  0  0  0  0  0  0
   -2.5410   15.2790    0.6820 N   0  0  0  0  0  0  0  0  0  0  0  0
  1  2  1  0
  2  3  1  0
  2  4  1  0
  5  3  1  1
  4  6  1  0
  5  6  1  0
  4  7  1  1
  5  8  1  0
  6  9  1  6
  7 10  1  0
  8 11  1  0
  8 12  1  1
  8 13  1  0
  9 14  1  0
 10 14  1  0
 11 15  1  0
 11 16  1  6
 13 17  1  6
 13 18  1  0
 15 19  1  1
 15 20  1  0
 18 21  1  0
 18 22  1  0
 22 23  1  6
 21 24  1  0
 22 25  1  0
 24 25  1  0
M  CHG  1  20  -1
M  END
