ucsf004-ucsf387
     RDKit          3D

 22 24  0  0  0  0  0  0  0  0999 V2000
   -1.6100   13.5620   -5.7280 F   0  0  0  0  0  0  0  0  0  0  0  0
   -1.4390   13.5840   -4.3900 C   0  0  1  0  0  0  0  0  0  0  0  0
   -0.0010   13.6480   -3.9160 C   0  0  1  0  0  0  0  0  0  0  0  0
   -2.1390   14.7530   -3.6910 C   0  0  2  0  0  0  0  0  0  0  0  0
   -2.5920   15.9540   -4.9710 Cl  0  0  0  0  0  0  0  0  0  0  0  0
    0.7930   12.3360   -3.8400 C   0  0  0  0  0  0  0  0  0  0  0  0
   -1.2940   15.3780   -2.6040 N   0  0  0  0  0  0  0  0  0  0  0  0
    0.7320   15.0070   -4.0550 C   0  0  1  0  0  0  0  0  0  0  0  0
    0.5210   16.1740   -5.4090 Cl  0  0  0  0  0  0  0  0  0  0  0  0
    0.1690   11.6090   -2.6110 C   0  0  1  0  0  0  0  0  0  0  0  0
    0.1140   15.7570   -2.8970 C   0  0  0  0  0  0  0  0  0  0  0  0
   -1.4780   14.7870   -1.2790 C   0  0  1  0  0  0  0  0  0  0  0  0
    0.6140   10.3880   -2.4420 O   0  0  0  0  0  0  0  0  0  0  0  0
    0.6340   12.2500   -1.4430 O   0  0  0  0  0  0  0  0  0  0  0  0
   -0.2240   14.9180   -0.5430 N   0  0  0  0  0  0  0  0  0  0  0  0
   -2.5980   15.3770   -0.4770 C   0  0  2  0  0  0  0  0  0  0  0  0
   -0.1960   14.5990    0.8770 C   0  0  0  0  0  0  0  0  0  0  0  0
   -2.6020   14.7310    0.8590 C   0  0  1  0  0  0  0  0  0  0  0  0
   -3.9990   15.0840   -0.9260 C   0  0  0  0  0  0  0  0  0  0  0  0
   -1.4070   14.9790    1.5840 N   0  0  0  0  0  0  0  0  0  0  0  0
   -3.7610   15.3410    1.4700 N   0  0  0  0  0  0  0  0  0  0  0  0
   -4.7490   15.3900    0.3580 C   0  0  0  0  0  0  0  0  0  0  0  0
  2  1  1  6
  2  3  1  0
  2  4  1  0
  4  5  1  6
  3  6  1  6
  4  7  1  0
  3  8  1  0
  8  9  1  6
  6 10  1  0
  7 11  1  0
  8 11  1  0
 12  7  1  6
 10 13  1  1
 10 14  1  0
 12 15  1  0
 12 16  1  0
 15 17  1  0
 16 18  1  0
 16 19  1  6
 17 20  1  0
 18 20  1  1
 18 21  1  0
 19 22  1  0
 21 22  1  0
M  CHG  1  13  -1
M  END
