ucsf241-ucsf422
     RDKit          3D

 24 27  0  0  0  0  0  0  0  0999 V2000
    0.3040   11.0940   -2.5810 O   0  0  0  0  0  0  0  0  0  0  0  0
    0.4150   12.3920   -2.8370 C   0  0  1  0  0  0  0  0  0  0  0  0
    1.4980   12.9220   -2.0490 O   0  0  0  0  0  0  0  0  0  0  0  0
    0.8090   12.5550   -4.3380 C   0  0  0  0  0  0  0  0  0  0  0  0
    1.1990   14.1340   -1.3370 C   0  0  0  0  0  0  0  0  0  0  0  0
    1.0270   13.9980   -4.8370 C   0  0  2  0  0  0  0  0  0  0  0  0
   -0.1560   14.0650   -0.6090 C   0  0  2  0  0  0  0  0  0  0  0  0
    1.7660   14.8750   -3.8450 C   0  0  0  0  0  0  0  0  0  0  0  0
   -0.1790   14.8910   -5.1390 C   0  0  2  0  0  0  0  0  0  0  0  0
   -1.2350   14.8590   -1.3350 C   0  0  0  0  0  0  0  0  0  0  0  0
   -0.1280   14.4050    0.9090 C   0  0  0  0  0  0  0  0  0  0  0  0
    1.6400   16.2470   -4.3450 N   0  0  0  0  0  0  0  0  0  0  0  0
    0.4790   16.2970   -5.2150 C   0  0  2  0  0  0  0  0  0  0  0  0
   -1.4370   14.9010   -4.2860 C   0  0  0  0  0  0  0  0  0  0  0  0
   -2.5290   14.7130   -0.6050 C   0  0  2  0  0  0  0  0  0  0  0  0
   -1.4410   14.5450    1.5800 N   0  0  0  0  0  0  0  0  0  0  0  0
   -0.4450   17.4640   -4.8940 C   0  0  0  0  0  0  0  0  0  0  0  0
   -2.4720   15.9410   -4.7510 C   0  0  2  0  0  0  0  0  0  0  0  0
   -3.8140   15.1490   -5.9520 Br  0  0  0  0  0  0  0  0  0  0  0  0
   -3.7890   15.3570   -1.1200 C   0  0  0  0  0  0  0  0  0  0  0  0
   -2.3770   15.2620    0.7700 C   0  0  2  0  0  0  0  0  0  0  0  0
   -1.8640   17.1900   -5.3840 C   0  0  0  0  0  0  0  0  0  0  0  0
   -4.5900   15.5320    0.1630 C   0  0  0  0  0  0  0  0  0  0  0  0
   -3.7190   15.0790    1.2590 N   0  0  0  0  0  0  0  0  0  0  0  0
  2  1  1  1
  2  3  1  0
  2  4  1  0
  3  5  1  0
  6  4  1  1
  7  5  1  6
  6  8  1  0
  6  9  1  0
  7 10  1  0
  7 11  1  0
  8 12  1  0
  9 13  1  0
 12 13  1  0
  9 14  1  1
 15 10  1  6
 11 16  1  0
 13 17  1  1
 14 18  1  0
 18 19  1  6
 15 20  1  0
 15 21  1  0
 21 16  1  1
 17 22  1  0
 18 22  1  0
 20 23  1  0
 21 24  1  0
 23 24  1  0
M  CHG  1   1  -1
M  END
