ucsf303-ucsf190
     RDKit          3D

 31 34  0  0  0  0  0  0  0  0999 V2000
   -2.6590   13.5270   -2.9820 O   0  0  0  0  0  0  0  0  0  0  0  0
   -3.9520   14.2970   -2.4550 S   0  0  1  0  0  0  0  0  0  0  0  0
   -4.2610   15.3710   -3.5870 O   0  0  0  0  0  0  0  0  0  0  0  0
   -5.1850   13.2530   -2.2080 N   0  0  0  0  0  0  0  0  0  0  0  0
   -3.4170   15.1050   -0.9890 C   0  0  0  0  0  0  0  0  0  0  0  0
   -4.3640   14.8460   -4.9150 C   0  0  0  0  0  0  0  0  0  0  0  0
   -5.0850   11.8690   -2.5130 C   0  0  2  0  0  0  0  0  0  0  0  0
   -2.1810   14.3770   -0.3870 C   0  0  0  0  0  0  0  0  0  0  0  0
   -4.6150   15.2350   -0.0630 C   0  0  0  0  0  0  0  0  0  0  0  0
   -5.8490   11.0120   -1.6340 N   0  0  0  0  0  0  0  0  0  0  0  0
   -3.4100   11.2720   -2.4750 S   0  0  0  0  0  0  0  0  0  0  0  0
   -1.7980   14.7620    1.0480 C   0  0  0  0  0  0  0  0  0  0  0  0
   -4.2830   14.8010    1.3380 C   0  0  0  0  0  0  0  0  0  0  0  0
   -3.0500   14.9480   -5.6930 C   0  0  1  0  0  0  0  0  0  0  0  0
   -4.0530    9.6010   -2.4660 C   0  0  0  0  0  0  0  0  0  0  0  0
   -5.4590    9.6230   -2.0050 N   0  0  0  0  0  0  0  0  0  0  0  0
   -2.9710   15.3830    1.7660 C   0  0  0  0  0  0  0  0  0  0  0  0
   -2.1030   16.0530   -5.1620 C   0  0  0  0  0  0  0  0  0  0  0  0
   -2.4590   13.5430   -5.8700 C   0  0  0  0  0  0  0  0  0  0  0  0
   -0.8720   15.6280   -4.3150 C   0  0  1  0  0  0  0  0  0  0  0  0
   -0.9870   13.3750   -5.5650 C   0  0  0  0  0  0  0  0  0  0  0  0
   -0.5030   14.1200   -4.3410 C   0  0  1  0  0  0  0  0  0  0  0  0
    0.3580   16.6070   -4.3480 C   0  0  2  0  0  0  0  0  0  0  0  0
    0.3290   17.4980   -5.4430 O   0  0  0  0  0  0  0  0  0  0  0  0
    0.9330   13.8500   -3.9090 C   0  0  1  0  0  0  0  0  0  0  0  0
    1.7070   16.0560   -4.2640 N   0  0  0  0  0  0  0  0  0  0  0  0
    1.2330   12.3560   -3.7500 C   0  0  0  0  0  0  0  0  0  0  0  0
    1.8190   14.6730   -4.6850 N   0  0  0  0  0  0  0  0  0  0  0  0
    1.0310   11.7430   -2.3560 C   0  0  2  0  0  0  0  0  0  0  0  0
    0.6160   10.4760   -2.3850 O   0  0  0  0  0  0  0  0  0  0  0  0
    0.0720   12.3660   -1.5580 O   0  0  0  0  0  0  0  0  0  0  0  0
  2  1  1  6
  2  3  1  0
  2  4  1  0
  2  5  1  0
  3  6  1  0
  7  4  1  1
  5  8  1  0
  5  9  1  0
  7 10  1  0
  7 11  1  0
  8 12  1  0
  9 13  1  0
 14  6  1  1
 11 15  1  0
 10 16  1  0
 15 16  1  0
 12 17  1  0
 13 17  1  0
 14 18  1  0
 14 19  1  0
 20 18  1  6
 19 21  1  0
 20 22  1  0
 22 21  1  6
 20 23  1  0
 23 24  1  6
 22 25  1  0
 23 26  1  0
 25 27  1  6
 25 28  1  0
 26 28  1  0
 27 29  1  0
 29 30  1  6
 29 31  1  0
M  CHG  1  30  -1
M  END
