ucsf039-ucsf017
     RDKit          3D

 25 29  0  0  0  0  0  0  0  0999 V2000
   -4.2510   15.3700    1.0920 N   0  0  0  0  0  0  0  0  0  0  0  0
   -3.2440   15.6800    0.0740 C   0  0  1  0  0  0  0  0  0  0  0  0
   -2.1510   14.6160   -0.0260 C   0  0  1  0  0  0  0  0  0  0  0  0
   -4.0190   15.7850   -1.1650 N   0  0  0  0  0  0  0  0  0  0  0  0
   -3.3060   15.5870   -2.4500 C   0  0  0  0  0  0  0  0  0  0  0  0
   -1.6240   14.6530   -1.4440 C   0  0  1  0  0  0  0  0  0  0  0  0
   -0.9090   14.6630    0.7100 N   0  0  0  0  0  0  0  0  0  0  0  0
   -1.8730   15.7680   -2.2570 N   0  0  0  0  0  0  0  0  0  0  0  0
   -0.3700   13.7890   -1.5460 C   0  0  1  0  0  0  0  0  0  0  0  0
   -0.3120   13.5130    0.0090 C   0  0  0  0  0  0  0  0  0  0  0  0
   -1.1700   15.4910   -3.5140 C   0  0  0  0  0  0  0  0  0  0  0  0
   -0.9010   12.8050   -2.6540 C   0  0  1  0  0  0  0  0  0  0  0  0
    1.0730   14.1320   -2.0880 C   0  0  0  0  0  0  0  0  0  0  0  0
   -0.6290   16.7480   -4.2050 C   0  0  1  0  0  0  0  0  0  0  0  0
   -2.3760   12.7960   -3.0990 C   0  0  0  0  0  0  0  0  0  0  0  0
   -0.2090   13.0640   -3.9940 C   0  0  2  0  0  0  0  0  0  0  0  0
    1.7270   12.8240   -2.6450 C   0  0  0  0  0  0  0  0  0  0  0  0
    0.8430   16.6240   -4.6010 C   0  0  0  0  0  0  0  0  0  0  0  0
   -1.3360   17.0010   -5.4680 N   0  0  0  0  0  0  0  0  0  0  0  0
   -1.2040   12.7310   -5.0810 C   0  0  0  0  0  0  0  0  0  0  0  0
   -2.4330   13.1600   -4.5060 O   0  0  0  0  0  0  0  0  0  0  0  0
    1.0680   12.3260   -3.9360 C   0  0  0  0  0  0  0  0  0  0  0  0
   -0.6160   18.0330   -6.1990 C   0  0  2  0  0  0  0  0  0  0  0  0
    1.0350   18.1980   -5.4700 S   0  0  0  0  0  0  0  0  0  0  0  0
   -1.4280   19.3080   -6.1500 C   0  0  0  0  0  0  0  0  0  0  0  0
  2  1  1  1
  2  3  1  0
  2  4  1  0
  4  5  1  0
  3  6  1  0
  3  7  1  1
  5  8  1  0
  6  8  1  1
  6  9  1  0
  7 10  1  0
  9 10  1  1
  8 11  1  0
  9 12  1  0
  9 13  1  0
 14 11  1  6
 12 15  1  6
 12 16  1  0
 13 17  1  0
 14 18  1  0
 14 19  1  0
 16 20  1  6
 15 21  1  0
 20 21  1  0
 16 22  1  0
 17 22  1  0
 19 23  1  0
 18 24  1  0
 23 24  1  0
 23 25  1  1
M  END
