ucsf110-ucsf248
     RDKit          3D

 22 25  0  0  0  0  0  0  0  0999 V2000
   -1.0230   15.4090   -3.6010 C   0  0  0  0  0  0  0  0  0  0  0  0
   -1.3540   14.6020   -2.4310 N   0  0  0  0  0  0  0  0  0  0  0  0
   -2.6970   13.9630   -2.4590 C   0  0  0  0  0  0  0  0  0  0  0  0
   -1.1510   15.2750   -1.1680 C   0  0  1  0  0  0  0  0  0  0  0  0
   -3.5680   14.6600   -1.3920 C   0  0  2  0  0  0  0  0  0  0  0  0
   -2.5400   15.4180   -0.5330 C   0  0  1  0  0  0  0  0  0  0  0  0
   -0.1860   14.4720   -0.4370 N   0  0  0  0  0  0  0  0  0  0  0  0
   -2.4620   14.9140    0.8960 C   0  0  2  0  0  0  0  0  0  0  0  0
   -0.0760   14.7230    0.9790 C   0  0  0  0  0  0  0  0  0  0  0  0
   -4.2480   13.8730   -0.2830 C   0  0  0  0  0  0  0  0  0  0  0  0
   -4.9030   15.2350   -1.9590 C   0  0  0  0  0  0  0  0  0  0  0  0
   -3.4700   15.4560    1.7880 N   0  0  0  0  0  0  0  0  0  0  0  0
   -1.2730   15.2630    1.5350 N   0  0  0  0  0  0  0  0  0  0  0  0
   -4.8940   15.0850    0.3900 C   0  0  1  0  0  0  0  0  0  0  0  0
   -5.7730   15.5800   -0.7300 C   0  0  2  0  0  0  0  0  0  0  0  0
   -5.8200   14.8280    1.4590 N   0  0  0  0  0  0  0  0  0  0  0  0
   -7.0420   14.8340   -0.4990 N   0  0  0  0  0  0  0  0  0  0  0  0
   -6.8950   14.1270    0.8030 C   0  0  2  0  0  0  0  0  0  0  0  0
   -8.2920   14.1970    1.9450 S   0  0  0  0  0  0  0  0  0  0  0  0
   -8.9170   12.7980    2.5390 N   0  0  0  0  0  0  0  0  0  0  0  0
   -7.6460   15.0460    3.1490 O   0  0  0  0  0  0  0  0  0  0  0  0
   -9.4170   15.0890    1.2330 O   0  0  0  0  0  0  0  0  0  0  0  0
  1  2  1  0
  2  3  1  0
  2  4  1  0
  5  3  1  6
  4  6  1  0
  5  6  1  0
  4  7  1  1
  6  8  1  1
  7  9  1  0
  5 10  1  0
  5 11  1  0
  8 12  1  1
  8 13  1  0
  9 13  1  0
 14 10  1  6
 15 11  1  6
 14 15  1  0
 14 16  1  0
 15 17  1  0
 16 18  1  0
 17 18  1  0
 18 19  1  1
 19 20  1  0
 19 21  1  0
 19 22  1  0
M  END
