ucsf005-ucsf115
     RDKit          3D

 18 20  0  0  0  0  0  0  0  0999 V2000
   -1.5620   15.0510   -3.3920 C   0  0  0  0  0  0  0  0  0  0  0  0
   -1.0730   13.9620   -4.3140 C   0  0  0  0  0  0  0  0  0  0  0  0
   -1.1330   12.6330   -3.5800 C   0  0  1  0  0  0  0  0  0  0  0  0
   -2.4880   14.4850   -2.4200 N   0  0  0  0  0  0  0  0  0  0  0  0
   -3.8450   15.0010   -2.5370 C   0  0  0  0  0  0  0  0  0  0  0  0
   -2.2050   14.5580   -1.0120 C   0  0  1  0  0  0  0  0  0  0  0  0
   -4.4420   14.9600   -1.1800 N   0  0  0  0  0  0  0  0  0  0  0  0
   -3.4910   14.1210   -0.4050 C   0  0  2  0  0  0  0  0  0  0  0  0
   -1.0430   13.9990   -0.3710 N   0  0  0  0  0  0  0  0  0  0  0  0
   -0.7850   11.5430   -4.4280 O   0  0  0  0  0  0  0  0  0  0  0  0
   -0.2380   12.5460   -2.3470 C   0  0  0  0  0  0  0  0  0  0  0  0
   -3.3260   14.4560    1.0900 C   0  0  2  0  0  0  0  0  0  0  0  0
   -0.8470   14.8000    0.8030 C   0  0  2  0  0  0  0  0  0  0  0  0
    0.5590   11.3000   -2.5820 C   0  0  0  0  0  0  0  0  0  0  0  0
   -0.3220   10.5430   -3.5340 C   0  0  0  0  0  0  0  0  0  0  0  0
   -4.3920   15.3030    1.5870 N   0  0  0  0  0  0  0  0  0  0  0  0
   -0.1680   13.9790    1.7280 N   0  0  0  0  0  0  0  0  0  0  0  0
   -2.0910   15.1210    1.4700 N   0  0  0  0  0  0  0  0  0  0  0  0
  1  2  1  0
  3  2  1  6
  1  4  1  0
  4  5  1  0
  4  6  1  0
  5  7  1  0
  6  8  1  0
  8  7  1  6
  6  9  1  6
  3 10  1  0
  3 11  1  0
  8 12  1  0
  9 13  1  0
 11 14  1  0
 10 15  1  0
 14 15  1  0
 12 16  1  6
 13 17  1  1
 12 18  1  0
 13 18  1  0
M  END
