ucsf013-ucsf396
     RDKit          3D

 13 14  0  0  0  0  0  0  0  0999 V2000
   -3.7390   14.4720    1.8160 N   0  0  0  0  0  0  0  0  0  0  0  0
   -2.6130   14.9780    1.1070 C   0  0  0  0  0  0  0  0  0  0  0  0
   -2.4160   14.0120    0.0500 N   0  0  0  0  0  0  0  0  0  0  0  0
   -4.9250   14.2890    0.9970 C   0  0  2  0  0  0  0  0  0  0  0  0
   -4.9590   15.1650   -0.2530 C   0  0  2  0  0  0  0  0  0  0  0  0
   -6.1350   14.5650    1.7510 N   0  0  0  0  0  0  0  0  0  0  0  0
   -6.0840   14.5240   -1.0290 C   0  0  1  0  0  0  0  0  0  0  0  0
   -7.3430   14.1260    1.0590 C   0  0  0  0  0  0  0  0  0  0  0  0
   -3.6960   15.3320   -1.1000 C   0  0  0  0  0  0  0  0  0  0  0  0
   -7.3640   14.6630   -0.3080 N   0  0  0  0  0  0  0  0  0  0  0  0
   -6.0830   15.0190   -2.4750 C   0  0  0  0  0  0  0  0  0  0  0  0
   -3.6190   14.3960   -2.2930 C   0  0  0  0  0  0  0  0  0  0  0  0
   -4.7910   14.6310   -3.2240 C   0  0  0  0  0  0  0  0  0  0  0  0
  1  2  1  0
  2  3  1  0
  4  1  1  1
  4  5  1  0
  4  6  1  0
  5  7  1  0
  6  8  1  0
  5  9  1  6
  7 10  1  0
  8 10  1  0
  7 11  1  6
  9 12  1  0
 11 13  1  0
 12 13  1  0
M  END
