ucsf403-ucsf169
     RDKit          3D

 23 24  0  0  0  0  0  0  0  0999 V2000
    0.8600    9.3990   -7.8640 Cl  0  0  0  0  0  0  0  0  0  0  0  0
   -0.6320    9.9220   -7.0200 C   0  0  2  0  0  0  0  0  0  0  0  0
   -0.4760   10.7680   -5.7260 C   0  0  1  0  0  0  0  0  0  0  0  0
   -1.5210    8.7160   -6.7500 C   0  0  0  0  0  0  0  0  0  0  0  0
    0.4050   11.9120   -5.9850 O   0  0  0  0  0  0  0  0  0  0  0  0
   -1.8710   11.2450   -5.2750 C   0  0  2  0  0  0  0  0  0  0  0  0
   -2.9240    9.1300   -6.3230 C   0  0  0  0  0  0  0  0  0  0  0  0
   -1.8280   12.1310   -3.7300 Cl  0  0  0  0  0  0  0  0  0  0  0  0
    0.7870   12.8840   -4.9200 C   0  0  2  0  0  0  0  0  0  0  0  0
   -2.8850   10.1050   -5.1470 C   0  0  0  0  0  0  0  0  0  0  0  0
    0.9390   12.2170   -3.5110 C   0  0  1  0  0  0  0  0  0  0  0  0
   -0.0980   14.2110   -5.0260 C   0  0  1  0  0  0  0  0  0  0  0  0
    0.2230   13.0370   -2.5810 O   0  0  0  0  0  0  0  0  0  0  0  0
    0.4350   10.8970   -3.4050 O   0  0  0  0  0  0  0  0  0  0  0  0
   -1.6180   14.1480   -4.7080 C   0  0  0  0  0  0  0  0  0  0  0  0
    0.5010   15.5040   -4.4340 C   0  0  0  0  0  0  0  0  0  0  0  0
    0.7980   12.8420   -1.2560 O   0  0  0  0  0  0  0  0  0  0  0  0
   -0.1320   16.7130   -5.1370 C   0  0  2  0  0  0  0  0  0  0  0  0
   -2.2790   15.5020   -4.3800 C   0  0  0  0  0  0  0  0  0  0  0  0
    0.3340   17.9240   -4.5650 O   0  0  0  0  0  0  0  0  0  0  0  0
   -1.6730   16.6870   -5.1410 C   0  0  1  0  0  0  0  0  0  0  0  0
    1.2270   18.5110   -5.4900 C   0  0  0  0  0  0  0  0  0  0  0  0
   -2.1720   17.9590   -4.6830 O   0  0  0  0  0  0  0  0  0  0  0  0
  2  1  1  1
  2  3  1  0
  2  4  1  0
  3  5  1  6
  3  6  1  0
  4  7  1  0
  6  8  1  1
  9  5  1  6
  6 10  1  0
  7 10  1  0
  9 11  1  0
  9 12  1  0
 11 13  1  0
 11 14  1  6
 12 15  1  1
 12 16  1  0
 13 17  1  0
 16 18  1  0
 15 19  1  0
 18 20  1  1
 18 21  1  0
 19 21  1  0
 20 22  1  0
 21 23  1  1
M  END
