ucsf333-ucsf340
     RDKit          3D

 25 28  0  0  0  0  0  0  0  0999 V2000
   -6.4220   15.6400   -1.2960 Cl  0  0  0  0  0  0  0  0  0  0  0  0
   -4.8580   14.8230   -1.0380 C   0  0  1  0  0  0  0  0  0  0  0  0
   -3.8790   15.1670   -2.1440 C   0  0  0  0  0  0  0  0  0  0  0  0
   -4.2650   15.1350    0.3450 C   0  0  0  0  0  0  0  0  0  0  0  0
   -2.5960   14.3660   -1.9070 C   0  0  1  0  0  0  0  0  0  0  0  0
   -3.0160   14.2760    0.5930 C   0  0  0  0  0  0  0  0  0  0  0  0
   -1.5220   14.7350   -2.7870 N   0  0  0  0  0  0  0  0  0  0  0  0
   -2.0070   14.4740   -0.5170 C   0  0  1  0  0  0  0  0  0  0  0  0
   -0.2250   14.6970   -2.0760 C   0  0  1  0  0  0  0  0  0  0  0  0
   -0.5050   13.5060   -0.7010 S   0  0  0  0  0  0  0  0  0  0  0  0
    0.8580   14.5350   -3.1440 C   0  0  1  0  0  0  0  0  0  0  0  0
    0.9010   13.0580   -3.7080 C   0  0  0  0  0  0  0  0  0  0  0  0
    0.3900   15.7050   -4.0710 C   0  0  1  0  0  0  0  0  0  0  0  0
    0.2800   12.0030   -2.7350 C   0  0  2  0  0  0  0  0  0  0  0  0
    0.9690   15.9840   -5.4150 C   0  0  0  0  0  0  0  0  0  0  0  0
   -1.1070   15.7960   -4.4450 C   0  0  1  0  0  0  0  0  0  0  0  0
    0.9990   11.9340   -1.6330 O   0  0  0  0  0  0  0  0  0  0  0  0
    0.4110   10.6860   -3.2060 O   0  0  0  0  0  0  0  0  0  0  0  0
    0.1760   17.1260   -5.9360 N   0  0  0  0  0  0  0  0  0  0  0  0
   -1.0730   17.1500   -5.1730 C   0  0  1  0  0  0  0  0  0  0  0  0
   -1.6710   14.6000   -5.2440 C   0  0  0  0  0  0  0  0  0  0  0  0
    0.8710   18.3970   -5.8830 C   0  0  0  0  0  0  0  0  0  0  0  0
   -2.9940   14.9060   -5.9400 C   0  0  0  0  0  0  0  0  0  0  0  0
   -2.2950   17.3730   -6.0220 C   0  0  0  0  0  0  0  0  0  0  0  0
   -3.3800   16.3430   -5.7380 C   0  0  0  0  0  0  0  0  0  0  0  0
  2  1  1  6
  2  3  1  0
  2  4  1  0
  5  3  1  1
  4  6  1  0
  5  7  1  0
  5  8  1  0
  8  6  1  1
  9  7  1  6
  8 10  1  0
  9 10  1  0
  9 11  1  0
 11 12  1  6
 11 13  1  0
 12 14  1  0
 13 15  1  6
 13 16  1  0
 14 17  1  1
 14 18  1  0
 15 19  1  0
 16 20  1  0
 19 20  1  0
 16 21  1  6
 19 22  1  0
 21 23  1  0
 20 24  1  6
 23 25  1  0
 24 25  1  0
M  CHG  1  17  -1
M  END
