ucsf124-ucsf115
     RDKit          3D

 31 35  0  0  0  0  0  0  0  0999 V2000
    0.6770   10.4970   -2.0100 O   0  0  0  0  0  0  0  0  0  0  0  0
    1.0760   11.4490   -2.8530 C   0  0  1  0  0  0  0  0  0  0  0  0
    1.9870   12.3420   -2.2400 O   0  0  0  0  0  0  0  0  0  0  0  0
    1.5470   10.9940   -4.2530 C   0  0  0  0  0  0  0  0  0  0  0  0
   -0.0790   12.1720   -3.2610 C   0  0  1  0  0  0  0  0  0  0  0  0
    0.5450   11.3430   -5.2960 N   0  0  0  0  0  0  0  0  0  0  0  0
   -1.4380   11.7050   -2.8700 C   0  0  0  0  0  0  0  0  0  0  0  0
   -0.1560   13.5660   -2.8620 C   0  0  0  0  0  0  0  0  0  0  0  0
   -0.7450   10.6320   -5.1290 C   0  0  1  0  0  0  0  0  0  0  0  0
    1.0150   11.0450   -6.6440 C   0  0  2  0  0  0  0  0  0  0  0  0
   -2.1860   12.6570   -3.6640 O   0  0  0  0  0  0  0  0  0  0  0  0
   -1.2650   13.7830   -3.8450 C   0  0  1  0  0  0  0  0  0  0  0  0
   -1.8990   11.4270   -5.0560 O   0  0  0  0  0  0  0  0  0  0  0  0
    1.5740   12.1630   -7.2550 O   0  0  0  0  0  0  0  0  0  0  0  0
   -1.9230   15.1140   -3.6450 C   0  0  0  0  0  0  0  0  0  0  0  0
   -0.8400    9.6610   -6.2910 C   0  0  2  0  0  0  0  0  0  0  0  0
   -0.1490   10.4140   -7.3970 C   0  0  2  0  0  0  0  0  0  0  0  0
   -2.7190   15.0290   -2.4450 N   0  0  0  0  0  0  0  0  0  0  0  0
   -2.2150    9.1790   -6.6970 C   0  0  0  0  0  0  0  0  0  0  0  0
    0.1980    9.4520   -8.5180 C   0  0  0  0  0  0  0  0  0  0  0  0
   -2.0500    8.2210   -7.8770 C   0  0  0  0  0  0  0  0  0  0  0  0
   -1.0490    8.6750   -8.9750 C   0  0  0  0  0  0  0  0  0  0  0  0
   -2.1300   15.5250   -1.2190 C   0  0  2  0  0  0  0  0  0  0  0  0
   -1.0190   14.6650   -0.8060 N   0  0  0  0  0  0  0  0  0  0  0  0
   -3.2250   15.5790   -0.1630 C   0  0  2  0  0  0  0  0  0  0  0  0
   -0.6210   14.7770    0.5950 C   0  0  0  0  0  0  0  0  0  0  0  0
   -2.9690   14.4320    0.7730 C   0  0  1  0  0  0  0  0  0  0  0  0
   -4.6380   15.4190   -0.5290 N   0  0  0  0  0  0  0  0  0  0  0  0
   -1.7400   14.5740    1.4940 N   0  0  0  0  0  0  0  0  0  0  0  0
   -4.1470   14.5100    1.5930 N   0  0  0  0  0  0  0  0  0  0  0  0
   -5.1910   14.6420    0.5740 C   0  0  0  0  0  0  0  0  0  0  0  0
  2  1  1  1
  2  3  1  0
  2  4  1  0
  2  5  1  0
  4  6  1  0
  5  7  1  1
  5  8  1  0
  6  9  1  0
  6 10  1  0
  7 11  1  0
  8 12  1  0
 11 12  1  0
  9 13  1  6
 10 14  1  6
 12 15  1  1
  9 16  1  0
 10 17  1  0
 16 17  1  0
 15 18  1  0
 16 19  1  6
 17 20  1  6
 19 21  1  0
 20 22  1  0
 21 22  1  0
 23 18  1  6
 23 24  1  0
 23 25  1  0
 24 26  1  0
 25 27  1  0
 25 28  1  6
 26 29  1  0
 27 29  1  1
 27 30  1  0
 28 31  1  0
 30 31  1  0
M  CHG  1   1  -1
M  END
