ucsf274-ucsf135
     RDKit          3D

 17 18  0  0  0  0  0  0  0  0999 V2000
    0.5430   11.1880   -2.5900 O   0  0  0  0  0  0  0  0  0  0  0  0
    1.0910   12.3830   -2.4850 C   0  0  2  0  0  0  0  0  0  0  0  0
    0.6680   12.7420   -1.1840 O   0  0  0  0  0  0  0  0  0  0  0  0
    0.4590   13.4400   -3.4230 C   0  0  0  0  0  0  0  0  0  0  0  0
    0.3980   13.1140   -4.9250 C   0  0  0  0  0  0  0  0  0  0  0  0
   -0.1110   11.7040   -5.2750 C   0  0  1  0  0  0  0  0  0  0  0  0
   -1.5290   11.4350   -4.6090 C   0  0  1  0  0  0  0  0  0  0  0  0
   -0.1040   11.4480   -6.7350 N   0  0  0  0  0  0  0  0  0  0  0  0
   -2.2110   12.6250   -4.2350 O   0  0  0  0  0  0  0  0  0  0  0  0
    1.2930   11.5080   -7.1790 O   0  0  0  0  0  0  0  0  0  0  0  0
   -2.5210   10.6070   -5.3220 N   0  0  0  0  0  0  0  0  0  0  0  0
   -0.5340   10.0470   -6.8130 C   0  0  1  0  0  0  0  0  0  0  0  0
   -2.0380    9.9380   -6.5470 C   0  0  1  0  0  0  0  0  0  0  0  0
   -0.1900    9.3900   -8.1610 C   0  0  0  0  0  0  0  0  0  0  0  0
   -0.6420    7.9280   -8.2420 C   0  0  0  0  0  0  0  0  0  0  0  0
   -2.4330    8.4560   -6.4970 C   0  0  0  0  0  0  0  0  0  0  0  0
   -2.0800    7.7050   -7.7810 C   0  0  0  0  0  0  0  0  0  0  0  0
  2  1  1  6
  2  3  1  0
  2  4  1  0
  4  5  1  0
  6  5  1  6
  6  7  1  0
  6  8  1  0
  7  9  1  6
  8 10  1  0
  7 11  1  0
  8 12  1  0
 11 13  1  0
 12 13  1  0
 12 14  1  6
 14 15  1  0
 13 16  1  1
 15 17  1  0
 16 17  1  0
M  CHG  1   1  -1
M  END
