ucsf396-ucsf523
     RDKit          3D

 21 23  0  0  0  0  0  0  0  0999 V2000
   -3.6900   12.5530   -0.9320 N   0  0  0  0  0  0  0  0  0  0  0  0
   -4.3650   13.1950    0.2210 C   0  0  2  0  0  0  0  0  0  0  0  0
   -4.4450   12.3140    1.3180 O   0  0  0  0  0  0  0  0  0  0  0  0
   -2.6470   13.3820   -1.5790 C   0  0  2  0  0  0  0  0  0  0  0  0
   -5.8150   13.6780   -0.0140 C   0  0  1  0  0  0  0  0  0  0  0  0
   -1.3260   12.8380   -1.2050 N   0  0  0  0  0  0  0  0  0  0  0  0
   -2.7920   14.8260   -1.0910 C   0  0  2  0  0  0  0  0  0  0  0  0
   -6.4280   13.3250   -1.3660 C   0  0  0  0  0  0  0  0  0  0  0  0
   -6.7750   13.2690    1.1160 C   0  0  0  0  0  0  0  0  0  0  0  0
   -0.4740   13.5500   -0.2480 C   0  0  1  0  0  0  0  0  0  0  0  0
   -2.2810   14.6680    0.3420 C   0  0  1  0  0  0  0  0  0  0  0  0
   -4.1060   15.4760   -1.3350 N   0  0  0  0  0  0  0  0  0  0  0  0
    0.7840   13.7710   -0.8600 N   0  0  0  0  0  0  0  0  0  0  0  0
   -7.8870   13.5340   -1.3790 N   0  0  0  0  0  0  0  0  0  0  0  0
   -8.0660   14.0810    1.0510 C   0  0  0  0  0  0  0  0  0  0  0  0
   -0.8900   14.8180    0.1700 N   0  0  0  0  0  0  0  0  0  0  0  0
   -2.6690   15.5890    1.3510 N   0  0  0  0  0  0  0  0  0  0  0  0
   -4.7970   15.8730   -0.1060 C   0  0  0  0  0  0  0  0  0  0  0  0
   -8.3630   14.5040   -0.3850 C   0  0  0  0  0  0  0  0  0  0  0  0
   -3.9530   16.2120    1.1690 C   0  0  1  0  0  0  0  0  0  0  0  0
   -4.7200   15.9870    2.3450 O   0  0  0  0  0  0  0  0  0  0  0  0
  1  2  1  0
  2  3  1  1
  4  1  1  1
  2  5  1  0
  4  6  1  0
  4  7  1  0
  5  8  1  6
  5  9  1  0
  6 10  1  0
  7 11  1  0
  7 12  1  1
 10 13  1  6
  8 14  1  0
  9 15  1  0
 10 16  1  0
 11 16  1  6
 11 17  1  0
 12 18  1  0
 14 19  1  0
 15 19  1  0
 17 20  1  0
 18 20  1  0
 20 21  1  1
M  END
