ucsf169-ucsf367
     RDKit          3D

 20 21  0  0  0  0  0  0  0  0999 V2000
    1.0910   18.1640   -5.3630 C   0  0  0  0  0  0  0  0  0  0  0  0
   -0.1350   17.9300   -4.6880 O   0  0  0  0  0  0  0  0  0  0  0  0
   -0.3960   16.5430   -4.3370 C   0  0  1  0  0  0  0  0  0  0  0  0
   -1.9330   16.4080   -4.5080 C   0  0  1  0  0  0  0  0  0  0  0  0
    0.4640   15.5090   -5.0750 C   0  0  0  0  0  0  0  0  0  0  0  0
   -2.4370   17.6420   -5.0280 O   0  0  0  0  0  0  0  0  0  0  0  0
   -2.4360   15.1840   -5.2060 C   0  0  0  0  0  0  0  0  0  0  0  0
   -0.1270   14.0820   -5.2470 C   0  0  1  0  0  0  0  0  0  0  0  0
    0.7420   12.9370   -4.6100 C   0  0  1  0  0  0  0  0  0  0  0  0
   -1.5920   13.9960   -4.7870 C   0  0  0  0  0  0  0  0  0  0  0  0
    0.3480   12.4980   -3.1320 C   0  0  2  0  0  0  0  0  0  0  0  0
    0.8180   11.8500   -5.6120 O   0  0  0  0  0  0  0  0  0  0  0  0
    1.2470   12.9680   -2.1490 O   0  0  0  0  0  0  0  0  0  0  0  0
    0.4380   11.1950   -2.9400 O   0  0  0  0  0  0  0  0  0  0  0  0
   -0.2060   10.8300   -5.6800 C   0  0  0  0  0  0  0  0  0  0  0  0
   -0.1340   10.0470   -7.0010 C   0  0  0  0  0  0  0  0  0  0  0  0
   -1.5900   11.4300   -5.6500 C   0  0  0  0  0  0  0  0  0  0  0  0
   -1.1260    8.8860   -7.0000 C   0  0  0  0  0  0  0  0  0  0  0  0
   -2.6250   10.3110   -5.6090 C   0  0  0  0  0  0  0  0  0  0  0  0
   -2.5480    9.3950   -6.8130 C   0  0  0  0  0  0  0  0  0  0  0  0
  1  2  1  0
  3  2  1  6
  3  4  1  0
  3  5  1  0
  4  6  1  6
  4  7  1  0
  8  5  1  1
  8  9  1  0
  7 10  1  0
  8 10  1  0
  9 11  1  0
  9 12  1  6
 11 13  1  1
 11 14  1  0
 12 15  1  0
 15 16  1  0
 15 17  1  0
 16 18  1  0
 17 19  1  0
 18 20  1  0
 19 20  1  0
M  CHG  1  14  -1
M  END
