ucsf190-ucsf338
     RDKit          3D

 27 29  0  0  0  0  0  0  0  0999 V2000
    0.5960   10.4800   -2.4270 O   0  0  0  0  0  0  0  0  0  0  0  0
    1.0510   11.7290   -2.3960 C   0  0  2  0  0  0  0  0  0  0  0  0
    0.1170   12.4210   -1.5790 O   0  0  0  0  0  0  0  0  0  0  0  0
    1.1910   12.3520   -3.8000 C   0  0  0  0  0  0  0  0  0  0  0  0
    0.8580   13.8420   -3.9500 C   0  0  2  0  0  0  0  0  0  0  0  0
   -0.5970   14.1770   -4.2430 C   0  0  1  0  0  0  0  0  0  0  0  0
    1.7310   14.7180   -4.7260 N   0  0  0  0  0  0  0  0  0  0  0  0
   -0.9280   15.6770   -4.0650 C   0  0  1  0  0  0  0  0  0  0  0  0
    1.6090   16.1010   -4.2620 N   0  0  0  0  0  0  0  0  0  0  0  0
   -1.1760   13.4480   -5.4580 C   0  0  0  0  0  0  0  0  0  0  0  0
    0.2510   16.6640   -4.2860 C   0  0  1  0  0  0  0  0  0  0  0  0
   -2.2280   16.0710   -4.7830 C   0  0  0  0  0  0  0  0  0  0  0  0
   -2.6530   13.7540   -5.7100 C   0  0  0  0  0  0  0  0  0  0  0  0
    0.0440   17.4060   -5.4830 O   0  0  0  0  0  0  0  0  0  0  0  0
   -3.2290   14.9000   -4.8640 C   0  0  1  0  0  0  0  0  0  0  0  0
   -3.6790   14.3120   -3.4990 C   0  0  0  0  0  0  0  0  0  0  0  0
   -4.3240   15.2590   -2.6340 O   0  0  0  0  0  0  0  0  0  0  0  0
   -4.1250   14.8980   -1.2480 C   0  0  2  0  0  0  0  0  0  0  0  0
   -5.2820   15.4360   -0.3650 C   0  0  1  0  0  0  0  0  0  0  0  0
   -2.7520   15.4080   -0.7780 C   0  0  0  0  0  0  0  0  0  0  0  0
   -6.7280   15.1150   -0.8270 C   0  0  2  0  0  0  0  0  0  0  0  0
   -2.4930   15.2080    0.7190 C   0  0  0  0  0  0  0  0  0  0  0  0
   -4.9690   15.0170    1.0790 C   0  0  0  0  0  0  0  0  0  0  0  0
   -7.4450   14.3220    0.1870 N   0  0  0  0  0  0  0  0  0  0  0  0
   -6.7930   14.4190   -2.0390 O   0  0  0  0  0  0  0  0  0  0  0  0
   -3.6770   15.6250    1.5750 C   0  0  0  0  0  0  0  0  0  0  0  0
   -8.8670   14.4210   -0.1110 O   0  0  0  0  0  0  0  0  0  0  0  0
  2  1  1  6
  2  3  1  0
  2  4  1  0
  5  4  1  6
  5  6  1  0
  5  7  1  0
  6  8  1  0
  7  9  1  0
  6 10  1  6
  8 11  1  0
  9 11  1  0
  8 12  1  6
 10 13  1  0
 11 14  1  6
 12 15  1  0
 13 15  1  0
 15 16  1  1
 16 17  1  0
 18 17  1  6
 18 19  1  0
 18 20  1  0
 19 21  1  0
 20 22  1  0
 19 23  1  1
 21 24  1  0
 21 25  1  6
 22 26  1  0
 23 26  1  0
 24 27  1  0
M  CHG  1   1  -1
M  END
