ucsf385-ucsf274
     RDKit          3D

 25 27  0  0  0  0  0  0  0  0999 V2000
   -3.4600   14.8760   -1.6290 N   0  0  0  0  0  0  0  0  0  0  0  0
   -2.3950   15.1660   -0.6390 C   0  0  1  0  0  0  0  0  0  0  0  0
   -2.7390   14.5240    0.7120 C   0  0  0  0  0  0  0  0  0  0  0  0
   -0.9190   14.8720   -1.0950 C   0  0  2  0  0  0  0  0  0  0  0  0
   -0.5920   14.6900   -2.6860 C   0  0  1  0  0  0  0  0  0  0  0  0
   -0.3190   13.8550   -0.0940 C   0  0  0  0  0  0  0  0  0  0  0  0
   -1.7410   14.8140    1.7430 N   0  0  0  0  0  0  0  0  0  0  0  0
   -0.2200   13.2940   -3.2520 N   0  0  0  0  0  0  0  0  0  0  0  0
   -1.6750   15.1810   -3.2780 O   0  0  0  0  0  0  0  0  0  0  0  0
   -0.4350   14.2350    1.3740 C   0  0  0  0  0  0  0  0  0  0  0  0
    0.8150   12.4820   -2.5420 C   0  0  2  0  0  0  0  0  0  0  0  0
    0.1060   13.3140   -4.7430 C   0  0  0  0  0  0  0  0  0  0  0  0
    0.5170   11.1810   -2.4790 O   0  0  0  0  0  0  0  0  0  0  0  0
    0.8310   12.7560   -1.1730 O   0  0  0  0  0  0  0  0  0  0  0  0
   -0.7520   12.3480   -5.6520 C   0  0  2  0  0  0  0  0  0  0  0  0
   -2.0770   11.8840   -4.9280 C   0  0  2  0  0  0  0  0  0  0  0  0
    0.0660   11.3100   -6.3780 N   0  0  0  0  0  0  0  0  0  0  0  0
   -2.0720   12.0790   -3.5320 O   0  0  0  0  0  0  0  0  0  0  0  0
   -2.5520   10.5210   -5.1380 N   0  0  0  0  0  0  0  0  0  0  0  0
   -0.4900    9.9490   -6.5090 C   0  0  1  0  0  0  0  0  0  0  0  0
   -2.0340    9.9550   -6.3880 C   0  0  1  0  0  0  0  0  0  0  0  0
   -0.0340    9.3270   -7.8410 C   0  0  0  0  0  0  0  0  0  0  0  0
   -0.6020    7.9330   -8.0880 C   0  0  0  0  0  0  0  0  0  0  0  0
   -2.5690    8.5310   -6.5450 C   0  0  0  0  0  0  0  0  0  0  0  0
   -2.1120    7.8730   -7.8530 C   0  0  0  0  0  0  0  0  0  0  0  0
  2  1  1  6
  2  3  1  0
  2  4  1  0
  4  5  1  0
  4  6  1  1
  3  7  1  0
  5  8  1  0
  5  9  1  6
  6 10  1  0
  7 10  1  0
  8 11  1  0
  8 12  1  0
 11 13  1  1
 11 14  1  0
 15 12  1  1
 15 16  1  0
 15 17  1  0
 16 18  1  1
 16 19  1  0
 17 20  1  0
 19 21  1  0
 20 21  1  0
 20 22  1  6
 22 23  1  0
 21 24  1  1
 23 25  1  0
 24 25  1  0
M  CHG  2   9  -1  13  -1
M  END
