ucsf274-ucsf337
     RDKit          3D

 28 30  0  0  0  0  0  0  0  0999 V2000
    0.5910   11.1400   -2.6130 O   0  0  0  0  0  0  0  0  0  0  0  0
    1.1060   12.3410   -2.4600 C   0  0  2  0  0  0  0  0  0  0  0  0
    0.6490   12.7560   -1.1720 O   0  0  0  0  0  0  0  0  0  0  0  0
    0.5370   13.3790   -3.4840 C   0  0  0  0  0  0  0  0  0  0  0  0
    0.4730   12.9760   -4.9670 C   0  0  0  0  0  0  0  0  0  0  0  0
   -0.1750   11.6240   -5.2830 C   0  0  1  0  0  0  0  0  0  0  0  0
   -1.5590   11.3620   -4.5740 C   0  0  1  0  0  0  0  0  0  0  0  0
   -0.1760   11.2240   -6.6870 N   0  0  0  0  0  0  0  0  0  0  0  0
   -2.1930   12.5550   -4.1510 O   0  0  0  0  0  0  0  0  0  0  0  0
   -2.5090   10.5830   -5.3740 N   0  0  0  0  0  0  0  0  0  0  0  0
   -0.5480    9.8150   -6.8050 C   0  0  1  0  0  0  0  0  0  0  0  0
   -2.8680   13.2440   -5.1920 C   0  0  0  0  0  0  0  0  0  0  0  0
   -1.8460    9.4390   -6.0030 C   0  0  2  0  0  0  0  0  0  0  0  0
   -0.5890    9.4210   -8.2830 C   0  0  0  0  0  0  0  0  0  0  0  0
   -4.3540   13.2770   -4.8510 C   0  0  0  0  0  0  0  0  0  0  0  0
   -0.9170    7.9480   -8.4540 C   0  0  0  0  0  0  0  0  0  0  0  0
   -2.8270    8.6840   -6.8940 C   0  0  0  0  0  0  0  0  0  0  0  0
   -4.7770   14.6920   -4.4790 C   0  0  0  0  0  0  0  0  0  0  0  0
   -2.1580    7.5340   -7.6550 C   0  0  0  0  0  0  0  0  0  0  0  0
   -5.9000   14.8140   -3.5370 N   0  0  0  0  0  0  0  0  0  0  0  0
   -5.6200   15.1230   -2.1450 C   0  0  2  0  0  0  0  0  0  0  0  0
   -4.1380   15.2460   -1.6980 C   0  0  0  0  0  0  0  0  0  0  0  0
   -6.3860   14.2130   -1.3420 N   0  0  0  0  0  0  0  0  0  0  0  0
   -6.3960   14.7440   -0.0070 C   0  0  1  0  0  0  0  0  0  0  0  0
   -3.9540   15.3770   -0.1740 C   0  0  0  0  0  0  0  0  0  0  0  0
   -7.5240   14.1550    0.8350 C   0  0  0  0  0  0  0  0  0  0  0  0
   -4.9860   14.5490    0.5910 C   0  0  1  0  0  0  0  0  0  0  0  0
   -4.9120   15.0500    2.5050 Br  0  0  0  0  0  0  0  0  0  0  0  0
  2  1  1  6
  2  3  1  0
  2  4  1  0
  4  5  1  0
  6  5  1  6
  6  7  1  0
  6  8  1  0
  7  9  1  6
  7 10  1  0
  8 11  1  0
  9 12  1  0
 10 13  1  0
 11 13  1  0
 11 14  1  6
 12 15  1  0
 14 16  1  0
 13 17  1  6
 15 18  1  0
 16 19  1  0
 17 19  1  0
 18 20  1  0
 21 20  1  6
 21 22  1  0
 21 23  1  0
 23 24  1  0
 22 25  1  0
 24 26  1  1
 24 27  1  0
 25 27  1  0
 27 28  1  1
M  CHG  1   1  -1
M  END
