ucsf338-ucsf005
     RDKit          3D

 16 17  0  0  0  0  0  0  0  0999 V2000
   -8.7500   14.0680    0.0590 O   0  0  0  0  0  0  0  0  0  0  0  0
   -7.4450   14.5540    0.4920 N   0  0  0  0  0  0  0  0  0  0  0  0
   -6.5010   14.3100   -0.6030 C   0  0  1  0  0  0  0  0  0  0  0  0
   -6.7380   15.2670   -1.6140 O   0  0  0  0  0  0  0  0  0  0  0  0
   -5.0100   14.3480   -0.1450 C   0  0  1  0  0  0  0  0  0  0  0  0
   -4.0300   15.0440   -1.1460 C   0  0  1  0  0  0  0  0  0  0  0  0
   -4.8030   15.0080    1.2330 C   0  0  0  0  0  0  0  0  0  0  0  0
   -4.6180   16.1160   -1.8390 O   0  0  0  0  0  0  0  0  0  0  0  0
   -2.7240   15.4600   -0.4200 C   0  0  1  0  0  0  0  0  0  0  0  0
   -3.4550   14.5950    1.8270 C   0  0  0  0  0  0  0  0  0  0  0  0
   -3.4210   14.1760   -2.2550 C   0  0  0  0  0  0  0  0  0  0  0  0
   -2.3570   14.5720    0.7680 C   0  0  2  0  0  0  0  0  0  0  0  0
   -2.3160   15.0300   -2.7080 N   0  0  0  0  0  0  0  0  0  0  0  0
   -1.6260   15.4090   -1.4820 C   0  0  0  0  0  0  0  0  0  0  0  0
   -1.0320   14.8820    1.3460 N   0  0  0  0  0  0  0  0  0  0  0  0
   -1.4290   14.4150   -3.6790 C   0  0  0  0  0  0  0  0  0  0  0  0
  1  2  1  0
  2  3  1  0
  3  4  1  6
  3  5  1  0
  5  6  1  0
  5  7  1  1
  6  8  1  6
  6  9  1  0
  7 10  1  0
  6 11  1  0
  9 12  1  0
 10 12  1  0
 11 13  1  0
  9 14  1  6
 13 14  1  0
 12 15  1  1
 13 16  1  0
M  END
