ucsf004-ucsf523
     RDKit          3D

 18 20  0  0  0  0  0  0  0  0999 V2000
   -2.0840   12.1350   -4.6790 F   0  0  0  0  0  0  0  0  0  0  0  0
   -1.7370   13.4420   -4.8660 C   0  0  2  0  0  0  0  0  0  0  0  0
   -0.2770   13.4970   -5.2840 C   0  0  0  0  0  0  0  0  0  0  0  0
   -2.0450   14.2390   -3.5830 C   0  0  0  0  0  0  0  0  0  0  0  0
   -0.9490   14.1760   -2.5950 N   0  0  0  0  0  0  0  0  0  0  0  0
    0.3590   14.7500   -4.7180 C   0  0  0  0  0  0  0  0  0  0  0  0
    0.3180   14.6980   -3.1830 C   0  0  0  0  0  0  0  0  0  0  0  0
   -1.2040   14.8480   -1.3250 C   0  0  2  0  0  0  0  0  0  0  0  0
   -1.3520   16.1630   -1.7650 O   0  0  0  0  0  0  0  0  0  0  0  0
   -0.0090   14.7560   -0.4950 N   0  0  0  0  0  0  0  0  0  0  0  0
   -2.5210   14.5530   -0.5840 C   0  0  1  0  0  0  0  0  0  0  0  0
   -0.1170   14.4540    0.9370 C   0  0  0  0  0  0  0  0  0  0  0  0
   -2.3490   15.2760    0.7070 C   0  0  2  0  0  0  0  0  0  0  0  0
   -3.8810   15.1030   -1.0490 C   0  0  0  0  0  0  0  0  0  0  0  0
   -1.4240   14.5990    1.5180 N   0  0  0  0  0  0  0  0  0  0  0  0
   -3.6330   15.2970    1.3450 N   0  0  0  0  0  0  0  0  0  0  0  0
   -4.5650   15.5260    0.2670 C   0  0  2  0  0  0  0  0  0  0  0  0
   -5.7420   14.7830    0.5720 O   0  0  0  0  0  0  0  0  0  0  0  0
  2  1  1  1
  2  3  1  0
  2  4  1  0
  4  5  1  0
  3  6  1  0
  5  7  1  0
  6  7  1  0
  5  8  1  0
  8  9  1  6
  8 10  1  0
  8 11  1  0
 10 12  1  0
 11 13  1  0
 11 14  1  6
 12 15  1  0
 13 15  1  1
 13 16  1  0
 14 17  1  0
 16 17  1  0
 17 18  1  1
M  END
