ucsf190-ucsf403
     RDKit          3D

 24 26  0  0  0  0  0  0  0  0999 V2000
    0.5600   10.3370   -2.3890 O   0  0  0  0  0  0  0  0  0  0  0  0
    0.9850   11.5750   -2.6660 C   0  0  2  0  0  0  0  0  0  0  0  0
    0.5410   12.2650   -1.5090 O   0  0  0  0  0  0  0  0  0  0  0  0
    0.3490   12.1430   -3.9720 C   0  0  2  0  0  0  0  0  0  0  0  0
    0.6780   11.4290   -5.2460 O   0  0  0  0  0  0  0  0  0  0  0  0
    0.5450   13.6930   -3.9740 C   0  0  2  0  0  0  0  0  0  0  0  0
   -0.7580   14.3680   -4.4010 C   0  0  1  0  0  0  0  0  0  0  0  0
    1.7100   14.3120   -4.6990 N   0  0  0  0  0  0  0  0  0  0  0  0
   -0.4620   11.1660   -6.1460 C   0  0  2  0  0  0  0  0  0  0  0  0
   -0.5190   15.7270   -5.0070 C   0  0  2  0  0  0  0  0  0  0  0  0
    1.8650   15.7070   -4.2220 N   0  0  0  0  0  0  0  0  0  0  0  0
   -1.5830   13.5900   -5.3900 C   0  0  0  0  0  0  0  0  0  0  0  0
   -1.8950   11.4270   -5.5820 C   0  0  2  0  0  0  0  0  0  0  0  0
   -0.4810    9.8240   -6.9470 C   0  0  1  0  0  0  0  0  0  0  0  0
    0.9530    9.3350   -7.9290 Cl  0  0  0  0  0  0  0  0  0  0  0  0
   -2.0520   11.6820   -3.7950 Cl  0  0  0  0  0  0  0  0  0  0  0  0
    0.5900   16.4490   -4.2340 C   0  0  1  0  0  0  0  0  0  0  0  0
   -1.8650   16.4690   -5.1950 C   0  0  0  0  0  0  0  0  0  0  0  0
   -2.9930   14.1220   -5.3720 C   0  0  0  0  0  0  0  0  0  0  0  0
   -2.8860   10.3110   -5.9860 C   0  0  0  0  0  0  0  0  0  0  0  0
   -0.9870    8.6380   -6.1190 C   0  0  0  0  0  0  0  0  0  0  0  0
    0.8260   17.7430   -4.7580 O   0  0  0  0  0  0  0  0  0  0  0  0
   -3.0420   15.6060   -5.7110 C   0  0  0  0  0  0  0  0  0  0  0  0
   -2.4320    8.8750   -5.6950 C   0  0  0  0  0  0  0  0  0  0  0  0
  2  1  1  1
  2  3  1  0
  2  4  1  0
  4  5  1  6
  4  6  1  0
  6  7  1  0
  6  8  1  6
  9  5  1  1
  7 10  1  0
  8 11  1  0
  7 12  1  6
  9 13  1  0
  9 14  1  0
 14 15  1  1
 13 16  1  1
 10 17  1  0
 11 17  1  0
 10 18  1  1
 12 19  1  0
 13 20  1  0
 14 21  1  0
 17 22  1  6
 18 23  1  0
 19 23  1  0
 20 24  1  0
 21 24  1  0
M  CHG  1   1  -1
M  END
