ucsf487-ucsf028
     RDKit          3D

 27 31  0  0  0  0  0  0  0  0999 V2000
   -7.4860   13.6380    3.1080 N   0  0  0  0  0  0  0  0  0  0  0  0
   -6.9640   14.4150    1.9930 C   0  0  2  0  0  0  0  0  0  0  0  0
   -7.9410   14.3530    0.8070 C   0  0  0  0  0  0  0  0  0  0  0  0
   -5.4650   14.0220    1.7190 C   0  0  0  0  0  0  0  0  0  0  0  0
   -4.9260   14.0560    0.2510 C   0  0  1  0  0  0  0  0  0  0  0  0
   -7.3570   13.7490   -0.3700 N   0  0  0  0  0  0  0  0  0  0  0  0
   -6.1260   14.4380   -0.6760 C   0  0  2  0  0  0  0  0  0  0  0  0
   -3.6870   14.9920   -0.0980 C   0  0  2  0  0  0  0  0  0  0  0  0
   -4.1810   16.2560    0.4790 N   0  0  0  0  0  0  0  0  0  0  0  0
   -5.8430   14.3320   -2.1510 C   0  0  0  0  0  0  0  0  0  0  0  0
   -3.5610   15.1010   -1.6180 C   0  0  1  0  0  0  0  0  0  0  0  0
   -2.1620   14.8900    0.3200 C   0  0  2  0  0  0  0  0  0  0  0  0
   -4.8120   15.3630   -2.4060 C   0  0  0  0  0  0  0  0  0  0  0  0
   -2.4080   16.0060   -1.9180 C   0  0  0  0  0  0  0  0  0  0  0  0
   -1.2500   14.3180   -0.8130 C   0  0  1  0  0  0  0  0  0  0  0  0
   -1.6980   14.2170    1.5190 N   0  0  0  0  0  0  0  0  0  0  0  0
   -1.1720   15.2660   -1.9260 N   0  0  0  0  0  0  0  0  0  0  0  0
    0.0300   14.2220   -0.1420 N   0  0  0  0  0  0  0  0  0  0  0  0
   -0.2520   14.1290    1.2880 C   0  0  0  0  0  0  0  0  0  0  0  0
   -1.0390   14.7360   -3.2950 C   0  0  0  0  0  0  0  0  0  0  0  0
   -0.1960   13.4850   -3.5390 C   0  0  2  0  0  0  0  0  0  0  0  0
   -0.8080   12.6810   -4.6470 C   0  0  0  0  0  0  0  0  0  0  0  0
   -0.1540   12.5560   -2.4490 O   0  0  0  0  0  0  0  0  0  0  0  0
   -0.0330   11.2120   -3.0350 N   0  0  0  0  0  0  0  0  0  0  0  0
   -0.0410   11.4110   -4.4820 C   0  0  1  0  0  0  0  0  0  0  0  0
   -0.6870   10.3930   -5.2120 O   0  0  0  0  0  0  0  0  0  0  0  0
   -0.4940   10.5720   -6.6060 C   0  0  0  0  0  0  0  0  0  0  0  0
  2  1  1  1
  2  3  1  0
  2  4  1  0
  5  4  1  1
  3  6  1  0
  5  7  1  0
  6  7  1  0
  5  8  1  0
  8  9  1  1
  7 10  1  6
  8 11  1  0
  8 12  1  0
 10 13  1  0
 11 13  1  1
 11 14  1  0
 12 15  1  0
 12 16  1  1
 14 17  1  0
 15 17  1  0
 15 18  1  1
 16 19  1  0
 18 19  1  0
 17 20  1  0
 21 20  1  1
 21 22  1  0
 21 23  1  0
 23 24  1  0
 22 25  1  0
 24 25  1  0
 25 26  1  6
 26 27  1  0
M  END
