ucsf278-ucsf424
     RDKit          3D

 24 27  0  0  0  0  0  0  0  0999 V2000
   -1.3650   14.1940   -2.1280 Cl  0  0  0  0  0  0  0  0  0  0  0  0
    0.3350   13.7260   -2.5480 C   0  0  1  0  0  0  0  0  0  0  0  0
    0.3830   12.8750   -3.8280 C   0  0  1  0  0  0  0  0  0  0  0  0
    1.1350   15.0180   -2.7070 C   0  0  0  0  0  0  0  0  0  0  0  0
   -0.4510   11.6230   -3.8610 C   0  0  2  0  0  0  0  0  0  0  0  0
   -0.0970   13.6810   -5.0010 C   0  0  2  0  0  0  0  0  0  0  0  0
    1.7200   15.2730   -4.1120 C   0  0  0  0  0  0  0  0  0  0  0  0
   -1.2730   11.6530   -5.1250 C   0  0  2  0  0  0  0  0  0  0  0  0
   -0.6940   12.7130   -5.9950 N   0  0  0  0  0  0  0  0  0  0  0  0
    1.1580   14.4700   -5.3170 C   0  0  0  0  0  0  0  0  0  0  0  0
   -1.2980   11.7260   -2.7910 O   0  0  0  0  0  0  0  0  0  0  0  0
   -2.7470   11.8960   -4.7870 C   0  0  0  0  0  0  0  0  0  0  0  0
   -0.0170   11.9330   -7.0380 C   0  0  1  0  0  0  0  0  0  0  0  0
   -0.5310   11.3960   -1.6810 C   0  0  0  0  0  0  0  0  0  0  0  0
   -3.4700   10.6680   -4.7110 O   0  0  0  0  0  0  0  0  0  0  0  0
    1.3200   11.3830   -6.8400 N   0  0  0  0  0  0  0  0  0  0  0  0
   -0.8810   10.7410   -7.4900 C   0  0  1  0  0  0  0  0  0  0  0  0
    0.7510   11.4490   -1.9480 O   0  0  0  0  0  0  0  0  0  0  0  0
    1.2470   10.0410   -7.4470 O   0  0  0  0  0  0  0  0  0  0  0  0
   -0.0370    9.6030   -7.0310 C   0  0  2  0  0  0  0  0  0  0  0  0
   -2.3140   10.5550   -6.9620 C   0  0  0  0  0  0  0  0  0  0  0  0
   -0.4680    8.2740   -7.6190 C   0  0  0  0  0  0  0  0  0  0  0  0
   -2.4880    9.1460   -6.3580 C   0  0  0  0  0  0  0  0  0  0  0  0
   -1.9280    8.0270   -7.2570 C   0  0  0  0  0  0  0  0  0  0  0  0
  2  1  1  6
  3  2  1  1
  2  4  1  0
  3  5  1  0
  3  6  1  0
  4  7  1  0
  5  8  1  0
  6  9  1  0
  8  9  1  0
  6 10  1  6
  7 10  1  0
  5 11  1  1
  8 12  1  1
 13  9  1  1
 11 14  1  0
 12 15  1  0
 13 16  1  0
 13 17  1  0
 14 18  1  0
 16 19  1  0
 17 20  1  0
 19 20  1  0
 17 21  1  1
 20 22  1  6
 21 23  1  0
 22 24  1  0
 23 24  1  0
M  CHG  1  18  -1
M  END
