ucsf004-ucsf364
     RDKit          3D

 27 30  0  0  0  0  0  0  0  0999 V2000
   -2.8110   13.1010   -4.8880 F   0  0  0  0  0  0  0  0  0  0  0  0
   -1.7990   13.7300   -4.2210 C   0  0  1  0  0  0  0  0  0  0  0  0
   -0.8530   14.3470   -5.1980 C   0  0  0  0  0  0  0  0  0  0  0  0
   -2.3230   14.8370   -3.3000 C   0  0  0  0  0  0  0  0  0  0  0  0
   -1.2410   15.5590   -2.5550 N   0  0  0  0  0  0  0  0  0  0  0  0
    0.2880   14.9660   -4.4110 C   0  0  0  0  0  0  0  0  0  0  0  0
    0.0340   14.9250   -2.8730 C   0  0  2  0  0  0  0  0  0  0  0  0
   -1.4290   15.4740   -1.1140 C   0  0  2  0  0  0  0  0  0  0  0  0
   -0.1830   13.6310   -2.3410 O   0  0  0  0  0  0  0  0  0  0  0  0
   -0.1990   14.9690   -0.5310 N   0  0  0  0  0  0  0  0  0  0  0  0
   -2.6390   14.7060   -0.6310 C   0  0  1  0  0  0  0  0  0  0  0  0
    0.8580   12.6870   -2.3890 C   0  0  1  0  0  0  0  0  0  0  0  0
   -0.2620   14.5560    0.8440 C   0  0  0  0  0  0  0  0  0  0  0  0
   -2.6750   14.6860    0.8700 C   0  0  1  0  0  0  0  0  0  0  0  0
   -3.9590   15.2870   -1.0710 C   0  0  0  0  0  0  0  0  0  0  0  0
    0.6920   11.8280   -1.3940 O   0  0  0  0  0  0  0  0  0  0  0  0
   -1.4500   15.0770    1.4880 N   0  0  0  0  0  0  0  0  0  0  0  0
   -3.6350   15.6780    1.2650 N   0  0  0  0  0  0  0  0  0  0  0  0
   -4.6550   15.6650    0.2040 C   0  0  0  0  0  0  0  0  0  0  0  0
    0.6690   11.9080   -3.7340 C   0  0  2  0  0  0  0  0  0  0  0  0
    1.2260   12.7210   -4.9060 C   0  0  1  0  0  0  0  0  0  0  0  0
   -0.7510   11.4510   -4.0010 C   0  0  0  0  0  0  0  0  0  0  0  0
    2.7280   12.9550   -4.7030 C   0  0  0  0  0  0  0  0  0  0  0  0
   -1.2310   11.0950   -5.4010 C   0  0  0  0  0  0  0  0  0  0  0  0
    0.8520   12.1970   -6.2980 C   0  0  1  0  0  0  0  0  0  0  0  0
    2.0150   11.7990   -6.9540 O   0  0  0  0  0  0  0  0  0  0  0  0
   -0.1470   11.0550   -6.4310 C   0  0  0  0  0  0  0  0  0  0  0  0
  2  1  1  6
  2  3  1  0
  2  4  1  0
  4  5  1  0
  3  6  1  0
  5  7  1  0
  6  7  1  0
  8  5  1  6
  7  9  1  6
  8 10  1  0
  8 11  1  0
  9 12  1  0
 10 13  1  0
 11 14  1  0
 11 15  1  6
 12 16  1  1
 13 17  1  0
 14 17  1  1
 14 18  1  0
 15 19  1  0
 18 19  1  0
 12 20  1  0
 20 21  1  0
 20 22  1  6
 21 23  1  6
 22 24  1  0
 21 25  1  0
 25 26  1  1
 24 27  1  0
 25 27  1  0
M  CHG  1  16  -1
M  END
