ucsf109
     RDKit          3D

 13 15  0  0  0  0  0  0  0  0999 V2000
   -3.8160   14.8480    1.9250 N   0  0  0  0  0  0  0  0  0  0  0  0
   -4.8660   14.7640    0.9290 C   0  0  0  0  0  0  0  0  0  0  0  0
   -4.5280   14.8390   -0.3610 C   0  0  1  0  0  0  0  0  0  0  0  0
   -3.1400   14.9700   -0.9300 C   0  0  0  0  0  0  0  0  0  0  0  0
   -3.3520   14.8190   -2.3990 C   0  0  0  0  0  0  0  0  0  0  0  0
   -4.8080   14.8460   -2.6740 C   0  0  0  0  0  0  0  0  0  0  0  0
   -5.4650   14.7240   -1.3690 C   0  0  2  0  0  0  0  0  0  0  0  0
   -6.7460   14.5910   -1.0830 N   0  0  0  0  0  0  0  0  0  0  0  0
   -7.0760   14.5390    0.2600 C   0  0  0  0  0  0  0  0  0  0  0  0
   -8.2730   14.4030    0.8830 N   0  0  0  0  0  0  0  0  0  0  0  0
   -8.0890   14.3560    2.2120 C   0  0  0  0  0  0  0  0  0  0  0  0
   -6.8040   14.5030    2.4450 N   0  0  0  0  0  0  0  0  0  0  0  0
   -6.1730   14.6080    1.2250 N   0  0  0  0  0  0  0  0  0  0  0  0
  1  2  1  0
  2  3  1  0
  3  4  1  6
  4  5  1  0
  5  6  1  0
  3  7  1  0
  7  6  1  6
  7  8  1  0
  8  9  1  0
  9 10  1  0
 10 11  1  0
 11 12  1  0
  2 13  1  0
  9 13  1  0
 12 13  1  0
M  END
