ucsf371-ucsf523
     RDKit          3D

 15 16  0  0  0  0  0  0  0  0999 V2000
   -4.9640   15.9120   -0.0340 C   0  0  0  0  0  0  0  0  0  0  0  0
   -4.4420   15.0220   -1.1120 C   0  0  1  0  0  0  0  0  0  0  0  0
   -4.6270   15.5690   -2.4480 N   0  0  0  0  0  0  0  0  0  0  0  0
   -2.7510   14.7020   -0.9970 S   0  0  1  0  0  0  0  0  0  0  0  0
   -3.7540   14.7730   -3.3720 C   0  0  0  0  0  0  0  0  0  0  0  0
   -2.3800   14.4890   -2.7200 C   0  0  1  0  0  0  0  0  0  0  0  0
   -1.6510   15.8730   -0.3530 C   0  0  0  0  0  0  0  0  0  0  0  0
   -2.5510   13.4250    0.1070 C   0  0  0  0  0  0  0  0  0  0  0  0
   -1.2340   15.3060   -3.3470 C   0  0  2  0  0  0  0  0  0  0  0  0
   -0.3760   15.2760    0.0240 N   0  0  0  0  0  0  0  0  0  0  0  0
   -1.8690   13.9740    1.2400 N   0  0  0  0  0  0  0  0  0  0  0  0
   -1.0570   14.9630   -4.7030 O   0  0  0  0  0  0  0  0  0  0  0  0
   -0.0690   15.0190   -2.8120 O   0  0  0  0  0  0  0  0  0  0  0  0
   -0.5380   14.1020    0.8130 C   0  0  2  0  0  0  0  0  0  0  0  0
    0.1550   14.2710    2.0270 N   0  0  0  0  0  0  0  0  0  0  0  0
  2  1  1  1
  2  3  1  0
  2  4  1  0
  3  5  1  0
  4  6  1  0
  6  5  1  6
  4  7  1  1
  4  8  1  0
  6  9  1  0
  7 10  1  0
  8 11  1  0
  9 12  1  6
  9 13  1  0
 10 14  1  0
 11 14  1  0
 14 15  1  1
M  CHG  1  13  -1
M  END
