ucsf151-ucsf364
     RDKit          3D

 19 20  0  0  0  0  0  0  0  0999 V2000
    0.0760   13.1800   -1.5340 O   0  0  0  0  0  0  0  0  0  0  0  0
   -0.3070   14.4160   -2.1350 C   0  0  1  0  0  0  0  0  0  0  0  0
    0.8720   15.1580   -2.3990 O   0  0  0  0  0  0  0  0  0  0  0  0
    0.8080   12.3680   -2.4250 C   0  0  0  0  0  0  0  0  0  0  0  0
   -1.0940   14.1740   -3.4400 C   0  0  2  0  0  0  0  0  0  0  0  0
    0.1270   12.2750   -3.7940 C   0  0  1  0  0  0  0  0  0  0  0  0
   -1.7170   15.4530   -3.9820 C   0  0  0  0  0  0  0  0  0  0  0  0
   -2.2280   13.1390   -3.2960 C   0  0  0  0  0  0  0  0  0  0  0  0
    0.9310   12.7710   -5.0190 C   0  0  1  0  0  0  0  0  0  0  0  0
   -0.5480   10.9180   -4.0040 C   0  0  0  0  0  0  0  0  0  0  0  0
    2.4300   12.9540   -4.7360 C   0  0  0  0  0  0  0  0  0  0  0  0
   -2.2990   15.1270   -5.3320 C   0  0  2  0  0  0  0  0  0  0  0  0
   -2.9050   12.8600   -4.5810 N   0  0  0  0  0  0  0  0  0  0  0  0
   -1.2700   10.7840   -5.3260 C   0  0  0  0  0  0  0  0  0  0  0  0
    0.6580   12.1130   -6.3840 C   0  0  1  0  0  0  0  0  0  0  0  0
   -2.7570   16.3340   -5.9540 O   0  0  0  0  0  0  0  0  0  0  0  0
    1.8510   11.7550   -7.0130 O   0  0  0  0  0  0  0  0  0  0  0  0
   -3.4140   14.0910   -5.2000 C   0  0  0  0  0  0  0  0  0  0  0  0
   -0.3080   10.9350   -6.4830 C   0  0  0  0  0  0  0  0  0  0  0  0
  1  2  1  0
  2  3  1  6
  1  4  1  0
  2  5  1  0
  6  4  1  1
  5  7  1  1
  5  8  1  0
  6  9  1  0
  6 10  1  0
  9 11  1  1
  7 12  1  0
  8 13  1  0
 10 14  1  0
  9 15  1  0
 12 16  1  1
 15 17  1  1
 12 18  1  0
 13 18  1  0
 14 19  1  0
 15 19  1  0
M  END
