ucsf173-ucsf123
     RDKit          3D

 16 17  0  0  0  0  0  0  0  0999 V2000
    0.4860   12.7270   -1.5480 O   0  0  0  0  0  0  0  0  0  0  0  0
    0.6290   12.6590   -2.8730 C   0  0  1  0  0  0  0  0  0  0  0  0
   -0.2310   11.6190   -3.2490 O   0  0  0  0  0  0  0  0  0  0  0  0
    0.2350   14.0370   -3.5030 C   0  0  2  0  0  0  0  0  0  0  0  0
   -1.1850   14.3850   -4.0730 C   0  0  0  0  0  0  0  0  0  0  0  0
    1.0720   14.5110   -4.7020 C   0  0  0  0  0  0  0  0  0  0  0  0
   -0.9270   15.8680   -4.5290 C   0  0  1  0  0  0  0  0  0  0  0  0
    0.5780   15.9530   -4.6780 C   0  0  2  0  0  0  0  0  0  0  0  0
   -2.0280   16.8080   -5.6590 S   0  0  0  0  0  0  0  0  0  0  0  0
   -1.0760   16.8700   -3.4890 C   0  0  0  0  0  0  0  0  0  0  0  0
    0.8410   16.9500   -5.7240 C   0  0  0  0  0  0  0  0  0  0  0  0
   -3.4710   16.1950   -6.0810 N   0  0  0  0  0  0  0  0  0  0  0  0
   -1.2760   17.5210   -6.8770 O   0  0  0  0  0  0  0  0  0  0  0  0
   -2.3220   18.1600   -4.9090 O   0  0  0  0  0  0  0  0  0  0  0  0
   -0.5500   18.2250   -4.0400 C   0  0  0  0  0  0  0  0  0  0  0  0
    0.4510   18.2840   -5.2020 C   0  0  0  0  0  0  0  0  0  0  0  0
  2  1  1  1
  2  3  1  0
  2  4  1  0
  4  5  1  6
  4  6  1  0
  7  5  1  0
  8  6  1  6
  7  8  1  0
  7  9  1  6
  7 10  1  0
  8 11  1  0
  9 12  1  0
  9 13  1  0
  9 14  1  0
 10 15  1  0
 11 16  1  0
 15 16  1  0
M  CHG  1   1  -1
M  END
