ucsf340-ucsf190
     RDKit          3D

 19 21  0  0  0  0  0  0  0  0999 V2000
    0.1850   18.4640   -5.8770 C   0  0  0  0  0  0  0  0  0  0  0  0
   -0.0160   17.4460   -4.9620 N   0  0  0  0  0  0  0  0  0  0  0  0
    0.9390   16.6480   -4.5820 C   0  0  0  0  0  0  0  0  0  0  0  0
   -1.1580   16.5540   -5.2900 C   0  0  1  0  0  0  0  0  0  0  0  0
    0.2940   15.6660   -3.6630 C   0  0  1  0  0  0  0  0  0  0  0  0
   -1.2680   15.0440   -4.4060 S   0  0  0  0  0  0  0  0  0  0  0  0
   -2.1300   17.3830   -5.9140 C   0  0  0  0  0  0  0  0  0  0  0  0
    1.3110   14.7580   -3.2700 C   0  0  0  0  0  0  0  0  0  0  0  0
   -2.8570   16.0060   -4.4100 C   0  0  0  0  0  0  0  0  0  0  0  0
   -3.3520   16.5990   -6.5900 C   0  0  0  0  0  0  0  0  0  0  0  0
   -0.5580   13.7330   -5.4890 C   0  0  0  0  0  0  0  0  0  0  0  0
   -2.2720   13.4920   -4.2980 C   0  0  0  0  0  0  0  0  0  0  0  0
    0.7490   13.3510   -3.4970 C   0  0  0  0  0  0  0  0  0  0  0  0
   -3.6030   15.5460   -5.5080 C   0  0  0  0  0  0  0  0  0  0  0  0
   -1.5790   13.1310   -6.2730 C   0  0  0  0  0  0  0  0  0  0  0  0
   -1.9560   12.4130   -5.1280 C   0  0  0  0  0  0  0  0  0  0  0  0
    1.0640   12.3430   -2.3710 C   0  0  1  0  0  0  0  0  0  0  0  0
    0.5830   12.8320   -1.1560 O   0  0  0  0  0  0  0  0  0  0  0  0
    0.5880   11.0790   -2.6190 O   0  0  0  0  0  0  0  0  0  0  0  0
  1  2  1  0
  2  3  1  0
  2  4  1  0
  3  5  1  0
  4  6  1  0
  5  6  1  0
  4  7  1  1
  5  8  1  6
  6  9  1  0
  7 10  1  0
  6 11  1  0
  6 12  1  0
  8 13  1  0
  9 14  1  0
 10 14  1  0
 11 15  1  0
 12 16  1  0
 15 16  1  0
 13 17  1  0
 17 18  1  1
 17 19  1  0
M  CHG  1  19  -1
M  END
