ucsf424-ucsf339
     RDKit          3D

 27 30  0  0  0  0  0  0  0  0999 V2000
    0.8260   12.8910   -2.2630 O   0  0  0  0  0  0  0  0  0  0  0  0
    0.3830   11.8740   -3.1400 C   0  0  1  0  0  0  0  0  0  0  0  0
   -0.8720   11.4130   -2.6800 O   0  0  0  0  0  0  0  0  0  0  0  0
    0.8340   14.1530   -2.9380 C   0  0  2  0  0  0  0  0  0  0  0  0
    0.2190   12.4820   -4.5450 C   0  0  0  0  0  0  0  0  0  0  0  0
    1.7680   14.9090   -2.3990 O   0  0  0  0  0  0  0  0  0  0  0  0
   -0.5880   14.8120   -2.7650 C   0  0  2  0  0  0  0  0  0  0  0  0
    0.1880   11.4440   -5.6410 C   0  0  2  0  0  0  0  0  0  0  0  0
   -1.4180   14.3450   -1.5340 C   0  0  0  0  0  0  0  0  0  0  0  0
   -1.4830   14.6780   -4.0140 C   0  0  0  0  0  0  0  0  0  0  0  0
    1.0720   11.6610   -6.7800 N   0  0  0  0  0  0  0  0  0  0  0  0
   -1.1260   11.1000   -6.2930 C   0  0  1  0  0  0  0  0  0  0  0  0
   -2.9450   14.1890   -1.8170 C   0  0  2  0  0  0  0  0  0  0  0  0
   -2.6900   15.5150   -3.9840 N   0  0  0  0  0  0  0  0  0  0  0  0
    0.7540   10.5360   -7.6470 O   0  0  0  0  0  0  0  0  0  0  0  0
   -0.6650   10.3230   -7.5300 C   0  0  1  0  0  0  0  0  0  0  0  0
   -2.0350   10.3080   -5.3610 C   0  0  0  0  0  0  0  0  0  0  0  0
   -3.4780   15.2750   -2.7780 C   0  0  0  0  0  0  0  0  0  0  0  0
   -3.7880   14.1510   -0.4970 C   0  0  0  0  0  0  0  0  0  0  0  0
   -0.9240    8.8240   -7.4550 C   0  0  0  0  0  0  0  0  0  0  0  0
   -2.9990    9.3450   -6.0550 C   0  0  0  0  0  0  0  0  0  0  0  0
   -3.6790   15.4130    0.3770 C   0  0  0  0  0  0  0  0  0  0  0  0
   -5.2750   13.8080   -0.7760 C   0  0  0  0  0  0  0  0  0  0  0  0
   -2.3890    8.5180   -7.1860 C   0  0  0  0  0  0  0  0  0  0  0  0
   -4.2980   15.1790    1.7370 C   0  0  0  0  0  0  0  0  0  0  0  0
   -6.2330   14.3650    0.2660 C   0  0  0  0  0  0  0  0  0  0  0  0
   -5.6160   14.4070    1.6570 C   0  0  0  0  0  0  0  0  0  0  0  0
  1  2  1  0
  2  3  1  1
  1  4  1  0
  2  5  1  0
  4  6  1  1
  4  7  1  0
  8  5  1  6
  7  9  1  1
  7 10  1  0
  8 11  1  0
  8 12  1  0
  9 13  1  0
 10 14  1  0
 11 15  1  0
 12 16  1  0
 15 16  1  0
 12 17  1  1
 13 18  1  0
 14 18  1  0
 13 19  1  1
 16 20  1  1
 17 21  1  0
 19 22  1  0
 19 23  1  0
 20 24  1  0
 21 24  1  0
 22 25  1  0
 23 26  1  0
 25 27  1  0
 26 27  1  0
M  CHG  1   6  -1
M  END
