ucsf422-ucsf385
     RDKit          3D

 25 27  0  0  0  0  0  0  0  0999 V2000
    0.3320   11.1450   -2.4960 O   0  0  0  0  0  0  0  0  0  0  0  0
    1.1270   12.0430   -3.0720 C   0  0  2  0  0  0  0  0  0  0  0  0
    1.7780   12.8170   -2.0600 O   0  0  0  0  0  0  0  0  0  0  0  0
    0.3290   12.9590   -4.0230 C   0  0  0  0  0  0  0  0  0  0  0  0
    0.9340   13.7470   -1.3860 C   0  0  0  0  0  0  0  0  0  0  0  0
    0.6700   14.4540   -3.8820 C   0  0  1  0  0  0  0  0  0  0  0  0
   -0.3560   13.7090   -1.9850 O   0  0  0  0  0  0  0  0  0  0  0  0
    1.6550   14.8410   -4.9260 C   0  0  0  0  0  0  0  0  0  0  0  0
   -0.4430   15.4450   -4.1660 C   0  0  1  0  0  0  0  0  0  0  0  0
   -1.0110   14.9640   -2.1010 C   0  0  1  0  0  0  0  0  0  0  0  0
    1.4840   16.2700   -5.2490 N   0  0  0  0  0  0  0  0  0  0  0  0
    0.2280   16.7150   -4.6730 C   0  0  1  0  0  0  0  0  0  0  0  0
   -1.6310   14.9290   -4.9300 C   0  0  0  0  0  0  0  0  0  0  0  0
   -2.1890   14.7950   -2.6800 O   0  0  0  0  0  0  0  0  0  0  0  0
   -0.5640   17.5540   -5.6670 C   0  0  0  0  0  0  0  0  0  0  0  0
   -2.6500   16.0130   -5.1190 C   0  0  2  0  0  0  0  0  0  0  0  0
   -1.2370   15.5710   -0.6830 C   0  0  1  0  0  0  0  0  0  0  0  0
   -4.1170   15.2670   -6.2010 Br  0  0  0  0  0  0  0  0  0  0  0  0
   -2.0890   17.3370   -5.6860 C   0  0  0  0  0  0  0  0  0  0  0  0
   -2.7060   15.4070   -0.1710 C   0  0  1  0  0  0  0  0  0  0  0  0
   -0.1940   15.2450    0.4180 C   0  0  0  0  0  0  0  0  0  0  0  0
   -3.7090   15.2770   -1.2480 N   0  0  0  0  0  0  0  0  0  0  0  0
   -0.5610   14.1000    1.3270 C   0  0  0  0  0  0  0  0  0  0  0  0
   -2.8950   14.2850    0.8550 C   0  0  0  0  0  0  0  0  0  0  0  0
   -1.8910   14.2890    1.8970 N   0  0  0  0  0  0  0  0  0  0  0  0
  2  1  1  1
  2  3  1  0
  2  4  1  0
  3  5  1  0
  6  4  1  6
  5  7  1  0
  6  8  1  0
  6  9  1  0
  7 10  1  0
  8 11  1  0
  9 12  1  0
 11 12  1  0
  9 13  1  6
 10 14  1  1
 12 15  1  6
 13 16  1  0
 10 17  1  0
 16 18  1  6
 15 19  1  0
 16 19  1  0
 17 20  1  0
 17 21  1  1
 20 22  1  6
 21 23  1  0
 20 24  1  0
 23 25  1  0
 24 25  1  0
M  CHG  2   1  -1  14  -1
M  END
