ucsf110-ucsf523
     RDKit          3D

 18 20  0  0  0  0  0  0  0  0999 V2000
    0.4390   15.2380   -3.2930 C   0  0  0  0  0  0  0  0  0  0  0  0
   -0.6830   14.6770   -2.6280 N   0  0  0  0  0  0  0  0  0  0  0  0
   -1.8890   14.9560   -3.3530 C   0  0  0  0  0  0  0  0  0  0  0  0
   -0.8310   14.9790   -1.2550 C   0  0  1  0  0  0  0  0  0  0  0  0
   -2.9190   15.2610   -2.3430 C   0  0  0  0  0  0  0  0  0  0  0  0
   -2.3290   14.8440   -1.1310 C   0  0  2  0  0  0  0  0  0  0  0  0
    0.0550   14.0600   -0.5340 N   0  0  0  0  0  0  0  0  0  0  0  0
   -3.2230   14.8470    0.4940 S   0  0  0  0  0  0  0  0  0  0  0  0
   -0.6020   14.4950    0.6940 C   0  0  2  0  0  0  0  0  0  0  0  0
   -2.8990   15.0810    2.3940 N   0  0  0  0  0  0  0  0  0  0  0  0
    0.0690   13.8400    1.7760 N   0  0  0  0  0  0  0  0  0  0  0  0
   -1.7790   14.0330    0.4520 N   0  0  0  0  0  0  0  0  0  0  0  0
   -4.9150   15.3300    0.1810 N   0  0  0  0  0  0  0  0  0  0  0  0
   -4.4400   13.5510    0.4830 C   0  0  0  0  0  0  0  0  0  0  0  0
   -5.8420   14.4620    0.4080 C   0  0  1  0  0  0  0  0  0  0  0  0
   -4.8950   13.3000   -0.8090 N   0  0  0  0  0  0  0  0  0  0  0  0
   -7.0450   15.0540    0.8500 O   0  0  0  0  0  0  0  0  0  0  0  0
   -6.2120   13.7530   -0.8640 C   0  0  0  0  0  0  0  0  0  0  0  0
  1  2  1  0
  2  3  1  0
  2  4  1  0
  3  5  1  0
  4  6  1  0
  6  5  1  6
  4  7  1  1
  6  8  1  0
  7  9  1  0
  8 10  1  0
  9 11  1  1
  8 12  1  0
  9 12  1  0
  8 13  1  0
  8 14  1  0
 13 15  1  0
 14 16  1  0
 15 17  1  6
 15 18  1  0
 16 18  1  0
M  END
