ucsf520-ucsf371
     RDKit          3D

 18 20  0  0  0  0  0  0  0  0999 V2000
   -4.2910   15.6060    1.1500 N   0  0  0  0  0  0  0  0  0  0  0  0
   -3.7110   14.7560    0.1090 C   0  0  2  0  0  0  0  0  0  0  0  0
   -2.2550   14.3030    0.3920 C   0  0  1  0  0  0  0  0  0  0  0  0
   -3.9510   15.4480   -1.1320 N   0  0  0  0  0  0  0  0  0  0  0  0
   -3.2360   14.8700   -2.2830 C   0  0  0  0  0  0  0  0  0  0  0  0
   -1.4120   14.1660   -0.8850 C   0  0  1  0  0  0  0  0  0  0  0  0
   -1.4630   15.1960    1.2770 N   0  0  0  0  0  0  0  0  0  0  0  0
   -1.7950   14.9010   -2.0780 N   0  0  0  0  0  0  0  0  0  0  0  0
   -0.0840   14.6480   -0.4590 N   0  0  0  0  0  0  0  0  0  0  0  0
   -0.1210   14.7180    0.9740 C   0  0  0  0  0  0  0  0  0  0  0  0
   -0.9610   14.5570   -3.2550 C   0  0  2  0  0  0  0  0  0  0  0  0
   -1.3940   13.3730   -3.8680 O   0  0  0  0  0  0  0  0  0  0  0  0
    0.2460   14.2180   -2.8620 O   0  0  0  0  0  0  0  0  0  0  0  0
   -0.8370   15.5800   -4.4690 C   0  0  1  0  0  0  0  0  0  0  0  0
   -1.5250   16.8560   -4.3390 O   0  0  0  0  0  0  0  0  0  0  0  0
    0.6090   15.8930   -4.8640 C   0  0  0  0  0  0  0  0  0  0  0  0
    0.5310   17.2710   -5.4610 C   0  0  0  0  0  0  0  0  0  0  0  0
   -0.6360   17.9010   -4.7480 C   0  0  0  0  0  0  0  0  0  0  0  0
  2  1  1  1
  2  3  1  0
  2  4  1  0
  4  5  1  0
  3  6  1  0
  3  7  1  1
  5  8  1  0
  6  8  1  0
  6  9  1  1
  7 10  1  0
  9 10  1  0
  8 11  1  0
 11 12  1  6
 11 13  1  0
 11 14  1  0
 14 15  1  0
 14 16  1  1
 16 17  1  0
 15 18  1  0
 17 18  1  0
M  CHG  1  13  -1
M  END
