ucsf124-ucsf110
     RDKit          3D

 27 30  0  0  0  0  0  0  0  0999 V2000
    0.7510   11.2160   -2.5590 O   0  0  0  0  0  0  0  0  0  0  0  0
    1.3350   12.2430   -3.1620 C   0  0  2  0  0  0  0  0  0  0  0  0
    1.2520   13.3720   -2.2890 O   0  0  0  0  0  0  0  0  0  0  0  0
    0.6410   12.6210   -4.5330 C   0  0  0  0  0  0  0  0  0  0  0  0
    1.3890   14.5980   -3.0170 C   0  0  0  0  0  0  0  0  0  0  0  0
    0.1180   11.5880   -5.4070 N   0  0  0  0  0  0  0  0  0  0  0  0
    0.0260   15.2980   -3.2570 C   0  0  0  0  0  0  0  0  0  0  0  0
   -1.2510   11.1750   -5.3530 C   0  0  2  0  0  0  0  0  0  0  0  0
    0.4400   11.6650   -6.8050 C   0  0  1  0  0  0  0  0  0  0  0  0
   -1.7920   10.8720   -4.0880 O   0  0  0  0  0  0  0  0  0  0  0  0
    1.8000   11.5250   -7.0560 O   0  0  0  0  0  0  0  0  0  0  0  0
   -1.1340    9.9430   -6.2220 C   0  0  2  0  0  0  0  0  0  0  0  0
   -0.3800   10.5120   -7.4100 C   0  0  2  0  0  0  0  0  0  0  0  0
   -1.1210   14.9000   -2.4120 N   0  0  0  0  0  0  0  0  0  0  0  0
   -2.3810    9.2350   -6.7130 C   0  0  0  0  0  0  0  0  0  0  0  0
    0.2610    9.3580   -8.1550 C   0  0  0  0  0  0  0  0  0  0  0  0
   -2.4160   15.4350   -2.8730 C   0  0  0  0  0  0  0  0  0  0  0  0
   -1.0590   15.2270   -0.9980 C   0  0  1  0  0  0  0  0  0  0  0  0
   -1.9560    8.0990   -7.6650 C   0  0  0  0  0  0  0  0  0  0  0  0
   -0.8810    8.4800   -8.7050 C   0  0  0  0  0  0  0  0  0  0  0  0
   -3.3640   15.2330   -1.6980 C   0  0  0  0  0  0  0  0  0  0  0  0
   -2.4690   15.5380   -0.5090 C   0  0  1  0  0  0  0  0  0  0  0  0
   -0.4140   14.2090   -0.2140 N   0  0  0  0  0  0  0  0  0  0  0  0
   -2.7260   14.7460    0.7500 C   0  0  2  0  0  0  0  0  0  0  0  0
   -0.3070   14.6410    1.1400 C   0  0  0  0  0  0  0  0  0  0  0  0
   -3.8980   15.2390    1.4510 N   0  0  0  0  0  0  0  0  0  0  0  0
   -1.6450   14.8450    1.6950 N   0  0  0  0  0  0  0  0  0  0  0  0
  2  1  1  1
  2  3  1  0
  2  4  1  0
  3  5  1  0
  4  6  1  0
  5  7  1  0
  6  8  1  0
  6  9  1  0
  8 10  1  1
  9 11  1  1
  8 12  1  0
  9 13  1  0
 12 13  1  0
  7 14  1  0
 12 15  1  6
 13 16  1  1
 14 17  1  0
 14 18  1  0
 15 19  1  0
 16 20  1  0
 19 20  1  0
 17 21  1  0
 18 22  1  0
 22 21  1  6
 18 23  1  1
 22 24  1  0
 23 25  1  0
 24 26  1  1
 24 27  1  0
 25 27  1  0
M  CHG  1   1  -1
M  END
