ucsf340-ucsf337
     RDKit          3D

 25 27  0  0  0  0  0  0  0  0999 V2000
    0.5850   18.5620   -6.0750 C   0  0  0  0  0  0  0  0  0  0  0  0
    0.1120   17.2210   -5.7930 N   0  0  0  0  0  0  0  0  0  0  0  0
    1.0320   16.4690   -4.9430 C   0  0  0  0  0  0  0  0  0  0  0  0
   -1.1810   17.1280   -5.1220 C   0  0  2  0  0  0  0  0  0  0  0  0
    0.2510   15.2050   -4.6570 C   0  0  2  0  0  0  0  0  0  0  0  0
   -1.1500   15.7360   -4.4210 C   0  0  2  0  0  0  0  0  0  0  0  0
   -2.3080   17.4270   -6.1150 C   0  0  0  0  0  0  0  0  0  0  0  0
    0.7570   14.3840   -3.4640 C   0  0  0  0  0  0  0  0  0  0  0  0
   -2.1950   14.7240   -4.8100 C   0  0  0  0  0  0  0  0  0  0  0  0
   -3.3890   16.3280   -6.2120 C   0  0  0  0  0  0  0  0  0  0  0  0
    0.3390   12.8950   -3.5580 C   0  0  0  0  0  0  0  0  0  0  0  0
   -3.5010   15.4450   -4.9820 C   0  0  1  0  0  0  0  0  0  0  0  0
    0.9420   11.9620   -2.4810 C   0  0  1  0  0  0  0  0  0  0  0  0
   -4.7080   14.4690   -4.9190 C   0  0  0  0  0  0  0  0  0  0  0  0
    0.6480   12.5170   -1.2260 O   0  0  0  0  0  0  0  0  0  0  0  0
    0.3750   10.7570   -2.4210 O   0  0  0  0  0  0  0  0  0  0  0  0
   -5.6500   14.7740   -3.8310 N   0  0  0  0  0  0  0  0  0  0  0  0
   -5.2530   14.3920   -2.4970 C   0  0  1  0  0  0  0  0  0  0  0  0
   -4.2080   15.3400   -1.9200 C   0  0  0  0  0  0  0  0  0  0  0  0
   -6.4010   14.3450   -1.6220 N   0  0  0  0  0  0  0  0  0  0  0  0
   -6.1920   14.9670   -0.3080 C   0  0  1  0  0  0  0  0  0  0  0  0
   -3.6750   14.7900   -0.6270 C   0  0  0  0  0  0  0  0  0  0  0  0
   -7.3910   14.5900    0.5810 C   0  0  0  0  0  0  0  0  0  0  0  0
   -4.8370   14.5590    0.3120 C   0  0  1  0  0  0  0  0  0  0  0  0
   -4.3320   15.6740    1.8070 Br  0  0  0  0  0  0  0  0  0  0  0  0
  1  2  1  0
  2  3  1  0
  2  4  1  0
  3  5  1  0
  4  6  1  0
  5  6  1  0
  4  7  1  6
  5  8  1  1
  6  9  1  6
  7 10  1  0
  8 11  1  0
  9 12  1  0
 10 12  1  0
 11 13  1  0
 12 14  1  6
 13 15  1  1
 13 16  1  0
 14 17  1  0
 18 17  1  6
 18 19  1  0
 18 20  1  0
 20 21  1  0
 19 22  1  0
 21 23  1  1
 21 24  1  0
 22 24  1  0
 24 25  1  1
M  CHG  1  16  -1
M  END
