ucsf392-ucsf173
     RDKit          3D

 23 25  0  0  0  0  0  0  0  0999 V2000
   -5.2750   15.6280   -0.7170 C   0  0  0  0  0  0  0  0  0  0  0  0
   -3.9650   14.8530   -0.5450 C   0  0  1  0  0  0  0  0  0  0  0  0
   -2.9030   15.3750   -1.4980 C   0  0  0  0  0  0  0  0  0  0  0  0
   -3.4090   14.7950    0.8900 C   0  0  2  0  0  0  0  0  0  0  0  0
   -4.1820   15.5570    1.8310 N   0  0  0  0  0  0  0  0  0  0  0  0
   -2.0340   15.1960    1.1420 N   0  0  0  0  0  0  0  0  0  0  0  0
   -1.6070   14.8320   -1.2030 N   0  0  0  0  0  0  0  0  0  0  0  0
   -1.1100   15.3440    0.0270 C   0  0  2  0  0  0  0  0  0  0  0  0
    0.2500   14.7140    0.3010 C   0  0  0  0  0  0  0  0  0  0  0  0
    1.2650   14.8210   -0.8590 C   0  0  0  0  0  0  0  0  0  0  0  0
    1.6320   13.6370   -1.7320 C   0  0  0  0  0  0  0  0  0  0  0  0
    0.6450   12.6400   -1.5990 O   0  0  0  0  0  0  0  0  0  0  0  0
   -0.2670   12.6080   -2.6880 C   0  0  2  0  0  0  0  0  0  0  0  0
   -0.2720   11.2740   -3.1590 O   0  0  0  0  0  0  0  0  0  0  0  0
   -0.0110   13.5720   -3.8950 C   0  0  0  0  0  0  0  0  0  0  0  0
   -1.3430   14.0230   -4.5620 C   0  0  0  0  0  0  0  0  0  0  0  0
    0.7720   14.9100   -3.6990 C   0  0  0  0  0  0  0  0  0  0  0  0
   -1.3280   15.5520   -4.4320 C   0  0  1  0  0  0  0  0  0  0  0  0
    0.1200   15.8340   -4.7300 C   0  0  1  0  0  0  0  0  0  0  0  0
   -2.3190   16.3610   -5.2690 C   0  0  0  0  0  0  0  0  0  0  0  0
    0.3920   17.3270   -4.6190 C   0  0  0  0  0  0  0  0  0  0  0  0
   -1.8830   17.7900   -5.6640 C   0  0  0  0  0  0  0  0  0  0  0  0
   -0.3710   18.0400   -5.7230 C   0  0  0  0  0  0  0  0  0  0  0  0
  2  1  1  1
  2  3  1  0
  2  4  1  0
  4  5  1  1
  4  6  1  0
  3  7  1  0
  6  8  1  0
  7  8  1  0
  8  9  1  1
  9 10  1  0
 10 11  1  0
 11 12  1  0
 12 13  1  0
 13 14  1  6
 13 15  1  0
 15 16  1  0
 15 17  1  0
 18 16  1  6
 19 17  1  1
 18 19  1  0
 18 20  1  0
 19 21  1  0
 20 22  1  0
 21 23  1  0
 22 23  1  0
M  END
