ucsf172-ucsf241
     RDKit          3D

 19 20  0  0  0  0  0  0  0  0999 V2000
   -8.3050   14.8900    2.3380 C   0  0  0  0  0  0  0  0  0  0  0  0
   -7.0810   14.3890    1.1930 S   0  0  0  0  0  0  0  0  0  0  0  0
   -6.9740   12.8180    1.4120 O   0  0  0  0  0  0  0  0  0  0  0  0
   -7.7650   14.5840   -0.2340 O   0  0  0  0  0  0  0  0  0  0  0  0
   -5.5750   15.0110    1.2310 N   0  0  0  0  0  0  0  0  0  0  0  0
   -4.6000   15.1480    0.1380 C   0  0  1  0  0  0  0  0  0  0  0  0
   -3.5590   14.0490    0.0500 C   0  0  0  0  0  0  0  0  0  0  0  0
   -5.1870   15.3770   -1.2550 C   0  0  0  0  0  0  0  0  0  0  0  0
   -2.3100   14.6820   -0.6380 C   0  0  2  0  0  0  0  0  0  0  0  0
   -4.1720   15.0440   -2.3730 C   0  0  0  0  0  0  0  0  0  0  0  0
   -2.7150   15.4040   -1.9870 C   0  0  2  0  0  0  0  0  0  0  0  0
   -1.1790   13.6450   -0.7990 C   0  0  0  0  0  0  0  0  0  0  0  0
   -1.8470   15.7120    0.4010 C   0  0  0  0  0  0  0  0  0  0  0  0
   -1.7220   15.2610   -3.2000 C   0  0  1  0  0  0  0  0  0  0  0  0
    0.1270   14.1940   -0.2620 C   0  0  0  0  0  0  0  0  0  0  0  0
   -1.3660   14.9880    1.5710 N   0  0  0  0  0  0  0  0  0  0  0  0
   -0.7900   14.2160   -2.9710 O   0  0  0  0  0  0  0  0  0  0  0  0
   -2.3300   14.7920   -4.2620 O   0  0  0  0  0  0  0  0  0  0  0  0
   -0.0400   14.5140    1.2170 C   0  0  0  0  0  0  0  0  0  0  0  0
  1  2  1  0
  2  3  1  0
  2  4  1  0
  2  5  1  0
  6  5  1  1
  6  7  1  0
  6  8  1  0
  9  7  1  1
  8 10  1  0
  9 11  1  0
 11 10  1  6
  9 12  1  0
  9 13  1  0
 11 14  1  0
 12 15  1  0
 13 16  1  0
 14 17  1  1
 14 18  1  0
 15 19  1  0
 16 19  1  0
M  CHG  1  18  -1
M  END
