ucsf357-ucsf403
     RDKit          3D

 25 26  0  0  0  0  0  0  0  0999 V2000
   -5.8170   15.4900   -2.1660 O   0  0  0  0  0  0  0  0  0  0  0  0
   -5.7230   14.5880   -1.2250 C   0  0  2  0  0  0  0  0  0  0  0  0
   -6.0940   15.3100   -0.0800 O   0  0  0  0  0  0  0  0  0  0  0  0
   -4.2540   14.1320   -1.0830 C   0  0  1  0  0  0  0  0  0  0  0  0
   -3.6280   14.0060   -2.4960 C   0  0  0  0  0  0  0  0  0  0  0  0
   -3.4140   15.0360   -0.1580 C   0  0  0  0  0  0  0  0  0  0  0  0
   -2.3540   14.8130   -2.6540 C   0  0  2  0  0  0  0  0  0  0  0  0
   -1.9340   14.6280   -0.1490 C   0  0  0  0  0  0  0  0  0  0  0  0
   -1.7200   14.7210   -3.9570 O   0  0  0  0  0  0  0  0  0  0  0  0
   -1.3440   14.4290   -1.5510 C   0  0  2  0  0  0  0  0  0  0  0  0
   -0.1290   15.1870   -1.6750 O   0  0  0  0  0  0  0  0  0  0  0  0
   -2.1280   13.5860   -4.7370 C   0  0  0  0  0  0  0  0  0  0  0  0
   -1.6820   12.3010   -4.0480 C   0  0  0  0  0  0  0  0  0  0  0  0
   -1.7650   10.9630   -4.8270 C   0  0  2  0  0  0  0  0  0  0  0  0
   -0.4550   10.4350   -5.4790 C   0  0  2  0  0  0  0  0  0  0  0  0
   -2.9330   10.7950   -5.7800 C   0  0  0  0  0  0  0  0  0  0  0  0
    0.4190   11.4740   -5.9390 O   0  0  0  0  0  0  0  0  0  0  0  0
   -3.1060    9.3250   -6.0980 C   0  0  0  0  0  0  0  0  0  0  0  0
   -0.5530    9.2940   -6.5530 C   0  0  2  0  0  0  0  0  0  0  0  0
    0.3590    9.6230   -8.0790 Cl  0  0  0  0  0  0  0  0  0  0  0  0
    0.9770   12.4180   -4.9840 C   0  0  0  0  0  0  0  0  0  0  0  0
   -1.9560    8.8410   -6.9730 C   0  0  0  0  0  0  0  0  0  0  0  0
    1.4720   11.9390   -3.5650 C   0  0  1  0  0  0  0  0  0  0  0  0
    1.1640   12.7680   -2.5980 O   0  0  0  0  0  0  0  0  0  0  0  0
    0.7290   10.8030   -3.1440 O   0  0  0  0  0  0  0  0  0  0  0  0
  2  1  1  6
  2  3  1  0
  2  4  1  0
  4  5  1  6
  4  6  1  0
  5  7  1  0
  6  8  1  0
  7  9  1  6
  7 10  1  0
  8 10  1  0
 10 11  1  1
  9 12  1  0
 12 13  1  0
 14 13  1  6
 14 15  1  0
 14 16  1  0
 15 17  1  6
 16 18  1  0
 15 19  1  0
 19 20  1  6
 17 21  1  0
 18 22  1  0
 19 22  1  0
 21 23  1  0
 23 24  1  1
 23 25  1  0
M  CHG  2   1  -1  24  -1
M  END
