ucsf392-ucsf260
     RDKit          3D

 25 27  0  0  0  0  0  0  0  0999 V2000
   -5.1850   15.6690   -0.6600 C   0  0  0  0  0  0  0  0  0  0  0  0
   -4.0970   14.6180   -0.4700 C   0  0  1  0  0  0  0  0  0  0  0  0
   -2.9310   14.8960   -1.4260 C   0  0  0  0  0  0  0  0  0  0  0  0
   -3.6420   14.4250    0.9850 C   0  0  2  0  0  0  0  0  0  0  0  0
   -4.0220   15.4910    1.8780 N   0  0  0  0  0  0  0  0  0  0  0  0
   -2.2620   14.1100    1.1990 N   0  0  0  0  0  0  0  0  0  0  0  0
   -1.5610   14.8620   -0.9090 N   0  0  0  0  0  0  0  0  0  0  0  0
   -1.3650   14.9820    0.5390 C   0  0  2  0  0  0  0  0  0  0  0  0
    0.0910   14.6180    0.7140 C   0  0  0  0  0  0  0  0  0  0  0  0
    0.7880   14.5790   -0.6600 C   0  0  0  0  0  0  0  0  0  0  0  0
    0.4960   13.3580   -1.5000 C   0  0  0  0  0  0  0  0  0  0  0  0
    1.7220   12.8410   -1.9930 O   0  0  0  0  0  0  0  0  0  0  0  0
    1.5610   12.2520   -3.2670 C   0  0  1  0  0  0  0  0  0  0  0  0
    0.7720   11.2040   -3.0610 O   0  0  0  0  0  0  0  0  0  0  0  0
    0.8090   13.3060   -4.1180 C   0  0  0  0  0  0  0  0  0  0  0  0
    0.6190   12.9960   -5.6070 C   0  0  0  0  0  0  0  0  0  0  0  0
   -0.5830   12.2570   -6.0340 N   0  0  0  0  0  0  0  0  0  0  0  0
   -1.5550   11.9520   -4.9780 C   0  0  0  0  0  0  0  0  0  0  0  0
   -0.2440   10.9270   -6.4640 C   0  0  1  0  0  0  0  0  0  0  0  0
   -2.1960   10.6620   -5.3370 N   0  0  0  0  0  0  0  0  0  0  0  0
   -1.6000   10.3340   -6.6390 C   0  0  2  0  0  0  0  0  0  0  0  0
    0.5940   10.8990   -7.7360 C   0  0  0  0  0  0  0  0  0  0  0  0
   -1.4590    8.8720   -7.0150 C   0  0  0  0  0  0  0  0  0  0  0  0
    0.7260    9.4710   -8.2650 C   0  0  0  0  0  0  0  0  0  0  0  0
   -0.5980    8.6880   -8.2750 C   0  0  0  0  0  0  0  0  0  0  0  0
  2  1  1  1
  2  3  1  0
  2  4  1  0
  4  5  1  1
  4  6  1  0
  3  7  1  0
  6  8  1  0
  7  8  1  0
  8  9  1  6
  9 10  1  0
 10 11  1  0
 11 12  1  0
 12 13  1  0
 13 14  1  1
 13 15  1  0
 15 16  1  0
 16 17  1  0
 17 18  1  0
 17 19  1  0
 18 20  1  0
 19 21  1  0
 20 21  1  0
 19 22  1  6
 21 23  1  1
 22 24  1  0
 23 25  1  0
 24 25  1  0
M  CHG  1  14  -1
M  END
