ucsf422-ucsf039
     RDKit          3D

 26 29  0  0  0  0  0  0  0  0999 V2000
    0.3300   10.8170   -3.0820 O   0  0  0  0  0  0  0  0  0  0  0  0
    0.3170   12.0910   -2.7900 C   0  0  1  0  0  0  0  0  0  0  0  0
    1.5190   12.2940   -2.1000 O   0  0  0  0  0  0  0  0  0  0  0  0
    0.3210   13.0340   -3.9990 C   0  0  0  0  0  0  0  0  0  0  0  0
    0.7230   14.5090   -3.6810 C   0  0  1  0  0  0  0  0  0  0  0  0
    1.8580   14.8610   -4.6310 C   0  0  0  0  0  0  0  0  0  0  0  0
   -0.1650   15.7500   -3.9190 C   0  0  1  0  0  0  0  0  0  0  0  0
    1.6830   16.2700   -5.0740 N   0  0  0  0  0  0  0  0  0  0  0  0
    0.2660   16.3160   -5.2460 C   0  0  2  0  0  0  0  0  0  0  0  0
   -1.6480   15.9560   -3.8270 C   0  0  2  0  0  0  0  0  0  0  0  0
   -2.3160   15.5980   -2.5270 C   0  0  0  0  0  0  0  0  0  0  0  0
   -0.5150   17.6170   -5.5430 C   0  0  1  0  0  0  0  0  0  0  0  0
   -2.2110   15.7800   -5.2190 C   0  0  1  0  0  0  0  0  0  0  0  0
   -4.0570   15.1260   -5.4820 Br  0  0  0  0  0  0  0  0  0  0  0  0
   -0.0060   18.4680   -6.7030 C   0  0  0  0  0  0  0  0  0  0  0  0
   -1.9860   17.1900   -5.8010 C   0  0  0  0  0  0  0  0  0  0  0  0
   -2.1000   14.2190   -2.0900 N   0  0  0  0  0  0  0  0  0  0  0  0
   -3.4710   13.7510   -1.9110 C   0  0  0  0  0  0  0  0  0  0  0  0
   -1.5080   14.2080   -0.7550 C   0  0  2  0  0  0  0  0  0  0  0  0
   -4.2200   14.6020   -0.9690 N   0  0  0  0  0  0  0  0  0  0  0  0
   -2.1830   15.1860    0.1780 C   0  0  1  0  0  0  0  0  0  0  0  0
   -0.1580   14.6910   -0.6310 N   0  0  0  0  0  0  0  0  0  0  0  0
   -3.6050   14.6430    0.3360 C   0  0  1  0  0  0  0  0  0  0  0  0
   -1.3120   15.1660    1.3580 N   0  0  0  0  0  0  0  0  0  0  0  0
   -0.0030   14.7920    0.8050 C   0  0  0  0  0  0  0  0  0  0  0  0
   -4.4600   15.4290    1.2080 N   0  0  0  0  0  0  0  0  0  0  0  0
  2  1  1  6
  2  3  1  0
  2  4  1  0
  5  4  1  6
  5  6  1  0
  7  5  1  6
  6  8  1  0
  7  9  1  0
  9  8  1  1
  7 10  1  0
 10 11  1  1
  9 12  1  0
 10 13  1  0
 13 14  1  1
 12 15  1  6
 12 16  1  0
 13 16  1  0
 11 17  1  0
 17 18  1  0
 17 19  1  0
 18 20  1  0
 19 21  1  0
 19 22  1  6
 20 23  1  0
 21 23  1  0
 21 24  1  1
 22 25  1  0
 24 25  1  0
 23 26  1  1
M  CHG  1   1  -1
M  END
