ucsf511-ucsf274
     RDKit          3D

 29 33  0  0  0  0  0  0  0  0999 V2000
    0.1080   12.6700   -1.4900 O   0  0  0  0  0  0  0  0  0  0  0  0
    0.2690   11.6740   -2.4960 C   0  0  2  0  0  0  0  0  0  0  0  0
    0.7630   10.5560   -2.0000 O   0  0  0  0  0  0  0  0  0  0  0  0
   -0.5170   13.6330   -2.3100 C   0  0  1  0  0  0  0  0  0  0  0  0
    1.2490   12.3920   -3.4950 C   0  0  0  0  0  0  0  0  0  0  0  0
   -1.9280   13.9540   -1.8780 C   0  0  2  0  0  0  0  0  0  0  0  0
    0.2460   14.8200   -2.6340 N   0  0  0  0  0  0  0  0  0  0  0  0
    0.7500   12.7670   -4.9250 C   0  0  0  0  0  0  0  0  0  0  0  0
   -2.5590   14.6410   -3.0870 C   0  0  2  0  0  0  0  0  0  0  0  0
   -0.2660   15.2200   -3.9260 C   0  0  0  0  0  0  0  0  0  0  0  0
   -2.1120   14.8120   -0.7260 O   0  0  0  0  0  0  0  0  0  0  0  0
   -1.6700   15.6050   -3.8110 N   0  0  0  0  0  0  0  0  0  0  0  0
   -3.2650   15.6090   -0.9780 C   0  0  1  0  0  0  0  0  0  0  0  0
   -3.6780   15.4350   -2.4500 C   0  0  2  0  0  0  0  0  0  0  0  0
   -0.3900   11.9810   -5.6360 C   0  0  2  0  0  0  0  0  0  0  0  0
   -5.0550   14.8260   -2.7010 C   0  0  0  0  0  0  0  0  0  0  0  0
   -4.3360   15.4820    0.1080 C   0  0  0  0  0  0  0  0  0  0  0  0
   -1.4080   11.2810   -4.6560 C   0  0  1  0  0  0  0  0  0  0  0  0
    0.2250   11.0300   -6.5880 N   0  0  0  0  0  0  0  0  0  0  0  0
   -2.1950   12.2210   -3.9540 O   0  0  0  0  0  0  0  0  0  0  0  0
   -6.0780   15.3450   -1.7230 C   0  0  0  0  0  0  0  0  0  0  0  0
   -5.6840   14.9050   -0.3290 C   0  0  0  0  0  0  0  0  0  0  0  0
   -2.3710   10.4100   -5.3190 N   0  0  0  0  0  0  0  0  0  0  0  0
   -0.7610   10.1290   -7.1910 C   0  0  2  0  0  0  0  0  0  0  0  0
   -1.6140    9.4270   -6.0980 C   0  0  2  0  0  0  0  0  0  0  0  0
    0.0060    9.1400   -8.0710 C   0  0  0  0  0  0  0  0  0  0  0  0
   -0.6220    7.7540   -8.0560 C   0  0  0  0  0  0  0  0  0  0  0  0
   -2.6150    8.4120   -6.6670 C   0  0  0  0  0  0  0  0  0  0  0  0
   -2.1380    7.8170   -7.9850 C   0  0  0  0  0  0  0  0  0  0  0  0
  1  2  1  0
  2  3  1  1
  4  1  1  1
  2  5  1  0
  4  6  1  0
  4  7  1  0
  5  8  1  0
  6  9  1  0
  7 10  1  0
  6 11  1  1
  9 12  1  1
 10 12  1  0
 11 13  1  0
  9 14  1  0
 13 14  1  0
 15  8  1  1
 14 16  1  1
 13 17  1  1
 15 18  1  0
 15 19  1  0
 18 20  1  6
 16 21  1  0
 17 22  1  0
 21 22  1  0
 18 23  1  0
 19 24  1  0
 23 25  1  0
 24 25  1  0
 24 26  1  1
 26 27  1  0
 25 28  1  6
 27 29  1  0
 28 29  1  0
M  CHG  1   3  -1
M  END
