ucsf493-ucsf248
     RDKit          3D

 30 33  0  0  0  0  0  0  0  0999 V2000
   -4.1160   15.4750   -6.4190 C   0  0  0  0  0  0  0  0  0  0  0  0
   -3.8350   15.5440   -5.0100 N   0  0  0  0  0  0  0  0  0  0  0  0
   -4.1570   14.2160   -4.4640 C   0  0  0  0  0  0  0  0  0  0  0  0
   -2.4120   15.8410   -4.7570 C   0  0  1  0  0  0  0  0  0  0  0  0
   -3.5420   14.0450   -3.0770 C   0  0  0  0  0  0  0  0  0  0  0  0
   -1.5390   14.6130   -4.9630 C   0  0  0  0  0  0  0  0  0  0  0  0
   -1.8290   17.1330   -5.3990 C   0  0  0  0  0  0  0  0  0  0  0  0
   -0.2800   14.7560   -4.1830 C   0  0  2  0  0  0  0  0  0  0  0  0
   -0.2920   17.1780   -5.2990 C   0  0  0  0  0  0  0  0  0  0  0  0
   -3.9390   15.2200   -2.1930 C   0  0  2  0  0  0  0  0  0  0  0  0
    0.3110   16.1850   -4.2800 C   0  0  2  0  0  0  0  0  0  0  0  0
    0.8670   13.7880   -4.5060 C   0  0  2  0  0  0  0  0  0  0  0  0
   -2.9850   15.4030   -0.9620 C   0  0  0  0  0  0  0  0  0  0  0  0
   -5.4720   15.1270   -2.0150 C   0  0  0  0  0  0  0  0  0  0  0  0
    0.8750   12.3050   -4.0110 C   0  0  0  0  0  0  0  0  0  0  0  0
    1.7210   15.9710   -4.5600 N   0  0  0  0  0  0  0  0  0  0  0  0
    2.0540   14.6180   -4.1110 C   0  0  0  0  0  0  0  0  0  0  0  0
   -5.8690   15.4150   -0.6110 C   0  0  2  0  0  0  0  0  0  0  0  0
   -3.6140   15.3990    0.4310 C   0  0  0  0  0  0  0  0  0  0  0  0
    0.0940   11.8350   -2.7330 C   0  0  1  0  0  0  0  0  0  0  0  0
   -4.9420   14.6970    0.3270 C   0  0  1  0  0  0  0  0  0  0  0  0
   -7.2180   14.9230   -0.2480 N   0  0  0  0  0  0  0  0  0  0  0  0
    0.4200   10.4540   -2.5540 O   0  0  0  0  0  0  0  0  0  0  0  0
    0.5910   12.3090   -1.6010 O   0  0  0  0  0  0  0  0  0  0  0  0
   -7.0000   14.1370    0.9770 C   0  0  1  0  0  0  0  0  0  0  0  0
   -5.7450   14.6180    1.5140 N   0  0  0  0  0  0  0  0  0  0  0  0
   -8.2950   14.2600    2.2280 S   0  0  0  0  0  0  0  0  0  0  0  0
   -8.8750   12.8650    2.8940 N   0  0  0  0  0  0  0  0  0  0  0  0
   -7.5790   15.1460    3.3590 O   0  0  0  0  0  0  0  0  0  0  0  0
   -9.4780   15.1140    1.5700 O   0  0  0  0  0  0  0  0  0  0  0  0
  1  2  1  0
  2  3  1  0
  4  2  1  6
  3  5  1  0
  4  6  1  0
  4  7  1  0
  8  6  1  6
  7  9  1  0
 10  5  1  1
  8 11  1  0
 11  9  1  6
  8 12  1  0
 10 13  1  0
 10 14  1  0
 12 15  1  1
 11 16  1  0
 12 17  1  0
 16 17  1  0
 18 14  1  6
 13 19  1  0
 15 20  1  0
 18 21  1  0
 21 19  1  1
 18 22  1  0
 20 23  1  1
 20 24  1  0
 22 25  1  0
 21 26  1  0
 25 26  1  0
 25 27  1  1
 27 28  1  0
 27 29  1  0
 27 30  1  0
M  CHG  1  24  -1
M  END
