ucsf337
     RDKit          3D

  9  9  0  0  0  0  0  0  0  0999 V2000
   -7.7000   14.6080    0.7650 C   0  0  0  0  0  0  0  0  0  0  0  0
   -6.4310   14.9510   -0.0020 C   0  0  0  0  0  0  0  0  0  0  0  0
   -6.5040   15.0460   -1.3120 N   0  0  0  0  0  0  0  0  0  0  0  0
   -5.4610   15.3240   -2.0580 C   0  0  0  0  0  0  0  0  0  0  0  0
   -5.5890   15.4350   -3.4950 N   0  0  0  0  0  0  0  0  0  0  0  0
   -4.2300   15.5240   -1.4650 C   0  0  0  0  0  0  0  0  0  0  0  0
   -4.1120   15.4520   -0.0890 C   0  0  0  0  0  0  0  0  0  0  0  0
   -5.2310   15.1430    0.6810 C   0  0  0  0  0  0  0  0  0  0  0  0
   -5.0930   15.0310    2.6200 Br  0  0  0  0  0  0  0  0  0  0  0  0
  1  2  1  0
  2  3  1  0
  3  4  1  0
  4  5  1  0
  4  6  1  0
  6  7  1  0
  2  8  1  0
  7  8  1  0
  8  9  1  0
M  END
