ucsf243-ucsf404
     RDKit          3D

 17 18  0  0  0  0  0  0  0  0999 V2000
   -4.2450   16.4780    0.6850 C   0  0  0  0  0  0  0  0  0  0  0  0
   -3.4730   15.0240   -0.1130 S   0  0  0  0  0  0  0  0  0  0  0  0
   -4.0490   15.4320   -1.8100 C   0  0  2  0  0  0  0  0  0  0  0  0
   -1.8730   14.6140   -0.9920 C   0  0  0  0  0  0  0  0  0  0  0  0
   -3.6460   13.7680    1.2620 C   0  0  0  0  0  0  0  0  0  0  0  0
   -5.0850   13.7870    0.0790 S   0  0  0  0  0  0  0  0  0  0  0  0
   -5.8190   15.2770   -2.0690 Cl  0  0  0  0  0  0  0  0  0  0  0  0
   -1.5920   14.3960   -2.3090 C   0  0  2  0  0  0  0  0  0  0  0  0
   -3.6450   14.4890   -2.8650 C   0  0  0  0  0  0  0  0  0  0  0  0
   -5.6330   13.7810    1.6960 C   0  0  1  0  0  0  0  0  0  0  0  0
   -4.5350   14.5180    2.0080 N   0  0  0  0  0  0  0  0  0  0  0  0
   -0.1260   14.7930   -2.5270 C   0  0  2  0  0  0  0  0  0  0  0  0
   -6.7780   14.6550    1.9970 N   0  0  0  0  0  0  0  0  0  0  0  0
   -2.3540   14.9600   -3.4740 C   0  0  2  0  0  0  0  0  0  0  0  0
   -2.1130   14.2840   -4.6430 O   0  0  0  0  0  0  0  0  0  0  0  0
    0.3850   14.0840   -3.6030 O   0  0  0  0  0  0  0  0  0  0  0  0
    0.5880   14.6190   -1.3780 O   0  0  0  0  0  0  0  0  0  0  0  0
  1  2  1  0
  2  3  1  0
  2  4  1  0
  2  5  1  0
  2  6  1  0
  3  7  1  1
  8  4  1  1
  3  9  1  0
  6 10  1  0
  5 11  1  0
 10 11  1  0
  8 12  1  0
 10 13  1  6
  8 14  1  0
  9 14  1  0
 14 15  1  6
 12 16  1  6
 12 17  1  0
M  CHG  1  17  -1
M  END
