ucsf039-ucsf224
     RDKit          3D

 22 24  0  0  0  0  0  0  0  0999 V2000
   -4.4170   15.6210    1.2900 N   0  0  0  0  0  0  0  0  0  0  0  0
   -3.6280   14.9050    0.2950 C   0  0  2  0  0  0  0  0  0  0  0  0
   -2.1440   15.1920    0.3610 C   0  0  2  0  0  0  0  0  0  0  0  0
   -4.1850   15.2710   -0.9910 N   0  0  0  0  0  0  0  0  0  0  0  0
   -3.5160   14.6130   -2.1310 C   0  0  0  0  0  0  0  0  0  0  0  0
   -1.5130   14.3510   -0.7010 C   0  0  1  0  0  0  0  0  0  0  0  0
   -1.3590   14.8400    1.5460 N   0  0  0  0  0  0  0  0  0  0  0  0
   -2.0520   14.6270   -2.0180 N   0  0  0  0  0  0  0  0  0  0  0  0
   -0.1310   14.6910   -0.4660 N   0  0  0  0  0  0  0  0  0  0  0  0
   -0.0290   14.6110    0.9800 C   0  0  0  0  0  0  0  0  0  0  0  0
   -1.4160   15.6610   -2.8070 C   0  0  0  0  0  0  0  0  0  0  0  0
   -0.7280   15.2680   -4.1280 C   0  0  2  0  0  0  0  0  0  0  0  0
    0.8010   15.3810   -4.0760 C   0  0  1  0  0  0  0  0  0  0  0  0
   -1.3220   16.1150   -5.2090 N   0  0  0  0  0  0  0  0  0  0  0  0
   -3.0600   16.0010   -5.4410 Cl  0  0  0  0  0  0  0  0  0  0  0  0
    1.5290   14.0230   -4.4320 C   0  0  0  0  0  0  0  0  0  0  0  0
   -0.6040   17.3700   -5.2300 C   0  0  1  0  0  0  0  0  0  0  0  0
    1.1000   16.8080   -5.2440 S   0  0  0  0  0  0  0  0  0  0  0  0
   -0.9120   18.3870   -6.3380 C   0  0  0  0  0  0  0  0  0  0  0  0
    1.5350   12.8050   -3.4140 C   0  0  2  0  0  0  0  0  0  0  0  0
    0.5560   11.9330   -3.5520 O   0  0  0  0  0  0  0  0  0  0  0  0
    1.3440   13.2180   -2.0820 O   0  0  0  0  0  0  0  0  0  0  0  0
  2  1  1  1
  2  3  1  0
  2  4  1  0
  4  5  1  0
  3  6  1  0
  3  7  1  1
  5  8  1  0
  6  8  1  0
  6  9  1  6
  7 10  1  0
  9 10  1  0
  8 11  1  0
 12 11  1  1
 12 13  1  0
 12 14  1  0
 14 15  1  0
 13 16  1  6
 14 17  1  0
 13 18  1  0
 17 18  1  0
 17 19  1  6
 16 20  1  0
 20 21  1  6
 20 22  1  0
M  CHG  1  21  -1
M  END
