ucsf115-ucsf124
     RDKit          3D

 31 35  0  0  0  0  0  0  0  0999 V2000
   -2.4410   14.6290   -3.5610 C   0  0  0  0  0  0  0  0  0  0  0  0
   -2.8060   14.0460   -2.2860 N   0  0  0  0  0  0  0  0  0  0  0  0
   -2.1940   14.7290   -1.2020 C   0  0  2  0  0  0  0  0  0  0  0  0
   -1.5430   13.5970   -4.1390 C   0  0  2  0  0  0  0  0  0  0  0  0
   -2.2010   12.3090   -3.9200 O   0  0  0  0  0  0  0  0  0  0  0  0
   -0.2560   13.5880   -3.3410 C   0  0  0  0  0  0  0  0  0  0  0  0
   -0.1400   12.1290   -3.3700 C   0  0  2  0  0  0  0  0  0  0  0  0
   -1.4510   11.6440   -2.9060 C   0  0  0  0  0  0  0  0  0  0  0  0
   -1.2730   13.8660   -0.4740 N   0  0  0  0  0  0  0  0  0  0  0  0
   -3.3320   15.1790   -0.2890 C   0  0  2  0  0  0  0  0  0  0  0  0
    1.0710   11.5010   -2.9110 C   0  0  2  0  0  0  0  0  0  0  0  0
   -0.8170   14.4720    0.7680 C   0  0  0  0  0  0  0  0  0  0  0  0
   -3.1810   14.3980    0.9650 C   0  0  1  0  0  0  0  0  0  0  0  0
   -4.7250   14.9160   -0.7020 N   0  0  0  0  0  0  0  0  0  0  0  0
    0.7140   10.5730   -2.0280 O   0  0  0  0  0  0  0  0  0  0  0  0
    1.8830   12.4820   -2.2840 O   0  0  0  0  0  0  0  0  0  0  0  0
    1.5170   11.0630   -4.3260 C   0  0  0  0  0  0  0  0  0  0  0  0
   -1.9510   14.6490    1.6650 N   0  0  0  0  0  0  0  0  0  0  0  0
   -4.3290   14.9760    1.6100 N   0  0  0  0  0  0  0  0  0  0  0  0
   -5.3430   14.6720    0.5970 C   0  0  0  0  0  0  0  0  0  0  0  0
    0.5660   11.3200   -5.4380 N   0  0  0  0  0  0  0  0  0  0  0  0
   -0.6720   10.5960   -5.1960 C   0  0  1  0  0  0  0  0  0  0  0  0
    1.0710   10.9850   -6.7410 C   0  0  2  0  0  0  0  0  0  0  0  0
   -1.7320   11.5120   -5.3000 O   0  0  0  0  0  0  0  0  0  0  0  0
    0.7500   11.9920   -7.6440 O   0  0  0  0  0  0  0  0  0  0  0  0
   -0.7940    9.4820   -6.2220 C   0  0  2  0  0  0  0  0  0  0  0  0
    0.3750    9.6860   -7.1860 C   0  0  1  0  0  0  0  0  0  0  0  0
   -2.1720    9.3480   -6.8770 C   0  0  0  0  0  0  0  0  0  0  0  0
   -0.1110    9.6300   -8.6320 C   0  0  0  0  0  0  0  0  0  0  0  0
   -2.1650    8.2440   -7.9220 C   0  0  0  0  0  0  0  0  0  0  0  0
   -0.9680    8.3770   -8.8690 C   0  0  0  0  0  0  0  0  0  0  0  0
  1  2  1  0
  3  2  1  6
  4  1  1  1
  4  5  1  0
  4  6  1  0
  7  6  1  1
  5  8  1  0
  7  8  1  0
  3  9  1  0
  3 10  1  0
  7 11  1  0
  9 12  1  0
 10 13  1  0
 10 14  1  6
 11 15  1  1
 11 16  1  0
 11 17  1  0
 12 18  1  0
 13 18  1  1
 13 19  1  0
 14 20  1  0
 19 20  1  0
 17 21  1  0
 21 22  1  0
 21 23  1  0
 22 24  1  6
 23 25  1  6
 22 26  1  0
 23 27  1  0
 26 27  1  0
 26 28  1  6
 27 29  1  6
 28 30  1  0
 29 31  1  0
 30 31  1  0
M  CHG  1  15  -1
M  END
