ucsf004-ucsf412
     RDKit          3D

 22 25  0  0  0  0  0  0  0  0999 V2000
   -2.1350   12.3200   -4.6900 F   0  0  0  0  0  0  0  0  0  0  0  0
   -1.7160   13.6140   -4.7730 C   0  0  2  0  0  0  0  0  0  0  0  0
   -0.2600   13.6330   -5.2020 C   0  0  0  0  0  0  0  0  0  0  0  0
   -1.8880   14.2910   -3.4050 C   0  0  0  0  0  0  0  0  0  0  0  0
   -0.6350   14.4550   -2.6300 N   0  0  0  0  0  0  0  0  0  0  0  0
    0.4170   14.9480   -4.8390 C   0  0  0  0  0  0  0  0  0  0  0  0
    0.3900   15.2450   -3.3350 C   0  0  0  0  0  0  0  0  0  0  0  0
   -0.8130   14.8580   -1.2190 C   0  0  2  0  0  0  0  0  0  0  0  0
   -0.2000   13.8820   -0.3160 N   0  0  0  0  0  0  0  0  0  0  0  0
   -2.2330   15.2930   -0.8040 C   0  0  2  0  0  0  0  0  0  0  0  0
   -0.2910   14.2210    1.0900 C   0  0  0  0  0  0  0  0  0  0  0  0
   -2.1840   15.5970    0.6570 C   0  0  2  0  0  0  0  0  0  0  0  0
   -3.4240   14.3390   -0.8470 C   0  0  0  0  0  0  0  0  0  0  0  0
   -1.6540   14.5270    1.4370 N   0  0  0  0  0  0  0  0  0  0  0  0
   -3.5770   15.8640    1.0040 N   0  0  0  0  0  0  0  0  0  0  0  0
   -4.4090   14.9190    0.2020 C   0  0  1  0  0  0  0  0  0  0  0  0
   -5.5860   15.5680   -0.5780 C   0  0  0  0  0  0  0  0  0  0  0  0
   -4.9060   13.8690    1.2080 C   0  0  0  0  0  0  0  0  0  0  0  0
   -7.0030   15.0830   -0.1990 C   0  0  1  0  0  0  0  0  0  0  0  0
   -6.1200   14.3550    1.9940 C   0  0  0  0  0  0  0  0  0  0  0  0
   -7.3330   13.9070   -0.8760 O   0  0  0  0  0  0  0  0  0  0  0  0
   -7.2550   14.8130    1.2020 N   0  0  0  0  0  0  0  0  0  0  0  0
  2  1  1  1
  2  3  1  0
  2  4  1  0
  4  5  1  0
  3  6  1  0
  5  7  1  0
  6  7  1  0
  8  5  1  6
  8  9  1  0
  8 10  1  0
  9 11  1  0
 10 12  1  0
 10 13  1  1
 11 14  1  0
 12 14  1  1
 12 15  1  0
 16 13  1  6
 16 15  1  0
 16 17  1  0
 16 18  1  0
 17 19  1  0
 18 20  1  0
 19 21  1  6
 19 22  1  0
 20 22  1  0
M  END
