ucsf248-ucsf278
     RDKit          3D

 26 29  0  0  0  0  0  0  0  0999 V2000
   -9.0250   13.0010    3.0040 N   0  0  0  0  0  0  0  0  0  0  0  0
   -8.6000   14.3710    2.1960 S   0  0  0  0  0  0  0  0  0  0  0  0
   -8.2370   15.5440    3.2210 O   0  0  0  0  0  0  0  0  0  0  0  0
   -9.7860   14.8770    1.2500 O   0  0  0  0  0  0  0  0  0  0  0  0
   -7.1620   14.2720    1.1100 C   0  0  2  0  0  0  0  0  0  0  0  0
   -5.9870   14.9250    1.6650 N   0  0  0  0  0  0  0  0  0  0  0  0
   -7.3330   14.8580   -0.2560 N   0  0  0  0  0  0  0  0  0  0  0  0
   -5.1850   14.6510    0.5170 C   0  0  1  0  0  0  0  0  0  0  0  0
   -5.9620   15.3250   -0.5840 C   0  0  1  0  0  0  0  0  0  0  0  0
   -3.7540   15.0150    0.4910 C   0  0  0  0  0  0  0  0  0  0  0  0
   -5.4330   14.9640   -1.9780 C   0  0  0  0  0  0  0  0  0  0  0  0
   -3.3070   14.3370   -0.7810 C   0  0  1  0  0  0  0  0  0  0  0  0
   -3.8940   15.0040   -2.0420 C   0  0  0  0  0  0  0  0  0  0  0  0
   -1.8680   13.8770   -0.7800 C   0  0  0  0  0  0  0  0  0  0  0  0
   -0.9470   14.6430   -1.6630 C   0  0  0  0  0  0  0  0  0  0  0  0
    0.1360   13.8860   -2.3810 C   0  0  1  0  0  0  0  0  0  0  0  0
   -0.2340   13.5330   -3.8270 C   0  0  2  0  0  0  0  0  0  0  0  0
    1.2720   14.8930   -2.3640 C   0  0  0  0  0  0  0  0  0  0  0  0
   -1.2650   12.4440   -4.0800 C   0  0  0  0  0  0  0  0  0  0  0  0
    0.9360   12.9570   -4.5580 C   0  0  1  0  0  0  0  0  0  0  0  0
    2.3740   14.6550   -3.3700 C   0  0  0  0  0  0  0  0  0  0  0  0
   -1.0010   12.0970   -5.5570 C   0  0  1  0  0  0  0  0  0  0  0  0
    0.3760   12.5410   -5.8420 N   0  0  0  0  0  0  0  0  0  0  0  0
    2.0090   13.9890   -4.6840 C   0  0  0  0  0  0  0  0  0  0  0  0
   -1.2260   10.6230   -5.9110 C   0  0  0  0  0  0  0  0  0  0  0  0
   -2.4290   10.1320   -5.3410 O   0  0  0  0  0  0  0  0  0  0  0  0
  1  2  1  0
  2  3  1  0
  2  4  1  0
  5  2  1  1
  5  6  1  0
  5  7  1  0
  6  8  1  0
  7  9  1  0
  8  9  1  0
  8 10  1  1
  9 11  1  6
 10 12  1  0
 11 13  1  0
 12 13  1  0
 12 14  1  6
 14 15  1  0
 16 15  1  6
 16 17  1  0
 16 18  1  0
 17 19  1  1
 17 20  1  0
 18 21  1  0
 19 22  1  0
 20 23  1  0
 22 23  1  0
 20 24  1  6
 21 24  1  0
 22 25  1  1
 25 26  1  0
M  END
