ucsf487-ucsf385
     RDKit          3D

 20 22  0  0  0  0  0  0  0  0999 V2000
   -7.7660   13.7170    2.9190 N   0  0  0  0  0  0  0  0  0  0  0  0
   -7.3960   14.5150    1.7530 C   0  0  2  0  0  0  0  0  0  0  0  0
   -8.1840   14.1000    0.4840 C   0  0  0  0  0  0  0  0  0  0  0  0
   -5.8550   14.5090    1.6060 C   0  0  0  0  0  0  0  0  0  0  0  0
   -5.3090   14.7380    0.1840 C   0  0  1  0  0  0  0  0  0  0  0  0
   -7.3840   13.8420   -0.7180 N   0  0  0  0  0  0  0  0  0  0  0  0
   -6.3510   14.8510   -0.8990 C   0  0  2  0  0  0  0  0  0  0  0  0
   -4.4490   15.9550    0.0120 C   0  0  0  0  0  0  0  0  0  0  0  0
   -5.6270   14.7920   -2.2460 C   0  0  0  0  0  0  0  0  0  0  0  0
   -3.4320   15.6840   -1.0830 C   0  0  2  0  0  0  0  0  0  0  0  0
   -4.0750   14.7340   -2.1230 C   0  0  0  0  0  0  0  0  0  0  0  0
   -2.2030   15.2890   -0.2650 C   0  0  2  0  0  0  0  0  0  0  0  0
   -0.8260   15.0760   -0.9410 C   0  0  2  0  0  0  0  0  0  0  0  0
   -2.4960   14.2300    0.7750 C   0  0  0  0  0  0  0  0  0  0  0  0
   -0.7510   15.0450   -2.4880 C   0  0  1  0  0  0  0  0  0  0  0  0
   -0.0580   13.9510   -0.2090 C   0  0  0  0  0  0  0  0  0  0  0  0
   -1.4940   14.2170    1.8170 N   0  0  0  0  0  0  0  0  0  0  0  0
    0.4430   14.3870   -2.8580 O   0  0  0  0  0  0  0  0  0  0  0  0
   -1.6590   14.2710   -3.0300 O   0  0  0  0  0  0  0  0  0  0  0  0
   -0.1420   14.1150    1.3020 C   0  0  0  0  0  0  0  0  0  0  0  0
  2  1  1  1
  2  3  1  0
  2  4  1  0
  5  4  1  1
  3  6  1  0
  5  7  1  0
  6  7  1  0
  5  8  1  0
  7  9  1  6
 10  8  1  1
  9 11  1  0
 10 11  1  0
 10 12  1  0
 12 13  1  0
 12 14  1  6
 13 15  1  0
 13 16  1  1
 14 17  1  0
 15 18  1  1
 15 19  1  0
 16 20  1  0
 17 20  1  0
M  CHG  1  19  -1
M  END
