ucsf028-ucsf262
     RDKit          3D

 30 34  0  0  0  0  0  0  0  0999 V2000
   -4.2760   15.5420    0.8680 N   0  0  0  0  0  0  0  0  0  0  0  0
   -3.5760   14.7910   -0.1550 C   0  0  2  0  0  0  0  0  0  0  0  0
   -2.1360   14.4340    0.2560 C   0  0  1  0  0  0  0  0  0  0  0  0
   -3.6990   15.5490   -1.3700 N   0  0  0  0  0  0  0  0  0  0  0  0
   -2.9380   15.0040   -2.5030 C   0  0  0  0  0  0  0  0  0  0  0  0
   -1.1780   14.2930   -0.9770 C   0  0  1  0  0  0  0  0  0  0  0  0
   -1.3970   15.2370    1.2350 N   0  0  0  0  0  0  0  0  0  0  0  0
   -1.4990   14.9430   -2.2370 N   0  0  0  0  0  0  0  0  0  0  0  0
    0.0850   14.7500   -0.4370 N   0  0  0  0  0  0  0  0  0  0  0  0
   -0.0600   14.7480    0.9880 C   0  0  0  0  0  0  0  0  0  0  0  0
   -0.5220   14.8450   -3.4280 C   0  0  2  0  0  0  0  0  0  0  0  0
   -0.3060   13.3580   -3.9000 C   0  0  2  0  0  0  0  0  0  0  0  0
    1.0020   15.1710   -3.0260 C   0  0  1  0  0  0  0  0  0  0  0  0
   -0.7060   15.9250   -4.6270 C   0  0  2  0  0  0  0  0  0  0  0  0
    2.0710   14.0250   -2.8260 C   0  0  1  0  0  0  0  0  0  0  0  0
   -1.2780   12.5390   -4.6860 C   0  0  0  0  0  0  0  0  0  0  0  0
   -0.0630   12.4580   -2.7830 O   0  0  0  0  0  0  0  0  0  0  0  0
    0.4060   16.9640   -4.3540 C   0  0  1  0  0  0  0  0  0  0  0  0
    1.5160   16.1140   -4.0590 N   0  0  0  0  0  0  0  0  0  0  0  0
   -2.0180   16.6320   -5.0460 C   0  0  2  0  0  0  0  0  0  0  0  0
   -3.2430   15.5480   -5.7420 Cl  0  0  0  0  0  0  0  0  0  0  0  0
    3.1250   14.4610   -2.1520 O   0  0  0  0  0  0  0  0  0  0  0  0
    1.5740   13.0340   -1.9550 O   0  0  0  0  0  0  0  0  0  0  0  0
   -0.1680   11.0800   -3.2980 N   0  0  0  0  0  0  0  0  0  0  0  0
   -0.4060   11.3080   -4.7040 C   0  0  1  0  0  0  0  0  0  0  0  0
   -1.8030   17.7920   -6.0570 C   0  0  0  0  0  0  0  0  0  0  0  0
    0.6510   17.9030   -5.5170 C   0  0  0  0  0  0  0  0  0  0  0  0
   -1.0230   10.2660   -5.4180 O   0  0  0  0  0  0  0  0  0  0  0  0
   -0.6290   18.6880   -5.7300 C   0  0  0  0  0  0  0  0  0  0  0  0
   -0.6310   10.3180   -6.7790 C   0  0  0  0  0  0  0  0  0  0  0  0
  2  1  1  1
  2  3  1  0
  2  4  1  0
  4  5  1  0
  3  6  1  0
  3  7  1  1
  5  8  1  0
  6  8  1  0
  6  9  1  1
  7 10  1  0
  9 10  1  0
 11  8  1  1
 11 12  1  0
 11 13  1  0
 11 14  1  0
 13 15  1  0
 12 16  1  1
 12 17  1  0
 14 18  1  0
 13 19  1  6
 18 19  1  0
 14 20  1  1
 20 21  1  6
 15 22  1  1
 15 23  1  0
 17 24  1  0
 16 25  1  0
 24 25  1  0
 20 26  1  0
 18 27  1  6
 25 28  1  1
 26 29  1  0
 27 29  1  0
 28 30  1  0
M  CHG  1  22  -1
M  END
