ucsf006
     RDKit          3D

 16 17  0  0  0  0  0  0  0  0999 V2000
   -2.3170   14.8880   -3.3470 C   0  0  0  0  0  0  0  0  0  0  0  0
   -1.1220   14.9330   -2.5270 N   0  0  0  0  0  0  0  0  0  0  0  0
    0.2120   14.9910   -3.1030 C   0  0  0  0  0  0  0  0  0  0  0  0
    0.2860   14.5890   -4.5810 C   0  0  0  0  0  0  0  0  0  0  0  0
    0.5530   13.1010   -4.8020 C   0  0  0  0  0  0  0  0  0  0  0  0
   -0.2410   12.4300   -5.5110 O   0  0  0  0  0  0  0  0  0  0  0  0
    1.5450   12.5280   -4.2760 O   0  0  0  0  0  0  0  0  0  0  0  0
   -1.2030   14.9620   -1.0810 C   0  0  0  0  0  0  0  0  0  0  0  0
   -0.0560   14.8740   -0.4180 N   0  0  0  0  0  0  0  0  0  0  0  0
   -0.0320   14.9020    0.9010 C   0  0  0  0  0  0  0  0  0  0  0  0
   -1.1350   15.0260    1.6010 N   0  0  0  0  0  0  0  0  0  0  0  0
   -2.3320   15.1340    1.0100 C   0  0  0  0  0  0  0  0  0  0  0  0
   -3.5640   15.2780    1.5060 N   0  0  0  0  0  0  0  0  0  0  0  0
   -4.4630   15.3540    0.5360 C   0  0  0  0  0  0  0  0  0  0  0  0
   -3.7900   15.2480   -0.6790 C   0  0  0  0  0  0  0  0  0  0  0  0
   -2.4120   15.1060   -0.3690 C   0  0  0  0  0  0  0  0  0  0  0  0
  1  2  1  0
  2  3  1  0
  3  4  1  0
  4  5  1  0
  5  6  1  0
  5  7  1  0
  2  8  1  0
  8  9  1  0
  9 10  1  0
 10 11  1  0
 11 12  1  0
 12 13  1  0
 13 14  1  0
 14 15  1  0
  8 16  1  0
 12 16  1  0
 15 16  1  0
M  CHG  1   7  -1
M  END
