ucsf516-ucsf147
     RDKit          3D

 27 31  0  0  0  0  0  0  0  0999 V2000
    0.6110   14.0020   -5.5480 C   0  0  0  0  0  0  0  0  0  0  0  0
   -0.4020   13.7110   -4.4400 C   0  0  1  0  0  0  0  0  0  0  0  0
   -0.0250   14.1140   -2.9570 C   0  0  2  0  0  0  0  0  0  0  0  0
   -1.8380   14.1950   -4.6620 C   0  0  0  0  0  0  0  0  0  0  0  0
    1.1570   15.1300   -2.7990 C   0  0  1  0  0  0  0  0  0  0  0  0
    0.5760   12.8160   -2.4230 C   0  0  0  0  0  0  0  0  0  0  0  0
   -1.2740   14.6430   -2.4080 N   0  0  0  0  0  0  0  0  0  0  0  0
   -2.4340   14.3270   -3.2240 C   0  0  0  0  0  0  0  0  0  0  0  0
    2.1850   14.6290   -1.9650 O   0  0  0  0  0  0  0  0  0  0  0  0
    1.8810   15.3120   -3.8340 O   0  0  0  0  0  0  0  0  0  0  0  0
    1.9850   12.5040   -2.9870 C   0  0  0  0  0  0  0  0  0  0  0  0
    0.1680   11.3540   -2.7080 C   0  0  0  0  0  0  0  0  0  0  0  0
   -1.5080   14.6510   -1.0110 C   0  0  1  0  0  0  0  0  0  0  0  0
   -3.1090   13.0690   -2.6560 C   0  0  0  0  0  0  0  0  0  0  0  0
   -3.4730   15.4870   -3.1680 C   0  0  0  0  0  0  0  0  0  0  0  0
    1.3580   11.3050   -3.6810 C   0  0  0  0  0  0  0  0  0  0  0  0
   -0.2200   14.8850   -0.3770 N   0  0  0  0  0  0  0  0  0  0  0  0
   -2.5040   15.5600   -0.3710 C   0  0  2  0  0  0  0  0  0  0  0  0
   -3.7910   13.2860   -1.2850 C   0  0  0  0  0  0  0  0  0  0  0  0
   -4.8720   15.0940   -2.6430 C   0  0  0  0  0  0  0  0  0  0  0  0
   -0.1690   14.3430    0.9530 C   0  0  0  0  0  0  0  0  0  0  0  0
   -2.2890   15.4180    1.0980 C   0  0  2  0  0  0  0  0  0  0  0  0
   -3.9580   15.1830   -0.5120 C   0  0  0  0  0  0  0  0  0  0  0  0
   -4.8490   14.3930   -1.3060 C   0  0  0  0  0  0  0  0  0  0  0  0
   -1.5020   14.2970    1.5030 N   0  0  0  0  0  0  0  0  0  0  0  0
   -3.5760   15.4970    1.8020 N   0  0  0  0  0  0  0  0  0  0  0  0
   -4.5730   15.6410    0.7670 C   0  0  0  0  0  0  0  0  0  0  0  0
  2  1  1  6
  2  3  1  0
  2  4  1  0
  3  5  1  0
  3  6  1  1
  3  7  1  0
  4  8  1  0
  8  7  1  0
  5  9  1  1
  5 10  1  0
  6 11  1  0
  6 12  1  0
 13  7  1  6
  8 14  1  0
  8 15  1  0
 11 16  1  0
 12 16  1  0
 13 17  1  0
 13 18  1  0
 14 19  1  0
 15 20  1  0
 17 21  1  0
 18 22  1  0
 18 23  1  1
 19 24  1  0
 20 24  1  0
 21 25  1  0
 22 25  1  6
 22 26  1  0
 23 27  1  0
 26 27  1  0
M  CHG  1  10  -1
M  END
