ucsf039-ucsf364
     RDKit          3D

 27 30  0  0  0  0  0  0  0  0999 V2000
   -4.3190   15.7160    0.8460 N   0  0  0  0  0  0  0  0  0  0  0  0
   -3.6600   14.8160   -0.0780 C   0  0  2  0  0  0  0  0  0  0  0  0
   -2.2390   14.4430    0.4010 C   0  0  1  0  0  0  0  0  0  0  0  0
   -3.8000   15.4580   -1.3790 N   0  0  0  0  0  0  0  0  0  0  0  0
   -2.8710   14.9630   -2.4190 C   0  0  0  0  0  0  0  0  0  0  0  0
   -1.3910   14.0630   -0.7900 C   0  0  1  0  0  0  0  0  0  0  0  0
   -1.4020   15.3590    1.1790 N   0  0  0  0  0  0  0  0  0  0  0  0
   -1.5080   14.9600   -1.8990 N   0  0  0  0  0  0  0  0  0  0  0  0
   -0.0400   14.0400   -0.2120 N   0  0  0  0  0  0  0  0  0  0  0  0
   -0.1030   14.7180    1.0710 C   0  0  0  0  0  0  0  0  0  0  0  0
   -0.3560   14.7520   -2.8240 C   0  0  1  0  0  0  0  0  0  0  0  0
    0.1180   13.1990   -2.6530 C   0  0  2  0  0  0  0  0  0  0  0  0
   -0.2460   15.4470   -4.2850 C   0  0  2  0  0  0  0  0  0  0  0  0
    1.3890   13.0980   -2.2760 O   0  0  0  0  0  0  0  0  0  0  0  0
    1.0460   16.2900   -4.3220 C   0  0  0  0  0  0  0  0  0  0  0  0
   -1.3680   16.3710   -4.7410 N   0  0  0  0  0  0  0  0  0  0  0  0
   -0.0910   12.2220   -3.8490 C   0  0  2  0  0  0  0  0  0  0  0  0
   -0.8430   17.6930   -5.1650 C   0  0  1  0  0  0  0  0  0  0  0  0
    0.8620   17.4800   -5.6610 S   0  0  0  0  0  0  0  0  0  0  0  0
    1.0260   12.3210   -4.8980 C   0  0  2  0  0  0  0  0  0  0  0  0
   -1.5390   12.2970   -4.4240 C   0  0  0  0  0  0  0  0  0  0  0  0
   -1.6410   18.2910   -6.3150 C   0  0  0  0  0  0  0  0  0  0  0  0
    1.7410   13.6520   -5.0140 C   0  0  0  0  0  0  0  0  0  0  0  0
   -1.7730   11.5700   -5.7460 C   0  0  0  0  0  0  0  0  0  0  0  0
    0.6200   11.6020   -6.1980 C   0  0  2  0  0  0  0  0  0  0  0  0
    1.6420   11.6030   -7.1840 O   0  0  0  0  0  0  0  0  0  0  0  0
   -0.7280   11.9830   -6.7430 C   0  0  0  0  0  0  0  0  0  0  0  0
  2  1  1  1
  2  3  1  0
  2  4  1  0
  4  5  1  0
  3  6  1  0
  3  7  1  6
  5  8  1  0
  6  8  1  0
  6  9  1  1
  7 10  1  0
  9 10  1  0
 11  8  1  6
 11 12  1  0
 11 13  1  0
 12 14  1  6
 13 15  1  1
 13 16  1  0
 12 17  1  0
 16 18  1  0
 15 19  1  0
 18 19  1  0
 17 20  1  0
 17 21  1  6
 18 22  1  6
 20 23  1  6
 21 24  1  0
 20 25  1  0
 25 26  1  6
 24 27  1  0
 25 27  1  0
M  CHG  1  14  -1
M  END
