ucsf224-ucsf138
     RDKit          3D

 22 23  0  0  0  0  0  0  0  0999 V2000
   -1.3320   18.5170   -5.0690 Cl  0  0  0  0  0  0  0  0  0  0  0  0
   -0.6150   16.8710   -5.1910 C   0  0  2  0  0  0  0  0  0  0  0  0
   -1.6340   15.7910   -4.7860 C   0  0  1  0  0  0  0  0  0  0  0  0
    0.7020   16.7380   -4.4400 C   0  0  0  0  0  0  0  0  0  0  0  0
   -3.1610   15.9450   -5.7070 Cl  0  0  0  0  0  0  0  0  0  0  0  0
   -1.0880   14.3830   -4.9640 C   0  0  0  0  0  0  0  0  0  0  0  0
    1.2880   15.3550   -4.7000 C   0  0  0  0  0  0  0  0  0  0  0  0
    0.3030   14.2230   -4.3340 C   0  0  2  0  0  0  0  0  0  0  0  0
    0.7410   12.7190   -4.4230 C   0  0  1  0  0  0  0  0  0  0  0  0
    0.3580   12.1020   -2.9860 C   0  0  1  0  0  0  0  0  0  0  0  0
    0.0240   12.1900   -5.6750 N   0  0  0  0  0  0  0  0  0  0  0  0
    0.5060   10.7980   -2.8700 O   0  0  0  0  0  0  0  0  0  0  0  0
    1.2510   12.5430   -1.9870 O   0  0  0  0  0  0  0  0  0  0  0  0
    0.6870   11.2880   -6.6110 C   0  0  2  0  0  0  0  0  0  0  0  0
    2.0000   11.6990   -6.9040 O   0  0  0  0  0  0  0  0  0  0  0  0
   -0.0370   11.2760   -7.8580 N   0  0  0  0  0  0  0  0  0  0  0  0
    0.2610   10.1930   -8.8410 C   0  0  0  0  0  0  0  0  0  0  0  0
    0.4860   10.6700  -10.2860 C   0  0  0  0  0  0  0  0  0  0  0  0
    1.4050    9.2410   -8.4270 C   0  0  0  0  0  0  0  0  0  0  0  0
    0.3830    9.5050  -11.2800 C   0  0  0  0  0  0  0  0  0  0  0  0
    1.9860    8.4790   -9.6440 C   0  0  0  0  0  0  0  0  0  0  0  0
    0.9330    8.2030  -10.7020 C   0  0  0  0  0  0  0  0  0  0  0  0
  2  1  1  1
  2  3  1  0
  2  4  1  0
  3  5  1  6
  3  6  1  0
  4  7  1  0
  8  6  1  6
  7  8  1  0
  8  9  1  0
  9 10  1  0
  9 11  1  6
 10 12  1  6
 10 13  1  0
 11 14  1  0
 14 15  1  6
 14 16  1  0
 16 17  1  0
 17 18  1  0
 17 19  1  0
 18 20  1  0
 19 21  1  0
 20 22  1  0
 21 22  1  0
M  CHG  1  12  -1
M  END
