ucsf260-ucsf411
     RDKit          3D

 24 27  0  0  0  0  0  0  0  0999 V2000
    1.2270   11.5530   -2.6960 O   0  0  0  0  0  0  0  0  0  0  0  0
    1.8130   12.7010   -2.9850 C   0  0  1  0  0  0  0  0  0  0  0  0
    3.1540   12.4810   -2.7390 O   0  0  0  0  0  0  0  0  0  0  0  0
    1.5900   13.0900   -4.4540 C   0  0  0  0  0  0  0  0  0  0  0  0
    0.0920   13.0190   -4.8030 C   0  0  0  0  0  0  0  0  0  0  0  0
   -0.3480   11.7700   -5.5000 N   0  0  0  0  0  0  0  0  0  0  0  0
   -0.8260   14.2470   -4.4020 C   0  0  1  0  0  0  0  0  0  0  0  0
   -1.2530   10.9760   -4.6880 C   0  0  0  0  0  0  0  0  0  0  0  0
   -0.5710   11.4630   -6.9060 C   0  0  2  0  0  0  0  0  0  0  0  0
   -0.5000   15.8000   -4.6500 C   0  0  2  0  0  0  0  0  0  0  0  0
   -2.3120   13.9040   -4.5450 C   0  0  0  0  0  0  0  0  0  0  0  0
   -2.3870   10.7140   -5.5560 N   0  0  0  0  0  0  0  0  0  0  0  0
   -1.7010   10.4080   -6.8110 C   0  0  2  0  0  0  0  0  0  0  0  0
    0.7040   11.0000   -7.6640 C   0  0  0  0  0  0  0  0  0  0  0  0
   -1.5620   16.6810   -5.3880 C   0  0  1  0  0  0  0  0  0  0  0  0
   -2.9980   14.6570   -5.6540 C   0  0  0  0  0  0  0  0  0  0  0  0
    0.8760   16.2100   -5.2100 C   0  0  0  0  0  0  0  0  0  0  0  0
   -1.2390    8.9690   -6.8560 C   0  0  0  0  0  0  0  0  0  0  0  0
    0.8170    9.5700   -8.2060 C   0  0  0  0  0  0  0  0  0  0  0  0
   -2.9720   16.1440   -5.3920 C   0  0  0  0  0  0  0  0  0  0  0  0
   -1.4520   18.1400   -5.0530 C   0  0  0  0  0  0  0  0  0  0  0  0
    0.8390   17.5840   -5.9020 C   0  0  0  0  0  0  0  0  0  0  0  0
   -0.4120    8.6830   -8.0890 C   0  0  0  0  0  0  0  0  0  0  0  0
   -0.0250   18.5820   -5.2070 C   0  0  0  0  0  0  0  0  0  0  0  0
  2  1  1  6
  2  3  1  0
  2  4  1  0
  4  5  1  0
  5  6  1  0
  7  5  1  6
  6  8  1  0
  6  9  1  0
  7 10  1  0
  7 11  1  0
  8 12  1  0
  9 13  1  0
 12 13  1  0
  9 14  1  1
 10 15  1  0
 11 16  1  0
 10 17  1  6
 13 18  1  1
 14 19  1  0
 15 20  1  1
 16 20  1  0
 15 21  1  0
 17 22  1  0
 18 23  1  0
 19 23  1  0
 21 24  1  0
 22 24  1  0
M  CHG  1   1  -1
M  END
