ucsf264-ucsf147
     RDKit          3D

 29 32  0  0  0  0  0  0  0  0999 V2000
    1.2700   13.2040   -2.3500 O   0  0  0  0  0  0  0  0  0  0  0  0
    1.6180   12.1740   -3.2290 C   0  0  0  0  0  0  0  0  0  0  0  0
    0.8390   11.0370   -2.8620 O   0  0  0  0  0  0  0  0  0  0  0  0
    0.5160   14.1790   -3.0780 C   0  0  2  0  0  0  0  0  0  0  0  0
   -0.0030   14.9700   -2.1630 O   0  0  0  0  0  0  0  0  0  0  0  0
   -0.5870   13.3220   -3.7970 C   0  0  2  0  0  0  0  0  0  0  0  0
   -0.3250   13.2820   -5.3360 C   0  0  1  0  0  0  0  0  0  0  0  0
   -2.0650   13.7490   -3.7230 C   0  0  2  0  0  0  0  0  0  0  0  0
    0.2420   11.9900   -5.9130 N   0  0  0  0  0  0  0  0  0  0  0  0
   -1.5950   13.5530   -5.9670 O   0  0  0  0  0  0  0  0  0  0  0  0
   -2.4230   14.3080   -5.0360 N   0  0  0  0  0  0  0  0  0  0  0  0
   -2.6970   14.5540   -2.5710 C   0  0  0  0  0  0  0  0  0  0  0  0
    0.3240   12.0220   -7.3790 N   0  0  0  0  0  0  0  0  0  0  0  0
   -0.5470   10.7410   -5.6950 C   0  0  2  0  0  0  0  0  0  0  0  0
   -2.4240   14.0070   -1.1470 C   0  0  0  0  0  0  0  0  0  0  0  0
   -4.1710   14.8680   -2.8530 C   0  0  0  0  0  0  0  0  0  0  0  0
    0.7600   10.6710   -7.7380 C   0  0  1  0  0  0  0  0  0  0  0  0
   -0.2690    9.8610   -6.9510 C   0  0  2  0  0  0  0  0  0  0  0  0
   -2.0400   11.0140   -5.4780 C   0  0  0  0  0  0  0  0  0  0  0  0
   -3.2310   14.6430   -0.0060 C   0  0  0  0  0  0  0  0  0  0  0  0
   -4.8630   15.5390   -1.6720 C   0  0  0  0  0  0  0  0  0  0  0  0
    0.9580   10.2840   -9.2140 C   0  0  0  0  0  0  0  0  0  0  0  0
   -1.5540    9.4900   -7.6900 C   0  0  0  0  0  0  0  0  0  0  0  0
   -2.8510    9.7150   -5.5110 C   0  0  0  0  0  0  0  0  0  0  0  0
   -4.6960   14.8080   -0.3580 C   0  0  0  0  0  0  0  0  0  0  0  0
    1.6070    9.1040   -9.3470 F   0  0  0  0  0  0  0  0  0  0  0  0
   -0.2170   10.1560   -9.8670 F   0  0  0  0  0  0  0  0  0  0  0  0
    1.6560   11.1970   -9.9140 F   0  0  0  0  0  0  0  0  0  0  0  0
   -2.5340    8.8400   -6.7250 C   0  0  0  0  0  0  0  0  0  0  0  0
  1  2  1  0
  2  3  1  0
  1  4  1  0
  4  5  1  1
  6  4  1  1
  6  7  1  0
  6  8  1  0
  7  9  1  6
  7 10  1  0
  8 11  1  0
 10 11  1  0
  8 12  1  1
  9 13  1  0
  9 14  1  0
 12 15  1  0
 12 16  1  0
 13 17  1  0
 14 18  1  0
 17 18  1  0
 14 19  1  6
 15 20  1  0
 16 21  1  0
 17 22  1  6
 18 23  1  6
 19 24  1  0
 20 25  1  0
 21 25  1  0
 22 26  1  0
 22 27  1  0
 22 28  1  0
 23 29  1  0
 24 29  1  0
M  CHG  1   5  -1
M  END
