ucsf378-ucsf247
     RDKit          3D

 24 26  0  0  0  0  0  0  0  0999 V2000
   -1.4100   13.8390   -2.5200 N   0  0  0  0  0  0  0  0  0  0  0  0
   -0.4000   13.4090   -1.5170 C   0  0  2  0  0  0  0  0  0  0  0  0
    0.8430   14.0740   -1.7620 O   0  0  0  0  0  0  0  0  0  0  0  0
   -2.1090   14.8630   -1.8090 N   0  0  0  0  0  0  0  0  0  0  0  0
   -0.4930   14.5240   -3.3490 C   0  0  1  0  0  0  0  0  0  0  0  0
   -0.0970   12.0320   -1.4520 O   0  0  0  0  0  0  0  0  0  0  0  0
   -3.3470   15.2680   -2.4040 C   0  0  1  0  0  0  0  0  0  0  0  0
    0.6830   13.5490   -3.5230 C   0  0  1  0  0  0  0  0  0  0  0  0
   -0.9540   15.2310   -4.5970 C   0  0  0  0  0  0  0  0  0  0  0  0
   -0.3130   11.3560   -2.6650 C   0  0  1  0  0  0  0  0  0  0  0  0
    0.3120   12.0890   -3.8720 C   0  0  0  0  0  0  0  0  0  0  0  0
   -3.7990   14.3530   -3.3720 O   0  0  0  0  0  0  0  0  0  0  0  0
    1.8770   14.1570   -4.2060 C   0  0  1  0  0  0  0  0  0  0  0  0
    0.2210   16.1040   -4.8960 C   0  0  0  0  0  0  0  0  0  0  0  0
   -4.2950   15.3680   -1.2300 C   0  0  1  0  0  0  0  0  0  0  0  0
    2.9010   12.8470   -4.9060 Cl  0  0  0  0  0  0  0  0  0  0  0  0
    0.2780   10.0930   -2.4920 O   0  0  0  0  0  0  0  0  0  0  0  0
    1.4250   15.2450   -5.1900 C   0  0  0  0  0  0  0  0  0  0  0  0
   -5.5840   14.5800   -1.3980 C   0  0  0  0  0  0  0  0  0  0  0  0
   -3.5600   14.9840    0.0630 C   0  0  0  0  0  0  0  0  0  0  0  0
   -6.4810   14.8650   -0.2140 C   0  0  1  0  0  0  0  0  0  0  0  0
   -4.3790   15.3530    1.2640 C   0  0  0  0  0  0  0  0  0  0  0  0
   -7.6420   14.0520   -0.2460 O   0  0  0  0  0  0  0  0  0  0  0  0
   -5.7750   14.7270    1.1630 C   0  0  0  0  0  0  0  0  0  0  0  0
  1  2  1  0
  2  3  1  6
  1  4  1  0
  1  5  1  0
  2  6  1  0
  4  7  1  0
  5  8  1  0
  5  9  1  6
  6 10  1  0
  8 11  1  6
 10 11  1  0
  7 12  1  6
  8 13  1  0
  9 14  1  0
  7 15  1  0
 13 16  1  6
 10 17  1  1
 13 18  1  0
 14 18  1  0
 15 19  1  6
 15 20  1  0
 19 21  1  0
 20 22  1  0
 21 23  1  1
 21 24  1  0
 22 24  1  0
M  END
