ucsf357-ucsf387
     RDKit          3D

 22 23  0  0  0  0  0  0  0  0999 V2000
   -6.2630   14.8420   -2.0180 O   0  0  0  0  0  0  0  0  0  0  0  0
   -5.5050   14.6040   -0.9720 C   0  0  2  0  0  0  0  0  0  0  0  0
   -6.2170   15.2380    0.0530 O   0  0  0  0  0  0  0  0  0  0  0  0
   -4.1070   15.2420   -1.1860 C   0  0  2  0  0  0  0  0  0  0  0  0
   -3.3450   14.5640   -2.3260 C   0  0  0  0  0  0  0  0  0  0  0  0
   -3.2400   15.2230    0.1050 C   0  0  0  0  0  0  0  0  0  0  0  0
   -1.9440   15.1080   -2.4750 C   0  0  2  0  0  0  0  0  0  0  0  0
   -1.9080   14.4650   -0.0540 C   0  0  0  0  0  0  0  0  0  0  0  0
   -1.3740   14.4810   -3.5370 F   0  0  0  0  0  0  0  0  0  0  0  0
   -1.0520   14.9240   -1.2430 C   0  0  1  0  0  0  0  0  0  0  0  0
    0.0700   14.0060   -1.4120 O   0  0  0  0  0  0  0  0  0  0  0  0
   -0.0220   12.9220   -2.3770 C   0  0  2  0  0  0  0  0  0  0  0  0
    0.3100   11.7540   -1.8190 O   0  0  0  0  0  0  0  0  0  0  0  0
    0.9560   13.2840   -3.5540 C   0  0  0  0  0  0  0  0  0  0  0  0
    0.6350   14.4140   -4.5970 C   0  0  0  0  0  0  0  0  0  0  0  0
   -0.8500   14.4750   -5.0170 C   0  0  0  0  0  0  0  0  0  0  0  0
    1.3220   15.7880   -4.3960 C   0  0  0  0  0  0  0  0  0  0  0  0
   -1.4370   15.8890   -5.1410 C   0  0  1  0  0  0  0  0  0  0  0  0
    0.4690   17.0440   -4.1390 C   0  0  1  0  0  0  0  0  0  0  0  0
    0.7840   18.2070   -5.4940 Cl  0  0  0  0  0  0  0  0  0  0  0  0
   -3.2090   15.7750   -5.3650 Cl  0  0  0  0  0  0  0  0  0  0  0  0
   -1.0280   16.8140   -4.0380 C   0  0  0  0  0  0  0  0  0  0  0  0
  2  1  1  6
  2  3  1  0
  2  4  1  0
  4  5  1  6
  4  6  1  0
  5  7  1  0
  6  8  1  0
  7  9  1  6
  7 10  1  0
  8 10  1  0
 10 11  1  6
 11 12  1  0
 12 13  1  1
 12 14  1  0
 14 15  1  0
 15 16  1  0
 15 17  1  0
 16 18  1  0
 17 19  1  0
 19 20  1  6
 18 21  1  1
 18 22  1  0
 19 22  1  0
M  CHG  2   1  -1  13  -1
M  END
