ucsf030-ucsf336
     RDKit          3D

 29 32  0  0  0  0  0  0  0  0999 V2000
   -4.5250   14.9640   -1.2900 Cl  0  0  0  0  0  0  0  0  0  0  0  0
   -3.0840   15.4230   -0.3410 C   0  0  1  0  0  0  0  0  0  0  0  0
   -3.0210   14.7380    1.0270 C   0  0  2  0  0  0  0  0  0  0  0  0
   -1.7960   15.1200   -1.1150 C   0  0  2  0  0  0  0  0  0  0  0  0
   -3.9290   15.3570    1.9650 N   0  0  0  0  0  0  0  0  0  0  0  0
   -0.5610   15.1230   -0.3160 N   0  0  0  0  0  0  0  0  0  0  0  0
   -1.7400   14.8440    1.6760 N   0  0  0  0  0  0  0  0  0  0  0  0
   -1.4770   16.0080   -2.2270 N   0  0  0  0  0  0  0  0  0  0  0  0
   -0.6210   14.3740    0.9010 C   0  0  0  0  0  0  0  0  0  0  0  0
   -0.0980   15.7840   -2.6140 C   0  0  0  0  0  0  0  0  0  0  0  0
   -2.3680   16.0310   -3.3990 C   0  0  0  0  0  0  0  0  0  0  0  0
   -0.0330   14.4160   -3.2700 C   0  0  1  0  0  0  0  0  0  0  0  0
   -2.1330   14.8910   -4.4120 C   0  0  0  0  0  0  0  0  0  0  0  0
    1.3130   13.6470   -2.9840 C   0  0  2  0  0  0  0  0  0  0  0  0
   -0.7080   13.2950   -2.4000 C   0  0  0  0  0  0  0  0  0  0  0  0
   -0.6640   14.5270   -4.6490 C   0  0  0  0  0  0  0  0  0  0  0  0
    1.8960   12.5840   -3.8750 C   0  0  1  0  0  0  0  0  0  0  0  0
    0.6310   13.0740   -1.7040 C   0  0  0  0  0  0  0  0  0  0  0  0
    2.3280   13.1660   -4.9750 O   0  0  0  0  0  0  0  0  0  0  0  0
    3.0710   12.1730   -3.2490 O   0  0  0  0  0  0  0  0  0  0  0  0
    0.9470   11.3490   -4.2100 C   0  0  1  0  0  0  0  0  0  0  0  0
    0.1070   10.9460   -3.1470 O   0  0  0  0  0  0  0  0  0  0  0  0
    0.0750   11.6160   -5.3600 N   0  0  0  0  0  0  0  0  0  0  0  0
   -0.6290   10.4340   -5.8530 C   0  0  0  0  0  0  0  0  0  0  0  0
   -0.3200   10.0670   -7.3090 C   0  0  0  0  0  0  0  0  0  0  0  0
   -2.1430   10.4780   -5.5670 C   0  0  0  0  0  0  0  0  0  0  0  0
   -1.4870    9.3360   -7.9800 C   0  0  0  0  0  0  0  0  0  0  0  0
   -2.8630    9.1600   -5.8520 C   0  0  0  0  0  0  0  0  0  0  0  0
   -2.2840    8.4220   -7.0490 C   0  0  0  0  0  0  0  0  0  0  0  0
  2  1  1  6
  2  3  1  0
  2  4  1  0
  3  5  1  1
  4  6  1  0
  3  7  1  0
  4  8  1  6
  6  9  1  0
  7  9  1  0
  8 10  1  0
  8 11  1  0
 12 10  1  1
 11 13  1  0
 12 14  1  0
 12 15  1  0
 12 16  1  0
 13 16  1  0
 14 17  1  0
 14 18  1  1
 15 18  1  0
 17 19  1  6
 17 20  1  0
 17 21  1  0
 21 22  1  1
 21 23  1  0
 23 24  1  0
 24 25  1  0
 24 26  1  0
 25 27  1  0
 26 28  1  0
 27 29  1  0
 28 29  1  0
M  CHG  1  19  -1
M  END
