ucsf274-ucsf378
     RDKit          3D

 24 26  0  0  0  0  0  0  0  0999 V2000
    0.6770   10.4120   -1.9160 O   0  0  0  0  0  0  0  0  0  0  0  0
    0.8000   11.7960   -2.1890 C   0  0  2  0  0  0  0  0  0  0  0  0
    0.1030   12.4900   -1.1720 O   0  0  0  0  0  0  0  0  0  0  0  0
   -0.7480   10.1660   -2.0060 O   0  0  0  0  0  0  0  0  0  0  0  0
    0.1490   11.8900   -3.5350 C   0  0  0  0  0  0  0  0  0  0  0  0
    0.3270   13.1990   -4.3080 C   0  0  2  0  0  0  0  0  0  0  0  0
    1.6870   13.9120   -4.2330 C   0  0  2  0  0  0  0  0  0  0  0  0
   -0.9090   14.0570   -4.0090 C   0  0  2  0  0  0  0  0  0  0  0  0
   -1.9710   13.2900   -4.6570 O   0  0  0  0  0  0  0  0  0  0  0  0
    2.9800   12.9410   -3.4480 Cl  0  0  0  0  0  0  0  0  0  0  0  0
    1.5210   15.2840   -3.6000 C   0  0  0  0  0  0  0  0  0  0  0  0
   -0.8380   15.4970   -4.5630 C   0  0  0  0  0  0  0  0  0  0  0  0
   -1.5430   12.0070   -5.1870 C   0  0  2  0  0  0  0  0  0  0  0  0
    0.5310   16.1690   -4.3540 C   0  0  0  0  0  0  0  0  0  0  0  0
   -0.6710   12.2350   -6.4750 C   0  0  1  0  0  0  0  0  0  0  0  0
   -2.6410   11.0390   -5.4000 N   0  0  0  0  0  0  0  0  0  0  0  0
    0.7830   12.6380   -6.1770 C   0  0  0  0  0  0  0  0  0  0  0  0
   -2.1070    9.7300   -5.8720 C   0  0  2  0  0  0  0  0  0  0  0  0
   -0.6290   11.0790   -7.3680 N   0  0  0  0  0  0  0  0  0  0  0  0
   -0.7000    9.9010   -6.5190 C   0  0  2  0  0  0  0  0  0  0  0  0
   -3.1130    8.8870   -6.6980 C   0  0  0  0  0  0  0  0  0  0  0  0
   -0.1880    8.6760   -7.2850 C   0  0  0  0  0  0  0  0  0  0  0  0
   -2.5110    7.6710   -7.3870 C   0  0  0  0  0  0  0  0  0  0  0  0
   -1.2470    8.0150   -8.1640 C   0  0  0  0  0  0  0  0  0  0  0  0
  1  2  1  0
  2  3  1  1
  1  4  1  0
  2  5  1  0
  6  5  1  1
  6  7  1  0
  6  8  1  0
  8  9  1  6
  7 10  1  1
  7 11  1  0
  8 12  1  0
 13  9  1  6
 11 14  1  0
 12 14  1  0
 13 15  1  0
 13 16  1  0
 15 17  1  1
 16 18  1  0
 15 19  1  0
 18 20  1  0
 19 20  1  0
 18 21  1  6
 20 22  1  6
 21 23  1  0
 22 24  1  0
 23 24  1  0
M  END
