ucsf338-ucsf135
     RDKit          3D

 26 28  0  0  0  0  0  0  0  0999 V2000
   -8.9160   14.3560   -0.2570 O   0  0  0  0  0  0  0  0  0  0  0  0
   -7.5960   14.0950    0.2810 N   0  0  0  0  0  0  0  0  0  0  0  0
   -6.5780   14.3740   -0.7320 C   0  0  1  0  0  0  0  0  0  0  0  0
   -7.2220   14.9560   -1.8420 O   0  0  0  0  0  0  0  0  0  0  0  0
   -5.3440   15.1990   -0.2760 C   0  0  2  0  0  0  0  0  0  0  0  0
   -4.1030   15.2740   -1.2130 C   0  0  2  0  0  0  0  0  0  0  0  0
   -4.9890   14.9280    1.1920 C   0  0  0  0  0  0  0  0  0  0  0  0
   -4.3020   14.6740   -2.5020 O   0  0  0  0  0  0  0  0  0  0  0  0
   -2.8450   14.6280   -0.5970 C   0  0  0  0  0  0  0  0  0  0  0  0
   -3.7130   15.6000    1.6040 C   0  0  0  0  0  0  0  0  0  0  0  0
   -3.1950   14.8680   -3.4040 C   0  0  0  0  0  0  0  0  0  0  0  0
   -2.5380   14.9900    0.8680 C   0  0  0  0  0  0  0  0  0  0  0  0
   -3.3110   13.9940   -4.6540 C   0  0  0  0  0  0  0  0  0  0  0  0
   -2.0070   13.2780   -5.0190 C   0  0  0  0  0  0  0  0  0  0  0  0
   -1.9030   12.0360   -4.3250 O   0  0  0  0  0  0  0  0  0  0  0  0
   -0.5330   11.1980   -4.4030 S   0  0  2  0  0  0  0  0  0  0  0  0
   -0.1060   10.5720   -2.9950 O   0  0  0  0  0  0  0  0  0  0  0  0
    0.7280   11.9580   -5.1760 N   0  0  0  0  0  0  0  0  0  0  0  0
   -0.8310    9.8250   -5.4800 C   0  0  2  0  0  0  0  0  0  0  0  0
    0.8640   11.4490   -6.5500 C   0  0  1  0  0  0  0  0  0  0  0  0
   -0.0340   10.1930   -6.7680 C   0  0  2  0  0  0  0  0  0  0  0  0
   -2.2690    9.4450   -5.7810 C   0  0  0  0  0  0  0  0  0  0  0  0
    0.4410   12.4580   -7.3810 O   0  0  0  0  0  0  0  0  0  0  0  0
   -2.3450    8.3850   -6.8910 C   0  0  0  0  0  0  0  0  0  0  0  0
   -0.9450   10.2000   -7.9850 C   0  0  0  0  0  0  0  0  0  0  0  0
   -1.6310    8.8390   -8.1670 C   0  0  0  0  0  0  0  0  0  0  0  0
  1  2  1  0
  2  3  1  0
  3  4  1  6
  3  5  1  0
  5  6  1  0
  5  7  1  1
  6  8  1  6
  6  9  1  0
  7 10  1  0
  8 11  1  0
  9 12  1  0
 10 12  1  0
 11 13  1  0
 13 14  1  0
 14 15  1  0
 16 15  1  0
 16 17  1  1
 16 18  1  0
 16 19  1  0
 18 20  1  0
 19 21  1  0
 20 21  1  0
 19 22  1  6
 20 23  1  6
 22 24  1  0
 21 25  1  6
 24 26  1  0
 25 26  1  0
M  END
