ucsf387-ucsf422
     RDKit          3D

 16 17  0  0  0  0  0  0  0  0999 V2000
    0.8680   17.9600   -4.7170 Cl  0  0  0  0  0  0  0  0  0  0  0  0
    0.0760   16.3890   -5.2230 C   0  0  2  0  0  0  0  0  0  0  0  0
   -1.2950   16.8620   -5.3100 C   0  0  0  0  0  0  0  0  0  0  0  0
    0.5610   15.2220   -4.5370 C   0  0  1  0  0  0  0  0  0  0  0  0
   -0.2200   14.1200   -3.4650 S   0  0  0  0  0  0  0  0  0  0  0  0
   -2.0740   15.6890   -4.8590 C   0  0  1  0  0  0  0  0  0  0  0  0
    1.7810   14.8870   -4.8390 N   0  0  0  0  0  0  0  0  0  0  0  0
   -3.5940   15.4400   -5.6750 Cl  0  0  0  0  0  0  0  0  0  0  0  0
   -0.0700   12.1870   -3.6840 C   0  0  0  0  0  0  0  0  0  0  0  0
   -1.2010   14.4990   -5.0220 C   0  0  0  0  0  0  0  0  0  0  0  0
   -1.4920   14.2650   -2.0310 C   0  0  0  0  0  0  0  0  0  0  0  0
    0.9620   15.3580   -2.8920 C   0  0  0  0  0  0  0  0  0  0  0  0
    2.2250   15.2140   -3.6220 C   0  0  0  0  0  0  0  0  0  0  0  0
   -0.1770   11.5790   -2.3530 C   0  0  1  0  0  0  0  0  0  0  0  0
    0.4200   10.3430   -2.3970 O   0  0  0  0  0  0  0  0  0  0  0  0
    0.3250   12.3410   -1.2970 O   0  0  0  0  0  0  0  0  0  0  0  0
  2  1  1  1
  2  3  1  0
  2  4  1  0
  4  5  1  0
  3  6  1  0
  4  7  1  6
  6  8  1  6
  5  9  1  0
  5 10  1  0
  6 10  1  0
  5 11  1  0
  5 12  1  0
  7 13  1  0
 12 13  1  0
  9 14  1  0
 14 15  1  6
 14 16  1  0
M  CHG  1  15  -1
M  END
