ucsf340-ucsf487
     RDKit          3D

 27 30  0  0  0  0  0  0  0  0999 V2000
    0.8510   18.5600   -5.8540 C   0  0  0  0  0  0  0  0  0  0  0  0
    0.1140   17.7560   -4.8930 N   0  0  0  0  0  0  0  0  0  0  0  0
    1.0210   16.6910   -4.4390 C   0  0  0  0  0  0  0  0  0  0  0  0
   -0.8710   16.9510   -5.5670 C   0  0  1  0  0  0  0  0  0  0  0  0
    0.1550   15.5910   -3.8360 C   0  0  1  0  0  0  0  0  0  0  0  0
   -1.0470   15.6350   -4.7870 C   0  0  1  0  0  0  0  0  0  0  0  0
   -2.2010   17.5550   -5.9960 C   0  0  0  0  0  0  0  0  0  0  0  0
    0.8750   14.2310   -3.7480 C   0  0  0  0  0  0  0  0  0  0  0  0
   -2.4770   15.5400   -4.2420 C   0  0  2  0  0  0  0  0  0  0  0  0
   -3.2660   16.4840   -6.3470 C   0  0  0  0  0  0  0  0  0  0  0  0
    0.0630   12.9130   -3.6330 C   0  0  0  0  0  0  0  0  0  0  0  0
   -2.7470   14.5290   -3.1510 C   0  0  0  0  0  0  0  0  0  0  0  0
   -3.3810   15.3250   -5.4160 C   0  0  0  0  0  0  0  0  0  0  0  0
    0.2710   12.1320   -2.3040 C   0  0  2  0  0  0  0  0  0  0  0  0
   -3.5500   15.0990   -1.9840 C   0  0  1  0  0  0  0  0  0  0  0  0
    1.6100   12.3800   -1.9600 O   0  0  0  0  0  0  0  0  0  0  0  0
    0.2920   10.8040   -2.4400 O   0  0  0  0  0  0  0  0  0  0  0  0
   -5.0700   14.8450   -2.0830 C   0  0  0  0  0  0  0  0  0  0  0  0
   -2.9530   14.5660   -0.6920 C   0  0  0  0  0  0  0  0  0  0  0  0
   -5.7390   14.4480   -0.7620 C   0  0  1  0  0  0  0  0  0  0  0  0
   -3.5850   15.1420    0.5390 C   0  0  0  0  0  0  0  0  0  0  0  0
   -5.0990   15.1790    0.4250 C   0  0  2  0  0  0  0  0  0  0  0  0
   -7.1670   14.6980   -0.8060 N   0  0  0  0  0  0  0  0  0  0  0  0
   -5.6510   14.6670    1.7590 C   0  0  0  0  0  0  0  0  0  0  0  0
   -7.8710   14.5710    0.4740 C   0  0  0  0  0  0  0  0  0  0  0  0
   -7.0480   14.0610    1.6840 C   0  0  2  0  0  0  0  0  0  0  0  0
   -7.7040   14.2700    2.9850 N   0  0  0  0  0  0  0  0  0  0  0  0
  1  2  1  0
  2  3  1  0
  2  4  1  0
  3  5  1  0
  4  6  1  0
  6  5  1  1
  4  7  1  1
  5  8  1  6
  6  9  1  0
  7 10  1  0
  8 11  1  0
  9 12  1  1
  9 13  1  0
 10 13  1  0
 11 14  1  0
 15 12  1  6
 14 16  1  6
 14 17  1  0
 15 18  1  0
 15 19  1  0
 20 18  1  6
 19 21  1  0
 20 22  1  0
 22 21  1  1
 20 23  1  0
 22 24  1  0
 23 25  1  0
 24 26  1  0
 25 26  1  0
 26 27  1  1
M  CHG  1  17  -1
M  END
