ucsf241-ucsf303
     RDKit          3D

 18 20  0  0  0  0  0  0  0  0999 V2000
   -2.9170   14.3050   -3.2730 O   0  0  0  0  0  0  0  0  0  0  0  0
   -4.2210   14.3510   -2.3410 S   0  0  0  0  0  0  0  0  0  0  0  0
   -4.7920   15.8150   -2.5140 O   0  0  0  0  0  0  0  0  0  0  0  0
   -5.3780   13.2800   -2.7610 N   0  0  0  0  0  0  0  0  0  0  0  0
   -3.7540   14.3360   -0.6590 C   0  0  2  0  0  0  0  0  0  0  0  0
   -4.4350   15.4080    0.1970 C   0  0  0  0  0  0  0  0  0  0  0  0
   -2.3000   14.5150   -0.3440 C   0  0  2  0  0  0  0  0  0  0  0  0
   -5.0560   11.8850   -2.8750 C   0  0  2  0  0  0  0  0  0  0  0  0
   -2.2420   15.3140    0.9080 C   0  0  1  0  0  0  0  0  0  0  0  0
   -3.5910   15.5040    1.4000 N   0  0  0  0  0  0  0  0  0  0  0  0
   -1.1840   15.0040   -1.2040 C   0  0  0  0  0  0  0  0  0  0  0  0
   -5.7830   11.1690   -1.8360 N   0  0  0  0  0  0  0  0  0  0  0  0
   -3.3540   11.4690   -2.5130 S   0  0  0  0  0  0  0  0  0  0  0  0
    0.0770   14.5630   -0.4360 C   0  0  0  0  0  0  0  0  0  0  0  0
   -1.4120   14.5470    1.7410 N   0  0  0  0  0  0  0  0  0  0  0  0
   -3.8860    9.7650   -2.3210 C   0  0  0  0  0  0  0  0  0  0  0  0
   -5.3170    9.7740   -1.9640 N   0  0  0  0  0  0  0  0  0  0  0  0
   -0.0790   14.4180    1.1080 C   0  0  0  0  0  0  0  0  0  0  0  0
  2  1  1  0
  2  3  1  0
  2  4  1  0
  5  2  1  6
  5  6  1  0
  5  7  1  0
  8  4  1  1
  7  9  1  0
  6 10  1  0
  9 10  1  1
  7 11  1  6
  8 12  1  0
  8 13  1  0
 11 14  1  0
  9 15  1  0
 13 16  1  0
 12 17  1  0
 16 17  1  0
 14 18  1  0
 15 18  1  0
M  END
