ucsf403-ucsf422
     RDKit          3D

 23 25  0  0  0  0  0  0  0  0999 V2000
    0.6850    9.9750   -7.7730 Cl  0  0  0  0  0  0  0  0  0  0  0  0
   -0.4250    9.5140   -6.4450 C   0  0  1  0  0  0  0  0  0  0  0  0
   -0.5430   10.5100   -5.2140 C   0  0  1  0  0  0  0  0  0  0  0  0
   -1.7140    9.0000   -7.1000 C   0  0  0  0  0  0  0  0  0  0  0  0
    0.1880   11.7620   -5.3370 O   0  0  0  0  0  0  0  0  0  0  0  0
   -2.0180   10.8380   -4.7980 C   0  0  1  0  0  0  0  0  0  0  0  0
   -2.9030    8.9580   -6.1630 C   0  0  0  0  0  0  0  0  0  0  0  0
   -2.3030   12.5590   -4.4400 Cl  0  0  0  0  0  0  0  0  0  0  0  0
    0.7690   12.2640   -4.0480 C   0  0  2  0  0  0  0  0  0  0  0  0
   -3.1580   10.3550   -5.6900 C   0  0  0  0  0  0  0  0  0  0  0  0
    0.1330   11.5780   -2.7710 C   0  0  2  0  0  0  0  0  0  0  0  0
    0.8010   13.8390   -3.9980 C   0  0  1  0  0  0  0  0  0  0  0  0
    0.6270   12.0720   -1.6430 O   0  0  0  0  0  0  0  0  0  0  0  0
    0.5650   10.2380   -2.6020 O   0  0  0  0  0  0  0  0  0  0  0  0
    1.7450   14.5290   -4.8860 C   0  0  0  0  0  0  0  0  0  0  0  0
   -0.4050   14.8160   -4.0110 C   0  0  1  0  0  0  0  0  0  0  0  0
    1.6880   15.9440   -4.4680 N   0  0  0  0  0  0  0  0  0  0  0  0
    0.2670   16.2080   -4.2290 C   0  0  1  0  0  0  0  0  0  0  0  0
   -1.5080   14.5770   -5.0160 C   0  0  0  0  0  0  0  0  0  0  0  0
   -0.3560   17.1360   -5.2810 C   0  0  0  0  0  0  0  0  0  0  0  0
   -2.4840   15.7410   -5.0010 C   0  0  2  0  0  0  0  0  0  0  0  0
   -4.0270   15.2620   -6.0960 Br  0  0  0  0  0  0  0  0  0  0  0  0
   -1.8770   17.0660   -5.4690 C   0  0  0  0  0  0  0  0  0  0  0  0
  2  1  1  6
  2  3  1  0
  2  4  1  0
  3  5  1  6
  3  6  1  0
  4  7  1  0
  6  8  1  6
  9  5  1  6
  6 10  1  0
  7 10  1  0
  9 11  1  0
  9 12  1  0
 11 13  1  1
 11 14  1  0
 12 15  1  6
 12 16  1  0
 15 17  1  0
 16 18  1  0
 17 18  1  0
 16 19  1  6
 18 20  1  6
 19 21  1  0
 21 22  1  6
 20 23  1  0
 21 23  1  0
M  CHG  1  13  -1
M  END
