ucsf190-ucsf013
     RDKit          3D

 27 30  0  0  0  0  0  0  0  0999 V2000
    0.5980   10.5320   -2.3780 O   0  0  0  0  0  0  0  0  0  0  0  0
    1.0470   11.7890   -2.3850 C   0  0  2  0  0  0  0  0  0  0  0  0
    0.0800   12.4180   -1.5850 O   0  0  0  0  0  0  0  0  0  0  0  0
    1.1840   12.3220   -3.8360 C   0  0  0  0  0  0  0  0  0  0  0  0
    0.8720   13.8190   -3.9620 C   0  0  2  0  0  0  0  0  0  0  0  0
   -0.1240   14.0930   -5.0870 C   0  0  2  0  0  0  0  0  0  0  0  0
    2.0910   14.5810   -4.2560 N   0  0  0  0  0  0  0  0  0  0  0  0
   -0.5060   15.5980   -5.0370 C   0  0  2  0  0  0  0  0  0  0  0  0
    1.8330   16.0100   -4.1560 N   0  0  0  0  0  0  0  0  0  0  0  0
   -1.3130   13.1390   -5.0130 C   0  0  0  0  0  0  0  0  0  0  0  0
    0.4100   16.3320   -4.0330 C   0  0  1  0  0  0  0  0  0  0  0  0
   -2.0230   15.8900   -4.7990 C   0  0  0  0  0  0  0  0  0  0  0  0
   -2.4890   13.5660   -5.8500 C   0  0  0  0  0  0  0  0  0  0  0  0
    0.3000   17.7270   -4.2560 O   0  0  0  0  0  0  0  0  0  0  0  0
   -3.0600   14.8810   -5.3510 C   0  0  1  0  0  0  0  0  0  0  0  0
   -4.2190   14.6290   -4.3560 C   0  0  0  0  0  0  0  0  0  0  0  0
   -4.1020   15.2350   -2.9440 C   0  0  1  0  0  0  0  0  0  0  0  0
   -5.4600   15.3760   -2.2330 C   0  0  0  0  0  0  0  0  0  0  0  0
   -3.0420   14.5190   -2.0920 C   0  0  0  0  0  0  0  0  0  0  0  0
   -5.8020   14.2910   -1.2320 C   0  0  1  0  0  0  0  0  0  0  0  0
   -3.2930   14.6030   -0.6030 C   0  0  0  0  0  0  0  0  0  0  0  0
   -4.7190   14.2370   -0.1490 C   0  0  1  0  0  0  0  0  0  0  0  0
   -7.1170   14.6580   -0.6670 N   0  0  0  0  0  0  0  0  0  0  0  0
   -5.1540   15.1650    0.9450 C   0  0  2  0  0  0  0  0  0  0  0  0
   -7.3430   14.1550    0.6670 C   0  0  0  0  0  0  0  0  0  0  0  0
   -4.1690   15.3990    1.9620 N   0  0  0  0  0  0  0  0  0  0  0  0
   -6.3860   14.7480    1.5780 N   0  0  0  0  0  0  0  0  0  0  0  0
  2  1  1  6
  2  3  1  0
  2  4  1  0
  5  4  1  6
  5  6  1  0
  5  7  1  0
  6  8  1  0
  7  9  1  0
  6 10  1  1
  8 11  1  0
  9 11  1  0
  8 12  1  1
 10 13  1  0
 11 14  1  6
 12 15  1  0
 13 15  1  0
 15 16  1  1
 17 16  1  6
 17 18  1  0
 17 19  1  0
 20 18  1  6
 19 21  1  0
 20 22  1  0
 22 21  1  6
 20 23  1  0
 22 24  1  0
 23 25  1  0
 24 26  1  1
 24 27  1  0
 25 27  1  0
M  CHG  1   1  -1
M  END
