ucsf169-ucsf241
     RDKit          3D

 23 25  0  0  0  0  0  0  0  0999 V2000
    1.1890   18.2940   -5.6580 C   0  0  0  0  0  0  0  0  0  0  0  0
   -0.0690   17.6910   -5.5020 O   0  0  0  0  0  0  0  0  0  0  0  0
   -0.1990   16.9500   -4.2790 C   0  0  1  0  0  0  0  0  0  0  0  0
   -1.6960   16.7210   -4.1200 C   0  0  1  0  0  0  0  0  0  0  0  0
    0.6890   15.6780   -4.3150 C   0  0  0  0  0  0  0  0  0  0  0  0
   -2.3400   17.8770   -4.6650 O   0  0  0  0  0  0  0  0  0  0  0  0
   -2.2370   15.4640   -4.7840 C   0  0  0  0  0  0  0  0  0  0  0  0
    0.0660   14.3610   -4.8300 C   0  0  1  0  0  0  0  0  0  0  0  0
    0.8790   13.0630   -4.4710 C   0  0  0  0  0  0  0  0  0  0  0  0
   -1.4170   14.2100   -4.4670 C   0  0  0  0  0  0  0  0  0  0  0  0
    0.9930   12.6240   -2.9620 C   0  0  1  0  0  0  0  0  0  0  0  0
    0.2220   13.5240   -2.1710 O   0  0  0  0  0  0  0  0  0  0  0  0
    0.4370   11.4250   -2.8230 O   0  0  0  0  0  0  0  0  0  0  0  0
    0.9660   14.2470   -1.1950 C   0  0  0  0  0  0  0  0  0  0  0  0
   -0.0390   14.9700   -0.2970 C   0  0  1  0  0  0  0  0  0  0  0  0
   -1.2430   15.2950   -1.1960 C   0  0  0  0  0  0  0  0  0  0  0  0
   -0.3640   14.2240    1.0260 C   0  0  0  0  0  0  0  0  0  0  0  0
   -2.5080   14.7840   -0.5860 C   0  0  2  0  0  0  0  0  0  0  0  0
   -1.6630   14.5190    1.6510 N   0  0  0  0  0  0  0  0  0  0  0  0
   -3.8180   15.2600   -1.1690 C   0  0  0  0  0  0  0  0  0  0  0  0
   -2.5300   15.2800    0.8300 C   0  0  2  0  0  0  0  0  0  0  0  0
   -4.6840   15.5020    0.0590 C   0  0  0  0  0  0  0  0  0  0  0  0
   -3.9020   15.1220    1.2460 N   0  0  0  0  0  0  0  0  0  0  0  0
  1  2  1  0
  3  2  1  6
  3  4  1  0
  3  5  1  0
  4  6  1  6
  4  7  1  0
  5  8  1  0
  8  9  1  1
  7 10  1  0
  8 10  1  0
  9 11  1  0
 11 12  1  0
 11 13  1  6
 12 14  1  0
 15 14  1  6
 15 16  1  0
 15 17  1  0
 18 16  1  6
 17 19  1  0
 18 20  1  0
 18 21  1  0
 21 19  1  1
 20 22  1  0
 21 23  1  0
 22 23  1  0
M  CHG  1  13  -1
M  END
