ucsf243-ucsf357
     RDKit          3D

 14 14  0  0  0  0  0  0  0  0999 V2000
   -3.7240   15.7030    0.9590 C   0  0  0  0  0  0  0  0  0  0  0  0
   -3.4550   14.8960   -0.3020 C   0  0  1  0  0  0  0  0  0  0  0  0
   -4.2620   15.3750   -1.5110 C   0  0  2  0  0  0  0  0  0  0  0  0
   -1.9230   14.9090   -0.5560 C   0  0  0  0  0  0  0  0  0  0  0  0
   -5.8160   15.3510   -1.4280 C   0  0  1  0  0  0  0  0  0  0  0  0
   -1.3570   15.2900   -1.9530 C   0  0  1  0  0  0  0  0  0  0  0  0
   -3.7500   14.7070   -2.7970 C   0  0  0  0  0  0  0  0  0  0  0  0
    0.0580   14.6290   -2.1280 C   0  0  2  0  0  0  0  0  0  0  0  0
   -6.3430   14.4710   -2.2390 O   0  0  0  0  0  0  0  0  0  0  0  0
   -6.2330   14.8690   -0.1650 O   0  0  0  0  0  0  0  0  0  0  0  0
   -2.3220   15.1090   -3.1660 C   0  0  2  0  0  0  0  0  0  0  0  0
   -1.8330   14.1720   -4.1380 O   0  0  0  0  0  0  0  0  0  0  0  0
    0.1440   14.0020   -3.3910 O   0  0  0  0  0  0  0  0  0  0  0  0
    0.2200   13.5990   -1.3150 O   0  0  0  0  0  0  0  0  0  0  0  0
  2  1  1  1
  2  3  1  0
  2  4  1  0
  3  5  1  0
  6  4  1  1
  3  7  1  6
  6  8  1  0
  5  9  1  6
  5 10  1  0
  6 11  1  0
  7 11  1  0
 11 12  1  6
  8 13  1  6
  8 14  1  0
M  CHG  2   9  -1  14  -1
M  END
