ucsf039-ucsf006
     RDKit          3D

 23 25  0  0  0  0  0  0  0  0999 V2000
   -4.1820   15.5080    1.1700 N   0  0  0  0  0  0  0  0  0  0  0  0
   -3.5960   14.7570    0.0570 C   0  0  2  0  0  0  0  0  0  0  0  0
   -2.1180   14.3840    0.2880 C   0  0  1  0  0  0  0  0  0  0  0  0
   -3.8760   15.5550   -1.0990 N   0  0  0  0  0  0  0  0  0  0  0  0
   -3.2150   15.0980   -2.3060 C   0  0  0  0  0  0  0  0  0  0  0  0
   -1.3220   14.2860   -1.0230 C   0  0  1  0  0  0  0  0  0  0  0  0
   -1.3350   15.2210    1.2130 N   0  0  0  0  0  0  0  0  0  0  0  0
   -1.7670   15.0490   -2.1850 N   0  0  0  0  0  0  0  0  0  0  0  0
    0.0010   14.7640   -0.6100 N   0  0  0  0  0  0  0  0  0  0  0  0
    0.0020   14.8510    0.8280 C   0  0  0  0  0  0  0  0  0  0  0  0
   -1.0250   14.7980   -3.4790 C   0  0  2  0  0  0  0  0  0  0  0  0
   -1.9230   13.9290   -4.3700 C   0  0  0  0  0  0  0  0  0  0  0  0
    0.3750   14.1810   -3.2910 C   0  0  0  0  0  0  0  0  0  0  0  0
   -0.6080   16.0590   -4.3830 C   0  0  2  0  0  0  0  0  0  0  0  0
    1.2090   14.0960   -4.5780 C   0  0  0  0  0  0  0  0  0  0  0  0
    0.6880   16.8110   -4.0470 C   0  0  0  0  0  0  0  0  0  0  0  0
   -1.6510   17.0440   -4.7570 N   0  0  0  0  0  0  0  0  0  0  0  0
    1.3640   12.6660   -5.0570 C   0  0  2  0  0  0  0  0  0  0  0  0
   -0.9860   18.2290   -5.3100 C   0  0  1  0  0  0  0  0  0  0  0  0
    0.7960   17.9240   -5.4610 S   0  0  0  0  0  0  0  0  0  0  0  0
   -1.5500   18.6390   -6.6620 C   0  0  0  0  0  0  0  0  0  0  0  0
    0.0970   12.2030   -5.5030 O   0  0  0  0  0  0  0  0  0  0  0  0
    1.5540   11.9440   -3.9890 O   0  0  0  0  0  0  0  0  0  0  0  0
  2  1  1  1
  2  3  1  0
  2  4  1  0
  4  5  1  0
  3  6  1  0
  3  7  1  1
  5  8  1  0
  6  8  1  0
  6  9  1  1
  7 10  1  0
  9 10  1  0
  8 11  1  0
 11 12  1  6
 11 13  1  0
 11 14  1  0
 13 15  1  0
 14 16  1  1
 14 17  1  0
 15 18  1  0
 17 19  1  0
 16 20  1  0
 19 20  1  0
 19 21  1  6
 18 22  1  1
 18 23  1  0
M  CHG  1  23  -1
M  END
