ucsf348-ucsf378
     RDKit          3D

 25 27  0  0  0  0  0  0  0  0999 V2000
   -6.8860   14.8050    2.7030 N   0  0  0  0  0  0  0  0  0  0  0  0
   -6.2680   14.3880    1.5030 C   0  0  2  0  0  0  0  0  0  0  0  0
   -5.0470   15.1180    1.4190 N   0  0  0  0  0  0  0  0  0  0  0  0
   -7.1230   14.8270    0.4680 N   0  0  0  0  0  0  0  0  0  0  0  0
   -6.5570   14.5220   -0.8280 C   0  0  1  0  0  0  0  0  0  0  0  0
   -4.2620   14.3500    0.4640 C   0  0  1  0  0  0  0  0  0  0  0  0
   -6.9100   15.5330   -1.7470 O   0  0  0  0  0  0  0  0  0  0  0  0
   -5.0350   14.3200   -0.8650 C   0  0  2  0  0  0  0  0  0  0  0  0
   -2.8210   14.8840    0.2880 C   0  0  0  0  0  0  0  0  0  0  0  0
   -2.1600   14.6630   -1.1120 C   0  0  0  0  0  0  0  0  0  0  0  0
   -4.4370   15.3350   -1.7760 C   0  0  0  0  0  0  0  0  0  0  0  0
   -3.2130   14.6580   -2.2550 C   0  0  1  0  0  0  0  0  0  0  0  0
   -2.8740   15.1810   -3.6490 C   0  0  0  0  0  0  0  0  0  0  0  0
   -2.0240   14.1940   -4.3950 C   0  0  0  0  0  0  0  0  0  0  0  0
   -0.5910   14.5380   -4.0410 C   0  0  1  0  0  0  0  0  0  0  0  0
    0.3870   13.3690   -4.3520 C   0  0  2  0  0  0  0  0  0  0  0  0
   -0.2420   15.8760   -4.6680 C   0  0  0  0  0  0  0  0  0  0  0  0
   -0.2060   12.0550   -3.7380 C   0  0  0  0  0  0  0  0  0  0  0  0
    1.7660   13.7020   -3.8030 C   0  0  1  0  0  0  0  0  0  0  0  0
    1.2320   16.0720   -4.7320 C   0  0  0  0  0  0  0  0  0  0  0  0
    3.0600   12.8910   -4.7480 Cl  0  0  0  0  0  0  0  0  0  0  0  0
    0.5090   11.5100   -2.4780 C   0  0  1  0  0  0  0  0  0  0  0  0
    1.9700   15.2040   -3.7260 C   0  0  0  0  0  0  0  0  0  0  0  0
   -0.0620   11.9410   -1.3630 O   0  0  0  0  0  0  0  0  0  0  0  0
    0.2330   10.1320   -2.4020 O   0  0  0  0  0  0  0  0  0  0  0  0
  2  1  1  1
  2  3  1  0
  2  4  1  0
  4  5  1  0
  3  6  1  0
  5  7  1  6
  5  8  1  0
  6  8  1  0
  6  9  1  6
  9 10  1  0
  8 11  1  6
 10 12  1  0
 11 12  1  0
 12 13  1  6
 13 14  1  0
 15 14  1  6
 15 16  1  0
 15 17  1  0
 16 18  1  1
 16 19  1  0
 17 20  1  0
 19 21  1  6
 18 22  1  0
 19 23  1  0
 20 23  1  0
 22 24  1  1
 22 25  1  0
M  CHG  1  24  -1
M  END
