ucsf523-ucsf013
     RDKit          3D

 18 20  0  0  0  0  0  0  0  0999 V2000
   -0.0070   13.9230    1.4230 N   0  0  0  0  0  0  0  0  0  0  0  0
   -0.6460   14.9880    0.7390 C   0  0  2  0  0  0  0  0  0  0  0  0
   -2.0870   15.1180    1.1080 N   0  0  0  0  0  0  0  0  0  0  0  0
   -0.5000   14.9080   -0.6720 N   0  0  0  0  0  0  0  0  0  0  0  0
   -1.6540   15.2200   -1.4070 C   0  0  1  0  0  0  0  0  0  0  0  0
   -2.7530   14.0320    0.4560 C   0  0  2  0  0  0  0  0  0  0  0  0
   -1.3870   14.9410   -2.7670 O   0  0  0  0  0  0  0  0  0  0  0  0
   -2.8560   14.5530   -1.0120 C   0  0  1  0  0  0  0  0  0  0  0  0
   -3.9750   13.5350    0.7720 N   0  0  0  0  0  0  0  0  0  0  0  0
   -5.3510   14.6520    1.1620 S   0  0  0  0  0  0  0  0  0  0  0  0
   -4.0170   15.3080   -0.8800 N   0  0  0  0  0  0  0  0  0  0  0  0
   -6.6140   14.4750    2.6360 O   0  0  0  0  0  0  0  0  0  0  0  0
   -4.4640   16.0060    2.0150 N   0  0  0  0  0  0  0  0  0  0  0  0
   -5.1780   14.6100   -0.5080 C   0  0  2  0  0  0  0  0  0  0  0  0
   -7.1210   14.5160    0.5960 N   0  0  0  0  0  0  0  0  0  0  0  0
   -6.0530   15.0170   -1.6290 C   0  0  0  0  0  0  0  0  0  0  0  0
   -7.6140   15.2990   -0.3490 C   0  0  0  0  0  0  0  0  0  0  0  0
   -7.3890   14.4320   -1.4930 N   0  0  0  0  0  0  0  0  0  0  0  0
  2  1  1  1
  2  3  1  0
  2  4  1  0
  4  5  1  0
  6  3  1  1
  5  7  1  6
  5  8  1  0
  6  8  1  0
  6  9  1  0
  9 10  1  0
  8 11  1  1
 10 12  1  0
 10 13  1  0
 10 14  1  0
 11 14  1  0
 10 15  1  0
 14 16  1  6
 15 17  1  0
 16 18  1  0
 17 18  1  0
M  END
