ucsf110-ucsf387
     RDKit          3D

 24 26  0  0  0  0  0  0  0  0999 V2000
   -0.3940   16.0810   -2.5730 C   0  0  0  0  0  0  0  0  0  0  0  0
   -1.3830   15.0900   -2.2820 N   0  0  0  0  0  0  0  0  0  0  0  0
   -2.7630   15.4740   -2.5090 C   0  0  0  0  0  0  0  0  0  0  0  0
   -1.2880   14.4510   -0.9720 C   0  0  2  0  0  0  0  0  0  0  0  0
   -0.8750   12.9800   -1.1900 C   0  0  0  0  0  0  0  0  0  0  0  0
   -3.3010   15.6570   -1.1110 C   0  0  0  0  0  0  0  0  0  0  0  0
   -2.7210   14.4470   -0.4140 C   0  0  2  0  0  0  0  0  0  0  0  0
   -0.2410   14.9940   -0.1310 N   0  0  0  0  0  0  0  0  0  0  0  0
    0.4190   12.7890   -1.7580 O   0  0  0  0  0  0  0  0  0  0  0  0
   -2.7640   14.5780    1.1010 C   0  0  2  0  0  0  0  0  0  0  0  0
   -0.4360   14.5960    1.2060 C   0  0  0  0  0  0  0  0  0  0  0  0
   -3.8930   15.3450    1.5840 N   0  0  0  0  0  0  0  0  0  0  0  0
    0.3300   12.1030   -2.9910 C   0  0  2  0  0  0  0  0  0  0  0  0
   -1.6340   15.2760    1.5990 N   0  0  0  0  0  0  0  0  0  0  0  0
    0.7200   10.8680   -2.8180 O   0  0  0  0  0  0  0  0  0  0  0  0
    1.2010   12.8640   -4.0450 C   0  0  0  0  0  0  0  0  0  0  0  0
    0.4620   14.0340   -4.7610 C   0  0  1  0  0  0  0  0  0  0  0  0
   -1.0280   14.0090   -4.4050 C   0  0  0  0  0  0  0  0  0  0  0  0
    1.0870   15.4180   -4.4890 C   0  0  0  0  0  0  0  0  0  0  0  0
   -1.7860   15.0860   -5.1630 C   0  0  1  0  0  0  0  0  0  0  0  0
    0.3660   16.5920   -5.1610 C   0  0  2  0  0  0  0  0  0  0  0  0
    0.8680   18.1470   -4.4520 Cl  0  0  0  0  0  0  0  0  0  0  0  0
   -3.5650   15.1320   -4.8180 Cl  0  0  0  0  0  0  0  0  0  0  0  0
   -1.1660   16.5100   -5.1570 C   0  0  0  0  0  0  0  0  0  0  0  0
  1  2  1  0
  2  3  1  0
  2  4  1  0
  4  5  1  6
  3  6  1  0
  4  7  1  0
  7  6  1  6
  4  8  1  0
  5  9  1  0
  7 10  1  0
  8 11  1  0
 10 12  1  6
  9 13  1  0
 10 14  1  0
 11 14  1  0
 13 15  1  1
 13 16  1  0
 17 16  1  1
 17 18  1  0
 17 19  1  0
 18 20  1  0
 19 21  1  0
 21 22  1  1
 20 23  1  1
 20 24  1  0
 21 24  1  0
M  CHG  1  15  -1
M  END
