ucsf004-ucsf519
     RDKit          3D

 26 28  0  0  0  0  0  0  0  0999 V2000
   -1.1260   13.4960   -6.0360 F   0  0  0  0  0  0  0  0  0  0  0  0
   -0.3060   13.6300   -4.9640 C   0  0  1  0  0  0  0  0  0  0  0  0
    1.0380   14.1530   -5.3820 C   0  0  0  0  0  0  0  0  0  0  0  0
   -0.8840   14.5840   -3.9170 C   0  0  0  0  0  0  0  0  0  0  0  0
   -0.0540   14.5250   -2.7150 N   0  0  0  0  0  0  0  0  0  0  0  0
    1.9310   14.3040   -4.1540 C   0  0  0  0  0  0  0  0  0  0  0  0
    1.2620   15.0630   -3.0080 C   0  0  0  0  0  0  0  0  0  0  0  0
   -0.7370   14.9450   -1.4870 C   0  0  2  0  0  0  0  0  0  0  0  0
    0.2560   14.7860   -0.4650 N   0  0  0  0  0  0  0  0  0  0  0  0
   -2.0700   14.2620   -1.1330 C   0  0  1  0  0  0  0  0  0  0  0  0
   -0.1870   15.2240    0.8150 C   0  0  0  0  0  0  0  0  0  0  0  0
   -2.3570   14.1610    0.3800 C   0  0  1  0  0  0  0  0  0  0  0  0
   -3.2660   15.0460   -1.6790 C   0  0  1  0  0  0  0  0  0  0  0  0
   -3.7350   14.5750   -3.0660 C   0  0  1  0  0  0  0  0  0  0  0  0
   -1.2360   14.3540    1.3090 N   0  0  0  0  0  0  0  0  0  0  0  0
   -3.4160   15.1200    0.6840 N   0  0  0  0  0  0  0  0  0  0  0  0
   -4.2720   15.0550   -0.5230 C   0  0  0  0  0  0  0  0  0  0  0  0
   -2.6270   14.1830   -4.0990 C   0  0  2  0  0  0  0  0  0  0  0  0
   -4.6090   13.4540   -2.8570 O   0  0  0  0  0  0  0  0  0  0  0  0
   -2.7400   16.3880    0.5670 O   0  0  0  0  0  0  0  0  0  0  0  0
   -2.9060   14.7870   -5.4700 C   0  0  0  0  0  0  0  0  0  0  0  0
   -2.4720   12.2990   -4.1590 S   0  0  0  0  0  0  0  0  0  0  0  0
   -0.7450   11.8200   -3.5900 C   0  0  0  0  0  0  0  0  0  0  0  0
   -0.6370   11.1720   -2.1800 C   0  0  2  0  0  0  0  0  0  0  0  0
   -0.0590   12.0790   -1.2670 O   0  0  0  0  0  0  0  0  0  0  0  0
    0.2880   10.2340   -2.1270 O   0  0  0  0  0  0  0  0  0  0  0  0
  2  1  1  6
  2  3  1  0
  2  4  1  0
  4  5  1  0
  3  6  1  0
  5  7  1  0
  6  7  1  0
  8  5  1  6
  8  9  1  0
 10  8  1  1
  9 11  1  0
 10 12  1  0
 10 13  1  0
 13 14  1  0
 11 15  1  0
 12 15  1  1
 12 16  1  0
 13 17  1  1
 16 17  1  0
 14 18  1  0
 14 19  1  1
 16 20  1  0
 18 21  1  6
 18 22  1  0
 22 23  1  0
 23 24  1  0
 24 25  1  1
 24 26  1  0
M  CHG  1  26  -1
M  END
