ucsf339-ucsf493
     RDKit          3D

 29 32  0  0  0  0  0  0  0  0999 V2000
    1.2240   14.5630   -2.4250 O   0  0  0  0  0  0  0  0  0  0  0  0
    0.4050   13.8780   -1.6540 C   0  0  2  0  0  0  0  0  0  0  0  0
    0.7530   12.4910   -1.6000 O   0  0  0  0  0  0  0  0  0  0  0  0
   -1.0950   13.8960   -2.1030 C   0  0  1  0  0  0  0  0  0  0  0  0
    0.9400   11.8360   -2.8600 C   0  0  2  0  0  0  0  0  0  0  0  0
   -1.8590   14.4630   -0.9310 C   0  0  0  0  0  0  0  0  0  0  0  0
   -1.4990   14.6430   -3.3760 C   0  0  0  0  0  0  0  0  0  0  0  0
    0.2120   12.5610   -4.0180 C   0  0  0  0  0  0  0  0  0  0  0  0
    0.4210   10.5030   -2.6980 O   0  0  0  0  0  0  0  0  0  0  0  0
   -3.2940   14.9360   -1.1860 C   0  0  1  0  0  0  0  0  0  0  0  0
   -2.9290   14.4150   -3.6640 N   0  0  0  0  0  0  0  0  0  0  0  0
   -3.7780   14.9910   -2.6470 C   0  0  0  0  0  0  0  0  0  0  0  0
   -4.2190   14.2330   -0.1940 C   0  0  0  0  0  0  0  0  0  0  0  0
    0.4930   14.0660   -4.1540 C   0  0  2  0  0  0  0  0  0  0  0  0
   -3.6980   14.3260    1.2450 C   0  0  0  0  0  0  0  0  0  0  0  0
   -5.6600   14.7450   -0.3230 C   0  0  0  0  0  0  0  0  0  0  0  0
   -0.2150   14.9430   -5.1700 C   0  0  1  0  0  0  0  0  0  0  0  0
    1.9210   14.4660   -4.4580 C   0  0  0  0  0  0  0  0  0  0  0  0
   -4.6210   15.1200    2.1490 C   0  0  0  0  0  0  0  0  0  0  0  0
   -6.5430   14.1780    0.7800 C   0  0  0  0  0  0  0  0  0  0  0  0
   -1.7440   14.9700   -5.2340 C   0  0  0  0  0  0  0  0  0  0  0  0
    0.4180   16.2410   -4.7250 C   0  0  1  0  0  0  0  0  0  0  0  0
    1.8180   15.8940   -4.8920 N   0  0  0  0  0  0  0  0  0  0  0  0
   -6.0080   14.4920    2.1770 C   0  0  0  0  0  0  0  0  0  0  0  0
   -2.4190   16.3680   -5.1620 C   0  0  2  0  0  0  0  0  0  0  0  0
   -0.0470   17.4670   -5.4800 C   0  0  0  0  0  0  0  0  0  0  0  0
   -3.5880   16.4230   -5.9830 O   0  0  0  0  0  0  0  0  0  0  0  0
   -1.5740   17.5860   -5.5860 C   0  0  0  0  0  0  0  0  0  0  0  0
   -4.3750   15.2380   -5.9670 C   0  0  0  0  0  0  0  0  0  0  0  0
  2  1  1  6
  2  3  1  0
  2  4  1  0
  3  5  1  0
  4  6  1  1
  4  7  1  0
  5  8  1  0
  5  9  1  1
  6 10  1  0
  7 11  1  0
 10 12  1  0
 11 12  1  0
 10 13  1  1
 14  8  1  6
 13 15  1  0
 13 16  1  0
 14 17  1  0
 14 18  1  0
 15 19  1  0
 16 20  1  0
 17 21  1  1
 17 22  1  0
 18 23  1  0
 22 23  1  0
 19 24  1  0
 20 24  1  0
 21 25  1  0
 22 26  1  6
 25 27  1  6
 25 28  1  0
 26 28  1  0
 27 29  1  0
M  CHG  1   1  -1
M  END
