ucsf005-ucsf110
     RDKit          3D

 12 13  0  0  0  0  0  0  0  0999 V2000
   -1.1790   14.9420   -3.2960 C   0  0  0  0  0  0  0  0  0  0  0  0
   -2.3110   14.4640   -2.5200 N   0  0  0  0  0  0  0  0  0  0  0  0
   -3.5300   15.2480   -2.6270 C   0  0  0  0  0  0  0  0  0  0  0  0
   -2.0820   14.0520   -1.1260 C   0  0  2  0  0  0  0  0  0  0  0  0
   -3.9150   15.5920   -1.2580 N   0  0  0  0  0  0  0  0  0  0  0  0
   -3.4340   14.4110   -0.5100 C   0  0  2  0  0  0  0  0  0  0  0  0
   -0.9070   14.6690   -0.5380 N   0  0  0  0  0  0  0  0  0  0  0  0
   -3.4020   14.5200    1.0270 C   0  0  2  0  0  0  0  0  0  0  0  0
   -0.9630   15.0480    0.8440 C   0  0  2  0  0  0  0  0  0  0  0  0
   -4.3640   15.4370    1.6200 N   0  0  0  0  0  0  0  0  0  0  0  0
    0.0380   14.2940    1.5220 N   0  0  0  0  0  0  0  0  0  0  0  0
   -2.1200   14.7640    1.6330 N   0  0  0  0  0  0  0  0  0  0  0  0
  1  2  1  0
  2  3  1  0
  2  4  1  0
  3  5  1  0
  4  6  1  0
  6  5  1  6
  4  7  1  1
  6  8  1  0
  7  9  1  0
  8 10  1  6
  9 11  1  1
  8 12  1  0
  9 12  1  0
M  END
