ucsf424-ucsf114
     RDKit          3D

 29 32  0  0  0  0  0  0  0  0999 V2000
    1.7930   12.5400   -2.3500 O   0  0  0  0  0  0  0  0  0  0  0  0
    1.4430   12.5790   -3.6110 C   0  0  1  0  0  0  0  0  0  0  0  0
    0.8220   11.2970   -3.5300 O   0  0  0  0  0  0  0  0  0  0  0  0
    0.1790   13.5080   -4.0520 C   0  0  1  0  0  0  0  0  0  0  0  0
    0.6210   14.8880   -4.7920 C   0  0  0  0  0  0  0  0  0  0  0  0
   -0.0140   12.2130   -5.1470 C   0  0  2  0  0  0  0  0  0  0  0  0
   -0.3430   13.8090   -2.5730 N   0  0  0  0  0  0  0  0  0  0  0  0
   -0.4730   15.8830   -4.8430 O   0  0  0  0  0  0  0  0  0  0  0  0
    0.7930   12.3340   -6.4190 N   0  0  0  0  0  0  0  0  0  0  0  0
   -1.2370   11.4580   -5.7260 C   0  0  1  0  0  0  0  0  0  0  0  0
   -1.3600   14.9130   -2.3470 C   0  0  2  0  0  0  0  0  0  0  0  0
    0.7130   14.3060   -1.6330 C   0  0  2  0  0  0  0  0  0  0  0  0
   -0.1780   17.2260   -5.2990 C   0  0  0  0  0  0  0  0  0  0  0  0
    2.5120   14.2270   -1.8230 S   0  0  0  0  0  0  0  0  0  0  0  0
    0.5870   11.1100   -7.2060 O   0  0  0  0  0  0  0  0  0  0  0  0
   -0.4860   10.4320   -6.5810 C   0  0  2  0  0  0  0  0  0  0  0  0
   -2.1890   10.6220   -4.8740 C   0  0  0  0  0  0  0  0  0  0  0  0
   -1.7120   15.2450   -0.8250 C   0  0  2  0  0  0  0  0  0  0  0  0
    0.3870   14.0260   -0.2570 N   0  0  0  0  0  0  0  0  0  0  0  0
   -2.7690   14.7880   -2.9410 C   0  0  0  0  0  0  0  0  0  0  0  0
    0.8040   17.9530   -4.3910 C   0  0  0  0  0  0  0  0  0  0  0  0
   -1.5000   18.0060   -5.3340 C   0  0  0  0  0  0  0  0  0  0  0  0
   -1.3790    9.6940   -7.5630 C   0  0  0  0  0  0  0  0  0  0  0  0
   -3.0930    9.6600   -5.6990 C   0  0  0  0  0  0  0  0  0  0  0  0
   -0.5880   14.9730    0.2260 C   0  0  2  0  0  0  0  0  0  0  0  0
   -3.0220   14.6380   -0.5860 N   0  0  0  0  0  0  0  0  0  0  0  0
   -3.7450   15.0210   -1.7870 C   0  0  0  0  0  0  0  0  0  0  0  0
   -1.0830   14.4800    1.4790 O   0  0  0  0  0  0  0  0  0  0  0  0
   -2.3940    8.8520   -6.7980 C   0  0  0  0  0  0  0  0  0  0  0  0
  2  1  1  1
  2  3  1  0
  2  4  1  0
  4  5  1  6
  4  6  1  0
  4  7  1  0
  5  8  1  0
  6  9  1  6
  6 10  1  0
  7 11  1  0
  7 12  1  0
  8 13  1  0
 12 14  1  6
  9 15  1  0
 10 16  1  0
 15 16  1  0
 10 17  1  1
 11 18  1  0
 12 19  1  0
 11 20  1  6
 13 21  1  0
 13 22  1  0
 16 23  1  6
 17 24  1  0
 18 25  1  0
 19 25  1  0
 18 26  1  1
 20 27  1  0
 26 27  1  0
 25 28  1  1
 23 29  1  0
 24 29  1  0
M  CHG  1   1  -1
M  END
