ucsf357-ucsf380
     RDKit          3D

 19 20  0  0  0  0  0  0  0  0999 V2000
   -6.1470   15.1820   -2.1050 O   0  0  0  0  0  0  0  0  0  0  0  0
   -5.5410   15.5310   -1.0000 C   0  0  1  0  0  0  0  0  0  0  0  0
   -6.3850   14.9560   -0.0250 O   0  0  0  0  0  0  0  0  0  0  0  0
   -4.1290   14.9010   -0.8970 C   0  0  1  0  0  0  0  0  0  0  0  0
   -3.3260   14.9370   -2.2000 C   0  0  0  0  0  0  0  0  0  0  0  0
   -3.3270   15.2670    0.3730 C   0  0  0  0  0  0  0  0  0  0  0  0
   -2.0360   14.1410   -2.0870 C   0  0  1  0  0  0  0  0  0  0  0  0
   -1.8610   14.7450    0.3840 C   0  0  0  0  0  0  0  0  0  0  0  0
   -1.2800   14.0670   -3.2810 O   0  0  0  0  0  0  0  0  0  0  0  0
   -1.1000   14.6570   -0.9780 C   0  0  1  0  0  0  0  0  0  0  0  0
    0.2460   14.0150   -0.8620 N   0  0  0  0  0  0  0  0  0  0  0  0
   -1.1810   12.7320   -3.6870 C   0  0  0  0  0  0  0  0  0  0  0  0
    1.1130   14.6260   -1.8320 O   0  0  0  0  0  0  0  0  0  0  0  0
    0.1580   12.6410   -1.2850 O   0  0  0  0  0  0  0  0  0  0  0  0
   -2.6330   12.2100   -3.6960 C   0  0  0  0  0  0  0  0  0  0  0  0
   -0.5170   12.6410   -5.0490 C   0  0  0  0  0  0  0  0  0  0  0  0
   -2.7520   10.8170   -4.2840 C   0  0  0  0  0  0  0  0  0  0  0  0
   -1.4460   12.0440   -6.0810 C   0  0  0  0  0  0  0  0  0  0  0  0
   -2.0110   10.7040   -5.6100 C   0  0  0  0  0  0  0  0  0  0  0  0
  2  1  1  6
  2  3  1  0
  2  4  1  0
  4  5  1  6
  4  6  1  0
  5  7  1  0
  6  8  1  0
  7  9  1  6
  7 10  1  0
  8 10  1  0
 10 11  1  1
  9 12  1  0
 11 13  1  0
 11 14  1  0
 12 15  1  0
 12 16  1  0
 15 17  1  0
 16 18  1  0
 17 19  1  0
 18 19  1  0
M  CHG  2   1  -1  13  -1
M  END
