ucsf260-ucsf365
     RDKit          3D

 21 23  0  0  0  0  0  0  0  0999 V2000
    0.9060   11.2730   -2.4050 O   0  0  0  0  0  0  0  0  0  0  0  0
    1.2500   12.3550   -3.0790 C   0  0  2  0  0  0  0  0  0  0  0  0
    0.9840   13.3540   -2.1270 O   0  0  0  0  0  0  0  0  0  0  0  0
    0.3660   12.4850   -4.3600 C   0  0  2  0  0  0  0  0  0  0  0  0
    1.0170   12.6470   -5.7250 C   0  0  0  0  0  0  0  0  0  0  0  0
   -0.9010   13.4180   -4.5000 C   0  0  1  0  0  0  0  0  0  0  0  0
    0.0570   12.2270   -6.7610 N   0  0  0  0  0  0  0  0  0  0  0  0
   -2.2110   12.7870   -4.0340 C   0  0  2  0  0  0  0  0  0  0  0  0
   -0.8320   14.9110   -4.2070 C   0  0  0  0  0  0  0  0  0  0  0  0
   -2.1510   11.3700   -4.2500 O   0  0  0  0  0  0  0  0  0  0  0  0
   -1.3580   12.2430   -6.3600 C   0  0  0  0  0  0  0  0  0  0  0  0
    0.3180   10.8630   -7.1310 C   0  0  1  0  0  0  0  0  0  0  0  0
   -3.3970   13.3400   -4.8330 C   0  0  0  0  0  0  0  0  0  0  0  0
   -2.0870   15.5820   -4.8040 C   0  0  0  0  0  0  0  0  0  0  0  0
   -1.6970   10.9130   -5.8150 N   0  0  0  0  0  0  0  0  0  0  0  0
   -0.6840   10.0020   -6.3460 C   0  0  1  0  0  0  0  0  0  0  0  0
    0.2120   10.6920   -8.6180 C   0  0  0  0  0  0  0  0  0  0  0  0
   -3.0400   14.6360   -5.5700 C   0  0  0  0  0  0  0  0  0  0  0  0
   -1.2990    8.8860   -7.1810 C   0  0  0  0  0  0  0  0  0  0  0  0
    0.5070    9.2460   -8.9600 C   0  0  0  0  0  0  0  0  0  0  0  0
   -0.2210    8.2510   -8.0510 C   0  0  0  0  0  0  0  0  0  0  0  0
  2  1  1  1
  2  3  1  0
  2  4  1  0
  4  5  1  6
  4  6  1  0
  5  7  1  0
  6  8  1  0
  6  9  1  1
  8 10  1  6
  7 11  1  0
  7 12  1  0
  8 13  1  0
  9 14  1  0
 11 15  1  0
 12 16  1  0
 15 16  1  0
 12 17  1  6
 13 18  1  0
 14 18  1  0
 16 19  1  6
 17 20  1  0
 19 21  1  0
 20 21  1  0
M  CHG  1   1  -1
M  END
