ucsf404-ucsf519
     RDKit          3D

 21 22  0  0  0  0  0  0  0  0999 V2000
   -6.7080   15.0490   -2.4310 Cl  0  0  0  0  0  0  0  0  0  0  0  0
   -5.1390   15.5090   -1.6860 C   0  0  1  0  0  0  0  0  0  0  0  0
   -4.9140   14.6680   -0.4690 C   0  0  2  0  0  0  0  0  0  0  0  0
   -3.9980   15.3940   -2.6720 C   0  0  0  0  0  0  0  0  0  0  0  0
   -5.9030   15.0080    0.5550 N   0  0  0  0  0  0  0  0  0  0  0  0
   -3.5050   14.7860    0.0880 C   0  0  1  0  0  0  0  0  0  0  0  0
   -2.9460   14.3020   -2.4140 C   0  0  1  0  0  0  0  0  0  0  0  0
   -2.0460   14.2990   -3.6980 C   0  0  2  0  0  0  0  0  0  0  0  0
   -5.2620   15.0510    1.8200 C   0  0  2  0  0  0  0  0  0  0  0  0
   -3.7870   14.0310    1.7000 S   0  0  0  0  0  0  0  0  0  0  0  0
   -2.4650   14.2530   -0.9290 C   0  0  1  0  0  0  0  0  0  0  0  0
   -6.3540   14.6360    2.6410 N   0  0  0  0  0  0  0  0  0  0  0  0
   -0.5810   14.8370   -3.7190 C   0  0  2  0  0  0  0  0  0  0  0  0
   -2.7870   14.8900   -4.7630 O   0  0  0  0  0  0  0  0  0  0  0  0
   -1.2360   15.0170   -0.8200 O   0  0  0  0  0  0  0  0  0  0  0  0
   -0.3700   16.1990   -4.3960 C   0  0  0  0  0  0  0  0  0  0  0  0
    0.3740   13.6710   -4.7960 S   0  0  0  0  0  0  0  0  0  0  0  0
    0.1320   12.0380   -3.9550 C   0  0  0  0  0  0  0  0  0  0  0  0
    0.8020   11.6070   -2.6240 C   0  0  1  0  0  0  0  0  0  0  0  0
    0.3870   12.3630   -1.5020 O   0  0  0  0  0  0  0  0  0  0  0  0
    0.4690   10.3740   -2.2590 O   0  0  0  0  0  0  0  0  0  0  0  0
  2  1  1  6
  2  3  1  0
  2  4  1  0
  3  5  1  1
  3  6  1  0
  7  4  1  1
  7  8  1  0
  5  9  1  0
  6 10  1  1
  9 10  1  0
  6 11  1  0
  7 11  1  0
  9 12  1  1
  8 13  1  0
  8 14  1  6
 11 15  1  6
 13 16  1  6
 13 17  1  0
 17 18  1  0
 18 19  1  0
 19 20  1  1
 19 21  1  0
M  CHG  1  21  -1
M  END
