ucsf114-ucsf333
     RDKit          3D

 22 23  0  0  0  0  0  0  0  0999 V2000
    0.8220   18.1410   -4.5010 C   0  0  0  0  0  0  0  0  0  0  0  0
   -0.2640   17.7030   -5.4660 C   0  0  0  0  0  0  0  0  0  0  0  0
   -1.5250   18.5450   -5.3190 C   0  0  0  0  0  0  0  0  0  0  0  0
   -0.6420   16.3580   -5.1860 O   0  0  0  0  0  0  0  0  0  0  0  0
    0.4500   15.5080   -4.7810 C   0  0  0  0  0  0  0  0  0  0  0  0
   -0.0150   14.3720   -3.8230 C   0  0  1  0  0  0  0  0  0  0  0  0
    0.6490   12.9690   -4.0200 C   0  0  0  0  0  0  0  0  0  0  0  0
   -0.2830   14.7140   -2.3670 N   0  0  0  0  0  0  0  0  0  0  0  0
    0.6470   12.0590   -2.7830 C   0  0  2  0  0  0  0  0  0  0  0  0
   -1.5820   14.1430   -1.9540 C   0  0  1  0  0  0  0  0  0  0  0  0
    0.6950   14.1580   -1.4260 C   0  0  1  0  0  0  0  0  0  0  0  0
    2.4580   14.3160   -1.8870 S   0  0  0  0  0  0  0  0  0  0  0  0
    1.8580   12.0790   -2.3010 O   0  0  0  0  0  0  0  0  0  0  0  0
    0.4650   10.7050   -3.1250 O   0  0  0  0  0  0  0  0  0  0  0  0
   -1.8950   14.1050   -0.4300 C   0  0  1  0  0  0  0  0  0  0  0  0
    0.5260   14.8510   -0.1650 N   0  0  0  0  0  0  0  0  0  0  0  0
   -2.8490   14.7490   -2.5880 C   0  0  0  0  0  0  0  0  0  0  0  0
   -0.6770   14.4000    0.4920 C   0  0  1  0  0  0  0  0  0  0  0  0
   -3.0690   15.0050   -0.2670 N   0  0  0  0  0  0  0  0  0  0  0  0
   -3.8370   14.5960   -1.4380 C   0  0  1  0  0  0  0  0  0  0  0  0
   -1.0540   15.3160    1.4970 O   0  0  0  0  0  0  0  0  0  0  0  0
   -5.3470   15.5340   -1.4910 Cl  0  0  0  0  0  0  0  0  0  0  0  0
  1  2  1  0
  2  3  1  0
  2  4  1  0
  4  5  1  0
  6  5  1  1
  6  7  1  0
  6  8  1  0
  7  9  1  0
  8 10  1  0
  8 11  1  0
 11 12  1  6
  9 13  1  6
  9 14  1  0
 10 15  1  0
 11 16  1  0
 10 17  1  6
 15 18  1  0
 16 18  1  0
 15 19  1  6
 17 20  1  0
 19 20  1  0
 18 21  1  1
 20 22  1  6
M  CHG  1  13  -1
M  END
