ucsf493-ucsf392
     RDKit          3D

 26 28  0  0  0  0  0  0  0  0999 V2000
   -4.2080   15.1360   -5.6460 C   0  0  0  0  0  0  0  0  0  0  0  0
   -3.2840   16.1840   -5.9050 O   0  0  0  0  0  0  0  0  0  0  0  0
   -2.3090   16.3950   -4.8700 C   0  0  1  0  0  0  0  0  0  0  0  0
   -1.6030   15.0630   -4.5270 C   0  0  0  0  0  0  0  0  0  0  0  0
   -1.3590   17.5230   -5.3060 C   0  0  0  0  0  0  0  0  0  0  0  0
   -0.1920   14.8710   -5.1250 C   0  0  1  0  0  0  0  0  0  0  0  0
    0.0400   17.4150   -4.7070 C   0  0  0  0  0  0  0  0  0  0  0  0
    0.7280   16.1080   -5.0940 C   0  0  1  0  0  0  0  0  0  0  0  0
    0.6870   13.7000   -4.6580 C   0  0  2  0  0  0  0  0  0  0  0  0
    0.0330   12.5790   -3.8420 C   0  0  0  0  0  0  0  0  0  0  0  0
    1.7910   15.7780   -4.1400 N   0  0  0  0  0  0  0  0  0  0  0  0
    1.9850   14.3150   -4.1540 C   0  0  0  0  0  0  0  0  0  0  0  0
    0.8310   11.8610   -2.7370 C   0  0  2  0  0  0  0  0  0  0  0  0
    0.4200   10.5040   -2.6190 O   0  0  0  0  0  0  0  0  0  0  0  0
    0.6090   12.5700   -1.5180 O   0  0  0  0  0  0  0  0  0  0  0  0
    1.3340   13.8010   -1.5180 C   0  0  0  0  0  0  0  0  0  0  0  0
    0.7940   14.8280   -0.5270 C   0  0  0  0  0  0  0  0  0  0  0  0
   -0.1070   14.3980    0.6380 C   0  0  0  0  0  0  0  0  0  0  0  0
   -1.5790   14.6740    0.3390 C   0  0  1  0  0  0  0  0  0  0  0  0
   -2.2830   15.3520    1.3740 N   0  0  0  0  0  0  0  0  0  0  0  0
   -1.6150   15.4900   -0.8370 N   0  0  0  0  0  0  0  0  0  0  0  0
   -3.5700   15.8670    0.9640 C   0  0  2  0  0  0  0  0  0  0  0  0
   -2.9190   15.3810   -1.4500 C   0  0  0  0  0  0  0  0  0  0  0  0
   -4.4760   15.4070    1.9810 N   0  0  0  0  0  0  0  0  0  0  0  0
   -4.0840   15.5630   -0.4620 C   0  0  1  0  0  0  0  0  0  0  0  0
   -5.0840   14.4220   -0.5480 C   0  0  0  0  0  0  0  0  0  0  0  0
  1  2  1  0
  3  2  1  6
  3  4  1  0
  3  5  1  0
  6  4  1  1
  5  7  1  0
  6  8  1  0
  8  7  1  1
  6  9  1  0
  9 10  1  1
  8 11  1  0
  9 12  1  0
 11 12  1  0
 10 13  1  0
 13 14  1  1
 13 15  1  0
 15 16  1  0
 16 17  1  0
 17 18  1  0
 19 18  1  1
 19 20  1  0
 19 21  1  0
 20 22  1  0
 21 23  1  0
 22 24  1  1
 22 25  1  0
 23 25  1  0
 25 26  1  1
M  END
