ucsf135-ucsf109
     RDKit          3D

 27 31  0  0  0  0  0  0  0  0999 V2000
    1.7280   11.6690   -7.0780 O   0  0  0  0  0  0  0  0  0  0  0  0
    0.5100   11.9720   -6.4910 C   0  0  2  0  0  0  0  0  0  0  0  0
    0.6850   12.0280   -5.0450 N   0  0  0  0  0  0  0  0  0  0  0  0
   -0.6310   10.9810   -6.9180 C   0  0  2  0  0  0  0  0  0  0  0  0
   -0.6810   11.4390   -4.3200 S   0  0  2  0  0  0  0  0  0  0  0  0
   -1.4640   10.5750   -5.6770 C   0  0  2  0  0  0  0  0  0  0  0  0
   -0.1540    9.7390   -7.6970 C   0  0  0  0  0  0  0  0  0  0  0  0
   -1.7160   12.5630   -3.8220 O   0  0  0  0  0  0  0  0  0  0  0  0
   -0.3570   10.3380   -3.2140 O   0  0  0  0  0  0  0  0  0  0  0  0
   -1.6730    9.0850   -5.5360 C   0  0  0  0  0  0  0  0  0  0  0  0
   -1.3230    8.8200   -8.0510 C   0  0  0  0  0  0  0  0  0  0  0  0
   -1.7160   13.8740   -4.4000 C   0  0  0  0  0  0  0  0  0  0  0  0
   -2.1230    8.3900   -6.8200 C   0  0  0  0  0  0  0  0  0  0  0  0
   -2.2170   14.9200   -3.3880 C   0  0  0  0  0  0  0  0  0  0  0  0
   -3.2790   14.4060   -2.3960 C   0  0  1  0  0  0  0  0  0  0  0  0
   -3.1660   14.8640   -0.9390 C   0  0  0  0  0  0  0  0  0  0  0  0
   -4.7230   14.8610   -2.6370 C   0  0  0  0  0  0  0  0  0  0  0  0
   -5.4400   14.2620   -1.4190 C   0  0  1  0  0  0  0  0  0  0  0  0
   -4.3200   14.0560   -0.3720 C   0  0  2  0  0  0  0  0  0  0  0  0
   -4.7560   14.2240    1.0890 C   0  0  1  0  0  0  0  0  0  0  0  0
   -6.5510   15.0010   -0.8600 N   0  0  0  0  0  0  0  0  0  0  0  0
   -4.4120   15.4880    1.7200 N   0  0  0  0  0  0  0  0  0  0  0  0
   -6.1880   13.9690    1.3010 N   0  0  0  0  0  0  0  0  0  0  0  0
   -7.0870   14.1560    0.1750 C   0  0  1  0  0  0  0  0  0  0  0  0
   -8.2780   14.7840    0.7190 N   0  0  0  0  0  0  0  0  0  0  0  0
   -6.7590   14.5910    2.4810 N   0  0  0  0  0  0  0  0  0  0  0  0
   -8.1680   14.7160    2.1690 C   0  0  0  0  0  0  0  0  0  0  0  0
  2  1  1  6
  2  3  1  0
  2  4  1  0
  3  5  1  0
  4  6  1  0
  5  6  1  0
  4  7  1  1
  5  8  1  0
  5  9  1  1
  6 10  1  1
  7 11  1  0
  8 12  1  0
 10 13  1  0
 11 13  1  0
 12 14  1  0
 15 14  1  6
 15 16  1  0
 15 17  1  0
 18 17  1  6
 19 16  1  6
 18 19  1  0
 19 20  1  0
 18 21  1  0
 20 22  1  6
 20 23  1  0
 24 21  1  6
 23 24  1  0
 24 25  1  0
 23 26  1  0
 25 27  1  0
 26 27  1  0
M  END
