ucsf224-ucsf396
     RDKit          3D

 24 25  0  0  0  0  0  0  0  0999 V2000
   -1.2430   18.2580   -5.1630 Cl  0  0  0  0  0  0  0  0  0  0  0  0
   -0.5920   16.7940   -4.3380 C   0  0  1  0  0  0  0  0  0  0  0  0
   -1.2410   15.5340   -4.9320 C   0  0  2  0  0  0  0  0  0  0  0  0
    0.9370   16.7200   -4.4750 C   0  0  0  0  0  0  0  0  0  0  0  0
   -2.7570   15.6650   -5.2030 C   0  0  0  0  0  0  0  0  0  0  0  0
   -0.7790   14.3060   -4.1690 C   0  0  0  0  0  0  0  0  0  0  0  0
    1.5050   15.3790   -3.9730 C   0  0  0  0  0  0  0  0  0  0  0  0
   -3.6710   14.9190   -4.2380 C   0  0  0  0  0  0  0  0  0  0  0  0
    0.7140   14.1630   -4.5120 C   0  0  1  0  0  0  0  0  0  0  0  0
    1.3240   12.7830   -4.1200 C   0  0  0  0  0  0  0  0  0  0  0  0
   -3.6050   15.4790   -2.8190 C   0  0  0  0  0  0  0  0  0  0  0  0
    1.2520   12.3620   -2.6300 C   0  0  2  0  0  0  0  0  0  0  0  0
   -3.1900   14.4360   -1.7910 C   0  0  0  0  0  0  0  0  0  0  0  0
    0.4870   11.2900   -2.4850 O   0  0  0  0  0  0  0  0  0  0  0  0
    0.5420   13.3130   -1.8840 O   0  0  0  0  0  0  0  0  0  0  0  0
   -2.8050   15.1560   -0.5810 N   0  0  0  0  0  0  0  0  0  0  0  0
   -3.7920   15.1970    0.4850 C   0  0  2  0  0  0  0  0  0  0  0  0
   -3.1310   14.7250    1.6510 O   0  0  0  0  0  0  0  0  0  0  0  0
   -5.1920   14.5620    0.2490 C   0  0  2  0  0  0  0  0  0  0  0  0
   -5.9480   15.3240   -0.8810 C   0  0  0  0  0  0  0  0  0  0  0  0
   -6.0120   14.4180    1.5490 C   0  0  0  0  0  0  0  0  0  0  0  0
   -7.3640   14.9790   -1.0600 N   0  0  0  0  0  0  0  0  0  0  0  0
   -7.5150   14.4420    1.3960 C   0  0  0  0  0  0  0  0  0  0  0  0
   -7.9050   14.0910   -0.0250 C   0  0  0  0  0  0  0  0  0  0  0  0
  2  1  1  6
  2  3  1  0
  2  4  1  0
  3  5  1  1
  3  6  1  0
  4  7  1  0
  5  8  1  0
  6  9  1  0
  7  9  1  0
  9 10  1  1
  8 11  1  0
 10 12  1  0
 11 13  1  0
 12 14  1  6
 12 15  1  0
 13 16  1  0
 16 17  1  0
 17 18  1  1
 17 19  1  0
 19 20  1  6
 19 21  1  0
 20 22  1  0
 21 23  1  0
 22 24  1  0
 23 24  1  0
M  CHG  1  14  -1
M  END
