ucsf385-ucsf493
     RDKit          3D

 26 28  0  0  0  0  0  0  0  0999 V2000
   -3.8160   14.6870   -1.2540 N   0  0  0  0  0  0  0  0  0  0  0  0
   -2.6310   15.0000   -0.4090 C   0  0  1  0  0  0  0  0  0  0  0  0
   -2.9160   14.5610    1.0250 C   0  0  0  0  0  0  0  0  0  0  0  0
   -1.3490   14.2530   -0.8630 C   0  0  1  0  0  0  0  0  0  0  0  0
   -1.0390   14.4910   -2.3510 C   0  0  2  0  0  0  0  0  0  0  0  0
   -0.1310   14.4930    0.0660 C   0  0  0  0  0  0  0  0  0  0  0  0
   -1.7680   14.9010    1.8550 N   0  0  0  0  0  0  0  0  0  0  0  0
    0.3770   14.7680   -2.3830 O   0  0  0  0  0  0  0  0  0  0  0  0
   -1.7240   15.5330   -2.7820 O   0  0  0  0  0  0  0  0  0  0  0  0
   -0.5120   14.2480    1.4910 C   0  0  0  0  0  0  0  0  0  0  0  0
    1.1720   13.7630   -1.7410 C   0  0  0  0  0  0  0  0  0  0  0  0
    1.4920   12.6820   -2.6240 O   0  0  0  0  0  0  0  0  0  0  0  0
    0.3430   12.1050   -3.2100 C   0  0  1  0  0  0  0  0  0  0  0  0
    0.3440   12.4400   -4.7120 C   0  0  0  0  0  0  0  0  0  0  0  0
    0.4060   10.7040   -3.0180 O   0  0  0  0  0  0  0  0  0  0  0  0
    0.6210   13.9100   -5.0920 C   0  0  1  0  0  0  0  0  0  0  0  0
   -0.4040   14.9240   -4.5530 C   0  0  2  0  0  0  0  0  0  0  0  0
    1.8700   14.5070   -4.4870 C   0  0  0  0  0  0  0  0  0  0  0  0
   -1.7780   14.8730   -5.2310 C   0  0  0  0  0  0  0  0  0  0  0  0
    0.3770   16.2610   -4.5230 C   0  0  1  0  0  0  0  0  0  0  0  0
    1.7130   15.8930   -4.9640 N   0  0  0  0  0  0  0  0  0  0  0  0
   -2.4290   16.2330   -5.5470 C   0  0  1  0  0  0  0  0  0  0  0  0
   -0.2050   17.4170   -5.3190 C   0  0  0  0  0  0  0  0  0  0  0  0
   -3.7240   16.0940   -5.0180 O   0  0  0  0  0  0  0  0  0  0  0  0
   -1.6950   17.4700   -5.0160 C   0  0  0  0  0  0  0  0  0  0  0  0
   -4.5000   15.1770   -5.7800 C   0  0  0  0  0  0  0  0  0  0  0  0
  2  1  1  6
  2  3  1  0
  2  4  1  0
  4  5  1  0
  4  6  1  1
  3  7  1  0
  5  8  1  0
  5  9  1  1
  6 10  1  0
  7 10  1  0
  8 11  1  0
 11 12  1  0
 12 13  1  0
 13 14  1  0
 13 15  1  6
 16 14  1  1
 16 17  1  0
 16 18  1  0
 17 19  1  6
 17 20  1  0
 18 21  1  0
 20 21  1  0
 19 22  1  0
 20 23  1  6
 22 24  1  1
 22 25  1  0
 23 25  1  0
 24 26  1  0
M  CHG  1   9  -1
M  END
