ucsf258-ucsf172
     RDKit          3D

 15 15  0  0  0  0  0  0  0  0999 V2000
    0.4260   13.0170   -1.1570 O   0  0  0  0  0  0  0  0  0  0  0  0
   -0.4640   13.3050   -2.1050 C   0  0  2  0  0  0  0  0  0  0  0  0
    0.3420   13.8650   -3.1330 O   0  0  0  0  0  0  0  0  0  0  0  0
   -1.4840   14.4180   -1.6410 C   0  0  1  0  0  0  0  0  0  0  0  0
   -2.8280   14.3380   -2.4270 C   0  0  2  0  0  0  0  0  0  0  0  0
   -1.6500   14.5040   -0.1560 N   0  0  0  0  0  0  0  0  0  0  0  0
   -2.5840   14.8510   -3.7650 O   0  0  0  0  0  0  0  0  0  0  0  0
   -4.0520   15.1010   -1.8560 C   0  0  0  0  0  0  0  0  0  0  0  0
   -3.0270   14.3830    0.3310 C   0  0  0  0  0  0  0  0  0  0  0  0
   -4.0420   15.3220   -0.3210 C   0  0  2  0  0  0  0  0  0  0  0  0
   -5.3820   15.4400    0.2940 N   0  0  0  0  0  0  0  0  0  0  0  0
   -6.5230   14.3620    0.8200 S   0  0  0  0  0  0  0  0  0  0  0  0
   -7.5300   14.7780    2.2020 C   0  0  0  0  0  0  0  0  0  0  0  0
   -5.9250   12.9640    1.3000 O   0  0  0  0  0  0  0  0  0  0  0  0
   -7.6150   14.0570   -0.3100 O   0  0  0  0  0  0  0  0  0  0  0  0
  2  1  1  1
  2  3  1  0
  2  4  1  0
  4  5  1  0
  4  6  1  1
  5  7  1  6
  5  8  1  0
  6  9  1  0
  8 10  1  0
  9 10  1  0
 10 11  1  1
 11 12  1  0
 12 13  1  0
 12 14  1  0
 12 15  1  0
M  CHG  1   1  -1
M  END
