ucsf114-ucsf523
     RDKit          3D

 22 24  0  0  0  0  0  0  0  0999 V2000
    0.8100   18.1910   -4.5890 C   0  0  0  0  0  0  0  0  0  0  0  0
   -0.3050   17.6440   -5.4660 C   0  0  0  0  0  0  0  0  0  0  0  0
   -1.5790   18.4700   -5.3330 C   0  0  0  0  0  0  0  0  0  0  0  0
   -0.6130   16.3180   -5.0470 O   0  0  0  0  0  0  0  0  0  0  0  0
    0.5470   15.6290   -4.5620 C   0  0  0  0  0  0  0  0  0  0  0  0
    0.1460   14.2950   -3.9120 C   0  0  0  0  0  0  0  0  0  0  0  0
   -0.2060   14.2800   -2.4670 N   0  0  0  0  0  0  0  0  0  0  0  0
   -1.2340   15.2370   -2.0580 C   0  0  2  0  0  0  0  0  0  0  0  0
    0.9170   14.3600   -1.5600 C   0  0  2  0  0  0  0  0  0  0  0  0
    2.4880   13.6930   -2.1810 S   0  0  0  0  0  0  0  0  0  0  0  0
   -1.3040   15.6000   -0.5470 C   0  0  2  0  0  0  0  0  0  0  0  0
    0.5300   13.9230   -0.2440 N   0  0  0  0  0  0  0  0  0  0  0  0
   -2.6970   14.9840   -2.5080 C   0  0  0  0  0  0  0  0  0  0  0  0
   -0.3070   14.8910    0.4240 C   0  0  2  0  0  0  0  0  0  0  0  0
   -2.7460   15.4990   -0.1740 N   0  0  0  0  0  0  0  0  0  0  0  0
   -3.4340   14.7370   -1.1910 C   0  0  1  0  0  0  0  0  0  0  0  0
   -0.9890   14.2310    1.4930 O   0  0  0  0  0  0  0  0  0  0  0  0
   -4.9380   14.9640   -1.0020 C   0  0  0  0  0  0  0  0  0  0  0  0
   -3.0390   14.9300    1.1230 C   0  0  0  0  0  0  0  0  0  0  0  0
   -4.4330   15.1910    1.4030 N   0  0  0  0  0  0  0  0  0  0  0  0
   -5.3010   14.5630    0.4380 C   0  0  1  0  0  0  0  0  0  0  0  0
   -6.6440   14.8100    0.8030 O   0  0  0  0  0  0  0  0  0  0  0  0
  1  2  1  0
  2  3  1  0
  2  4  1  0
  4  5  1  0
  5  6  1  0
  6  7  1  0
  7  8  1  0
  7  9  1  0
  9 10  1  6
  8 11  1  0
  9 12  1  0
  8 13  1  1
 11 14  1  0
 12 14  1  0
 11 15  1  1
 16 13  1  6
 15 16  1  0
 14 17  1  1
 16 18  1  0
 15 19  1  0
 19 20  1  0
 18 21  1  0
 20 21  1  0
 21 22  1  1
M  END
