ucsf387-ucsf138
     RDKit          3D

 22 23  0  0  0  0  0  0  0  0999 V2000
    0.9860   18.0620   -4.2230 Cl  0  0  0  0  0  0  0  0  0  0  0  0
    0.4360   16.5820   -5.0440 C   0  0  2  0  0  0  0  0  0  0  0  0
   -1.0780   16.7120   -5.1570 C   0  0  0  0  0  0  0  0  0  0  0  0
    0.9410   15.3110   -4.3360 C   0  0  0  0  0  0  0  0  0  0  0  0
    0.4040   14.0510   -5.0760 C   0  0  0  0  0  0  0  0  0  0  0  0
   -1.8140   15.4440   -4.7470 C   0  0  1  0  0  0  0  0  0  0  0  0
   -3.4440   15.4830   -5.4720 Cl  0  0  0  0  0  0  0  0  0  0  0  0
    0.8770   12.6380   -4.5450 C   0  0  1  0  0  0  0  0  0  0  0  0
   -1.1400   14.1190   -5.1400 C   0  0  0  0  0  0  0  0  0  0  0  0
    0.3770   12.4050   -3.0420 C   0  0  1  0  0  0  0  0  0  0  0  0
    0.2970   11.5960   -5.5050 N   0  0  0  0  0  0  0  0  0  0  0  0
    0.3780   11.1350   -2.6700 O   0  0  0  0  0  0  0  0  0  0  0  0
    1.3110   12.9180   -2.1190 O   0  0  0  0  0  0  0  0  0  0  0  0
    1.0040   11.4360   -6.7700 C   0  0  2  0  0  0  0  0  0  0  0  0
    1.9200   12.4520   -6.8890 O   0  0  0  0  0  0  0  0  0  0  0  0
    0.1480   11.3720   -7.9430 N   0  0  0  0  0  0  0  0  0  0  0  0
    0.2520   10.1830   -8.8580 C   0  0  0  0  0  0  0  0  0  0  0  0
    0.6380   10.6670  -10.2730 C   0  0  0  0  0  0  0  0  0  0  0  0
    1.2150    9.0450   -8.4030 C   0  0  0  0  0  0  0  0  0  0  0  0
    0.5180    9.5700  -11.3260 C   0  0  0  0  0  0  0  0  0  0  0  0
    1.8690    8.2900   -9.5760 C   0  0  0  0  0  0  0  0  0  0  0  0
    0.9480    8.2010  -10.7920 C   0  0  0  0  0  0  0  0  0  0  0  0
  2  1  1  1
  2  3  1  0
  2  4  1  0
  4  5  1  0
  3  6  1  0
  6  7  1  6
  5  8  1  0
  5  9  1  0
  6  9  1  0
  8 10  1  0
  8 11  1  6
 10 12  1  1
 10 13  1  0
 11 14  1  0
 14 15  1  6
 14 16  1  0
 16 17  1  0
 17 18  1  0
 17 19  1  0
 18 20  1  0
 19 21  1  0
 20 22  1  0
 21 22  1  0
M  CHG  1  12  -1
M  END
