ucsf170-ucsf320
     RDKit          3D

 20 22  0  0  0  0  0  0  0  0999 V2000
   -4.3060   15.6690    1.3110 C   0  0  0  0  0  0  0  0  0  0  0  0
   -2.5420   15.2900    1.1980 S   0  0  0  0  0  0  0  0  0  0  0  0
   -2.1770   15.0890   -0.6070 C   0  0  2  0  0  0  0  0  0  0  0  0
   -0.7720   15.5550   -0.9690 C   0  0  0  0  0  0  0  0  0  0  0  0
   -3.1880   15.6410   -1.6270 C   0  0  0  0  0  0  0  0  0  0  0  0
   -0.3840   14.9890   -2.3350 C   0  0  1  0  0  0  0  0  0  0  0  0
   -2.6170   16.0420   -3.0280 C   0  0  0  0  0  0  0  0  0  0  0  0
   -0.4560   13.4880   -2.3620 C   0  0  2  0  0  0  0  0  0  0  0  0
   -1.3520   15.3530   -3.5110 C   0  0  2  0  0  0  0  0  0  0  0  0
   -1.8290   14.1440   -4.0990 O   0  0  0  0  0  0  0  0  0  0  0  0
   -0.0440   12.9350   -1.1310 O   0  0  0  0  0  0  0  0  0  0  0  0
    0.3300   12.9690   -3.2850 O   0  0  0  0  0  0  0  0  0  0  0  0
   -1.9420   13.7070   -2.7800 C   0  0  2  0  0  0  0  0  0  0  0  0
   -3.3250   13.9140   -2.0410 C   0  0  2  0  0  0  0  0  0  0  0  0
   -3.8110   13.1120   -0.8290 C   0  0  0  0  0  0  0  0  0  0  0  0
   -4.5240   14.1620   -2.9880 C   0  0  0  0  0  0  0  0  0  0  0  0
   -4.9680   13.8250   -0.1080 C   0  0  0  0  0  0  0  0  0  0  0  0
   -5.6630   14.9350   -2.3160 C   0  0  0  0  0  0  0  0  0  0  0  0
   -6.1240   14.2500   -1.0350 C   0  0  2  0  0  0  0  0  0  0  0  0
   -7.0440   15.1160   -0.3600 O   0  0  0  0  0  0  0  0  0  0  0  0
  1  2  1  0
  3  2  1  1
  3  4  1  0
  3  5  1  0
  6  4  1  1
  5  7  1  0
  6  8  1  0
  6  9  1  0
  9  7  1  1
  9 10  1  0
  8 11  1  1
  8 12  1  0
  8 13  1  0
 13 10  1  6
 13 14  1  0
 14 15  1  6
 14 16  1  0
 15 17  1  0
 16 18  1  0
 17 19  1  0
 18 19  1  0
 19 20  1  1
M  CHG  1  12  -1
M  END
