ucsf005-ucsf333
     RDKit          3D

 21 23  0  0  0  0  0  0  0  0999 V2000
   -2.4360   15.4750   -3.6730 C   0  0  0  0  0  0  0  0  0  0  0  0
   -2.4300   14.3230   -2.6810 C   0  0  2  0  0  0  0  0  0  0  0  0
   -3.8560   13.7960   -2.5120 C   0  0  0  0  0  0  0  0  0  0  0  0
   -1.9780   14.5840   -1.2230 C   0  0  1  0  0  0  0  0  0  0  0  0
   -1.4830   13.4020   -3.3010 N   0  0  0  0  0  0  0  0  0  0  0  0
   -4.3870   14.5710   -1.3710 N   0  0  0  0  0  0  0  0  0  0  0  0
   -3.2840   15.2350   -0.6320 C   0  0  1  0  0  0  0  0  0  0  0  0
   -1.4450   13.6600   -0.2490 N   0  0  0  0  0  0  0  0  0  0  0  0
   -0.1740   13.7430   -2.7100 C   0  0  2  0  0  0  0  0  0  0  0  0
   -0.3500   15.2330   -1.7360 S   0  0  0  0  0  0  0  0  0  0  0  0
   -5.9270   15.3740   -1.5870 Cl  0  0  0  0  0  0  0  0  0  0  0  0
    0.9110   13.7050   -3.7610 C   0  0  0  0  0  0  0  0  0  0  0  0
   -3.2840   14.8530    0.8930 C   0  0  2  0  0  0  0  0  0  0  0  0
   -0.9300   14.5170    0.7930 C   0  0  2  0  0  0  0  0  0  0  0  0
   -4.2200   15.6060    1.7200 N   0  0  0  0  0  0  0  0  0  0  0  0
   -0.1900   13.6990    1.6720 N   0  0  0  0  0  0  0  0  0  0  0  0
    1.2990   12.2390   -3.7720 C   0  0  0  0  0  0  0  0  0  0  0  0
   -2.0270   14.9730    1.5680 N   0  0  0  0  0  0  0  0  0  0  0  0
    0.4370   11.5300   -2.6730 C   0  0  2  0  0  0  0  0  0  0  0  0
    0.9330   11.8240   -1.4950 O   0  0  0  0  0  0  0  0  0  0  0  0
    0.5240   10.1330   -2.6570 O   0  0  0  0  0  0  0  0  0  0  0  0
  2  1  1  6
  2  3  1  0
  2  4  1  0
  2  5  1  0
  3  6  1  0
  4  7  1  0
  7  6  1  6
  4  8  1  1
  5  9  1  0
  4 10  1  0
  9 10  1  0
  6 11  1  0
  9 12  1  6
  7 13  1  0
  8 14  1  0
 13 15  1  1
 14 16  1  1
 12 17  1  0
 13 18  1  0
 14 18  1  0
 17 19  1  0
 19 20  1  1
 19 21  1  0
M  CHG  1  20  -1
M  END
