ucsf006-ucsf028
     RDKit          3D

 22 25  0  0  0  0  0  0  0  0999 V2000
   -2.4460   14.7900   -3.4290 C   0  0  0  0  0  0  0  0  0  0  0  0
   -1.1230   14.2790   -2.7520 C   0  0  1  0  0  0  0  0  0  0  0  0
    0.0620   15.1230   -3.3170 C   0  0  0  0  0  0  0  0  0  0  0  0
   -1.2790   14.4590   -1.1760 C   0  0  2  0  0  0  0  0  0  0  0  0
   -0.9820   12.7370   -3.0990 C   0  0  1  0  0  0  0  0  0  0  0  0
    0.7430   14.5680   -4.5980 C   0  0  0  0  0  0  0  0  0  0  0  0
   -2.4520   15.2400   -0.5840 C   0  0  2  0  0  0  0  0  0  0  0  0
   -0.0530   14.9860   -0.5400 N   0  0  0  0  0  0  0  0  0  0  0  0
   -1.4520   11.9190   -1.9880 O   0  0  0  0  0  0  0  0  0  0  0  0
   -1.5360   12.0150   -4.3570 C   0  0  1  0  0  0  0  0  0  0  0  0
    0.9570   13.0250   -4.6350 C   0  0  1  0  0  0  0  0  0  0  0  0
   -0.5870   11.2910   -5.1000 O   0  0  0  0  0  0  0  0  0  0  0  0
   -2.4890   14.8110    0.8470 C   0  0  1  0  0  0  0  0  0  0  0  0
   -0.0700   14.7940    0.8930 C   0  0  0  0  0  0  0  0  0  0  0  0
   -3.8920   14.9660   -0.9680 C   0  0  0  0  0  0  0  0  0  0  0  0
   -2.5780   11.1260   -3.8350 N   0  0  0  0  0  0  0  0  0  0  0  0
   -1.9570   10.7430   -2.5960 C   0  0  0  0  0  0  0  0  0  0  0  0
    0.2460   12.3410   -5.6900 O   0  0  0  0  0  0  0  0  0  0  0  0
    2.2370   12.7130   -4.6290 O   0  0  0  0  0  0  0  0  0  0  0  0
   -1.3010   15.2260    1.5090 N   0  0  0  0  0  0  0  0  0  0  0  0
   -3.6580   15.4730    1.4010 N   0  0  0  0  0  0  0  0  0  0  0  0
   -4.6310   15.4330    0.2890 C   0  0  0  0  0  0  0  0  0  0  0  0
  2  1  1  6
  2  3  1  0
  2  4  1  0
  2  5  1  0
  3  6  1  0
  4  7  1  0
  4  8  1  6
  5  9  1  1
  5 10  1  0
  6 11  1  0
 10 12  1  0
  7 13  1  0
  8 14  1  0
  7 15  1  6
 10 16  1  1
  9 17  1  0
 16 17  1  0
 11 18  1  0
 12 18  1  0
 11 19  1  6
 13 20  1  1
 14 20  1  0
 13 21  1  0
 15 22  1  0
 21 22  1  0
M  CHG  1  19  -1
M  END
