ucsf017-ucsf109
     RDKit          3D

 30 36  0  0  0  0  0  0  0  0999 V2000
   -0.9940   13.5110   -5.6480 C   0  0  0  0  0  0  0  0  0  0  0  0
   -1.8860   14.6070   -5.4680 O   0  0  0  0  0  0  0  0  0  0  0  0
   -1.6840   15.0140   -4.1110 C   0  0  0  0  0  0  0  0  0  0  0  0
   -1.1780   12.6630   -4.4070 C   0  0  2  0  0  0  0  0  0  0  0  0
   -1.4070   13.7390   -3.3090 C   0  0  1  0  0  0  0  0  0  0  0  0
   -0.0680   11.6330   -4.1780 C   0  0  0  0  0  0  0  0  0  0  0  0
    0.2060   11.4610   -2.7080 C   0  0  0  0  0  0  0  0  0  0  0  0
   -0.4150   13.8160   -2.2240 N   0  0  0  0  0  0  0  0  0  0  0  0
    0.6400   12.8140   -2.1630 C   0  0  0  0  0  0  0  0  0  0  0  0
   -0.8630   14.4070   -0.9470 C   0  0  2  0  0  0  0  0  0  0  0  0
    0.0140   13.9160    0.0810 N   0  0  0  0  0  0  0  0  0  0  0  0
   -2.3530   14.2130   -0.5140 C   0  0  1  0  0  0  0  0  0  0  0  0
   -0.1750   14.5400    1.3610 C   0  0  0  0  0  0  0  0  0  0  0  0
   -2.5150   14.3860    0.9930 C   0  0  1  0  0  0  0  0  0  0  0  0
   -3.3610   15.2720   -1.0110 C   0  0  0  0  0  0  0  0  0  0  0  0
   -1.4460   15.2210    1.4590 N   0  0  0  0  0  0  0  0  0  0  0  0
   -3.8840   14.8850    1.1260 N   0  0  0  0  0  0  0  0  0  0  0  0
   -3.8950   15.9720    0.2510 C   0  0  0  0  0  0  0  0  0  0  0  0
   -4.9720   13.9810    0.8100 C   0  0  1  0  0  0  0  0  0  0  0  0
   -6.2760   14.5010    1.2170 N   0  0  0  0  0  0  0  0  0  0  0  0
   -5.0020   13.5030   -0.6720 C   0  0  1  0  0  0  0  0  0  0  0  0
   -7.3410   14.1440    0.3480 C   0  0  2  0  0  0  0  0  0  0  0  0
   -6.0540   14.1300   -1.6040 C   0  0  1  0  0  0  0  0  0  0  0  0
   -3.6890   13.6220   -1.4700 C   0  0  0  0  0  0  0  0  0  0  0  0
   -6.7930   14.0470    2.4770 N   0  0  0  0  0  0  0  0  0  0  0  0
   -7.1980   14.7150   -0.9460 N   0  0  0  0  0  0  0  0  0  0  0  0
   -5.3380   15.0320   -2.5790 C   0  0  0  0  0  0  0  0  0  0  0  0
   -3.9930   14.3680   -2.7770 C   0  0  0  0  0  0  0  0  0  0  0  0
   -8.4760   14.7410    1.0240 N   0  0  0  0  0  0  0  0  0  0  0  0
   -8.1260   14.6380    2.4470 C   0  0  0  0  0  0  0  0  0  0  0  0
  1  2  1  0
  2  3  1  0
  4  1  1  6
  5  3  1  6
  4  5  1  0
  4  6  1  0
  6  7  1  0
  5  8  1  0
  7  9  1  0
  8  9  1  0
 10  8  1  6
 10 11  1  0
 10 12  1  0
 11 13  1  0
 12 14  1  0
 12 15  1  6
 13 16  1  0
 14 16  1  6
 14 17  1  0
 15 18  1  0
 17 18  1  0
 19 17  1  6
 19 20  1  0
 19 21  1  0
 20 22  1  0
 21 23  1  0
 21 24  1  6
 20 25  1  0
 22 26  1  6
 23 26  1  0
 23 27  1  1
 24 28  1  0
 27 28  1  0
 22 29  1  0
 25 30  1  0
 29 30  1  0
M  END
