ucsf190-ucsf138
     RDKit          3D

 25 27  0  0  0  0  0  0  0  0999 V2000
    0.6020   10.6700   -2.9370 O   0  0  0  0  0  0  0  0  0  0  0  0
    0.7690   11.9620   -3.1910 C   0  0  1  0  0  0  0  0  0  0  0  0
    2.0240   12.2660   -2.6410 O   0  0  0  0  0  0  0  0  0  0  0  0
    0.6010   12.4010   -4.7380 C   0  0  2  0  0  0  0  0  0  0  0  0
    1.3530   12.0660   -5.9790 N   0  0  0  0  0  0  0  0  0  0  0  0
    0.6010   13.9430   -4.7790 C   0  0  1  0  0  0  0  0  0  0  0  0
    0.9870   10.9790   -6.8430 C   0  0  2  0  0  0  0  0  0  0  0  0
   -0.6060   14.5350   -4.0930 C   0  0  1  0  0  0  0  0  0  0  0  0
    1.8100   14.6340   -4.1950 N   0  0  0  0  0  0  0  0  0  0  0  0
    2.2000   10.6020   -7.4000 O   0  0  0  0  0  0  0  0  0  0  0  0
    0.2840   11.2910   -8.0350 N   0  0  0  0  0  0  0  0  0  0  0  0
   -0.7300   15.7560   -4.9380 C   0  0  2  0  0  0  0  0  0  0  0  0
    1.4370   16.0270   -3.8170 N   0  0  0  0  0  0  0  0  0  0  0  0
   -1.8570   13.6480   -4.1770 C   0  0  0  0  0  0  0  0  0  0  0  0
    0.4790   16.6730   -4.7420 C   0  0  2  0  0  0  0  0  0  0  0  0
   -2.1590   16.3240   -4.9870 C   0  0  0  0  0  0  0  0  0  0  0  0
   -2.6800   13.8670   -5.4420 C   0  0  0  0  0  0  0  0  0  0  0  0
    0.8080   10.4400   -9.1360 C   0  0  0  0  0  0  0  0  0  0  0  0
    0.1170   17.9380   -4.2390 O   0  0  0  0  0  0  0  0  0  0  0  0
   -3.1720   15.3060   -5.5420 C   0  0  0  0  0  0  0  0  0  0  0  0
   -0.0850   10.4110  -10.3870 C   0  0  0  0  0  0  0  0  0  0  0  0
    1.3240    9.0190   -8.7460 C   0  0  0  0  0  0  0  0  0  0  0  0
    0.5770    9.6450  -11.5330 C   0  0  0  0  0  0  0  0  0  0  0  0
    1.9790    8.2720   -9.9090 C   0  0  0  0  0  0  0  0  0  0  0  0
    1.0660    8.2510  -11.1240 C   0  0  0  0  0  0  0  0  0  0  0  0
  2  1  1  6
  2  3  1  0
  2  4  1  0
  4  5  1  6
  4  6  1  0
  5  7  1  0
  6  8  1  0
  6  9  1  1
  7 10  1  6
  7 11  1  0
  8 12  1  0
  9 13  1  0
  8 14  1  6
 12 15  1  0
 13 15  1  0
 12 16  1  1
 14 17  1  0
 11 18  1  0
 15 19  1  1
 16 20  1  0
 17 20  1  0
 18 21  1  0
 18 22  1  0
 21 23  1  0
 22 24  1  0
 23 25  1  0
 24 25  1  0
M  CHG  1   1  -1
M  END
