ucsf123-ucsf173
     RDKit          3D

 17 18  0  0  0  0  0  0  0  0999 V2000
   -1.7720   18.9370   -4.9040 N   0  0  0  0  0  0  0  0  0  0  0  0
   -2.0820   17.3260   -4.9600 S   0  0  0  0  0  0  0  0  0  0  0  0
   -3.1890   16.9450   -3.9910 O   0  0  0  0  0  0  0  0  0  0  0  0
   -2.6950   16.9180   -6.4040 O   0  0  0  0  0  0  0  0  0  0  0  0
   -1.0120   16.0310   -4.3060 C   0  0  1  0  0  0  0  0  0  0  0  0
    0.4210   16.1920   -3.8440 C   0  0  2  0  0  0  0  0  0  0  0  0
   -1.7670   14.6900   -4.1690 C   0  0  0  0  0  0  0  0  0  0  0  0
   -0.6660   16.0020   -5.6200 C   0  0  0  0  0  0  0  0  0  0  0  0
    0.7380   15.2740   -2.6440 C   0  0  0  0  0  0  0  0  0  0  0  0
   -0.7860   13.5870   -3.9090 C   0  0  0  0  0  0  0  0  0  0  0  0
   -0.2780   17.3990   -6.1550 C   0  0  0  0  0  0  0  0  0  0  0  0
    0.8070   17.6810   -3.9030 C   0  0  0  0  0  0  0  0  0  0  0  0
   -0.0670   13.9290   -2.6060 C   0  0  1  0  0  0  0  0  0  0  0  0
    0.2130   18.3530   -5.1160 C   0  0  0  0  0  0  0  0  0  0  0  0
    0.7500   12.7310   -2.0640 C   0  0  1  0  0  0  0  0  0  0  0  0
    0.5150   12.7900   -0.6870 O   0  0  0  0  0  0  0  0  0  0  0  0
    0.1990   11.5560   -2.3350 O   0  0  0  0  0  0  0  0  0  0  0  0
  1  2  1  0
  2  3  1  0
  2  4  1  0
  5  2  1  6
  5  6  1  0
  5  7  1  0
  5  8  1  0
  6  9  1  1
  7 10  1  0
  8 11  1  0
  6 12  1  0
 13  9  1  6
 10 13  1  0
 11 14  1  0
 12 14  1  0
 13 15  1  0
 15 16  1  1
 15 17  1  0
M  CHG  1  17  -1
M  END
