ucsf339-ucsf364
     RDKit          3D

 24 26  0  0  0  0  0  0  0  0999 V2000
    0.7600   15.4990   -2.6480 O   0  0  0  0  0  0  0  0  0  0  0  0
    0.2960   13.4420   -2.7390 S   0  0  0  0  0  0  0  0  0  0  0  0
    1.7450   13.9870   -1.3530 O   0  0  0  0  0  0  0  0  0  0  0  0
   -0.1160   12.9590   -0.9300 O   0  0  0  0  0  0  0  0  0  0  0  0
   -1.3990   13.9530   -2.9770 C   0  0  1  0  0  0  0  0  0  0  0  0
    0.6950   12.1530   -3.7680 C   0  0  2  0  0  0  0  0  0  0  0  0
   -1.9780   14.3070   -1.5860 C   0  0  0  0  0  0  0  0  0  0  0  0
   -1.5860   15.1640   -3.8320 C   0  0  0  0  0  0  0  0  0  0  0  0
    1.4530   12.3060   -4.9650 C   0  0  2  0  0  0  0  0  0  0  0  0
   -0.4430   11.0970   -3.8640 C   0  0  0  0  0  0  0  0  0  0  0  0
    1.4340   13.8200   -5.1580 C   0  0  0  0  0  0  0  0  0  0  0  0
   -3.3860   14.3180   -1.7530 C   0  0  2  0  0  0  0  0  0  0  0  0
   -2.9940   15.3760   -3.9810 N   0  0  0  0  0  0  0  0  0  0  0  0
   -1.1880   11.1980   -5.1190 C   0  0  0  0  0  0  0  0  0  0  0  0
    0.9470   11.7280   -6.2510 C   0  0  2  0  0  0  0  0  0  0  0  0
    0.6430   12.6990   -7.1470 O   0  0  0  0  0  0  0  0  0  0  0  0
   -3.8000   15.2970   -2.7930 C   0  0  0  0  0  0  0  0  0  0  0  0
   -4.1990   14.3260   -0.4860 C   0  0  0  0  0  0  0  0  0  0  0  0
   -0.2880   10.8710   -6.2540 C   0  0  0  0  0  0  0  0  0  0  0  0
   -3.8950   15.4830    0.3720 C   0  0  0  0  0  0  0  0  0  0  0  0
   -5.6690   14.4540   -0.8240 C   0  0  0  0  0  0  0  0  0  0  0  0
   -4.3720   15.1720    1.7790 C   0  0  0  0  0  0  0  0  0  0  0  0
   -6.4750   14.3760    0.4470 C   0  0  0  0  0  0  0  0  0  0  0  0
   -5.5970   14.2260    1.6900 C   0  0  0  0  0  0  0  0  0  0  0  0
  1  2  1  0
  2  3  1  0
  2  4  1  0
  5  2  1  1
  6  2  1  6
  5  7  1  0
  5  8  1  0
  6  9  1  0
  6 10  1  0
  9 11  1  6
  7 12  1  0
  8 13  1  0
 10 14  1  0
  9 15  1  0
 15 16  1  6
 12 17  1  0
 13 17  1  0
 12 18  1  1
 14 19  1  0
 15 19  1  0
 18 20  1  0
 18 21  1  0
 20 22  1  0
 21 23  1  0
 22 24  1  0
 23 24  1  0
M  CHG  1   1  -1
M  END
