ucsf367-ucsf412
     RDKit          3D

 25 27  0  0  0  0  0  0  0  0999 V2000
    0.5950   10.7680   -3.0560 O   0  0  0  0  0  0  0  0  0  0  0  0
    0.4820   12.0740   -3.2670 C   0  0  1  0  0  0  0  0  0  0  0  0
    1.3320   12.7440   -2.3090 O   0  0  0  0  0  0  0  0  0  0  0  0
    1.0180   12.4760   -4.6930 C   0  0  0  0  0  0  0  0  0  0  0  0
    0.7390   11.5370   -5.7640 O   0  0  0  0  0  0  0  0  0  0  0  0
    0.6180   13.5750   -1.3900 C   0  0  0  0  0  0  0  0  0  0  0  0
   -0.4600   14.4080   -2.0820 C   0  0  0  0  0  0  0  0  0  0  0  0
   -0.3620   10.6460   -5.5710 C   0  0  0  0  0  0  0  0  0  0  0  0
   -1.9010   13.8670   -1.9610 C   0  0  0  0  0  0  0  0  0  0  0  0
   -0.4700    9.7800   -6.8310 C   0  0  0  0  0  0  0  0  0  0  0  0
   -1.7010   11.3400   -5.3430 C   0  0  0  0  0  0  0  0  0  0  0  0
   -1.5430    8.7120   -6.6600 C   0  0  0  0  0  0  0  0  0  0  0  0
   -2.8330   10.3280   -5.1750 C   0  0  0  0  0  0  0  0  0  0  0  0
   -3.0430   14.8910   -1.8080 C   0  0  2  0  0  0  0  0  0  0  0  0
   -2.8970    9.3240   -6.3310 C   0  0  0  0  0  0  0  0  0  0  0  0
   -3.3450   15.2630   -0.3510 C   0  0  0  0  0  0  0  0  0  0  0  0
   -4.3070   14.6400   -2.6290 C   0  0  0  0  0  0  0  0  0  0  0  0
   -4.4880   14.4750    0.2930 C   0  0  2  0  0  0  0  0  0  0  0  0
   -5.5440   15.1320   -1.9020 C   0  0  0  0  0  0  0  0  0  0  0  0
   -5.7730   14.3840   -0.5900 C   0  0  2  0  0  0  0  0  0  0  0  0
   -4.6960   15.0620    1.6740 C   0  0  0  0  0  0  0  0  0  0  0  0
   -7.1130   14.7970    0.0620 C   0  0  1  0  0  0  0  0  0  0  0  0
   -5.9870   14.5930    2.3150 C   0  0  0  0  0  0  0  0  0  0  0  0
   -8.1780   14.0070   -0.3980 O   0  0  0  0  0  0  0  0  0  0  0  0
   -7.1960   14.7040    1.5160 N   0  0  0  0  0  0  0  0  0  0  0  0
  2  1  1  1
  2  3  1  0
  2  4  1  0
  4  5  1  0
  3  6  1  0
  6  7  1  0
  5  8  1  0
  7  9  1  0
  8 10  1  0
  8 11  1  0
 10 12  1  0
 11 13  1  0
 14  9  1  1
 12 15  1  0
 13 15  1  0
 14 16  1  0
 14 17  1  0
 18 16  1  6
 17 19  1  0
 18 20  1  0
 20 19  1  6
 18 21  1  0
 20 22  1  0
 21 23  1  0
 22 24  1  6
 22 25  1  0
 23 25  1  0
M  CHG  1   1  -1
M  END
