ucsf013-ucsf004
     RDKit          3D

 26 30  0  0  0  0  0  0  0  0999 V2000
   -4.8530   13.3730    1.8440 N   0  0  0  0  0  0  0  0  0  0  0  0
   -5.4220   14.4810    1.1880 C   0  0  2  0  0  0  0  0  0  0  0  0
   -6.8510   14.3560    1.4220 N   0  0  0  0  0  0  0  0  0  0  0  0
   -5.0670   14.5640   -0.3000 C   0  0  2  0  0  0  0  0  0  0  0  0
   -5.8650   13.5660   -1.1130 C   0  0  1  0  0  0  0  0  0  0  0  0
   -7.6460   14.6180    0.2430 C   0  0  0  0  0  0  0  0  0  0  0  0
   -3.6740   15.0140   -0.8470 C   0  0  2  0  0  0  0  0  0  0  0  0
   -7.3120   13.6980   -0.8170 N   0  0  0  0  0  0  0  0  0  0  0  0
   -5.6560   13.7340   -2.6170 C   0  0  0  0  0  0  0  0  0  0  0  0
   -3.7820   15.3810   -2.3410 C   0  0  0  0  0  0  0  0  0  0  0  0
   -2.1260   14.9090   -0.5500 C   0  0  1  0  0  0  0  0  0  0  0  0
   -3.6760   16.1520    0.1370 C   0  0  0  0  0  0  0  0  0  0  0  0
   -5.1210   15.0870   -2.9800 C   0  0  0  0  0  0  0  0  0  0  0  0
   -1.9760   15.1930    0.9140 C   0  0  1  0  0  0  0  0  0  0  0  0
   -1.1510   13.8520   -1.0550 C   0  0  1  0  0  0  0  0  0  0  0  0
   -3.2810   15.5180    1.3810 N   0  0  0  0  0  0  0  0  0  0  0  0
   -0.7820   14.0050   -2.4950 N   0  0  0  0  0  0  0  0  0  0  0  0
    0.0920   13.9050   -0.2720 N   0  0  0  0  0  0  0  0  0  0  0  0
   -1.3630   14.2170    1.6530 N   0  0  0  0  0  0  0  0  0  0  0  0
   -1.9420   14.0420   -3.4200 C   0  0  0  0  0  0  0  0  0  0  0  0
    0.2570   14.9510   -2.9170 C   0  0  0  0  0  0  0  0  0  0  0  0
   -0.0470   14.0070    1.1910 C   0  0  0  0  0  0  0  0  0  0  0  0
   -1.6250   13.5020   -4.8170 C   0  0  2  0  0  0  0  0  0  0  0  0
    0.4150   14.9260   -4.4560 C   0  0  0  0  0  0  0  0  0  0  0  0
   -1.9640   12.1840   -4.8690 F   0  0  0  0  0  0  0  0  0  0  0  0
   -0.1460   13.6570   -5.1140 C   0  0  0  0  0  0  0  0  0  0  0  0
  2  1  1  6
  2  3  1  0
  4  2  1  1
  4  5  1  0
  3  6  1  0
  4  7  1  0
  5  8  1  0
  6  8  1  0
  5  9  1  6
  7 10  1  6
  7 11  1  0
  7 12  1  0
  9 13  1  0
 10 13  1  0
 11 14  1  0
 11 15  1  1
 12 16  1  0
 14 16  1  1
 15 17  1  6
 15 18  1  0
 14 19  1  0
 17 20  1  0
 17 21  1  0
 18 22  1  0
 19 22  1  0
 20 23  1  0
 21 24  1  0
 23 25  1  1
 23 26  1  0
 24 26  1  0
M  END
