ucsf172-ucsf258
     RDKit          3D

 15 15  0  0  0  0  0  0  0  0999 V2000
   -7.8730   14.8520    2.3500 C   0  0  0  0  0  0  0  0  0  0  0  0
   -6.8330   14.5400    0.9820 S   0  0  0  0  0  0  0  0  0  0  0  0
   -6.5190   12.7270    1.5440 O   0  0  0  0  0  0  0  0  0  0  0  0
   -7.4510   14.3760   -0.2540 O   0  0  0  0  0  0  0  0  0  0  0  0
   -5.4130   15.1190    1.3020 N   0  0  0  0  0  0  0  0  0  0  0  0
   -4.3820   15.3460    0.3110 C   0  0  1  0  0  0  0  0  0  0  0  0
   -3.3220   14.2650    0.5750 C   0  0  0  0  0  0  0  0  0  0  0  0
   -4.9170   15.1750   -1.1100 C   0  0  0  0  0  0  0  0  0  0  0  0
   -2.2350   14.2420   -0.4450 C   0  0  0  0  0  0  0  0  0  0  0  0
   -3.8200   15.1400   -2.1230 C   0  0  0  0  0  0  0  0  0  0  0  0
   -2.6920   14.2330   -1.8350 C   0  0  1  0  0  0  0  0  0  0  0  0
   -1.4910   14.5560   -2.7530 C   0  0  1  0  0  0  0  0  0  0  0  0
   -0.6250   13.4430   -2.6480 O   0  0  0  0  0  0  0  0  0  0  0  0
   -1.9200   14.7260   -4.0600 O   0  0  0  0  0  0  0  0  0  0  0  0
    0.3420   13.6280   -1.7770 O   0  0  0  0  0  0  0  0  0  0  0  0
  1  2  1  0
  2  3  1  0
  2  4  1  0
  2  5  1  0
  6  5  1  1
  6  7  1  0
  6  8  1  0
  7  9  1  0
  8 10  1  0
 11  9  1  1
 10 11  1  0
 11 12  1  0
 12 13  1  0
 12 14  1  6
 13 15  1  0
M  CHG  2  14  -1  15  -1
M  END
