ucsf520-ucsf258
     RDKit          3D

 19 21  0  0  0  0  0  0  0  0999 V2000
   -4.5900   15.4190    1.0330 N   0  0  0  0  0  0  0  0  0  0  0  0
   -3.6480   14.7310    0.1420 C   0  0  2  0  0  0  0  0  0  0  0  0
   -2.1970   15.1870    0.3380 C   0  0  2  0  0  0  0  0  0  0  0  0
   -4.0760   15.0600   -1.2380 N   0  0  0  0  0  0  0  0  0  0  0  0
   -3.1740   14.4310   -2.2350 C   0  0  1  0  0  0  0  0  0  0  0  0
   -1.4220   14.4030   -0.6590 C   0  0  1  0  0  0  0  0  0  0  0  0
   -1.4710   14.8160    1.5810 N   0  0  0  0  0  0  0  0  0  0  0  0
   -3.4170   14.9420   -3.5290 O   0  0  0  0  0  0  0  0  0  0  0  0
   -1.7850   14.6890   -1.9850 N   0  0  0  0  0  0  0  0  0  0  0  0
   -0.0740   14.8270   -0.3140 N   0  0  0  0  0  0  0  0  0  0  0  0
   -0.1100   14.5420    1.1070 C   0  0  0  0  0  0  0  0  0  0  0  0
   -0.7760   14.3020   -3.0140 C   0  0  2  0  0  0  0  0  0  0  0  0
    0.3980   13.3290   -2.4960 C   0  0  0  0  0  0  0  0  0  0  0  0
   -0.2070   15.6380   -3.6340 C   0  0  2  0  0  0  0  0  0  0  0  0
    0.3190   13.1100   -1.1760 O   0  0  0  0  0  0  0  0  0  0  0  0
   -1.2810   16.5170   -4.0860 O   0  0  0  0  0  0  0  0  0  0  0  0
    0.6840   15.5250   -4.8560 C   0  0  0  0  0  0  0  0  0  0  0  0
    0.7130   16.9790   -5.2770 C   0  0  0  0  0  0  0  0  0  0  0  0
   -0.7160   17.4140   -5.0440 C   0  0  0  0  0  0  0  0  0  0  0  0
  2  1  1  1
  2  3  1  0
  2  4  1  0
  4  5  1  0
  3  6  1  0
  3  7  1  1
  5  8  1  6
  5  9  1  0
  6  9  1  0
  6 10  1  6
  7 11  1  0
 10 11  1  0
  9 12  1  0
 12 13  1  1
 12 14  1  0
 13 15  1  0
 14 16  1  0
 14 17  1  6
 17 18  1  0
 16 19  1  0
 18 19  1  0
M  CHG  1  15  -1
M  END
