ucsf411-ucsf584
     RDKit          3D

 27 30  0  0  0  0  0  0  0  0999 V2000
    0.6850   10.7240   -2.4010 O   0  0  0  0  0  0  0  0  0  0  0  0
    0.5040   12.0280   -2.6420 C   0  0  1  0  0  0  0  0  0  0  0  0
    0.4820   12.5260   -1.3130 O   0  0  0  0  0  0  0  0  0  0  0  0
    1.6980   12.7440   -3.3960 C   0  0  0  0  0  0  0  0  0  0  0  0
    1.3160   13.4400   -4.6180 O   0  0  0  0  0  0  0  0  0  0  0  0
    0.0970   14.1820   -4.5300 C   0  0  1  0  0  0  0  0  0  0  0  0
    0.0690   15.6230   -5.1330 C   0  0  1  0  0  0  0  0  0  0  0  0
   -0.9980   13.3070   -5.1710 C   0  0  0  0  0  0  0  0  0  0  0  0
   -1.3770   16.1450   -5.0780 C   0  0  1  0  0  0  0  0  0  0  0  0
   -2.3540   13.8930   -4.8190 C   0  0  0  0  0  0  0  0  0  0  0  0
    0.9900   16.6150   -4.4550 C   0  0  0  0  0  0  0  0  0  0  0  0
   -2.0480   15.1940   -4.1070 C   0  0  2  0  0  0  0  0  0  0  0  0
   -1.4330   17.6500   -4.8480 C   0  0  0  0  0  0  0  0  0  0  0  0
    1.0170   17.9430   -5.2130 C   0  0  0  0  0  0  0  0  0  0  0  0
   -3.1030   15.7400   -3.1840 C   0  0  0  0  0  0  0  0  0  0  0  0
   -0.3770   18.3510   -5.6810 C   0  0  0  0  0  0  0  0  0  0  0  0
   -3.3000   14.7240   -2.1680 N   0  0  0  0  0  0  0  0  0  0  0  0
   -3.0310   15.2190   -0.8190 C   0  0  0  0  0  0  0  0  0  0  0  0
   -4.6140   14.1460   -2.3340 C   0  0  0  0  0  0  0  0  0  0  0  0
   -4.1090   14.8330    0.1880 C   0  0  0  0  0  0  0  0  0  0  0  0
   -5.7220   15.0130   -1.7760 C   0  0  0  0  0  0  0  0  0  0  0  0
   -5.5310   15.2150   -0.2810 C   0  0  0  0  0  0  0  0  0  0  0  0
   -6.6190   14.4550    0.5050 C   0  0  0  0  0  0  0  0  0  0  0  0
   -6.6220   14.7010    1.9320 N   0  0  0  0  0  0  0  0  0  0  0  0
   -7.9720   14.7690    0.0470 N   0  0  0  0  0  0  0  0  0  0  0  0
   -8.8220   14.3840    1.1720 C   0  0  0  0  0  0  0  0  0  0  0  0
   -7.9970   14.7400    2.3950 C   0  0  0  0  0  0  0  0  0  0  0  0
  2  1  1  1
  2  3  1  0
  2  4  1  0
  4  5  1  0
  6  5  1  6
  6  7  1  0
  6  8  1  0
  7  9  1  0
  8 10  1  0
  7 11  1  1
  9 12  1  0
 10 12  1  0
  9 13  1  1
 11 14  1  0
 12 15  1  6
 13 16  1  0
 14 16  1  0
 15 17  1  0
 17 18  1  0
 17 19  1  0
 18 20  1  0
 19 21  1  0
 20 22  1  0
 21 22  1  0
 22 23  1  0
 23 24  1  0
 23 25  1  0
 25 26  1  0
 24 27  1  0
 26 27  1  0
M  CHG  1   1  -1
M  END
