ucsf028-ucsf422
     RDKit          3D

 32 36  0  0  0  0  0  0  0  0999 V2000
   -4.5350   15.5700    1.4100 N   0  0  0  0  0  0  0  0  0  0  0  0
   -3.6820   14.9500    0.4110 C   0  0  2  0  0  0  0  0  0  0  0  0
   -2.2030   15.2360    0.5770 C   0  0  2  0  0  0  0  0  0  0  0  0
   -4.1960   15.4350   -0.8530 N   0  0  0  0  0  0  0  0  0  0  0  0
   -3.3910   15.0520   -2.0360 C   0  0  0  0  0  0  0  0  0  0  0  0
   -1.5090   14.6420   -0.6050 C   0  0  1  0  0  0  0  0  0  0  0  0
   -1.4680   14.6090    1.6750 N   0  0  0  0  0  0  0  0  0  0  0  0
   -1.9350   15.1880   -1.8720 N   0  0  0  0  0  0  0  0  0  0  0  0
   -0.1450   14.9180   -0.2390 N   0  0  0  0  0  0  0  0  0  0  0  0
   -0.1080   14.4650    1.1310 C   0  0  0  0  0  0  0  0  0  0  0  0
   -1.2210   14.4840   -2.9490 C   0  0  0  0  0  0  0  0  0  0  0  0
   -1.5420   12.9930   -3.2980 C   0  0  1  0  0  0  0  0  0  0  0  0
   -1.3260   12.5210   -4.7170 C   0  0  0  0  0  0  0  0  0  0  0  0
   -0.8900   12.0430   -2.4600 O   0  0  0  0  0  0  0  0  0  0  0  0
    0.1390   11.3850   -3.2690 N   0  0  0  0  0  0  0  0  0  0  0  0
   -0.3850   11.3310   -4.6220 C   0  0  1  0  0  0  0  0  0  0  0  0
   -1.0870   10.1660   -4.9970 O   0  0  0  0  0  0  0  0  0  0  0  0
    1.2030   12.3280   -3.2280 C   0  0  2  0  0  0  0  0  0  0  0  0
   -0.9070    9.9750   -6.3890 C   0  0  0  0  0  0  0  0  0  0  0  0
    2.3290   11.8260   -2.9970 O   0  0  0  0  0  0  0  0  0  0  0  0
    1.0800   13.1520   -2.1090 O   0  0  0  0  0  0  0  0  0  0  0  0
    1.3270   13.1760   -4.4890 C   0  0  0  0  0  0  0  0  0  0  0  0
    0.7810   14.5470   -4.1760 C   0  0  1  0  0  0  0  0  0  0  0  0
    1.9170   15.5060   -4.0030 C   0  0  0  0  0  0  0  0  0  0  0  0
   -0.1320   15.2580   -5.1320 C   0  0  2  0  0  0  0  0  0  0  0  0
    1.4560   16.8370   -4.4650 N   0  0  0  0  0  0  0  0  0  0  0  0
    0.0200   16.6920   -4.6720 C   0  0  1  0  0  0  0  0  0  0  0  0
   -1.5990   14.8610   -5.2260 C   0  0  0  0  0  0  0  0  0  0  0  0
   -0.5660   17.6390   -5.6850 C   0  0  0  0  0  0  0  0  0  0  0  0
   -2.5560   16.0440   -5.2120 C   0  0  2  0  0  0  0  0  0  0  0  0
   -4.1360   15.3650   -6.1400 Br  0  0  0  0  0  0  0  0  0  0  0  0
   -2.0660   17.3790   -5.8220 C   0  0  0  0  0  0  0  0  0  0  0  0
  2  1  1  1
  2  3  1  0
  2  4  1  0
  4  5  1  0
  3  6  1  0
  3  7  1  1
  5  8  1  0
  6  8  1  0
  6  9  1  1
  7 10  1  0
  9 10  1  0
  8 11  1  0
 12 11  1  6
 12 13  1  0
 12 14  1  0
 14 15  1  0
 13 16  1  0
 15 16  1  0
 16 17  1  1
 15 18  1  0
 17 19  1  0
 18 20  1  1
 18 21  1  0
 18 22  1  0
 23 22  1  6
 23 24  1  0
 23 25  1  0
 24 26  1  0
 25 27  1  0
 26 27  1  0
 25 28  1  1
 27 29  1  6
 28 30  1  0
 30 31  1  6
 29 32  1  0
 30 32  1  0
M  CHG  1  20  -1
M  END
