ucsf367-ucsf392
     RDKit          3D

 22 23  0  0  0  0  0  0  0  0999 V2000
    0.6450   11.2400   -2.8390 O   0  0  0  0  0  0  0  0  0  0  0  0
    1.4280   12.0540   -3.5420 C   0  0  2  0  0  0  0  0  0  0  0  0
    1.6260   13.2530   -2.7670 O   0  0  0  0  0  0  0  0  0  0  0  0
    0.7270   12.5120   -4.8540 C   0  0  0  0  0  0  0  0  0  0  0  0
    0.7620   11.4700   -5.8490 O   0  0  0  0  0  0  0  0  0  0  0  0
    0.4760   13.8320   -2.1410 C   0  0  0  0  0  0  0  0  0  0  0  0
    0.8510   13.8560   -0.6790 C   0  0  0  0  0  0  0  0  0  0  0  0
   -0.2430   10.4750   -5.6520 C   0  0  0  0  0  0  0  0  0  0  0  0
    0.1000   14.7650    0.3100 C   0  0  0  0  0  0  0  0  0  0  0  0
   -0.3680    9.6070   -6.9070 C   0  0  0  0  0  0  0  0  0  0  0  0
   -1.5600   11.1870   -5.3160 C   0  0  0  0  0  0  0  0  0  0  0  0
   -1.4900    8.5910   -6.7590 C   0  0  0  0  0  0  0  0  0  0  0  0
   -2.7210   10.2050   -5.1930 C   0  0  0  0  0  0  0  0  0  0  0  0
   -1.3780   14.7610    0.0150 C   0  0  1  0  0  0  0  0  0  0  0  0
   -2.8120    9.2620   -6.3920 C   0  0  0  0  0  0  0  0  0  0  0  0
   -2.2160   15.1340    1.1370 N   0  0  0  0  0  0  0  0  0  0  0  0
   -1.7460   15.5080   -1.1520 N   0  0  0  0  0  0  0  0  0  0  0  0
   -3.6150   14.9030    0.9030 C   0  0  1  0  0  0  0  0  0  0  0  0
   -3.1060   15.2250   -1.5510 C   0  0  0  0  0  0  0  0  0  0  0  0
   -4.2800   15.5800    1.9840 N   0  0  0  0  0  0  0  0  0  0  0  0
   -4.1180   15.4540   -0.4290 C   0  0  1  0  0  0  0  0  0  0  0  0
   -5.5010   14.9740   -0.8290 C   0  0  0  0  0  0  0  0  0  0  0  0
  2  1  1  1
  2  3  1  0
  2  4  1  0
  4  5  1  0
  3  6  1  0
  6  7  1  0
  5  8  1  0
  7  9  1  0
  8 10  1  0
  8 11  1  0
 10 12  1  0
 11 13  1  0
 14  9  1  1
 12 15  1  0
 13 15  1  0
 14 16  1  0
 14 17  1  0
 16 18  1  0
 17 19  1  0
 18 20  1  1
 18 21  1  0
 19 21  1  0
 21 22  1  6
M  CHG  1   1  -1
M  END
