ucsf138-ucsf345
     RDKit          3D

 26 27  0  0  0  0  0  0  0  0999 V2000
    2.2010   12.3050   -2.7160 O   0  0  0  0  0  0  0  0  0  0  0  0
    1.0140   12.5180   -3.2010 C   0  0  2  0  0  0  0  0  0  0  0  0
    0.1990   11.4540   -2.7440 O   0  0  0  0  0  0  0  0  0  0  0  0
    1.0220   12.5040   -4.7690 C   0  0  0  0  0  0  0  0  0  0  0  0
    0.5620   13.9350   -2.7350 C   0  0  0  0  0  0  0  0  0  0  0  0
    0.4110   11.3550   -5.4960 N   0  0  0  0  0  0  0  0  0  0  0  0
   -0.8550   14.1290   -2.1700 C   0  0  0  0  0  0  0  0  0  0  0  0
    0.8830   11.3050   -6.8500 C   0  0  2  0  0  0  0  0  0  0  0  0
   -1.6020   15.4030   -2.5490 C   0  0  0  0  0  0  0  0  0  0  0  0
    0.5710   12.4910   -7.4300 O   0  0  0  0  0  0  0  0  0  0  0  0
    0.1700   10.2620   -7.5540 N   0  0  0  0  0  0  0  0  0  0  0  0
   -2.9750   15.4740   -1.8460 C   0  0  1  0  0  0  0  0  0  0  0  0
    0.8610    9.8630   -8.7950 C   0  0  0  0  0  0  0  0  0  0  0  0
   -4.1080   14.8480   -2.7010 C   0  0  0  0  0  0  0  0  0  0  0  0
   -2.9090   14.8170   -0.5160 N   0  0  0  0  0  0  0  0  0  0  0  0
   -0.1000    9.9980   -9.9880 C   0  0  0  0  0  0  0  0  0  0  0  0
    1.4730    8.4570   -8.7560 C   0  0  0  0  0  0  0  0  0  0  0  0
   -5.4390   14.9290   -2.0640 N   0  0  0  0  0  0  0  0  0  0  0  0
   -4.2090   15.0130    0.1460 C   0  0  0  0  0  0  0  0  0  0  0  0
    0.5500    9.5700  -11.3070 C   0  0  0  0  0  0  0  0  0  0  0  0
    2.1570    8.0830  -10.0660 C   0  0  0  0  0  0  0  0  0  0  0  0
   -5.4050   14.4290   -0.6590 C   0  0  1  0  0  0  0  0  0  0  0  0
   -6.7610   14.7380    0.0580 C   0  0  2  0  0  0  0  0  0  0  0  0
    1.1830    8.1820  -11.2290 C   0  0  0  0  0  0  0  0  0  0  0  0
   -6.7320   14.7090    1.5110 N   0  0  0  0  0  0  0  0  0  0  0  0
   -7.7490   13.7950   -0.2760 O   0  0  0  0  0  0  0  0  0  0  0  0
  2  1  1  1
  2  3  1  0
  2  4  1  0
  2  5  1  0
  4  6  1  0
  5  7  1  0
  6  8  1  0
  7  9  1  0
  8 10  1  6
  8 11  1  0
 12  9  1  6
 11 13  1  0
 12 14  1  0
 12 15  1  0
 13 16  1  0
 13 17  1  0
 14 18  1  0
 15 19  1  0
 16 20  1  0
 17 21  1  0
 18 22  1  0
 22 19  1  1
 22 23  1  0
 20 24  1  0
 21 24  1  0
 23 25  1  1
 23 26  1  0
M  CHG  1   1  -1
M  END
