ucsf172-ucsf258
     RDKit          3D

 15 15  0  0  0  0  0  0  0  0999 V2000
   -7.8740   14.8360    2.3480 C   0  0  0  0  0  0  0  0  0  0  0  0
   -6.8260   14.5320    0.9810 S   0  0  0  0  0  0  0  0  0  0  0  0
   -6.4940   12.7210    1.5440 O   0  0  0  0  0  0  0  0  0  0  0  0
   -7.4380   14.3620   -0.2560 O   0  0  0  0  0  0  0  0  0  0  0  0
   -5.4120   15.1260    1.3030 N   0  0  0  0  0  0  0  0  0  0  0  0
   -4.3840   15.3430    0.3070 C   0  0  1  0  0  0  0  0  0  0  0  0
   -3.3320   14.2590    0.5800 C   0  0  0  0  0  0  0  0  0  0  0  0
   -4.9230   15.1600   -1.1060 C   0  0  0  0  0  0  0  0  0  0  0  0
   -2.2440   14.2310   -0.4400 C   0  0  0  0  0  0  0  0  0  0  0  0
   -3.8300   15.1240   -2.1240 C   0  0  0  0  0  0  0  0  0  0  0  0
   -2.6980   14.2200   -1.8300 C   0  0  1  0  0  0  0  0  0  0  0  0
   -1.4910   14.5440   -2.7460 C   0  0  1  0  0  0  0  0  0  0  0  0
   -0.6180   13.4360   -2.6250 O   0  0  0  0  0  0  0  0  0  0  0  0
   -1.9070   14.7010   -4.0580 O   0  0  0  0  0  0  0  0  0  0  0  0
    0.3450   13.6340   -1.7530 O   0  0  0  0  0  0  0  0  0  0  0  0
  1  2  1  0
  2  3  1  0
  2  4  1  0
  2  5  1  0
  6  5  1  1
  6  7  1  0
  6  8  1  0
  7  9  1  0
  8 10  1  0
 11  9  1  1
 10 11  1  0
 11 12  1  0
 12 13  1  0
 12 14  1  6
 13 15  1  0
M  CHG  2  14  -1  15  -1
M  END
