ucsf258-ucsf493
     RDKit          3D

 24 26  0  0  0  0  0  0  0  0999 V2000
    0.1150   12.5760   -1.7630 O   0  0  0  0  0  0  0  0  0  0  0  0
   -0.1880   13.9080   -2.1360 C   0  0  2  0  0  0  0  0  0  0  0  0
    0.9180   14.7680   -1.9850 O   0  0  0  0  0  0  0  0  0  0  0  0
   -0.0960   11.7380   -2.8930 C   0  0  1  0  0  0  0  0  0  0  0  0
    0.3520   12.3960   -4.2390 C   0  0  0  0  0  0  0  0  0  0  0  0
    0.5920   10.5130   -2.6480 O   0  0  0  0  0  0  0  0  0  0  0  0
   -1.4460   14.5220   -1.4750 C   0  0  1  0  0  0  0  0  0  0  0  0
   -2.5680   14.7840   -2.5190 C   0  0  1  0  0  0  0  0  0  0  0  0
   -1.9340   13.8940   -0.2390 N   0  0  0  0  0  0  0  0  0  0  0  0
    0.5450   13.9270   -4.1250 C   0  0  2  0  0  0  0  0  0  0  0  0
   -2.5830   13.7270   -3.4830 O   0  0  0  0  0  0  0  0  0  0  0  0
   -3.9870   14.8880   -1.9530 C   0  0  0  0  0  0  0  0  0  0  0  0
   -2.9570   14.7120    0.4150 C   0  0  0  0  0  0  0  0  0  0  0  0
   -0.1420   14.8550   -5.1280 C   0  0  1  0  0  0  0  0  0  0  0  0
    1.9750   14.4240   -4.2620 C   0  0  0  0  0  0  0  0  0  0  0  0
   -4.0580   15.2870   -0.4850 C   0  0  0  0  0  0  0  0  0  0  0  0
   -1.6620   14.8560   -5.2260 C   0  0  0  0  0  0  0  0  0  0  0  0
    0.3900   16.1550   -4.5820 C   0  0  1  0  0  0  0  0  0  0  0  0
    1.8200   15.8730   -4.5550 N   0  0  0  0  0  0  0  0  0  0  0  0
   -2.3530   16.2020   -5.5640 C   0  0  1  0  0  0  0  0  0  0  0  0
   -0.0340   17.3830   -5.3770 C   0  0  0  0  0  0  0  0  0  0  0  0
   -3.5940   16.1460   -4.8970 O   0  0  0  0  0  0  0  0  0  0  0  0
   -1.5650   17.5240   -5.3500 C   0  0  0  0  0  0  0  0  0  0  0  0
   -4.4260   15.1470   -5.4920 C   0  0  0  0  0  0  0  0  0  0  0  0
  1  2  1  0
  2  3  1  1
  1  4  1  0
  4  5  1  0
  4  6  1  1
  2  7  1  0
  7  8  1  0
  7  9  1  1
 10  5  1  6
  8 11  1  6
  8 12  1  0
  9 13  1  0
 10 14  1  0
 10 15  1  0
 12 16  1  0
 13 16  1  0
 14 17  1  1
 14 18  1  0
 15 19  1  0
 18 19  1  0
 17 20  1  0
 18 21  1  6
 20 22  1  1
 20 23  1  0
 21 23  1  0
 22 24  1  0
M  END
