ucsf523-ucsf516
     RDKit          3D

 21 24  0  0  0  0  0  0  0  0999 V2000
    0.5140   14.4810   -0.0640 N   0  0  0  0  0  0  0  0  0  0  0  0
   -0.7090   13.9930    0.3850 C   0  0  1  0  0  0  0  0  0  0  0  0
   -1.5600   14.9200    1.0870 N   0  0  0  0  0  0  0  0  0  0  0  0
   -1.4960   13.1770   -0.4860 N   0  0  0  0  0  0  0  0  0  0  0  0
   -2.0370   13.9410   -2.1430 S   0  0  0  0  0  0  0  0  0  0  0  0
   -2.8150   14.4230    0.5990 C   0  0  2  0  0  0  0  0  0  0  0  0
   -3.8110   13.5240   -2.9790 O   0  0  0  0  0  0  0  0  0  0  0  0
   -3.0680   14.6970   -0.8340 C   0  0  1  0  0  0  0  0  0  0  0  0
   -3.8790   14.9740    1.3690 N   0  0  0  0  0  0  0  0  0  0  0  0
   -0.5510   14.6200   -3.0640 C   0  0  1  0  0  0  0  0  0  0  0  0
   -1.4310   13.9640   -3.5280 C   0  0  0  0  0  0  0  0  0  0  0  0
   -5.0970   14.7930    0.6660 C   0  0  1  0  0  0  0  0  0  0  0  0
   -3.7660   15.8620   -1.0450 N   0  0  0  0  0  0  0  0  0  0  0  0
    0.7410   14.0830   -2.6840 C   0  0  0  0  0  0  0  0  0  0  0  0
   -0.8720   15.4050   -4.3260 C   0  0  0  0  0  0  0  0  0  0  0  0
   -1.6860   14.4020   -4.8990 C   0  0  0  0  0  0  0  0  0  0  0  0
   -6.1100   15.0010    1.5790 O   0  0  0  0  0  0  0  0  0  0  0  0
   -5.1260   15.6440   -0.6180 C   0  0  0  0  0  0  0  0  0  0  0  0
    1.8300   13.4650   -3.4790 C   0  0  0  0  0  0  0  0  0  0  0  0
    0.5400   12.6830   -2.1660 C   0  0  0  0  0  0  0  0  0  0  0  0
    0.8020   12.3030   -3.6410 C   0  0  0  0  0  0  0  0  0  0  0  0
  2  1  1  6
  2  3  1  0
  2  4  1  0
  4  5  1  0
  6  3  1  1
  5  7  1  0
  5  8  1  0
  6  8  1  0
  6  9  1  0
  5 10  1  0
  5 11  1  0
  9 12  1  0
  8 13  1  1
 10 14  1  6
 10 15  1  0
 11 16  1  0
 15 16  1  0
 12 17  1  1
 12 18  1  0
 13 18  1  0
 14 19  1  0
 14 20  1  0
 19 21  1  0
 20 21  1  0
M  END
