ucsf170-ucsf115
     RDKit          3D

 27 30  0  0  0  0  0  0  0  0999 V2000
   -6.2900   15.2860   -1.9200 C   0  0  0  0  0  0  0  0  0  0  0  0
   -4.7110   15.3480   -1.0490 S   0  0  0  0  0  0  0  0  0  0  0  0
   -3.5260   14.5590   -2.2480 C   0  0  1  0  0  0  0  0  0  0  0  0
   -3.3610   13.0090   -2.1180 C   0  0  0  0  0  0  0  0  0  0  0  0
   -3.7950   14.9780   -3.6870 C   0  0  0  0  0  0  0  0  0  0  0  0
   -2.2180   12.4440   -3.0120 C   0  0  2  0  0  0  0  0  0  0  0  0
   -2.8790   14.2310   -4.6580 C   0  0  0  0  0  0  0  0  0  0  0  0
   -1.1740   11.4290   -2.3700 C   0  0  2  0  0  0  0  0  0  0  0  0
   -1.6580   13.5740   -3.9580 C   0  0  1  0  0  0  0  0  0  0  0  0
   -0.6450   14.5950   -3.5870 N   0  0  0  0  0  0  0  0  0  0  0  0
   -0.2900   12.0230   -1.4310 O   0  0  0  0  0  0  0  0  0  0  0  0
   -0.3010   10.9940   -3.2450 O   0  0  0  0  0  0  0  0  0  0  0  0
   -0.8820   15.1780   -2.2490 N   0  0  0  0  0  0  0  0  0  0  0  0
    0.7870   14.5770   -3.9130 C   0  0  2  0  0  0  0  0  0  0  0  0
   -0.7040   14.2340   -1.1540 C   0  0  1  0  0  0  0  0  0  0  0  0
    1.1150   13.9770   -5.1730 O   0  0  0  0  0  0  0  0  0  0  0  0
    1.8470   14.0670   -2.9320 C   0  0  0  0  0  0  0  0  0  0  0  0
    0.4980   14.7130   -0.4670 N   0  0  0  0  0  0  0  0  0  0  0  0
   -1.8190   14.1530   -0.0650 C   0  0  1  0  0  0  0  0  0  0  0  0
    2.1060   12.6660   -3.4410 C   0  0  0  0  0  0  0  0  0  0  0  0
    1.8060   12.7520   -4.9270 C   0  0  0  0  0  0  0  0  0  0  0  0
    0.1900   15.2120    0.8410 C   0  0  0  0  0  0  0  0  0  0  0  0
   -2.1140   15.5820    0.2660 C   0  0  2  0  0  0  0  0  0  0  0  0
   -3.1480   13.5840   -0.1010 N   0  0  0  0  0  0  0  0  0  0  0  0
   -0.9140   16.1650    0.8020 N   0  0  0  0  0  0  0  0  0  0  0  0
   -3.2180   15.5090    1.2320 N   0  0  0  0  0  0  0  0  0  0  0  0
   -3.6840   14.1090    1.1300 C   0  0  0  0  0  0  0  0  0  0  0  0
  1  2  1  0
  3  2  1  1
  3  4  1  0
  3  5  1  0
  6  4  1  1
  5  7  1  0
  6  8  1  0
  6  9  1  0
  7  9  1  0
  9 10  1  1
  8 11  1  1
  8 12  1  0
 10 13  1  0
 14 10  1  1
 15 13  1  6
 14 16  1  0
 14 17  1  0
 15 18  1  0
 15 19  1  0
 17 20  1  0
 16 21  1  0
 20 21  1  0
 18 22  1  0
 19 23  1  0
 19 24  1  6
 22 25  1  0
 23 25  1  1
 23 26  1  0
 24 27  1  0
 26 27  1  0
M  CHG  1  12  -1
M  END
