ucsf262-ucsf493
     RDKit          3D

 17 19  0  0  0  0  0  0  0  0999 V2000
   -3.0450   15.7580   -4.5260 C   0  0  0  0  0  0  0  0  0  0  0  0
   -4.1510   15.2370   -5.4480 C   0  0  0  0  0  0  0  0  0  0  0  0
   -1.8320   16.3390   -5.2770 C   0  0  2  0  0  0  0  0  0  0  0  0
   -0.4360   15.6290   -5.0850 C   0  0  2  0  0  0  0  0  0  0  0  0
   -1.7020   17.8860   -5.2670 C   0  0  0  0  0  0  0  0  0  0  0  0
   -0.2850   14.7060   -3.8640 C   0  0  1  0  0  0  0  0  0  0  0  0
    0.8440   16.4970   -5.1210 C   0  0  2  0  0  0  0  0  0  0  0  0
   -0.5810   18.3710   -6.1660 C   0  0  0  0  0  0  0  0  0  0  0  0
   -0.0810   13.2220   -4.2480 C   0  0  0  0  0  0  0  0  0  0  0  0
    0.9500   15.1910   -3.1040 C   0  0  2  0  0  0  0  0  0  0  0  0
    1.3990   16.4140   -3.8000 N   0  0  0  0  0  0  0  0  0  0  0  0
    0.7510   17.9450   -5.5960 C   0  0  0  0  0  0  0  0  0  0  0  0
    2.0620   14.0750   -2.9850 C   0  0  1  0  0  0  0  0  0  0  0  0
    0.3060   12.4510   -2.9830 C   0  0  2  0  0  0  0  0  0  0  0  0
    3.0510   14.4760   -2.2020 O   0  0  0  0  0  0  0  0  0  0  0  0
    1.4620   12.9400   -2.3320 O   0  0  0  0  0  0  0  0  0  0  0  0
    0.5210   11.0760   -3.2510 O   0  0  0  0  0  0  0  0  0  0  0  0
  1  2  1  0
  3  1  1  1
  4  3  1  1
  3  5  1  0
  4  6  1  0
  4  7  1  0
  5  8  1  0
  6  9  1  6
  6 10  1  0
  7 11  1  0
 10 11  1  6
  7 12  1  1
  8 12  1  0
 10 13  1  0
  9 14  1  0
 13 15  1  1
 13 16  1  0
 14 16  1  0
 14 17  1  6
M  CHG  1  15  -1
M  END
