ucsf114-ucsf243
     RDKit          3D

 22 24  0  0  0  0  0  0  0  0999 V2000
    0.3750   17.4740   -5.3810 C   0  0  0  0  0  0  0  0  0  0  0  0
   -1.0320   16.9070   -5.0790 C   0  0  0  0  0  0  0  0  0  0  0  0
   -2.0430   17.7450   -5.8510 C   0  0  0  0  0  0  0  0  0  0  0  0
   -1.0820   15.4950   -5.4880 O   0  0  0  0  0  0  0  0  0  0  0  0
   -1.5160   14.4030   -4.5880 C   0  0  0  0  0  0  0  0  0  0  0  0
   -0.5560   14.2720   -3.4110 C   0  0  2  0  0  0  0  0  0  0  0  0
   -0.7760   14.9350   -2.0390 C   0  0  2  0  0  0  0  0  0  0  0  0
    0.3690   15.4460   -3.7770 C   0  0  0  0  0  0  0  0  0  0  0  0
   -0.5050   16.6460   -3.2010 C   0  0  1  0  0  0  0  0  0  0  0  0
    0.4780   15.5410   -1.7040 N   0  0  0  0  0  0  0  0  0  0  0  0
   -1.5550   14.7940   -0.7430 C   0  0  2  0  0  0  0  0  0  0  0  0
   -1.7520   15.8320   -2.7740 C   0  0  1  0  0  0  0  0  0  0  0  0
   -2.3250   15.2220   -3.9580 O   0  0  0  0  0  0  0  0  0  0  0  0
    0.0640   17.0680   -2.1160 O   0  0  0  0  0  0  0  0  0  0  0  0
   -0.7110   14.1760    0.3670 C   0  0  2  0  0  0  0  0  0  0  0  0
    1.3110   14.6600   -0.9610 C   0  0  2  0  0  0  0  0  0  0  0  0
   -2.9600   14.6670   -1.0110 N   0  0  0  0  0  0  0  0  0  0  0  0
   -2.9130   15.9750   -1.7220 C   0  0  0  0  0  0  0  0  0  0  0  0
    2.3920   13.7490   -2.1000 S   0  0  0  0  0  0  0  0  0  0  0  0
   -0.5310   15.0580    1.4710 O   0  0  0  0  0  0  0  0  0  0  0  0
   -3.7650   14.8060    0.2010 C   0  0  0  0  0  0  0  0  0  0  0  0
    0.5790   13.7190   -0.1380 N   0  0  0  0  0  0  0  0  0  0  0  0
  1  2  1  0
  2  3  1  0
  2  4  1  0
  4  5  1  0
  6  5  1  6
  6  7  1  0
  6  8  1  0
  8  9  1  0
  7 10  1  1
  7 11  1  0
  7 12  1  0
  9 12  1  0
 12 13  1  6
  9 14  1  1
 11 15  1  0
 10 16  1  0
 11 17  1  6
 12 18  1  0
 17 18  1  0
 16 19  1  6
 15 20  1  1
 17 21  1  0
 15 22  1  0
 16 22  1  0
M  CHG  1  14  -1
M  END
