ucsf584-ucsf364
     RDKit          3D

 23 25  0  0  0  0  0  0  0  0999 V2000
    2.4330   13.0980   -4.5030 C   0  0  0  0  0  0  0  0  0  0  0  0
    0.9770   12.9970   -4.9770 C   0  0  1  0  0  0  0  0  0  0  0  0
    0.7330   11.8470   -5.9440 C   0  0  2  0  0  0  0  0  0  0  0  0
   -0.1040   12.9370   -3.8580 C   0  0  2  0  0  0  0  0  0  0  0  0
    1.7330   11.7610   -6.9670 O   0  0  0  0  0  0  0  0  0  0  0  0
    0.3400   13.1700   -2.3450 C   0  0  1  0  0  0  0  0  0  0  0  0
   -0.9280   11.6140   -4.0170 C   0  0  0  0  0  0  0  0  0  0  0  0
   -0.6640   11.8320   -6.5240 C   0  0  0  0  0  0  0  0  0  0  0  0
   -0.5840   14.1090   -1.7560 O   0  0  0  0  0  0  0  0  0  0  0  0
    0.2720   12.0150   -1.6710 O   0  0  0  0  0  0  0  0  0  0  0  0
   -1.6010   11.4410   -5.3950 C   0  0  0  0  0  0  0  0  0  0  0  0
   -1.7390   14.3610   -2.5630 C   0  0  0  0  0  0  0  0  0  0  0  0
   -2.8130   15.0560   -1.8190 N   0  0  0  0  0  0  0  0  0  0  0  0
   -3.0010   14.4840   -0.5000 C   0  0  0  0  0  0  0  0  0  0  0  0
   -4.0390   15.0880   -2.6330 C   0  0  0  0  0  0  0  0  0  0  0  0
   -4.0710   15.2710    0.2580 C   0  0  0  0  0  0  0  0  0  0  0  0
   -5.3740   14.8150   -1.9080 C   0  0  0  0  0  0  0  0  0  0  0  0
   -5.4440   15.2990   -0.4540 C   0  0  0  0  0  0  0  0  0  0  0  0
   -6.5450   14.5210    0.3150 C   0  0  0  0  0  0  0  0  0  0  0  0
   -6.4810   14.6530    1.7610 N   0  0  0  0  0  0  0  0  0  0  0  0
   -7.9020   14.8750   -0.0520 N   0  0  0  0  0  0  0  0  0  0  0  0
   -8.7240   14.4540    1.0780 C   0  0  0  0  0  0  0  0  0  0  0  0
   -7.8460   14.6390    2.2920 C   0  0  0  0  0  0  0  0  0  0  0  0
  2  1  1  1
  2  3  1  0
  2  4  1  0
  3  5  1  6
  4  6  1  0
  4  7  1  1
  3  8  1  0
  6  9  1  0
  6 10  1  1
  7 11  1  0
  8 11  1  0
  9 12  1  0
 12 13  1  0
 13 14  1  0
 13 15  1  0
 14 16  1  0
 15 17  1  0
 16 18  1  0
 17 18  1  0
 18 19  1  0
 19 20  1  0
 19 21  1  0
 21 22  1  0
 20 23  1  0
 22 23  1  0
M  CHG  1  10  -1
M  END
