ucsf493-ucsf338
     RDKit          3D

 28 30  0  0  0  0  0  0  0  0999 V2000
   -4.4230   15.2260   -6.5040 C   0  0  0  0  0  0  0  0  0  0  0  0
   -3.8350   15.7520   -5.2880 N   0  0  0  0  0  0  0  0  0  0  0  0
   -4.1140   14.7510   -4.2780 C   0  0  0  0  0  0  0  0  0  0  0  0
   -2.3990   16.0180   -5.4440 C   0  0  2  0  0  0  0  0  0  0  0  0
   -3.5030   15.1340   -2.9630 C   0  0  0  0  0  0  0  0  0  0  0  0
   -1.5030   14.8000   -5.0790 C   0  0  0  0  0  0  0  0  0  0  0  0
   -1.8660   17.3060   -4.7880 C   0  0  0  0  0  0  0  0  0  0  0  0
   -4.5540   15.0900   -2.0400 O   0  0  0  0  0  0  0  0  0  0  0  0
   -0.4460   15.1520   -4.0160 C   0  0  2  0  0  0  0  0  0  0  0  0
   -0.3720   17.4760   -5.0400 C   0  0  0  0  0  0  0  0  0  0  0  0
    0.4240   16.3210   -4.4660 C   0  0  2  0  0  0  0  0  0  0  0  0
    0.6090   14.0330   -3.8020 C   0  0  1  0  0  0  0  0  0  0  0  0
   -4.0630   14.5540   -0.8560 C   0  0  2  0  0  0  0  0  0  0  0  0
    0.1880   12.5400   -3.9070 C   0  0  0  0  0  0  0  0  0  0  0  0
    1.2790   15.6570   -5.4300 N   0  0  0  0  0  0  0  0  0  0  0  0
    1.7360   14.4340   -4.7340 C   0  0  0  0  0  0  0  0  0  0  0  0
   -5.1830   14.5630    0.1790 C   0  0  2  0  0  0  0  0  0  0  0  0
   -2.8150   15.3820   -0.4730 C   0  0  0  0  0  0  0  0  0  0  0  0
   -0.1490   11.7470   -2.5920 C   0  0  1  0  0  0  0  0  0  0  0  0
   -6.5750   14.9560   -0.3920 C   0  0  2  0  0  0  0  0  0  0  0  0
   -2.2610   15.1290    0.9190 C   0  0  0  0  0  0  0  0  0  0  0  0
   -4.7050   15.3580    1.3910 C   0  0  0  0  0  0  0  0  0  0  0  0
    0.4700   10.4760   -2.5620 O   0  0  0  0  0  0  0  0  0  0  0  0
    0.4200   12.2920   -1.5310 O   0  0  0  0  0  0  0  0  0  0  0  0
   -7.6840   14.5970    0.4950 N   0  0  0  0  0  0  0  0  0  0  0  0
   -6.8080   14.3000   -1.6190 O   0  0  0  0  0  0  0  0  0  0  0  0
   -3.3760   14.8190    1.8880 C   0  0  0  0  0  0  0  0  0  0  0  0
   -8.8380   14.2840   -0.3300 O   0  0  0  0  0  0  0  0  0  0  0  0
  1  2  1  0
  2  3  1  0
  4  2  1  1
  3  5  1  0
  4  6  1  0
  4  7  1  0
  5  8  1  0
  9  6  1  6
  7 10  1  0
  9 11  1  0
 11 10  1  6
  9 12  1  0
 13  8  1  6
 12 14  1  6
 11 15  1  0
 12 16  1  0
 15 16  1  0
 13 17  1  0
 13 18  1  0
 14 19  1  0
 17 20  1  0
 18 21  1  0
 17 22  1  1
 19 23  1  6
 19 24  1  0
 20 25  1  0
 20 26  1  6
 21 27  1  0
 22 27  1  0
 25 28  1  0
M  CHG  1  24  -1
M  END
