ucsf404-ucsf258
     RDKit          3D

 15 16  0  0  0  0  0  0  0  0999 V2000
   -5.9700   14.9520   -2.7280 Cl  0  0  0  0  0  0  0  0  0  0  0  0
   -4.5200   14.4190   -1.7790 C   0  0  2  0  0  0  0  0  0  0  0  0
   -4.6370   15.0140   -0.3890 C   0  0  1  0  0  0  0  0  0  0  0  0
   -3.1640   14.8810   -2.3950 C   0  0  2  0  0  0  0  0  0  0  0  0
   -2.9300   14.3050   -3.7090 O   0  0  0  0  0  0  0  0  0  0  0  0
   -5.9630   14.8250    0.3070 N   0  0  0  0  0  0  0  0  0  0  0  0
   -3.5730   14.3480    0.4830 C   0  0  2  0  0  0  0  0  0  0  0  0
   -1.8910   14.5550   -1.5160 C   0  0  2  0  0  0  0  0  0  0  0  0
   -0.8910   13.4530   -2.0580 C   0  0  2  0  0  0  0  0  0  0  0  0
   -5.6140   14.4440    1.6530 C   0  0  1  0  0  0  0  0  0  0  0  0
   -4.0230   15.1620    2.0050 S   0  0  0  0  0  0  0  0  0  0  0  0
   -2.1360   14.5050    0.0300 C   0  0  0  0  0  0  0  0  0  0  0  0
   -6.6360   14.8740    2.5610 N   0  0  0  0  0  0  0  0  0  0  0  0
    0.0370   13.1210   -1.1630 O   0  0  0  0  0  0  0  0  0  0  0  0
   -0.1660   13.9950   -3.1670 O   0  0  0  0  0  0  0  0  0  0  0  0
  2  1  1  6
  2  3  1  0
  2  4  1  0
  4  5  1  6
  3  6  1  1
  3  7  1  0
  4  8  1  0
  8  9  1  0
  6 10  1  0
  7 11  1  0
 10 11  1  0
  7 12  1  6
  8 12  1  1
 10 13  1  1
  9 14  1  1
  9 15  1  0
M  CHG  1  14  -1
M  END
