ucsf320-ucsf005
     RDKit          3D

 17 18  0  0  0  0  0  0  0  0999 V2000
   -0.8830   14.3030   -2.0840 O   0  0  0  0  0  0  0  0  0  0  0  0
   -1.9940   14.6970   -2.6440 C   0  0  1  0  0  0  0  0  0  0  0  0
   -1.9460   14.0860   -3.9180 O   0  0  0  0  0  0  0  0  0  0  0  0
   -3.2860   14.2800   -1.8690 C   0  0  1  0  0  0  0  0  0  0  0  0
   -3.5210   15.0530   -0.4940 C   0  0  1  0  0  0  0  0  0  0  0  0
   -4.4820   14.4540   -2.8430 C   0  0  0  0  0  0  0  0  0  0  0  0
   -4.7740   15.9320   -0.6420 C   0  0  0  0  0  0  0  0  0  0  0  0
   -5.8660   14.3350   -2.2240 C   0  0  0  0  0  0  0  0  0  0  0  0
   -3.6040   14.4740    0.9440 C   0  0  1  0  0  0  0  0  0  0  0  0
   -2.2200   15.8510   -0.3940 C   0  0  0  0  0  0  0  0  0  0  0  0
   -4.6660   13.5270    1.2060 N   0  0  0  0  0  0  0  0  0  0  0  0
   -6.0870   15.3720   -1.1530 C   0  0  1  0  0  0  0  0  0  0  0  0
   -2.3870   13.9020    1.4800 N   0  0  0  0  0  0  0  0  0  0  0  0
   -1.0420   15.0140   -0.1320 N   0  0  0  0  0  0  0  0  0  0  0  0
   -6.9420   14.8840   -0.1140 O   0  0  0  0  0  0  0  0  0  0  0  0
   -1.1400   14.5120    1.1870 C   0  0  2  0  0  0  0  0  0  0  0  0
   -0.0600   13.5990    1.4300 N   0  0  0  0  0  0  0  0  0  0  0  0
  2  1  1  1
  2  3  1  0
  2  4  1  0
  4  5  1  0
  4  6  1  6
  5  7  1  6
  6  8  1  0
  5  9  1  0
  5 10  1  0
  9 11  1  6
  7 12  1  0
  8 12  1  0
  9 13  1  0
 10 14  1  0
 12 15  1  1
 13 16  1  0
 14 16  1  0
 16 17  1  6
M  CHG  1   1  -1
M  END
