ucsf320-ucsf260
     RDKit          3D

 25 27  0  0  0  0  0  0  0  0999 V2000
   -1.0460   14.7400   -1.6960 O   0  0  0  0  0  0  0  0  0  0  0  0
   -1.9360   14.7830   -2.6670 C   0  0  1  0  0  0  0  0  0  0  0  0
   -1.6560   13.8600   -3.7270 O   0  0  0  0  0  0  0  0  0  0  0  0
   -3.3430   14.4280   -2.0380 C   0  0  1  0  0  0  0  0  0  0  0  0
   -0.7210   14.2310   -4.7720 C   0  0  0  0  0  0  0  0  0  0  0  0
   -3.4790   14.7960   -0.5370 C   0  0  0  0  0  0  0  0  0  0  0  0
   -4.5070   15.0270   -2.8460 C   0  0  0  0  0  0  0  0  0  0  0  0
    0.1830   13.0820   -5.3360 C   0  0  1  0  0  0  0  0  0  0  0  0
   -4.8740   14.6310    0.0460 C   0  0  0  0  0  0  0  0  0  0  0  0
   -5.8980   14.9100   -2.2430 C   0  0  0  0  0  0  0  0  0  0  0  0
    1.3990   12.8610   -4.3800 C   0  0  0  0  0  0  0  0  0  0  0  0
   -5.9240   15.3410   -0.7900 C   0  0  1  0  0  0  0  0  0  0  0  0
   -0.4320   11.7360   -5.5540 N   0  0  0  0  0  0  0  0  0  0  0  0
   -7.2160   15.0720   -0.2470 O   0  0  0  0  0  0  0  0  0  0  0  0
    1.0480   12.4510   -2.9200 C   0  0  1  0  0  0  0  0  0  0  0  0
   -1.7100   11.6060   -4.8990 C   0  0  0  0  0  0  0  0  0  0  0  0
   -0.6480   11.3130   -6.9260 C   0  0  2  0  0  0  0  0  0  0  0  0
    0.9010   11.1420   -2.7870 O   0  0  0  0  0  0  0  0  0  0  0  0
    2.1290   12.6930   -2.0770 O   0  0  0  0  0  0  0  0  0  0  0  0
   -2.3170   10.3930   -5.4500 N   0  0  0  0  0  0  0  0  0  0  0  0
   -1.6840   10.1830   -6.7580 C   0  0  2  0  0  0  0  0  0  0  0  0
    0.6510   10.9490   -7.6720 C   0  0  0  0  0  0  0  0  0  0  0  0
   -1.1150    8.7780   -6.8200 C   0  0  0  0  0  0  0  0  0  0  0  0
    0.8290    9.5270   -8.2270 C   0  0  0  0  0  0  0  0  0  0  0  0
   -0.3610    8.5830   -8.1130 C   0  0  0  0  0  0  0  0  0  0  0  0
  2  1  1  1
  2  3  1  0
  2  4  1  0
  3  5  1  0
  4  6  1  1
  4  7  1  0
  8  5  1  1
  6  9  1  0
  7 10  1  0
  8 11  1  0
  9 12  1  0
 10 12  1  0
  8 13  1  0
 12 14  1  1
 11 15  1  0
 13 16  1  0
 13 17  1  0
 15 18  1  6
 15 19  1  0
 16 20  1  0
 17 21  1  0
 20 21  1  0
 17 22  1  1
 21 23  1  1
 22 24  1  0
 23 25  1  0
 24 25  1  0
M  CHG  2   1  -1  18  -1
M  END
