ucsf404-ucsf110
     RDKit          3D

 18 20  0  0  0  0  0  0  0  0999 V2000
   -6.7130   15.4490   -2.2530 Cl  0  0  0  0  0  0  0  0  0  0  0  0
   -5.0730   15.3720   -1.5220 C   0  0  1  0  0  0  0  0  0  0  0  0
   -5.1420   14.1880   -0.5870 C   0  0  2  0  0  0  0  0  0  0  0  0
   -4.0040   15.2590   -2.6090 C   0  0  0  0  0  0  0  0  0  0  0  0
   -6.1630   14.4130    0.4550 N   0  0  0  0  0  0  0  0  0  0  0  0
   -3.7770   13.7180   -0.0210 C   0  0  2  0  0  0  0  0  0  0  0  0
   -2.6380   14.7110   -2.1600 C   0  0  1  0  0  0  0  0  0  0  0  0
   -1.4920   15.5160   -2.8220 C   0  0  0  0  0  0  0  0  0  0  0  0
   -5.5040   14.8440    1.6390 C   0  0  2  0  0  0  0  0  0  0  0  0
   -4.0260   13.8490    1.7930 S   0  0  0  0  0  0  0  0  0  0  0  0
   -2.4810   14.4160   -0.6120 C   0  0  1  0  0  0  0  0  0  0  0  0
   -6.4970   14.6780    2.6530 N   0  0  0  0  0  0  0  0  0  0  0  0
   -2.2370   15.6330    0.3170 C   0  0  1  0  0  0  0  0  0  0  0  0
   -1.1470   13.6280   -0.5450 C   0  0  0  0  0  0  0  0  0  0  0  0
   -3.4350   16.1220    0.9660 N   0  0  0  0  0  0  0  0  0  0  0  0
   -1.3910   15.2490    1.4030 N   0  0  0  0  0  0  0  0  0  0  0  0
   -0.0310   14.5310   -0.3870 N   0  0  0  0  0  0  0  0  0  0  0  0
   -0.0480   14.9240    0.9850 C   0  0  0  0  0  0  0  0  0  0  0  0
  2  1  1  6
  2  3  1  0
  2  4  1  0
  3  5  1  1
  3  6  1  0
  4  7  1  0
  7  8  1  1
  5  9  1  0
  6 10  1  1
  9 10  1  0
  6 11  1  0
  7 11  1  0
  9 12  1  1
 11 13  1  0
 11 14  1  6
 13 15  1  1
 13 16  1  0
 14 17  1  0
 16 18  1  0
 17 18  1  0
M  END
