ucsf385-ucsf516
     RDKit          3D

 21 24  0  0  0  0  0  0  0  0999 V2000
   -3.5310   13.3990   -0.7640 N   0  0  0  0  0  0  0  0  0  0  0  0
   -2.8620   14.6940   -0.7040 C   0  0  1  0  0  0  0  0  0  0  0  0
   -2.7290   15.0130    0.6790 C   0  0  2  0  0  0  0  0  0  0  0  0
   -1.3230   14.3710   -1.7990 S   0  0  0  0  0  0  0  0  0  0  0  0
   -3.9730   15.4960   -0.9620 C   0  0  0  0  0  0  0  0  0  0  0  0
    0.5810   14.5600   -1.4820 C   0  0  2  0  0  0  0  0  0  0  0  0
   -1.2770   13.5090   -0.2520 C   0  0  0  0  0  0  0  0  0  0  0  0
   -2.0080   14.4850    1.6830 N   0  0  0  0  0  0  0  0  0  0  0  0
   -0.8700   14.1350   -3.5550 C   0  0  0  0  0  0  0  0  0  0  0  0
   -2.2190   13.3820   -3.0660 C   0  0  0  0  0  0  0  0  0  0  0  0
   -4.0990   14.9290    1.2160 N   0  0  0  0  0  0  0  0  0  0  0  0
   -4.6930   15.7690    0.2950 C   0  0  0  0  0  0  0  0  0  0  0  0
    0.9130   15.5070   -2.4520 O   0  0  0  0  0  0  0  0  0  0  0  0
    1.0460   13.3580   -1.6790 O   0  0  0  0  0  0  0  0  0  0  0  0
   -0.8940   14.0890    1.0440 C   0  0  0  0  0  0  0  0  0  0  0  0
    0.1630   13.2550   -3.8520 C   0  0  0  0  0  0  0  0  0  0  0  0
   -1.7040   14.9960   -4.4160 C   0  0  0  0  0  0  0  0  0  0  0  0
   -2.9360   14.3790   -4.0290 C   0  0  0  0  0  0  0  0  0  0  0  0
    1.5820   13.8800   -3.9410 C   0  0  0  0  0  0  0  0  0  0  0  0
    0.7800   12.0120   -3.5730 C   0  0  0  0  0  0  0  0  0  0  0  0
    2.1040   12.4690   -4.2250 C   0  0  0  0  0  0  0  0  0  0  0  0
  2  1  1  1
  2  3  1  0
  2  4  1  0
  2  5  1  0
  4  6  1  0
  4  7  1  0
  3  8  1  1
  4  9  1  0
  4 10  1  0
  3 11  1  0
  5 12  1  0
 11 12  1  0
  6 13  1  6
  6 14  1  0
  7 15  1  0
  8 15  1  0
  9 16  1  0
  9 17  1  0
 10 18  1  0
 17 18  1  0
 16 19  1  0
 16 20  1  0
 19 21  1  0
 20 21  1  0
M  CHG  1  14  -1
M  END
