ucsf339-ucsf005
     RDKit          3D

 22 24  0  0  0  0  0  0  0  0999 V2000
    1.0100   13.1410   -3.0050 O   0  0  0  0  0  0  0  0  0  0  0  0
    0.3690   13.7370   -2.0290 C   0  0  2  0  0  0  0  0  0  0  0  0
    0.4410   12.7450   -1.0070 O   0  0  0  0  0  0  0  0  0  0  0  0
   -1.1410   14.0900   -2.3740 C   0  0  1  0  0  0  0  0  0  0  0  0
   -2.0810   14.6650   -1.2050 C   0  0  2  0  0  0  0  0  0  0  0  0
   -1.2940   14.9230   -3.6860 C   0  0  0  0  0  0  0  0  0  0  0  0
   -3.3320   15.4060   -1.8280 C   0  0  1  0  0  0  0  0  0  0  0  0
   -2.6390   15.1050   -4.2170 N   0  0  0  0  0  0  0  0  0  0  0  0
   -1.2420   15.5410   -0.3600 N   0  0  0  0  0  0  0  0  0  0  0  0
   -2.5700   13.6170   -0.1770 C   0  0  0  0  0  0  0  0  0  0  0  0
   -3.6660   14.8460   -3.2300 C   0  0  0  0  0  0  0  0  0  0  0  0
   -4.6250   15.4830   -0.9350 C   0  0  0  0  0  0  0  0  0  0  0  0
   -2.5320   14.0940    1.3000 C   0  0  2  0  0  0  0  0  0  0  0  0
   -0.4710   14.7030    0.4930 C   0  0  1  0  0  0  0  0  0  0  0  0
   -3.2420   15.3120    1.6060 N   0  0  0  0  0  0  0  0  0  0  0  0
    0.5450   15.5530    0.9250 N   0  0  0  0  0  0  0  0  0  0  0  0
   -4.3550   15.6510    0.5670 C   0  0  0  0  0  0  0  0  0  0  0  0
   -5.6010   14.3270   -1.1800 C   0  0  0  0  0  0  0  0  0  0  0  0
   -1.1810   14.3830    1.6630 N   0  0  0  0  0  0  0  0  0  0  0  0
   -5.1630   14.7640    1.5520 C   0  0  0  0  0  0  0  0  0  0  0  0
   -6.8570   14.5200   -0.3410 C   0  0  0  0  0  0  0  0  0  0  0  0
   -6.5950   14.4200    1.1560 C   0  0  0  0  0  0  0  0  0  0  0  0
  2  1  1  6
  2  3  1  0
  2  4  1  0
  4  5  1  0
  4  6  1  6
  5  7  1  0
  6  8  1  0
  5  9  1  0
  5 10  1  1
  7 11  1  0
  8 11  1  0
  7 12  1  1
 10 13  1  0
  9 14  1  0
 13 15  1  6
 14 16  1  1
 12 17  1  0
 12 18  1  0
 13 19  1  0
 14 19  1  0
 17 20  1  0
 18 21  1  0
 20 22  1  0
 21 22  1  0
M  CHG  1   1  -1
M  END
