ucsf039-ucsf336
     RDKit          3D

 30 33  0  0  0  0  0  0  0  0999 V2000
   -4.0920   15.5530    1.1980 N   0  0  0  0  0  0  0  0  0  0  0  0
   -3.6140   14.7870    0.0480 C   0  0  2  0  0  0  0  0  0  0  0  0
   -2.1020   14.5000    0.1090 C   0  0  1  0  0  0  0  0  0  0  0  0
   -3.9280   15.5420   -1.1500 N   0  0  0  0  0  0  0  0  0  0  0  0
   -3.2060   14.9960   -2.3110 C   0  0  0  0  0  0  0  0  0  0  0  0
   -1.3330   15.3780   -0.8540 C   0  0  2  0  0  0  0  0  0  0  0  0
   -1.4120   14.8890    1.3490 N   0  0  0  0  0  0  0  0  0  0  0  0
   -1.7950   15.3410   -2.2470 N   0  0  0  0  0  0  0  0  0  0  0  0
   -0.0000   14.9030   -0.5460 N   0  0  0  0  0  0  0  0  0  0  0  0
   -0.0280   14.6910    0.8910 C   0  0  0  0  0  0  0  0  0  0  0  0
   -0.8620   14.7490   -3.3060 C   0  0  2  0  0  0  0  0  0  0  0  0
    0.3780   14.0540   -2.6530 C   0  0  0  0  0  0  0  0  0  0  0  0
   -0.3990   15.7760   -4.4140 C   0  0  2  0  0  0  0  0  0  0  0  0
    1.1510   12.9910   -3.4740 C   0  0  1  0  0  0  0  0  0  0  0  0
    0.8000   16.6400   -4.0040 C   0  0  0  0  0  0  0  0  0  0  0  0
   -1.4700   16.6980   -4.8920 N   0  0  0  0  0  0  0  0  0  0  0  0
    1.8410   13.5360   -4.4640 O   0  0  0  0  0  0  0  0  0  0  0  0
    2.1990   12.4690   -2.6960 O   0  0  0  0  0  0  0  0  0  0  0  0
    0.2650   11.7440   -3.9680 C   0  0  1  0  0  0  0  0  0  0  0  0
   -0.9020   18.0050   -5.2320 C   0  0  1  0  0  0  0  0  0  0  0  0
    0.8890   17.8200   -5.3680 S   0  0  0  0  0  0  0  0  0  0  0  0
   -1.4710   18.5460   -6.5350 C   0  0  0  0  0  0  0  0  0  0  0  0
   -0.8320   11.5480   -3.0840 O   0  0  0  0  0  0  0  0  0  0  0  0
   -0.2040   11.7580   -5.3470 N   0  0  0  0  0  0  0  0  0  0  0  0
   -0.6970   10.4640   -5.8120 C   0  0  0  0  0  0  0  0  0  0  0  0
   -0.4840   10.1780   -7.3080 C   0  0  0  0  0  0  0  0  0  0  0  0
   -2.1990   10.3730   -5.4850 C   0  0  0  0  0  0  0  0  0  0  0  0
   -1.0880    8.8440   -7.7480 C   0  0  0  0  0  0  0  0  0  0  0  0
   -2.8210    9.0410   -5.9040 C   0  0  0  0  0  0  0  0  0  0  0  0
   -2.5680    8.7470   -7.3800 C   0  0  0  0  0  0  0  0  0  0  0  0
  2  1  1  1
  2  3  1  0
  2  4  1  0
  4  5  1  0
  3  6  1  0
  3  7  1  1
  5  8  1  0
  6  8  1  0
  6  9  1  6
  7 10  1  0
  9 10  1  0
  8 11  1  0
 11 12  1  1
 11 13  1  0
 12 14  1  0
 13 15  1  1
 13 16  1  0
 14 17  1  6
 14 18  1  0
 14 19  1  0
 16 20  1  0
 15 21  1  0
 20 21  1  0
 20 22  1  6
 19 23  1  1
 19 24  1  0
 24 25  1  0
 25 26  1  0
 25 27  1  0
 26 28  1  0
 27 29  1  0
 28 30  1  0
 29 30  1  0
M  CHG  1  17  -1
M  END
