ucsf260-ucsf380
     RDKit          3D

 29 32  0  0  0  0  0  0  0  0999 V2000
    0.9020   11.0410   -2.6590 O   0  0  0  0  0  0  0  0  0  0  0  0
    0.7400   12.3200   -2.9910 C   0  0  1  0  0  0  0  0  0  0  0  0
    1.1270   13.1460   -1.8800 O   0  0  0  0  0  0  0  0  0  0  0  0
    1.6630   12.6930   -4.1970 C   0  0  0  0  0  0  0  0  0  0  0  0
    1.0390   12.5090   -5.6060 C   0  0  0  0  0  0  0  0  0  0  0  0
    0.1880   14.1760   -1.4520 C   0  0  1  0  0  0  0  0  0  0  0  0
    0.3810   15.2770   -2.1640 O   0  0  0  0  0  0  0  0  0  0  0  0
   -1.2980   13.6080   -1.6430 C   0  0  0  0  0  0  0  0  0  0  0  0
   -0.3120   11.8450   -5.7090 N   0  0  0  0  0  0  0  0  0  0  0  0
   -0.7200   10.9510   -4.6170 C   0  0  0  0  0  0  0  0  0  0  0  0
   -0.5290   11.0270   -6.9240 C   0  0  2  0  0  0  0  0  0  0  0  0
   -2.4470   14.4430   -0.9590 C   0  0  0  0  0  0  0  0  0  0  0  0
   -1.6710   12.8910   -2.9900 C   0  0  0  0  0  0  0  0  0  0  0  0
   -1.7010   10.0290   -5.2070 N   0  0  0  0  0  0  0  0  0  0  0  0
   -0.9170    9.6730   -6.3660 C   0  0  1  0  0  0  0  0  0  0  0  0
    0.6950   10.8710   -7.8240 C   0  0  0  0  0  0  0  0  0  0  0  0
   -2.1690   15.1960    0.3320 C   0  0  0  0  0  0  0  0  0  0  0  0
   -3.2980   15.3150   -1.9100 C   0  0  0  0  0  0  0  0  0  0  0  0
   -3.0490   12.2420   -2.9160 C   0  0  0  0  0  0  0  0  0  0  0  0
   -1.5020   13.6830   -4.3000 C   0  0  0  0  0  0  0  0  0  0  0  0
   -1.5360    8.8190   -7.4310 C   0  0  0  0  0  0  0  0  0  0  0  0
    0.7470    9.4500   -8.3970 C   0  0  0  0  0  0  0  0  0  0  0  0
   -3.4980   15.6790    0.9290 C   0  0  0  0  0  0  0  0  0  0  0  0
   -4.6860   15.5530   -1.3150 C   0  0  0  0  0  0  0  0  0  0  0  0
   -3.3270   11.3350   -4.1070 C   0  0  0  0  0  0  0  0  0  0  0  0
   -1.9190   12.9580   -5.5910 C   0  0  0  0  0  0  0  0  0  0  0  0
   -0.6500    8.8570   -8.6770 C   0  0  0  0  0  0  0  0  0  0  0  0
   -4.7210   15.1890    0.1560 C   0  0  0  0  0  0  0  0  0  0  0  0
   -3.0910   11.9780   -5.4790 C   0  0  0  0  0  0  0  0  0  0  0  0
  2  1  1  1
  2  3  1  0
  2  4  1  0
  4  5  1  0
  3  6  1  0
  6  7  1  6
  6  8  1  0
  5  9  1  0
  9 10  1  0
  9 11  1  0
  8 12  1  0
  8 13  1  0
 10 14  1  0
 11 15  1  0
 14 15  1  0
 11 16  1  1
 12 17  1  0
 12 18  1  0
 13 19  1  0
 13 20  1  0
 15 21  1  6
 16 22  1  0
 17 23  1  0
 18 24  1  0
 19 25  1  0
 20 26  1  0
 21 27  1  0
 22 27  1  0
 23 28  1  0
 24 28  1  0
 25 29  1  0
 26 29  1  0
M  CHG  2   1  -1   7  -1
M  END
