ucsf147-ucsf030
     RDKit          3D

 30 33  0  0  0  0  0  0  0  0999 V2000
    1.6140   13.9940   -4.6340 C   0  0  0  0  0  0  0  0  0  0  0  0
    1.4210   15.1090   -3.6830 C   0  0  1  0  0  0  0  0  0  0  0  0
    0.1370   15.7590   -3.7730 C   0  0  0  0  0  0  0  0  0  0  0  0
    0.5480   15.4680   -2.9750 C   0  0  0  0  0  0  0  0  0  0  0  0
   -0.4280   15.8980   -5.2190 C   0  0  0  0  0  0  0  0  0  0  0  0
    0.5320   17.0800   -4.0570 C   0  0  0  0  0  0  0  0  0  0  0  0
   -0.5500   15.0630   -2.6930 N   0  0  0  0  0  0  0  0  0  0  0  0
   -0.8750   15.0540   -3.0540 C   0  0  0  0  0  0  0  0  0  0  0  0
   -1.7920   13.7870   -3.3410 S   0  0  0  0  0  0  0  0  0  0  0  0
   -0.8380   14.9130   -1.2300 C   0  0  2  0  0  0  0  0  0  0  0  0
    0.4680   16.9440   -5.5450 C   0  0  0  0  0  0  0  0  0  0  0  0
   -1.7750   13.7540   -5.5240 N   0  0  0  0  0  0  0  0  0  0  0  0
   -1.1610   12.1670   -3.1000 C   0  0  0  0  0  0  0  0  0  0  0  0
   -3.4670   13.8540   -2.4910 C   0  0  0  0  0  0  0  0  0  0  0  0
   -2.1100   14.9000   -0.5280 C   0  0  2  0  0  0  0  0  0  0  0  0
    0.1510   15.0250   -0.1510 N   0  0  0  0  0  0  0  0  0  0  0  0
    0.0170   11.7390   -2.6250 C   0  0  2  0  0  0  0  0  0  0  0  0
   -3.6620   15.4440   -1.2220 Cl  0  0  0  0  0  0  0  0  0  0  0  0
   -0.7310   13.1090   -5.8370 O   0  0  0  0  0  0  0  0  0  0  0  0
   -3.8160   12.7930   -1.6600 C   0  0  0  0  0  0  0  0  0  0  0  0
   -4.6540   14.2460   -3.2800 C   0  0  0  0  0  0  0  0  0  0  0  0
   -2.3110   15.1550    0.9200 C   0  0  1  0  0  0  0  0  0  0  0  0
   -0.1410   14.2960    1.0120 C   0  0  0  0  0  0  0  0  0  0  0  0
    0.2480   10.8550   -1.5450 O   0  0  0  0  0  0  0  0  0  0  0  0
    1.2120   12.5450   -2.6780 O   0  0  0  0  0  0  0  0  0  0  0  0
   -3.7390   14.8400    1.2350 N   0  0  0  0  0  0  0  0  0  0  0  0
   -4.9330   13.1130   -0.7890 C   0  0  0  0  0  0  0  0  0  0  0  0
   -5.7870   14.7430   -2.4080 C   0  0  0  0  0  0  0  0  0  0  0  0
   -1.4450   14.2390    1.5330 N   0  0  0  0  0  0  0  0  0  0  0  0
   -5.5170   14.4630   -0.8900 C   0  0  0  0  0  0  0  0  0  0  0  0
  2  1  1  6
  2  3  1  0
  2  4  1  0
  3  5  1  0
  3  6  1  0
  3  7  1  0
  4  8  1  0
  7  9  1  0
  8  9  1  0
 10  7  1  6
  5 11  1  0
  6 11  1  0
  9 12  1  0
  9 13  1  0
  9 14  1  0
 10 15  1  0
 10 16  1  0
 13 17  1  0
 15 18  1  6
 12 19  1  0
 14 20  1  0
 14 21  1  0
 15 22  1  0
 16 23  1  0
 17 24  1  1
 17 25  1  0
 22 26  1  1
 20 27  1  0
 21 28  1  0
 22 29  1  0
 23 29  1  0
 27 30  1  0
 28 30  1  0
M  CHG  1  25  -1
M  END
