ucsf378-ucsf151
     RDKit          3D

 21 22  0  0  0  0  0  0  0  0999 V2000
   -1.5070   13.3670   -5.8220 Cl  0  0  0  0  0  0  0  0  0  0  0  0
    0.1910   13.8600   -5.5230 C   0  0  2  0  0  0  0  0  0  0  0  0
    0.9100   12.8600   -4.5820 C   0  0  0  0  0  0  0  0  0  0  0  0
    0.2690   15.3750   -5.1820 C   0  0  0  0  0  0  0  0  0  0  0  0
    0.0200   11.7540   -3.9760 C   0  0  0  0  0  0  0  0  0  0  0  0
    1.9230   13.4340   -3.5820 C   0  0  1  0  0  0  0  0  0  0  0  0
    0.9030   15.7400   -3.8600 C   0  0  0  0  0  0  0  0  0  0  0  0
    3.4780   12.6110   -3.8230 Cl  0  0  0  0  0  0  0  0  0  0  0  0
    0.2570   11.4030   -2.5120 C   0  0  1  0  0  0  0  0  0  0  0  0
    2.1510   14.9310   -3.6520 C   0  0  0  0  0  0  0  0  0  0  0  0
   -0.3710   12.2820   -1.6050 O   0  0  0  0  0  0  0  0  0  0  0  0
   -0.2180   10.1010   -2.2810 O   0  0  0  0  0  0  0  0  0  0  0  0
   -0.3580   13.6260   -2.0990 C   0  0  2  0  0  0  0  0  0  0  0  0
   -0.6790   14.5220   -1.0440 O   0  0  0  0  0  0  0  0  0  0  0  0
   -1.3560   13.8360   -3.2690 C   0  0  2  0  0  0  0  0  0  0  0  0
   -1.7820   15.2850   -3.4520 C   0  0  0  0  0  0  0  0  0  0  0  0
   -2.6270   12.9650   -3.2030 C   0  0  0  0  0  0  0  0  0  0  0  0
   -2.5010   15.5080   -4.7600 C   0  0  2  0  0  0  0  0  0  0  0  0
   -3.4860   13.1570   -4.3950 N   0  0  0  0  0  0  0  0  0  0  0  0
   -2.8240   16.9040   -4.9450 O   0  0  0  0  0  0  0  0  0  0  0  0
   -3.7350   14.5840   -4.7790 C   0  0  0  0  0  0  0  0  0  0  0  0
  2  1  1  1
  2  3  1  0
  2  4  1  0
  3  5  1  0
  3  6  1  0
  4  7  1  0
  6  8  1  6
  5  9  1  0
  6 10  1  0
  7 10  1  0
  9 11  1  0
  9 12  1  6
 11 13  1  0
 13 14  1  1
 13 15  1  0
 15 16  1  1
 15 17  1  0
 16 18  1  0
 17 19  1  0
 18 20  1  1
 18 21  1  0
 19 21  1  0
M  END
