ucsf385-ucsf115
     RDKit          3D

 18 20  0  0  0  0  0  0  0  0999 V2000
   -3.6890   13.3900   -1.1500 N   0  0  0  0  0  0  0  0  0  0  0  0
   -2.7960   14.3750   -0.5650 C   0  0  1  0  0  0  0  0  0  0  0  0
   -2.8190   14.2430    0.9940 C   0  0  1  0  0  0  0  0  0  0  0  0
   -1.3470   14.1870   -1.1040 C   0  0  1  0  0  0  0  0  0  0  0  0
   -3.6570   15.4930   -0.8720 N   0  0  0  0  0  0  0  0  0  0  0  0
   -1.1200   14.2090   -2.6380 C   0  0  2  0  0  0  0  0  0  0  0  0
   -0.1710   14.7290   -0.2740 C   0  0  0  0  0  0  0  0  0  0  0  0
   -1.5690   14.2710    1.7500 N   0  0  0  0  0  0  0  0  0  0  0  0
   -3.7110   15.3180    1.4280 N   0  0  0  0  0  0  0  0  0  0  0  0
   -4.5470   15.5440    0.2570 C   0  0  0  0  0  0  0  0  0  0  0  0
    0.1670   14.7510   -2.9130 O   0  0  0  0  0  0  0  0  0  0  0  0
   -1.9270   15.0420   -3.2740 O   0  0  0  0  0  0  0  0  0  0  0  0
   -0.4950   15.0430    1.1520 C   0  0  0  0  0  0  0  0  0  0  0  0
   -1.1710   12.7340   -3.0750 C   0  0  1  0  0  0  0  0  0  0  0  0
   -0.7630   12.3500   -4.4000 O   0  0  0  0  0  0  0  0  0  0  0  0
   -0.4320   11.8320   -2.0850 C   0  0  0  0  0  0  0  0  0  0  0  0
    0.5610   11.1400   -2.9350 C   0  0  0  0  0  0  0  0  0  0  0  0
   -0.1950   11.0590   -4.2370 C   0  0  0  0  0  0  0  0  0  0  0  0
  2  1  1  6
  2  3  1  0
  2  4  1  0
  2  5  1  0
  4  6  1  0
  4  7  1  1
  3  8  1  1
  3  9  1  0
  5 10  1  0
  9 10  1  0
  6 11  1  1
  6 12  1  0
  7 13  1  0
  8 13  1  0
  6 14  1  0
 14 15  1  0
 14 16  1  1
 16 17  1  0
 15 18  1  0
 17 18  1  0
M  CHG  1  12  -1
M  END
