ucsf213-ucsf345
     RDKit          3D

 23 25  0  0  0  0  0  0  0  0999 V2000
    0.4260   10.6710   -2.2920 O   0  0  0  0  0  0  0  0  0  0  0  0
    1.0230   11.8660   -2.3830 C   0  0  2  0  0  0  0  0  0  0  0  0
    0.2730   12.5720   -1.4220 O   0  0  0  0  0  0  0  0  0  0  0  0
    0.8900   12.4470   -3.8200 C   0  0  0  0  0  0  0  0  0  0  0  0
    0.3200   13.8680   -3.9300 C   0  0  1  0  0  0  0  0  0  0  0  0
    1.0880   14.9890   -4.6140 C   0  0  0  0  0  0  0  0  0  0  0  0
   -1.2730   14.0240   -4.7810 S   0  0  0  0  0  0  0  0  0  0  0  0
    0.2070   16.2370   -4.3590 C   0  0  2  0  0  0  0  0  0  0  0  0
   -1.3020   15.8050   -4.3170 C   0  0  2  0  0  0  0  0  0  0  0  0
   -1.9170   15.9300   -2.8730 C   0  0  0  0  0  0  0  0  0  0  0  0
    0.5220   17.4120   -5.2820 C   0  0  0  0  0  0  0  0  0  0  0  0
   -2.2990   16.5360   -5.2940 C   0  0  0  0  0  0  0  0  0  0  0  0
   -0.6020   18.4270   -5.3300 C   0  0  0  0  0  0  0  0  0  0  0  0
   -1.8820   17.8780   -5.9050 C   0  0  0  0  0  0  0  0  0  0  0  0
   -2.8740   14.9380   -2.1230 C   0  0  2  0  0  0  0  0  0  0  0  0
   -4.2580   14.8770   -2.8390 C   0  0  0  0  0  0  0  0  0  0  0  0
   -2.9220   15.2010   -0.6650 N   0  0  0  0  0  0  0  0  0  0  0  0
   -5.4180   14.4340   -2.0380 N   0  0  0  0  0  0  0  0  0  0  0  0
   -4.1680   14.8870    0.0570 C   0  0  0  0  0  0  0  0  0  0  0  0
   -5.4340   15.1950   -0.7640 C   0  0  2  0  0  0  0  0  0  0  0  0
   -6.7640   14.8760    0.0010 C   0  0  2  0  0  0  0  0  0  0  0  0
   -6.6130   14.7000    1.4400 N   0  0  0  0  0  0  0  0  0  0  0  0
   -7.3190   13.6710   -0.4630 O   0  0  0  0  0  0  0  0  0  0  0  0
  2  1  1  6
  2  3  1  0
  2  4  1  0
  5  4  1  6
  5  6  1  0
  5  7  1  0
  8  6  1  6
  7  9  1  0
  8  9  1  0
  9 10  1  1
  8 11  1  0
  9 12  1  0
 11 13  1  0
 12 14  1  0
 13 14  1  0
 15 10  1  6
 15 16  1  0
 15 17  1  0
 16 18  1  0
 17 19  1  0
 18 20  1  0
 20 19  1  1
 20 21  1  0
 21 22  1  1
 21 23  1  0
M  CHG  1   1  -1
M  END
