ucsf367-ucsf172
     RDKit          3D

 26 27  0  0  0  0  0  0  0  0999 V2000
    0.8600   10.5110   -3.0310 O   0  0  0  0  0  0  0  0  0  0  0  0
    0.6000   11.7880   -3.2570 C   0  0  1  0  0  0  0  0  0  0  0  0
    1.2090   12.5660   -2.2080 O   0  0  0  0  0  0  0  0  0  0  0  0
    1.0790   12.3130   -4.6690 C   0  0  0  0  0  0  0  0  0  0  0  0
    0.6400   11.5750   -5.8260 O   0  0  0  0  0  0  0  0  0  0  0  0
    0.5020   13.7970   -2.1170 C   0  0  0  0  0  0  0  0  0  0  0  0
   -0.5960   13.7050   -3.0330 O   0  0  0  0  0  0  0  0  0  0  0  0
   -0.4110   10.6440   -5.6060 C   0  0  0  0  0  0  0  0  0  0  0  0
   -1.5150   14.7830   -2.9660 C   0  0  1  0  0  0  0  0  0  0  0  0
   -0.4440    9.7120   -6.8120 C   0  0  0  0  0  0  0  0  0  0  0  0
   -1.7650   11.3300   -5.4520 C   0  0  0  0  0  0  0  0  0  0  0  0
   -2.0110   15.0510   -4.1680 O   0  0  0  0  0  0  0  0  0  0  0  0
   -1.5400    8.6570   -6.6520 C   0  0  0  0  0  0  0  0  0  0  0  0
   -2.9130   10.3240   -5.2910 C   0  0  0  0  0  0  0  0  0  0  0  0
   -2.6860   14.3240   -2.0410 C   0  0  1  0  0  0  0  0  0  0  0  0
   -2.9210    9.2530   -6.3790 C   0  0  0  0  0  0  0  0  0  0  0  0
   -2.2140   14.2670   -0.5640 C   0  0  0  0  0  0  0  0  0  0  0  0
   -3.8960   15.2630   -2.2710 C   0  0  0  0  0  0  0  0  0  0  0  0
   -3.3500   14.1850    0.4410 C   0  0  0  0  0  0  0  0  0  0  0  0
   -4.9850   15.2010   -1.2120 C   0  0  0  0  0  0  0  0  0  0  0  0
   -4.4010   15.2530    0.1940 C   0  0  1  0  0  0  0  0  0  0  0  0
   -5.4250   15.1990    1.2290 N   0  0  0  0  0  0  0  0  0  0  0  0
   -6.8810   14.4310    1.2270 S   0  0  0  0  0  0  0  0  0  0  0  0
   -8.1590   14.9060    2.3270 C   0  0  0  0  0  0  0  0  0  0  0  0
   -6.5800   12.9330    1.6810 O   0  0  0  0  0  0  0  0  0  0  0  0
   -7.5660   14.3970   -0.2220 O   0  0  0  0  0  0  0  0  0  0  0  0
  2  1  1  1
  2  3  1  0
  2  4  1  0
  4  5  1  0
  3  6  1  0
  6  7  1  0
  5  8  1  0
  7  9  1  0
  8 10  1  0
  8 11  1  0
  9 12  1  6
 10 13  1  0
 11 14  1  0
  9 15  1  0
 13 16  1  0
 14 16  1  0
 15 17  1  1
 15 18  1  0
 17 19  1  0
 18 20  1  0
 19 21  1  0
 20 21  1  0
 21 22  1  1
 22 23  1  0
 23 24  1  0
 23 25  1  0
 23 26  1  0
M  CHG  2   1  -1  12  -1
M  END
