ucsf303
     RDKit          3D

 15 16  0  0  0  0  0  0  0  0999 V2000
   -2.7960   14.2290   -3.5690 O   0  0  0  0  0  0  0  0  0  0  0  0
   -3.6070   14.4230   -2.4250 S   0  0  1  0  0  0  0  0  0  0  0  0
   -4.3920   15.5040   -2.7010 O   0  0  0  0  0  0  0  0  0  0  0  0
   -5.0650   13.5820   -2.0840 N   0  0  0  0  0  0  0  0  0  0  0  0
   -4.9680   12.2510   -1.9320 C   0  0  1  0  0  0  0  0  0  0  0  0
   -5.7540   11.2830   -1.5010 N   0  0  0  0  0  0  0  0  0  0  0  0
   -5.0940   10.1270   -1.6570 N   0  0  0  0  0  0  0  0  0  0  0  0
   -3.8800   10.1240   -2.1870 C   0  0  0  0  0  0  0  0  0  0  0  0
   -3.4920   11.7300   -2.5690 S   0  0  0  0  0  0  0  0  0  0  0  0
   -3.1930   14.7040   -0.6580 C   0  0  0  0  0  0  0  0  0  0  0  0
   -1.9570   14.5190   -0.2440 C   0  0  0  0  0  0  0  0  0  0  0  0
   -1.6490   14.6380    1.0810 C   0  0  0  0  0  0  0  0  0  0  0  0
   -2.5610   14.9780    2.0360 C   0  0  0  0  0  0  0  0  0  0  0  0
   -3.8720   15.1560    1.6760 C   0  0  0  0  0  0  0  0  0  0  0  0
   -4.1670   15.0900    0.3100 C   0  0  0  0  0  0  0  0  0  0  0  0
  2  1  1  6
  2  3  1  0
  2  4  1  0
  5  4  1  6
  5  6  1  0
  6  7  1  0
  7  8  1  0
  5  9  1  0
  8  9  1  0
  2 10  1  0
 10 11  1  0
 11 12  1  0
 12 13  1  0
 13 14  1  0
 10 15  1  0
 14 15  1  0
M  END
