ucsf340-ucsf411
     RDKit          3D

 16 18  0  0  0  0  0  0  0  0999 V2000
    0.6000   18.5950   -6.1430 C   0  0  0  0  0  0  0  0  0  0  0  0
   -0.0040   17.9200   -5.0060 N   0  0  0  0  0  0  0  0  0  0  0  0
    0.9790   17.1220   -4.2900 C   0  0  0  0  0  0  0  0  0  0  0  0
   -0.8910   16.8470   -5.3790 C   0  0  1  0  0  0  0  0  0  0  0  0
    0.1330   16.2810   -3.3240 C   0  0  1  0  0  0  0  0  0  0  0  0
   -1.1550   16.1110   -4.0860 C   0  0  2  0  0  0  0  0  0  0  0  0
   -2.2190   17.2330   -5.9800 C   0  0  0  0  0  0  0  0  0  0  0  0
    0.7720   14.9580   -2.8930 C   0  0  0  0  0  0  0  0  0  0  0  0
   -1.5840   14.6880   -4.3760 C   0  0  2  0  0  0  0  0  0  0  0  0
   -3.2290   16.0730   -5.8300 C   0  0  0  0  0  0  0  0  0  0  0  0
    0.6590   13.7450   -3.8350 C   0  0  2  0  0  0  0  0  0  0  0  0
   -0.4640   13.8470   -4.7650 O   0  0  0  0  0  0  0  0  0  0  0  0
   -2.6470   14.6910   -5.5160 C   0  0  0  0  0  0  0  0  0  0  0  0
    0.9710   12.3390   -3.1750 C   0  0  1  0  0  0  0  0  0  0  0  0
    1.0630   12.5250   -1.7720 O   0  0  0  0  0  0  0  0  0  0  0  0
    0.0390   11.4160   -3.2040 O   0  0  0  0  0  0  0  0  0  0  0  0
  1  2  1  0
  2  3  1  0
  2  4  1  0
  5  3  1  6
  6  4  1  6
  5  6  1  0
  4  7  1  1
  5  8  1  0
  6  9  1  0
  7 10  1  0
 11  8  1  1
  9 12  1  0
 11 12  1  0
  9 13  1  6
 10 13  1  0
 11 14  1  0
 14 15  1  1
 14 16  1  0
M  CHG  1  16  -1
M  END
