ucsf422-ucsf411
     RDKit          3D

 20 23  0  0  0  0  0  0  0  0999 V2000
    0.3590   10.4920   -2.3770 O   0  0  0  0  0  0  0  0  0  0  0  0
    0.2220   11.8160   -2.4550 C   0  0  1  0  0  0  0  0  0  0  0  0
    1.4600   12.2270   -1.9380 O   0  0  0  0  0  0  0  0  0  0  0  0
    0.0930   12.3480   -3.9370 C   0  0  1  0  0  0  0  0  0  0  0  0
   -1.1130   13.1420   -4.0410 O   0  0  0  0  0  0  0  0  0  0  0  0
    1.2180   13.2840   -4.4060 C   0  0  2  0  0  0  0  0  0  0  0  0
    2.1250   13.9110   -3.3440 C   0  0  0  0  0  0  0  0  0  0  0  0
    0.5070   14.4910   -5.0050 C   0  0  1  0  0  0  0  0  0  0  0  0
   -0.9600   14.1130   -5.0950 C   0  0  2  0  0  0  0  0  0  0  0  0
    2.2550   15.3160   -3.7270 N   0  0  0  0  0  0  0  0  0  0  0  0
    0.9180   15.6690   -4.1470 C   0  0  1  0  0  0  0  0  0  0  0  0
   -2.0190   15.2250   -4.9170 C   0  0  2  0  0  0  0  0  0  0  0  0
   -3.7270   14.7000   -5.8450 Br  0  0  0  0  0  0  0  0  0  0  0  0
    0.7610   16.9710   -4.8910 C   0  0  1  0  0  0  0  0  0  0  0  0
   -1.7140   16.6340   -5.4110 C   0  0  0  0  0  0  0  0  0  0  0  0
   -0.2810   16.9390   -5.8910 C   0  0  1  0  0  0  0  0  0  0  0  0
    0.4260   18.2090   -4.1710 C   0  0  0  0  0  0  0  0  0  0  0  0
   -0.1640   18.1370   -6.8120 C   0  0  0  0  0  0  0  0  0  0  0  0
   -0.9980   18.5830   -4.6290 C   0  0  0  0  0  0  0  0  0  0  0  0
   -1.0150   19.0840   -6.0620 C   0  0  0  0  0  0  0  0  0  0  0  0
  2  1  1  6
  2  3  1  0
  2  4  1  0
  4  5  1  1
  4  6  1  0
  6  7  1  1
  8  6  1  1
  9  5  1  1
  8  9  1  0
  7 10  1  0
  8 11  1  0
 11 10  1  6
  9 12  1  0
 12 13  1  6
 11 14  1  0
 12 15  1  0
 14 16  1  0
 16 15  1  1
 14 17  1  1
 16 18  1  0
 17 19  1  0
 18 20  1  0
 19 20  1  0
M  CHG  1   1  -1
M  END
