ucsf187
     RDKit          3D

 12 13  0  0  0  0  0  0  0  0999 V2000
   14.5440    1.4110    5.9120 O   0  0  0  0  0  0  0  0  0  0  0  0
   14.5770    1.5510    7.1550 C   0  0  0  0  0  0  0  0  0  0  0  0
   14.4910    0.5730    7.9070 O   0  0  0  0  0  0  0  0  0  0  0  0
   14.7100    2.9270    7.7660 C   0  0  2  0  0  0  0  0  0  0  0  0
   15.0660    3.9840    6.9550 C   0  0  0  0  0  0  0  0  0  0  0  0
   15.2030    5.2480    7.4520 C   0  0  0  0  0  0  0  0  0  0  0  0
   14.9790    5.4760    8.7880 C   0  0  0  0  0  0  0  0  0  0  0  0
   15.0270    6.7410    9.5330 O   0  0  0  0  0  0  0  0  0  0  0  0
   14.3320    6.4620   10.7400 C   0  0  0  0  0  0  0  0  0  0  0  0
   14.4970    5.0040   10.9820 C   0  0  0  0  0  0  0  0  0  0  0  0
   14.6550    4.4340    9.6320 C   0  0  0  0  0  0  0  0  0  0  0  0
   14.5340    3.1080    9.1250 C   0  0  0  0  0  0  0  0  0  0  0  0
  1  2  1  0
  2  3  1  0
  4  2  1  1
  4  5  1  0
  5  6  1  0
  6  7  1  0
  7  8  1  0
  8  9  1  0
  9 10  1  0
  7 11  1  0
 10 11  1  0
  4 12  1  0
 11 12  1  0
M  CHG  1   1  -1
M  END
