ucsf213-ucsf110
     RDKit          3D

 24 27  0  0  0  0  0  0  0  0999 V2000
    0.6370   10.5490   -2.2960 O   0  0  0  0  0  0  0  0  0  0  0  0
    0.2520   11.8070   -2.4290 C   0  0  1  0  0  0  0  0  0  0  0  0
    0.5580   12.3470   -1.1670 O   0  0  0  0  0  0  0  0  0  0  0  0
    1.0840   12.6100   -3.4940 C   0  0  0  0  0  0  0  0  0  0  0  0
    0.1750   13.7660   -3.9710 C   0  0  1  0  0  0  0  0  0  0  0  0
    0.1950   15.2450   -3.5120 C   0  0  1  0  0  0  0  0  0  0  0  0
    0.1290   14.0460   -5.7590 S   0  0  0  0  0  0  0  0  0  0  0  0
   -0.2660   15.6010   -2.1680 C   0  0  0  0  0  0  0  0  0  0  0  0
    0.7770   16.2440   -4.4720 C   0  0  1  0  0  0  0  0  0  0  0  0
   -0.1470   15.8460   -5.5360 C   0  0  2  0  0  0  0  0  0  0  0  0
    0.5470   17.7770   -4.3590 C   0  0  0  0  0  0  0  0  0  0  0  0
   -1.5980   16.3230   -5.2710 C   0  0  0  0  0  0  0  0  0  0  0  0
   -1.4840   14.8010   -2.0910 N   0  0  0  0  0  0  0  0  0  0  0  0
   -0.2510   18.3490   -5.5720 C   0  0  0  0  0  0  0  0  0  0  0  0
   -1.6630   17.8040   -5.6210 C   0  0  0  0  0  0  0  0  0  0  0  0
   -2.7330   15.5170   -2.4940 C   0  0  0  0  0  0  0  0  0  0  0  0
   -1.7360   14.2840   -0.7970 C   0  0  2  0  0  0  0  0  0  0  0  0
   -3.6920   15.4000   -1.3150 C   0  0  0  0  0  0  0  0  0  0  0  0
   -2.6810   15.2800   -0.2060 C   0  0  1  0  0  0  0  0  0  0  0  0
   -0.5210   14.1250   -0.0420 N   0  0  0  0  0  0  0  0  0  0  0  0
   -3.0400   14.7600    1.1270 C   0  0  2  0  0  0  0  0  0  0  0  0
   -0.5830   14.9510    1.1220 C   0  0  0  0  0  0  0  0  0  0  0  0
   -3.9720   15.5290    1.9120 N   0  0  0  0  0  0  0  0  0  0  0  0
   -1.8020   14.6480    1.8600 N   0  0  0  0  0  0  0  0  0  0  0  0
  2  1  1  1
  2  3  1  0
  2  4  1  0
  5  4  1  6
  5  6  1  0
  5  7  1  0
  6  8  1  1
  6  9  1  0
  7 10  1  0
  9 10  1  0
  9 11  1  1
 10 12  1  1
  8 13  1  0
 11 14  1  0
 12 15  1  0
 14 15  1  0
 13 16  1  0
 13 17  1  0
 16 18  1  0
 17 19  1  0
 19 18  1  6
 17 20  1  1
 19 21  1  0
 20 22  1  0
 21 23  1  1
 21 24  1  0
 22 24  1  0
M  CHG  1   1  -1
M  END
