ucsf004-ucsf403
     RDKit          3D

 28 31  0  0  0  0  0  0  0  0999 V2000
   -2.3740   12.6370   -5.2800 O   0  0  0  0  0  0  0  0  0  0  0  0
   -1.3870   13.2110   -4.4190 C   0  0  1  0  0  0  0  0  0  0  0  0
   -0.2570   13.7760   -5.2750 C   0  0  0  0  0  0  0  0  0  0  0  0
   -2.0690   11.3960   -5.9630 C   0  0  1  0  0  0  0  0  0  0  0  0
   -2.0270   14.3580   -3.6190 C   0  0  0  0  0  0  0  0  0  0  0  0
   -0.6040   11.0610   -6.3830 C   0  0  1  0  0  0  0  0  0  0  0  0
   -2.5870   10.2630   -5.0890 C   0  0  0  0  0  0  0  0  0  0  0  0
    0.2770   10.9450   -5.2680 O   0  0  0  0  0  0  0  0  0  0  0  0
   -1.1090   15.0370   -2.6840 N   0  0  0  0  0  0  0  0  0  0  0  0
    0.2420   15.1340   -4.7640 C   0  0  0  0  0  0  0  0  0  0  0  0
   -2.6120    8.9270   -5.8360 C   0  0  0  0  0  0  0  0  0  0  0  0
   -0.6480    9.7490   -7.2260 C   0  0  1  0  0  0  0  0  0  0  0  0
    0.8730    9.2060   -8.0110 Cl  0  0  0  0  0  0  0  0  0  0  0  0
    0.9010   12.1380   -4.7540 C   0  0  0  0  0  0  0  0  0  0  0  0
    0.2260   15.3030   -3.2320 C   0  0  0  0  0  0  0  0  0  0  0  0
   -1.3060   14.6600   -1.2890 C   0  0  1  0  0  0  0  0  0  0  0  0
   -1.2800    8.5670   -6.5000 C   0  0  0  0  0  0  0  0  0  0  0  0
    1.3000   12.0270   -3.2500 C   0  0  1  0  0  0  0  0  0  0  0  0
   -0.1040   15.0330   -0.5440 N   0  0  0  0  0  0  0  0  0  0  0  0
   -2.4490   15.3500   -0.5670 C   0  0  2  0  0  0  0  0  0  0  0  0
    0.7630   12.9020   -2.4590 O   0  0  0  0  0  0  0  0  0  0  0  0
    0.7380   10.8300   -2.7370 O   0  0  0  0  0  0  0  0  0  0  0  0
   -0.1280   14.5800    0.8480 C   0  0  0  0  0  0  0  0  0  0  0  0
   -2.5280   14.7800    0.8060 C   0  0  1  0  0  0  0  0  0  0  0  0
   -3.8670   15.0700   -0.9990 C   0  0  0  0  0  0  0  0  0  0  0  0
   -1.3350   14.9740    1.5470 N   0  0  0  0  0  0  0  0  0  0  0  0
   -3.7020   15.3760    1.3920 N   0  0  0  0  0  0  0  0  0  0  0  0
   -4.6440   15.4800    0.2530 C   0  0  0  0  0  0  0  0  0  0  0  0
  2  1  1  6
  2  3  1  0
  4  1  1  1
  2  5  1  0
  4  6  1  0
  4  7  1  0
  6  8  1  1
  5  9  1  0
  3 10  1  0
  7 11  1  0
  6 12  1  0
 12 13  1  1
  8 14  1  0
  9 15  1  0
 10 15  1  0
 16  9  1  6
 11 17  1  0
 12 17  1  0
 14 18  1  0
 16 19  1  0
 16 20  1  0
 18 21  1  1
 18 22  1  0
 19 23  1  0
 20 24  1  0
 20 25  1  6
 23 26  1  0
 24 26  1  1
 24 27  1  0
 25 28  1  0
 27 28  1  0
M  CHG  1  21  -1
M  END
