ucsf404-ucsf172
     RDKit          3D

 19 21  0  0  0  0  0  0  0  0999 V2000
   -7.3120   15.9900   -1.7690 Cl  0  0  0  0  0  0  0  0  0  0  0  0
   -6.0840   14.8530   -2.4030 C   0  0  2  0  0  0  0  0  0  0  0  0
   -6.3470   13.5640   -1.6190 C   0  0  2  0  0  0  0  0  0  0  0  0
   -4.6720   15.4570   -2.2180 C   0  0  0  0  0  0  0  0  0  0  0  0
   -5.5450   13.5130   -0.3130 C   0  0  1  0  0  0  0  0  0  0  0  0
   -3.7310   14.4020   -1.6890 C   0  0  1  0  0  0  0  0  0  0  0  0
   -6.4490   12.2250   -2.3590 C   0  0  0  0  0  0  0  0  0  0  0  0
   -2.2660   14.4660   -2.2660 C   0  0  2  0  0  0  0  0  0  0  0  0
   -5.8560   12.2680    0.5300 C   0  0  1  0  0  0  0  0  0  0  0  0
   -6.9160   11.1240   -1.5010 N   0  0  0  0  0  0  0  0  0  0  0  0
   -4.1360   14.0380   -0.2260 C   0  0  1  0  0  0  0  0  0  0  0  0
   -5.9430   12.8330    1.8700 N   0  0  0  0  0  0  0  0  0  0  0  0
   -4.5020   14.9600    0.8840 N   0  0  0  0  0  0  0  0  0  0  0  0
   -1.3270   14.8790   -1.2970 O   0  0  0  0  0  0  0  0  0  0  0  0
   -2.1270   15.3640   -3.2190 O   0  0  0  0  0  0  0  0  0  0  0  0
   -7.0250   11.4420   -0.0580 C   0  0  0  0  0  0  0  0  0  0  0  0
   -5.9800   14.4870    1.5990 S   0  0  0  0  0  0  0  0  0  0  0  0
   -7.2410   14.7260    0.6620 O   0  0  0  0  0  0  0  0  0  0  0  0
   -6.3100   15.2210    2.9540 O   0  0  0  0  0  0  0  0  0  0  0  0
  2  1  1  1
  2  3  1  0
  2  4  1  0
  3  5  1  0
  6  4  1  1
  3  7  1  6
  6  8  1  0
  5  9  1  6
  7 10  1  0
  5 11  1  0
  6 11  1  0
  9 12  1  0
 11 13  1  1
  8 14  1  1
  8 15  1  0
  9 16  1  6
 10 16  1  0
 12 17  1  0
 13 17  1  0
 17 18  1  0
 17 19  1  0
M  CHG  1  15  -1
M  END
