ucsf371-ucsf241
     RDKit          3D

 14 15  0  0  0  0  0  0  0  0999 V2000
   -4.9230   15.1270    0.3330 C   0  0  0  0  0  0  0  0  0  0  0  0
   -4.2030   14.5670   -0.8730 C   0  0  1  0  0  0  0  0  0  0  0  0
   -4.7360   15.1710   -2.1030 N   0  0  0  0  0  0  0  0  0  0  0  0
   -2.4660   14.8750   -0.8960 S   0  0  2  0  0  0  0  0  0  0  0  0
   -3.6790   15.0490   -3.1520 C   0  0  0  0  0  0  0  0  0  0  0  0
   -2.3290   15.4720   -2.5530 C   0  0  2  0  0  0  0  0  0  0  0  0
   -1.3490   13.5280   -0.8390 C   0  0  0  0  0  0  0  0  0  0  0  0
   -2.0080   15.8370    0.4860 C   0  0  0  0  0  0  0  0  0  0  0  0
   -1.0660   14.9680   -3.2890 C   0  0  1  0  0  0  0  0  0  0  0  0
   -0.0300   14.0440   -0.2940 C   0  0  0  0  0  0  0  0  0  0  0  0
   -1.4770   14.9680    1.5080 N   0  0  0  0  0  0  0  0  0  0  0  0
   -1.0910   15.4080   -4.6350 O   0  0  0  0  0  0  0  0  0  0  0  0
    0.0440   15.5100   -2.8490 O   0  0  0  0  0  0  0  0  0  0  0  0
   -0.1750   14.4580    1.1690 C   0  0  0  0  0  0  0  0  0  0  0  0
  2  1  1  1
  2  3  1  0
  2  4  1  0
  3  5  1  0
  4  6  1  0
  6  5  1  6
  4  7  1  6
  4  8  1  0
  6  9  1  0
  7 10  1  0
  8 11  1  0
  9 12  1  6
  9 13  1  0
 10 14  1  0
 11 14  1  0
M  CHG  1  13  -1
M  END
