ucsf248-ucsf487
     RDKit          3D

 13 14  0  0  0  0  0  0  0  0999 V2000
   -8.2700   12.4630    2.6650 N   0  0  0  0  0  0  0  0  0  0  0  0
   -8.4560   14.0090    2.1440 S   0  0  0  0  0  0  0  0  0  0  0  0
   -8.2920   15.0210    3.3790 O   0  0  0  0  0  0  0  0  0  0  0  0
   -9.9110   14.2880    1.5450 O   0  0  0  0  0  0  0  0  0  0  0  0
   -7.3030   14.6900    0.9360 C   0  0  0  0  0  0  0  0  0  0  0  0
   -5.9480   14.9880    1.4920 N   0  0  0  0  0  0  0  0  0  0  0  0
   -7.0960   14.0440   -0.3540 N   0  0  0  0  0  0  0  0  0  0  0  0
   -5.0630   14.5540    0.4080 C   0  0  1  0  0  0  0  0  0  0  0  0
   -5.9580   14.8710   -0.7590 C   0  0  1  0  0  0  0  0  0  0  0  0
   -3.7070   15.2410    0.3350 C   0  0  0  0  0  0  0  0  0  0  0  0
   -5.3100   14.6240   -2.1120 C   0  0  0  0  0  0  0  0  0  0  0  0
   -3.0380   14.7900   -0.9620 C   0  0  0  0  0  0  0  0  0  0  0  0
   -3.8770   15.1620   -2.1870 C   0  0  0  0  0  0  0  0  0  0  0  0
  1  2  1  0
  2  3  1  0
  2  4  1  0
  2  5  1  0
  5  6  1  0
  5  7  1  0
  6  8  1  0
  7  9  1  0
  8  9  1  0
  8 10  1  6
  9 11  1  6
 10 12  1  0
 11 13  1  0
 12 13  1  0
M  END
