ucsf380-ucsf262
     RDKit          3D

 27 30  0  0  0  0  0  0  0  0999 V2000
    1.2650   14.8620   -2.0400 N   0  0  0  0  0  0  0  0  0  0  0  0
    0.3240   13.8850   -1.4590 C   0  0  2  0  0  0  0  0  0  0  0  0
    0.8840   12.5970   -1.3710 O   0  0  0  0  0  0  0  0  0  0  0  0
    2.6240   14.3610   -2.3280 O   0  0  0  0  0  0  0  0  0  0  0  0
    0.6800   15.5860   -3.1390 C   0  0  2  0  0  0  0  0  0  0  0  0
   -1.1410   13.7760   -2.0140 C   0  0  0  0  0  0  0  0  0  0  0  0
   -0.4140   15.0330   -4.0440 C   0  0  0  0  0  0  0  0  0  0  0  0
    1.5620   16.2130   -4.1090 N   0  0  0  0  0  0  0  0  0  0  0  0
   -2.3780   14.4650   -1.3450 C   0  0  0  0  0  0  0  0  0  0  0  0
   -1.4050   12.3960   -2.7160 C   0  0  0  0  0  0  0  0  0  0  0  0
   -0.4340   16.0870   -5.1470 C   0  0  2  0  0  0  0  0  0  0  0  0
    0.5530   17.1080   -4.6260 C   0  0  2  0  0  0  0  0  0  0  0  0
   -2.4610   14.4810    0.1840 C   0  0  0  0  0  0  0  0  0  0  0  0
   -3.7580   14.3030   -1.9650 C   0  0  0  0  0  0  0  0  0  0  0  0
   -2.8750   12.1710   -3.1510 C   0  0  0  0  0  0  0  0  0  0  0  0
   -0.4630   12.0940   -3.8930 C   0  0  0  0  0  0  0  0  0  0  0  0
   -1.8080   16.6860   -5.4630 C   0  0  1  0  0  0  0  0  0  0  0  0
    0.8960   18.1120   -5.6930 C   0  0  0  0  0  0  0  0  0  0  0  0
   -3.0410   16.0130   -4.3590 Cl  0  0  0  0  0  0  0  0  0  0  0  0
   -3.5380   15.4410    0.7330 C   0  0  0  0  0  0  0  0  0  0  0  0
   -4.5980   15.5070   -1.6260 C   0  0  0  0  0  0  0  0  0  0  0  0
   -3.0580   10.9760   -4.0840 C   0  0  0  0  0  0  0  0  0  0  0  0
   -1.1720   12.1750   -5.2470 C   0  0  0  0  0  0  0  0  0  0  0  0
   -1.6930   18.2100   -5.5680 C   0  0  0  0  0  0  0  0  0  0  0  0
   -0.4060   18.6610   -6.2970 C   0  0  0  0  0  0  0  0  0  0  0  0
   -4.7820   15.6860   -0.1320 C   0  0  0  0  0  0  0  0  0  0  0  0
   -2.2910   11.1440   -5.3860 C   0  0  0  0  0  0  0  0  0  0  0  0
  1  2  1  0
  2  3  1  6
  1  4  1  0
  5  1  1  6
  2  6  1  0
  5  7  1  0
  5  8  1  0
  6  9  1  0
  6 10  1  0
 11  7  1  1
  8 12  1  0
 11 12  1  0
  9 13  1  0
  9 14  1  0
 10 15  1  0
 10 16  1  0
 11 17  1  0
 12 18  1  6
 17 19  1  1
 13 20  1  0
 14 21  1  0
 15 22  1  0
 16 23  1  0
 17 24  1  0
 18 25  1  0
 24 25  1  0
 20 26  1  0
 21 26  1  0
 22 27  1  0
 23 27  1  0
M  CHG  1   4  -1
M  END
