ucsf278-ucsf357
     RDKit          3D

 21 23  0  0  0  0  0  0  0  0999 V2000
   -2.3380    9.9810   -5.5280 O   0  0  0  0  0  0  0  0  0  0  0  0
   -1.1600   10.6530   -5.9590 C   0  0  0  0  0  0  0  0  0  0  0  0
   -1.0510   12.0200   -5.2760 C   0  0  1  0  0  0  0  0  0  0  0  0
   -0.9970   11.9880   -3.7400 C   0  0  0  0  0  0  0  0  0  0  0  0
    0.1490   12.7360   -5.6960 N   0  0  0  0  0  0  0  0  0  0  0  0
    0.1390   12.9300   -3.3700 C   0  0  1  0  0  0  0  0  0  0  0  0
    0.3520   13.7130   -4.6470 C   0  0  1  0  0  0  0  0  0  0  0  0
    0.1080   13.8030   -2.0790 C   0  0  1  0  0  0  0  0  0  0  0  0
    1.7150   14.3230   -4.7250 C   0  0  0  0  0  0  0  0  0  0  0  0
    1.2490   14.8240   -2.2270 C   0  0  0  0  0  0  0  0  0  0  0  0
    2.2580   14.6730   -3.3630 C   0  0  0  0  0  0  0  0  0  0  0  0
   -1.1820   14.5820   -1.6400 C   0  0  1  0  0  0  0  0  0  0  0  0
   -2.1430   14.8630   -2.8460 C   0  0  1  0  0  0  0  0  0  0  0  0
   -1.8540   14.1290   -0.3250 C   0  0  0  0  0  0  0  0  0  0  0  0
   -2.0430   13.8860   -3.7660 F   0  0  0  0  0  0  0  0  0  0  0  0
   -3.6110   15.1180   -2.5530 C   0  0  0  0  0  0  0  0  0  0  0  0
   -3.2670   14.6750   -0.1360 C   0  0  0  0  0  0  0  0  0  0  0  0
   -4.1430   14.3570   -1.3500 C   0  0  1  0  0  0  0  0  0  0  0  0
   -5.6570   14.5700   -1.1440 C   0  0  2  0  0  0  0  0  0  0  0  0
   -6.1040   15.3280   -2.1100 O   0  0  0  0  0  0  0  0  0  0  0  0
   -5.8790   15.3810   -0.0210 O   0  0  0  0  0  0  0  0  0  0  0  0
  1  2  1  0
  3  2  1  6
  3  4  1  0
  3  5  1  0
  6  4  1  6
  5  7  1  0
  6  7  1  0
  6  8  1  0
  7  9  1  1
  8 10  1  6
  9 11  1  0
 10 11  1  0
  8 12  1  0
 12 13  1  0
 12 14  1  1
 13 15  1  6
 13 16  1  0
 14 17  1  0
 18 16  1  6
 17 18  1  0
 18 19  1  0
 19 20  1  6
 19 21  1  0
M  CHG  1  20  -1
M  END
