ucsf114-ucsf243
     RDKit          3D

 22 24  0  0  0  0  0  0  0  0999 V2000
    0.3710   17.4710   -5.3790 C   0  0  0  0  0  0  0  0  0  0  0  0
   -1.0340   16.9040   -5.0810 C   0  0  0  0  0  0  0  0  0  0  0  0
   -2.0440   17.7500   -5.8530 C   0  0  0  0  0  0  0  0  0  0  0  0
   -1.0840   15.4930   -5.4870 O   0  0  0  0  0  0  0  0  0  0  0  0
   -1.5130   14.4050   -4.5840 C   0  0  0  0  0  0  0  0  0  0  0  0
   -0.5500   14.2700   -3.4080 C   0  0  2  0  0  0  0  0  0  0  0  0
   -0.7670   14.9330   -2.0350 C   0  0  2  0  0  0  0  0  0  0  0  0
    0.3720   15.4480   -3.7810 C   0  0  0  0  0  0  0  0  0  0  0  0
   -0.5030   16.6440   -3.2020 C   0  0  1  0  0  0  0  0  0  0  0  0
    0.4860   15.5420   -1.6920 N   0  0  0  0  0  0  0  0  0  0  0  0
   -1.5480   14.7910   -0.7390 C   0  0  2  0  0  0  0  0  0  0  0  0
   -1.7440   15.8260   -2.7730 C   0  0  1  0  0  0  0  0  0  0  0  0
   -2.3200   15.2140   -3.9550 O   0  0  0  0  0  0  0  0  0  0  0  0
    0.0630   17.0640   -2.1150 O   0  0  0  0  0  0  0  0  0  0  0  0
   -0.7070   14.1720    0.3700 C   0  0  2  0  0  0  0  0  0  0  0  0
    1.3160   14.6570   -0.9550 C   0  0  2  0  0  0  0  0  0  0  0  0
   -2.9540   14.6650   -1.0130 N   0  0  0  0  0  0  0  0  0  0  0  0
   -2.9030   15.9720   -1.7220 C   0  0  0  0  0  0  0  0  0  0  0  0
    2.3920   13.7520   -2.1020 S   0  0  0  0  0  0  0  0  0  0  0  0
   -0.5300   15.0530    1.4740 O   0  0  0  0  0  0  0  0  0  0  0  0
   -3.7680   14.8060    0.1950 C   0  0  0  0  0  0  0  0  0  0  0  0
    0.5830   13.7150   -0.1350 N   0  0  0  0  0  0  0  0  0  0  0  0
  1  2  1  0
  2  3  1  0
  2  4  1  0
  4  5  1  0
  6  5  1  6
  6  7  1  0
  6  8  1  0
  8  9  1  0
  7 10  1  1
  7 11  1  0
  7 12  1  0
  9 12  1  0
 12 13  1  6
  9 14  1  1
 11 15  1  0
 10 16  1  0
 11 17  1  6
 12 18  1  0
 17 18  1  0
 16 19  1  6
 15 20  1  1
 17 21  1  0
 15 22  1  0
 16 22  1  0
M  CHG  1  14  -1
M  END
