ucsf380-ucsf012
     RDKit          3D

 23 25  0  0  0  0  0  0  0  0999 V2000
    0.7150   15.1070   -1.4310 O   0  0  0  0  0  0  0  0  0  0  0  0
    0.2900   14.0000   -2.0060 C   0  0  1  0  0  0  0  0  0  0  0  0
    0.3930   13.0550   -0.9350 O   0  0  0  0  0  0  0  0  0  0  0  0
   -1.1890   14.1970   -2.5840 C   0  0  2  0  0  0  0  0  0  0  0  0
   -2.2560   15.1150   -1.7850 C   0  0  2  0  0  0  0  0  0  0  0  0
   -1.6960   13.0350   -3.5120 C   0  0  0  0  0  0  0  0  0  0  0  0
   -2.3360   15.2710   -0.2190 C   0  0  1  0  0  0  0  0  0  0  0  0
   -3.6430   15.2840   -2.5220 C   0  0  1  0  0  0  0  0  0  0  0  0
   -2.5400   11.8660   -3.0020 C   0  0  0  0  0  0  0  0  0  0  0  0
   -0.5350   12.4740   -4.3590 C   0  0  0  0  0  0  0  0  0  0  0  0
   -3.8600   14.6800   -3.9110 C   0  0  0  0  0  0  0  0  0  0  0  0
   -3.6650   15.9580    0.3570 C   0  0  0  0  0  0  0  0  0  0  0  0
   -4.8710   15.0080   -1.6570 C   0  0  0  0  0  0  0  0  0  0  0  0
   -2.8580   10.8030   -4.0420 C   0  0  0  0  0  0  0  0  0  0  0  0
   -0.9840   11.6550   -5.5550 C   0  0  0  0  0  0  0  0  0  0  0  0
   -2.4430   14.0370    0.6530 C   0  0  2  0  0  0  0  0  0  0  0  0
   -1.0420   15.9520    0.2030 C   0  0  0  0  0  0  0  0  0  0  0  0
   -3.7420   13.7880    1.2260 N   0  0  0  0  0  0  0  0  0  0  0  0
   -4.9690   15.8790   -0.4320 C   0  0  0  0  0  0  0  0  0  0  0  0
   -2.4460   11.2350   -5.4470 C   0  0  0  0  0  0  0  0  0  0  0  0
   -1.5820   14.1210    1.7910 N   0  0  0  0  0  0  0  0  0  0  0  0
    0.0760   15.0650    0.4330 N   0  0  0  0  0  0  0  0  0  0  0  0
   -0.1870   14.1420    1.4850 C   0  0  0  0  0  0  0  0  0  0  0  0
  2  1  1  1
  2  3  1  0
  2  4  1  0
  4  5  1  0
  4  6  1  1
  5  7  1  0
  5  8  1  1
  6  9  1  0
  6 10  1  0
  8 11  1  6
  7 12  1  6
  8 13  1  0
  9 14  1  0
 10 15  1  0
  7 16  1  0
  7 17  1  0
 16 18  1  1
 12 19  1  0
 13 19  1  0
 14 20  1  0
 15 20  1  0
 16 21  1  0
 17 22  1  0
 21 23  1  0
 22 23  1  0
M  CHG  1   1  -1
M  END
