ucsf247-ucsf411
     RDKit          3D

 26 28  0  0  0  0  0  0  0  0999 V2000
    0.9080   12.7760   -1.8620 O   0  0  0  0  0  0  0  0  0  0  0  0
    0.1120   13.5340   -2.6900 C   0  0  2  0  0  0  0  0  0  0  0  0
    0.7670   14.3060   -3.6600 O   0  0  0  0  0  0  0  0  0  0  0  0
    0.7370   11.4960   -2.4570 C   0  0  0  0  0  0  0  0  0  0  0  0
   -0.8350   14.4320   -1.9090 C   0  0  0  0  0  0  0  0  0  0  0  0
    0.4330   10.6120   -1.5380 O   0  0  0  0  0  0  0  0  0  0  0  0
   -2.2070   13.9150   -2.1090 N   0  0  0  0  0  0  0  0  0  0  0  0
   -0.4100   14.7310   -4.2940 C   0  0  1  0  0  0  0  0  0  0  0  0
   -3.1310   14.9420   -2.4700 C   0  0  1  0  0  0  0  0  0  0  0  0
   -0.3940   16.1930   -4.5930 C   0  0  2  0  0  0  0  0  0  0  0  0
   -0.8190   13.8550   -5.4440 C   0  0  0  0  0  0  0  0  0  0  0  0
   -3.9410   14.4720   -3.5180 O   0  0  0  0  0  0  0  0  0  0  0  0
   -4.0180   15.2670   -1.2800 C   0  0  1  0  0  0  0  0  0  0  0  0
   -1.7610   16.6560   -5.1670 C   0  0  2  0  0  0  0  0  0  0  0  0
   -2.2860   14.1210   -5.7980 C   0  0  0  0  0  0  0  0  0  0  0  0
    0.8960   16.6520   -5.2630 C   0  0  0  0  0  0  0  0  0  0  0  0
   -5.3820   14.5720   -1.3790 C   0  0  0  0  0  0  0  0  0  0  0  0
   -3.3460   14.9360    0.0600 C   0  0  0  0  0  0  0  0  0  0  0  0
   -2.7540   15.5890   -5.7170 C   0  0  0  0  0  0  0  0  0  0  0  0
   -1.6060   17.8560   -6.0760 C   0  0  0  0  0  0  0  0  0  0  0  0
    0.8790   18.1340   -5.6080 C   0  0  0  0  0  0  0  0  0  0  0  0
   -6.2810   14.9950   -0.2390 C   0  0  1  0  0  0  0  0  0  0  0  0
   -4.2160   15.3940    1.2160 C   0  0  0  0  0  0  0  0  0  0  0  0
   -0.5210   18.7330   -5.5110 C   0  0  0  0  0  0  0  0  0  0  0  0
   -7.5220   14.2990   -0.2900 O   0  0  0  0  0  0  0  0  0  0  0  0
   -5.6220   14.7950    1.1350 C   0  0  0  0  0  0  0  0  0  0  0  0
  1  2  1  0
  2  3  1  0
  1  4  1  0
  2  5  1  1
  4  6  1  0
  5  7  1  0
  8  3  1  6
  7  9  1  0
  8 10  1  0
  8 11  1  0
  9 12  1  6
  9 13  1  0
 10 14  1  0
 11 15  1  0
 10 16  1  6
 13 17  1  6
 13 18  1  0
 14 19  1  6
 15 19  1  0
 14 20  1  0
 16 21  1  0
 17 22  1  0
 18 23  1  0
 20 24  1  0
 21 24  1  0
 22 25  1  1
 22 26  1  0
 23 26  1  0
M  CHG  1   6  -1
M  END
