ucsf511-ucsf487
     RDKit          3D

 19 22  0  0  0  0  0  0  0  0999 V2000
    0.4030   13.0820   -0.7010 O   0  0  0  0  0  0  0  0  0  0  0  0
    0.0610   13.9350   -1.7840 C   0  0  1  0  0  0  0  0  0  0  0  0
    0.2030   13.1810   -3.0350 N   0  0  0  0  0  0  0  0  0  0  0  0
   -1.3100   14.6390   -1.5500 C   0  0  1  0  0  0  0  0  0  0  0  0
   -2.0900   14.8910   -2.8500 C   0  0  1  0  0  0  0  0  0  0  0  0
   -0.5280   13.6820   -4.1890 C   0  0  0  0  0  0  0  0  0  0  0  0
   -2.2820   14.1630   -0.5370 O   0  0  0  0  0  0  0  0  0  0  0  0
   -1.9140   13.8990   -3.8890 N   0  0  0  0  0  0  0  0  0  0  0  0
   -3.6420   14.3610   -1.0540 C   0  0  2  0  0  0  0  0  0  0  0  0
   -3.4860   15.1870   -2.2980 C   0  0  2  0  0  0  0  0  0  0  0  0
   -4.6020   14.8080   -3.2330 C   0  0  0  0  0  0  0  0  0  0  0  0
   -4.7650   15.0300   -0.1940 C   0  0  1  0  0  0  0  0  0  0  0  0
   -5.9740   14.9980   -2.5890 C   0  0  0  0  0  0  0  0  0  0  0  0
   -6.0450   15.2380   -1.0680 C   0  0  1  0  0  0  0  0  0  0  0  0
   -5.0970   14.3660    1.1940 C   0  0  0  0  0  0  0  0  0  0  0  0
   -6.6010   14.0940    1.5880 C   0  0  1  0  0  0  0  0  0  0  0  0
   -7.1580   14.3480   -0.7670 N   0  0  0  0  0  0  0  0  0  0  0  0
   -6.9720   14.7160    2.8570 N   0  0  0  0  0  0  0  0  0  0  0  0
   -7.6750   14.4440    0.5620 C   0  0  0  0  0  0  0  0  0  0  0  0
  2  1  1  1
  2  3  1  0
  2  4  1  0
  4  5  1  0
  3  6  1  0
  4  7  1  1
  5  8  1  6
  6  8  1  0
  9  7  1  1
  5 10  1  0
  9 10  1  0
 10 11  1  6
  9 12  1  0
 11 13  1  0
 12 14  1  0
 14 13  1  6
 12 15  1  1
 15 16  1  0
 14 17  1  0
 16 18  1  1
 16 19  1  0
 17 19  1  0
M  END
