ucsf016-ucsf013
     RDKit          3D

 23 27  0  0  0  0  0  0  0  0999 V2000
   -4.3320   13.2320    1.4270 N   0  0  0  0  0  0  0  0  0  0  0  0
   -5.1100   14.3830    1.0670 C   0  0  2  0  0  0  0  0  0  0  0  0
   -6.4260   13.8130    0.9010 N   0  0  0  0  0  0  0  0  0  0  0  0
   -4.4740   15.1720   -0.1160 C   0  0  1  0  0  0  0  0  0  0  0  0
   -3.4340   16.0230    0.5230 N   0  0  0  0  0  0  0  0  0  0  0  0
   -3.6150   14.3820   -1.1170 C   0  0  0  0  0  0  0  0  0  0  0  0
   -5.6010   15.8660   -0.9200 C   0  0  0  0  0  0  0  0  0  0  0  0
   -7.4210   14.6380    0.2650 C   0  0  0  0  0  0  0  0  0  0  0  0
   -2.3820   15.0450    0.7870 C   0  0  1  0  0  0  0  0  0  0  0  0
   -2.2060   14.3410   -0.5180 C   0  0  2  0  0  0  0  0  0  0  0  0
   -6.9090   15.1630   -0.9830 N   0  0  0  0  0  0  0  0  0  0  0  0
   -1.1930   15.7700    1.1120 N   0  0  0  0  0  0  0  0  0  0  0  0
   -1.0780   15.0210   -1.3150 C   0  0  2  0  0  0  0  0  0  0  0  0
   -0.9600   14.6500   -2.7190 N   0  0  0  0  0  0  0  0  0  0  0  0
    0.1690   14.9460   -0.5950 N   0  0  0  0  0  0  0  0  0  0  0  0
    0.0040   15.0180    0.8260 C   0  0  0  0  0  0  0  0  0  0  0  0
    0.3180   14.1790   -3.2490 C   0  0  0  0  0  0  0  0  0  0  0  0
   -1.6750   15.5150   -3.6510 C   0  0  0  0  0  0  0  0  0  0  0  0
   -2.0040   14.6690   -4.8590 C   0  0  0  0  0  0  0  0  0  0  0  0
    0.0580   13.2940   -4.4700 C   0  0  0  0  0  0  0  0  0  0  0  0
   -3.3030   13.8750   -4.8520 C   0  0  0  0  0  0  0  0  0  0  0  0
   -3.1720   15.0880   -5.7400 C   0  0  0  0  0  0  0  0  0  0  0  0
   -0.7780   14.0490   -5.4960 C   0  0  0  0  0  0  0  0  0  0  0  0
  2  1  1  6
  2  3  1  0
  2  4  1  0
  4  5  1  0
  4  6  1  6
  4  7  1  0
  3  8  1  0
  9  5  1  6
 10  6  1  6
  9 10  1  0
  7 11  1  0
  8 11  1  0
  9 12  1  0
 10 13  1  0
 13 14  1  6
 13 15  1  0
 12 16  1  0
 15 16  1  0
 14 17  1  0
 14 18  1  0
 19 18  1  0
 17 20  1  0
 19 21  1  0
 19 22  1  0
 21 22  1  0
 19 23  1  0
 20 23  1  0
M  END
