ucsf170-ucsf357
     RDKit          3D

 14 15  0  0  0  0  0  0  0  0999 V2000
   -4.9320   14.8900    0.6500 C   0  0  0  0  0  0  0  0  0  0  0  0
   -3.1820   14.9880    1.1400 S   0  0  0  0  0  0  0  0  0  0  0  0
   -2.6300   15.5180   -0.5150 C   0  0  2  0  0  0  0  0  0  0  0  0
   -5.0040   14.5490   -0.8620 C   0  0  1  0  0  0  0  0  0  0  0  0
   -6.1440   14.9700   -1.3850 O   0  0  0  0  0  0  0  0  0  0  0  0
   -3.7930   15.2790   -1.5000 C   0  0  2  0  0  0  0  0  0  0  0  0
   -1.2470   14.9530   -0.8330 C   0  0  0  0  0  0  0  0  0  0  0  0
   -3.3610   14.7980   -2.8870 C   0  0  0  0  0  0  0  0  0  0  0  0
   -0.8300   14.9950   -2.3330 C   0  0  2  0  0  0  0  0  0  0  0  0
   -1.9830   15.2750   -3.3450 C   0  0  1  0  0  0  0  0  0  0  0  0
   -1.7150   14.7200   -4.6420 O   0  0  0  0  0  0  0  0  0  0  0  0
    0.0240   13.7460   -2.6990 C   0  0  2  0  0  0  0  0  0  0  0  0
    1.0220   13.5420   -1.7060 O   0  0  0  0  0  0  0  0  0  0  0  0
    0.7980   13.9920   -3.7320 O   0  0  0  0  0  0  0  0  0  0  0  0
  1  2  1  0
  2  3  1  0
  1  4  1  0
  4  5  1  6
  3  6  1  0
  4  6  1  0
  3  7  1  6
  6  8  1  6
  9  7  1  1
  8 10  1  0
  9 10  1  0
 10 11  1  6
  9 12  1  0
 12 13  1  1
 12 14  1  0
M  CHG  2   5  -1  14  -1
M  END
