ucsf005-ucsf013
     RDKit          3D

 16 18  0  0  0  0  0  0  0  0999 V2000
   -2.0070   14.4710   -2.9630 C   0  0  0  0  0  0  0  0  0  0  0  0
   -2.8560   14.3690   -1.7740 N   0  0  0  0  0  0  0  0  0  0  0  0
   -3.9900   15.2670   -1.8870 C   0  0  0  0  0  0  0  0  0  0  0  0
   -2.1230   14.6890   -0.5750 C   0  0  1  0  0  0  0  0  0  0  0  0
   -5.1210   15.0030   -0.9960 N   0  0  0  0  0  0  0  0  0  0  0  0
   -2.8100   15.2070    0.7820 C   0  0  1  0  0  0  0  0  0  0  0  0
   -1.1360   13.7290   -0.0930 N   0  0  0  0  0  0  0  0  0  0  0  0
   -4.1420   14.9940    1.2410 N   0  0  0  0  0  0  0  0  0  0  0  0
   -2.0130   14.5200    1.7480 N   0  0  0  0  0  0  0  0  0  0  0  0
   -0.7810   14.4720    1.0740 C   0  0  1  0  0  0  0  0  0  0  0  0
   -5.1000   14.4580    0.3580 C   0  0  1  0  0  0  0  0  0  0  0  0
   -6.3390   14.7340   -1.7210 C   0  0  0  0  0  0  0  0  0  0  0  0
    0.0290   13.7060    1.9050 N   0  0  0  0  0  0  0  0  0  0  0  0
   -7.4860   15.0630   -0.9080 N   0  0  0  0  0  0  0  0  0  0  0  0
   -6.3330   14.5950    1.0970 N   0  0  0  0  0  0  0  0  0  0  0  0
   -7.4900   14.2940    0.3090 C   0  0  0  0  0  0  0  0  0  0  0  0
  1  2  1  0
  2  3  1  0
  2  4  1  0
  3  5  1  0
  4  6  1  0
  4  7  1  1
  6  8  1  6
  6  9  1  0
  7 10  1  0
  9 10  1  0
  5 11  1  0
 11  8  1  1
  5 12  1  0
 10 13  1  1
 12 14  1  0
 11 15  1  0
 14 16  1  0
 15 16  1  0
M  END
