ucsf337-ucsf348
     RDKit          3D

 13 14  0  0  0  0  0  0  0  0999 V2000
   -7.3790   14.6150    1.0330 C   0  0  0  0  0  0  0  0  0  0  0  0
   -6.2040   14.1210    0.1830 C   0  0  1  0  0  0  0  0  0  0  0  0
   -6.5230   14.2810   -1.2490 N   0  0  0  0  0  0  0  0  0  0  0  0
   -4.7710   14.5160    0.6440 C   0  0  2  0  0  0  0  0  0  0  0  0
   -4.6020   15.5770    2.2590 Br  0  0  0  0  0  0  0  0  0  0  0  0
   -3.9510   15.4440   -0.2070 C   0  0  2  0  0  0  0  0  0  0  0  0
   -5.8040   15.2680   -2.0100 C   0  0  2  0  0  0  0  0  0  0  0  0
   -6.1020   14.9380   -3.3790 N   0  0  0  0  0  0  0  0  0  0  0  0
   -4.2980   15.3910   -1.6780 C   0  0  2  0  0  0  0  0  0  0  0  0
   -2.4720   15.1900    0.1600 C   0  0  0  0  0  0  0  0  0  0  0  0
   -1.4440   15.3280   -0.9630 C   0  0  0  0  0  0  0  0  0  0  0  0
   -3.3560   14.4620   -2.4110 C   0  0  0  0  0  0  0  0  0  0  0  0
   -1.9340   15.0020   -2.3710 C   0  0  0  0  0  0  0  0  0  0  0  0
  2  1  1  1
  2  3  1  0
  2  4  1  0
  4  5  1  1
  4  6  1  0
  3  7  1  0
  7  8  1  6
  6  9  1  0
  7  9  1  0
  6 10  1  6
 10 11  1  0
  9 12  1  1
 11 13  1  0
 12 13  1  0
M  END
