ucsf242-ucsf149
     RDKit          3D

 12 13  0  0  0  0  0  0  0  0999 V2000
   14.7780    6.2420   12.7370 N   0  0  0  0  0  0  0  0  0  0  0  0
   14.3620    5.7570   11.4420 C   0  0  1  0  0  0  0  0  0  0  0  0
   14.2760    6.8960   10.5430 N   0  0  0  0  0  0  0  0  0  0  0  0
   15.2970    4.7230   10.8310 C   0  0  2  0  0  0  0  0  0  0  0  0
   14.7840    8.1340   11.1280 C   0  0  0  0  0  0  0  0  0  0  0  0
   15.0250    6.5890    9.3110 O   0  0  0  0  0  0  0  0  0  0  0  0
   15.7210    5.3250    9.5080 C   0  0  2  0  0  0  0  0  0  0  0  0
   14.6170    3.3480   10.6350 C   0  0  0  0  0  0  0  0  0  0  0  0
   14.1320    9.2650   10.5910 O   0  0  0  0  0  0  0  0  0  0  0  0
   15.5260    4.3050    8.4010 C   0  0  0  0  0  0  0  0  0  0  0  0
   15.4810    2.3310    9.8960 C   0  0  0  0  0  0  0  0  0  0  0  0
   16.1330    2.9530    8.6740 C   0  0  0  0  0  0  0  0  0  0  0  0
  2  1  1  1
  2  3  1  0
  2  4  1  0
  3  5  1  0
  3  6  1  0
  4  7  1  0
  6  7  1  0
  4  8  1  6
  5  9  1  0
  7 10  1  6
  8 11  1  0
 10 12  1  0
 11 12  1  0
M  END
