ucsf260-ucsf303
     RDKit          3D

 31 34  0  0  0  0  0  0  0  0999 V2000
    0.9400   11.2320   -2.7870 O   0  0  0  0  0  0  0  0  0  0  0  0
    1.7210   12.2360   -3.1370 C   0  0  2  0  0  0  0  0  0  0  0  0
    1.3790   13.1770   -2.1470 O   0  0  0  0  0  0  0  0  0  0  0  0
    1.3260   12.7950   -4.5250 C   0  0  0  0  0  0  0  0  0  0  0  0
   -0.2030   13.0370   -4.6610 C   0  0  1  0  0  0  0  0  0  0  0  0
   -0.5680   14.5440   -4.6820 C   0  0  0  0  0  0  0  0  0  0  0  0
   -0.8780   12.2870   -5.7520 N   0  0  0  0  0  0  0  0  0  0  0  0
   -2.0510   14.8510   -4.4210 C   0  0  0  0  0  0  0  0  0  0  0  0
   -2.2160   11.8960   -5.3110 C   0  0  0  0  0  0  0  0  0  0  0  0
   -0.2520   11.0640   -6.2910 C   0  0  1  0  0  0  0  0  0  0  0  0
   -2.5340   13.9950   -3.3710 O   0  0  0  0  0  0  0  0  0  0  0  0
   -2.3770   10.4630   -5.5530 N   0  0  0  0  0  0  0  0  0  0  0  0
   -1.4810   10.2690   -6.6730 C   0  0  2  0  0  0  0  0  0  0  0  0
    0.6590   11.1220   -7.5240 C   0  0  0  0  0  0  0  0  0  0  0  0
   -3.8540   14.3780   -2.5250 S   0  0  1  0  0  0  0  0  0  0  0  0
   -1.1690    8.8140   -6.9830 C   0  0  0  0  0  0  0  0  0  0  0  0
    0.8780    9.7390   -8.1920 C   0  0  0  0  0  0  0  0  0  0  0  0
   -4.4850   15.6830   -3.1500 O   0  0  0  0  0  0  0  0  0  0  0  0
   -5.0230   13.2210   -2.4320 N   0  0  0  0  0  0  0  0  0  0  0  0
   -0.3140    8.7670   -8.2370 C   0  0  0  0  0  0  0  0  0  0  0  0
   -3.3160   15.0170   -0.9810 C   0  0  0  0  0  0  0  0  0  0  0  0
   -4.7890   12.0620   -1.6480 C   0  0  1  0  0  0  0  0  0  0  0  0
   -2.0140   14.3720   -0.4350 C   0  0  0  0  0  0  0  0  0  0  0  0
   -4.4920   15.1480   -0.0160 C   0  0  0  0  0  0  0  0  0  0  0  0
   -5.9060   11.1530   -1.8590 N   0  0  0  0  0  0  0  0  0  0  0  0
   -3.2950   11.2520   -2.2300 S   0  0  0  0  0  0  0  0  0  0  0  0
   -1.7010   14.6850    1.0270 C   0  0  0  0  0  0  0  0  0  0  0  0
   -4.0510   15.5210    1.3710 C   0  0  0  0  0  0  0  0  0  0  0  0
   -4.1500    9.6910   -2.4530 C   0  0  0  0  0  0  0  0  0  0  0  0
   -5.4480    9.7670   -1.7700 N   0  0  0  0  0  0  0  0  0  0  0  0
   -2.9720   14.5810    1.8350 C   0  0  0  0  0  0  0  0  0  0  0  0
  2  1  1  1
  2  3  1  0
  2  4  1  0
  5  4  1  6
  5  6  1  0
  5  7  1  0
  6  8  1  0
  7  9  1  0
  7 10  1  0
  8 11  1  0
  9 12  1  0
 10 13  1  0
 12 13  1  0
 10 14  1  6
 15 11  1  0
 13 16  1  1
 14 17  1  0
 15 18  1  6
 15 19  1  0
 16 20  1  0
 17 20  1  0
 15 21  1  0
 22 19  1  6
 21 23  1  0
 21 24  1  0
 22 25  1  0
 22 26  1  0
 23 27  1  0
 24 28  1  0
 26 29  1  0
 25 30  1  0
 29 30  1  0
 27 31  1  0
 28 31  1  0
M  CHG  1   1  -1
M  END
