ucsf442-ucsf190
     RDKit          3D

 27 30  0  0  0  0  0  0  0  0999 V2000
   -0.4300   13.7560    0.7160 O   0  0  0  0  0  0  0  0  0  0  0  0
   -1.1640   14.9030    0.3690 C   0  0  1  0  0  0  0  0  0  0  0  0
   -1.6290   14.8130   -1.0150 N   0  0  0  0  0  0  0  0  0  0  0  0
   -2.1700   15.2130    1.3580 N   0  0  0  0  0  0  0  0  0  0  0  0
   -3.4900   14.7210    1.0330 C   0  0  2  0  0  0  0  0  0  0  0  0
   -3.0910   14.7440   -1.3280 C   0  0  2  0  0  0  0  0  0  0  0  0
   -3.4330   15.5420   -2.4730 O   0  0  0  0  0  0  0  0  0  0  0  0
   -4.0150   15.2950   -0.2520 C   0  0  1  0  0  0  0  0  0  0  0  0
   -4.5310   15.2350    1.8800 N   0  0  0  0  0  0  0  0  0  0  0  0
   -3.7670   14.7780   -3.6210 C   0  0  0  0  0  0  0  0  0  0  0  0
   -5.4570   14.9250   -0.2360 N   0  0  0  0  0  0  0  0  0  0  0  0
   -5.6860   14.6740    1.1870 C   0  0  0  0  0  0  0  0  0  0  0  0
   -2.4350   14.5470   -4.3020 C   0  0  2  0  0  0  0  0  0  0  0  0
   -1.8470   15.8050   -4.8970 C   0  0  0  0  0  0  0  0  0  0  0  0
   -2.4030   13.4300   -5.3000 C   0  0  0  0  0  0  0  0  0  0  0  0
   -0.3430   15.6160   -5.1080 C   0  0  2  0  0  0  0  0  0  0  0  0
   -0.9440   13.0130   -5.4690 C   0  0  0  0  0  0  0  0  0  0  0  0
    0.1360   14.1260   -5.2960 C   0  0  2  0  0  0  0  0  0  0  0  0
    0.5020   16.4100   -4.1210 C   0  0  2  0  0  0  0  0  0  0  0  0
    0.4140   17.8000   -4.3990 O   0  0  0  0  0  0  0  0  0  0  0  0
    1.4070   13.6390   -4.5050 C   0  0  2  0  0  0  0  0  0  0  0  0
    1.8580   15.9620   -4.2270 N   0  0  0  0  0  0  0  0  0  0  0  0
    1.4060   12.2130   -3.8910 C   0  0  0  0  0  0  0  0  0  0  0  0
    2.0080   14.6660   -3.6310 N   0  0  0  0  0  0  0  0  0  0  0  0
    0.4230   11.8290   -2.7390 C   0  0  1  0  0  0  0  0  0  0  0  0
    0.5450   10.5260   -2.4490 O   0  0  0  0  0  0  0  0  0  0  0  0
    0.8490   12.3910   -1.5240 O   0  0  0  0  0  0  0  0  0  0  0  0
  2  1  1  1
  2  3  1  0
  2  4  1  0
  5  4  1  1
  3  6  1  0
  6  7  1  6
  5  8  1  0
  6  8  1  0
  5  9  1  0
  7 10  1  0
  8 11  1  6
  9 12  1  0
 11 12  1  0
 13 10  1  6
 13 14  1  0
 13 15  1  0
 16 14  1  1
 15 17  1  0
 16 18  1  0
 18 17  1  1
 16 19  1  0
 19 20  1  6
 18 21  1  0
 19 22  1  0
 21 23  1  1
 21 24  1  0
 22 24  1  0
 23 25  1  0
 25 26  1  1
 25 27  1  0
M  CHG  1  26  -1
M  END
