ucsf320-ucsf016
     RDKit          3D

 27 32  0  0  0  0  0  0  0  0999 V2000
   -1.2650   12.2780   -1.5640 O   0  0  0  0  0  0  0  0  0  0  0  0
   -1.9910   13.1970   -2.1950 C   0  0  0  0  0  0  0  0  0  0  0  0
   -3.4460   13.2910   -1.6160 C   0  0  1  0  0  0  0  0  0  0  0  0
   -4.0930   14.6730   -1.4870 C   0  0  1  0  0  0  0  0  0  0  0  0
   -4.4740   12.3620   -2.2540 C   0  0  0  0  0  0  0  0  0  0  0  0
   -5.2960   14.6690   -0.5450 C   0  0  1  0  0  0  0  0  0  0  0  0
   -5.9430   12.6750   -1.9330 C   0  0  0  0  0  0  0  0  0  0  0  0
   -3.2840   15.8720   -0.9130 C   0  0  2  0  0  0  0  0  0  0  0  0
   -6.1930   13.4690   -0.6580 C   0  0  2  0  0  0  0  0  0  0  0  0
   -1.9210   15.5890   -0.3490 C   0  0  1  0  0  0  0  0  0  0  0  0
   -4.5790   14.8970    0.7870 C   0  0  2  0  0  0  0  0  0  0  0  0
   -4.1330   16.2350    0.3210 C   0  0  0  0  0  0  0  0  0  0  0  0
   -7.5510   13.9010   -0.5650 O   0  0  0  0  0  0  0  0  0  0  0  0
   -2.1370   14.9210    0.9900 C   0  0  1  0  0  0  0  0  0  0  0  0
   -0.6680   15.3390   -1.2320 C   0  0  2  0  0  0  0  0  0  0  0  0
   -3.3580   14.1070    1.1140 N   0  0  0  0  0  0  0  0  0  0  0  0
   -0.7410   14.8820   -2.6530 N   0  0  0  0  0  0  0  0  0  0  0  0
    0.3430   14.6290   -0.4650 N   0  0  0  0  0  0  0  0  0  0  0  0
   -0.9660   14.2980    1.5260 N   0  0  0  0  0  0  0  0  0  0  0  0
    0.5610   14.5860   -3.2770 C   0  0  0  0  0  0  0  0  0  0  0  0
   -1.5800   15.6930   -3.5610 C   0  0  0  0  0  0  0  0  0  0  0  0
   -0.1820   13.6900    0.4950 C   0  0  0  0  0  0  0  0  0  0  0  0
   -2.0360   14.8030   -4.7140 C   0  0  0  0  0  0  0  0  0  0  0  0
    0.4250   14.3240   -4.7880 C   0  0  0  0  0  0  0  0  0  0  0  0
   -3.4680   14.3030   -4.6610 C   0  0  0  0  0  0  0  0  0  0  0  0
   -3.0730   15.2900   -5.7160 C   0  0  0  0  0  0  0  0  0  0  0  0
   -0.9710   13.8260   -5.1680 C   0  0  0  0  0  0  0  0  0  0  0  0
  1  2  1  0
  3  2  1  6
  4  3  1  1
  3  5  1  0
  4  6  1  0
  5  7  1  0
  4  8  1  0
  6  9  1  1
  7  9  1  0
  8 10  1  0
  6 11  1  0
  8 12  1  1
 11 12  1  0
  9 13  1  6
 10 14  1  0
 10 15  1  6
 11 16  1  6
 14 16  1  6
 15 17  1  6
 15 18  1  0
 14 19  1  0
 17 20  1  0
 17 21  1  0
 18 22  1  0
 19 22  1  0
 23 21  1  0
 20 24  1  0
 23 25  1  0
 23 26  1  0
 25 26  1  0
 23 27  1  0
 24 27  1  0
M  CHG  1   1  -1
M  END
