ucsf392-ucsf243
     RDKit          3D

 19 20  0  0  0  0  0  0  0  0999 V2000
   -5.6830   13.8560   -0.0750 C   0  0  0  0  0  0  0  0  0  0  0  0
   -4.2680   13.7100    0.5080 C   0  0  1  0  0  0  0  0  0  0  0  0
   -3.2240   13.2880   -0.5440 C   0  0  0  0  0  0  0  0  0  0  0  0
   -3.7530   14.9810    1.1640 C   0  0  2  0  0  0  0  0  0  0  0  0
   -3.5300   16.0770    0.2570 N   0  0  0  0  0  0  0  0  0  0  0  0
   -2.4570   14.7400    1.7220 N   0  0  0  0  0  0  0  0  0  0  0  0
   -1.7960   13.4170   -0.1780 N   0  0  0  0  0  0  0  0  0  0  0  0
   -1.4480   14.5050    0.7300 C   0  0  2  0  0  0  0  0  0  0  0  0
   -3.1440   15.7720   -1.1620 C   0  0  1  0  0  0  0  0  0  0  0  0
   -0.1600   14.1330    1.4320 C   0  0  0  0  0  0  0  0  0  0  0  0
   -1.6680   15.3310   -1.2410 C   0  0  0  0  0  0  0  0  0  0  0  0
   -4.1150   14.9510   -2.0170 C   0  0  0  0  0  0  0  0  0  0  0  0
   -1.2670   14.7500   -2.6100 C   0  0  2  0  0  0  0  0  0  0  0  0
   -3.6460   14.7990   -3.4720 C   0  0  0  0  0  0  0  0  0  0  0  0
    0.2590   14.9050   -2.8960 C   0  0  2  0  0  0  0  0  0  0  0  0
   -2.2100   15.2660   -3.7180 C   0  0  2  0  0  0  0  0  0  0  0  0
   -1.7870   14.7900   -5.0030 O   0  0  0  0  0  0  0  0  0  0  0  0
    0.7020   13.7210   -3.5320 O   0  0  0  0  0  0  0  0  0  0  0  0
    0.9910   14.9030   -1.7990 O   0  0  0  0  0  0  0  0  0  0  0  0
  2  1  1  6
  2  3  1  0
  2  4  1  0
  4  5  1  6
  4  6  1  0
  3  7  1  0
  6  8  1  0
  7  8  1  0
  9  5  1  1
  8 10  1  1
  9 11  1  0
  9 12  1  0
 13 11  1  1
 12 14  1  0
 13 15  1  0
 13 16  1  0
 14 16  1  0
 16 17  1  6
 15 18  1  6
 15 19  1  0
M  CHG  1  19  -1
M  END
