ucsf412-ucsf378
     RDKit          3D

 24 26  0  0  0  0  0  0  0  0999 V2000
   -7.7120   13.8370   -0.6150 O   0  0  0  0  0  0  0  0  0  0  0  0
   -7.1360   14.9900   -0.0750 C   0  0  1  0  0  0  0  0  0  0  0  0
   -7.3000   14.8310    1.3630 N   0  0  0  0  0  0  0  0  0  0  0  0
   -5.7130   15.2190   -0.6170 C   0  0  1  0  0  0  0  0  0  0  0  0
   -4.6480   14.4950    0.2040 C   0  0  2  0  0  0  0  0  0  0  0  0
   -6.1160   14.5870    2.2000 C   0  0  0  0  0  0  0  0  0  0  0  0
   -5.5650   14.8160   -2.0690 C   0  0  0  0  0  0  0  0  0  0  0  0
   -4.7540   14.9840    1.6310 C   0  0  0  0  0  0  0  0  0  0  0  0
   -3.2030   14.5860   -0.3550 C   0  0  0  0  0  0  0  0  0  0  0  0
   -4.2370   15.3250   -2.5860 C   0  0  0  0  0  0  0  0  0  0  0  0
   -3.0360   14.7130   -1.8970 C   0  0  2  0  0  0  0  0  0  0  0  0
   -2.6560   13.4570   -2.6780 C   0  0  0  0  0  0  0  0  0  0  0  0
   -2.3390   13.7400   -4.1650 C   0  0  0  0  0  0  0  0  0  0  0  0
   -0.9260   14.2520   -4.5280 C   0  0  2  0  0  0  0  0  0  0  0  0
    0.1230   13.6010   -3.5730 C   0  0  1  0  0  0  0  0  0  0  0  0
   -0.8490   15.7970   -4.6280 C   0  0  0  0  0  0  0  0  0  0  0  0
   -0.1120   12.0790   -3.5900 C   0  0  0  0  0  0  0  0  0  0  0  0
    1.5470   14.0840   -3.8390 C   0  0  1  0  0  0  0  0  0  0  0  0
    0.5260   16.3150   -4.2420 C   0  0  0  0  0  0  0  0  0  0  0  0
    2.7640   12.9030   -4.3510 Cl  0  0  0  0  0  0  0  0  0  0  0  0
    0.4800   11.4370   -2.3520 C   0  0  1  0  0  0  0  0  0  0  0  0
    1.5640   15.3050   -4.6850 C   0  0  0  0  0  0  0  0  0  0  0  0
   -0.1460   11.8700   -1.2810 O   0  0  0  0  0  0  0  0  0  0  0  0
    0.1610   10.0760   -2.3590 O   0  0  0  0  0  0  0  0  0  0  0  0
  2  1  1  6
  2  3  1  0
  2  4  1  0
  4  5  1  0
  3  6  1  0
  4  7  1  6
  5  8  1  1
  6  8  1  0
  5  9  1  0
  7 10  1  0
  9 11  1  0
 10 11  1  0
 11 12  1  6
 12 13  1  0
 14 13  1  1
 14 15  1  0
 14 16  1  0
 15 17  1  6
 15 18  1  0
 16 19  1  0
 18 20  1  6
 17 21  1  0
 18 22  1  0
 19 22  1  0
 21 23  1  1
 21 24  1  0
M  CHG  1  23  -1
M  END
