ucsf392-ucsf333
     RDKit          3D

 18 19  0  0  0  0  0  0  0  0999 V2000
   -5.2820   14.9900   -1.0680 C   0  0  0  0  0  0  0  0  0  0  0  0
   -3.8120   15.1810   -0.6970 C   0  0  2  0  0  0  0  0  0  0  0  0
   -2.7440   14.9200   -1.7820 C   0  0  2  0  0  0  0  0  0  0  0  0
   -3.5010   14.7710    0.7630 C   0  0  2  0  0  0  0  0  0  0  0  0
   -4.2790   15.4840    1.7560 N   0  0  0  0  0  0  0  0  0  0  0  0
   -2.1570   14.7290    1.2710 N   0  0  0  0  0  0  0  0  0  0  0  0
   -3.0460   15.1940   -3.2400 C   0  0  0  0  0  0  0  0  0  0  0  0
   -1.7540   13.5210   -1.8730 S   0  0  2  0  0  0  0  0  0  0  0  0
   -1.0200   14.6700    0.3770 C   0  0  2  0  0  0  0  0  0  0  0  0
   -0.8890   13.5420   -0.4770 N   0  0  0  0  0  0  0  0  0  0  0  0
   -1.0470   13.9570   -3.4460 C   0  0  1  0  0  0  0  0  0  0  0  0
   -1.7580   15.1350   -3.9570 N   0  0  0  0  0  0  0  0  0  0  0  0
    0.2420   15.2520    0.8890 C   0  0  0  0  0  0  0  0  0  0  0  0
    0.4820   13.9050   -3.6050 C   0  0  0  0  0  0  0  0  0  0  0  0
    1.0890   12.5040   -3.4990 C   0  0  0  0  0  0  0  0  0  0  0  0
    0.3170   11.6430   -2.4810 C   0  0  2  0  0  0  0  0  0  0  0  0
    0.7540   11.9500   -1.2970 O   0  0  0  0  0  0  0  0  0  0  0  0
    0.5970   10.2690   -2.5470 O   0  0  0  0  0  0  0  0  0  0  0  0
  2  1  1  6
  2  3  1  0
  2  4  1  0
  4  5  1  1
  4  6  1  0
  3  7  1  6
  3  8  1  0
  6  9  1  0
  8 10  1  1
  9 10  1  0
  8 11  1  0
  7 12  1  0
 11 12  1  0
  9 13  1  1
 11 14  1  1
 14 15  1  0
 15 16  1  0
 16 17  1  1
 16 18  1  0
M  CHG  1  17  -1
M  END
