ucsf380-ucsf371
     RDKit          3D

 18 19  0  0  0  0  0  0  0  0999 V2000
    1.0590   14.5800   -1.9950 O   0  0  0  0  0  0  0  0  0  0  0  0
    0.0280   13.9480   -1.4500 C   0  0  2  0  0  0  0  0  0  0  0  0
    0.5020   12.6140   -1.4250 O   0  0  0  0  0  0  0  0  0  0  0  0
   -1.2920   14.1460   -2.3600 C   0  0  2  0  0  0  0  0  0  0  0  0
   -1.1090   15.3030   -3.2330 O   0  0  0  0  0  0  0  0  0  0  0  0
   -2.5790   14.3810   -1.4820 C   0  0  1  0  0  0  0  0  0  0  0  0
   -1.5870   13.0210   -3.4150 C   0  0  0  0  0  0  0  0  0  0  0  0
   -2.3710   14.7800   -0.0060 C   0  0  0  0  0  0  0  0  0  0  0  0
   -3.6280   15.2630   -2.1950 C   0  0  0  0  0  0  0  0  0  0  0  0
   -2.3770   11.7720   -2.9840 C   0  0  0  0  0  0  0  0  0  0  0  0
   -0.4820   12.6680   -4.4100 C   0  0  0  0  0  0  0  0  0  0  0  0
   -3.4720   15.6030    0.6580 C   0  0  0  0  0  0  0  0  0  0  0  0
   -4.9610   15.2930   -1.5070 C   0  0  0  0  0  0  0  0  0  0  0  0
   -2.9000   10.9640   -4.1640 C   0  0  0  0  0  0  0  0  0  0  0  0
   -0.9820   11.8640   -5.5980 C   0  0  0  0  0  0  0  0  0  0  0  0
   -4.8400   15.6680   -0.0380 C   0  0  1  0  0  0  0  0  0  0  0  0
   -1.8010   10.6460   -5.1780 C   0  0  0  0  0  0  0  0  0  0  0  0
   -5.8000   14.8150    0.7690 C   0  0  0  0  0  0  0  0  0  0  0  0
  2  1  1  6
  2  3  1  0
  2  4  1  0
  4  5  1  6
  4  6  1  0
  4  7  1  0
  6  8  1  1
  6  9  1  0
  7 10  1  0
  7 11  1  0
  8 12  1  0
  9 13  1  0
 10 14  1  0
 11 15  1  0
 12 16  1  0
 13 16  1  0
 14 17  1  0
 15 17  1  0
 16 18  1  1
M  CHG  1   1  -1
M  END
