ucsf151-ucsf274
     RDKit          3D

 24 26  0  0  0  0  0  0  0  0999 V2000
    0.4280   12.9530   -2.2990 O   0  0  0  0  0  0  0  0  0  0  0  0
    0.0330   13.8300   -3.3580 C   0  0  1  0  0  0  0  0  0  0  0  0
    0.9070   14.9750   -3.2540 O   0  0  0  0  0  0  0  0  0  0  0  0
    0.6870   11.5700   -2.5800 C   0  0  0  0  0  0  0  0  0  0  0  0
    0.3990   10.8220   -1.5270 O   0  0  0  0  0  0  0  0  0  0  0  0
    0.4150   13.1560   -4.7400 C   0  0  0  0  0  0  0  0  0  0  0  0
   -1.4070   14.4050   -3.1970 C   0  0  1  0  0  0  0  0  0  0  0  0
   -1.7650   15.5690   -4.1310 C   0  0  0  0  0  0  0  0  0  0  0  0
   -2.5700   13.3970   -3.1340 C   0  0  0  0  0  0  0  0  0  0  0  0
   -0.2170   11.8070   -5.2220 C   0  0  1  0  0  0  0  0  0  0  0  0
   -2.3780   15.0870   -5.4240 C   0  0  2  0  0  0  0  0  0  0  0  0
   -3.1730   12.9860   -4.4280 N   0  0  0  0  0  0  0  0  0  0  0  0
   -1.7520   11.6570   -5.0050 C   0  0  2  0  0  0  0  0  0  0  0  0
    0.2470   11.3330   -6.5590 N   0  0  0  0  0  0  0  0  0  0  0  0
   -2.7960   16.2320   -6.1760 O   0  0  0  0  0  0  0  0  0  0  0  0
   -2.0640   11.9400   -3.6660 O   0  0  0  0  0  0  0  0  0  0  0  0
   -3.5670   14.1520   -5.2140 C   0  0  0  0  0  0  0  0  0  0  0  0
   -2.3110   10.3320   -5.2220 N   0  0  0  0  0  0  0  0  0  0  0  0
   -0.6670   10.2820   -7.0980 C   0  0  2  0  0  0  0  0  0  0  0  0
   -1.4510    9.4710   -6.0170 C   0  0  2  0  0  0  0  0  0  0  0  0
    0.1260    9.3530   -8.0260 C   0  0  0  0  0  0  0  0  0  0  0  0
   -0.4890    7.9620   -8.2160 C   0  0  0  0  0  0  0  0  0  0  0  0
   -2.3330    8.3300   -6.5560 C   0  0  0  0  0  0  0  0  0  0  0  0
   -1.9870    7.9010   -7.9680 C   0  0  0  0  0  0  0  0  0  0  0  0
  2  1  1  0
  2  3  1  1
  1  4  1  0
  4  5  1  0
  2  6  1  0
  2  7  1  0
  7  8  1  6
  7  9  1  0
 10  6  1  6
  8 11  1  0
  9 12  1  0
 10 13  1  0
 10 14  1  0
 11 15  1  6
 13 16  1  1
 11 17  1  0
 12 17  1  0
 13 18  1  0
 14 19  1  0
 18 20  1  0
 19 20  1  0
 19 21  1  1
 21 22  1  0
 20 23  1  6
 22 24  1  0
 23 24  1  0
M  CHG  1   5  -1
M  END
