ucsf519-ucsf380
     RDKit          3D

 22 23  0  0  0  0  0  0  0  0999 V2000
   -0.3410   16.2310   -4.6260 C   0  0  0  0  0  0  0  0  0  0  0  0
   -0.5240   14.9300   -3.8590 C   0  0  2  0  0  0  0  0  0  0  0  0
    0.1920   13.6130   -4.9360 S   0  0  0  0  0  0  0  0  0  0  0  0
   -1.9730   14.6610   -3.4080 C   0  0  2  0  0  0  0  0  0  0  0  0
    0.9470   12.2160   -4.1250 C   0  0  0  0  0  0  0  0  0  0  0  0
   -2.7580   15.5550   -4.2360 O   0  0  0  0  0  0  0  0  0  0  0  0
   -2.2840   14.8750   -2.0980 N   0  0  0  0  0  0  0  0  0  0  0  0
   -2.4670   13.3460   -4.0610 C   0  0  0  0  0  0  0  0  0  0  0  0
    0.5260   11.8860   -2.7240 C   0  0  2  0  0  0  0  0  0  0  0  0
   -3.6720   15.1420   -1.8120 C   0  0  0  0  0  0  0  0  0  0  0  0
   -1.6750   14.5510   -0.9260 C   0  0  1  0  0  0  0  0  0  0  0  0
   -2.6330   12.2320   -3.0670 C   0  0  0  0  0  0  0  0  0  0  0  0
   -1.8750   13.0550   -5.3280 C   0  0  0  0  0  0  0  0  0  0  0  0
    1.4590   12.4440   -1.8540 O   0  0  0  0  0  0  0  0  0  0  0  0
    0.5500   10.4760   -2.4850 O   0  0  0  0  0  0  0  0  0  0  0  0
   -0.3780   14.8390   -0.6120 O   0  0  0  0  0  0  0  0  0  0  0  0
   -3.8690   14.5890   -0.3610 C   0  0  0  0  0  0  0  0  0  0  0  0
   -2.5590   15.0010    0.1850 N   0  0  0  0  0  0  0  0  0  0  0  0
   -2.4920   10.8390   -3.5650 C   0  0  0  0  0  0  0  0  0  0  0  0
   -1.4020   11.6630   -5.5450 C   0  0  0  0  0  0  0  0  0  0  0  0
    0.3530   15.3960   -1.5460 O   0  0  0  0  0  0  0  0  0  0  0  0
   -2.5390   10.7620   -5.1020 C   0  0  0  0  0  0  0  0  0  0  0  0
  2  1  1  6
  2  3  1  0
  2  4  1  0
  3  5  1  0
  4  6  1  6
  4  7  1  0
  4  8  1  0
  5  9  1  0
  7 10  1  0
  7 11  1  0
  8 12  1  0
  8 13  1  0
  9 14  1  1
  9 15  1  0
 11 16  1  1
 10 17  1  0
 11 18  1  0
 17 18  1  0
 12 19  1  0
 13 20  1  0
 16 21  1  0
 19 22  1  0
 20 22  1  0
M  CHG  2  15  -1  21  -1
M  END
