ucsf224-ucsf523
     RDKit          3D

 25 27  0  0  0  0  0  0  0  0999 V2000
   -1.3610   18.2120   -5.1740 Cl  0  0  0  0  0  0  0  0  0  0  0  0
   -0.4240   16.6830   -5.1640 C   0  0  2  0  0  0  0  0  0  0  0  0
   -1.2860   15.4070   -5.0430 C   0  0  2  0  0  0  0  0  0  0  0  0
    0.7190   16.7270   -4.1590 C   0  0  0  0  0  0  0  0  0  0  0  0
   -3.0380   15.7530   -5.2930 Cl  0  0  0  0  0  0  0  0  0  0  0  0
   -0.9480   14.5890   -3.7730 C   0  0  2  0  0  0  0  0  0  0  0  0
    1.4760   15.4030   -4.1050 C   0  0  0  0  0  0  0  0  0  0  0  0
   -1.4680   15.2320   -2.6060 O   0  0  0  0  0  0  0  0  0  0  0  0
    0.5730   14.2230   -3.7260 C   0  0  1  0  0  0  0  0  0  0  0  0
    1.0400   13.4360   -2.4710 C   0  0  0  0  0  0  0  0  0  0  0  0
   -1.5860   14.4690   -1.4070 C   0  0  1  0  0  0  0  0  0  0  0  0
    0.8890   11.9140   -2.5920 C   0  0  1  0  0  0  0  0  0  0  0  0
   -0.6840   14.9460   -0.3730 N   0  0  0  0  0  0  0  0  0  0  0  0
   -3.0330   14.4650   -0.8360 C   0  0  1  0  0  0  0  0  0  0  0  0
    0.2010   11.3260   -1.6050 O   0  0  0  0  0  0  0  0  0  0  0  0
    0.0090   11.7410   -3.6440 O   0  0  0  0  0  0  0  0  0  0  0  0
   -0.7540   14.0680    0.7280 C   0  0  1  0  0  0  0  0  0  0  0  0
   -3.0450   14.7610    0.6890 C   0  0  2  0  0  0  0  0  0  0  0  0
   -4.0750   15.2990   -1.5060 N   0  0  0  0  0  0  0  0  0  0  0  0
    0.2700   14.5210    1.5810 N   0  0  0  0  0  0  0  0  0  0  0  0
   -1.9360   14.3050    1.4860 N   0  0  0  0  0  0  0  0  0  0  0  0
   -4.1820   14.0150    1.1650 N   0  0  0  0  0  0  0  0  0  0  0  0
   -5.1420   15.6230   -0.5090 C   0  0  0  0  0  0  0  0  0  0  0  0
   -5.3940   14.5280    0.5890 C   0  0  2  0  0  0  0  0  0  0  0  0
   -6.1930   14.9930    1.6560 O   0  0  0  0  0  0  0  0  0  0  0  0
  2  1  1  1
  2  3  1  0
  2  4  1  0
  3  5  1  1
  3  6  1  0
  4  7  1  0
  6  8  1  1
  6  9  1  0
  7  9  1  0
  9 10  1  1
 11  8  1  6
 10 12  1  0
 11 13  1  0
 11 14  1  0
 12 15  1  1
 12 16  1  0
 13 17  1  0
 14 18  1  0
 14 19  1  6
 17 20  1  1
 17 21  1  0
 18 21  1  1
 18 22  1  0
 19 23  1  0
 22 24  1  0
 23 24  1  0
 24 25  1  1
M  CHG  1  15  -1
M  END
