ucsf424-ucsf396
     RDKit          3D

 25 27  0  0  0  0  0  0  0  0999 V2000
    1.1840   12.5250   -2.4020 O   0  0  0  0  0  0  0  0  0  0  0  0
    0.5150   11.9260   -3.3720 C   0  0  1  0  0  0  0  0  0  0  0  0
   -0.8690   12.1800   -3.2470 O   0  0  0  0  0  0  0  0  0  0  0  0
    0.9010   12.5360   -4.7410 C   0  0  0  0  0  0  0  0  0  0  0  0
   -1.4250   11.7330   -2.0390 C   0  0  0  0  0  0  0  0  0  0  0  0
    0.3110   11.9380   -6.0260 C   0  0  1  0  0  0  0  0  0  0  0  0
   -2.5510   12.6950   -1.6660 C   0  0  0  0  0  0  0  0  0  0  0  0
    1.3570   11.6080   -7.0300 N   0  0  0  0  0  0  0  0  0  0  0  0
   -0.5230   10.6670   -5.9660 C   0  0  2  0  0  0  0  0  0  0  0  0
   -2.0670   13.7210   -0.6340 C   0  0  0  0  0  0  0  0  0  0  0  0
    0.8630   10.4720   -7.8180 O   0  0  0  0  0  0  0  0  0  0  0  0
   -0.4770   10.2630   -7.4140 C   0  0  1  0  0  0  0  0  0  0  0  0
   -1.9780   10.7040   -5.5180 C   0  0  0  0  0  0  0  0  0  0  0  0
   -2.7620   15.0010   -0.8400 N   0  0  0  0  0  0  0  0  0  0  0  0
   -0.9660    8.8370   -7.5750 C   0  0  0  0  0  0  0  0  0  0  0  0
   -2.6470    9.3240   -5.6940 C   0  0  0  0  0  0  0  0  0  0  0  0
   -3.6810   15.3140    0.2380 C   0  0  2  0  0  0  0  0  0  0  0  0
   -2.4120    8.6920   -7.0770 C   0  0  0  0  0  0  0  0  0  0  0  0
   -3.0120   14.8260    1.3970 O   0  0  0  0  0  0  0  0  0  0  0  0
   -5.0600   14.6310    0.1510 C   0  0  2  0  0  0  0  0  0  0  0  0
   -6.0060   15.2060   -0.8960 C   0  0  0  0  0  0  0  0  0  0  0  0
   -5.7440   14.5600    1.5430 C   0  0  0  0  0  0  0  0  0  0  0  0
   -7.3160   14.5890   -0.9280 N   0  0  0  0  0  0  0  0  0  0  0  0
   -7.2580   14.2800    1.5760 C   0  0  0  0  0  0  0  0  0  0  0  0
   -8.0520   14.6820    0.3270 C   0  0  0  0  0  0  0  0  0  0  0  0
  2  1  1  1
  2  3  1  0
  2  4  1  0
  3  5  1  0
  6  4  1  1
  5  7  1  0
  6  8  1  0
  6  9  1  0
  7 10  1  0
  8 11  1  0
  9 12  1  0
 11 12  1  0
  9 13  1  6
 10 14  1  0
 12 15  1  1
 13 16  1  0
 14 17  1  0
 15 18  1  0
 16 18  1  0
 17 19  1  1
 17 20  1  0
 20 21  1  6
 20 22  1  0
 21 23  1  0
 22 24  1  0
 23 25  1  0
 24 25  1  0
M  CHG  1   1  -1
M  END
