ucsf115-ucsf262
     RDKit          3D

 29 33  0  0  0  0  0  0  0  0999 V2000
   -1.7800   13.2360   -3.3370 C   0  0  0  0  0  0  0  0  0  0  0  0
   -1.6480   14.4740   -2.5600 N   0  0  0  0  0  0  0  0  0  0  0  0
   -1.8400   14.2660   -1.1590 C   0  0  1  0  0  0  0  0  0  0  0  0
   -0.4510   12.7240   -3.9480 C   0  0  2  0  0  0  0  0  0  0  0  0
   -0.7380   11.4640   -4.5810 O   0  0  0  0  0  0  0  0  0  0  0  0
    0.6890   12.3620   -2.9710 C   0  0  1  0  0  0  0  0  0  0  0  0
    1.0170   13.3250   -1.9830 O   0  0  0  0  0  0  0  0  0  0  0  0
    0.1020   11.1040   -2.3880 C   0  0  0  0  0  0  0  0  0  0  0  0
   -0.5540   10.4630   -3.5850 C   0  0  0  0  0  0  0  0  0  0  0  0
   -0.6610   14.8080   -0.4910 N   0  0  0  0  0  0  0  0  0  0  0  0
   -3.1350   14.9960   -0.7360 C   0  0  2  0  0  0  0  0  0  0  0  0
    1.6660   14.5550   -2.3800 C   0  0  1  0  0  0  0  0  0  0  0  0
   -0.7520   14.8200    0.9460 C   0  0  0  0  0  0  0  0  0  0  0  0
   -3.0700   15.1800    0.7870 C   0  0  2  0  0  0  0  0  0  0  0  0
   -4.4720   14.4780   -1.0040 N   0  0  0  0  0  0  0  0  0  0  0  0
    2.9920   14.4040   -2.4060 O   0  0  0  0  0  0  0  0  0  0  0  0
   -2.0580   14.3410    1.3690 N   0  0  0  0  0  0  0  0  0  0  0  0
   -4.3810   14.7870    1.2460 N   0  0  0  0  0  0  0  0  0  0  0  0
   -5.2010   15.0760    0.0830 C   0  0  0  0  0  0  0  0  0  0  0  0
    1.1530   14.9610   -3.8230 C   0  0  1  0  0  0  0  0  0  0  0  0
   -0.3630   15.1510   -3.9030 C   0  0  0  0  0  0  0  0  0  0  0  0
    1.6850   16.2710   -4.3060 N   0  0  0  0  0  0  0  0  0  0  0  0
   -0.5110   16.1890   -4.9720 C   0  0  2  0  0  0  0  0  0  0  0  0
    0.5660   17.1660   -4.5820 C   0  0  2  0  0  0  0  0  0  0  0  0
   -1.8650   16.8710   -5.1300 C   0  0  2  0  0  0  0  0  0  0  0  0
    0.8580   18.1260   -5.7140 C   0  0  0  0  0  0  0  0  0  0  0  0
   -3.1100   15.8110   -5.8570 Cl  0  0  0  0  0  0  0  0  0  0  0  0
   -1.7680   18.1980   -5.9010 C   0  0  0  0  0  0  0  0  0  0  0  0
   -0.3950   18.5520   -6.5000 C   0  0  0  0  0  0  0  0  0  0  0  0
  1  2  1  0
  3  2  1  6
  4  1  1  1
  4  5  1  0
  4  6  1  0
  6  7  1  1
  6  8  1  0
  5  9  1  0
  8  9  1  0
  3 10  1  0
  3 11  1  0
  7 12  1  0
 10 13  1  0
 11 14  1  0
 11 15  1  1
 12 16  1  6
 13 17  1  0
 14 17  1  1
 14 18  1  0
 15 19  1  0
 18 19  1  0
 12 20  1  0
 20 21  1  1
 20 22  1  0
 23 21  1  1
 22 24  1  0
 23 24  1  0
 23 25  1  0
 24 26  1  6
 25 27  1  6
 25 28  1  0
 26 29  1  0
 28 29  1  0
M  CHG  1  16  -1
M  END
