ucsf340-ucsf442
     RDKit          3D

 27 30  0  0  0  0  0  0  0  0999 V2000
    1.0140   18.4450   -5.8320 C   0  0  0  0  0  0  0  0  0  0  0  0
    0.1540   17.3020   -5.7790 N   0  0  0  0  0  0  0  0  0  0  0  0
    0.7780   16.0760   -5.2830 C   0  0  0  0  0  0  0  0  0  0  0  0
   -1.1670   17.4620   -5.1850 C   0  0  2  0  0  0  0  0  0  0  0  0
    0.2230   15.9690   -3.8930 C   0  0  1  0  0  0  0  0  0  0  0  0
   -1.2560   16.3900   -4.0550 C   0  0  2  0  0  0  0  0  0  0  0  0
   -2.2920   17.5500   -6.2130 C   0  0  0  0  0  0  0  0  0  0  0  0
    0.6600   14.7270   -3.1090 C   0  0  0  0  0  0  0  0  0  0  0  0
   -2.4590   15.4280   -4.1590 C   0  0  2  0  0  0  0  0  0  0  0  0
   -3.2190   16.3320   -6.3650 C   0  0  0  0  0  0  0  0  0  0  0  0
    0.3780   13.3320   -3.7320 C   0  0  0  0  0  0  0  0  0  0  0  0
   -2.4630   14.1570   -3.3300 C   0  0  0  0  0  0  0  0  0  0  0  0
   -2.9270   15.1140   -5.5420 C   0  0  0  0  0  0  0  0  0  0  0  0
    0.3050   12.2260   -2.6500 C   0  0  2  0  0  0  0  0  0  0  0  0
   -3.4350   14.3630   -2.3440 O   0  0  0  0  0  0  0  0  0  0  0  0
    1.4950   12.3080   -1.9170 O   0  0  0  0  0  0  0  0  0  0  0  0
    0.3510   10.9920   -3.1070 O   0  0  0  0  0  0  0  0  0  0  0  0
   -3.0340   15.2840   -1.3610 C   0  0  1  0  0  0  0  0  0  0  0  0
   -4.0530   15.4960   -0.2390 C   0  0  2  0  0  0  0  0  0  0  0  0
   -1.7580   14.7980   -0.8140 N   0  0  0  0  0  0  0  0  0  0  0  0
   -1.3980   15.2690    0.5050 C   0  0  2  0  0  0  0  0  0  0  0  0
   -3.6530   14.7230    0.9750 C   0  0  1  0  0  0  0  0  0  0  0  0
   -5.4860   15.1640   -0.4120 N   0  0  0  0  0  0  0  0  0  0  0  0
   -0.2530   14.5740    0.8930 O   0  0  0  0  0  0  0  0  0  0  0  0
   -2.3870   15.0630    1.5210 N   0  0  0  0  0  0  0  0  0  0  0  0
   -4.7600   15.1550    1.7640 N   0  0  0  0  0  0  0  0  0  0  0  0
   -5.8530   14.6900    0.9360 C   0  0  0  0  0  0  0  0  0  0  0  0
  1  2  1  0
  2  3  1  0
  2  4  1  0
  3  5  1  0
  4  6  1  0
  6  5  1  6
  4  7  1  6
  5  8  1  6
  6  9  1  0
  7 10  1  0
  8 11  1  0
  9 12  1  6
  9 13  1  0
 10 13  1  0
 11 14  1  0
 12 15  1  0
 14 16  1  1
 14 17  1  0
 18 15  1  6
 18 19  1  0
 18 20  1  0
 20 21  1  0
 19 22  1  0
 19 23  1  6
 21 24  1  1
 21 25  1  0
 22 25  1  1
 22 26  1  0
 23 27  1  0
 26 27  1  0
M  CHG  1  17  -1
M  END
