ucsf320-ucsf151
     RDKit          3D

 19 20  0  0  0  0  0  0  0  0999 V2000
   -0.6090   14.1690   -2.3580 C   0  0  2  0  0  0  0  0  0  0  0  0
   -1.6380   15.1560   -1.7240 C   0  0  1  0  0  0  0  0  0  0  0  0
   -1.8070   16.2470   -2.6250 O   0  0  0  0  0  0  0  0  0  0  0  0
   -0.2740   13.0520   -1.7210 O   0  0  0  0  0  0  0  0  0  0  0  0
    0.6320   14.8460   -2.5220 O   0  0  0  0  0  0  0  0  0  0  0  0
   -1.2750   13.9490   -3.7400 C   0  0  1  0  0  0  0  0  0  0  0  0
   -3.0860   14.6480   -1.3960 C   0  0  1  0  0  0  0  0  0  0  0  0
   -1.2310   15.1290   -4.7160 C   0  0  0  0  0  0  0  0  0  0  0  0
   -1.2090   12.6300   -4.4960 C   0  0  0  0  0  0  0  0  0  0  0  0
   -3.4980   15.1450    0.0060 C   0  0  0  0  0  0  0  0  0  0  0  0
   -4.1160   15.0270   -2.5010 C   0  0  0  0  0  0  0  0  0  0  0  0
   -2.6120   15.1360   -5.3350 C   0  0  1  0  0  0  0  0  0  0  0  0
   -2.4540   12.4930   -5.3010 N   0  0  0  0  0  0  0  0  0  0  0  0
   -2.8380   16.2240   -6.2340 O   0  0  0  0  0  0  0  0  0  0  0  0
   -4.9560   14.8820    0.3470 C   0  0  0  0  0  0  0  0  0  0  0  0
   -5.5810   14.8490   -2.1160 C   0  0  0  0  0  0  0  0  0  0  0  0
   -2.8970   13.7520   -5.9930 C   0  0  0  0  0  0  0  0  0  0  0  0
   -5.8890   15.4060   -0.7390 C   0  0  1  0  0  0  0  0  0  0  0  0
   -7.2340   15.0790   -0.3800 O   0  0  0  0  0  0  0  0  0  0  0  0
  1  2  1  0
  2  3  1  6
  1  4  1  1
  1  5  1  0
  1  6  1  0
  2  7  1  0
  6  8  1  6
  6  9  1  0
  7 10  1  1
  7 11  1  0
  8 12  1  0
  9 13  1  0
 12 14  1  6
 10 15  1  0
 11 16  1  0
 12 17  1  0
 13 17  1  0
 15 18  1  0
 16 18  1  0
 18 19  1  1
M  CHG  1   4  -1
M  END
