ucsf364-ucsf173
     RDKit          3D

 21 23  0  0  0  0  0  0  0  0999 V2000
    1.6890   13.4980   -5.0270 C   0  0  0  0  0  0  0  0  0  0  0  0
    0.9490   12.2310   -5.0780 C   0  0  2  0  0  0  0  0  0  0  0  0
    0.6570   11.5970   -6.3980 C   0  0  2  0  0  0  0  0  0  0  0  0
    0.0800   11.7500   -3.9630 C   0  0  1  0  0  0  0  0  0  0  0  0
    1.5350   11.6330   -7.3870 O   0  0  0  0  0  0  0  0  0  0  0  0
   -0.4140   12.8590   -2.8540 S   0  0  0  0  0  0  0  0  0  0  0  0
   -0.8780   10.7420   -4.5620 C   0  0  0  0  0  0  0  0  0  0  0  0
   -0.7380   11.9140   -6.7440 C   0  0  0  0  0  0  0  0  0  0  0  0
   -0.7900   11.6270   -1.5380 O   0  0  0  0  0  0  0  0  0  0  0  0
    0.8940   13.0110   -0.9210 O   0  0  0  0  0  0  0  0  0  0  0  0
   -1.1800   13.6240   -1.3980 O   0  0  0  0  0  0  0  0  0  0  0  0
   -1.6350   11.3460   -5.7300 C   0  0  0  0  0  0  0  0  0  0  0  0
   -0.5260   14.3060   -3.7230 C   0  0  1  0  0  0  0  0  0  0  0  0
   -1.7270   15.0320   -3.9040 C   0  0  0  0  0  0  0  0  0  0  0  0
    0.4770   15.4240   -3.6130 C   0  0  0  0  0  0  0  0  0  0  0  0
   -1.3900   15.9520   -4.9550 C   0  0  2  0  0  0  0  0  0  0  0  0
    0.0860   16.2050   -4.8530 C   0  0  1  0  0  0  0  0  0  0  0  0
   -2.1880   17.2000   -4.9950 C   0  0  0  0  0  0  0  0  0  0  0  0
    0.3210   17.6940   -4.7870 C   0  0  0  0  0  0  0  0  0  0  0  0
   -1.7570   18.0260   -6.1800 C   0  0  0  0  0  0  0  0  0  0  0  0
   -0.3040   18.3380   -6.0240 C   0  0  0  0  0  0  0  0  0  0  0  0
  2  1  1  6
  2  3  1  0
  2  4  1  0
  3  5  1  6
  4  6  1  6
  4  7  1  0
  3  8  1  0
  6  9  1  0
  6 10  1  0
  6 11  1  0
  7 12  1  0
  8 12  1  0
 13  6  1  1
 13 14  1  0
 13 15  1  0
 16 14  1  1
 17 15  1  1
 16 17  1  0
 16 18  1  0
 17 19  1  0
 18 20  1  0
 19 21  1  0
 20 21  1  0
M  CHG  1  10  -1
M  END
