ucsf258-ucsf190
     RDKit          3D

 24 26  0  0  0  0  0  0  0  0999 V2000
    0.3080   12.7390   -1.6890 O   0  0  0  0  0  0  0  0  0  0  0  0
   -0.2190   13.9400   -2.2560 C   0  0  2  0  0  0  0  0  0  0  0  0
    0.8190   14.8820   -2.3520 O   0  0  0  0  0  0  0  0  0  0  0  0
    0.2940   11.7510   -2.7480 C   0  0  2  0  0  0  0  0  0  0  0  0
    0.6840   10.5730   -2.2500 O   0  0  0  0  0  0  0  0  0  0  0  0
    1.3090   12.2210   -3.8690 C   0  0  0  0  0  0  0  0  0  0  0  0
   -1.4540   14.4940   -1.4970 C   0  0  1  0  0  0  0  0  0  0  0  0
   -2.6200   14.8250   -2.4730 C   0  0  1  0  0  0  0  0  0  0  0  0
   -1.9600   13.8080   -0.2820 N   0  0  0  0  0  0  0  0  0  0  0  0
    1.2260   13.6400   -4.5480 C   0  0  1  0  0  0  0  0  0  0  0  0
   -2.6550   13.8260   -3.5090 O   0  0  0  0  0  0  0  0  0  0  0  0
   -4.0080   14.8390   -1.8430 C   0  0  0  0  0  0  0  0  0  0  0  0
   -2.8540   14.6970    0.4660 C   0  0  0  0  0  0  0  0  0  0  0  0
   -0.1500   14.0740   -5.1140 C   0  0  2  0  0  0  0  0  0  0  0  0
    1.8810   14.6900   -3.7020 N   0  0  0  0  0  0  0  0  0  0  0  0
   -4.0160   15.2520   -0.3720 C   0  0  0  0  0  0  0  0  0  0  0  0
   -0.5840   15.4430   -4.5580 C   0  0  1  0  0  0  0  0  0  0  0  0
    1.7820   16.0920   -4.1610 N   0  0  0  0  0  0  0  0  0  0  0  0
   -1.2610   13.0160   -5.1130 C   0  0  0  0  0  0  0  0  0  0  0  0
    0.5440   16.4580   -4.8450 C   0  0  2  0  0  0  0  0  0  0  0  0
   -1.9390   15.9440   -5.1190 C   0  0  0  0  0  0  0  0  0  0  0  0
   -2.5350   13.4820   -5.8170 C   0  0  0  0  0  0  0  0  0  0  0  0
    0.1840   17.7990   -4.5350 O   0  0  0  0  0  0  0  0  0  0  0  0
   -3.0160   14.8940   -5.4660 C   0  0  0  0  0  0  0  0  0  0  0  0
  1  2  1  0
  2  3  1  1
  1  4  1  0
  4  5  1  1
  4  6  1  0
  2  7  1  0
  7  8  1  0
  7  9  1  1
 10  6  1  1
  8 11  1  6
  8 12  1  0
  9 13  1  0
 10 14  1  0
 10 15  1  0
 12 16  1  0
 13 16  1  0
 14 17  1  0
 15 18  1  0
 14 19  1  1
 17 20  1  0
 18 20  1  0
 17 21  1  6
 19 22  1  0
 20 23  1  1
 21 24  1  0
 22 24  1  0
M  CHG  1   5  -1
M  END
