ucsf039-ucsf357
     RDKit          3D

 21 23  0  0  0  0  0  0  0  0999 V2000
   -4.1790   15.3540    1.0310 N   0  0  0  0  0  0  0  0  0  0  0  0
   -3.3220   14.8740   -0.0630 C   0  0  2  0  0  0  0  0  0  0  0  0
   -1.9350   15.4840    0.0320 C   0  0  2  0  0  0  0  0  0  0  0  0
   -3.9620   15.3270   -1.2780 N   0  0  0  0  0  0  0  0  0  0  0  0
   -5.3000   14.7680   -1.4920 C   0  0  2  0  0  0  0  0  0  0  0  0
   -3.1030   15.2300   -2.4790 C   0  0  0  0  0  0  0  0  0  0  0  0
   -1.0420   14.9380   -1.1010 C   0  0  2  0  0  0  0  0  0  0  0  0
   -1.1550   15.2880    1.2590 N   0  0  0  0  0  0  0  0  0  0  0  0
   -5.8690   15.2700   -2.5480 O   0  0  0  0  0  0  0  0  0  0  0  0
   -6.1840   15.1360   -0.4580 O   0  0  0  0  0  0  0  0  0  0  0  0
    0.1090   15.6850   -1.3640 O   0  0  0  0  0  0  0  0  0  0  0  0
   -1.7550   14.6180   -2.3090 N   0  0  0  0  0  0  0  0  0  0  0  0
   -0.5000   13.7930   -0.4280 N   0  0  0  0  0  0  0  0  0  0  0  0
   -0.0810   14.4350    0.8180 C   0  0  0  0  0  0  0  0  0  0  0  0
   -0.9630   14.4510   -3.5450 C   0  0  0  0  0  0  0  0  0  0  0  0
   -0.3910   15.6000   -4.4660 C   0  0  2  0  0  0  0  0  0  0  0  0
    0.7490   16.4360   -3.9000 C   0  0  0  0  0  0  0  0  0  0  0  0
   -1.4830   16.5570   -4.8830 N   0  0  0  0  0  0  0  0  0  0  0  0
   -0.9150   17.8970   -5.1420 C   0  0  1  0  0  0  0  0  0  0  0  0
    0.8720   17.7810   -5.1050 S   0  0  0  0  0  0  0  0  0  0  0  0
   -1.3870   18.5010   -6.4610 C   0  0  0  0  0  0  0  0  0  0  0  0
  2  1  1  1
  2  3  1  0
  2  4  1  0
  4  5  1  0
  4  6  1  0
  3  7  1  0
  3  8  1  1
  5  9  1  6
  5 10  1  0
  7 11  1  6
  6 12  1  0
  7 12  1  0
  7 13  1  0
  8 14  1  0
 13 14  1  0
 12 15  1  0
 16 15  1  1
 16 17  1  0
 16 18  1  0
 18 19  1  0
 17 20  1  0
 19 20  1  0
 19 21  1  6
M  CHG  1   9  -1
M  END
