ucsf411-ucsf005
     RDKit          3D

 27 30  0  0  0  0  0  0  0  0999 V2000
    0.6650   10.9210   -2.7490 O   0  0  0  0  0  0  0  0  0  0  0  0
    0.6390   12.2270   -2.9600 C   0  0  1  0  0  0  0  0  0  0  0  0
    1.4530   12.6870   -1.9090 O   0  0  0  0  0  0  0  0  0  0  0  0
    1.3000   12.6860   -4.3030 C   0  0  0  0  0  0  0  0  0  0  0  0
    0.5730   13.6800   -5.0670 O   0  0  0  0  0  0  0  0  0  0  0  0
    0.0260   14.7800   -4.3300 C   0  0  1  0  0  0  0  0  0  0  0  0
    0.0200   16.0690   -5.1560 C   0  0  1  0  0  0  0  0  0  0  0  0
   -1.4200   14.5520   -3.9230 C   0  0  2  0  0  0  0  0  0  0  0  0
   -1.5720   13.5930   -2.7630 C   0  0  0  0  0  0  0  0  0  0  0  0
   -1.3690   16.7160   -5.5390 C   0  0  1  0  0  0  0  0  0  0  0  0
   -2.3760   14.4520   -5.0960 C   0  0  0  0  0  0  0  0  0  0  0  0
    0.8430   17.1290   -4.4750 C   0  0  0  0  0  0  0  0  0  0  0  0
   -2.6640   15.8750   -5.5040 C   0  0  0  0  0  0  0  0  0  0  0  0
   -1.4560   18.1320   -5.0500 C   0  0  0  0  0  0  0  0  0  0  0  0
    1.0010   18.2800   -5.4550 C   0  0  0  0  0  0  0  0  0  0  0  0
   -2.4400   14.1180   -1.7010 N   0  0  0  0  0  0  0  0  0  0  0  0
   -0.3850   18.7900   -5.8860 C   0  0  0  0  0  0  0  0  0  0  0  0
   -3.6530   14.6610   -2.3280 C   0  0  0  0  0  0  0  0  0  0  0  0
   -1.9670   15.2910   -0.9980 C   0  0  1  0  0  0  0  0  0  0  0  0
   -4.3400   15.3840   -1.2550 N   0  0  0  0  0  0  0  0  0  0  0  0
   -3.2620   15.6100   -0.2590 C   0  0  1  0  0  0  0  0  0  0  0  0
   -0.8050   15.0130   -0.1500 N   0  0  0  0  0  0  0  0  0  0  0  0
   -3.3860   14.8180    1.0320 C   0  0  2  0  0  0  0  0  0  0  0  0
   -1.0910   14.1520    0.9410 C   0  0  1  0  0  0  0  0  0  0  0  0
   -4.2790   15.4950    1.9570 N   0  0  0  0  0  0  0  0  0  0  0  0
    0.0060   14.2060    1.8590 N   0  0  0  0  0  0  0  0  0  0  0  0
   -2.1460   14.6770    1.7340 N   0  0  0  0  0  0  0  0  0  0  0  0
  2  1  1  6
  2  3  1  0
  2  4  1  0
  4  5  1  0
  6  5  1  6
  6  7  1  0
  6  8  1  0
  8  9  1  6
  7 10  1  0
  8 11  1  0
  7 12  1  1
 10 13  1  1
 11 13  1  0
 10 14  1  0
 12 15  1  0
  9 16  1  0
 14 17  1  0
 15 17  1  0
 16 18  1  0
 16 19  1  0
 18 20  1  0
 19 21  1  0
 21 20  1  6
 19 22  1  1
 21 23  1  0
 22 24  1  0
 23 25  1  1
 24 26  1  1
 23 27  1  0
 24 27  1  0
M  CHG  1   1  -1
M  END
