ucsf380-ucsf173
     RDKit          3D

 26 29  0  0  0  0  0  0  0  0999 V2000
    0.6090   15.5850   -1.4540 O   0  0  0  0  0  0  0  0  0  0  0  0
    0.0260   13.3040   -2.3060 S   0  0  0  0  0  0  0  0  0  0  0  0
    0.4800   12.9100   -0.5270 O   0  0  0  0  0  0  0  0  0  0  0  0
   -1.7660   13.2840   -2.0390 C   0  0  0  0  0  0  0  0  0  0  0  0
    1.5010   12.4790   -2.2510 O   0  0  0  0  0  0  0  0  0  0  0  0
    0.3640   13.9340   -3.9570 C   0  0  1  0  0  0  0  0  0  0  0  0
   -2.4540   14.4930   -1.5690 C   0  0  0  0  0  0  0  0  0  0  0  0
   -2.3020   12.7490   -3.2370 C   0  0  0  0  0  0  0  0  0  0  0  0
   -0.6800   14.4810   -4.8730 C   0  0  0  0  0  0  0  0  0  0  0  0
    1.1550   15.2110   -3.9940 C   0  0  0  0  0  0  0  0  0  0  0  0
   -2.3840   14.6600   -0.0270 C   0  0  0  0  0  0  0  0  0  0  0  0
   -3.9120   14.2950   -1.8150 C   0  0  0  0  0  0  0  0  0  0  0  0
   -2.9560   11.3740   -3.0730 C   0  0  0  0  0  0  0  0  0  0  0  0
   -1.6450   12.8480   -4.5710 C   0  0  0  0  0  0  0  0  0  0  0  0
   -1.1070   15.7620   -4.2910 C   0  0  1  0  0  0  0  0  0  0  0  0
    0.2610   16.4220   -4.1570 C   0  0  2  0  0  0  0  0  0  0  0  0
   -3.5100   15.3820    0.6530 C   0  0  0  0  0  0  0  0  0  0  0  0
   -4.5070   15.6360   -1.6310 C   0  0  0  0  0  0  0  0  0  0  0  0
   -3.2560   10.8000   -4.4320 C   0  0  0  0  0  0  0  0  0  0  0  0
   -1.0200   11.6150   -5.1330 C   0  0  0  0  0  0  0  0  0  0  0  0
   -2.1440   16.4790   -5.1030 C   0  0  0  0  0  0  0  0  0  0  0  0
    0.7070   17.2380   -5.3490 C   0  0  0  0  0  0  0  0  0  0  0  0
   -4.6940   15.7530   -0.1570 C   0  0  0  0  0  0  0  0  0  0  0  0
   -2.0810   10.5960   -5.3220 C   0  0  0  0  0  0  0  0  0  0  0  0
   -1.7470   17.8990   -5.3170 C   0  0  0  0  0  0  0  0  0  0  0  0
   -0.4420   17.9980   -6.0040 C   0  0  0  0  0  0  0  0  0  0  0  0
  1  2  1  0
  2  3  1  0
  2  4  1  0
  2  5  1  0
  6  2  1  1
  4  7  1  0
  4  8  1  0
  6  9  1  0
  6 10  1  0
  7 11  1  0
  7 12  1  0
  8 13  1  0
  8 14  1  0
 15  9  1  6
 16 10  1  6
 15 16  1  0
 11 17  1  0
 12 18  1  0
 13 19  1  0
 14 20  1  0
 15 21  1  0
 16 22  1  0
 17 23  1  0
 18 23  1  0
 19 24  1  0
 20 24  1  0
 21 25  1  0
 22 26  1  0
 25 26  1  0
M  CHG  1   1  -1
M  END
