ucsf392-ucsf115
     RDKit          3D

 19 21  0  0  0  0  0  0  0  0999 V2000
   -5.1710   15.7300   -1.0650 C   0  0  0  0  0  0  0  0  0  0  0  0
   -4.0250   14.7580   -0.6530 C   0  0  1  0  0  0  0  0  0  0  0  0
   -2.8530   15.0790   -1.6210 C   0  0  2  0  0  0  0  0  0  0  0  0
   -3.5940   14.9520    0.8460 C   0  0  2  0  0  0  0  0  0  0  0  0
   -4.7160   13.4620   -0.6790 N   0  0  0  0  0  0  0  0  0  0  0  0
   -4.4060   15.7210    1.7540 N   0  0  0  0  0  0  0  0  0  0  0  0
   -2.7710   14.7070   -3.0270 N   0  0  0  0  0  0  0  0  0  0  0  0
   -2.2700   15.3530    1.0900 N   0  0  0  0  0  0  0  0  0  0  0  0
   -1.5110   14.7570   -1.0910 N   0  0  0  0  0  0  0  0  0  0  0  0
   -3.8570   13.6940    1.4040 N   0  0  0  0  0  0  0  0  0  0  0  0
   -5.0750   13.3400    0.7250 C   0  0  0  0  0  0  0  0  0  0  0  0
   -2.3750   13.3330   -3.3520 C   0  0  0  0  0  0  0  0  0  0  0  0
   -1.3500   14.5500    0.3390 C   0  0  1  0  0  0  0  0  0  0  0  0
    0.0530   14.9630    0.7500 C   0  0  0  0  0  0  0  0  0  0  0  0
   -0.8860   13.0280   -3.5720 C   0  0  2  0  0  0  0  0  0  0  0  0
   -0.7870   11.8010   -4.3250 O   0  0  0  0  0  0  0  0  0  0  0  0
   -0.0330   12.8640   -2.3150 C   0  0  0  0  0  0  0  0  0  0  0  0
    0.6300   11.5260   -2.5190 C   0  0  0  0  0  0  0  0  0  0  0  0
   -0.3360   10.8040   -3.4150 C   0  0  0  0  0  0  0  0  0  0  0  0
  2  1  1  6
  2  3  1  0
  2  4  1  0
  2  5  1  0
  4  6  1  1
  3  7  1  6
  4  8  1  0
  3  9  1  0
  4 10  1  0
  5 11  1  0
 10 11  1  0
  7 12  1  0
  8 13  1  0
  9 13  1  0
 13 14  1  1
 15 12  1  1
 15 16  1  0
 15 17  1  0
 17 18  1  0
 16 19  1  0
 18 19  1  0
M  END
