ucsf493-ucsf109
     RDKit          3D

 29 33  0  0  0  0  0  0  0  0999 V2000
   -4.9200   15.3610   -6.0970 C   0  0  0  0  0  0  0  0  0  0  0  0
   -4.0570   15.3340   -4.9320 N   0  0  0  0  0  0  0  0  0  0  0  0
   -4.4300   14.0390   -4.2760 C   0  0  0  0  0  0  0  0  0  0  0  0
   -2.6320   15.5730   -5.3340 C   0  0  2  0  0  0  0  0  0  0  0  0
   -1.5580   14.5380   -4.9600 C   0  0  0  0  0  0  0  0  0  0  0  0
   -2.0810   17.0300   -5.2320 C   0  0  0  0  0  0  0  0  0  0  0  0
   -4.5580   13.8490   -2.7250 C   0  0  2  0  0  0  0  0  0  0  0  0
   -0.4860   15.0310   -4.0020 C   0  0  2  0  0  0  0  0  0  0  0  0
   -0.5670   17.2620   -5.2860 C   0  0  0  0  0  0  0  0  0  0  0  0
   -5.5090   14.7520   -1.8670 C   0  0  1  0  0  0  0  0  0  0  0  0
   -3.1860   13.9730   -2.0740 C   0  0  0  0  0  0  0  0  0  0  0  0
    0.2780   16.2420   -4.5360 C   0  0  2  0  0  0  0  0  0  0  0  0
    0.6520   14.0100   -3.7340 C   0  0  1  0  0  0  0  0  0  0  0  0
   -6.6730   14.0370   -1.3010 N   0  0  0  0  0  0  0  0  0  0  0  0
   -4.6220   15.3500   -0.7470 C   0  0  2  0  0  0  0  0  0  0  0  0
   -3.2370   15.2680   -1.3310 C   0  0  0  0  0  0  0  0  0  0  0  0
    0.3260   12.4980   -3.8580 C   0  0  0  0  0  0  0  0  0  0  0  0
    1.2970   15.6490   -5.3790 N   0  0  0  0  0  0  0  0  0  0  0  0
    1.7950   14.4820   -4.6100 C   0  0  0  0  0  0  0  0  0  0  0  0
   -4.7430   14.6030    0.5850 C   0  0  1  0  0  0  0  0  0  0  0  0
   -7.1000   14.6470   -0.0820 C   0  0  2  0  0  0  0  0  0  0  0  0
   -0.0660   11.7230   -2.5510 C   0  0  1  0  0  0  0  0  0  0  0  0
   -4.0660   15.3250    1.6580 N   0  0  0  0  0  0  0  0  0  0  0  0
   -6.1210   14.3720    0.9210 N   0  0  0  0  0  0  0  0  0  0  0  0
   -8.2510   14.0260    0.5350 N   0  0  0  0  0  0  0  0  0  0  0  0
    0.4710   10.4010   -2.5610 O   0  0  0  0  0  0  0  0  0  0  0  0
    0.3990   12.2930   -1.4610 O   0  0  0  0  0  0  0  0  0  0  0  0
   -6.6910   14.7610    2.1680 N   0  0  0  0  0  0  0  0  0  0  0  0
   -8.0210   14.1670    1.9900 C   0  0  0  0  0  0  0  0  0  0  0  0
  1  2  1  0
  2  3  1  0
  4  2  1  1
  4  5  1  0
  4  6  1  0
  7  3  1  6
  8  5  1  6
  6  9  1  0
  7 10  1  0
  7 11  1  0
  8 12  1  0
 12  9  1  6
  8 13  1  0
 10 14  1  1
 10 15  1  0
 11 16  1  0
 15 16  1  6
 13 17  1  6
 12 18  1  0
 13 19  1  0
 18 19  1  0
 15 20  1  0
 21 14  1  6
 17 22  1  0
 20 23  1  1
 20 24  1  0
 21 24  1  0
 21 25  1  0
 22 26  1  6
 22 27  1  0
 24 28  1  0
 25 29  1  0
 28 29  1  0
M  CHG  1  27  -1
M  END
