ucsf004-ucsf241
     RDKit          3D

 16 18  0  0  0  0  0  0  0  0999 V2000
   -2.1510   12.3370   -4.6140 F   0  0  0  0  0  0  0  0  0  0  0  0
   -1.7510   13.6310   -4.7620 C   0  0  2  0  0  0  0  0  0  0  0  0
   -0.2850   13.6450   -5.1610 C   0  0  0  0  0  0  0  0  0  0  0  0
   -1.9660   14.3870   -3.4350 C   0  0  0  0  0  0  0  0  0  0  0  0
   -0.7470   14.5360   -2.6100 N   0  0  0  0  0  0  0  0  0  0  0  0
    0.3710   14.9730   -4.7940 C   0  0  0  0  0  0  0  0  0  0  0  0
    0.3290   15.2760   -3.2890 C   0  0  0  0  0  0  0  0  0  0  0  0
   -0.8880   14.9000   -1.1880 C   0  0  2  0  0  0  0  0  0  0  0  0
   -0.2040   13.9180   -0.3530 N   0  0  0  0  0  0  0  0  0  0  0  0
   -2.2540   15.4300   -0.6930 C   0  0  2  0  0  0  0  0  0  0  0  0
   -0.2550   14.1650    1.0680 C   0  0  0  0  0  0  0  0  0  0  0  0
   -2.2400   15.4410    0.8250 C   0  0  2  0  0  0  0  0  0  0  0  0
   -3.5940   14.8010   -1.0200 C   0  0  0  0  0  0  0  0  0  0  0  0
   -1.6130   14.3370    1.4840 N   0  0  0  0  0  0  0  0  0  0  0  0
   -3.6280   15.5270    1.2610 N   0  0  0  0  0  0  0  0  0  0  0  0
   -4.4930   15.3050    0.1010 C   0  0  0  0  0  0  0  0  0  0  0  0
  2  1  1  1
  2  3  1  0
  2  4  1  0
  4  5  1  0
  3  6  1  0
  5  7  1  0
  6  7  1  0
  8  5  1  6
  8  9  1  0
  8 10  1  0
  9 11  1  0
 10 12  1  0
 10 13  1  1
 11 14  1  0
 12 14  1  1
 12 15  1  0
 13 16  1  0
 15 16  1  0
M  END
