ucsf213-ucsf005
     RDKit          3D

 25 28  0  0  0  0  0  0  0  0999 V2000
    0.6160   10.4570   -2.3880 O   0  0  0  0  0  0  0  0  0  0  0  0
    0.2340   11.7140   -2.4560 C   0  0  1  0  0  0  0  0  0  0  0  0
    0.6960   12.3320   -1.2790 O   0  0  0  0  0  0  0  0  0  0  0  0
    0.7410   12.5490   -3.6940 C   0  0  0  0  0  0  0  0  0  0  0  0
   -0.3090   13.6360   -3.9960 C   0  0  1  0  0  0  0  0  0  0  0  0
   -0.4570   14.9680   -3.3030 C   0  0  1  0  0  0  0  0  0  0  0  0
   -0.9530   13.9980   -5.6380 S   0  0  0  0  0  0  0  0  0  0  0  0
   -0.3270   15.0210   -1.8480 C   0  0  0  0  0  0  0  0  0  0  0  0
   -0.4300   16.2420   -4.1290 C   0  0  2  0  0  0  0  0  0  0  0  0
   -0.9440   15.8320   -5.4200 C   0  0  2  0  0  0  0  0  0  0  0  0
    0.6550   17.2130   -4.5290 C   0  0  0  0  0  0  0  0  0  0  0  0
   -2.1660   16.7060   -5.6130 C   0  0  0  0  0  0  0  0  0  0  0  0
   -1.6910   14.7460   -1.4250 N   0  0  0  0  0  0  0  0  0  0  0  0
   -0.0040   18.1210   -5.6130 C   0  0  0  0  0  0  0  0  0  0  0  0
   -1.5680   18.1230   -5.6320 C   0  0  0  0  0  0  0  0  0  0  0  0
   -2.8070   14.9540   -2.3390 C   0  0  0  0  0  0  0  0  0  0  0  0
   -1.9630   15.7100   -0.4470 C   0  0  1  0  0  0  0  0  0  0  0  0
   -3.9590   14.8460   -1.4420 N   0  0  0  0  0  0  0  0  0  0  0  0
   -3.4230   15.4290   -0.1820 C   0  0  1  0  0  0  0  0  0  0  0  0
   -0.9720   15.4700    0.5510 N   0  0  0  0  0  0  0  0  0  0  0  0
   -3.5970   14.6720    1.1260 C   0  0  2  0  0  0  0  0  0  0  0  0
   -1.2070   14.2390    1.1590 C   0  0  1  0  0  0  0  0  0  0  0  0
   -4.5090   15.4420    1.9540 N   0  0  0  0  0  0  0  0  0  0  0  0
   -0.1060   14.1370    2.0700 N   0  0  0  0  0  0  0  0  0  0  0  0
   -2.3990   14.4970    1.9340 N   0  0  0  0  0  0  0  0  0  0  0  0
  2  1  1  6
  2  3  1  0
  2  4  1  0
  5  4  1  6
  5  6  1  0
  5  7  1  0
  6  8  1  1
  6  9  1  0
  7 10  1  0
  9 10  1  0
  9 11  1  6
 10 12  1  1
  8 13  1  0
 11 14  1  0
 12 15  1  0
 14 15  1  0
 13 16  1  0
 13 17  1  0
 16 18  1  0
 17 19  1  0
 19 18  1  6
 17 20  1  1
 19 21  1  0
 20 22  1  0
 21 23  1  1
 22 24  1  1
 21 25  1  0
 22 25  1  0
M  CHG  1   1  -1
M  END
