ucsf345-ucsf123
     RDKit          3D

 23 24  0  0  0  0  0  0  0  0999 V2000
   -6.8050   14.6470    1.5670 N   0  0  0  0  0  0  0  0  0  0  0  0
   -6.9940   14.8430    0.1360 C   0  0  2  0  0  0  0  0  0  0  0  0
   -7.5750   13.6570   -0.3290 O   0  0  0  0  0  0  0  0  0  0  0  0
   -5.6640   15.1220   -0.6410 C   0  0  2  0  0  0  0  0  0  0  0  0
   -5.7230   14.4630   -1.9890 N   0  0  0  0  0  0  0  0  0  0  0  0
   -4.4190   14.7520    0.2280 C   0  0  0  0  0  0  0  0  0  0  0  0
   -4.4630   14.6410   -2.7260 C   0  0  0  0  0  0  0  0  0  0  0  0
   -3.1700   14.7260   -0.5530 N   0  0  0  0  0  0  0  0  0  0  0  0
   -3.4210   15.3740   -1.8580 C   0  0  1  0  0  0  0  0  0  0  0  0
   -2.0950   15.6430   -2.5710 C   0  0  0  0  0  0  0  0  0  0  0  0
   -1.4750   14.4290   -3.3220 C   0  0  2  0  0  0  0  0  0  0  0  0
   -0.0770   14.1690   -2.6890 C   0  0  1  0  0  0  0  0  0  0  0  0
   -1.4160   14.7740   -4.8290 C   0  0  0  0  0  0  0  0  0  0  0  0
    0.2610   12.6710   -2.3490 C   0  0  2  0  0  0  0  0  0  0  0  0
   -0.5080   15.9800   -5.1550 C   0  0  1  0  0  0  0  0  0  0  0  0
    0.9950   14.9960   -3.4430 C   0  0  0  0  0  0  0  0  0  0  0  0
   -1.3780   17.4150   -5.7920 S   0  0  0  0  0  0  0  0  0  0  0  0
    1.6090   12.5960   -1.9720 O   0  0  0  0  0  0  0  0  0  0  0  0
    0.2350   11.8900   -3.3980 O   0  0  0  0  0  0  0  0  0  0  0  0
    0.4350   16.2990   -4.0160 C   0  0  0  0  0  0  0  0  0  0  0  0
   -1.7920   18.6390   -4.8160 N   0  0  0  0  0  0  0  0  0  0  0  0
   -0.3990   18.0030   -6.9030 O   0  0  0  0  0  0  0  0  0  0  0  0
   -2.6500   16.9140   -6.6160 O   0  0  0  0  0  0  0  0  0  0  0  0
  2  1  1  1
  2  3  1  0
  2  4  1  0
  4  5  1  0
  4  6  1  1
  5  7  1  0
  6  8  1  0
  7  9  1  0
  8  9  1  0
  9 10  1  6
 11 10  1  1
 11 12  1  0
 11 13  1  0
 12 14  1  0
 13 15  1  0
 12 16  1  6
 15 17  1  1
 14 18  1  6
 14 19  1  0
 15 20  1  0
 16 20  1  0
 17 21  1  0
 17 22  1  0
 17 23  1  0
M  CHG  1  19  -1
M  END
