ucsf340-ucsf004
     RDKit          3D

 30 34  0  0  0  0  0  0  0  0999 V2000
    0.7260   18.6360   -6.5870 C   0  0  0  0  0  0  0  0  0  0  0  0
    0.0380   18.2120   -5.3920 N   0  0  0  0  0  0  0  0  0  0  0  0
    0.8770   17.3420   -4.5390 C   0  0  0  0  0  0  0  0  0  0  0  0
   -1.0840   17.3300   -5.6070 C   0  0  1  0  0  0  0  0  0  0  0  0
   -0.1740   16.6540   -3.6580 C   0  0  1  0  0  0  0  0  0  0  0  0
   -1.4970   17.1370   -4.2050 C   0  0  2  0  0  0  0  0  0  0  0  0
   -2.2290   17.8350   -6.4300 C   0  0  0  0  0  0  0  0  0  0  0  0
   -2.6360   16.1010   -4.1100 C   0  0  0  0  0  0  0  0  0  0  0  0
   -3.3170   16.7470   -6.5570 C   0  0  0  0  0  0  0  0  0  0  0  0
   -0.3460   15.1680   -3.7650 C   0  0  2  0  0  0  0  0  0  0  0  0
   -3.3000   15.7100   -5.4360 C   0  0  0  0  0  0  0  0  0  0  0  0
   -0.9790   14.4640   -2.6210 N   0  0  0  0  0  0  0  0  0  0  0  0
    0.5760   14.3400   -4.6240 C   0  0  0  0  0  0  0  0  0  0  0  0
   -2.1290   13.6770   -3.1510 C   0  0  0  0  0  0  0  0  0  0  0  0
   -0.1640   13.0520   -4.3580 C   0  0  1  0  0  0  0  0  0  0  0  0
   -0.9820   14.9130   -1.2040 C   0  0  2  0  0  0  0  0  0  0  0  0
   -1.6790   13.1150   -4.5130 C   0  0  1  0  0  0  0  0  0  0  0  0
   -0.3880   13.9270   -0.3050 N   0  0  0  0  0  0  0  0  0  0  0  0
   -2.2990   15.4370   -0.5690 C   0  0  2  0  0  0  0  0  0  0  0  0
    0.5330   11.7600   -4.0260 C   0  0  0  0  0  0  0  0  0  0  0  0
   -2.1900   11.8590   -4.6740 F   0  0  0  0  0  0  0  0  0  0  0  0
   -0.1930   14.4540    1.0350 C   0  0  0  0  0  0  0  0  0  0  0  0
   -2.5320   14.7180    0.7310 C   0  0  1  0  0  0  0  0  0  0  0  0
   -3.7080   15.2330   -1.1220 C   0  0  0  0  0  0  0  0  0  0  0  0
    0.3330   11.3740   -2.5440 C   0  0  2  0  0  0  0  0  0  0  0  0
   -1.4670   14.7020    1.6580 N   0  0  0  0  0  0  0  0  0  0  0  0
   -3.6820   15.4160    1.2880 N   0  0  0  0  0  0  0  0  0  0  0  0
   -4.5820   15.4530    0.1160 C   0  0  0  0  0  0  0  0  0  0  0  0
    1.3030   12.1240   -1.8330 O   0  0  0  0  0  0  0  0  0  0  0  0
    0.5820   10.1170   -2.3160 O   0  0  0  0  0  0  0  0  0  0  0  0
  1  2  1  0
  2  3  1  0
  2  4  1  0
  5  3  1  6
  4  6  1  0
  5  6  1  0
  4  7  1  6
  6  8  1  6
  7  9  1  0
  5 10  1  0
  8 11  1  0
  9 11  1  0
 10 12  1  0
 10 13  1  1
 12 14  1  0
 13 15  1  0
 16 12  1  6
 14 17  1  0
 15 17  1  0
 16 18  1  0
 16 19  1  0
 15 20  1  6
 17 21  1  1
 18 22  1  0
 19 23  1  0
 19 24  1  6
 20 25  1  0
 22 26  1  0
 23 26  1  1
 23 27  1  0
 24 28  1  0
 27 28  1  0
 25 29  1  1
 25 30  1  0
M  CHG  1  30  -1
M  END
