ucsf519-ucsf262
     RDKit          3D

 27 30  0  0  0  0  0  0  0  0999 V2000
   -0.9620   14.0140   -5.3320 C   0  0  0  0  0  0  0  0  0  0  0  0
   -1.2630   13.6620   -3.8690 C   0  0  2  0  0  0  0  0  0  0  0  0
   -1.7610   11.8940   -3.9170 S   0  0  0  0  0  0  0  0  0  0  0  0
   -2.1620   14.6820   -3.0480 C   0  0  1  0  0  0  0  0  0  0  0  0
   -0.0350   11.2380   -3.7580 C   0  0  0  0  0  0  0  0  0  0  0  0
   -2.8760   15.5100   -3.9480 O   0  0  0  0  0  0  0  0  0  0  0  0
   -2.9750   14.2800   -1.8550 N   0  0  0  0  0  0  0  0  0  0  0  0
    0.7650   11.7740   -2.5330 C   0  0  1  0  0  0  0  0  0  0  0  0
   -4.1460   15.1640   -1.7150 C   0  0  0  0  0  0  0  0  0  0  0  0
   -2.2440   14.4550   -0.6020 C   0  0  1  0  0  0  0  0  0  0  0  0
   -2.0670   15.7030   -5.0930 C   0  0  2  0  0  0  0  0  0  0  0  0
    0.4420   13.1920   -2.4660 O   0  0  0  0  0  0  0  0  0  0  0  0
    0.2300   11.0890   -1.4970 O   0  0  0  0  0  0  0  0  0  0  0  0
   -1.0550   15.1520   -0.8860 O   0  0  0  0  0  0  0  0  0  0  0  0
   -4.3300   15.3470   -0.2230 C   0  0  0  0  0  0  0  0  0  0  0  0
   -2.9720   15.3430    0.2910 N   0  0  0  0  0  0  0  0  0  0  0  0
   -0.6570   16.0510   -4.4640 C   0  0  1  0  0  0  0  0  0  0  0  0
   -2.7700   16.6770   -6.0620 C   0  0  0  0  0  0  0  0  0  0  0  0
    1.2850   14.0960   -3.2520 C   0  0  1  0  0  0  0  0  0  0  0  0
    0.4900   14.8820   -4.4620 C   0  0  2  0  0  0  0  0  0  0  0  0
   -0.1170   17.3470   -5.1570 C   0  0  1  0  0  0  0  0  0  0  0  0
   -2.1410   18.0530   -6.3130 C   0  0  0  0  0  0  0  0  0  0  0  0
    1.9640   14.9870   -2.4900 O   0  0  0  0  0  0  0  0  0  0  0  0
   -1.1470   18.4270   -5.2700 C   0  0  0  0  0  0  0  0  0  0  0  0
    0.9930   17.9170   -4.3590 C   0  0  0  0  0  0  0  0  0  0  0  0
    1.6590   15.6940   -4.8450 C   0  0  0  0  0  0  0  0  0  0  0  0
    1.7380   16.7940   -3.9180 N   0  0  0  0  0  0  0  0  0  0  0  0
  2  1  1  6
  2  3  1  0
  2  4  1  0
  3  5  1  0
  4  6  1  0
  4  7  1  6
  5  8  1  0
  7  9  1  0
  7 10  1  0
  6 11  1  0
  8 12  1  0
  8 13  1  1
 10 14  1  6
  9 15  1  0
 10 16  1  0
 15 16  1  0
 17 11  1  6
 11 18  1  6
 12 19  1  0
 17 20  1  0
 19 20  1  0
 17 21  1  0
 18 22  1  0
 19 23  1  1
 21 24  1  1
 22 24  1  0
 21 25  1  0
 20 26  1  6
 25 27  1  0
 26 27  1  0
M  CHG  2  13  -1  23  -1
M  END
