ucsf584-ucsf110
     RDKit          3D

 20 23  0  0  0  0  0  0  0  0999 V2000
    0.0410   14.4470   -2.8760 C   0  0  0  0  0  0  0  0  0  0  0  0
   -1.2600   13.9640   -2.4280 N   0  0  0  0  0  0  0  0  0  0  0  0
   -2.2710   14.8770   -2.9030 C   0  0  0  0  0  0  0  0  0  0  0  0
   -1.3970   13.9320   -0.9830 C   0  0  2  0  0  0  0  0  0  0  0  0
   -2.8520   14.4630   -0.6190 C   0  0  1  0  0  0  0  0  0  0  0  0
   -3.0900   15.3770   -1.7940 N   0  0  0  0  0  0  0  0  0  0  0  0
   -0.2620   14.6600   -0.4480 N   0  0  0  0  0  0  0  0  0  0  0  0
   -4.1070   13.5180   -0.4980 C   0  0  0  0  0  0  0  0  0  0  0  0
   -4.3770   15.2550   -2.4240 C   0  0  0  0  0  0  0  0  0  0  0  0
   -2.6730   14.8320    0.9100 C   0  0  2  0  0  0  0  0  0  0  0  0
   -0.2820   14.8270    0.9690 C   0  0  0  0  0  0  0  0  0  0  0  0
   -3.7440   15.6170    1.4940 N   0  0  0  0  0  0  0  0  0  0  0  0
   -5.5030   15.4460   -1.4820 C   0  0  0  0  0  0  0  0  0  0  0  0
   -5.5390   14.1950   -0.6180 C   0  0  2  0  0  0  0  0  0  0  0  0
   -1.4840   15.4890    1.3550 N   0  0  0  0  0  0  0  0  0  0  0  0
   -6.3750   14.5670    0.6260 C   0  0  0  0  0  0  0  0  0  0  0  0
   -6.5840   13.5770    1.6550 N   0  0  0  0  0  0  0  0  0  0  0  0
   -7.7530   14.8200    0.1740 N   0  0  0  0  0  0  0  0  0  0  0  0
   -8.6030   14.7290    1.3650 C   0  0  0  0  0  0  0  0  0  0  0  0
   -7.7030   14.1280    2.4210 C   0  0  0  0  0  0  0  0  0  0  0  0
  1  2  1  0
  2  3  1  0
  2  4  1  0
  4  5  1  0
  3  6  1  0
  5  6  1  0
  4  7  1  1
  5  8  1  1
  6  9  1  0
  5 10  1  0
  7 11  1  0
 10 12  1  6
  9 13  1  0
  8 14  1  0
 13 14  1  0
 10 15  1  0
 11 15  1  0
 14 16  1  1
 16 17  1  0
 16 18  1  0
 18 19  1  0
 17 20  1  0
 19 20  1  0
M  END
