ucsf396-ucsf012
     RDKit          3D

 24 27  0  0  0  0  0  0  0  0999 V2000
   -4.5220   15.8110    0.5870 C   0  0  0  0  0  0  0  0  0  0  0  0
   -5.3080   14.6280    0.0200 C   0  0  1  0  0  0  0  0  0  0  0  0
   -5.8660   13.7790    1.1590 C   0  0  0  0  0  0  0  0  0  0  0  0
   -6.4430   15.1400   -0.9180 C   0  0  0  0  0  0  0  0  0  0  0  0
   -4.3560   13.9290   -0.9670 C   0  0  0  0  0  0  0  0  0  0  0  0
   -7.7330   14.4860   -0.7470 N   0  0  0  0  0  0  0  0  0  0  0  0
   -7.2170   14.2730    1.6870 C   0  0  0  0  0  0  0  0  0  0  0  0
   -3.4580   14.9680   -1.6320 C   0  0  2  0  0  0  0  0  0  0  0  0
   -8.2490   14.6110    0.6060 C   0  0  0  0  0  0  0  0  0  0  0  0
   -2.6740   14.5310   -2.8980 C   0  0  1  0  0  0  0  0  0  0  0  0
   -2.3200   15.3620   -0.6820 C   0  0  2  0  0  0  0  0  0  0  0  0
   -3.1650   15.2810   -4.1330 C   0  0  0  0  0  0  0  0  0  0  0  0
   -1.1960   14.5220   -1.1870 C   0  0  1  0  0  0  0  0  0  0  0  0
   -1.2980   14.9240   -2.5670 N   0  0  0  0  0  0  0  0  0  0  0  0
   -2.4000   15.2290    0.8310 C   0  0  0  0  0  0  0  0  0  0  0  0
   -0.2290   14.5660   -3.5050 C   0  0  0  0  0  0  0  0  0  0  0  0
   -1.3770   14.3530    1.4010 N   0  0  0  0  0  0  0  0  0  0  0  0
    0.0090   14.8870   -0.5160 N   0  0  0  0  0  0  0  0  0  0  0  0
   -0.0390   14.5040    0.8800 C   0  0  0  0  0  0  0  0  0  0  0  0
    0.1040   13.0850   -3.7510 C   0  0  1  0  0  0  0  0  0  0  0  0
    0.5870   12.3830   -2.4990 C   0  0  0  0  0  0  0  0  0  0  0  0
   -1.0300   12.3170   -4.1830 O   0  0  0  0  0  0  0  0  0  0  0  0
   -0.8570   10.9810   -3.7070 C   0  0  0  0  0  0  0  0  0  0  0  0
    0.4360   10.9530   -2.9120 C   0  0  0  0  0  0  0  0  0  0  0  0
  2  1  1  1
  2  3  1  0
  2  4  1  0
  2  5  1  0
  4  6  1  0
  3  7  1  0
  8  5  1  1
  6  9  1  0
  7  9  1  0
  8 10  1  0
  8 11  1  0
 10 12  1  6
 11 13  1  0
 10 14  1  0
 13 14  1  0
 11 15  1  1
 14 16  1  0
 15 17  1  0
 13 18  1  1
 17 19  1  0
 18 19  1  0
 20 16  1  1
 20 21  1  0
 20 22  1  0
 22 23  1  0
 21 24  1  0
 23 24  1  0
M  END
