ucsf387-ucsf337
     RDKit          3D

 22 23  0  0  0  0  0  0  0  0999 V2000
    0.8880   18.0980   -4.2260 Cl  0  0  0  0  0  0  0  0  0  0  0  0
    0.2710   16.7490   -5.2120 C   0  0  2  0  0  0  0  0  0  0  0  0
   -1.2720   16.8020   -5.1770 C   0  0  0  0  0  0  0  0  0  0  0  0
    1.0160   15.4580   -4.8140 C   0  0  0  0  0  0  0  0  0  0  0  0
    0.2070   14.4510   -3.9980 C   0  0  2  0  0  0  0  0  0  0  0  0
   -2.0030   15.5410   -4.6990 C   0  0  1  0  0  0  0  0  0  0  0  0
   -3.3670   15.2970   -5.4010 C   0  0  0  0  0  0  0  0  0  0  0  0
    0.9380   13.1220   -3.6600 C   0  0  0  0  0  0  0  0  0  0  0  0
   -1.1280   14.2780   -4.7200 C   0  0  0  0  0  0  0  0  0  0  0  0
    0.1550   12.2960   -2.5960 C   0  0  1  0  0  0  0  0  0  0  0  0
   -4.2940   14.2580   -4.7050 C   0  0  0  0  0  0  0  0  0  0  0  0
    0.5340   11.0440   -2.5950 O   0  0  0  0  0  0  0  0  0  0  0  0
    0.5390   12.7060   -1.3010 O   0  0  0  0  0  0  0  0  0  0  0  0
   -5.3500   14.8170   -3.8320 N   0  0  0  0  0  0  0  0  0  0  0  0
   -5.1340   14.4760   -2.4390 C   0  0  1  0  0  0  0  0  0  0  0  0
   -3.8170   15.1240   -2.0480 C   0  0  0  0  0  0  0  0  0  0  0  0
   -6.1880   14.9950   -1.5860 N   0  0  0  0  0  0  0  0  0  0  0  0
   -6.0220   14.3000   -0.2890 C   0  0  2  0  0  0  0  0  0  0  0  0
   -3.5950   15.2080   -0.5520 C   0  0  0  0  0  0  0  0  0  0  0  0
   -7.1880   14.6320    0.6540 C   0  0  0  0  0  0  0  0  0  0  0  0
   -4.6000   14.4980    0.3200 C   0  0  1  0  0  0  0  0  0  0  0  0
   -4.4770   15.6580    1.8670 Br  0  0  0  0  0  0  0  0  0  0  0  0
  2  1  1  1
  2  3  1  0
  2  4  1  0
  4  5  1  0
  3  6  1  0
  6  7  1  6
  5  8  1  6
  5  9  1  0
  6  9  1  0
  8 10  1  0
  7 11  1  0
 10 12  1  1
 10 13  1  0
 11 14  1  0
 15 14  1  6
 15 16  1  0
 15 17  1  0
 17 18  1  0
 16 19  1  0
 18 20  1  1
 18 21  1  0
 19 21  1  0
 21 22  1  1
M  CHG  1  12  -1
M  END
