ucsf123-ucsf520
     RDKit          3D

 24 26  0  0  0  0  0  0  0  0999 V2000
   -1.9410   19.0970   -5.2950 N   0  0  0  0  0  0  0  0  0  0  0  0
   -1.3470   17.7320   -5.9800 S   0  0  0  0  0  0  0  0  0  0  0  0
   -0.2050   18.1160   -7.0400 O   0  0  0  0  0  0  0  0  0  0  0  0
   -2.5490   17.0550   -6.7820 O   0  0  0  0  0  0  0  0  0  0  0  0
   -0.6820   16.4660   -4.9200 C   0  0  2  0  0  0  0  0  0  0  0  0
    0.8470   16.3070   -4.7930 C   0  0  0  0  0  0  0  0  0  0  0  0
   -1.3410   15.1290   -5.0620 C   0  0  0  0  0  0  0  0  0  0  0  0
    1.3760   15.0610   -3.9870 C   0  0  0  0  0  0  0  0  0  0  0  0
   -0.9390   14.5370   -3.7820 C   0  0  1  0  0  0  0  0  0  0  0  0
   -1.9800   14.1000   -2.8490 C   0  0  0  0  0  0  0  0  0  0  0  0
    0.4080   13.8460   -3.8080 C   0  0  2  0  0  0  0  0  0  0  0  0
    0.6480   12.9470   -2.5140 C   0  0  2  0  0  0  0  0  0  0  0  0
   -2.4310   15.0910   -1.9020 N   0  0  0  0  0  0  0  0  0  0  0  0
    2.0130   12.9290   -2.1680 O   0  0  0  0  0  0  0  0  0  0  0  0
    0.4510   11.6610   -2.7500 O   0  0  0  0  0  0  0  0  0  0  0  0
   -3.8780   14.8950   -1.8090 C   0  0  0  0  0  0  0  0  0  0  0  0
   -1.8060   14.7670   -0.6320 C   0  0  2  0  0  0  0  0  0  0  0  0
   -4.4680   15.4530   -0.6060 N   0  0  0  0  0  0  0  0  0  0  0  0
   -2.3380   15.4450    0.5610 C   0  0  1  0  0  0  0  0  0  0  0  0
   -0.4000   15.0760   -0.5110 N   0  0  0  0  0  0  0  0  0  0  0  0
   -3.8000   15.0290    0.5980 C   0  0  1  0  0  0  0  0  0  0  0  0
   -1.4400   14.8730    1.5750 N   0  0  0  0  0  0  0  0  0  0  0  0
   -0.1620   14.7250    0.8790 C   0  0  0  0  0  0  0  0  0  0  0  0
   -4.5230   15.6400    1.6880 N   0  0  0  0  0  0  0  0  0  0  0  0
  1  2  1  0
  2  3  1  0
  2  4  1  0
  5  2  1  6
  5  6  1  0
  5  7  1  0
  6  8  1  0
  7  9  1  0
  9 10  1  6
 11  8  1  1
  9 11  1  0
 11 12  1  0
 10 13  1  0
 12 14  1  6
 12 15  1  0
 13 16  1  0
 13 17  1  0
 16 18  1  0
 17 19  1  0
 17 20  1  6
 18 21  1  0
 19 21  1  0
 19 22  1  1
 20 23  1  0
 22 23  1  0
 21 24  1  1
M  CHG  1  15  -1
M  END
