ucsf411-ucsf303
     RDKit          3D

 30 33  0  0  0  0  0  0  0  0999 V2000
    0.6780   10.7840   -2.4310 O   0  0  0  0  0  0  0  0  0  0  0  0
    0.4200   12.0870   -2.6240 C   0  0  1  0  0  0  0  0  0  0  0  0
    0.4870   12.5580   -1.2840 O   0  0  0  0  0  0  0  0  0  0  0  0
    1.5460   12.8250   -3.4610 C   0  0  0  0  0  0  0  0  0  0  0  0
    1.1170   13.7610   -4.5120 O   0  0  0  0  0  0  0  0  0  0  0  0
   -0.1430   14.4450   -4.3320 C   0  0  1  0  0  0  0  0  0  0  0  0
   -0.1250   15.8200   -5.0470 C   0  0  1  0  0  0  0  0  0  0  0  0
   -1.2610   13.6820   -5.0040 C   0  0  0  0  0  0  0  0  0  0  0  0
   -1.5320   16.4990   -5.2390 C   0  0  1  0  0  0  0  0  0  0  0  0
   -2.5920   14.2630   -4.5550 C   0  0  1  0  0  0  0  0  0  0  0  0
    0.8530   16.8020   -4.4310 C   0  0  0  0  0  0  0  0  0  0  0  0
   -2.7320   13.8750   -3.2030 O   0  0  0  0  0  0  0  0  0  0  0  0
   -2.6950   15.8020   -4.5460 C   0  0  0  0  0  0  0  0  0  0  0  0
   -1.4780   18.0270   -5.1410 C   0  0  0  0  0  0  0  0  0  0  0  0
    1.0220   18.0160   -5.3420 C   0  0  0  0  0  0  0  0  0  0  0  0
   -4.0350   14.2350   -2.3580 S   0  0  1  0  0  0  0  0  0  0  0  0
   -0.2930   18.5090   -5.9500 C   0  0  0  0  0  0  0  0  0  0  0  0
   -4.5700   15.7010   -2.6790 O   0  0  0  0  0  0  0  0  0  0  0  0
   -5.2390   13.1410   -2.4710 N   0  0  0  0  0  0  0  0  0  0  0  0
   -3.4950   14.3710   -0.6840 C   0  0  0  0  0  0  0  0  0  0  0  0
   -5.0360   11.9410   -1.7370 C   0  0  1  0  0  0  0  0  0  0  0  0
   -1.9640   14.4700   -0.4820 C   0  0  0  0  0  0  0  0  0  0  0  0
   -4.3660   15.4500   -0.0350 C   0  0  0  0  0  0  0  0  0  0  0  0
   -6.0090   10.9520   -2.1390 N   0  0  0  0  0  0  0  0  0  0  0  0
   -3.4110   11.3500   -2.2540 S   0  0  0  0  0  0  0  0  0  0  0  0
   -1.6230   14.7260    0.9830 C   0  0  0  0  0  0  0  0  0  0  0  0
   -3.9080   15.7550    1.3540 C   0  0  0  0  0  0  0  0  0  0  0  0
   -3.9960    9.6600   -2.3530 C   0  0  0  0  0  0  0  0  0  0  0  0
   -5.4100    9.6270   -1.9700 N   0  0  0  0  0  0  0  0  0  0  0  0
   -2.9190   14.6960    1.7710 C   0  0  0  0  0  0  0  0  0  0  0  0
  2  1  1  1
  2  3  1  0
  2  4  1  0
  4  5  1  0
  6  5  1  6
  6  7  1  0
  6  8  1  0
  7  9  1  0
  8 10  1  0
  7 11  1  1
 10 12  1  1
  9 13  1  1
 10 13  1  0
  9 14  1  0
 11 15  1  0
 16 12  1  0
 14 17  1  0
 15 17  1  0
 16 18  1  6
 16 19  1  0
 16 20  1  0
 21 19  1  6
 20 22  1  0
 20 23  1  0
 21 24  1  0
 21 25  1  0
 22 26  1  0
 23 27  1  0
 25 28  1  0
 24 29  1  0
 28 29  1  0
 26 30  1  0
 27 30  1  0
M  CHG  1   1  -1
M  END
