ucsf006-ucsf115
     RDKit          3D

 21 23  0  0  0  0  0  0  0  0999 V2000
   -1.8300   14.0160   -3.5060 C   0  0  0  0  0  0  0  0  0  0  0  0
   -1.2050   15.0140   -2.6430 N   0  0  0  0  0  0  0  0  0  0  0  0
    0.1910   15.3200   -3.1630 C   0  0  0  0  0  0  0  0  0  0  0  0
   -0.9550   12.7630   -3.6440 C   0  0  2  0  0  0  0  0  0  0  0  0
   -1.1420   14.5320   -1.2530 C   0  0  2  0  0  0  0  0  0  0  0  0
   -1.6430   11.5170   -3.8530 O   0  0  0  0  0  0  0  0  0  0  0  0
   -0.1580   12.5210   -2.3560 C   0  0  0  0  0  0  0  0  0  0  0  0
    0.5060   14.7770   -4.6030 C   0  0  0  0  0  0  0  0  0  0  0  0
   -2.5350   14.3760   -0.5560 C   0  0  1  0  0  0  0  0  0  0  0  0
   -0.0980   15.2070   -0.4960 N   0  0  0  0  0  0  0  0  0  0  0  0
    0.3850   11.1740   -2.6470 C   0  0  0  0  0  0  0  0  0  0  0  0
   -0.8030   10.5020   -3.2950 C   0  0  0  0  0  0  0  0  0  0  0  0
    0.6670   13.2200   -4.7420 C   0  0  1  0  0  0  0  0  0  0  0  0
   -2.4880   14.5200    0.9630 C   0  0  1  0  0  0  0  0  0  0  0  0
   -0.0740   14.8370    0.8670 C   0  0  0  0  0  0  0  0  0  0  0  0
   -3.7510   15.2250   -1.0100 C   0  0  0  0  0  0  0  0  0  0  0  0
    0.3440   12.8270   -6.0770 O   0  0  0  0  0  0  0  0  0  0  0  0
    1.8880   12.8270   -4.4920 O   0  0  0  0  0  0  0  0  0  0  0  0
   -1.3150   15.1490    1.4670 N   0  0  0  0  0  0  0  0  0  0  0  0
   -3.6010   15.3680    1.3910 N   0  0  0  0  0  0  0  0  0  0  0  0
   -4.5520   15.4280    0.2610 C   0  0  0  0  0  0  0  0  0  0  0  0
  1  2  1  0
  2  3  1  0
  4  1  1  1
  5  2  1  6
  4  6  1  0
  4  7  1  0
  3  8  1  0
  5  9  1  0
  5 10  1  0
  7 11  1  0
  6 12  1  0
 11 12  1  0
  8 13  1  0
  9 14  1  0
 10 15  1  0
  9 16  1  6
 13 17  1  6
 13 18  1  0
 14 19  1  6
 15 19  1  0
 14 20  1  0
 16 21  1  0
 20 21  1  0
M  CHG  1  18  -1
M  END
