ucsf151-ucsf523
     RDKit          3D

 24 26  0  0  0  0  0  0  0  0999 V2000
    0.4780   13.1010   -2.0620 O   0  0  0  0  0  0  0  0  0  0  0  0
    0.3120   14.0890   -2.9350 C   0  0  2  0  0  0  0  0  0  0  0  0
    1.4720   13.9740   -3.6960 O   0  0  0  0  0  0  0  0  0  0  0  0
    0.3320   15.4540   -2.2370 C   0  0  0  0  0  0  0  0  0  0  0  0
   -1.0220   13.9450   -3.7290 C   0  0  1  0  0  0  0  0  0  0  0  0
   -1.0060   15.8750   -2.0000 O   0  0  0  0  0  0  0  0  0  0  0  0
   -1.3000   15.1840   -4.6220 C   0  0  0  0  0  0  0  0  0  0  0  0
   -1.3240   12.6680   -4.5370 C   0  0  0  0  0  0  0  0  0  0  0  0
   -2.7470   15.2560   -5.0900 C   0  0  1  0  0  0  0  0  0  0  0  0
   -2.2460   12.8350   -5.6750 N   0  0  0  0  0  0  0  0  0  0  0  0
   -1.5430   15.1140   -0.9650 C   0  0  1  0  0  0  0  0  0  0  0  0
   -2.9440   16.1850   -6.1600 O   0  0  0  0  0  0  0  0  0  0  0  0
   -3.2760   13.8670   -5.4690 C   0  0  0  0  0  0  0  0  0  0  0  0
   -0.6010   15.2120    0.1310 N   0  0  0  0  0  0  0  0  0  0  0  0
   -2.9150   15.5320   -0.4420 C   0  0  2  0  0  0  0  0  0  0  0  0
   -0.7510   14.0160    0.8370 C   0  0  1  0  0  0  0  0  0  0  0  0
   -3.0830   14.8880    0.9700 C   0  0  2  0  0  0  0  0  0  0  0  0
   -4.0320   15.1280   -1.3770 N   0  0  0  0  0  0  0  0  0  0  0  0
    0.0420   14.1980    2.0010 N   0  0  0  0  0  0  0  0  0  0  0  0
   -2.0860   13.8760    1.3390 N   0  0  0  0  0  0  0  0  0  0  0  0
   -4.3270   14.1420    1.1350 N   0  0  0  0  0  0  0  0  0  0  0  0
   -5.3020   15.4660   -0.7150 C   0  0  0  0  0  0  0  0  0  0  0  0
   -5.3620   15.0590    0.7770 C   0  0  1  0  0  0  0  0  0  0  0  0
   -6.6150   14.4940    1.0880 O   0  0  0  0  0  0  0  0  0  0  0  0
  2  1  1  1
  2  3  1  0
  2  4  1  0
  2  5  1  0
  4  6  1  0
  5  7  1  6
  5  8  1  0
  7  9  1  0
  8 10  1  0
 11  6  1  6
  9 12  1  6
  9 13  1  0
 10 13  1  0
 11 14  1  0
 11 15  1  0
 14 16  1  0
 15 17  1  0
 15 18  1  6
 16 19  1  1
 16 20  1  0
 17 20  1  6
 17 21  1  0
 18 22  1  0
 21 23  1  0
 22 23  1  0
 23 24  1  6
M  CHG  1   1  -1
M  END
