ucsf584-ucsf424
     RDKit          3D

 27 30  0  0  0  0  0  0  0  0999 V2000
    1.6030   12.1440   -2.7320 O   0  0  0  0  0  0  0  0  0  0  0  0
    0.5570   11.7530   -3.4390 C   0  0  1  0  0  0  0  0  0  0  0  0
   -0.6250   11.9800   -2.6550 O   0  0  0  0  0  0  0  0  0  0  0  0
    0.5090   12.7040   -4.6800 C   0  0  0  0  0  0  0  0  0  0  0  0
   -0.4450   12.8770   -1.5490 C   0  0  0  0  0  0  0  0  0  0  0  0
    0.1420   12.1050   -6.0710 C   0  0  1  0  0  0  0  0  0  0  0  0
   -0.5740   14.3530   -1.8960 C   0  0  0  0  0  0  0  0  0  0  0  0
    1.2690   11.6170   -6.8950 N   0  0  0  0  0  0  0  0  0  0  0  0
   -0.9650   11.0340   -6.2400 C   0  0  1  0  0  0  0  0  0  0  0  0
   -1.7970   14.7220   -2.7360 C   0  0  0  0  0  0  0  0  0  0  0  0
    0.7140   10.5950   -7.7810 O   0  0  0  0  0  0  0  0  0  0  0  0
   -0.2850    9.9410   -7.0080 C   0  0  2  0  0  0  0  0  0  0  0  0
   -1.7310   10.3600   -5.1040 C   0  0  0  0  0  0  0  0  0  0  0  0
   -2.9800   15.1460   -1.9530 N   0  0  0  0  0  0  0  0  0  0  0  0
   -1.2880    9.1580   -7.8090 C   0  0  0  0  0  0  0  0  0  0  0  0
   -2.7670    9.3640   -5.6520 C   0  0  0  0  0  0  0  0  0  0  0  0
   -3.0490   14.5070   -0.6340 C   0  0  0  0  0  0  0  0  0  0  0  0
   -4.1870   14.8990   -2.7460 C   0  0  0  0  0  0  0  0  0  0  0  0
   -2.3280    8.5250   -6.8740 C   0  0  0  0  0  0  0  0  0  0  0  0
   -4.2120   15.0730    0.1990 C   0  0  0  0  0  0  0  0  0  0  0  0
   -5.4550   14.5870   -1.9440 C   0  0  0  0  0  0  0  0  0  0  0  0
   -5.5170   15.3090   -0.6030 C   0  0  0  0  0  0  0  0  0  0  0  0
   -6.8140   14.9450    0.1740 C   0  0  0  0  0  0  0  0  0  0  0  0
   -6.5900   14.8120    1.6160 N   0  0  0  0  0  0  0  0  0  0  0  0
   -7.4440   13.6850   -0.1070 N   0  0  0  0  0  0  0  0  0  0  0  0
   -8.5340   13.7190    0.8790 C   0  0  0  0  0  0  0  0  0  0  0  0
   -7.8940   14.3660    2.1040 C   0  0  0  0  0  0  0  0  0  0  0  0
  2  1  1  1
  2  3  1  0
  2  4  1  0
  3  5  1  0
  6  4  1  1
  5  7  1  0
  6  8  1  0
  6  9  1  0
  7 10  1  0
  8 11  1  0
  9 12  1  0
 11 12  1  0
  9 13  1  1
 10 14  1  0
 12 15  1  6
 13 16  1  0
 14 17  1  0
 14 18  1  0
 15 19  1  0
 16 19  1  0
 17 20  1  0
 18 21  1  0
 20 22  1  0
 21 22  1  0
 22 23  1  0
 23 24  1  0
 23 25  1  0
 25 26  1  0
 24 27  1  0
 26 27  1  0
M  CHG  1   1  -1
M  END
