ucsf523-ucsf584
     RDKit          3D

 17 19  0  0  0  0  0  0  0  0999 V2000
    0.0480   13.8750    1.8110 N   0  0  0  0  0  0  0  0  0  0  0  0
   -1.0240   14.4010    0.9620 C   0  0  2  0  0  0  0  0  0  0  0  0
   -2.2880   14.1430    1.5470 N   0  0  0  0  0  0  0  0  0  0  0  0
   -0.7680   14.0810   -0.3790 N   0  0  0  0  0  0  0  0  0  0  0  0
   -1.7440   14.5740   -1.2890 C   0  0  1  0  0  0  0  0  0  0  0  0
   -3.3750   14.1740    0.6110 C   0  0  2  0  0  0  0  0  0  0  0  0
   -2.1800   13.7790   -2.3060 O   0  0  0  0  0  0  0  0  0  0  0  0
   -2.8360   15.1270   -0.4040 C   0  0  2  0  0  0  0  0  0  0  0  0
   -4.5110   14.6830    1.0790 N   0  0  0  0  0  0  0  0  0  0  0  0
   -6.1000   14.3180    0.3950 S   0  0  0  0  0  0  0  0  0  0  0  0
   -3.9850   15.6100   -0.9110 N   0  0  0  0  0  0  0  0  0  0  0  0
   -5.6350   12.8020    1.6860 O   0  0  0  0  0  0  0  0  0  0  0  0
   -5.1610   14.8080   -1.1200 C   0  0  0  0  0  0  0  0  0  0  0  0
   -7.2110   14.8780    0.6160 N   0  0  0  0  0  0  0  0  0  0  0  0
   -7.8630   14.1170    0.3390 N   0  0  0  0  0  0  0  0  0  0  0  0
   -8.6750   14.8290    1.2680 C   0  0  0  0  0  0  0  0  0  0  0  0
   -7.6990   14.5890    1.9430 C   0  0  0  0  0  0  0  0  0  0  0  0
  2  1  1  1
  2  3  1  0
  2  4  1  0
  4  5  1  0
  6  3  1  1
  5  7  1  1
  5  8  1  0
  6  8  1  0
  6  9  1  0
  9 10  1  0
  8 11  1  6
 10 12  1  0
 10 13  1  0
 11 13  1  0
 10 14  1  0
 10 15  1  0
 15 16  1  0
 14 17  1  0
 16 17  1  0
M  END
