ucsf258-ucsf320
     RDKit          3D

 11 11  0  0  0  0  0  0  0  0999 V2000
    0.5130   13.7990   -1.2880 O   0  0  0  0  0  0  0  0  0  0  0  0
   -0.3870   13.5700   -2.2130 C   0  0  2  0  0  0  0  0  0  0  0  0
   -0.0270   14.4820   -3.2410 O   0  0  0  0  0  0  0  0  0  0  0  0
   -1.8470   13.8930   -1.7030 C   0  0  2  0  0  0  0  0  0  0  0  0
   -2.7990   14.4220   -2.8270 C   0  0  2  0  0  0  0  0  0  0  0  0
   -1.7960   14.7370   -0.4510 N   0  0  0  0  0  0  0  0  0  0  0  0
   -2.1580   15.2080   -3.8410 O   0  0  0  0  0  0  0  0  0  0  0  0
   -3.9420   15.2160   -2.2130 C   0  0  0  0  0  0  0  0  0  0  0  0
   -3.1240   14.9360    0.1870 C   0  0  0  0  0  0  0  0  0  0  0  0
   -4.2630   14.6650   -0.8240 C   0  0  1  0  0  0  0  0  0  0  0  0
   -5.5310   15.2220   -0.3690 O   0  0  0  0  0  0  0  0  0  0  0  0
  2  1  1  1
  2  3  1  0
  2  4  1  0
  4  5  1  0
  4  6  1  1
  5  7  1  6
  5  8  1  0
  6  9  1  0
  8 10  1  0
  9 10  1  0
 10 11  1  1
M  CHG  1   1  -1
M  END
