ucsf243-ucsf109
     RDKit          3D

 19 21  0  0  0  0  0  0  0  0999 V2000
   -4.0420   16.2150    1.1680 C   0  0  0  0  0  0  0  0  0  0  0  0
   -4.2530   15.2430   -0.5460 S   0  0  0  0  0  0  0  0  0  0  0  0
   -3.9540   15.6310   -2.3220 C   0  0  0  0  0  0  0  0  0  0  0  0
   -2.4010   14.8730   -0.8020 C   0  0  0  0  0  0  0  0  0  0  0  0
   -5.1180   13.8770    0.4050 C   0  0  0  0  0  0  0  0  0  0  0  0
   -5.8380   14.3470   -1.0940 C   0  0  0  0  0  0  0  0  0  0  0  0
   -1.6400   15.1070   -2.0150 C   0  0  1  0  0  0  0  0  0  0  0  0
   -3.4260   14.5090   -3.0320 C   0  0  0  0  0  0  0  0  0  0  0  0
   -6.2750   14.3780    0.9720 N   0  0  0  0  0  0  0  0  0  0  0  0
   -7.0420   14.9260   -0.9270 N   0  0  0  0  0  0  0  0  0  0  0  0
   -0.2600   14.4360   -1.8300 C   0  0  1  0  0  0  0  0  0  0  0  0
   -2.0630   14.7490   -3.3680 C   0  0  2  0  0  0  0  0  0  0  0  0
   -7.5110   14.7280    0.4090 C   0  0  1  0  0  0  0  0  0  0  0  0
   -6.6780   14.2000    2.2630 N   0  0  0  0  0  0  0  0  0  0  0  0
   -1.4050   13.6570   -3.9620 O   0  0  0  0  0  0  0  0  0  0  0  0
    0.2840   14.1240   -3.0890 O   0  0  0  0  0  0  0  0  0  0  0  0
    0.6550   15.2310   -1.1920 O   0  0  0  0  0  0  0  0  0  0  0  0
   -8.2370   13.5340    0.7110 N   0  0  0  0  0  0  0  0  0  0  0  0
   -7.8900   13.4370    2.1280 C   0  0  0  0  0  0  0  0  0  0  0  0
  1  2  1  0
  2  3  1  0
  2  4  1  0
  2  5  1  0
  2  6  1  0
  7  4  1  1
  3  8  1  0
  5  9  1  0
  6 10  1  0
  7 11  1  0
  7 12  1  0
  8 12  1  0
  9 13  1  0
 13 10  1  6
  9 14  1  0
 12 15  1  1
 11 16  1  6
 11 17  1  0
 13 18  1  0
 14 19  1  0
 18 19  1  0
M  CHG  1  17  -1
M  END
