ucsf364-ucsf520
     RDKit          3D

 26 29  0  0  0  0  0  0  0  0999 V2000
    2.5060   12.9150   -4.8170 C   0  0  0  0  0  0  0  0  0  0  0  0
    1.0020   12.7140   -5.0770 C   0  0  1  0  0  0  0  0  0  0  0  0
    0.6640   11.7170   -6.1640 C   0  0  2  0  0  0  0  0  0  0  0  0
    0.2520   12.2510   -3.8060 C   0  0  1  0  0  0  0  0  0  0  0  0
    1.6220   11.6250   -7.2080 O   0  0  0  0  0  0  0  0  0  0  0  0
    0.2820   13.2710   -2.5910 C   0  0  1  0  0  0  0  0  0  0  0  0
   -1.2200   11.7670   -4.1030 C   0  0  0  0  0  0  0  0  0  0  0  0
   -0.7490   11.8320   -6.6440 C   0  0  0  0  0  0  0  0  0  0  0  0
   -0.8150   14.3000   -2.8170 N   0  0  0  0  0  0  0  0  0  0  0  0
    0.1490   12.5250   -1.4760 O   0  0  0  0  0  0  0  0  0  0  0  0
   -1.6550   11.3480   -5.5290 C   0  0  0  0  0  0  0  0  0  0  0  0
   -1.7370   14.5220   -1.6730 N   0  0  0  0  0  0  0  0  0  0  0  0
   -0.3780   15.6190   -3.3990 C   0  0  2  0  0  0  0  0  0  0  0  0
   -3.0800   14.8600   -2.1350 C   0  0  0  0  0  0  0  0  0  0  0  0
   -1.2430   15.4380   -0.6770 C   0  0  1  0  0  0  0  0  0  0  0  0
   -1.4330   16.4690   -3.9830 O   0  0  0  0  0  0  0  0  0  0  0  0
    0.5530   15.4950   -4.6020 C   0  0  0  0  0  0  0  0  0  0  0  0
   -4.0770   14.8630   -1.0710 N   0  0  0  0  0  0  0  0  0  0  0  0
   -2.1720   15.4030    0.5420 C   0  0  1  0  0  0  0  0  0  0  0  0
    0.0350   15.0230   -0.0930 N   0  0  0  0  0  0  0  0  0  0  0  0
    0.6210   16.9140   -5.0970 C   0  0  0  0  0  0  0  0  0  0  0  0
   -0.7960   17.3920   -4.8800 C   0  0  0  0  0  0  0  0  0  0  0  0
   -3.6730   15.5060    0.1480 C   0  0  2  0  0  0  0  0  0  0  0  0
   -1.6970   14.2860    1.3620 N   0  0  0  0  0  0  0  0  0  0  0  0
   -0.2650   14.2720    1.1040 C   0  0  0  0  0  0  0  0  0  0  0  0
   -4.5980   14.9430    1.1140 N   0  0  0  0  0  0  0  0  0  0  0  0
  2  1  1  1
  2  3  1  0
  2  4  1  0
  3  5  1  6
  4  6  1  0
  4  7  1  6
  3  8  1  0
  6  9  1  0
  6 10  1  1
  7 11  1  0
  8 11  1  0
  9 12  1  0
 13  9  1  6
 12 14  1  0
 12 15  1  0
 13 16  1  0
 13 17  1  0
 14 18  1  0
 15 19  1  0
 15 20  1  1
 17 21  1  0
 16 22  1  0
 21 22  1  0
 18 23  1  0
 19 23  1  0
 19 24  1  6
 20 25  1  0
 24 25  1  0
 23 26  1  1
M  CHG  1  10  -1
M  END
