ucsf387-ucsf385
     RDKit          3D

 23 24  0  0  0  0  0  0  0  0999 V2000
    0.9620   18.2780   -5.2860 Cl  0  0  0  0  0  0  0  0  0  0  0  0
    0.2330   16.8640   -4.4550 C   0  0  1  0  0  0  0  0  0  0  0  0
   -1.1590   16.7540   -5.0560 C   0  0  0  0  0  0  0  0  0  0  0  0
    1.1550   15.6600   -4.6380 C   0  0  0  0  0  0  0  0  0  0  0  0
    0.5200   14.2550   -4.8350 C   0  0  1  0  0  0  0  0  0  0  0  0
   -1.8640   15.4240   -4.8480 C   0  0  1  0  0  0  0  0  0  0  0  0
   -3.3810   15.3820   -5.8160 Cl  0  0  0  0  0  0  0  0  0  0  0  0
    1.0790   13.0950   -3.9100 C   0  0  0  0  0  0  0  0  0  0  0  0
   -1.0030   14.1790   -5.1130 C   0  0  0  0  0  0  0  0  0  0  0  0
    0.2370   12.3360   -2.8010 C   0  0  1  0  0  0  0  0  0  0  0  0
    0.4460   11.0370   -2.8620 O   0  0  0  0  0  0  0  0  0  0  0  0
    0.6050   12.7300   -1.4670 O   0  0  0  0  0  0  0  0  0  0  0  0
    1.2720   13.9930   -1.4470 C   0  0  0  0  0  0  0  0  0  0  0  0
    0.6940   14.9360   -2.3620 O   0  0  0  0  0  0  0  0  0  0  0  0
   -0.7140   15.1970   -2.2140 C   0  0  1  0  0  0  0  0  0  0  0  0
   -1.3640   14.4310   -3.0500 O   0  0  0  0  0  0  0  0  0  0  0  0
   -1.1830   14.7170   -0.8250 C   0  0  2  0  0  0  0  0  0  0  0  0
   -2.5830   15.1950   -0.3970 C   0  0  1  0  0  0  0  0  0  0  0  0
   -0.2180   15.0910    0.3100 C   0  0  0  0  0  0  0  0  0  0  0  0
   -3.6570   14.9580   -1.3820 N   0  0  0  0  0  0  0  0  0  0  0  0
   -0.5220   14.2050    1.4910 C   0  0  0  0  0  0  0  0  0  0  0  0
   -2.9430   14.4580    0.9010 C   0  0  0  0  0  0  0  0  0  0  0  0
   -1.9100   14.3880    1.9380 N   0  0  0  0  0  0  0  0  0  0  0  0
  2  1  1  6
  2  3  1  0
  2  4  1  0
  4  5  1  0
  3  6  1  0
  6  7  1  6
  5  8  1  1
  5  9  1  0
  6  9  1  0
  8 10  1  0
 10 11  1  1
 10 12  1  0
 12 13  1  0
 13 14  1  0
 14 15  1  0
 15 16  1  6
 15 17  1  0
 17 18  1  0
 17 19  1  1
 18 20  1  6
 19 21  1  0
 18 22  1  0
 21 23  1  0
 22 23  1  0
M  CHG  2  11  -1  16  -1
M  END
