ucsf422-ucsf260
     RDKit          3D

 24 27  0  0  0  0  0  0  0  0999 V2000
    0.6240   11.2050   -2.5430 O   0  0  0  0  0  0  0  0  0  0  0  0
    1.3480   12.2520   -2.9170 C   0  0  2  0  0  0  0  0  0  0  0  0
    1.2000   13.0350   -1.7600 O   0  0  0  0  0  0  0  0  0  0  0  0
    0.6670   12.9960   -4.0950 C   0  0  2  0  0  0  0  0  0  0  0  0
    0.6440   12.2900   -5.4440 C   0  0  0  0  0  0  0  0  0  0  0  0
    1.1640   14.3720   -4.5040 C   0  0  2  0  0  0  0  0  0  0  0  0
    1.6090   15.3970   -3.5050 C   0  0  0  0  0  0  0  0  0  0  0  0
    0.0290   15.0480   -5.2130 C   0  0  2  0  0  0  0  0  0  0  0  0
   -0.2380   11.1660   -5.5240 N   0  0  0  0  0  0  0  0  0  0  0  0
    1.2880   16.7240   -4.1020 N   0  0  0  0  0  0  0  0  0  0  0  0
    0.4240   16.5130   -5.2580 C   0  0  2  0  0  0  0  0  0  0  0  0
   -1.3160   14.8320   -4.5580 C   0  0  0  0  0  0  0  0  0  0  0  0
   -1.5760   11.3350   -4.9680 C   0  0  0  0  0  0  0  0  0  0  0  0
   -0.5390   10.8630   -6.8750 C   0  0  2  0  0  0  0  0  0  0  0  0
   -0.7160   17.5610   -5.2880 C   0  0  0  0  0  0  0  0  0  0  0  0
   -2.3700   15.5230   -5.3590 C   0  0  1  0  0  0  0  0  0  0  0  0
   -2.3450   10.2340   -5.6110 N   0  0  0  0  0  0  0  0  0  0  0  0
   -1.3230    9.6400   -6.4910 C   0  0  1  0  0  0  0  0  0  0  0  0
    0.6520   10.6030   -7.7880 C   0  0  0  0  0  0  0  0  0  0  0  0
   -4.1120   14.9420   -4.7130 Br  0  0  0  0  0  0  0  0  0  0  0  0
   -2.1700   17.0430   -5.4220 C   0  0  0  0  0  0  0  0  0  0  0  0
   -1.7940    8.8800   -7.7140 C   0  0  0  0  0  0  0  0  0  0  0  0
    0.7210    9.1420   -8.2390 C   0  0  0  0  0  0  0  0  0  0  0  0
   -0.6290    8.5750   -8.6730 C   0  0  0  0  0  0  0  0  0  0  0  0
  2  1  1  1
  2  3  1  0
  2  4  1  0
  4  5  1  6
  4  6  1  0
  6  7  1  1
  6  8  1  0
  5  9  1  0
  7 10  1  0
  8 11  1  0
 10 11  1  0
  8 12  1  1
  9 13  1  0
  9 14  1  0
 11 15  1  1
 12 16  1  0
 13 17  1  0
 14 18  1  0
 17 18  1  0
 14 19  1  6
 16 20  1  1
 15 21  1  0
 16 21  1  0
 18 22  1  6
 19 23  1  0
 22 24  1  0
 23 24  1  0
M  CHG  1   1  -1
M  END
