ucsf258-ucsf357
     RDKit          3D

 13 13  0  0  0  0  0  0  0  0999 V2000
    0.4550   13.0820   -0.9910 O   0  0  0  0  0  0  0  0  0  0  0  0
   -0.2810   13.3030   -2.0650 C   0  0  2  0  0  0  0  0  0  0  0  0
    0.5760   13.7680   -3.1170 O   0  0  0  0  0  0  0  0  0  0  0  0
   -1.3820   14.4170   -1.8570 C   0  0  1  0  0  0  0  0  0  0  0  0
   -2.5400   14.3130   -2.8840 C   0  0  2  0  0  0  0  0  0  0  0  0
   -1.8530   14.3650   -0.4310 N   0  0  0  0  0  0  0  0  0  0  0  0
   -2.0920   14.5360   -4.2260 O   0  0  0  0  0  0  0  0  0  0  0  0
   -3.6670   15.2960   -2.6040 C   0  0  0  0  0  0  0  0  0  0  0  0
   -3.3260   14.3970   -0.2560 C   0  0  0  0  0  0  0  0  0  0  0  0
   -4.0640   15.4370   -1.1230 C   0  0  2  0  0  0  0  0  0  0  0  0
   -5.6110   15.4440   -0.9510 C   0  0  1  0  0  0  0  0  0  0  0  0
   -6.1770   14.7660   -1.9210 O   0  0  0  0  0  0  0  0  0  0  0  0
   -6.0390   14.7560    0.1960 O   0  0  0  0  0  0  0  0  0  0  0  0
  2  1  1  1
  2  3  1  0
  2  4  1  0
  4  5  1  0
  4  6  1  1
  5  7  1  6
  5  8  1  0
  6  9  1  0
 10  8  1  6
  9 10  1  0
 10 11  1  0
 11 12  1  6
 11 13  1  0
M  CHG  2   1  -1  12  -1
M  END
