ucsf039-ucsf385
     RDKit          3D

 20 22  0  0  0  0  0  0  0  0999 V2000
   -4.5970   15.7450    0.7100 N   0  0  0  0  0  0  0  0  0  0  0  0
   -3.6680   15.1430   -0.2200 C   0  0  2  0  0  0  0  0  0  0  0  0
   -2.2060   15.4290    0.0980 C   0  0  2  0  0  0  0  0  0  0  0  0
   -4.0900   15.5670   -1.5290 N   0  0  0  0  0  0  0  0  0  0  0  0
   -3.1810   15.0940   -2.5890 C   0  0  0  0  0  0  0  0  0  0  0  0
   -1.4690   14.6350   -0.9410 C   0  0  1  0  0  0  0  0  0  0  0  0
   -1.6630   14.9700    1.3470 N   0  0  0  0  0  0  0  0  0  0  0  0
   -2.5660   13.8620    1.5640 N   0  0  0  0  0  0  0  0  0  0  0  0
   -1.7770   15.1540   -2.2250 N   0  0  0  0  0  0  0  0  0  0  0  0
   -0.1080   14.7990   -0.4670 N   0  0  0  0  0  0  0  0  0  0  0  0
   -0.2770   14.5330    0.9600 C   0  0  0  0  0  0  0  0  0  0  0  0
   -0.8000   15.0510   -3.2610 C   0  0  1  0  0  0  0  0  0  0  0  0
    0.3630   14.4050   -2.8030 O   0  0  0  0  0  0  0  0  0  0  0  0
   -1.2660   14.1860   -4.1190 O   0  0  0  0  0  0  0  0  0  0  0  0
   -0.3860   16.3660   -4.0300 C   0  0  1  0  0  0  0  0  0  0  0  0
    1.0260   16.4390   -4.5720 C   0  0  0  0  0  0  0  0  0  0  0  0
   -1.2900   16.7570   -5.1530 N   0  0  0  0  0  0  0  0  0  0  0  0
   -0.6570   17.8230   -5.9310 C   0  0  2  0  0  0  0  0  0  0  0  0
    0.9920   18.1250   -5.2480 S   0  0  0  0  0  0  0  0  0  0  0  0
   -1.5180   19.0640   -5.9290 C   0  0  0  0  0  0  0  0  0  0  0  0
  2  1  1  1
  2  3  1  0
  2  4  1  0
  4  5  1  0
  3  6  1  0
  3  7  1  1
  7  8  1  0
  5  9  1  0
  6  9  1  0
  6 10  1  1
  7 11  1  0
 10 11  1  0
  9 12  1  0
 12 13  1  1
 12 14  1  0
 12 15  1  0
 15 16  1  6
 15 17  1  0
 17 18  1  0
 16 19  1  0
 18 19  1  0
 18 20  1  1
M  CHG  1  14  -1
M  END
