ucsf385-ucsf422
     RDKit          3D

 25 27  0  0  0  0  0  0  0  0999 V2000
   -3.8360   14.8610   -1.1960 N   0  0  0  0  0  0  0  0  0  0  0  0
   -2.6390   14.4930   -0.3810 C   0  0  2  0  0  0  0  0  0  0  0  0
   -3.0310   14.6040    1.0810 C   0  0  0  0  0  0  0  0  0  0  0  0
   -1.4540   15.4380   -0.6770 C   0  0  2  0  0  0  0  0  0  0  0  0
   -0.9980   15.2130   -2.1330 C   0  0  1  0  0  0  0  0  0  0  0  0
   -0.3060   15.2430    0.3330 C   0  0  0  0  0  0  0  0  0  0  0  0
   -1.8990   14.3360    1.9660 N   0  0  0  0  0  0  0  0  0  0  0  0
   -0.4300   13.8920   -2.1630 O   0  0  0  0  0  0  0  0  0  0  0  0
   -2.1140   15.2070   -2.8460 O   0  0  0  0  0  0  0  0  0  0  0  0
   -0.6140   14.1220    1.2950 C   0  0  0  0  0  0  0  0  0  0  0  0
    0.7810   13.7480   -1.4130 C   0  0  0  0  0  0  0  0  0  0  0  0
    1.7130   12.8880   -2.0730 O   0  0  0  0  0  0  0  0  0  0  0  0
    1.1540   12.0700   -3.1080 C   0  0  1  0  0  0  0  0  0  0  0  0
    0.3150   11.1840   -2.5710 O   0  0  0  0  0  0  0  0  0  0  0  0
    0.3930   12.9970   -4.0860 C   0  0  0  0  0  0  0  0  0  0  0  0
    0.7010   14.4720   -3.8300 C   0  0  1  0  0  0  0  0  0  0  0  0
    1.8900   14.9520   -4.5750 C   0  0  0  0  0  0  0  0  0  0  0  0
   -0.4000   15.4900   -4.1290 C   0  0  1  0  0  0  0  0  0  0  0  0
    1.3990   15.9840   -5.5160 N   0  0  0  0  0  0  0  0  0  0  0  0
    0.3270   16.6430   -4.7950 C   0  0  1  0  0  0  0  0  0  0  0  0
   -1.5460   14.9270   -4.9500 C   0  0  0  0  0  0  0  0  0  0  0  0
   -0.5340   17.5590   -5.6610 C   0  0  0  0  0  0  0  0  0  0  0  0
   -2.5850   16.0090   -5.1120 C   0  0  2  0  0  0  0  0  0  0  0  0
   -4.0470   15.2810   -6.1920 Br  0  0  0  0  0  0  0  0  0  0  0  0
   -2.0540   17.3210   -5.7180 C   0  0  0  0  0  0  0  0  0  0  0  0
  2  1  1  6
  2  3  1  0
  2  4  1  0
  4  5  1  0
  4  6  1  1
  3  7  1  0
  5  8  1  0
  5  9  1  6
  6 10  1  0
  7 10  1  0
  8 11  1  0
 11 12  1  0
 12 13  1  0
 13 14  1  1
 13 15  1  0
 16 15  1  6
 16 17  1  0
 16 18  1  0
 17 19  1  0
 18 20  1  0
 19 20  1  0
 18 21  1  6
 20 22  1  6
 21 23  1  0
 23 24  1  6
 22 25  1  0
 23 25  1  0
M  CHG  2   9  -1  14  -1
M  END
