ucsf396-ucsf339
     RDKit          3D

 17 18  0  0  0  0  0  0  0  0999 V2000
   -4.7160   12.7380   -2.3440 N   0  0  0  0  0  0  0  0  0  0  0  0
   -4.2770   12.8040   -1.0650 C   0  0  2  0  0  0  0  0  0  0  0  0
   -4.6060   12.2330    0.0280 O   0  0  0  0  0  0  0  0  0  0  0  0
   -3.7890   14.6250   -0.6960 S   0  0  0  0  0  0  0  0  0  0  0  0
   -5.4080   15.4400   -0.7620 C   0  0  0  0  0  0  0  0  0  0  0  0
   -4.5300   15.4650    0.7800 C   0  0  0  0  0  0  0  0  0  0  0  0
   -1.8300   14.6240   -0.8300 C   0  0  0  0  0  0  0  0  0  0  0  0
   -3.4080   15.2650   -2.4500 C   0  0  0  0  0  0  0  0  0  0  0  0
   -6.5910   14.7780   -0.7780 N   0  0  0  0  0  0  0  0  0  0  0  0
   -5.6810   14.9430    1.4730 C   0  0  0  0  0  0  0  0  0  0  0  0
   -1.2740   14.0860   -2.0600 C   0  0  2  0  0  0  0  0  0  0  0  0
   -2.7910   14.4490   -3.3860 N   0  0  0  0  0  0  0  0  0  0  0  0
    0.2530   13.7430   -1.8910 C   0  0  1  0  0  0  0  0  0  0  0  0
   -6.9970   14.5760    0.6500 C   0  0  0  0  0  0  0  0  0  0  0  0
   -1.4370   14.5840   -3.3970 C   0  0  0  0  0  0  0  0  0  0  0  0
    1.0200   14.7920   -2.3510 O   0  0  0  0  0  0  0  0  0  0  0  0
    0.4710   13.3470   -0.5640 O   0  0  0  0  0  0  0  0  0  0  0  0
  2  1  1  6
  2  3  1  0
  2  4  1  0
  4  5  1  0
  4  6  1  0
  4  7  1  0
  4  8  1  0
  5  9  1  0
  6 10  1  0
 11  7  1  1
  8 12  1  0
 11 13  1  0
  9 14  1  0
 10 14  1  0
 11 15  1  0
 12 15  1  0
 13 16  1  1
 13 17  1  0
M  CHG  1  16  -1
M  END
