ucsf109-ucsf170
     RDKit          3D

 18 20  0  0  0  0  0  0  0  0999 V2000
   -3.4640   15.0010    1.2720 N   0  0  0  0  0  0  0  0  0  0  0  0
   -4.2050   15.8850    2.1060 C   0  0  0  0  0  0  0  0  0  0  0  0
   -4.4170   14.2410    0.5090 C   0  0  1  0  0  0  0  0  0  0  0  0
   -5.7740   14.8640    0.7770 N   0  0  0  0  0  0  0  0  0  0  0  0
   -4.0530   14.0620   -0.9990 C   0  0  1  0  0  0  0  0  0  0  0  0
   -6.8760   14.7640   -0.1680 C   0  0  1  0  0  0  0  0  0  0  0  0
   -5.1440   14.7890   -1.7650 C   0  0  2  0  0  0  0  0  0  0  0  0
   -2.6970   14.2330   -1.9040 C   0  0  2  0  0  0  0  0  0  0  0  0
   -6.4100   14.7690    2.1240 N   0  0  0  0  0  0  0  0  0  0  0  0
   -1.2170   14.6960   -1.4940 C   0  0  1  0  0  0  0  0  0  0  0  0
   -6.4810   14.2880   -1.4660 N   0  0  0  0  0  0  0  0  0  0  0  0
   -4.6560   14.6010   -3.1900 C   0  0  0  0  0  0  0  0  0  0  0  0
   -3.2270   15.0990   -3.0610 C   0  0  2  0  0  0  0  0  0  0  0  0
   -7.7650   13.7870    0.4440 N   0  0  0  0  0  0  0  0  0  0  0  0
   -7.6350   14.0090    1.8880 C   0  0  0  0  0  0  0  0  0  0  0  0
   -2.4820   14.8670   -4.2740 O   0  0  0  0  0  0  0  0  0  0  0  0
   -0.3270   13.6180   -1.2330 O   0  0  0  0  0  0  0  0  0  0  0  0
   -0.5600   15.1280   -2.5690 O   0  0  0  0  0  0  0  0  0  0  0  0
  1  2  1  0
  3  1  1  6
  3  4  1  0
  5  3  1  1
  4  6  1  0
  5  7  1  0
  5  8  1  0
  4  9  1  0
  8 10  1  1
  6 11  1  6
  7 11  1  0
  7 12  1  6
  8 13  1  0
 12 13  1  0
  6 14  1  0
  9 15  1  0
 14 15  1  0
 13 16  1  6
 10 17  1  6
 10 18  1  0
M  CHG  1  18  -1
M  END
