ucsf380-ucsf387
     RDKit          3D

 27 29  0  0  0  0  0  0  0  0999 V2000
    0.1260   15.2260   -1.0670 O   0  0  0  0  0  0  0  0  0  0  0  0
    0.0490   14.2780   -1.9970 C   0  0  1  0  0  0  0  0  0  0  0  0
    1.1750   13.4340   -1.7650 O   0  0  0  0  0  0  0  0  0  0  0  0
   -1.3660   13.5220   -1.7930 C   0  0  0  0  0  0  0  0  0  0  0  0
    1.4600   12.4110   -2.7450 C   0  0  1  0  0  0  0  0  0  0  0  0
   -2.4480   14.5240   -1.2500 C   0  0  0  0  0  0  0  0  0  0  0  0
   -1.8850   12.7280   -3.0620 C   0  0  0  0  0  0  0  0  0  0  0  0
    0.6040   11.3900   -2.6570 O   0  0  0  0  0  0  0  0  0  0  0  0
    1.4360   13.0060   -4.2140 C   0  0  0  0  0  0  0  0  0  0  0  0
   -2.5890   14.6890    0.2720 C   0  0  0  0  0  0  0  0  0  0  0  0
   -3.8330   14.2580   -1.8340 C   0  0  0  0  0  0  0  0  0  0  0  0
   -2.7330   11.4770   -2.8240 C   0  0  0  0  0  0  0  0  0  0  0  0
   -0.8140   12.3580   -4.1030 C   0  0  0  0  0  0  0  0  0  0  0  0
   -3.7270   15.6370    0.7040 C   0  0  0  0  0  0  0  0  0  0  0  0
   -4.6960   15.4710   -1.6850 C   0  0  0  0  0  0  0  0  0  0  0  0
   -3.3650   10.9410   -4.1190 C   0  0  0  0  0  0  0  0  0  0  0  0
   -1.4450   11.9710   -5.4330 C   0  0  0  0  0  0  0  0  0  0  0  0
    0.5790   14.2460   -4.6330 C   0  0  1  0  0  0  0  0  0  0  0  0
   -4.9390   15.7890   -0.2320 C   0  0  0  0  0  0  0  0  0  0  0  0
   -2.3900   10.7850   -5.2890 C   0  0  0  0  0  0  0  0  0  0  0  0
   -0.8490   14.3620   -4.0920 C   0  0  0  0  0  0  0  0  0  0  0  0
    1.2310   15.5930   -4.3660 C   0  0  0  0  0  0  0  0  0  0  0  0
   -1.6200   15.2640   -5.0290 C   0  0  1  0  0  0  0  0  0  0  0  0
    0.5380   16.7120   -5.1420 C   0  0  2  0  0  0  0  0  0  0  0  0
    0.9840   18.2720   -4.4540 Cl  0  0  0  0  0  0  0  0  0  0  0  0
   -3.3590   15.3720   -4.6430 Cl  0  0  0  0  0  0  0  0  0  0  0  0
   -0.9940   16.6580   -5.1980 C   0  0  0  0  0  0  0  0  0  0  0  0
  2  1  1  1
  2  3  1  0
  2  4  1  0
  3  5  1  0
  4  6  1  0
  4  7  1  0
  5  8  1  6
  5  9  1  0
  6 10  1  0
  6 11  1  0
  7 12  1  0
  7 13  1  0
 10 14  1  0
 11 15  1  0
 12 16  1  0
 13 17  1  0
 18  9  1  1
 14 19  1  0
 15 19  1  0
 16 20  1  0
 17 20  1  0
 18 21  1  0
 18 22  1  0
 21 23  1  0
 22 24  1  0
 24 25  1  1
 23 26  1  1
 23 27  1  0
 24 27  1  0
M  CHG  2   1  -1   8  -1
M  END
