ucsf380-ucsf424
     RDKit          3D

 28 31  0  0  0  0  0  0  0  0999 V2000
    1.1360   14.7250   -2.0950 O   0  0  0  0  0  0  0  0  0  0  0  0
    0.1390   14.0370   -1.5620 C   0  0  2  0  0  0  0  0  0  0  0  0
    0.3920   12.6150   -1.6980 O   0  0  0  0  0  0  0  0  0  0  0  0
   -1.2140   14.4050   -2.3270 C   0  0  0  0  0  0  0  0  0  0  0  0
    0.8510   12.0450   -2.9650 C   0  0  1  0  0  0  0  0  0  0  0  0
   -2.2920   15.1700   -1.4560 C   0  0  0  0  0  0  0  0  0  0  0  0
   -1.7470   13.1800   -3.1970 C   0  0  0  0  0  0  0  0  0  0  0  0
    0.1020   10.8400   -3.0640 O   0  0  0  0  0  0  0  0  0  0  0  0
    0.5910   12.8230   -4.2930 C   0  0  0  0  0  0  0  0  0  0  0  0
   -2.3100   14.7350    0.0310 C   0  0  0  0  0  0  0  0  0  0  0  0
   -3.6920   15.2040   -2.1180 C   0  0  0  0  0  0  0  0  0  0  0  0
   -3.0180   12.3970   -2.7950 C   0  0  0  0  0  0  0  0  0  0  0  0
   -1.8590   13.6490   -4.6630 C   0  0  0  0  0  0  0  0  0  0  0  0
   -3.3800   15.4870    0.8050 C   0  0  0  0  0  0  0  0  0  0  0  0
   -4.8660   15.6050   -1.2110 C   0  0  0  0  0  0  0  0  0  0  0  0
   -3.2670   11.2200   -3.7340 C   0  0  0  0  0  0  0  0  0  0  0  0
   -2.0540   12.4980   -5.6230 C   0  0  0  0  0  0  0  0  0  0  0  0
    0.3550   12.1210   -5.6870 C   0  0  1  0  0  0  0  0  0  0  0  0
   -4.7310   15.1440    0.2280 C   0  0  0  0  0  0  0  0  0  0  0  0
   -3.2500   11.6420   -5.2110 C   0  0  0  0  0  0  0  0  0  0  0  0
    1.4940   11.7840   -6.5310 N   0  0  0  0  0  0  0  0  0  0  0  0
   -0.7380   11.0490   -5.9680 C   0  0  1  0  0  0  0  0  0  0  0  0
    1.0920   10.6650   -7.3900 O   0  0  0  0  0  0  0  0  0  0  0  0
   -0.3270   10.5740   -7.3540 C   0  0  1  0  0  0  0  0  0  0  0  0
   -1.0540    9.8720   -5.0370 C   0  0  0  0  0  0  0  0  0  0  0  0
   -0.7820    9.1530   -7.6850 C   0  0  0  0  0  0  0  0  0  0  0  0
   -2.1670    8.9620   -5.5570 C   0  0  0  0  0  0  0  0  0  0  0  0
   -2.1470    8.8230   -7.0780 C   0  0  0  0  0  0  0  0  0  0  0  0
  2  1  1  6
  2  3  1  0
  2  4  1  0
  3  5  1  0
  4  6  1  0
  4  7  1  0
  5  8  1  6
  5  9  1  0
  6 10  1  0
  6 11  1  0
  7 12  1  0
  7 13  1  0
 10 14  1  0
 11 15  1  0
 12 16  1  0
 13 17  1  0
 18  9  1  1
 14 19  1  0
 15 19  1  0
 16 20  1  0
 17 20  1  0
 18 21  1  0
 18 22  1  0
 21 23  1  0
 22 24  1  0
 23 24  1  0
 22 25  1  1
 24 26  1  1
 25 27  1  0
 26 28  1  0
 27 28  1  0
M  CHG  1   1  -1
M  END
