ucsf138-ucsf403
     RDKit          3D

 21 23  0  0  0  0  0  0  0  0999 V2000
    1.7080   12.4400   -2.3680 O   0  0  0  0  0  0  0  0  0  0  0  0
    0.5780   12.2170   -3.0070 C   0  0  2  0  0  0  0  0  0  0  0  0
    0.4010   10.8300   -2.7350 O   0  0  0  0  0  0  0  0  0  0  0  0
    0.7470   12.4190   -4.5460 C   0  0  0  0  0  0  0  0  0  0  0  0
    0.5530   11.2100   -5.3940 N   0  0  0  0  0  0  0  0  0  0  0  0
    0.9960   11.3760   -6.7750 C   0  0  2  0  0  0  0  0  0  0  0  0
   -0.7460   10.5640   -5.5440 C   0  0  1  0  0  0  0  0  0  0  0  0
    0.8730   12.7230   -7.0220 O   0  0  0  0  0  0  0  0  0  0  0  0
    0.1120   10.5720   -7.6520 N   0  0  0  0  0  0  0  0  0  0  0  0
   -2.0730   11.3140   -5.6870 C   0  0  2  0  0  0  0  0  0  0  0  0
   -0.4750    9.6040   -6.7040 C   0  0  2  0  0  0  0  0  0  0  0  0
   -2.1860   12.6530   -4.4600 Cl  0  0  0  0  0  0  0  0  0  0  0  0
    0.7960   10.0870   -8.8770 C   0  0  0  0  0  0  0  0  0  0  0  0
   -3.2320   10.3330   -5.5030 C   0  0  0  0  0  0  0  0  0  0  0  0
   -1.8030    8.9610   -7.1350 C   0  0  0  0  0  0  0  0  0  0  0  0
   -0.0280   10.1240  -10.1830 C   0  0  0  0  0  0  0  0  0  0  0  0
    1.3610    8.6560   -8.6300 C   0  0  0  0  0  0  0  0  0  0  0  0
   -2.8710    8.9440   -6.0280 C   0  0  0  0  0  0  0  0  0  0  0  0
    0.7080    9.5290  -11.3670 C   0  0  0  0  0  0  0  0  0  0  0  0
    2.0830    8.0330   -9.8270 C   0  0  0  0  0  0  0  0  0  0  0  0
    1.2230    8.1170  -11.0850 C   0  0  0  0  0  0  0  0  0  0  0  0
  2  1  1  1
  2  3  1  0
  2  4  1  0
  4  5  1  0
  5  6  1  0
  7  5  1  6
  6  8  1  6
  6  9  1  0
  7 10  1  0
  7 11  1  0
  9 11  1  0
 10 12  1  1
  9 13  1  0
 10 14  1  0
 11 15  1  6
 13 16  1  0
 13 17  1  0
 14 18  1  0
 15 18  1  0
 16 19  1  0
 17 20  1  0
 19 21  1  0
 20 21  1  0
M  CHG  1   1  -1
M  END
