ucsf348-ucsf337
     RDKit          3D

 13 14  0  0  0  0  0  0  0  0999 V2000
   -6.6650   14.7640    2.4570 N   0  0  0  0  0  0  0  0  0  0  0  0
   -5.9070   14.8120    1.2360 C   0  0  1  0  0  0  0  0  0  0  0  0
   -4.7940   13.9930    1.4720 N   0  0  0  0  0  0  0  0  0  0  0  0
   -6.6820   14.2780    0.1800 N   0  0  0  0  0  0  0  0  0  0  0  0
   -8.0060   14.8860    0.0390 C   0  0  0  0  0  0  0  0  0  0  0  0
   -5.9480   14.2620   -1.0810 C   0  0  1  0  0  0  0  0  0  0  0  0
   -3.8030   14.0790    0.3970 C   0  0  1  0  0  0  0  0  0  0  0  0
   -6.3280   15.4050   -1.8230 O   0  0  0  0  0  0  0  0  0  0  0  0
   -4.3950   14.2310   -1.0210 C   0  0  2  0  0  0  0  0  0  0  0  0
   -2.7680   15.1740    0.7010 C   0  0  0  0  0  0  0  0  0  0  0  0
   -1.6850   15.3420   -0.3750 C   0  0  0  0  0  0  0  0  0  0  0  0
   -3.7760   15.4110   -1.7830 C   0  0  0  0  0  0  0  0  0  0  0  0
   -2.2530   15.3870   -1.7880 C   0  0  0  0  0  0  0  0  0  0  0  0
  2  1  1  1
  2  3  1  0
  2  4  1  0
  4  5  1  0
  4  6  1  0
  3  7  1  0
  6  8  1  6
  6  9  1  0
  7  9  1  0
  7 10  1  1
 10 11  1  0
  9 12  1  1
 11 13  1  0
 12 13  1  0
M  END
