ucsf442-ucsf337
     RDKit          3D

 14 15  0  0  0  0  0  0  0  0999 V2000
    0.1130   15.4920    0.5430 O   0  0  0  0  0  0  0  0  0  0  0  0
   -0.9010   14.7260   -0.0430 C   0  0  2  0  0  0  0  0  0  0  0  0
   -1.2410   15.3810   -1.2910 N   0  0  0  0  0  0  0  0  0  0  0  0
   -2.0080   14.7870    0.8590 N   0  0  0  0  0  0  0  0  0  0  0  0
   -3.2370   15.1020    0.1490 C   0  0  1  0  0  0  0  0  0  0  0  0
   -2.3600   14.7740   -2.0170 C   0  0  2  0  0  0  0  0  0  0  0  0
   -2.9060   15.7470   -2.8870 O   0  0  0  0  0  0  0  0  0  0  0  0
   -3.4390   14.2520   -1.0670 C   0  0  2  0  0  0  0  0  0  0  0  0
   -4.4240   14.7410    0.8550 N   0  0  0  0  0  0  0  0  0  0  0  0
   -4.5060   15.7070    2.3740 Br  0  0  0  0  0  0  0  0  0  0  0  0
   -4.9030   14.4060   -1.4000 N   0  0  0  0  0  0  0  0  0  0  0  0
   -5.4680   14.9990   -0.1440 C   0  0  1  0  0  0  0  0  0  0  0  0
   -6.8650   14.5170    0.3030 C   0  0  0  0  0  0  0  0  0  0  0  0
   -5.1190   15.2080   -2.6040 N   0  0  0  0  0  0  0  0  0  0  0  0
  2  1  1  1
  2  3  1  0
  2  4  1  0
  5  4  1  1
  3  6  1  0
  6  7  1  6
  5  8  1  0
  6  8  1  0
  5  9  1  0
  9 10  1  0
  8 11  1  6
  9 12  1  0
 11 12  1  0
 12 13  1  1
 11 14  1  0
M  END
