ucsf109-ucsf169
     RDKit          3D

 27 30  0  0  0  0  0  0  0  0999 V2000
   -4.0090   15.4420    1.7000 N   0  0  0  0  0  0  0  0  0  0  0  0
   -4.8040   14.4290    1.0400 C   0  0  2  0  0  0  0  0  0  0  0  0
   -4.6220   14.2790   -0.4830 C   0  0  1  0  0  0  0  0  0  0  0  0
   -6.1960   14.8080    1.2510 N   0  0  0  0  0  0  0  0  0  0  0  0
   -7.1130   14.0000    0.4960 C   0  0  2  0  0  0  0  0  0  0  0  0
   -5.7980   14.8550   -1.2810 C   0  0  2  0  0  0  0  0  0  0  0  0
   -3.4950   14.9220   -1.2770 C   0  0  0  0  0  0  0  0  0  0  0  0
   -6.7000   14.8450    2.6110 N   0  0  0  0  0  0  0  0  0  0  0  0
   -7.1230   14.3910   -0.8710 N   0  0  0  0  0  0  0  0  0  0  0  0
   -5.4360   14.4220   -2.6810 C   0  0  0  0  0  0  0  0  0  0  0  0
   -3.8990   14.4240   -2.6900 C   0  0  1  0  0  0  0  0  0  0  0  0
   -8.3820   14.3470    1.0490 N   0  0  0  0  0  0  0  0  0  0  0  0
   -8.0970   14.4240    2.4720 C   0  0  0  0  0  0  0  0  0  0  0  0
   -3.4710   15.2170   -3.9100 C   0  0  0  0  0  0  0  0  0  0  0  0
   -1.9960   15.4530   -3.9710 C   0  0  2  0  0  0  0  0  0  0  0  0
   -1.5490   16.6320   -4.8270 C   0  0  1  0  0  0  0  0  0  0  0  0
   -1.2150   14.2350   -4.3860 C   0  0  0  0  0  0  0  0  0  0  0  0
   -2.3190   17.8430   -4.6840 O   0  0  0  0  0  0  0  0  0  0  0  0
   -0.0890   16.9840   -4.5880 C   0  0  2  0  0  0  0  0  0  0  0  0
    0.2390   14.4850   -4.0150 C   0  0  1  0  0  0  0  0  0  0  0  0
    0.0440   18.0660   -5.5170 O   0  0  0  0  0  0  0  0  0  0  0  0
    1.0760   13.1840   -4.0600 C   0  0  0  0  0  0  0  0  0  0  0  0
    0.7960   15.7240   -4.7850 C   0  0  0  0  0  0  0  0  0  0  0  0
    1.3550   18.4660   -5.7490 C   0  0  0  0  0  0  0  0  0  0  0  0
    1.1120   12.3410   -2.7280 C   0  0  1  0  0  0  0  0  0  0  0  0
    0.4730   12.9540   -1.6200 O   0  0  0  0  0  0  0  0  0  0  0  0
    0.3620   11.2640   -2.8390 O   0  0  0  0  0  0  0  0  0  0  0  0
  2  1  1  6
  2  3  1  0
  2  4  1  0
  4  5  1  0
  3  6  1  0
  3  7  1  6
  4  8  1  0
  5  9  1  6
  6  9  1  0
  6 10  1  6
  7 11  1  0
 10 11  1  0
  5 12  1  0
  8 13  1  0
 12 13  1  0
 11 14  1  6
 15 14  1  6
 15 16  1  0
 15 17  1  0
 16 18  1  1
 16 19  1  0
 17 20  1  0
 19 21  1  6
 20 22  1  6
 19 23  1  0
 20 23  1  0
 21 24  1  0
 22 25  1  0
 25 26  1  1
 25 27  1  0
M  CHG  1  27  -1
M  END
