ucsf392-ucsf016
     RDKit          3D

 21 24  0  0  0  0  0  0  0  0999 V2000
   -5.4300   15.3560   -1.6630 C   0  0  0  0  0  0  0  0  0  0  0  0
   -4.8040   14.1490   -0.9820 C   0  0  1  0  0  0  0  0  0  0  0  0
   -3.5880   13.5890   -1.7420 C   0  0  0  0  0  0  0  0  0  0  0  0
   -4.2410   14.3730    0.3990 C   0  0  2  0  0  0  0  0  0  0  0  0
   -5.1100   15.0330    1.3710 N   0  0  0  0  0  0  0  0  0  0  0  0
   -2.3180   14.3300   -1.2360 C   0  0  2  0  0  0  0  0  0  0  0  0
   -2.9880   15.1770   -0.0140 C   0  0  2  0  0  0  0  0  0  0  0  0
   -2.0630   15.4020    1.0920 N   0  0  0  0  0  0  0  0  0  0  0  0
   -1.6380   14.9570   -2.4160 N   0  0  0  0  0  0  0  0  0  0  0  0
   -1.3270   13.3410   -0.6960 N   0  0  0  0  0  0  0  0  0  0  0  0
   -0.7400   15.7150    0.6220 C   0  0  0  0  0  0  0  0  0  0  0  0
   -0.2450   14.6180   -2.7310 C   0  0  0  0  0  0  0  0  0  0  0  0
   -2.4570   15.3730   -3.5690 C   0  0  0  0  0  0  0  0  0  0  0  0
   -0.7160   13.7940    0.5580 C   0  0  0  0  0  0  0  0  0  0  0  0
   -1.7770   14.0760    1.5190 N   0  0  0  0  0  0  0  0  0  0  0  0
    0.2730   14.8830    1.2510 C   0  0  0  0  0  0  0  0  0  0  0  0
   -2.3280   14.3860   -4.7080 C   0  0  0  0  0  0  0  0  0  0  0  0
   -0.0960   13.6010   -3.8800 C   0  0  0  0  0  0  0  0  0  0  0  0
   -3.4520   13.4080   -4.9820 C   0  0  0  0  0  0  0  0  0  0  0  0
   -3.3030   14.6130   -5.8570 C   0  0  0  0  0  0  0  0  0  0  0  0
   -0.9020   14.0260   -5.1020 C   0  0  0  0  0  0  0  0  0  0  0  0
  2  1  1  6
  2  3  1  0
  2  4  1  0
  4  5  1  1
  3  6  1  0
  4  7  1  0
  6  7  1  0
  7  8  1  1
  6  9  1  6
  6 10  1  0
  8 11  1  0
  9 12  1  0
  9 13  1  0
 10 14  1  0
  8 15  1  0
 14 15  1  0
 11 16  1  0
 17 13  1  0
 12 18  1  0
 17 19  1  0
 17 20  1  0
 19 20  1  0
 17 21  1  0
 18 21  1  0
M  END
