ucsf013-ucsf123
     RDKit          3D

 25 27  0  0  0  0  0  0  0  0999 V2000
   -4.6000   15.1640    2.2870 N   0  0  0  0  0  0  0  0  0  0  0  0
   -5.3440   14.5670    1.2110 C   0  0  1  0  0  0  0  0  0  0  0  0
   -6.7210   14.6840    1.6380 N   0  0  0  0  0  0  0  0  0  0  0  0
   -4.9730   15.2520   -0.0900 C   0  0  2  0  0  0  0  0  0  0  0  0
   -6.1250   15.1500   -1.1190 C   0  0  2  0  0  0  0  0  0  0  0  0
   -7.7290   14.6200    0.5970 C   0  0  0  0  0  0  0  0  0  0  0  0
   -3.6420   14.7230   -0.5840 C   0  0  0  0  0  0  0  0  0  0  0  0
   -7.1470   14.2040   -0.6550 N   0  0  0  0  0  0  0  0  0  0  0  0
   -5.7380   14.7450   -2.5530 C   0  0  0  0  0  0  0  0  0  0  0  0
   -3.3550   15.4450   -1.8630 C   0  0  1  0  0  0  0  0  0  0  0  0
   -1.8830   15.4110   -2.2290 C   0  0  0  0  0  0  0  0  0  0  0  0
   -4.2620   14.8880   -2.9540 C   0  0  0  0  0  0  0  0  0  0  0  0
   -1.4950   14.3570   -3.3030 C   0  0  2  0  0  0  0  0  0  0  0  0
   -0.0130   14.0480   -2.9930 C   0  0  1  0  0  0  0  0  0  0  0  0
   -1.6930   14.9850   -4.6760 C   0  0  0  0  0  0  0  0  0  0  0  0
    0.2350   12.5520   -2.5610 C   0  0  2  0  0  0  0  0  0  0  0  0
   -0.9030   16.2680   -4.7100 C   0  0  2  0  0  0  0  0  0  0  0  0
    0.9370   14.5520   -4.1170 C   0  0  0  0  0  0  0  0  0  0  0  0
   -1.4690   17.5710   -5.7920 S   0  0  0  0  0  0  0  0  0  0  0  0
    0.6910   12.6130   -1.2220 O   0  0  0  0  0  0  0  0  0  0  0  0
    1.2190   11.9520   -3.1560 O   0  0  0  0  0  0  0  0  0  0  0  0
    0.5940   15.9230   -4.7330 C   0  0  0  0  0  0  0  0  0  0  0  0
   -2.0300   18.9650   -5.1480 N   0  0  0  0  0  0  0  0  0  0  0  0
   -0.3270   17.9350   -6.8300 O   0  0  0  0  0  0  0  0  0  0  0  0
   -2.6410   16.9430   -6.6740 O   0  0  0  0  0  0  0  0  0  0  0  0
  2  1  1  1
  2  3  1  0
  2  4  1  0
  4  5  1  0
  3  6  1  0
  4  7  1  6
  5  8  1  0
  6  8  1  0
  5  9  1  6
  7 10  1  0
 10 11  1  6
  9 12  1  0
 10 12  1  0
 13 11  1  1
 13 14  1  0
 13 15  1  0
 14 16  1  0
 15 17  1  0
 14 18  1  6
 17 19  1  6
 16 20  1  1
 16 21  1  0
 17 22  1  0
 18 22  1  0
 19 23  1  0
 19 24  1  0
 19 25  1  0
M  CHG  1  21  -1
M  END
