ucsf248-ucsf404
     RDKit          3D

 14 15  0  0  0  0  0  0  0  0999 V2000
   -8.5880   12.6520    2.9010 N   0  0  0  0  0  0  0  0  0  0  0  0
   -8.4240   14.1890    2.3310 S   0  0  0  0  0  0  0  0  0  0  0  0
   -8.4620   15.2750    3.5010 O   0  0  0  0  0  0  0  0  0  0  0  0
   -9.6250   14.5560    1.3300 O   0  0  0  0  0  0  0  0  0  0  0  0
   -6.9280   14.5880    1.4050 C   0  0  1  0  0  0  0  0  0  0  0  0
   -5.8450   13.6210    1.4880 N   0  0  0  0  0  0  0  0  0  0  0  0
   -7.1540   14.7580   -0.0270 N   0  0  0  0  0  0  0  0  0  0  0  0
   -4.9980   13.9940    0.3500 C   0  0  1  0  0  0  0  0  0  0  0  0
   -5.7880   14.9700   -0.4660 C   0  0  1  0  0  0  0  0  0  0  0  0
   -3.6150   14.6160    0.4890 C   0  0  0  0  0  0  0  0  0  0  0  0
   -5.3580   14.5710   -1.8450 C   0  0  1  0  0  0  0  0  0  0  0  0
   -6.6240   15.0330   -2.9860 Cl  0  0  0  0  0  0  0  0  0  0  0  0
   -2.9840   14.6760   -0.9350 C   0  0  0  0  0  0  0  0  0  0  0  0
   -3.9470   15.1530   -2.0530 C   0  0  0  0  0  0  0  0  0  0  0  0
  1  2  1  0
  2  3  1  0
  2  4  1  0
  5  2  1  1
  5  6  1  0
  5  7  1  0
  6  8  1  0
  9  7  1  6
  8  9  1  0
  8 10  1  1
  9 11  1  0
 11 12  1  6
 10 13  1  0
 11 14  1  0
 13 14  1  0
M  END
