ucsf114-ucsf333
     RDKit          3D

 22 23  0  0  0  0  0  0  0  0999 V2000
    0.8240   18.1420   -4.4990 C   0  0  0  0  0  0  0  0  0  0  0  0
   -0.2670   17.7030   -5.4650 C   0  0  0  0  0  0  0  0  0  0  0  0
   -1.5250   18.5430   -5.3200 C   0  0  0  0  0  0  0  0  0  0  0  0
   -0.6400   16.3590   -5.1810 O   0  0  0  0  0  0  0  0  0  0  0  0
    0.4490   15.5060   -4.7790 C   0  0  0  0  0  0  0  0  0  0  0  0
   -0.0130   14.3710   -3.8220 C   0  0  1  0  0  0  0  0  0  0  0  0
    0.6480   12.9680   -4.0220 C   0  0  0  0  0  0  0  0  0  0  0  0
   -0.2830   14.7130   -2.3670 N   0  0  0  0  0  0  0  0  0  0  0  0
    0.6450   12.0560   -2.7850 C   0  0  2  0  0  0  0  0  0  0  0  0
   -1.5820   14.1440   -1.9560 C   0  0  1  0  0  0  0  0  0  0  0  0
    0.6960   14.1570   -1.4280 C   0  0  1  0  0  0  0  0  0  0  0  0
    2.4570   14.3190   -1.8920 S   0  0  0  0  0  0  0  0  0  0  0  0
    1.8550   12.0740   -2.3020 O   0  0  0  0  0  0  0  0  0  0  0  0
    0.4610   10.7020   -3.1270 O   0  0  0  0  0  0  0  0  0  0  0  0
   -1.8950   14.1060   -0.4290 C   0  0  1  0  0  0  0  0  0  0  0  0
    0.5280   14.8500   -0.1670 N   0  0  0  0  0  0  0  0  0  0  0  0
   -2.8500   14.7530   -2.5880 C   0  0  0  0  0  0  0  0  0  0  0  0
   -0.6770   14.4010    0.4910 C   0  0  1  0  0  0  0  0  0  0  0  0
   -3.0690   15.0070   -0.2670 N   0  0  0  0  0  0  0  0  0  0  0  0
   -3.8350   14.5970   -1.4390 C   0  0  1  0  0  0  0  0  0  0  0  0
   -1.0550   15.3170    1.4960 O   0  0  0  0  0  0  0  0  0  0  0  0
   -5.3490   15.5310   -1.4900 Cl  0  0  0  0  0  0  0  0  0  0  0  0
  1  2  1  0
  2  3  1  0
  2  4  1  0
  4  5  1  0
  6  5  1  1
  6  7  1  0
  6  8  1  0
  7  9  1  0
  8 10  1  0
  8 11  1  0
 11 12  1  6
  9 13  1  6
  9 14  1  0
 10 15  1  0
 11 16  1  0
 10 17  1  6
 15 18  1  0
 16 18  1  0
 15 19  1  6
 17 20  1  0
 19 20  1  0
 18 21  1  1
 20 22  1  6
M  CHG  1  13  -1
M  END
