ucsf149-ucsf325
     RDKit          3D

 12 13  0  0  0  0  0  0  0  0999 V2000
   14.0330    9.2020   10.8600 O   0  0  0  0  0  0  0  0  0  0  0  0
   14.0880    8.0740   11.7280 C   0  0  0  0  0  0  0  0  0  0  0  0
   15.0510    6.9890   11.2050 C   0  0  1  0  0  0  0  0  0  0  0  0
   14.8090    5.6780   11.8210 N   0  0  0  0  0  0  0  0  0  0  0  0
   14.9460    6.7760    9.7490 N   0  0  0  0  0  0  0  0  0  0  0  0
   14.7200    4.7120   10.7360 C   0  0  1  0  0  0  0  0  0  0  0  0
   15.4700    5.4120    9.6350 C   0  0  1  0  0  0  0  0  0  0  0  0
   15.3450    3.3460   10.9700 C   0  0  0  0  0  0  0  0  0  0  0  0
   15.2480    4.6620    8.3380 C   0  0  0  0  0  0  0  0  0  0  0  0
   15.2100    2.5040    9.6920 C   0  0  0  0  0  0  0  0  0  0  0  0
   15.7200    3.2050    8.4320 C   0  0  1  0  0  0  0  0  0  0  0  0
   15.2560    2.4550    7.3030 O   0  0  0  0  0  0  0  0  0  0  0  0
  1  2  1  0
  3  2  1  1
  3  4  1  0
  3  5  1  0
  4  6  1  0
  5  7  1  0
  6  7  1  0
  6  8  1  1
  7  9  1  6
  8 10  1  0
  9 11  1  0
 10 11  1  0
 11 12  1  6
M  END
