ucsf371-ucsf511
     RDKit          3D

 21 24  0  0  0  0  0  0  0  0999 V2000
   -4.7960   14.1880    0.6060 C   0  0  0  0  0  0  0  0  0  0  0  0
   -4.3540   14.3710   -0.8330 C   0  0  2  0  0  0  0  0  0  0  0  0
   -4.9810   13.2430   -1.5430 N   0  0  0  0  0  0  0  0  0  0  0  0
   -2.6880   14.3950   -1.1330 S   0  0  0  0  0  0  0  0  0  0  0  0
   -4.9890   15.7310   -1.0950 C   0  0  0  0  0  0  0  0  0  0  0  0
   -5.7290   13.4600   -2.7040 C   0  0  0  0  0  0  0  0  0  0  0  0
   -1.7730   14.8080   -2.9840 S   0  0  0  0  0  0  0  0  0  0  0  0
   -6.2730   15.5510   -1.7610 C   0  0  0  0  0  0  0  0  0  0  0  0
   -2.7940   14.8800   -4.5960 C   0  0  2  0  0  0  0  0  0  0  0  0
   -3.2630   15.8930   -3.4380 O   0  0  0  0  0  0  0  0  0  0  0  0
   -0.0950   15.3860   -3.2040 C   0  0  0  0  0  0  0  0  0  0  0  0
   -0.8280   13.6520   -2.9580 N   0  0  0  0  0  0  0  0  0  0  0  0
   -5.9360   14.8820   -3.0470 C   0  0  0  0  0  0  0  0  0  0  0  0
   -5.6380   12.5750   -3.9330 C   0  0  0  0  0  0  0  0  0  0  0  0
   -7.1120   12.8210   -2.4760 C   0  0  0  0  0  0  0  0  0  0  0  0
   -2.0820   14.4410   -5.5920 O   0  0  0  0  0  0  0  0  0  0  0  0
    0.7930   15.0110   -4.2860 C   0  0  0  0  0  0  0  0  0  0  0  0
   -0.1130   13.1200   -4.0390 C   0  0  0  0  0  0  0  0  0  0  0  0
   -6.8420   11.7550   -3.4850 C   0  0  0  0  0  0  0  0  0  0  0  0
   -2.6780   16.3490   -4.5530 C   0  0  0  0  0  0  0  0  0  0  0  0
    1.2410   13.6280   -4.0800 N   0  0  0  0  0  0  0  0  0  0  0  0
  2  1  1  1
  2  3  1  0
  2  4  1  0
  2  5  1  0
  6  3  1  0
  4  7  1  0
  5  8  1  0
  7  9  1  0
  7 10  1  0
  7 11  1  0
  7 12  1  0
  6 13  1  0
  8 13  1  0
  6 14  1  0
  6 15  1  0
  9 16  1  6
 11 17  1  0
 12 18  1  0
 14 19  1  0
 15 19  1  0
  9 20  1  0
 10 20  1  0
 17 21  1  0
 18 21  1  0
M  END
