ucsf392-ucsf190
     RDKit          3D

 26 28  0  0  0  0  0  0  0  0999 V2000
   -5.3290   15.5640   -0.6700 C   0  0  0  0  0  0  0  0  0  0  0  0
   -3.9880   14.8700   -0.4370 C   0  0  1  0  0  0  0  0  0  0  0  0
   -2.9070   15.5870   -1.2260 C   0  0  0  0  0  0  0  0  0  0  0  0
   -3.5730   14.8060    1.0400 C   0  0  2  0  0  0  0  0  0  0  0  0
   -4.4060   15.6210    1.8770 N   0  0  0  0  0  0  0  0  0  0  0  0
   -2.2390   15.2970    1.2110 N   0  0  0  0  0  0  0  0  0  0  0  0
   -1.6280   14.9590   -1.0260 N   0  0  0  0  0  0  0  0  0  0  0  0
   -1.4100   14.5290    0.3320 C   0  0  1  0  0  0  0  0  0  0  0  0
    0.0790   14.5840    0.5840 C   0  0  0  0  0  0  0  0  0  0  0  0
    0.8630   14.4410   -0.7270 C   0  0  0  0  0  0  0  0  0  0  0  0
    0.0560   13.7690   -1.8120 C   0  0  0  0  0  0  0  0  0  0  0  0
    0.0730   12.3640   -1.6010 O   0  0  0  0  0  0  0  0  0  0  0  0
    1.0170   11.6930   -2.4220 C   0  0  1  0  0  0  0  0  0  0  0  0
    0.6400   10.4100   -2.4860 O   0  0  0  0  0  0  0  0  0  0  0  0
    1.1490   12.3500   -3.8400 C   0  0  0  0  0  0  0  0  0  0  0  0
    0.8570   13.8640   -3.9070 C   0  0  2  0  0  0  0  0  0  0  0  0
   -0.6230   14.1380   -4.2820 C   0  0  1  0  0  0  0  0  0  0  0  0
    1.8760   14.6460   -4.6450 N   0  0  0  0  0  0  0  0  0  0  0  0
   -0.9170   15.6500   -4.2070 C   0  0  1  0  0  0  0  0  0  0  0  0
    1.4430   15.9610   -5.0750 N   0  0  0  0  0  0  0  0  0  0  0  0
   -1.1270   13.4360   -5.5370 C   0  0  0  0  0  0  0  0  0  0  0  0
    0.3800   16.5120   -4.2520 C   0  0  1  0  0  0  0  0  0  0  0  0
   -2.0840   16.0980   -5.0900 C   0  0  0  0  0  0  0  0  0  0  0  0
   -2.6250   13.6410   -5.7360 C   0  0  0  0  0  0  0  0  0  0  0  0
    0.1520   17.8150   -4.7420 O   0  0  0  0  0  0  0  0  0  0  0  0
   -3.1480   15.0370   -5.3850 C   0  0  0  0  0  0  0  0  0  0  0  0
  2  1  1  1
  2  3  1  0
  2  4  1  0
  4  5  1  1
  4  6  1  0
  3  7  1  0
  6  8  1  0
  7  8  1  0
  8  9  1  1
  9 10  1  0
 10 11  1  0
 11 12  1  0
 12 13  1  0
 13 14  1  6
 13 15  1  0
 16 15  1  6
 16 17  1  0
 16 18  1  0
 17 19  1  0
 18 20  1  0
 17 21  1  6
 19 22  1  0
 20 22  1  0
 19 23  1  6
 21 24  1  0
 22 25  1  6
 23 26  1  0
 24 26  1  0
M  CHG  1  14  -1
M  END
