ucsf442-ucsf345
     RDKit          3D

 14 15  0  0  0  0  0  0  0  0999 V2000
    0.0250   15.3880    0.8360 O   0  0  0  0  0  0  0  0  0  0  0  0
   -1.0900   14.6330    0.4300 C   0  0  2  0  0  0  0  0  0  0  0  0
   -1.2560   14.8070   -0.9980 N   0  0  0  0  0  0  0  0  0  0  0  0
   -2.2260   15.0320    1.2300 N   0  0  0  0  0  0  0  0  0  0  0  0
   -3.4530   14.5310    0.6870 C   0  0  2  0  0  0  0  0  0  0  0  0
   -2.5560   14.5240   -1.5960 C   0  0  2  0  0  0  0  0  0  0  0  0
   -2.6500   15.1340   -2.8690 O   0  0  0  0  0  0  0  0  0  0  0  0
   -3.6920   15.0030   -0.7280 C   0  0  1  0  0  0  0  0  0  0  0  0
   -4.6260   15.0900    1.3300 N   0  0  0  0  0  0  0  0  0  0  0  0
   -5.0340   14.4940   -0.9130 N   0  0  0  0  0  0  0  0  0  0  0  0
   -5.5980   15.2040    0.2030 C   0  0  1  0  0  0  0  0  0  0  0  0
   -7.0570   14.7320    0.5900 C   0  0  2  0  0  0  0  0  0  0  0  0
   -7.1860   14.4160    2.0100 N   0  0  0  0  0  0  0  0  0  0  0  0
   -7.4690   13.5940   -0.1250 O   0  0  0  0  0  0  0  0  0  0  0  0
  2  1  1  1
  2  3  1  0
  2  4  1  0
  5  4  1  1
  3  6  1  0
  6  7  1  6
  5  8  1  0
  6  8  1  0
  5  9  1  0
  8 10  1  6
 11  9  1  1
 10 11  1  0
 11 12  1  0
 12 13  1  1
 12 14  1  0
M  END
