ucsf303-ucsf028
     RDKit          3D

 26 29  0  0  0  0  0  0  0  0999 V2000
   -2.9800   14.5430   -3.5340 O   0  0  0  0  0  0  0  0  0  0  0  0
   -4.1400   14.4970   -2.4230 S   0  0  0  0  0  0  0  0  0  0  0  0
   -4.9400   15.8320   -2.6120 O   0  0  0  0  0  0  0  0  0  0  0  0
   -5.1060   13.1960   -2.6400 N   0  0  0  0  0  0  0  0  0  0  0  0
   -3.3630   14.7130   -0.8690 C   0  0  1  0  0  0  0  0  0  0  0  0
   -4.9160   12.0300   -1.8200 C   0  0  1  0  0  0  0  0  0  0  0  0
   -1.8280   14.6190   -0.7130 C   0  0  2  0  0  0  0  0  0  0  0  0
   -3.9320   15.7720    0.0740 C   0  0  0  0  0  0  0  0  0  0  0  0
   -1.4130   13.3720   -1.6110 C   0  0  0  0  0  0  0  0  0  0  0  0
   -5.9960   11.0770   -2.0430 N   0  0  0  0  0  0  0  0  0  0  0  0
   -3.3820   11.2590   -2.3570 S   0  0  0  0  0  0  0  0  0  0  0  0
   -1.6570   14.6970    0.8100 C   0  0  1  0  0  0  0  0  0  0  0  0
   -3.9800   15.2340    1.4770 C   0  0  0  0  0  0  0  0  0  0  0  0
   -0.8030   15.7160   -0.8930 C   0  0  0  0  0  0  0  0  0  0  0  0
   -4.1120    9.6320   -2.4470 C   0  0  0  0  0  0  0  0  0  0  0  0
   -5.4780    9.6930   -1.9150 N   0  0  0  0  0  0  0  0  0  0  0  0
   -2.8320   14.2400    1.6590 C   0  0  0  0  0  0  0  0  0  0  0  0
   -0.4790   13.3000   -2.8330 C   0  0  2  0  0  0  0  0  0  0  0  0
    0.3380   15.0670   -0.1820 N   0  0  0  0  0  0  0  0  0  0  0  0
   -0.2150   14.3330    0.9750 C   0  0  0  0  0  0  0  0  0  0  0  0
   -1.0570   12.8180   -4.1510 C   0  0  0  0  0  0  0  0  0  0  0  0
    0.6680   12.5080   -2.5700 O   0  0  0  0  0  0  0  0  0  0  0  0
    0.4720   11.2590   -3.3000 N   0  0  0  0  0  0  0  0  0  0  0  0
   -0.1100   11.7050   -4.5480 C   0  0  1  0  0  0  0  0  0  0  0  0
   -0.7560   10.6320   -5.2070 O   0  0  0  0  0  0  0  0  0  0  0  0
   -0.4080   10.5950   -6.5810 C   0  0  0  0  0  0  0  0  0  0  0  0
  2  1  1  0
  2  3  1  0
  2  4  1  0
  5  2  1  6
  6  4  1  6
  5  7  1  0
  5  8  1  0
  7  9  1  6
  6 10  1  0
  6 11  1  0
  7 12  1  0
  8 13  1  0
  7 14  1  0
 11 15  1  0
 10 16  1  0
 15 16  1  0
 12 17  1  1
 13 17  1  0
 18  9  1  1
 14 19  1  0
 12 20  1  0
 19 20  1  0
 18 21  1  0
 18 22  1  0
 22 23  1  0
 21 24  1  0
 23 24  1  0
 24 25  1  1
 25 26  1  0
M  END
