ucsf584-ucsf151
     RDKit          3D

 20 22  0  0  0  0  0  0  0  0999 V2000
    0.3640   12.9540   -1.6650 O   0  0  0  0  0  0  0  0  0  0  0  0
   -0.2300   13.6800   -2.6000 C   0  0  2  0  0  0  0  0  0  0  0  0
   -0.0450   15.0040   -2.1410 O   0  0  0  0  0  0  0  0  0  0  0  0
   -1.7560   13.2690   -2.7370 C   0  0  1  0  0  0  0  0  0  0  0  0
   -2.8710   14.4290   -2.7560 C   0  0  2  0  0  0  0  0  0  0  0  0
   -1.9480   12.3510   -3.9870 C   0  0  0  0  0  0  0  0  0  0  0  0
   -2.9480   15.1990   -1.3960 C   0  0  0  0  0  0  0  0  0  0  0  0
   -4.3280   13.8520   -2.9600 C   0  0  0  0  0  0  0  0  0  0  0  0
   -2.4060   15.2330   -4.0560 C   0  0  2  0  0  0  0  0  0  0  0  0
   -2.7250   12.9250   -5.0990 N   0  0  0  0  0  0  0  0  0  0  0  0
   -3.2200   16.3450   -4.4540 O   0  0  0  0  0  0  0  0  0  0  0  0
   -3.9850   14.6720   -0.3970 C   0  0  0  0  0  0  0  0  0  0  0  0
   -5.5160   14.6490   -2.3740 C   0  0  0  0  0  0  0  0  0  0  0  0
   -2.3060   14.3160   -5.3050 C   0  0  0  0  0  0  0  0  0  0  0  0
   -5.3600   15.1120   -0.9170 C   0  0  1  0  0  0  0  0  0  0  0  0
   -6.5770   14.8780    0.0250 C   0  0  0  0  0  0  0  0  0  0  0  0
   -6.3070   14.7860    1.4480 N   0  0  0  0  0  0  0  0  0  0  0  0
   -7.4420   13.7440   -0.2010 N   0  0  0  0  0  0  0  0  0  0  0  0
   -8.3990   13.8970    0.9110 C   0  0  0  0  0  0  0  0  0  0  0  0
   -7.5960   14.4930    2.0670 C   0  0  0  0  0  0  0  0  0  0  0  0
  2  1  1  1
  2  3  1  0
  2  4  1  0
  4  5  1  0
  4  6  1  6
  5  7  1  1
  5  8  1  0
  5  9  1  0
  6 10  1  0
  9 11  1  6
  7 12  1  0
  8 13  1  0
  9 14  1  0
 10 14  1  0
 12 15  1  0
 13 15  1  0
 15 16  1  1
 16 17  1  0
 16 18  1  0
 18 19  1  0
 17 20  1  0
 19 20  1  0
M  CHG  1   1  -1
M  END
