ucsf169-ucsf392
     RDKit          3D

 24 25  0  0  0  0  0  0  0  0999 V2000
    1.2450   18.5160   -5.6610 C   0  0  0  0  0  0  0  0  0  0  0  0
    0.3230   18.1100   -4.6800 O   0  0  0  0  0  0  0  0  0  0  0  0
   -0.2350   16.8560   -5.0530 C   0  0  2  0  0  0  0  0  0  0  0  0
   -1.6090   16.7800   -4.3970 C   0  0  1  0  0  0  0  0  0  0  0  0
    0.6790   15.6760   -4.7110 C   0  0  0  0  0  0  0  0  0  0  0  0
   -2.3180   17.9790   -4.7290 O   0  0  0  0  0  0  0  0  0  0  0  0
   -2.3810   15.5560   -4.8610 C   0  0  0  0  0  0  0  0  0  0  0  0
   -0.1000   14.4320   -4.2690 C   0  0  2  0  0  0  0  0  0  0  0  0
    0.7250   13.1100   -4.3490 C   0  0  0  0  0  0  0  0  0  0  0  0
   -1.4940   14.3050   -4.9380 C   0  0  0  0  0  0  0  0  0  0  0  0
    1.0060   12.4300   -2.9740 C   0  0  1  0  0  0  0  0  0  0  0  0
    0.2600   13.2170   -2.0640 O   0  0  0  0  0  0  0  0  0  0  0  0
    0.4660   11.2220   -2.9590 O   0  0  0  0  0  0  0  0  0  0  0  0
    0.9890   13.9490   -1.1010 C   0  0  0  0  0  0  0  0  0  0  0  0
    0.2320   13.6330    0.1750 C   0  0  0  0  0  0  0  0  0  0  0  0
   -0.2310   14.8470    0.8850 C   0  0  0  0  0  0  0  0  0  0  0  0
   -1.5990   15.0430    0.3430 C   0  0  1  0  0  0  0  0  0  0  0  0
   -2.5300   15.6150    1.2270 N   0  0  0  0  0  0  0  0  0  0  0  0
   -1.6670   15.6610   -0.9450 N   0  0  0  0  0  0  0  0  0  0  0  0
   -3.7190   14.9150    0.9530 C   0  0  1  0  0  0  0  0  0  0  0  0
   -2.9580   15.4060   -1.5410 C   0  0  0  0  0  0  0  0  0  0  0  0
   -4.6740   15.5350    1.8190 N   0  0  0  0  0  0  0  0  0  0  0  0
   -4.0670   14.9100   -0.5630 C   0  0  2  0  0  0  0  0  0  0  0  0
   -5.3490   15.6660   -0.9130 C   0  0  0  0  0  0  0  0  0  0  0  0
  1  2  1  0
  3  2  1  1
  3  4  1  0
  3  5  1  0
  4  6  1  6
  4  7  1  0
  5  8  1  0
  8  9  1  6
  7 10  1  0
  8 10  1  0
  9 11  1  0
 11 12  1  0
 11 13  1  6
 12 14  1  0
 14 15  1  0
 15 16  1  0
 17 16  1  1
 17 18  1  0
 17 19  1  0
 18 20  1  0
 19 21  1  0
 20 22  1  1
 20 23  1  0
 21 23  1  0
 23 24  1  1
M  CHG  1  13  -1
M  END
