ucsf260-ucsf364
     RDKit          3D

 16 17  0  0  0  0  0  0  0  0999 V2000
    0.6060   11.2830   -2.7210 O   0  0  0  0  0  0  0  0  0  0  0  0
    0.8990   12.5240   -3.0350 C   0  0  0  0  0  0  0  0  0  0  0  0
    1.9440   12.8050   -2.1720 O   0  0  0  0  0  0  0  0  0  0  0  0
    1.3310   12.7810   -4.4920 C   0  0  0  0  0  0  0  0  0  0  0  0
   -0.2040   13.3070   -2.6480 O   0  0  0  0  0  0  0  0  0  0  0  0
    0.2680   13.4010   -5.4250 C   0  0  0  0  0  0  0  0  0  0  0  0
   -0.6820   12.4200   -6.0040 N   0  0  0  0  0  0  0  0  0  0  0  0
   -1.6260   11.9150   -5.0180 C   0  0  0  0  0  0  0  0  0  0  0  0
   -0.0670   11.2930   -6.7160 C   0  0  1  0  0  0  0  0  0  0  0  0
    1.3580   11.3950   -6.7040 O   0  0  0  0  0  0  0  0  0  0  0  0
   -1.9800   10.5770   -5.4750 N   0  0  0  0  0  0  0  0  0  0  0  0
   -0.6840   10.0720   -5.9680 C   0  0  1  0  0  0  0  0  0  0  0  0
   -0.3840   11.1650   -8.1900 C   0  0  0  0  0  0  0  0  0  0  0  0
   -0.9600    8.8380   -6.8400 C   0  0  0  0  0  0  0  0  0  0  0  0
    0.3440    9.9440   -8.7460 C   0  0  0  0  0  0  0  0  0  0  0  0
    0.0700    8.6680   -7.9500 C   0  0  0  0  0  0  0  0  0  0  0  0
  2  1  1  0
  2  3  1  0
  2  4  1  0
  2  5  1  0
  4  6  1  0
  6  7  1  0
  7  8  1  0
  7  9  1  0
  9 10  1  6
  8 11  1  0
  9 12  1  0
 11 12  1  0
  9 13  1  0
 12 14  1  6
 13 15  1  0
 14 16  1  0
 15 16  1  0
M  CHG  1   1  -1
M  END
