ucsf422-ucsf380
     RDKit          3D

 29 32  0  0  0  0  0  0  0  0999 V2000
    0.5690   10.5910   -2.4910 O   0  0  0  0  0  0  0  0  0  0  0  0
    0.2090   11.8810   -2.5540 C   0  0  1  0  0  0  0  0  0  0  0  0
    0.6560   12.5910   -1.3770 O   0  0  0  0  0  0  0  0  0  0  0  0
    0.9330   12.5830   -3.7660 C   0  0  0  0  0  0  0  0  0  0  0  0
   -0.0300   13.8460   -1.1240 C   0  0  1  0  0  0  0  0  0  0  0  0
    0.8500   14.1470   -3.7830 C   0  0  1  0  0  0  0  0  0  0  0  0
    0.7710   14.8600   -1.4580 O   0  0  0  0  0  0  0  0  0  0  0  0
   -1.3340   13.8970   -2.0300 C   0  0  0  0  0  0  0  0  0  0  0  0
    1.7560   14.6650   -4.8350 C   0  0  0  0  0  0  0  0  0  0  0  0
   -0.4270   14.9890   -4.0750 C   0  0  1  0  0  0  0  0  0  0  0  0
    1.4500   16.1040   -5.0710 N   0  0  0  0  0  0  0  0  0  0  0  0
    0.1930   16.3660   -4.3740 C   0  0  1  0  0  0  0  0  0  0  0  0
   -1.3850   14.5190   -5.1770 C   0  0  0  0  0  0  0  0  0  0  0  0
   -2.6390   14.4180   -1.3360 C   0  0  0  0  0  0  0  0  0  0  0  0
   -1.5810   12.6690   -3.0030 C   0  0  0  0  0  0  0  0  0  0  0  0
   -0.6840   17.3210   -5.1860 C   0  0  0  0  0  0  0  0  0  0  0  0
   -2.4690   15.5440   -5.5240 C   0  0  1  0  0  0  0  0  0  0  0  0
   -2.3620   15.1910   -0.0290 C   0  0  0  0  0  0  0  0  0  0  0  0
   -3.5030   15.3100   -2.1920 C   0  0  0  0  0  0  0  0  0  0  0  0
   -2.9910   12.0630   -2.8420 C   0  0  0  0  0  0  0  0  0  0  0  0
   -1.3640   12.9330   -4.5050 C   0  0  0  0  0  0  0  0  0  0  0  0
   -4.2120   14.8530   -4.9860 Br  0  0  0  0  0  0  0  0  0  0  0  0
   -2.1580   16.9600   -5.0340 C   0  0  0  0  0  0  0  0  0  0  0  0
   -3.6200   15.6740    0.7050 C   0  0  0  0  0  0  0  0  0  0  0  0
   -4.8820   15.3460   -1.5760 C   0  0  0  0  0  0  0  0  0  0  0  0
   -3.3920   11.2300   -4.0650 C   0  0  0  0  0  0  0  0  0  0  0  0
   -1.2400   11.6520   -5.3150 C   0  0  0  0  0  0  0  0  0  0  0  0
   -4.9020   15.8120   -0.1290 C   0  0  0  0  0  0  0  0  0  0  0  0
   -2.2050   10.6040   -4.7950 C   0  0  0  0  0  0  0  0  0  0  0  0
  2  1  1  1
  2  3  1  0
  2  4  1  0
  3  5  1  0
  6  4  1  6
  5  7  1  6
  5  8  1  0
  6  9  1  0
  6 10  1  0
  9 11  1  0
 10 12  1  0
 11 12  1  0
 10 13  1  6
  8 14  1  0
  8 15  1  0
 12 16  1  6
 13 17  1  0
 14 18  1  0
 14 19  1  0
 15 20  1  0
 15 21  1  0
 17 22  1  1
 16 23  1  0
 17 23  1  0
 18 24  1  0
 19 25  1  0
 20 26  1  0
 21 27  1  0
 24 28  1  0
 25 28  1  0
 26 29  1  0
 27 29  1  0
M  CHG  2   1  -1   7  -1
M  END
