ucsf303-ucsf339
     RDKit          3D

 28 31  0  0  0  0  0  0  0  0999 V2000
   -1.7610   12.3790   -2.8370 O   0  0  0  0  0  0  0  0  0  0  0  0
   -3.0320   13.1420   -2.2510 S   0  0  0  0  0  0  0  0  0  0  0  0
   -3.1410   14.4920   -3.0940 O   0  0  0  0  0  0  0  0  0  0  0  0
   -4.4540   12.4020   -2.5910 N   0  0  0  0  0  0  0  0  0  0  0  0
   -2.6920   13.6810   -0.5530 C   0  0  1  0  0  0  0  0  0  0  0  0
   -4.7270   11.1770   -1.9640 C   0  0  1  0  0  0  0  0  0  0  0  0
   -1.3240   13.7100    0.0620 C   0  0  0  0  0  0  0  0  0  0  0  0
   -3.1430   15.0840   -0.3520 C   0  0  2  0  0  0  0  0  0  0  0  0
   -5.8870   10.5110   -2.5150 N   0  0  0  0  0  0  0  0  0  0  0  0
   -3.3340   10.0930   -2.2960 S   0  0  0  0  0  0  0  0  0  0  0  0
   -1.4970   14.3260    1.4630 C   0  0  0  0  0  0  0  0  0  0  0  0
   -3.8870   15.1470    0.9250 C   0  0  2  0  0  0  0  0  0  0  0  0
   -3.5960   15.6170   -1.6690 C   0  0  1  0  0  0  0  0  0  0  0  0
   -4.4220    8.6650   -2.3310 C   0  0  0  0  0  0  0  0  0  0  0  0
   -5.8070    9.1180   -2.0850 N   0  0  0  0  0  0  0  0  0  0  0  0
   -2.9890   14.4230    1.9360 C   0  0  0  0  0  0  0  0  0  0  0  0
   -2.4570   15.5010   -2.7800 C   0  0  2  0  0  0  0  0  0  0  0  0
   -5.2930   14.5880    0.7180 C   0  0  0  0  0  0  0  0  0  0  0  0
   -5.0570   15.1200   -1.8720 C   0  0  0  0  0  0  0  0  0  0  0  0
   -1.0640   15.5160   -2.1240 C   0  0  0  0  0  0  0  0  0  0  0  0
   -2.4220   16.3140   -4.0710 C   0  0  0  0  0  0  0  0  0  0  0  0
   -5.6230   14.2050   -0.7420 C   0  0  0  0  0  0  0  0  0  0  0  0
    0.1350   15.4100   -3.0850 C   0  0  1  0  0  0  0  0  0  0  0  0
   -1.4920   15.7440   -5.0590 N   0  0  0  0  0  0  0  0  0  0  0  0
    1.3270   14.6050   -2.4100 C   0  0  2  0  0  0  0  0  0  0  0  0
   -0.3490   14.9550   -4.4880 C   0  0  0  0  0  0  0  0  0  0  0  0
    2.5020   14.8430   -2.9650 O   0  0  0  0  0  0  0  0  0  0  0  0
    1.1070   13.2020   -2.5650 O   0  0  0  0  0  0  0  0  0  0  0  0
  2  1  1  0
  2  3  1  0
  2  4  1  0
  5  2  1  6
  6  4  1  6
  5  7  1  0
  8  5  1  6
  6  9  1  0
  6 10  1  0
  7 11  1  0
  8 12  1  0
  8 13  1  0
 10 14  1  0
  9 15  1  0
 14 15  1  0
 11 16  1  0
 12 16  1  1
 13 17  1  0
 12 18  1  0
 13 19  1  6
 17 20  1  1
 17 21  1  0
 18 22  1  0
 19 22  1  0
 23 20  1  1
 21 24  1  0
 23 25  1  0
 23 26  1  0
 24 26  1  0
 25 27  1  6
 25 28  1  0
M  CHG  1  27  -1
M  END
