ucsf169-ucsf367
     RDKit          3D

 20 21  0  0  0  0  0  0  0  0999 V2000
    1.1560   18.2910   -5.5740 C   0  0  0  0  0  0  0  0  0  0  0  0
   -0.0370   18.1430   -4.8220 O   0  0  0  0  0  0  0  0  0  0  0  0
   -0.2040   16.8550   -4.1870 C   0  0  1  0  0  0  0  0  0  0  0  0
   -1.7300   16.7190   -4.1470 C   0  0  1  0  0  0  0  0  0  0  0  0
    0.5760   15.6870   -4.8630 C   0  0  0  0  0  0  0  0  0  0  0  0
   -2.2800   17.9230   -4.6980 O   0  0  0  0  0  0  0  0  0  0  0  0
   -2.3060   15.5140   -4.8450 C   0  0  0  0  0  0  0  0  0  0  0  0
   -0.1020   14.2900   -5.0470 C   0  0  1  0  0  0  0  0  0  0  0  0
    0.7380   13.0570   -4.5410 C   0  0  1  0  0  0  0  0  0  0  0  0
   -1.5350   14.2600   -4.4940 C   0  0  0  0  0  0  0  0  0  0  0  0
    0.3510   12.5140   -3.0950 C   0  0  2  0  0  0  0  0  0  0  0  0
    0.7640   12.0450   -5.6290 O   0  0  0  0  0  0  0  0  0  0  0  0
    1.2380   12.9570   -2.0930 O   0  0  0  0  0  0  0  0  0  0  0  0
    0.4710   11.2090   -2.9770 O   0  0  0  0  0  0  0  0  0  0  0  0
   -0.2020   10.9670   -5.6680 C   0  0  0  0  0  0  0  0  0  0  0  0
   -0.1040   10.1690   -6.9770 C   0  0  0  0  0  0  0  0  0  0  0  0
   -1.6130   11.5060   -5.6570 C   0  0  0  0  0  0  0  0  0  0  0  0
   -1.0450    8.9630   -6.9640 C   0  0  0  0  0  0  0  0  0  0  0  0
   -2.6050   10.3470   -5.5960 C   0  0  0  0  0  0  0  0  0  0  0  0
   -2.4890    9.4080   -6.7790 C   0  0  0  0  0  0  0  0  0  0  0  0
  1  2  1  0
  3  2  1  6
  3  4  1  0
  3  5  1  0
  4  6  1  6
  4  7  1  0
  8  5  1  1
  8  9  1  0
  7 10  1  0
  8 10  1  0
  9 11  1  0
  9 12  1  6
 11 13  1  1
 11 14  1  0
 12 15  1  0
 15 16  1  0
 15 17  1  0
 16 18  1  0
 17 19  1  0
 18 20  1  0
 19 20  1  0
M  CHG  1  14  -1
M  END
