ucsf333-ucsf124
     RDKit          3D

 26 29  0  0  0  0  0  0  0  0999 V2000
   -6.2680   15.5400   -1.3050 Cl  0  0  0  0  0  0  0  0  0  0  0  0
   -4.6200   14.8580   -1.2400 C   0  0  1  0  0  0  0  0  0  0  0  0
   -3.8180   15.2420   -2.4590 C   0  0  0  0  0  0  0  0  0  0  0  0
   -3.8810   15.2940    0.0270 C   0  0  0  0  0  0  0  0  0  0  0  0
   -2.5360   14.4160   -2.5180 C   0  0  1  0  0  0  0  0  0  0  0  0
   -2.4480   14.7380    0.1360 C   0  0  0  0  0  0  0  0  0  0  0  0
   -1.6210   15.0460   -3.4880 N   0  0  0  0  0  0  0  0  0  0  0  0
   -1.8630   14.1020   -1.1520 C   0  0  2  0  0  0  0  0  0  0  0  0
   -0.1950   14.8500   -3.1850 C   0  0  1  0  0  0  0  0  0  0  0  0
   -0.0940   14.4700   -1.3750 S   0  0  0  0  0  0  0  0  0  0  0  0
    0.6030   13.8730   -4.1080 C   0  0  0  0  0  0  0  0  0  0  0  0
    0.7270   12.3160   -3.8480 C   0  0  1  0  0  0  0  0  0  0  0  0
    0.1930   11.7210   -2.4740 C   0  0  2  0  0  0  0  0  0  0  0  0
    0.3060   11.4810   -5.0590 N   0  0  0  0  0  0  0  0  0  0  0  0
    0.8590   12.1370   -1.4310 O   0  0  0  0  0  0  0  0  0  0  0  0
    0.4210   10.3260   -2.4310 O   0  0  0  0  0  0  0  0  0  0  0  0
   -0.9860   10.8140   -4.9310 C   0  0  1  0  0  0  0  0  0  0  0  0
    0.5060   11.8540   -6.4660 C   0  0  1  0  0  0  0  0  0  0  0  0
   -1.9170   11.6400   -4.2850 O   0  0  0  0  0  0  0  0  0  0  0  0
    1.8490   11.8230   -6.8520 O   0  0  0  0  0  0  0  0  0  0  0  0
   -1.4820   10.4470   -6.3410 C   0  0  1  0  0  0  0  0  0  0  0  0
   -0.3500   10.8530   -7.3010 C   0  0  2  0  0  0  0  0  0  0  0  0
   -1.9440    8.9940   -6.5110 C   0  0  0  0  0  0  0  0  0  0  0  0
    0.3230    9.6390   -7.9810 C   0  0  0  0  0  0  0  0  0  0  0  0
   -1.9770    8.5110   -7.9570 C   0  0  0  0  0  0  0  0  0  0  0  0
   -0.6640    8.7250   -8.7090 C   0  0  0  0  0  0  0  0  0  0  0  0
  2  1  1  6
  2  3  1  0
  2  4  1  0
  5  3  1  1
  4  6  1  0
  5  7  1  0
  5  8  1  0
  8  6  1  1
  7  9  1  0
  8 10  1  0
  9 10  1  0
  9 11  1  6
 12 11  1  6
 12 13  1  0
 12 14  1  0
 13 15  1  1
 13 16  1  0
 14 17  1  0
 14 18  1  0
 17 19  1  6
 18 20  1  6
 17 21  1  0
 18 22  1  0
 21 22  1  0
 21 23  1  1
 22 24  1  1
 23 25  1  0
 24 26  1  0
 25 26  1  0
M  CHG  1  15  -1
M  END
