ucsf260-ucsf264
     RDKit          3D

 18 19  0  0  0  0  0  0  0  0999 V2000
    0.8910   11.1610   -2.7670 O   0  0  0  0  0  0  0  0  0  0  0  0
    0.8670   12.4720   -2.8880 C   0  0  1  0  0  0  0  0  0  0  0  0
    1.7250   12.8720   -1.8630 O   0  0  0  0  0  0  0  0  0  0  0  0
    1.4830   12.9570   -4.2220 C   0  0  0  0  0  0  0  0  0  0  0  0
    0.3660   13.0500   -5.2600 C   0  0  0  0  0  0  0  0  0  0  0  0
   -0.3510   11.7700   -5.3650 N   0  0  0  0  0  0  0  0  0  0  0  0
   -1.7020   11.7920   -4.8300 C   0  0  0  0  0  0  0  0  0  0  0  0
   -0.5970   11.3460   -6.7200 C   0  0  2  0  0  0  0  0  0  0  0  0
   -2.3710   10.5910   -5.3510 N   0  0  0  0  0  0  0  0  0  0  0  0
   -1.6430   10.2340   -6.5780 C   0  0  2  0  0  0  0  0  0  0  0  0
    0.5380   10.9460   -7.6280 C   0  0  0  0  0  0  0  0  0  0  0  0
   -1.0200    8.8390   -6.5860 C   0  0  0  0  0  0  0  0  0  0  0  0
    0.0220    9.9230   -8.6110 C   0  0  1  0  0  0  0  0  0  0  0  0
    1.0070    9.8140   -9.7370 C   0  0  0  0  0  0  0  0  0  0  0  0
   -0.2720    8.5960   -7.9010 C   0  0  0  0  0  0  0  0  0  0  0  0
    1.8880    8.8140   -9.4940 F   0  0  0  0  0  0  0  0  0  0  0  0
    0.3870    9.5630  -10.8960 F   0  0  0  0  0  0  0  0  0  0  0  0
    1.6940   10.9520   -9.9070 F   0  0  0  0  0  0  0  0  0  0  0  0
  2  1  1  6
  2  3  1  0
  2  4  1  0
  4  5  1  0
  5  6  1  0
  6  7  1  0
  6  8  1  0
  7  9  1  0
  8 10  1  0
  9 10  1  0
  8 11  1  1
 10 12  1  1
 11 13  1  0
 13 14  1  6
 12 15  1  0
 13 15  1  0
 14 16  1  0
 14 17  1  0
 14 18  1  0
M  CHG  1   1  -1
M  END
