ucsf039-ucsf260
     RDKit          3D

 32 36  0  0  0  0  0  0  0  0999 V2000
   -4.4900   14.7210    0.9410 N   0  0  0  0  0  0  0  0  0  0  0  0
   -3.5150   15.2580    0.0190 C   0  0  1  0  0  0  0  0  0  0  0  0
   -2.0320   15.0030    0.3900 C   0  0  2  0  0  0  0  0  0  0  0  0
   -3.8920   14.6480   -1.2410 N   0  0  0  0  0  0  0  0  0  0  0  0
   -3.0520   15.0480   -2.3770 C   0  0  0  0  0  0  0  0  0  0  0  0
   -1.3130   14.3950   -0.8180 C   0  0  1  0  0  0  0  0  0  0  0  0
   -1.5770   14.1040    1.4120 N   0  0  0  0  0  0  0  0  0  0  0  0
   -1.6110   15.0470   -2.0850 N   0  0  0  0  0  0  0  0  0  0  0  0
    0.0220   14.5550   -0.3060 N   0  0  0  0  0  0  0  0  0  0  0  0
   -0.1440   14.1900    1.1070 C   0  0  0  0  0  0  0  0  0  0  0  0
   -0.7680   14.7040   -3.2840 C   0  0  1  0  0  0  0  0  0  0  0  0
   -1.3580   13.4310   -3.9050 C   0  0  0  0  0  0  0  0  0  0  0  0
   -0.3610   15.7830   -4.3670 C   0  0  2  0  0  0  0  0  0  0  0  0
   -0.3490   12.5360   -4.6460 C   0  0  2  0  0  0  0  0  0  0  0  0
    0.8680   16.6390   -4.0750 C   0  0  0  0  0  0  0  0  0  0  0  0
   -1.4340   16.7250   -4.8070 N   0  0  0  0  0  0  0  0  0  0  0  0
    1.1450   12.8890   -4.3910 C   0  0  0  0  0  0  0  0  0  0  0  0
   -0.8780   18.0010   -5.2560 C   0  0  1  0  0  0  0  0  0  0  0  0
    0.8950   17.7780   -5.4780 S   0  0  0  0  0  0  0  0  0  0  0  0
   -0.7840   12.1830   -6.0040 N   0  0  0  0  0  0  0  0  0  0  0  0
   -1.5080   18.5170   -6.5430 C   0  0  0  0  0  0  0  0  0  0  0  0
    1.7430   12.2300   -3.1320 C   0  0  2  0  0  0  0  0  0  0  0  0
   -2.1960   11.8600   -5.9890 C   0  0  0  0  0  0  0  0  0  0  0  0
   -0.1290   10.9760   -6.4610 C   0  0  1  0  0  0  0  0  0  0  0  0
    0.9680   11.2220   -2.7600 O   0  0  0  0  0  0  0  0  0  0  0  0
    1.5880   13.0740   -2.0270 O   0  0  0  0  0  0  0  0  0  0  0  0
   -2.2730   10.4930   -5.5020 N   0  0  0  0  0  0  0  0  0  0  0  0
   -1.1230    9.8420   -6.1340 C   0  0  1  0  0  0  0  0  0  0  0  0
    0.3680   10.9720   -7.9040 C   0  0  0  0  0  0  0  0  0  0  0  0
   -1.5760    9.0480   -7.3460 C   0  0  0  0  0  0  0  0  0  0  0  0
    0.7250    9.5650   -8.3630 C   0  0  0  0  0  0  0  0  0  0  0  0
   -0.3790    8.5300   -8.1370 C   0  0  0  0  0  0  0  0  0  0  0  0
  2  1  1  1
  2  3  1  0
  2  4  1  0
  4  5  1  0
  3  6  1  0
  3  7  1  1
  5  8  1  0
  6  8  1  0
  6  9  1  1
  7 10  1  0
  9 10  1  0
  8 11  1  0
 11 12  1  6
 11 13  1  0
 14 12  1  6
 13 15  1  1
 13 16  1  0
 14 17  1  0
 16 18  1  0
 15 19  1  0
 18 19  1  0
 14 20  1  0
 18 21  1  6
 17 22  1  0
 20 23  1  0
 20 24  1  0
 22 25  1  1
 22 26  1  0
 23 27  1  0
 24 28  1  0
 27 28  1  0
 24 29  1  6
 28 30  1  6
 29 31  1  0
 30 32  1  0
 31 32  1  0
M  CHG  1  25  -1
M  END
