ucsf262-ucsf030
     RDKit          3D

 28 31  0  0  0  0  0  0  0  0999 V2000
   -2.8290   15.5660   -5.5620 Cl  0  0  0  0  0  0  0  0  0  0  0  0
   -1.9240   17.0420   -5.0480 C   0  0  1  0  0  0  0  0  0  0  0  0
   -0.6470   16.8310   -4.1980 C   0  0  1  0  0  0  0  0  0  0  0  0
   -1.8090   18.0000   -6.2170 C   0  0  0  0  0  0  0  0  0  0  0  0
   -0.3950   15.3960   -3.6840 C   0  0  2  0  0  0  0  0  0  0  0  0
    0.7100   17.2600   -4.7760 C   0  0  1  0  0  0  0  0  0  0  0  0
   -0.5900   18.8930   -6.2650 C   0  0  0  0  0  0  0  0  0  0  0  0
    1.1580   15.3110   -3.7900 C   0  0  2  0  0  0  0  0  0  0  0  0
    1.3800   16.0030   -5.0670 N   0  0  0  0  0  0  0  0  0  0  0  0
    0.7330   18.2180   -5.9500 C   0  0  0  0  0  0  0  0  0  0  0  0
   -1.3340   14.3260   -4.2560 C   0  0  0  0  0  0  0  0  0  0  0  0
    2.1670   14.1170   -3.4490 C   0  0  2  0  0  0  0  0  0  0  0  0
   -1.9380   13.4030   -3.1750 C   0  0  1  0  0  0  0  0  0  0  0  0
    1.6490   12.9790   -3.0960 O   0  0  0  0  0  0  0  0  0  0  0  0
    2.8440   14.3820   -2.2410 O   0  0  0  0  0  0  0  0  0  0  0  0
   -1.8230   11.9530   -3.6880 C   0  0  0  0  0  0  0  0  0  0  0  0
   -1.2120   13.5630   -1.8820 N   0  0  0  0  0  0  0  0  0  0  0  0
   -1.3360   14.8870   -1.2060 C   0  0  1  0  0  0  0  0  0  0  0  0
    0.2040   13.2830   -2.1920 C   0  0  0  0  0  0  0  0  0  0  0  0
   -0.3870   11.6560   -4.0680 C   0  0  0  0  0  0  0  0  0  0  0  0
   -2.7060   15.4030   -0.6710 C   0  0  1  0  0  0  0  0  0  0  0  0
   -0.3490   15.0060   -0.1230 N   0  0  0  0  0  0  0  0  0  0  0  0
    0.4970   12.8140   -3.6490 C   0  0  0  0  0  0  0  0  0  0  0  0
   -4.1750   14.5910   -1.3320 Cl  0  0  0  0  0  0  0  0  0  0  0  0
   -2.6680   15.3780    0.8690 C   0  0  1  0  0  0  0  0  0  0  0  0
   -0.5900   14.2210    1.0670 C   0  0  0  0  0  0  0  0  0  0  0  0
   -3.9800   15.3960    1.5050 N   0  0  0  0  0  0  0  0  0  0  0  0
   -1.9950   14.2380    1.4090 N   0  0  0  0  0  0  0  0  0  0  0  0
  2  1  1  6
  3  2  1  6
  2  4  1  0
  3  5  1  0
  3  6  1  0
  4  7  1  0
  5  8  1  0
  6  9  1  0
  8  9  1  6
  6 10  1  6
  7 10  1  0
  5 11  1  6
  8 12  1  0
 13 11  1  6
 12 14  1  1
 12 15  1  0
 13 16  1  0
 13 17  1  0
 18 17  1  1
 17 19  1  0
 16 20  1  0
 18 21  1  0
 18 22  1  0
 19 23  1  0
 20 23  1  0
 21 24  1  6
 21 25  1  0
 22 26  1  0
 25 27  1  1
 25 28  1  0
 26 28  1  0
M  CHG  1  14  -1
M  END
