ucsf170-ucsf385
     RDKit          3D

 20 22  0  0  0  0  0  0  0  0999 V2000
   -5.3780   15.1300    0.3500 C   0  0  0  0  0  0  0  0  0  0  0  0
   -4.4370   13.6010    0.1820 S   0  0  0  0  0  0  0  0  0  0  0  0
   -3.9590   13.5700   -1.6100 C   0  0  2  0  0  0  0  0  0  0  0  0
   -2.6330   12.8080   -1.8400 C   0  0  0  0  0  0  0  0  0  0  0  0
   -4.1050   14.8990   -2.3590 C   0  0  0  0  0  0  0  0  0  0  0  0
   -1.6200   13.2350   -2.9360 C   0  0  2  0  0  0  0  0  0  0  0  0
   -3.5440   14.7910   -3.7690 C   0  0  0  0  0  0  0  0  0  0  0  0
   -0.2990   13.7380   -2.3940 C   0  0  1  0  0  0  0  0  0  0  0  0
   -2.0480   14.5130   -3.7340 C   0  0  1  0  0  0  0  0  0  0  0  0
   -1.4180   15.6200   -3.0550 O   0  0  0  0  0  0  0  0  0  0  0  0
    0.2570   12.8350   -1.4360 O   0  0  0  0  0  0  0  0  0  0  0  0
    0.6520   13.9530   -3.2640 O   0  0  0  0  0  0  0  0  0  0  0  0
   -1.0840   14.9040   -1.8490 C   0  0  2  0  0  0  0  0  0  0  0  0
   -0.8370   15.6570   -0.5490 C   0  0  1  0  0  0  0  0  0  0  0  0
   -2.1140   15.7220    0.3230 C   0  0  1  0  0  0  0  0  0  0  0  0
    0.2970   14.9650    0.2170 C   0  0  0  0  0  0  0  0  0  0  0  0
   -3.3240   15.9910   -0.4460 N   0  0  0  0  0  0  0  0  0  0  0  0
   -0.2140   13.7360    0.9350 C   0  0  0  0  0  0  0  0  0  0  0  0
   -2.3460   14.4760    1.1910 C   0  0  0  0  0  0  0  0  0  0  0  0
   -1.1760   14.0810    1.9240 N   0  0  0  0  0  0  0  0  0  0  0  0
  1  2  1  0
  3  2  1  1
  3  4  1  0
  3  5  1  0
  6  4  1  1
  5  7  1  0
  6  8  1  0
  6  9  1  0
  9  7  1  1
  9 10  1  0
  8 11  1  1
  8 12  1  0
  8 13  1  0
 13 10  1  6
 13 14  1  0
 14 15  1  0
 14 16  1  1
 15 17  1  6
 16 18  1  0
 15 19  1  0
 18 20  1  0
 19 20  1  0
M  CHG  1  12  -1
M  END
