ucsf520-ucsf519
     RDKit          3D

 24 26  0  0  0  0  0  0  0  0999 V2000
   -4.3440   14.9020    0.9510 N   0  0  0  0  0  0  0  0  0  0  0  0
   -3.4580   15.3810   -0.0900 C   0  0  1  0  0  0  0  0  0  0  0  0
   -1.9550   15.3490    0.2700 C   0  0  2  0  0  0  0  0  0  0  0  0
   -3.7650   14.6290   -1.2620 N   0  0  0  0  0  0  0  0  0  0  0  0
   -2.9140   15.1680   -2.3260 C   0  0  2  0  0  0  0  0  0  0  0  0
   -0.9850   15.1080   -0.9520 C   0  0  2  0  0  0  0  0  0  0  0  0
   -1.5380   14.4610    1.3530 N   0  0  0  0  0  0  0  0  0  0  0  0
   -3.7580   15.2770   -3.6090 C   0  0  0  0  0  0  0  0  0  0  0  0
   -1.5620   14.6430   -2.2380 N   0  0  0  0  0  0  0  0  0  0  0  0
   -0.0200   14.1880   -0.3680 N   0  0  0  0  0  0  0  0  0  0  0  0
   -0.1290   14.3320    1.0610 C   0  0  0  0  0  0  0  0  0  0  0  0
   -0.7240   14.7840   -3.4700 C   0  0  2  0  0  0  0  0  0  0  0  0
   -3.5350   14.1490   -4.4710 O   0  0  0  0  0  0  0  0  0  0  0  0
   -1.3860   14.5520   -4.8540 C   0  0  0  0  0  0  0  0  0  0  0  0
    0.8060   13.7210   -3.7580 S   0  0  0  0  0  0  0  0  0  0  0  0
   -0.2260   16.2250   -3.7690 C   0  0  2  0  0  0  0  0  0  0  0  0
    0.2600   11.9720   -3.8210 C   0  0  0  0  0  0  0  0  0  0  0  0
   -1.2250   17.1760   -4.1930 O   0  0  0  0  0  0  0  0  0  0  0  0
    0.8850   16.2290   -4.8110 C   0  0  0  0  0  0  0  0  0  0  0  0
   -0.0330   11.3350   -2.4490 C   0  0  2  0  0  0  0  0  0  0  0  0
    0.7670   17.6020   -5.4060 C   0  0  0  0  0  0  0  0  0  0  0  0
   -0.7190   17.8560   -5.3460 C   0  0  0  0  0  0  0  0  0  0  0  0
    0.6900   12.0170   -1.4520 O   0  0  0  0  0  0  0  0  0  0  0  0
    0.5320   10.1560   -2.3200 O   0  0  0  0  0  0  0  0  0  0  0  0
  2  1  1  1
  2  3  1  0
  2  4  1  0
  4  5  1  0
  3  6  1  0
  3  7  1  1
  5  8  1  6
  5  9  1  0
  6  9  1  0
  6 10  1  1
  7 11  1  0
 10 11  1  0
  9 12  1  0
  8 13  1  0
 12 14  1  6
 12 15  1  0
 12 16  1  0
 15 17  1  0
 16 18  1  0
 16 19  1  6
 17 20  1  0
 19 21  1  0
 18 22  1  0
 21 22  1  0
 20 23  1  1
 20 24  1  0
M  CHG  1  24  -1
M  END
