ucsf006-ucsf123
     RDKit          3D

 29 31  0  0  0  0  0  0  0  0999 V2000
   -1.3090   16.1030   -3.0240 C   0  0  0  0  0  0  0  0  0  0  0  0
   -0.3620   15.5820   -2.0670 N   0  0  0  0  0  0  0  0  0  0  0  0
    1.0030   15.2270   -2.6440 C   0  0  0  0  0  0  0  0  0  0  0  0
   -0.8490   14.5780   -1.1440 C   0  0  2  0  0  0  0  0  0  0  0  0
    1.1580   13.8940   -3.4460 C   0  0  2  0  0  0  0  0  0  0  0  0
   -2.2780   14.5590   -0.5480 C   0  0  1  0  0  0  0  0  0  0  0  0
    0.1480   14.4050   -0.1530 N   0  0  0  0  0  0  0  0  0  0  0  0
    2.2880   13.5100   -4.3630 C   0  0  2  0  0  0  0  0  0  0  0  0
   -2.4060   14.4270    0.9760 C   0  0  1  0  0  0  0  0  0  0  0  0
   -0.1340   15.2190    0.9310 C   0  0  0  0  0  0  0  0  0  0  0  0
   -3.3410   15.5550   -0.9350 C   0  0  0  0  0  0  0  0  0  0  0  0
   -0.1600   13.8110   -4.1140 C   0  0  2  0  0  0  0  0  0  0  0  0
    1.7020   12.8920   -5.5060 O   0  0  0  0  0  0  0  0  0  0  0  0
    2.9070   12.4590   -3.8850 O   0  0  0  0  0  0  0  0  0  0  0  0
   -1.1880   14.6420    1.7240 N   0  0  0  0  0  0  0  0  0  0  0  0
   -3.4370   15.3600    1.4300 N   0  0  0  0  0  0  0  0  0  0  0  0
   -4.3000   15.4750    0.2460 C   0  0  0  0  0  0  0  0  0  0  0  0
   -0.3620   15.1760   -4.7680 C   0  0  0  0  0  0  0  0  0  0  0  0
   -1.2210   13.3030   -3.1700 C   0  0  2  0  0  0  0  0  0  0  0  0
   -0.6940   11.8370   -2.7420 C   0  0  1  0  0  0  0  0  0  0  0  0
   -1.7750   15.5320   -5.1540 C   0  0  2  0  0  0  0  0  0  0  0  0
   -2.5880   13.4500   -3.8800 C   0  0  0  0  0  0  0  0  0  0  0  0
   -1.8300   17.2340   -5.7330 S   0  0  0  0  0  0  0  0  0  0  0  0
    0.7170   11.8030   -2.6160 O   0  0  0  0  0  0  0  0  0  0  0  0
   -0.8990   11.5360   -1.4870 O   0  0  0  0  0  0  0  0  0  0  0  0
   -2.8970   14.9000   -4.3170 C   0  0  0  0  0  0  0  0  0  0  0  0
   -1.9080   18.5840   -4.8170 N   0  0  0  0  0  0  0  0  0  0  0  0
   -0.5030   17.4850   -6.5780 O   0  0  0  0  0  0  0  0  0  0  0  0
   -2.9660   17.2330   -6.8280 O   0  0  0  0  0  0  0  0  0  0  0  0
  1  2  1  0
  2  3  1  0
  4  2  1  1
  5  3  1  6
  4  6  1  0
  4  7  1  0
  5  8  1  0
  6  9  1  0
  7 10  1  0
  6 11  1  1
  5 12  1  0
  8 13  1  6
  8 14  1  0
  9 15  1  1
 10 15  1  0
  9 16  1  0
 11 17  1  0
 16 17  1  0
 12 18  1  1
 12 19  1  0
 19 20  1  0
 18 21  1  0
 19 22  1  6
 21 23  1  1
 20 24  1  1
 20 25  1  0
 21 26  1  0
 22 26  1  0
 23 27  1  0
 23 28  1  0
 23 29  1  0
M  CHG  2  14  -1  25  -1
M  END
