ucsf241
     RDKit          3D

  9 10  0  0  0  0  0  0  0  0999 V2000
   -4.3820   15.3330    0.2550 C   0  0  0  0  0  0  0  0  0  0  0  0
   -3.6200   15.2740   -0.8910 C   0  0  0  0  0  0  0  0  0  0  0  0
   -2.3070   15.0510   -0.4830 C   0  0  0  0  0  0  0  0  0  0  0  0
   -1.0970   14.8980   -1.1470 C   0  0  0  0  0  0  0  0  0  0  0  0
    0.0360   14.6960   -0.3610 C   0  0  0  0  0  0  0  0  0  0  0  0
   -0.0820   14.6410    1.0090 C   0  0  0  0  0  0  0  0  0  0  0  0
   -1.2360   14.8000    1.6110 N   0  0  0  0  0  0  0  0  0  0  0  0
   -2.3360   15.0010    0.8810 C   0  0  0  0  0  0  0  0  0  0  0  0
   -3.6020   15.1510    1.3200 N   0  0  0  0  0  0  0  0  0  0  0  0
  1  2  1  0
  2  3  1  0
  3  4  1  0
  4  5  1  0
  5  6  1  0
  6  7  1  0
  3  8  1  0
  7  8  1  0
  1  9  1  0
  8  9  1  0
M  END
