ucsf516-ucsf190
     RDKit          3D

 27 31  0  0  0  0  0  0  0  0999 V2000
    1.2170   11.2870   -2.8300 O   0  0  0  0  0  0  0  0  0  0  0  0
    1.5160   12.5380   -3.0940 C   0  0  1  0  0  0  0  0  0  0  0  0
    2.7620   12.6490   -2.4650 O   0  0  0  0  0  0  0  0  0  0  0  0
    1.7050   12.8410   -4.6170 C   0  0  0  0  0  0  0  0  0  0  0  0
    1.1880   14.2540   -5.0330 C   0  0  1  0  0  0  0  0  0  0  0  0
   -0.0630   14.8960   -4.3620 C   0  0  2  0  0  0  0  0  0  0  0  0
    2.1460   15.1800   -4.4260 N   0  0  0  0  0  0  0  0  0  0  0  0
   -0.1950   14.2550   -3.0170 C   0  0  2  0  0  0  0  0  0  0  0  0
   -1.5030   14.5320   -4.8460 C   0  0  0  0  0  0  0  0  0  0  0  0
    0.2560   16.4090   -4.3710 C   0  0  1  0  0  0  0  0  0  0  0  0
    1.6240   16.4590   -4.8000 N   0  0  0  0  0  0  0  0  0  0  0  0
   -0.4650   17.2150   -5.2690 O   0  0  0  0  0  0  0  0  0  0  0  0
   -0.5210   12.7620   -3.2510 C   0  0  0  0  0  0  0  0  0  0  0  0
   -1.3360   14.9540   -2.4960 N   0  0  0  0  0  0  0  0  0  0  0  0
   -2.3390   14.7300   -3.5560 C   0  0  0  0  0  0  0  0  0  0  0  0
    0.3530   11.8130   -4.1400 C   0  0  0  0  0  0  0  0  0  0  0  0
   -0.4320   11.6850   -2.1430 C   0  0  0  0  0  0  0  0  0  0  0  0
   -1.6130   14.5160   -1.1420 C   0  0  1  0  0  0  0  0  0  0  0  0
   -0.1460   10.6510   -3.2540 C   0  0  0  0  0  0  0  0  0  0  0  0
   -0.3590   14.6450   -0.4130 N   0  0  0  0  0  0  0  0  0  0  0  0
   -2.7210   15.2480   -0.4670 C   0  0  2  0  0  0  0  0  0  0  0  0
   -0.3410   14.5310    1.0260 C   0  0  0  0  0  0  0  0  0  0  0  0
   -2.7220   14.7790    0.9340 C   0  0  1  0  0  0  0  0  0  0  0  0
   -4.1570   15.0030   -0.8470 C   0  0  0  0  0  0  0  0  0  0  0  0
   -1.5200   15.1250    1.6130 N   0  0  0  0  0  0  0  0  0  0  0  0
   -3.8360   15.5010    1.5050 N   0  0  0  0  0  0  0  0  0  0  0  0
   -4.8120   15.5630    0.4000 C   0  0  0  0  0  0  0  0  0  0  0  0
  2  1  1  6
  2  3  1  0
  2  4  1  0
  5  4  1  1
  5  6  1  0
  5  7  1  0
  6  8  1  0
  6  9  1  6
  6 10  1  0
  7 11  1  0
 10 11  1  0
 10 12  1  6
  8 13  1  6
  8 14  1  0
  9 15  1  0
 14 15  1  0
 13 16  1  0
 13 17  1  0
 18 14  1  6
 16 19  1  0
 17 19  1  0
 18 20  1  0
 18 21  1  0
 20 22  1  0
 21 23  1  0
 21 24  1  6
 22 25  1  0
 23 25  1  1
 23 26  1  0
 24 27  1  0
 26 27  1  0
M  CHG  1   1  -1
M  END
