ucsf262-ucsf224
     RDKit          3D

 16 17  0  0  0  0  0  0  0  0999 V2000
   -3.0580   15.4230   -5.8090 Cl  0  0  0  0  0  0  0  0  0  0  0  0
   -2.0350   16.7700   -5.1230 C   0  0  1  0  0  0  0  0  0  0  0  0
   -0.6870   16.4070   -4.5000 C   0  0  1  0  0  0  0  0  0  0  0  0
   -1.8960   17.9430   -6.1050 C   0  0  0  0  0  0  0  0  0  0  0  0
   -0.1580   17.9470   -3.7500 Cl  0  0  0  0  0  0  0  0  0  0  0  0
   -0.5650   15.1710   -3.6030 C   0  0  0  0  0  0  0  0  0  0  0  0
    0.5260   16.2970   -5.3510 C   0  0  2  0  0  0  0  0  0  0  0  0
   -0.4660   18.4230   -6.4920 C   0  0  0  0  0  0  0  0  0  0  0  0
    0.8660   15.4080   -3.1650 C   0  0  2  0  0  0  0  0  0  0  0  0
    1.5640   15.8040   -4.4270 N   0  0  0  0  0  0  0  0  0  0  0  0
    0.7720   17.7050   -5.9130 C   0  0  0  0  0  0  0  0  0  0  0  0
    1.5790   14.4680   -2.1180 C   0  0  2  0  0  0  0  0  0  0  0  0
    2.8280   14.1600   -2.4880 O   0  0  0  0  0  0  0  0  0  0  0  0
    0.7110   13.3090   -1.8530 O   0  0  0  0  0  0  0  0  0  0  0  0
    0.9000   12.0270   -2.5160 C   0  0  0  0  0  0  0  0  0  0  0  0
    0.3260   11.0650   -1.7580 O   0  0  0  0  0  0  0  0  0  0  0  0
  2  1  1  6
  2  3  1  0
  2  4  1  0
  3  5  1  1
  3  6  1  0
  3  7  1  0
  4  8  1  0
  9  6  1  6
  7 10  1  0
  9 10  1  0
  7 11  1  1
  8 11  1  0
  9 12  1  0
 12 13  1  6
 12 14  1  0
 14 15  1  0
 15 16  1  0
M  CHG  2  13  -1  16  -1
M  END
