ucsf115-ucsf523
     RDKit          3D

 18 20  0  0  0  0  0  0  0  0999 V2000
   -2.0540   13.5480   -3.4940 C   0  0  0  0  0  0  0  0  0  0  0  0
   -1.8210   14.7390   -2.6970 N   0  0  0  0  0  0  0  0  0  0  0  0
   -1.8310   14.6910   -1.2290 C   0  0  2  0  0  0  0  0  0  0  0  0
   -0.7260   12.8490   -3.7470 C   0  0  2  0  0  0  0  0  0  0  0  0
   -0.9210   11.5600   -4.3430 O   0  0  0  0  0  0  0  0  0  0  0  0
    0.0040   12.6370   -2.4290 C   0  0  0  0  0  0  0  0  0  0  0  0
    0.6270   11.3040   -2.6150 C   0  0  0  0  0  0  0  0  0  0  0  0
   -0.3810   10.5850   -3.4600 C   0  0  0  0  0  0  0  0  0  0  0  0
   -1.0180   13.6790   -0.5940 N   0  0  0  0  0  0  0  0  0  0  0  0
   -3.1490   15.0110   -0.4920 C   0  0  2  0  0  0  0  0  0  0  0  0
   -0.6420   14.1030    0.7340 C   0  0  1  0  0  0  0  0  0  0  0  0
   -2.9800   14.4750    0.8790 C   0  0  1  0  0  0  0  0  0  0  0  0
   -4.4700   14.4190   -0.7060 N   0  0  0  0  0  0  0  0  0  0  0  0
    0.4000   15.0480    0.6240 N   0  0  0  0  0  0  0  0  0  0  0  0
   -1.6900   14.7450    1.4650 N   0  0  0  0  0  0  0  0  0  0  0  0
   -4.0500   15.2300    1.4820 N   0  0  0  0  0  0  0  0  0  0  0  0
   -5.0800   15.0700    0.4520 C   0  0  2  0  0  0  0  0  0  0  0  0
   -6.0890   14.3030    1.0460 O   0  0  0  0  0  0  0  0  0  0  0  0
  1  2  1  0
  3  2  1  6
  4  1  1  1
  4  5  1  0
  4  6  1  0
  6  7  1  0
  5  8  1  0
  7  8  1  0
  3  9  1  0
  3 10  1  0
  9 11  1  0
 10 12  1  0
 10 13  1  6
 11 14  1  6
 11 15  1  0
 12 15  1  1
 12 16  1  0
 13 17  1  0
 16 17  1  0
 17 18  1  1
M  END
