ucsf274-ucsf248
     RDKit          3D

 31 34  0  0  0  0  0  0  0  0999 V2000
    0.4370   10.6680   -2.1890 O   0  0  0  0  0  0  0  0  0  0  0  0
    0.8480   11.9210   -2.3700 C   0  0  2  0  0  0  0  0  0  0  0  0
    0.6020   12.4970   -1.1120 O   0  0  0  0  0  0  0  0  0  0  0  0
   -0.0500   12.7060   -3.3200 C   0  0  0  0  0  0  0  0  0  0  0  0
    0.3600   12.9060   -4.7860 C   0  0  0  0  0  0  0  0  0  0  0  0
   -0.5290   12.2600   -5.8620 C   0  0  2  0  0  0  0  0  0  0  0  0
   -2.0330   12.0300   -5.3640 C   0  0  2  0  0  0  0  0  0  0  0  0
    0.1990   11.1470   -6.5210 N   0  0  0  0  0  0  0  0  0  0  0  0
   -2.3900   12.7780   -4.1690 O   0  0  0  0  0  0  0  0  0  0  0  0
   -2.4700   10.6490   -5.1300 N   0  0  0  0  0  0  0  0  0  0  0  0
   -0.4780    9.8630   -6.7190 C   0  0  1  0  0  0  0  0  0  0  0  0
   -2.2880   14.2100   -4.2830 C   0  0  0  0  0  0  0  0  0  0  0  0
   -1.7120    9.5640   -5.8130 C   0  0  2  0  0  0  0  0  0  0  0  0
   -0.7820    9.6330   -8.1950 C   0  0  0  0  0  0  0  0  0  0  0  0
   -3.5050   14.9620   -3.6890 C   0  0  0  0  0  0  0  0  0  0  0  0
   -1.1330    8.1780   -8.4810 C   0  0  0  0  0  0  0  0  0  0  0  0
   -2.7480    8.7420   -6.6010 C   0  0  0  0  0  0  0  0  0  0  0  0
   -2.1060    7.6330   -7.4350 C   0  0  0  0  0  0  0  0  0  0  0  0
   -4.0210   14.5450   -2.2800 C   0  0  1  0  0  0  0  0  0  0  0  0
   -3.2300   15.1460   -1.0920 C   0  0  0  0  0  0  0  0  0  0  0  0
   -5.5180   14.9350   -2.1230 C   0  0  0  0  0  0  0  0  0  0  0  0
   -5.7910   15.1100   -0.6430 C   0  0  2  0  0  0  0  0  0  0  0  0
   -3.6250   14.5570    0.2810 C   0  0  0  0  0  0  0  0  0  0  0  0
   -5.0180   14.0140    0.0810 C   0  0  1  0  0  0  0  0  0  0  0  0
   -7.1400   14.9100   -0.1530 N   0  0  0  0  0  0  0  0  0  0  0  0
   -6.8720   14.6080    1.2540 C   0  0  2  0  0  0  0  0  0  0  0  0
   -5.8540   13.5890    1.2240 N   0  0  0  0  0  0  0  0  0  0  0  0
   -8.3600   14.2180    2.2180 S   0  0  0  0  0  0  0  0  0  0  0  0
   -8.5080   12.6950    2.8330 N   0  0  0  0  0  0  0  0  0  0  0  0
   -8.3180   15.2800    3.4120 O   0  0  0  0  0  0  0  0  0  0  0  0
   -9.6170   14.5880    1.2950 O   0  0  0  0  0  0  0  0  0  0  0  0
  2  1  1  1
  2  3  1  0
  2  4  1  0
  4  5  1  0
  6  5  1  1
  6  7  1  0
  6  8  1  0
  7  9  1  1
  7 10  1  0
  8 11  1  0
  9 12  1  0
 10 13  1  0
 11 13  1  0
 11 14  1  6
 12 15  1  0
 14 16  1  0
 13 17  1  6
 16 18  1  0
 17 18  1  0
 19 15  1  6
 19 20  1  0
 19 21  1  0
 22 21  1  6
 20 23  1  0
 22 24  1  0
 24 23  1  1
 22 25  1  0
 25 26  1  0
 24 27  1  0
 26 27  1  0
 26 28  1  6
 28 29  1  0
 28 30  1  0
 28 31  1  0
M  CHG  1   1  -1
M  END
