ucsf320-ucsf012
     RDKit          3D

 27 30  0  0  0  0  0  0  0  0999 V2000
   -2.5750   12.8370   -2.1530 O   0  0  0  0  0  0  0  0  0  0  0  0
   -2.9430   13.3030   -3.3410 C   0  0  2  0  0  0  0  0  0  0  0  0
   -1.4850   13.5520   -3.4800 N   0  0  0  0  0  0  0  0  0  0  0  0
   -4.1250   13.8550   -2.3970 C   0  0  2  0  0  0  0  0  0  0  0  0
   -4.4740   13.0970   -1.0940 C   0  0  0  0  0  0  0  0  0  0  0  0
   -5.3480   14.4340   -3.1130 C   0  0  0  0  0  0  0  0  0  0  0  0
   -1.1600   14.6280   -2.5280 N   0  0  0  0  0  0  0  0  0  0  0  0
   -0.8450   12.2430   -3.4130 C   0  0  2  0  0  0  0  0  0  0  0  0
   -5.5710   13.7050   -0.2210 C   0  0  0  0  0  0  0  0  0  0  0  0
   -6.3620   15.1160   -2.2110 C   0  0  0  0  0  0  0  0  0  0  0  0
   -2.3910   15.4020   -2.5940 C   0  0  2  0  0  0  0  0  0  0  0  0
   -1.0470   14.1250   -1.1320 C   0  0  2  0  0  0  0  0  0  0  0  0
    0.4420   11.9100   -2.7040 C   0  0  0  0  0  0  0  0  0  0  0  0
   -0.7060   11.4810   -4.6170 O   0  0  0  0  0  0  0  0  0  0  0  0
   -2.3430   16.4060   -3.7300 C   0  0  0  0  0  0  0  0  0  0  0  0
   -6.7580   14.2800   -0.9920 C   0  0  2  0  0  0  0  0  0  0  0  0
   -2.8470   15.7220   -1.1310 C   0  0  2  0  0  0  0  0  0  0  0  0
   -2.3380   14.4870   -0.4090 C   0  0  2  0  0  0  0  0  0  0  0  0
    0.1600   14.6250   -0.4910 N   0  0  0  0  0  0  0  0  0  0  0  0
   -0.5290   10.2030   -4.0370 C   0  0  0  0  0  0  0  0  0  0  0  0
    0.0850   10.4510   -2.6550 C   0  0  0  0  0  0  0  0  0  0  0  0
   -7.5780   15.0220   -0.0930 O   0  0  0  0  0  0  0  0  0  0  0  0
   -4.3260   15.9220   -0.8300 C   0  0  0  0  0  0  0  0  0  0  0  0
   -2.3100   14.4090    1.1030 C   0  0  2  0  0  0  0  0  0  0  0  0
   -0.1350   15.4010    0.6760 C   0  0  0  0  0  0  0  0  0  0  0  0
   -3.2210   15.2920    1.7930 N   0  0  0  0  0  0  0  0  0  0  0  0
   -0.9800   14.6560    1.6020 N   0  0  0  0  0  0  0  0  0  0  0  0
  2  1  1  1
  2  3  1  0
  2  4  1  0
  4  5  1  6
  4  6  1  0
  3  7  1  0
  8  3  1  6
  5  9  1  0
  6 10  1  0
  7 11  1  0
  7 12  1  0
  8 13  1  0
  8 14  1  0
 11 15  1  6
  9 16  1  0
 10 16  1  0
 11 17  1  0
 12 18  1  0
 17 18  1  0
 12 19  1  1
 14 20  1  0
 13 21  1  0
 20 21  1  0
 16 22  1  1
 17 23  1  6
 18 24  1  1
 19 25  1  0
 24 26  1  1
 24 27  1  0
 25 27  1  0
M  CHG  1   1  -1
M  END
