ucsf170-ucsf172
     RDKit          3D

 16 16  0  0  0  0  0  0  0  0999 V2000
   -5.0180   15.2730    1.2290 C   0  0  0  0  0  0  0  0  0  0  0  0
   -3.3970   14.4510    1.2240 S   0  0  0  0  0  0  0  0  0  0  0  0
   -3.0250   14.2560   -0.5600 C   0  0  2  0  0  0  0  0  0  0  0  0
   -6.5790   14.3690    1.2760 S   0  0  0  0  0  0  0  0  0  0  0  0
   -7.7980   14.9270    2.4420 C   0  0  0  0  0  0  0  0  0  0  0  0
   -6.3300   12.8600    1.7420 O   0  0  0  0  0  0  0  0  0  0  0  0
   -7.3060   14.4400   -0.1620 O   0  0  0  0  0  0  0  0  0  0  0  0
   -1.5100   14.3790   -0.7120 C   0  0  0  0  0  0  0  0  0  0  0  0
   -3.7970   15.2510   -1.4490 C   0  0  0  0  0  0  0  0  0  0  0  0
   -1.0180   14.4730   -2.1820 C   0  0  1  0  0  0  0  0  0  0  0  0
   -3.4040   15.1820   -2.9400 C   0  0  0  0  0  0  0  0  0  0  0  0
    0.2480   13.6240   -2.5160 C   0  0  2  0  0  0  0  0  0  0  0  0
   -2.1880   14.2930   -3.2160 C   0  0  1  0  0  0  0  0  0  0  0  0
   -1.8260   14.5620   -4.5720 O   0  0  0  0  0  0  0  0  0  0  0  0
    1.3950   14.0480   -1.8040 O   0  0  0  0  0  0  0  0  0  0  0  0
    0.6700   13.7860   -3.7400 O   0  0  0  0  0  0  0  0  0  0  0  0
  1  2  1  0
  3  2  1  1
  1  4  1  0
  4  5  1  0
  4  6  1  0
  4  7  1  0
  3  8  1  0
  3  9  1  0
 10  8  1  1
  9 11  1  0
 10 12  1  0
 10 13  1  0
 11 13  1  0
 13 14  1  6
 12 15  1  1
 12 16  1  0
M  CHG  1  16  -1
M  END
