ucsf190-ucsf006
     RDKit          3D

 30 33  0  0  0  0  0  0  0  0999 V2000
    0.5390   10.3070   -2.4870 O   0  0  0  0  0  0  0  0  0  0  0  0
    0.0650   11.5310   -2.6480 C   0  0  1  0  0  0  0  0  0  0  0  0
    0.5290   12.0650   -1.4270 O   0  0  0  0  0  0  0  0  0  0  0  0
    0.7080   12.3340   -3.8620 C   0  0  2  0  0  0  0  0  0  0  0  0
    2.1250   12.8160   -3.5440 C   0  0  2  0  0  0  0  0  0  0  0  0
    0.1630   13.7830   -4.2400 C   0  0  2  0  0  0  0  0  0  0  0  0
    2.0710   14.1760   -2.7760 C   0  0  0  0  0  0  0  0  0  0  0  0
    2.8080   12.9930   -4.7940 O   0  0  0  0  0  0  0  0  0  0  0  0
   -0.8280   14.1350   -5.3670 C   0  0  2  0  0  0  0  0  0  0  0  0
    1.3450   14.6980   -4.5080 N   0  0  0  0  0  0  0  0  0  0  0  0
    0.9590   14.3340   -1.6810 C   0  0  0  0  0  0  0  0  0  0  0  0
   -1.2630   15.6450   -5.1340 C   0  0  2  0  0  0  0  0  0  0  0  0
    1.0530   16.1030   -4.1970 N   0  0  0  0  0  0  0  0  0  0  0  0
   -2.0480   13.2290   -5.6240 C   0  0  0  0  0  0  0  0  0  0  0  0
   -0.5120   14.6390   -1.9250 N   0  0  0  0  0  0  0  0  0  0  0  0
   -0.0480   16.6240   -5.0200 C   0  0  2  0  0  0  0  0  0  0  0  0
   -2.4290   15.8280   -4.1660 C   0  0  0  0  0  0  0  0  0  0  0  0
   -3.2700   13.5180   -4.7580 C   0  0  0  0  0  0  0  0  0  0  0  0
   -0.4070   17.8940   -4.5100 O   0  0  0  0  0  0  0  0  0  0  0  0
   -1.0060   14.2910   -3.2470 C   0  0  0  0  0  0  0  0  0  0  0  0
   -3.6180   15.0030   -4.6340 C   0  0  0  0  0  0  0  0  0  0  0  0
   -1.3540   13.8980   -0.9650 C   0  0  2  0  0  0  0  0  0  0  0  0
   -2.6450   14.6110   -0.5390 C   0  0  2  0  0  0  0  0  0  0  0  0
   -0.5420   13.5400    0.1810 N   0  0  0  0  0  0  0  0  0  0  0  0
   -2.6100   14.6410    0.9510 C   0  0  1  0  0  0  0  0  0  0  0  0
   -0.2310   14.5790    1.1120 C   0  0  0  0  0  0  0  0  0  0  0  0
   -4.0450   14.0940   -0.7560 C   0  0  0  0  0  0  0  0  0  0  0  0
   -1.4360   15.2580    1.4790 N   0  0  0  0  0  0  0  0  0  0  0  0
   -3.8510   15.3040    1.3350 N   0  0  0  0  0  0  0  0  0  0  0  0
   -4.8060   14.9560    0.2550 C   0  0  0  0  0  0  0  0  0  0  0  0
  2  1  1  6
  2  3  1  0
  4  2  1  1
  4  5  1  0
  4  6  1  0
  5  7  1  0
  5  8  1  6
  6  9  1  0
  6 10  1  6
  7 11  1  0
  9 12  1  0
 10 13  1  0
  9 14  1  1
 11 15  1  0
 12 16  1  0
 13 16  1  0
 12 17  1  1
 14 18  1  0
 16 19  1  1
 15 20  1  0
 17 21  1  0
 18 21  1  0
 22 15  1  6
 22 23  1  0
 22 24  1  0
 23 25  1  0
 24 26  1  0
 23 27  1  1
 25 28  1  6
 26 28  1  0
 25 29  1  0
 27 30  1  0
 29 30  1  0
M  CHG  1   1  -1
M  END
