ucsf365-ucsf584
     RDKit          3D

 23 25  0  0  0  0  0  0  0  0999 V2000
    0.6120   10.6600   -2.3220 O   0  0  0  0  0  0  0  0  0  0  0  0
    0.5610   11.9800   -2.4800 C   0  0  1  0  0  0  0  0  0  0  0  0
    1.8080   12.4320   -2.0180 O   0  0  0  0  0  0  0  0  0  0  0  0
    0.5480   12.4030   -3.9590 C   0  0  0  0  0  0  0  0  0  0  0  0
   -0.7300   13.1950   -4.2680 C   0  0  2  0  0  0  0  0  0  0  0  0
   -1.7560   12.2830   -4.9740 C   0  0  2  0  0  0  0  0  0  0  0  0
   -0.6190   14.5690   -4.9370 C   0  0  0  0  0  0  0  0  0  0  0  0
   -1.1280   11.4470   -5.9480 O   0  0  0  0  0  0  0  0  0  0  0  0
   -2.8820   13.0960   -5.6060 C   0  0  0  0  0  0  0  0  0  0  0  0
   -1.9760   15.2910   -4.9070 C   0  0  0  0  0  0  0  0  0  0  0  0
   -3.1210   14.2810   -4.6860 C   0  0  2  0  0  0  0  0  0  0  0  0
   -3.2490   13.8180   -3.1880 C   0  0  0  0  0  0  0  0  0  0  0  0
   -3.1700   14.8810   -2.1680 N   0  0  0  0  0  0  0  0  0  0  0  0
   -2.8250   14.4740   -0.7920 C   0  0  0  0  0  0  0  0  0  0  0  0
   -4.4230   15.5990   -2.1810 C   0  0  0  0  0  0  0  0  0  0  0  0
   -3.9840   14.7870    0.1790 C   0  0  0  0  0  0  0  0  0  0  0  0
   -5.6400   14.8590   -1.6460 C   0  0  0  0  0  0  0  0  0  0  0  0
   -5.3120   14.1880   -0.3190 C   0  0  0  0  0  0  0  0  0  0  0  0
   -6.5280   14.0950    0.6510 C   0  0  0  0  0  0  0  0  0  0  0  0
   -6.4140   14.8580    1.8840 N   0  0  0  0  0  0  0  0  0  0  0  0
   -7.8230   14.4470    0.1060 N   0  0  0  0  0  0  0  0  0  0  0  0
   -8.6830   14.7510    1.2520 C   0  0  0  0  0  0  0  0  0  0  0  0
   -7.7570   14.7200    2.4550 C   0  0  0  0  0  0  0  0  0  0  0  0
  2  1  1  6
  2  3  1  0
  2  4  1  0
  5  4  1  6
  5  6  1  0
  5  7  1  0
  6  8  1  6
  6  9  1  0
  7 10  1  0
  9 11  1  0
 10 11  1  0
 11 12  1  1
 12 13  1  0
 13 14  1  0
 13 15  1  0
 14 16  1  0
 15 17  1  0
 16 18  1  0
 17 18  1  0
 18 19  1  0
 19 20  1  0
 19 21  1  0
 21 22  1  0
 20 23  1  0
 22 23  1  0
M  CHG  1   1  -1
M  END
