ucsf520-ucsf243
     RDKit          3D

 19 21  0  0  0  0  0  0  0  0999 V2000
   -4.3370   15.9220    0.6170 N   0  0  0  0  0  0  0  0  0  0  0  0
   -3.5210   15.0010   -0.1640 C   0  0  2  0  0  0  0  0  0  0  0  0
   -2.0310   15.1840    0.0970 C   0  0  2  0  0  0  0  0  0  0  0  0
   -3.8100   15.2890   -1.5550 N   0  0  0  0  0  0  0  0  0  0  0  0
   -2.9330   14.5750   -2.5190 C   0  0  1  0  0  0  0  0  0  0  0  0
   -1.3970   14.0740   -0.6630 C   0  0  1  0  0  0  0  0  0  0  0  0
   -1.4950   15.0050    1.4560 N   0  0  0  0  0  0  0  0  0  0  0  0
   -2.8820   15.2770   -3.7430 O   0  0  0  0  0  0  0  0  0  0  0  0
   -1.6000   14.2140   -2.0750 N   0  0  0  0  0  0  0  0  0  0  0  0
   -0.0320   14.1280   -0.1810 N   0  0  0  0  0  0  0  0  0  0  0  0
   -0.1360   14.5280    1.2020 C   0  0  0  0  0  0  0  0  0  0  0  0
   -0.4070   14.5560   -2.8400 C   0  0  2  0  0  0  0  0  0  0  0  0
   -0.0630   13.5300   -3.7340 O   0  0  0  0  0  0  0  0  0  0  0  0
    0.6270   14.5260   -2.0160 O   0  0  0  0  0  0  0  0  0  0  0  0
   -0.2510   15.9200   -3.6200 C   0  0  2  0  0  0  0  0  0  0  0  0
   -1.4290   16.5410   -4.1900 O   0  0  0  0  0  0  0  0  0  0  0  0
    0.7330   15.8890   -4.7760 C   0  0  0  0  0  0  0  0  0  0  0  0
    0.5320   17.2670   -5.3530 C   0  0  0  0  0  0  0  0  0  0  0  0
   -0.9050   17.6190   -4.9840 C   0  0  0  0  0  0  0  0  0  0  0  0
  2  1  1  1
  2  3  1  0
  2  4  1  0
  4  5  1  0
  3  6  1  0
  3  7  1  1
  5  8  1  6
  5  9  1  0
  6  9  1  0
  6 10  1  6
  7 11  1  0
 10 11  1  0
  9 12  1  0
 12 13  1  6
 12 14  1  0
 12 15  1  0
 15 16  1  0
 15 17  1  6
 17 18  1  0
 16 19  1  0
 18 19  1  0
M  CHG  1  14  -1
M  END
