ucsf404-ucsf333
     RDKit          3D

 20 22  0  0  0  0  0  0  0  0999 V2000
   -6.7170   15.4570   -2.2380 Cl  0  0  0  0  0  0  0  0  0  0  0  0
   -5.1870   14.6340   -1.8250 C   0  0  2  0  0  0  0  0  0  0  0  0
   -5.1030   14.3230   -0.3360 C   0  0  2  0  0  0  0  0  0  0  0  0
   -3.9420   15.4220   -2.2730 C   0  0  0  0  0  0  0  0  0  0  0  0
   -6.0570   14.9150    0.6270 N   0  0  0  0  0  0  0  0  0  0  0  0
   -3.7170   14.4970    0.2240 C   0  0  1  0  0  0  0  0  0  0  0  0
   -2.5410   14.8310   -1.8980 C   0  0  1  0  0  0  0  0  0  0  0  0
   -5.4800   14.7730    1.9540 C   0  0  2  0  0  0  0  0  0  0  0  0
   -4.0090   13.7450    1.8060 S   0  0  0  0  0  0  0  0  0  0  0  0
   -2.6500   13.9010   -0.6730 C   0  0  0  0  0  0  0  0  0  0  0  0
   -1.8280   14.2160   -3.0280 N   0  0  0  0  0  0  0  0  0  0  0  0
   -1.5470   15.9060   -1.5010 C   0  0  0  0  0  0  0  0  0  0  0  0
   -6.5390   14.1770    2.7070 N   0  0  0  0  0  0  0  0  0  0  0  0
   -0.4500   13.9150   -2.6190 C   0  0  2  0  0  0  0  0  0  0  0  0
    0.0160   15.0690   -1.2950 S   0  0  0  0  0  0  0  0  0  0  0  0
    0.6430   13.8160   -3.6880 C   0  0  0  0  0  0  0  0  0  0  0  0
    1.1310   12.3630   -3.6830 C   0  0  0  0  0  0  0  0  0  0  0  0
    0.3370   11.6210   -2.5700 C   0  0  2  0  0  0  0  0  0  0  0  0
    0.8280   11.9580   -1.4060 O   0  0  0  0  0  0  0  0  0  0  0  0
    0.5580   10.2350   -2.5750 O   0  0  0  0  0  0  0  0  0  0  0  0
  2  1  1  1
  2  3  1  0
  2  4  1  0
  3  5  1  1
  3  6  1  0
  7  4  1  6
  5  8  1  0
  6  9  1  0
  8  9  1  0
  6 10  1  6
  7 10  1  0
  7 11  1  0
  7 12  1  0
  8 13  1  1
 11 14  1  0
 12 15  1  0
 14 15  1  0
 14 16  1  6
 16 17  1  0
 17 18  1  0
 18 19  1  1
 18 20  1  0
M  CHG  1  19  -1
M  END
