ucsf340-ucsf243
     RDKit          3D

 25 27  0  0  0  0  0  0  0  0999 V2000
    0.6910   18.1610   -5.9450 C   0  0  0  0  0  0  0  0  0  0  0  0
   -0.0890   17.9110   -4.7380 N   0  0  0  0  0  0  0  0  0  0  0  0
    0.6510   17.0640   -3.7660 C   0  0  0  0  0  0  0  0  0  0  0  0
   -1.3010   17.1350   -4.9090 C   0  0  2  0  0  0  0  0  0  0  0  0
    0.4460   15.5880   -4.1790 C   0  0  2  0  0  0  0  0  0  0  0  0
   -0.7570   15.7270   -5.0900 C   0  0  1  0  0  0  0  0  0  0  0  0
   -2.1770   17.5430   -6.0820 C   0  0  0  0  0  0  0  0  0  0  0  0
    0.6140   14.4120   -3.1120 C   0  0  2  0  0  0  0  0  0  0  0  0
   -1.8460   14.6620   -5.1330 C   0  0  0  0  0  0  0  0  0  0  0  0
   -3.2280   16.4410   -6.2990 C   0  0  0  0  0  0  0  0  0  0  0  0
    0.4410   12.8990   -3.6200 C   0  0  0  0  0  0  0  0  0  0  0  0
   -0.2150   14.5910   -1.7540 C   0  0  1  0  0  0  0  0  0  0  0  0
   -3.2160   15.3380   -5.2610 C   0  0  0  0  0  0  0  0  0  0  0  0
   -0.0150   11.9040   -2.4710 C   0  0  2  0  0  0  0  0  0  0  0  0
    0.5630   15.2030   -0.8810 O   0  0  0  0  0  0  0  0  0  0  0  0
   -1.5660   15.3950   -1.7590 C   0  0  2  0  0  0  0  0  0  0  0  0
    0.6240   12.2530   -1.2710 O   0  0  0  0  0  0  0  0  0  0  0  0
    0.4420   10.6520   -2.5600 O   0  0  0  0  0  0  0  0  0  0  0  0
   -2.1520   15.4610   -0.3340 C   0  0  0  0  0  0  0  0  0  0  0  0
   -2.5690   15.0390   -2.9070 C   0  0  1  0  0  0  0  0  0  0  0  0
   -2.1110   13.9530   -3.7100 O   0  0  0  0  0  0  0  0  0  0  0  0
   -3.6140   15.0390   -0.1460 C   0  0  1  0  0  0  0  0  0  0  0  0
   -4.0170   14.6740   -2.5550 C   0  0  0  0  0  0  0  0  0  0  0  0
   -4.1600   15.6600    1.1370 C   0  0  0  0  0  0  0  0  0  0  0  0
   -4.5230   15.3690   -1.3220 C   0  0  0  0  0  0  0  0  0  0  0  0
  1  2  1  0
  2  3  1  0
  2  4  1  0
  5  3  1  1
  4  6  1  0
  5  6  1  0
  4  7  1  6
  5  8  1  0
  6  9  1  1
  7 10  1  0
  8 11  1  6
  8 12  1  0
  9 13  1  0
 10 13  1  0
 11 14  1  0
 12 15  1  1
 12 16  1  0
 14 17  1  1
 14 18  1  0
 16 19  1  1
 16 20  1  0
 20 21  1  1
 19 22  1  0
 20 23  1  0
 22 24  1  1
 22 25  1  0
 23 25  1  0
M  CHG  2  15  -1  18  -1
M  END
