ucsf262-ucsf404
     RDKit          3D

 26 29  0  0  0  0  0  0  0  0999 V2000
   -3.0390   15.5720   -5.6900 Cl  0  0  0  0  0  0  0  0  0  0  0  0
   -1.9240   16.8540   -5.1030 C   0  0  1  0  0  0  0  0  0  0  0  0
   -0.6150   16.3870   -4.4650 C   0  0  1  0  0  0  0  0  0  0  0  0
   -1.7230   17.9100   -6.2120 C   0  0  0  0  0  0  0  0  0  0  0  0
   -0.2180   14.9530   -4.2620 C   0  0  0  0  0  0  0  0  0  0  0  0
    0.6230   16.8250   -5.1850 C   0  0  2  0  0  0  0  0  0  0  0  0
   -0.6010   18.9020   -5.9800 C   0  0  0  0  0  0  0  0  0  0  0  0
    1.0810   15.2630   -3.4970 C   0  0  2  0  0  0  0  0  0  0  0  0
    1.7220   16.2440   -4.4090 N   0  0  0  0  0  0  0  0  0  0  0  0
    0.6630   18.3250   -5.3120 C   0  0  0  0  0  0  0  0  0  0  0  0
    2.0070   14.0400   -3.1130 C   0  0  1  0  0  0  0  0  0  0  0  0
    2.9570   14.4080   -2.2480 O   0  0  0  0  0  0  0  0  0  0  0  0
    1.0760   13.1850   -2.4410 O   0  0  0  0  0  0  0  0  0  0  0  0
   -0.1730   13.1430   -3.1270 C   0  0  0  0  0  0  0  0  0  0  0  0
   -0.9280   14.4700   -2.8440 C   0  0  0  0  0  0  0  0  0  0  0  0
   -2.3430   14.4710   -2.2040 C   0  0  2  0  0  0  0  0  0  0  0  0
   -3.5660   15.1950   -2.8300 C   0  0  0  0  0  0  0  0  0  0  0  0
   -2.2050   14.8020   -0.7320 C   0  0  0  0  0  0  0  0  0  0  0  0
   -3.4760   14.4270   -0.0490 C   0  0  2  0  0  0  0  0  0  0  0  0
   -4.8620   15.3280   -1.9780 C   0  0  1  0  0  0  0  0  0  0  0  0
   -6.1570   14.1870   -2.5000 Cl  0  0  0  0  0  0  0  0  0  0  0  0
   -4.6310   15.3030   -0.4780 C   0  0  1  0  0  0  0  0  0  0  0  0
   -3.4410   14.6800    1.7080 S   0  0  0  0  0  0  0  0  0  0  0  0
   -5.1270   15.3340    1.6020 C   0  0  1  0  0  0  0  0  0  0  0  0
   -5.7290   14.9230    0.3810 N   0  0  0  0  0  0  0  0  0  0  0  0
   -6.1280   15.0190    2.5860 N   0  0  0  0  0  0  0  0  0  0  0  0
  2  1  1  6
  2  3  1  0
  2  4  1  0
  3  5  1  6
  3  6  1  0
  4  7  1  0
  8  5  1  6
  6  9  1  0
  8  9  1  0
  6 10  1  1
  7 10  1  0
  8 11  1  0
 11 12  1  1
 11 13  1  0
 13 14  1  0
 14 15  1  0
 16 15  1  6
 16 17  1  0
 16 18  1  0
 19 18  1  6
 17 20  1  0
 20 21  1  6
 19 22  1  0
 20 22  1  0
 19 23  1  0
 23 24  1  0
 22 25  1  1
 24 25  1  0
 24 26  1  1
M  CHG  1  12  -1
M  END
