ucsf364-ucsf392
     RDKit          3D

 21 22  0  0  0  0  0  0  0  0999 V2000
    1.4150   13.8950   -4.9940 C   0  0  0  0  0  0  0  0  0  0  0  0
    1.1560   12.4110   -4.8140 C   0  0  2  0  0  0  0  0  0  0  0  0
    0.7170   11.6620   -6.0800 C   0  0  2  0  0  0  0  0  0  0  0  0
    0.2030   12.0430   -3.6390 C   0  0  1  0  0  0  0  0  0  0  0  0
    1.6790   11.7100   -7.1270 O   0  0  0  0  0  0  0  0  0  0  0  0
    0.4850   12.8670   -2.3320 C   0  0  1  0  0  0  0  0  0  0  0  0
   -1.2880   12.1920   -4.0970 C   0  0  0  0  0  0  0  0  0  0  0  0
   -0.6300   12.1280   -6.5250 C   0  0  0  0  0  0  0  0  0  0  0  0
   -0.4510   13.9530   -2.3790 O   0  0  0  0  0  0  0  0  0  0  0  0
    0.2220   12.1220   -1.2710 O   0  0  0  0  0  0  0  0  0  0  0  0
   -1.6270   11.6400   -5.4920 C   0  0  0  0  0  0  0  0  0  0  0  0
   -0.1300   14.9950   -1.4920 C   0  0  0  0  0  0  0  0  0  0  0  0
   -1.3230   15.4430   -0.7420 N   0  0  0  0  0  0  0  0  0  0  0  0
   -1.1370   15.3690    0.7040 C   0  0  2  0  0  0  0  0  0  0  0  0
   -2.5340   14.7660   -1.2280 C   0  0  0  0  0  0  0  0  0  0  0  0
   -0.1810   14.2760    1.1760 C   0  0  0  0  0  0  0  0  0  0  0  0
   -3.7480   15.4900   -0.6760 C   0  0  1  0  0  0  0  0  0  0  0  0
   -2.4080   15.0110    1.3470 N   0  0  0  0  0  0  0  0  0  0  0  0
   -5.0850   14.8520   -1.0250 C   0  0  0  0  0  0  0  0  0  0  0  0
   -3.5330   15.7330    0.8230 C   0  0  2  0  0  0  0  0  0  0  0  0
   -4.6720   15.3610    1.6410 N   0  0  0  0  0  0  0  0  0  0  0  0
  2  1  1  6
  2  3  1  0
  2  4  1  0
  3  5  1  6
  4  6  1  0
  4  7  1  6
  3  8  1  0
  6  9  1  0
  6 10  1  1
  7 11  1  0
  8 11  1  0
  9 12  1  0
 12 13  1  0
 13 14  1  0
 13 15  1  0
 14 16  1  6
 15 17  1  0
 14 18  1  0
 17 19  1  1
 17 20  1  0
 18 20  1  0
 20 21  1  1
M  CHG  1  10  -1
M  END
