ucsf247-ucsf258
     RDKit          3D

 20 22  0  0  0  0  0  0  0  0999 V2000
    0.1520   11.8130   -1.7270 O   0  0  0  0  0  0  0  0  0  0  0  0
    0.2050   13.0370   -2.2190 C   0  0  1  0  0  0  0  0  0  0  0  0
    0.5850   12.9340   -3.5820 O   0  0  0  0  0  0  0  0  0  0  0  0
   -1.1850   13.7510   -2.0320 C   0  0  2  0  0  0  0  0  0  0  0  0
   -2.5350   13.1940   -2.4220 N   0  0  0  0  0  0  0  0  0  0  0  0
   -1.0390   15.2020   -2.4700 C   0  0  2  0  0  0  0  0  0  0  0  0
   -3.3460   14.3930   -2.2690 C   0  0  1  0  0  0  0  0  0  0  0  0
   -0.2780   15.7190   -1.2790 C   0  0  0  0  0  0  0  0  0  0  0  0
   -2.3400   15.9420   -2.5590 C   0  0  1  0  0  0  0  0  0  0  0  0
   -3.2530   15.2490   -3.3330 O   0  0  0  0  0  0  0  0  0  0  0  0
   -4.6480   14.6740   -1.4600 C   0  0  1  0  0  0  0  0  0  0  0  0
   -2.8760   15.9840   -1.1060 C   0  0  0  0  0  0  0  0  0  0  0  0
   -0.8370   15.2200   -0.0080 N   0  0  0  0  0  0  0  0  0  0  0  0
   -5.4950   13.4760   -1.0570 C   0  0  0  0  0  0  0  0  0  0  0  0
   -4.4340   15.6220   -0.2450 C   0  0  0  0  0  0  0  0  0  0  0  0
   -2.2740   14.9860   -0.1200 C   0  0  0  0  0  0  0  0  0  0  0  0
   -6.5620   13.9080   -0.0560 C   0  0  2  0  0  0  0  0  0  0  0  0
   -4.5630   14.9540    1.1130 C   0  0  0  0  0  0  0  0  0  0  0  0
   -7.3570   14.9630   -0.5960 O   0  0  0  0  0  0  0  0  0  0  0  0
   -5.9480   14.3350    1.2690 C   0  0  0  0  0  0  0  0  0  0  0  0
  2  1  1  6
  2  3  1  0
  2  4  1  0
  4  5  1  6
  4  6  1  0
  7  5  1  6
  6  8  1  1
  6  9  1  0
  7 10  1  0
  9 10  1  0
  7 11  1  0
  9 12  1  1
  8 13  1  0
 11 14  1  1
 11 15  1  0
 12 16  1  0
 13 16  1  0
 14 17  1  0
 15 18  1  0
 17 19  1  6
 17 20  1  0
 18 20  1  0
M  CHG  1   1  -1
M  END
