ucsf338-ucsf403
     RDKit          3D

 27 28  0  0  0  0  0  0  0  0999 V2000
   -8.8820   14.1720   -0.2240 O   0  0  0  0  0  0  0  0  0  0  0  0
   -7.5780   14.3510    0.3950 N   0  0  0  0  0  0  0  0  0  0  0  0
   -6.5350   14.4680   -0.6390 C   0  0  1  0  0  0  0  0  0  0  0  0
   -7.1120   14.9540   -1.8240 O   0  0  0  0  0  0  0  0  0  0  0  0
   -5.2580   15.2310   -0.1900 C   0  0  2  0  0  0  0  0  0  0  0  0
   -4.0430   15.2580   -1.1460 C   0  0  2  0  0  0  0  0  0  0  0  0
   -4.9620   14.8030    1.2840 C   0  0  0  0  0  0  0  0  0  0  0  0
   -4.3340   14.4420   -2.2940 O   0  0  0  0  0  0  0  0  0  0  0  0
   -2.7350   14.8030   -0.5100 C   0  0  0  0  0  0  0  0  0  0  0  0
   -3.5310   14.7530    1.8180 C   0  0  0  0  0  0  0  0  0  0  0  0
   -3.8360   15.0190   -3.5030 C   0  0  0  0  0  0  0  0  0  0  0  0
   -2.5450   15.3550    0.8930 C   0  0  0  0  0  0  0  0  0  0  0  0
   -2.3470   14.7280   -3.6260 C   0  0  0  0  0  0  0  0  0  0  0  0
   -1.9910   13.8230   -4.7990 C   0  0  0  0  0  0  0  0  0  0  0  0
   -1.6010   12.3920   -4.4080 C   0  0  0  0  0  0  0  0  0  0  0  0
   -1.6800   11.2720   -5.4650 C   0  0  1  0  0  0  0  0  0  0  0  0
   -0.3520   10.5350   -5.8060 C   0  0  2  0  0  0  0  0  0  0  0  0
   -2.8060   10.2710   -5.1660 C   0  0  0  0  0  0  0  0  0  0  0  0
    0.7100   11.4700   -6.0880 O   0  0  0  0  0  0  0  0  0  0  0  0
   -2.9340    9.1410   -6.2030 C   0  0  0  0  0  0  0  0  0  0  0  0
   -0.6360    9.6990   -7.0710 C   0  0  1  0  0  0  0  0  0  0  0  0
    0.8110    9.0270   -7.9020 Cl  0  0  0  0  0  0  0  0  0  0  0  0
    1.0230   12.4650   -5.0860 C   0  0  0  0  0  0  0  0  0  0  0  0
   -1.6050    8.5820   -6.7170 C   0  0  0  0  0  0  0  0  0  0  0  0
    1.5880   11.8680   -3.7600 C   0  0  1  0  0  0  0  0  0  0  0  0
    1.1650   12.5260   -2.7000 O   0  0  0  0  0  0  0  0  0  0  0  0
    1.0150   10.5920   -3.5180 O   0  0  0  0  0  0  0  0  0  0  0  0
  1  2  1  0
  2  3  1  0
  3  4  1  6
  3  5  1  0
  5  6  1  0
  5  7  1  1
  6  8  1  6
  6  9  1  0
  7 10  1  0
  8 11  1  0
  9 12  1  0
 10 12  1  0
 11 13  1  0
 13 14  1  0
 14 15  1  0
 16 15  1  1
 16 17  1  0
 16 18  1  0
 17 19  1  6
 18 20  1  0
 17 21  1  0
 21 22  1  1
 19 23  1  0
 20 24  1  0
 21 24  1  0
 23 25  1  0
 25 26  1  1
 25 27  1  0
M  CHG  1  26  -1
M  END
