ucsf487-ucsf392
     RDKit          3D

 20 22  0  0  0  0  0  0  0  0999 V2000
   -7.8060   13.7220    2.9530 N   0  0  0  0  0  0  0  0  0  0  0  0
   -7.2570   14.1850    1.6790 C   0  0  2  0  0  0  0  0  0  0  0  0
   -8.3250   14.2470    0.5680 C   0  0  0  0  0  0  0  0  0  0  0  0
   -6.0920   13.3010    1.2450 C   0  0  0  0  0  0  0  0  0  0  0  0
   -5.4170   13.9290    0.0260 C   0  0  2  0  0  0  0  0  0  0  0  0
   -7.7440   14.3980   -0.7720 N   0  0  0  0  0  0  0  0  0  0  0  0
   -6.3570   14.8690   -0.7420 C   0  0  2  0  0  0  0  0  0  0  0  0
   -4.7720   12.8630   -0.8960 C   0  0  0  0  0  0  0  0  0  0  0  0
   -5.6760   15.3810   -2.0110 C   0  0  1  0  0  0  0  0  0  0  0  0
   -4.4430   13.2500   -2.3730 C   0  0  0  0  0  0  0  0  0  0  0  0
   -4.4750   15.7840   -1.1160 C   0  0  0  0  0  0  0  0  0  0  0  0
   -4.6030   14.7110   -2.8370 C   0  0  0  0  0  0  0  0  0  0  0  0
   -3.6330   14.6650   -0.4600 C   0  0  2  0  0  0  0  0  0  0  0  0
   -3.3520   14.8300    1.0650 C   0  0  2  0  0  0  0  0  0  0  0  0
   -2.4340   14.1730   -1.2880 C   0  0  0  0  0  0  0  0  0  0  0  0
   -4.1820   15.6930    1.8710 N   0  0  0  0  0  0  0  0  0  0  0  0
   -2.0100   15.2090    1.3670 N   0  0  0  0  0  0  0  0  0  0  0  0
   -1.2150   14.7840   -0.8870 N   0  0  0  0  0  0  0  0  0  0  0  0
   -0.9870   14.6470    0.5190 C   0  0  1  0  0  0  0  0  0  0  0  0
    0.2990   15.3160    0.8240 C   0  0  0  0  0  0  0  0  0  0  0  0
  2  1  1  1
  2  3  1  0
  2  4  1  0
  5  4  1  1
  3  6  1  0
  5  7  1  0
  7  6  1  6
  5  8  1  0
  7  9  1  0
  8 10  1  0
  9 11  1  1
  9 12  1  0
 10 12  1  0
 13 11  1  6
 13 14  1  0
 13 15  1  0
 14 16  1  6
 14 17  1  0
 15 18  1  0
 17 19  1  0
 18 19  1  0
 19 20  1  1
M  END
