ucsf124-ucsf241
     RDKit          3D

 25 28  0  0  0  0  0  0  0  0999 V2000
    0.7140   11.0270   -2.5380 O   0  0  0  0  0  0  0  0  0  0  0  0
    0.5740   12.3180   -2.7910 C   0  0  1  0  0  0  0  0  0  0  0  0
    1.6190   13.0520   -2.0900 O   0  0  0  0  0  0  0  0  0  0  0  0
    0.7630   12.5580   -4.3340 C   0  0  0  0  0  0  0  0  0  0  0  0
    1.1090   14.1990   -1.3710 C   0  0  0  0  0  0  0  0  0  0  0  0
    0.4150   11.3400   -5.1160 N   0  0  0  0  0  0  0  0  0  0  0  0
   -0.9340   10.8230   -4.9760 C   0  0  1  0  0  0  0  0  0  0  0  0
    0.7460   11.4840   -6.5220 C   0  0  2  0  0  0  0  0  0  0  0  0
   -0.2090   13.8840   -0.6310 C   0  0  2  0  0  0  0  0  0  0  0  0
   -1.7880   11.7740   -4.3950 O   0  0  0  0  0  0  0  0  0  0  0  0
    0.7010   12.8350   -6.7720 O   0  0  0  0  0  0  0  0  0  0  0  0
   -1.4330   10.4030   -6.3680 C   0  0  1  0  0  0  0  0  0  0  0  0
   -0.2560   10.6450   -7.3320 C   0  0  2  0  0  0  0  0  0  0  0  0
   -1.4050   14.4570   -1.3970 C   0  0  0  0  0  0  0  0  0  0  0  0
   -0.1670   14.2790    0.8850 C   0  0  0  0  0  0  0  0  0  0  0  0
   -1.9910    8.9660   -6.4480 C   0  0  0  0  0  0  0  0  0  0  0  0
    0.2490    9.3700   -8.0060 C   0  0  0  0  0  0  0  0  0  0  0  0
   -2.6390   14.4280   -0.5270 C   0  0  2  0  0  0  0  0  0  0  0  0
   -1.4510   14.2730    1.6020 N   0  0  0  0  0  0  0  0  0  0  0  0
   -2.1310    8.4310   -7.8670 C   0  0  0  0  0  0  0  0  0  0  0  0
   -0.8390    8.5330   -8.6750 C   0  0  0  0  0  0  0  0  0  0  0  0
   -3.8530   15.2170   -0.9840 C   0  0  0  0  0  0  0  0  0  0  0  0
   -2.4330   14.9750    0.8570 C   0  0  2  0  0  0  0  0  0  0  0  0
   -4.5600   15.5000    0.3420 C   0  0  0  0  0  0  0  0  0  0  0  0
   -3.7570   14.8000    1.3580 N   0  0  0  0  0  0  0  0  0  0  0  0
  2  1  1  6
  2  3  1  0
  2  4  1  0
  3  5  1  0
  4  6  1  0
  6  7  1  0
  6  8  1  0
  9  5  1  6
  7 10  1  6
  8 11  1  6
  7 12  1  0
  8 13  1  0
 12 13  1  0
  9 14  1  0
  9 15  1  0
 12 16  1  1
 13 17  1  1
 18 14  1  6
 15 19  1  0
 16 20  1  0
 17 21  1  0
 20 21  1  0
 18 22  1  0
 18 23  1  0
 23 19  1  1
 22 24  1  0
 23 25  1  0
 24 25  1  0
M  CHG  1   1  -1
M  END
