ucsf260-ucsf213
     RDKit          3D

 23 26  0  0  0  0  0  0  0  0999 V2000
    0.8760   11.0690   -2.6440 O   0  0  0  0  0  0  0  0  0  0  0  0
    1.4680   12.1530   -3.1160 C   0  0  2  0  0  0  0  0  0  0  0  0
    1.6740   12.8520   -1.9180 O   0  0  0  0  0  0  0  0  0  0  0  0
    0.4550   12.9530   -3.9770 C   0  0  2  0  0  0  0  0  0  0  0  0
    0.5910   12.7160   -5.4930 C   0  0  0  0  0  0  0  0  0  0  0  0
    0.3750   14.4200   -3.5420 C   0  0  1  0  0  0  0  0  0  0  0  0
   -0.5930   12.0920   -6.0920 N   0  0  0  0  0  0  0  0  0  0  0  0
    1.1500   15.4710   -4.3760 C   0  0  0  0  0  0  0  0  0  0  0  0
   -1.3860   14.9720   -3.5270 S   0  0  0  0  0  0  0  0  0  0  0  0
   -1.6380   11.7840   -5.1110 C   0  0  0  0  0  0  0  0  0  0  0  0
   -0.2490   10.7780   -6.5610 C   0  0  1  0  0  0  0  0  0  0  0  0
    0.2150   16.6510   -4.5780 C   0  0  2  0  0  0  0  0  0  0  0  0
   -1.0950   15.9740   -4.9690 C   0  0  2  0  0  0  0  0  0  0  0  0
   -2.3940   10.6420   -5.6820 N   0  0  0  0  0  0  0  0  0  0  0  0
   -1.6190   10.2460   -6.8720 C   0  0  2  0  0  0  0  0  0  0  0  0
    0.6800   10.7780   -7.7540 C   0  0  0  0  0  0  0  0  0  0  0  0
    0.7080   17.7080   -5.5690 C   0  0  0  0  0  0  0  0  0  0  0  0
   -2.2410   16.8940   -5.3440 C   0  0  0  0  0  0  0  0  0  0  0  0
   -1.5750    8.7500   -7.1430 C   0  0  0  0  0  0  0  0  0  0  0  0
    0.5260    9.4680   -8.5160 C   0  0  0  0  0  0  0  0  0  0  0  0
   -0.4540   18.4420   -6.2390 C   0  0  0  0  0  0  0  0  0  0  0  0
   -1.7540   18.3370   -5.4560 C   0  0  0  0  0  0  0  0  0  0  0  0
   -0.2160    8.3630   -7.7450 C   0  0  0  0  0  0  0  0  0  0  0  0
  2  1  1  1
  2  3  1  0
  2  4  1  0
  4  5  1  6
  4  6  1  0
  5  7  1  0
  6  8  1  6
  6  9  1  0
  7 10  1  0
  7 11  1  0
 12  8  1  6
  9 13  1  0
 12 13  1  0
 10 14  1  0
 11 15  1  0
 14 15  1  0
 11 16  1  6
 12 17  1  0
 13 18  1  1
 15 19  1  1
 16 20  1  0
 17 21  1  0
 18 22  1  0
 21 22  1  0
 19 23  1  0
 20 23  1  0
M  CHG  1   1  -1
M  END
