ucsf340-ucsf264
     RDKit          3D

 28 31  0  0  0  0  0  0  0  0999 V2000
    0.8000   18.4920   -5.6340 C   0  0  0  0  0  0  0  0  0  0  0  0
    0.1310   17.5270   -4.7770 N   0  0  0  0  0  0  0  0  0  0  0  0
    1.1170   16.4890   -4.4770 C   0  0  0  0  0  0  0  0  0  0  0  0
   -0.7790   16.7930   -5.6120 C   0  0  1  0  0  0  0  0  0  0  0  0
    0.3340   15.2500   -4.0970 C   0  0  1  0  0  0  0  0  0  0  0  0
   -0.7710   15.3040   -5.1250 C   0  0  1  0  0  0  0  0  0  0  0  0
   -2.1470   17.3910   -5.9060 C   0  0  0  0  0  0  0  0  0  0  0  0
    1.1140   13.9230   -4.1640 C   0  0  0  0  0  0  0  0  0  0  0  0
   -2.1050   14.7280   -4.6810 C   0  0  0  0  0  0  0  0  0  0  0  0
   -3.3320   16.4500   -5.6920 C   0  0  0  0  0  0  0  0  0  0  0  0
    0.2110   12.6330   -4.1050 C   0  0  2  0  0  0  0  0  0  0  0  0
   -3.1140   14.9850   -5.7560 C   0  0  0  0  0  0  0  0  0  0  0  0
    0.3030   11.8980   -2.6570 C   0  0  2  0  0  0  0  0  0  0  0  0
    0.0640   11.9350   -5.5000 N   0  0  0  0  0  0  0  0  0  0  0  0
    1.4800   12.2960   -1.9940 O   0  0  0  0  0  0  0  0  0  0  0  0
    0.4080   10.5690   -2.6190 O   0  0  0  0  0  0  0  0  0  0  0  0
    1.1080   11.8480   -6.5810 N   0  0  0  0  0  0  0  0  0  0  0  0
   -0.7310   10.6980   -5.5210 C   0  0  2  0  0  0  0  0  0  0  0  0
    0.3240   11.1550   -7.6780 C   0  0  2  0  0  0  0  0  0  0  0  0
   -0.4270   10.0920   -6.9030 C   0  0  2  0  0  0  0  0  0  0  0  0
   -2.2360   10.8940   -5.3510 C   0  0  0  0  0  0  0  0  0  0  0  0
    0.8840   10.5150   -8.9900 C   0  0  0  0  0  0  0  0  0  0  0  0
   -1.6360    9.4320   -7.5490 C   0  0  0  0  0  0  0  0  0  0  0  0
   -2.9570    9.5420   -5.4110 C   0  0  0  0  0  0  0  0  0  0  0  0
    1.5620    9.3630   -8.7080 F   0  0  0  0  0  0  0  0  0  0  0  0
   -0.0860   10.1160   -9.8270 F   0  0  0  0  0  0  0  0  0  0  0  0
    1.6790   11.2710   -9.7560 F   0  0  0  0  0  0  0  0  0  0  0  0
   -2.4000    8.6310   -6.5010 C   0  0  0  0  0  0  0  0  0  0  0  0
  1  2  1  0
  2  3  1  0
  2  4  1  0
  3  5  1  0
  4  6  1  0
  5  6  1  0
  4  7  1  1
  5  8  1  6
  6  9  1  1
  7 10  1  0
 11  8  1  6
  9 12  1  0
 10 12  1  0
 11 13  1  0
 11 14  1  0
 13 15  1  6
 13 16  1  0
 14 17  1  0
 14 18  1  0
 17 19  1  0
 18 20  1  0
 19 20  1  0
 18 21  1  6
 19 22  1  6
 20 23  1  6
 21 24  1  0
 22 25  1  0
 22 26  1  0
 22 27  1  0
 23 28  1  0
 24 28  1  0
M  CHG  1  16  -1
M  END
