ucsf523-ucsf248
     RDKit          3D

 20 22  0  0  0  0  0  0  0  0999 V2000
    0.3730   14.5800    1.1690 N   0  0  0  0  0  0  0  0  0  0  0  0
   -0.8510   14.8930    0.5830 C   0  0  2  0  0  0  0  0  0  0  0  0
   -1.6180   13.8390    1.0650 N   0  0  0  0  0  0  0  0  0  0  0  0
   -0.6600   14.7820   -0.8230 N   0  0  0  0  0  0  0  0  0  0  0  0
   -1.9050   14.4740   -1.5110 C   0  0  2  0  0  0  0  0  0  0  0  0
   -2.9630   13.8710    0.5900 C   0  0  2  0  0  0  0  0  0  0  0  0
   -1.9690   15.1840   -2.7320 O   0  0  0  0  0  0  0  0  0  0  0  0
   -3.1240   14.8100   -0.6110 C   0  0  2  0  0  0  0  0  0  0  0  0
   -3.6740   14.3310    1.7250 N   0  0  0  0  0  0  0  0  0  0  0  0
   -4.9660   14.7490    1.3520 C   0  0  1  0  0  0  0  0  0  0  0  0
   -4.4820   14.7250   -1.2200 N   0  0  0  0  0  0  0  0  0  0  0  0
   -5.2660   15.7190    2.2820 O   0  0  0  0  0  0  0  0  0  0  0  0
   -5.3550   15.1980   -0.1340 C   0  0  1  0  0  0  0  0  0  0  0  0
   -5.8720   13.6930    1.6190 N   0  0  0  0  0  0  0  0  0  0  0  0
   -6.9850   14.5040    1.2520 C   0  0  1  0  0  0  0  0  0  0  0  0
   -6.7610   14.7170   -0.1950 N   0  0  0  0  0  0  0  0  0  0  0  0
   -8.5910   14.0510    1.9590 S   0  0  0  0  0  0  0  0  0  0  0  0
   -8.7600   12.5190    2.5410 N   0  0  0  0  0  0  0  0  0  0  0  0
   -8.7320   15.0810    3.1780 O   0  0  0  0  0  0  0  0  0  0  0  0
   -9.7320   14.4420    0.9220 O   0  0  0  0  0  0  0  0  0  0  0  0
  2  1  1  1
  2  3  1  0
  2  4  1  0
  4  5  1  0
  6  3  1  1
  5  7  1  6
  5  8  1  0
  6  8  1  0
  6  9  1  0
  9 10  1  0
  8 11  1  6
 10 12  1  1
 10 13  1  0
 13 11  1  6
 10 14  1  0
 14 15  1  0
 13 16  1  0
 15 16  1  0
 15 17  1  6
 17 18  1  0
 17 19  1  0
 17 20  1  0
M  END
