ucsf013-ucsf028
     RDKit          3D

 28 32  0  0  0  0  0  0  0  0999 V2000
   -4.1490   14.7120    0.9210 N   0  0  0  0  0  0  0  0  0  0  0  0
   -5.4630   14.7730    0.3230 C   0  0  2  0  0  0  0  0  0  0  0  0
   -6.3900   14.6050    1.4160 N   0  0  0  0  0  0  0  0  0  0  0  0
   -3.2840   15.7460    0.3650 C   0  0  2  0  0  0  0  0  0  0  0  0
   -5.7380   13.6890   -0.7150 C   0  0  1  0  0  0  0  0  0  0  0  0
   -3.5630   15.6980   -1.0520 N   0  0  0  0  0  0  0  0  0  0  0  0
   -1.8010   15.4680    0.6720 C   0  0  2  0  0  0  0  0  0  0  0  0
   -7.1220   14.0170   -1.3290 C   0  0  1  0  0  0  0  0  0  0  0  0
   -7.7240   14.1960    1.0200 C   0  0  0  0  0  0  0  0  0  0  0  0
   -4.6340   13.4490   -1.7620 C   0  0  0  0  0  0  0  0  0  0  0  0
   -2.5810   14.9210   -1.7710 C   0  0  0  0  0  0  0  0  0  0  0  0
   -0.8050   15.7860   -0.4690 C   0  0  2  0  0  0  0  0  0  0  0  0
   -1.5370   14.0650    1.0200 N   0  0  0  0  0  0  0  0  0  0  0  0
   -8.0260   14.6240   -0.3310 N   0  0  0  0  0  0  0  0  0  0  0  0
   -7.0770   14.9050   -2.5850 C   0  0  0  0  0  0  0  0  0  0  0  0
   -4.7100   14.3480   -3.0040 C   0  0  0  0  0  0  0  0  0  0  0  0
   -1.3280   15.6330   -1.8260 N   0  0  0  0  0  0  0  0  0  0  0  0
    0.2300   14.7850   -0.2330 N   0  0  0  0  0  0  0  0  0  0  0  0
   -0.1080   14.1240    1.0080 C   0  0  0  0  0  0  0  0  0  0  0  0
   -0.4330   14.8860   -2.7640 C   0  0  0  0  0  0  0  0  0  0  0  0
   -6.0960   14.3650   -3.6030 C   0  0  0  0  0  0  0  0  0  0  0  0
   -0.6530   13.3590   -2.9300 C   0  0  1  0  0  0  0  0  0  0  0  0
   -1.1660   12.9350   -4.2970 C   0  0  0  0  0  0  0  0  0  0  0  0
    0.6060   12.6690   -2.8210 O   0  0  0  0  0  0  0  0  0  0  0  0
    0.6310   11.5950   -3.8170 N   0  0  0  0  0  0  0  0  0  0  0  0
   -0.7110   11.5010   -4.3520 C   0  0  2  0  0  0  0  0  0  0  0  0
   -0.6890   11.0330   -5.6960 O   0  0  0  0  0  0  0  0  0  0  0  0
    0.3310   11.6430   -6.4840 C   0  0  0  0  0  0  0  0  0  0  0  0
  2  1  1  1
  2  3  1  0
  4  1  1  1
  2  5  1  0
  4  6  1  0
  4  7  1  0
  5  8  1  0
  3  9  1  0
  5 10  1  6
  6 11  1  0
  7 12  1  0
  7 13  1  6
  8 14  1  0
  9 14  1  0
  8 15  1  6
 10 16  1  0
 11 17  1  0
 12 17  1  0
 12 18  1  6
 13 19  1  0
 18 19  1  0
 17 20  1  0
 15 21  1  0
 16 21  1  0
 22 20  1  6
 22 23  1  0
 22 24  1  0
 24 25  1  0
 23 26  1  0
 25 26  1  0
 26 27  1  6
 27 28  1  0
M  END
