ucsf135-ucsf519
     RDKit          3D

 25 28  0  0  0  0  0  0  0  0999 V2000
    0.4350   12.2010   -7.7640 O   0  0  0  0  0  0  0  0  0  0  0  0
    0.8890   11.2500   -6.8920 C   0  0  1  0  0  0  0  0  0  0  0  0
    1.0530   11.8780   -5.5950 N   0  0  0  0  0  0  0  0  0  0  0  0
   -0.1590   10.1130   -6.7990 C   0  0  1  0  0  0  0  0  0  0  0  0
   -0.2580   11.5730   -4.6460 S   0  0  2  0  0  0  0  0  0  0  0  0
   -0.9830   10.1970   -5.4720 C   0  0  1  0  0  0  0  0  0  0  0  0
   -1.0450    9.9890   -8.0180 C   0  0  0  0  0  0  0  0  0  0  0  0
   -0.8600   12.9580   -3.9420 N   0  0  0  0  0  0  0  0  0  0  0  0
    0.2710   10.9510   -3.2570 O   0  0  0  0  0  0  0  0  0  0  0  0
   -2.4560   10.0410   -5.7530 C   0  0  0  0  0  0  0  0  0  0  0  0
   -1.9010    8.7320   -7.8720 C   0  0  0  0  0  0  0  0  0  0  0  0
   -1.3450   14.2190   -4.5670 C   0  0  2  0  0  0  0  0  0  0  0  0
    0.4510   13.3260   -3.3640 C   0  0  0  0  0  0  0  0  0  0  0  0
    0.9260   12.0620   -2.6140 C   0  0  1  0  0  0  0  0  0  0  0  0
   -2.6470    8.7240   -6.5340 C   0  0  0  0  0  0  0  0  0  0  0  0
   -0.1720   15.1100   -5.0620 C   0  0  0  0  0  0  0  0  0  0  0  0
   -2.2330   15.1320   -3.5950 C   0  0  1  0  0  0  0  0  0  0  0  0
    0.5400   12.2140   -1.2700 O   0  0  0  0  0  0  0  0  0  0  0  0
   -3.4670   15.3630   -4.2590 O   0  0  0  0  0  0  0  0  0  0  0  0
   -2.5440   14.6840   -2.2260 N   0  0  0  0  0  0  0  0  0  0  0  0
   -3.9260   14.9930   -1.8230 C   0  0  0  0  0  0  0  0  0  0  0  0
   -1.7530   15.3450   -1.2030 C   0  0  2  0  0  0  0  0  0  0  0  0
   -0.4750   14.8030   -1.0060 O   0  0  0  0  0  0  0  0  0  0  0  0
   -3.8570   15.1210   -0.3020 C   0  0  0  0  0  0  0  0  0  0  0  0
   -2.4390   15.1490    0.0480 N   0  0  0  0  0  0  0  0  0  0  0  0
  2  1  1  6
  2  3  1  0
  2  4  1  0
  5  3  1  6
  4  6  1  0
  5  6  1  0
  4  7  1  6
  5  8  1  0
  5  9  1  0
  6 10  1  6
  7 11  1  0
  8 12  1  0
  8 13  1  0
  9 14  1  0
 13 14  1  0
 10 15  1  0
 11 15  1  0
 12 16  1  1
 12 17  1  0
 14 18  1  1
 17 19  1  6
 17 20  1  0
 20 21  1  0
 20 22  1  0
 22 23  1  1
 21 24  1  0
 22 25  1  0
 24 25  1  0
M  END
