ucsf115-ucsf333
     RDKit          3D

 26 29  0  0  0  0  0  0  0  0999 V2000
   -1.8920   12.1490   -2.8290 C   0  0  0  0  0  0  0  0  0  0  0  0
   -1.2610   12.3030   -1.5160 N   0  0  0  0  0  0  0  0  0  0  0  0
   -0.8560   13.6330   -1.1490 C   0  0  2  0  0  0  0  0  0  0  0  0
   -0.8750   12.1350   -3.9720 C   0  0  2  0  0  0  0  0  0  0  0  0
   -1.1140   11.1170   -4.9370 O   0  0  0  0  0  0  0  0  0  0  0  0
    0.4210   11.6920   -3.3540 C   0  0  0  0  0  0  0  0  0  0  0  0
   -0.0800   10.3450   -2.9580 C   0  0  0  0  0  0  0  0  0  0  0  0
   -0.7640    9.9160   -4.2530 C   0  0  0  0  0  0  0  0  0  0  0  0
   -0.5460   13.4850    0.2650 N   0  0  0  0  0  0  0  0  0  0  0  0
   -1.8880   14.7040   -1.2140 C   0  0  2  0  0  0  0  0  0  0  0  0
   -0.8950   14.5960    1.1330 C   0  0  0  0  0  0  0  0  0  0  0  0
   -2.8670   14.4090   -0.1110 C   0  0  1  0  0  0  0  0  0  0  0  0
   -2.7210   14.9010   -2.4820 C   0  0  2  0  0  0  0  0  0  0  0  0
   -2.3400   14.8600    1.1490 N   0  0  0  0  0  0  0  0  0  0  0  0
   -4.1020   15.0570   -0.4470 N   0  0  0  0  0  0  0  0  0  0  0  0
   -4.2030   14.8590   -1.9160 C   0  0  2  0  0  0  0  0  0  0  0  0
   -2.1740   14.2290   -3.6950 N   0  0  0  0  0  0  0  0  0  0  0  0
   -2.3800   16.2840   -2.8060 C   0  0  0  0  0  0  0  0  0  0  0  0
   -5.2230   13.4330   -2.1480 Cl  0  0  0  0  0  0  0  0  0  0  0  0
   -0.9190   14.9140   -4.2020 C   0  0  1  0  0  0  0  0  0  0  0  0
   -0.6060   16.2730   -3.0610 S   0  0  0  0  0  0  0  0  0  0  0  0
    0.3340   14.0180   -4.3590 C   0  0  0  0  0  0  0  0  0  0  0  0
    1.6270   14.6060   -3.7380 C   0  0  0  0  0  0  0  0  0  0  0  0
    2.2600   13.7300   -2.6310 C   0  0  2  0  0  0  0  0  0  0  0  0
    3.4130   14.2270   -2.2330 O   0  0  0  0  0  0  0  0  0  0  0  0
    2.6750   12.5110   -3.2290 O   0  0  0  0  0  0  0  0  0  0  0  0
  1  2  1  0
  3  2  1  1
  4  1  1  1
  4  5  1  0
  4  6  1  0
  6  7  1  0
  5  8  1  0
  7  8  1  0
  3  9  1  0
 10  3  1  6
  9 11  1  0
 10 12  1  0
 10 13  1  0
 11 14  1  0
 12 14  1  1
 12 15  1  0
 13 16  1  0
 15 16  1  0
 13 17  1  0
 13 18  1  6
 16 19  1  1
 17 20  1  0
 18 21  1  0
 20 21  1  0
 20 22  1  1
 22 23  1  0
 23 24  1  0
 24 25  1  6
 24 26  1  0
M  CHG  1  25  -1
M  END
