ucsf260
     RDKit          3D

 14 15  0  0  0  0  0  0  0  0999 V2000
    1.1590   10.8090   -3.2070 O   0  0  0  0  0  0  0  0  0  0  0  0
    1.3240   12.0490   -3.2480 C   0  0  0  0  0  0  0  0  0  0  0  0
    1.3180   12.7110   -2.1700 O   0  0  0  0  0  0  0  0  0  0  0  0
    1.5700   12.7560   -4.5960 C   0  0  0  0  0  0  0  0  0  0  0  0
    0.3310   13.1850   -5.3920 C   0  0  0  0  0  0  0  0  0  0  0  0
   -0.5220   12.0320   -5.6300 N   0  0  0  0  0  0  0  0  0  0  0  0
   -1.6000   11.7400   -4.9580 C   0  0  0  0  0  0  0  0  0  0  0  0
   -2.1280   10.6150   -5.3990 N   0  0  0  0  0  0  0  0  0  0  0  0
   -1.3580   10.1640   -6.3790 C   0  0  0  0  0  0  0  0  0  0  0  0
   -1.4480    9.0210   -7.1800 C   0  0  0  0  0  0  0  0  0  0  0  0
   -0.5030    8.8180   -8.1570 C   0  0  0  0  0  0  0  0  0  0  0  0
    0.5400    9.7260   -8.3250 C   0  0  0  0  0  0  0  0  0  0  0  0
    0.6340   10.8440   -7.5180 C   0  0  0  0  0  0  0  0  0  0  0  0
   -0.3240   11.0610   -6.5370 C   0  0  0  0  0  0  0  0  0  0  0  0
  1  2  1  0
  2  3  1  0
  2  4  1  0
  4  5  1  0
  5  6  1  0
  6  7  1  0
  7  8  1  0
  8  9  1  0
  9 10  1  0
 10 11  1  0
 11 12  1  0
 12 13  1  0
  6 14  1  0
  9 14  1  0
 13 14  1  0
M  CHG  1   1  -1
M  END
