ucsf336-ucsf006
     RDKit          3D

 25 27  0  0  0  0  0  0  0  0999 V2000
    1.3870   13.9820   -4.5340 O   0  0  0  0  0  0  0  0  0  0  0  0
    1.4650   12.7330   -3.8510 C   0  0  1  0  0  0  0  0  0  0  0  0
    1.5070   12.9820   -2.4570 O   0  0  0  0  0  0  0  0  0  0  0  0
    1.3590   15.1150   -3.6730 C   0  0  0  0  0  0  0  0  0  0  0  0
    0.2430   11.8410   -4.2720 C   0  0  2  0  0  0  0  0  0  0  0  0
   -0.0550   15.6650   -3.4330 C   0  0  0  0  0  0  0  0  0  0  0  0
    0.1070   10.6670   -3.4800 O   0  0  0  0  0  0  0  0  0  0  0  0
    0.1960   11.5360   -5.6980 N   0  0  0  0  0  0  0  0  0  0  0  0
   -1.0890   14.8950   -2.6980 N   0  0  0  0  0  0  0  0  0  0  0  0
   -2.3510   14.9190   -3.4250 C   0  0  0  0  0  0  0  0  0  0  0  0
   -0.9520   10.8250   -6.2640 C   0  0  0  0  0  0  0  0  0  0  0  0
   -1.2390   15.1260   -1.2500 C   0  0  1  0  0  0  0  0  0  0  0  0
   -0.5050   10.0180   -7.4880 C   0  0  0  0  0  0  0  0  0  0  0  0
   -1.5820    9.9080   -5.2050 C   0  0  0  0  0  0  0  0  0  0  0  0
   -2.5170   14.6840   -0.5530 C   0  0  1  0  0  0  0  0  0  0  0  0
   -0.1190   14.4850   -0.5670 N   0  0  0  0  0  0  0  0  0  0  0  0
   -1.2740    8.7170   -7.7070 C   0  0  0  0  0  0  0  0  0  0  0  0
   -2.8010    9.1590   -5.7480 C   0  0  0  0  0  0  0  0  0  0  0  0
   -2.3870   15.2050    0.8300 C   0  0  2  0  0  0  0  0  0  0  0  0
   -0.0880   14.6000    0.8950 C   0  0  0  0  0  0  0  0  0  0  0  0
   -3.8390   15.3160   -0.9760 C   0  0  0  0  0  0  0  0  0  0  0  0
   -2.7150    8.8130   -7.2350 C   0  0  0  0  0  0  0  0  0  0  0  0
   -1.3700   14.5740    1.5670 N   0  0  0  0  0  0  0  0  0  0  0  0
   -3.6920   15.0900    1.4120 N   0  0  0  0  0  0  0  0  0  0  0  0
   -4.5750   15.5590    0.3380 C   0  0  0  0  0  0  0  0  0  0  0  0
  1  2  1  0
  2  3  1  1
  1  4  1  0
  2  5  1  0
  4  6  1  0
  5  7  1  1
  5  8  1  0
  6  9  1  0
  9 10  1  0
  8 11  1  0
 12  9  1  6
 11 13  1  0
 11 14  1  0
 12 15  1  0
 12 16  1  0
 13 17  1  0
 14 18  1  0
 15 19  1  0
 16 20  1  0
 15 21  1  6
 17 22  1  0
 18 22  1  0
 19 23  1  1
 20 23  1  0
 19 24  1  0
 21 25  1  0
 24 25  1  0
M  END
