ucsf173-ucsf213
     RDKit          3D

 13 14  0  0  0  0  0  0  0  0999 V2000
    0.4920   12.4720   -1.2580 O   0  0  0  0  0  0  0  0  0  0  0  0
   -0.2390   12.4220   -2.3560 C   0  0  2  0  0  0  0  0  0  0  0  0
    0.4890   11.4900   -3.1150 O   0  0  0  0  0  0  0  0  0  0  0  0
   -0.2940   13.8240   -3.0530 C   0  0  2  0  0  0  0  0  0  0  0  0
   -1.4910   13.9960   -4.0110 C   0  0  0  0  0  0  0  0  0  0  0  0
    0.8760   14.4180   -3.9220 C   0  0  1  0  0  0  0  0  0  0  0  0
    1.8300   13.4190   -4.5800 C   0  0  0  0  0  0  0  0  0  0  0  0
   -1.2480   15.4430   -4.3540 C   0  0  1  0  0  0  0  0  0  0  0  0
    0.1580   15.4140   -4.9110 C   0  0  1  0  0  0  0  0  0  0  0  0
   -2.2560   16.2150   -5.1860 C   0  0  0  0  0  0  0  0  0  0  0  0
    0.6750   16.8560   -5.0330 C   0  0  0  0  0  0  0  0  0  0  0  0
   -1.7910   17.6290   -5.5470 C   0  0  0  0  0  0  0  0  0  0  0  0
   -0.2770   17.8080   -5.7840 C   0  0  0  0  0  0  0  0  0  0  0  0
  2  1  1  1
  2  3  1  0
  2  4  1  0
  4  5  1  6
  4  6  1  0
  6  7  1  6
  8  5  1  6
  6  9  1  0
  8  9  1  0
  8 10  1  0
  9 11  1  1
 10 12  1  0
 11 13  1  0
 12 13  1  0
M  CHG  1   1  -1
M  END
