ucsf213-ucsf169
     RDKit          3D

 16 17  0  0  0  0  0  0  0  0999 V2000
    0.3570   10.7410   -2.3670 O   0  0  0  0  0  0  0  0  0  0  0  0
    0.8830   11.9620   -2.4870 C   0  0  2  0  0  0  0  0  0  0  0  0
    0.2740   12.6160   -1.3950 O   0  0  0  0  0  0  0  0  0  0  0  0
    0.5850   12.6400   -3.8750 C   0  0  0  0  0  0  0  0  0  0  0  0
    0.1500   14.1400   -3.9040 C   0  0  1  0  0  0  0  0  0  0  0  0
    0.7950   15.0970   -4.9140 C   0  0  0  0  0  0  0  0  0  0  0  0
   -1.6180   14.3440   -4.3870 S   0  0  0  0  0  0  0  0  0  0  0  0
    0.0370   16.4570   -4.8010 C   0  0  1  0  0  0  0  0  0  0  0  0
   -1.4930   16.1650   -4.6320 C   0  0  2  0  0  0  0  0  0  0  0  0
    0.6200   16.9990   -3.6440 O   0  0  0  0  0  0  0  0  0  0  0  0
   -2.0120   16.8340   -3.4840 O   0  0  0  0  0  0  0  0  0  0  0  0
    0.3580   17.5910   -5.7920 C   0  0  0  0  0  0  0  0  0  0  0  0
   -2.4180   16.7220   -5.7080 C   0  0  0  0  0  0  0  0  0  0  0  0
    1.0010   18.3120   -3.8570 C   0  0  0  0  0  0  0  0  0  0  0  0
   -0.7120   18.6580   -5.7950 C   0  0  0  0  0  0  0  0  0  0  0  0
   -2.0620   18.1300   -6.2210 C   0  0  0  0  0  0  0  0  0  0  0  0
  2  1  1  6
  2  3  1  0
  2  4  1  0
  5  4  1  6
  5  6  1  0
  5  7  1  0
  6  8  1  0
  7  9  1  0
  8  9  1  0
  8 10  1  1
  9 11  1  1
  8 12  1  0
  9 13  1  0
 10 14  1  0
 12 15  1  0
 13 16  1  0
 15 16  1  0
M  CHG  1   1  -1
M  END
