ucsf493
     RDKit          3D

 15 16  0  0  0  0  0  0  0  0999 V2000
   -4.4820   15.3230   -5.5910 C   0  0  0  0  0  0  0  0  0  0  0  0
   -3.7370   16.4530   -5.2130 O   0  0  0  0  0  0  0  0  0  0  0  0
   -2.3370   16.4000   -5.1670 C   0  0  0  0  0  0  0  0  0  0  0  0
   -1.5660   17.5400   -5.2190 C   0  0  0  0  0  0  0  0  0  0  0  0
   -0.2000   17.5000   -5.1700 C   0  0  0  0  0  0  0  0  0  0  0  0
    0.4430   16.2830   -5.0550 C   0  0  0  0  0  0  0  0  0  0  0  0
    1.7310   15.9450   -4.9950 N   0  0  0  0  0  0  0  0  0  0  0  0
    1.8750   14.6560   -4.9490 C   0  0  0  0  0  0  0  0  0  0  0  0
    0.6230   14.0980   -4.9610 C   0  0  1  0  0  0  0  0  0  0  0  0
    0.3240   12.6160   -4.8030 C   0  0  0  0  0  0  0  0  0  0  0  0
    0.5920   12.1010   -3.2890 C   0  0  1  0  0  0  0  0  0  0  0  0
    0.8010   10.8840   -3.1180 O   0  0  0  0  0  0  0  0  0  0  0  0
    0.7230   12.6870   -2.1570 O   0  0  0  0  0  0  0  0  0  0  0  0
   -0.3150   15.1560   -5.0190 C   0  0  0  0  0  0  0  0  0  0  0  0
   -1.6860   15.2160   -5.0700 C   0  0  0  0  0  0  0  0  0  0  0  0
  1  2  1  0
  2  3  1  0
  3  4  1  0
  4  5  1  0
  5  6  1  0
  6  7  1  0
  7  8  1  0
  8  9  1  0
  9 10  1  1
 10 11  1  0
 11 12  1  6
 11 13  1  0
  6 14  1  0
  9 14  1  0
  3 15  1  0
 14 15  1  0
M  CHG  1  13  -1
M  END
