ucsf138-ucsf170
     RDKit          3D

 24 25  0  0  0  0  0  0  0  0999 V2000
    0.6650   12.7680   -2.1610 O   0  0  0  0  0  0  0  0  0  0  0  0
    0.1480   11.8440   -3.1060 C   0  0  2  0  0  0  0  0  0  0  0  0
    0.5140   10.5400   -2.6560 O   0  0  0  0  0  0  0  0  0  0  0  0
    0.4730   14.1310   -2.5580 C   0  0  0  0  0  0  0  0  0  0  0  0
    0.6930   12.1380   -4.5360 C   0  0  0  0  0  0  0  0  0  0  0  0
   -0.9390   14.6260   -2.1640 C   0  0  2  0  0  0  0  0  0  0  0  0
    0.0890   11.2200   -5.5350 N   0  0  0  0  0  0  0  0  0  0  0  0
   -1.5950   13.7920   -1.0420 C   0  0  0  0  0  0  0  0  0  0  0  0
   -1.9080   14.8960   -3.3600 C   0  0  1  0  0  0  0  0  0  0  0  0
    0.4540   11.4830   -6.8980 C   0  0  1  0  0  0  0  0  0  0  0  0
   -1.6790   14.0530   -4.4890 O   0  0  0  0  0  0  0  0  0  0  0  0
   -2.9920   14.2640   -0.5730 C   0  0  1  0  0  0  0  0  0  0  0  0
   -3.3990   14.8060   -3.0260 C   0  0  0  0  0  0  0  0  0  0  0  0
    1.8100   11.7760   -6.9670 O   0  0  0  0  0  0  0  0  0  0  0  0
    0.0340   10.3350   -7.6670 N   0  0  0  0  0  0  0  0  0  0  0  0
   -2.8410   15.1040    1.0490 S   0  0  0  0  0  0  0  0  0  0  0  0
   -3.7350   15.1500   -1.5810 C   0  0  0  0  0  0  0  0  0  0  0  0
   -4.6020   15.3270    1.3820 C   0  0  0  0  0  0  0  0  0  0  0  0
    0.8540   10.0260   -8.8410 C   0  0  0  0  0  0  0  0  0  0  0  0
    0.0590   10.2980  -10.1270 C   0  0  0  0  0  0  0  0  0  0  0  0
    1.3170    8.5590   -8.7520 C   0  0  0  0  0  0  0  0  0  0  0  0
    0.2060    9.1760  -11.1520 C   0  0  0  0  0  0  0  0  0  0  0  0
    2.1390    8.0780   -9.9490 C   0  0  0  0  0  0  0  0  0  0  0  0
    1.6390    8.6690  -11.2620 C   0  0  0  0  0  0  0  0  0  0  0  0
  1  2  1  0
  2  3  1  1
  1  4  1  0
  2  5  1  0
  6  4  1  6
  5  7  1  0
  6  8  1  0
  6  9  1  0
  7 10  1  0
  9 11  1  6
  8 12  1  0
  9 13  1  0
 10 14  1  1
 10 15  1  0
 12 16  1  1
 12 17  1  0
 13 17  1  0
 16 18  1  0
 15 19  1  0
 19 20  1  0
 19 21  1  0
 20 22  1  0
 21 23  1  0
 22 24  1  0
 23 24  1  0
M  END
