ucsf123-ucsf392
     RDKit          3D

 24 25  0  0  0  0  0  0  0  0999 V2000
   -2.0370   18.9130   -5.1360 N   0  0  0  0  0  0  0  0  0  0  0  0
   -1.6280   17.4270   -5.6870 S   0  0  0  0  0  0  0  0  0  0  0  0
   -0.2900   17.6040   -6.5250 O   0  0  0  0  0  0  0  0  0  0  0  0
   -2.7440   16.9310   -6.7070 O   0  0  0  0  0  0  0  0  0  0  0  0
   -1.2520   16.1100   -4.5410 C   0  0  2  0  0  0  0  0  0  0  0  0
    0.1360   16.2910   -3.9180 C   0  0  0  0  0  0  0  0  0  0  0  0
   -1.4510   14.6980   -5.1220 C   0  0  0  0  0  0  0  0  0  0  0  0
    0.8750   14.9690   -3.7900 C   0  0  0  0  0  0  0  0  0  0  0  0
   -1.2710   13.6150   -4.0780 C   0  0  0  0  0  0  0  0  0  0  0  0
   -0.0330   13.8450   -3.2070 C   0  0  1  0  0  0  0  0  0  0  0  0
    0.7250   12.5390   -2.7490 C   0  0  1  0  0  0  0  0  0  0  0  0
    0.9540   12.7290   -1.3500 O   0  0  0  0  0  0  0  0  0  0  0  0
   -0.0000   11.4490   -2.8900 O   0  0  0  0  0  0  0  0  0  0  0  0
    1.6200   13.9910   -1.2700 C   0  0  0  0  0  0  0  0  0  0  0  0
    0.8660   14.9580   -0.3840 C   0  0  0  0  0  0  0  0  0  0  0  0
   -0.0310   14.3860    0.7110 C   0  0  0  0  0  0  0  0  0  0  0  0
   -1.4890   14.5290    0.3640 C   0  0  1  0  0  0  0  0  0  0  0  0
   -2.2560   15.2960    1.2730 N   0  0  0  0  0  0  0  0  0  0  0  0
   -1.5990   15.2180   -0.9140 N   0  0  0  0  0  0  0  0  0  0  0  0
   -3.6180   14.9390    1.0080 C   0  0  1  0  0  0  0  0  0  0  0  0
   -2.9470   15.0140   -1.4260 C   0  0  0  0  0  0  0  0  0  0  0  0
   -4.3630   15.6570    2.0090 N   0  0  0  0  0  0  0  0  0  0  0  0
   -3.9810   15.4470   -0.3830 C   0  0  1  0  0  0  0  0  0  0  0  0
   -5.4010   15.0950   -0.8130 C   0  0  0  0  0  0  0  0  0  0  0  0
  1  2  1  0
  2  3  1  0
  2  4  1  0
  5  2  1  6
  5  6  1  0
  5  7  1  0
  6  8  1  0
  7  9  1  0
 10  8  1  6
  9 10  1  0
 10 11  1  0
 11 12  1  0
 11 13  1  1
 12 14  1  0
 14 15  1  0
 15 16  1  0
 17 16  1  1
 17 18  1  0
 17 19  1  0
 18 20  1  0
 19 21  1  0
 20 22  1  1
 20 23  1  0
 21 23  1  0
 23 24  1  6
M  CHG  1  13  -1
M  END
