ucsf169-ucsf258
     RDKit          3D

 20 21  0  0  0  0  0  0  0  0999 V2000
    1.2310   18.5210   -5.6550 C   0  0  0  0  0  0  0  0  0  0  0  0
    0.2920   18.2180   -4.6450 O   0  0  0  0  0  0  0  0  0  0  0  0
   -0.1870   16.9000   -4.8630 C   0  0  2  0  0  0  0  0  0  0  0  0
   -1.6380   16.8650   -4.4360 C   0  0  1  0  0  0  0  0  0  0  0  0
    0.5080   15.8110   -4.0910 C   0  0  0  0  0  0  0  0  0  0  0  0
   -2.2590   18.1020   -4.8050 O   0  0  0  0  0  0  0  0  0  0  0  0
   -2.3490   15.6620   -5.0250 C   0  0  0  0  0  0  0  0  0  0  0  0
    0.0040   14.4420   -4.5740 C   0  0  1  0  0  0  0  0  0  0  0  0
    0.4640   13.2580   -3.6620 C   0  0  0  0  0  0  0  0  0  0  0  0
   -1.5090   14.3550   -4.9670 C   0  0  0  0  0  0  0  0  0  0  0  0
   -0.2490   12.8740   -2.2910 C   0  0  2  0  0  0  0  0  0  0  0  0
    0.7260   12.8450   -1.2740 O   0  0  0  0  0  0  0  0  0  0  0  0
   -0.4430   11.5640   -2.3170 O   0  0  0  0  0  0  0  0  0  0  0  0
   -1.5340   13.6850   -1.7120 C   0  0  2  0  0  0  0  0  0  0  0  0
   -2.7820   13.9810   -2.6090 C   0  0  2  0  0  0  0  0  0  0  0  0
   -1.2740   14.8070   -0.7610 N   0  0  0  0  0  0  0  0  0  0  0  0
   -2.5610   13.9440   -4.0060 O   0  0  0  0  0  0  0  0  0  0  0  0
   -3.5200   15.2520   -2.1960 C   0  0  0  0  0  0  0  0  0  0  0  0
   -2.4160   15.1610    0.0890 C   0  0  0  0  0  0  0  0  0  0  0  0
   -3.7300   15.2910   -0.6880 C   0  0  0  0  0  0  0  0  0  0  0  0
  1  2  1  0
  3  2  1  1
  3  4  1  0
  3  5  1  0
  4  6  1  6
  4  7  1  0
  5  8  1  0
  8  9  1  1
  7 10  1  0
  8 10  1  0
  9 11  1  0
 11 12  1  1
 11 13  1  0
 11 14  1  0
 14 15  1  0
 14 16  1  6
 15 17  1  6
 15 18  1  0
 16 19  1  0
 18 20  1  0
 19 20  1  0
M  CHG  1  13  -1
M  END
