ucsf339-ucsf109
     RDKit          3D

 22 25  0  0  0  0  0  0  0  0999 V2000
    1.4620   14.7980   -2.8540 O   0  0  0  0  0  0  0  0  0  0  0  0
    0.6470   13.7920   -2.6310 C   0  0  1  0  0  0  0  0  0  0  0  0
    0.9010   13.3380   -1.3040 O   0  0  0  0  0  0  0  0  0  0  0  0
   -0.8620   14.1860   -2.7350 C   0  0  1  0  0  0  0  0  0  0  0  0
   -1.4350   15.1330   -1.6480 C   0  0  0  0  0  0  0  0  0  0  0  0
   -1.2900   14.6780   -4.1110 C   0  0  0  0  0  0  0  0  0  0  0  0
   -2.9380   15.5440   -1.8340 C   0  0  1  0  0  0  0  0  0  0  0  0
   -2.7510   14.6200   -4.2350 N   0  0  0  0  0  0  0  0  0  0  0  0
   -3.4190   15.5360   -3.3130 C   0  0  0  0  0  0  0  0  0  0  0  0
   -3.9310   14.9080   -0.7510 C   0  0  1  0  0  0  0  0  0  0  0  0
   -3.8580   15.7900    0.5230 C   0  0  0  0  0  0  0  0  0  0  0  0
   -5.3420   14.4050   -1.3000 C   0  0  2  0  0  0  0  0  0  0  0  0
   -3.3360   13.5340   -0.5040 C   0  0  0  0  0  0  0  0  0  0  0  0
   -4.1470   15.2590    1.9050 C   0  0  0  0  0  0  0  0  0  0  0  0
   -6.2120   13.7350   -0.1800 C   0  0  1  0  0  0  0  0  0  0  0  0
   -4.8730   13.3980   -2.3750 C   0  0  0  0  0  0  0  0  0  0  0  0
   -3.4980   12.9310   -1.8940 C   0  0  0  0  0  0  0  0  0  0  0  0
   -5.4770   14.5470    2.0350 C   0  0  0  0  0  0  0  0  0  0  0  0
   -6.3690   14.7400    0.8910 C   0  0  2  0  0  0  0  0  0  0  0  0
   -7.6520   13.4290   -0.3470 N   0  0  0  0  0  0  0  0  0  0  0  0
   -7.7780   14.8450    1.3280 N   0  0  0  0  0  0  0  0  0  0  0  0
   -8.2670   13.5780    0.9530 C   0  0  0  0  0  0  0  0  0  0  0  0
  2  1  1  1
  2  3  1  0
  2  4  1  0
  4  5  1  1
  4  6  1  0
  7  5  1  6
  6  8  1  0
  7  9  1  0
  8  9  1  0
  7 10  1  0
 10 11  1  1
 10 12  1  0
 10 13  1  0
 11 14  1  0
 12 15  1  0
 12 16  1  6
 13 17  1  0
 16 17  1  0
 14 18  1  0
 15 19  1  0
 19 18  1  1
 15 20  1  6
 19 21  1  0
 20 22  1  0
 21 22  1  0
M  CHG  1   1  -1
M  END
