ucsf005-ucsf357
     RDKit          3D

 16 17  0  0  0  0  0  0  0  0999 V2000
   -1.1650   14.3620   -3.4320 C   0  0  0  0  0  0  0  0  0  0  0  0
   -2.0110   15.1220   -2.5340 N   0  0  0  0  0  0  0  0  0  0  0  0
   -3.4630   14.8470   -2.6710 C   0  0  0  0  0  0  0  0  0  0  0  0
   -1.7180   15.0530   -1.1060 C   0  0  1  0  0  0  0  0  0  0  0  0
   -0.6880   15.9990   -0.8630 O   0  0  0  0  0  0  0  0  0  0  0  0
   -3.9250   14.4840   -1.3290 N   0  0  0  0  0  0  0  0  0  0  0  0
   -3.1050   15.4020   -0.5230 C   0  0  1  0  0  0  0  0  0  0  0  0
   -1.2590   13.8070   -0.5790 N   0  0  0  0  0  0  0  0  0  0  0  0
   -5.3640   14.5800   -1.1930 C   0  0  2  0  0  0  0  0  0  0  0  0
   -3.0330   15.4010    1.0130 C   0  0  1  0  0  0  0  0  0  0  0  0
   -0.9370   14.0300    0.8090 C   0  0  1  0  0  0  0  0  0  0  0  0
   -4.2980   15.3050    1.7350 N   0  0  0  0  0  0  0  0  0  0  0  0
   -0.0540   15.1410    0.8210 N   0  0  0  0  0  0  0  0  0  0  0  0
   -5.8080   15.2750   -2.2020 O   0  0  0  0  0  0  0  0  0  0  0  0
   -5.7260   15.4090   -0.1240 O   0  0  0  0  0  0  0  0  0  0  0  0
   -2.0840   14.4230    1.5860 N   0  0  0  0  0  0  0  0  0  0  0  0
  1  2  1  0
  2  3  1  0
  2  4  1  0
  4  5  1  6
  3  6  1  0
  4  7  1  0
  7  6  1  1
  4  8  1  0
  6  9  1  0
  7 10  1  0
  8 11  1  0
 10 12  1  1
 11 13  1  6
  9 14  1  6
  9 15  1  0
 10 16  1  0
 11 16  1  0
M  CHG  1  14  -1
M  END
