ucsf012-ucsf516
     RDKit          3D

 25 29  0  0  0  0  0  0  0  0999 V2000
   -3.1640   15.5440   -4.9260 C   0  0  0  0  0  0  0  0  0  0  0  0
   -2.4370   14.7860   -3.8890 C   0  0  2  0  0  0  0  0  0  0  0  0
   -3.1480   14.6190   -2.5780 C   0  0  2  0  0  0  0  0  0  0  0  0
   -1.1970   15.4350   -3.4670 N   0  0  0  0  0  0  0  0  0  0  0  0
   -4.5490   15.1110   -2.5510 C   0  0  0  0  0  0  0  0  0  0  0  0
   -0.1790   14.9850   -4.3530 C   0  0  0  0  0  0  0  0  0  0  0  0
   -2.2570   14.7890   -1.4850 C   0  0  1  0  0  0  0  0  0  0  0  0
   -1.0500   15.2770   -2.0110 C   0  0  1  0  0  0  0  0  0  0  0  0
   -2.7630   15.5130    0.0260 S   0  0  0  0  0  0  0  0  0  0  0  0
   -0.0510   14.5770   -1.3420 N   0  0  0  0  0  0  0  0  0  0  0  0
    0.0590   13.5190   -4.4590 C   0  0  1  0  0  0  0  0  0  0  0  0
   -1.2280   16.2690    0.9520 N   0  0  0  0  0  0  0  0  0  0  0  0
   -2.1150   14.0110    0.0480 N   0  0  0  0  0  0  0  0  0  0  0  0
   -0.7300   14.0760   -0.1070 C   0  0  0  0  0  0  0  0  0  0  0  0
   -0.3940   12.6820   -3.2580 C   0  0  0  0  0  0  0  0  0  0  0  0
   -0.4800   12.8640   -5.5330 O   0  0  0  0  0  0  0  0  0  0  0  0
    1.5360   13.4820   -4.3380 C   0  0  0  0  0  0  0  0  0  0  0  0
    0.5100   13.5270   -2.0960 C   0  0  0  0  0  0  0  0  0  0  0  0
   -3.7550   15.4850    1.4100 N   0  0  0  0  0  0  0  0  0  0  0  0
   -4.5200   15.9860   -0.2760 C   0  0  0  0  0  0  0  0  0  0  0  0
   -0.5820   11.5380   -5.2290 C   0  0  0  0  0  0  0  0  0  0  0  0
   -0.0950   11.3240   -3.8360 C   0  0  0  0  0  0  0  0  0  0  0  0
    1.7450   13.8790   -2.9160 C   0  0  0  0  0  0  0  0  0  0  0  0
   -5.2130   14.7160   -0.0010 C   0  0  0  0  0  0  0  0  0  0  0  0
   -4.8100   14.5880    1.3470 C   0  0  0  0  0  0  0  0  0  0  0  0
  2  1  1  6
  2  3  1  0
  2  4  1  0
  3  5  1  1
  4  6  1  0
  3  7  1  0
  8  4  1  6
  7  8  1  0
  7  9  1  1
  8 10  1  0
 11  6  1  1
  9 12  1  0
  9 13  1  0
 10 14  1  0
 13 14  1  0
 11 15  1  0
 11 16  1  0
 11 17  1  0
 10 18  1  0
  9 19  1  0
  9 20  1  0
 16 21  1  0
 15 22  1  0
 21 22  1  0
 17 23  1  0
 18 23  1  0
 20 24  1  0
 19 25  1  0
 24 25  1  0
M  END
