ucsf173-ucsf258
     RDKit          3D

 20 22  0  0  0  0  0  0  0  0999 V2000
    1.5080   13.7640   -1.0960 O   0  0  0  0  0  0  0  0  0  0  0  0
   -0.3260   13.0390   -2.5450 S   0  0  0  0  0  0  0  0  0  0  0  0
   -0.1230   11.4200   -1.6930 O   0  0  0  0  0  0  0  0  0  0  0  0
    0.9140   12.0480   -3.4350 O   0  0  0  0  0  0  0  0  0  0  0  0
   -0.2660   14.2280   -3.7920 C   0  0  1  0  0  0  0  0  0  0  0  0
   -1.8070   13.5210   -1.6170 C   0  0  2  0  0  0  0  0  0  0  0  0
   -1.4700   15.0220   -3.9330 C   0  0  0  0  0  0  0  0  0  0  0  0
    0.6720   15.3790   -3.7660 C   0  0  0  0  0  0  0  0  0  0  0  0
   -3.0630   13.8970   -2.3140 C   0  0  2  0  0  0  0  0  0  0  0  0
   -1.5220   14.4760   -0.6200 N   0  0  0  0  0  0  0  0  0  0  0  0
   -2.9400   13.9160   -3.7200 O   0  0  0  0  0  0  0  0  0  0  0  0
   -1.1960   15.7980   -5.1330 C   0  0  2  0  0  0  0  0  0  0  0  0
    0.2130   16.1820   -5.0050 C   0  0  1  0  0  0  0  0  0  0  0  0
   -3.7300   15.2160   -1.9720 C   0  0  0  0  0  0  0  0  0  0  0  0
   -2.6110   14.7660    0.2540 C   0  0  0  0  0  0  0  0  0  0  0  0
   -2.2230   16.7960   -5.4250 C   0  0  0  0  0  0  0  0  0  0  0  0
    0.4470   17.6220   -4.8520 C   0  0  0  0  0  0  0  0  0  0  0  0
   -3.8280   15.2670   -0.4830 C   0  0  0  0  0  0  0  0  0  0  0  0
   -1.7860   18.2060   -5.6220 C   0  0  0  0  0  0  0  0  0  0  0  0
   -0.3220   18.3120   -5.9680 C   0  0  0  0  0  0  0  0  0  0  0  0
  1  2  1  0
  2  3  1  0
  2  4  1  0
  5  2  1  1
  6  2  1  6
  5  7  1  0
  5  8  1  0
  6  9  1  0
  6 10  1  0
  9 11  1  6
 12  7  1  1
 13  8  1  1
 12 13  1  0
  9 14  1  0
 10 15  1  0
 12 16  1  0
 13 17  1  0
 14 18  1  0
 15 18  1  0
 16 19  1  0
 17 20  1  0
 19 20  1  0
M  CHG  1   1  -1
M  END
