ucsf412-ucsf110
     RDKit          3D

 21 24  0  0  0  0  0  0  0  0999 V2000
   -8.2310   15.1500    0.4230 O   0  0  0  0  0  0  0  0  0  0  0  0
   -6.9710   14.5250    0.4560 C   0  0  2  0  0  0  0  0  0  0  0  0
   -6.3580   14.8330    1.7520 N   0  0  0  0  0  0  0  0  0  0  0  0
   -6.1240   14.9960   -0.7220 C   0  0  1  0  0  0  0  0  0  0  0  0
   -4.8190   14.2330   -0.5170 C   0  0  2  0  0  0  0  0  0  0  0  0
   -4.8690   14.7340    1.8480 C   0  0  0  0  0  0  0  0  0  0  0  0
   -6.8250   14.8010   -2.0810 C   0  0  0  0  0  0  0  0  0  0  0  0
   -4.0990   15.0320    0.5510 C   0  0  1  0  0  0  0  0  0  0  0  0
   -4.0060   13.9750   -1.7800 C   0  0  0  0  0  0  0  0  0  0  0  0
   -5.8780   14.4950   -3.2340 C   0  0  0  0  0  0  0  0  0  0  0  0
   -4.4650   14.8740   -2.9000 C   0  0  0  0  0  0  0  0  0  0  0  0
   -2.5690   14.7280    0.4680 C   0  0  1  0  0  0  0  0  0  0  0  0
   -1.9400   15.5940   -0.6100 C   0  0  2  0  0  0  0  0  0  0  0  0
   -1.7440   14.7520    1.6580 N   0  0  0  0  0  0  0  0  0  0  0  0
   -2.6750   15.5530   -1.9380 C   0  0  0  0  0  0  0  0  0  0  0  0
   -0.5270   15.1420   -0.8900 C   0  0  2  0  0  0  0  0  0  0  0  0
   -0.4000   14.2530    1.3600 C   0  0  0  0  0  0  0  0  0  0  0  0
   -0.5300   14.8420   -2.3280 N   0  0  0  0  0  0  0  0  0  0  0  0
   -1.5800   15.6060   -2.9740 C   0  0  0  0  0  0  0  0  0  0  0  0
   -0.2020   14.0130   -0.0650 N   0  0  0  0  0  0  0  0  0  0  0  0
    0.7410   14.8730   -3.0180 C   0  0  0  0  0  0  0  0  0  0  0  0
  2  1  1  1
  2  3  1  0
  2  4  1  0
  4  5  1  0
  3  6  1  0
  4  7  1  6
  5  8  1  0
  8  6  1  1
  5  9  1  6
  7 10  1  0
  9 11  1  0
 10 11  1  0
  8 12  1  0
 12 13  1  0
 12 14  1  1
 13 15  1  6
 13 16  1  0
 14 17  1  0
 16 18  1  0
 15 19  1  0
 18 19  1  0
 16 20  1  1
 17 20  1  0
 18 21  1  0
M  END
