ucsf380-ucsf367
     RDKit          3D

 26 28  0  0  0  0  0  0  0  0999 V2000
    0.4970   14.9990   -1.0280 O   0  0  0  0  0  0  0  0  0  0  0  0
    0.1340   14.2720   -2.0740 C   0  0  1  0  0  0  0  0  0  0  0  0
    1.0680   13.2020   -2.3740 O   0  0  0  0  0  0  0  0  0  0  0  0
   -1.2530   13.5230   -1.7520 C   0  0  0  0  0  0  0  0  0  0  0  0
    0.5460   12.1930   -3.3060 C   0  0  2  0  0  0  0  0  0  0  0  0
   -2.3420   14.5300   -1.2480 C   0  0  0  0  0  0  0  0  0  0  0  0
   -1.6960   12.6780   -2.9890 C   0  0  0  0  0  0  0  0  0  0  0  0
    0.9670   10.9860   -2.9440 O   0  0  0  0  0  0  0  0  0  0  0  0
    1.0940   12.5280   -4.7500 C   0  0  0  0  0  0  0  0  0  0  0  0
   -2.4460   14.7150    0.2780 C   0  0  0  0  0  0  0  0  0  0  0  0
   -3.7140   14.3520   -1.8890 C   0  0  0  0  0  0  0  0  0  0  0  0
   -3.1190   12.1090   -2.9400 C   0  0  0  0  0  0  0  0  0  0  0  0
   -1.5530   13.4860   -4.2910 C   0  0  0  0  0  0  0  0  0  0  0  0
    0.9560   11.4710   -5.7460 O   0  0  0  0  0  0  0  0  0  0  0  0
   -3.5990   15.6400    0.7380 C   0  0  0  0  0  0  0  0  0  0  0  0
   -4.5620   15.5600   -1.6540 C   0  0  0  0  0  0  0  0  0  0  0  0
   -3.4510   11.2900   -4.1810 C   0  0  0  0  0  0  0  0  0  0  0  0
   -1.7860   12.6810   -5.5530 C   0  0  0  0  0  0  0  0  0  0  0  0
   -4.8200   15.7780   -0.1880 C   0  0  0  0  0  0  0  0  0  0  0  0
   -3.1180   11.9520   -5.5280 C   0  0  0  0  0  0  0  0  0  0  0  0
   -0.3490   10.9550   -6.0580 C   0  0  0  0  0  0  0  0  0  0  0  0
   -0.1730    9.9680   -7.2180 C   0  0  0  0  0  0  0  0  0  0  0  0
   -1.0080   10.2460   -4.8620 C   0  0  0  0  0  0  0  0  0  0  0  0
   -0.9860    8.6850   -7.0440 C   0  0  0  0  0  0  0  0  0  0  0  0
   -2.3570    9.5830   -5.1870 C   0  0  0  0  0  0  0  0  0  0  0  0
   -2.3930    8.9990   -6.5780 C   0  0  0  0  0  0  0  0  0  0  0  0
  2  1  1  1
  2  3  1  0
  2  4  1  0
  3  5  1  0
  4  6  1  0
  4  7  1  0
  5  8  1  1
  5  9  1  0
  6 10  1  0
  6 11  1  0
  7 12  1  0
  7 13  1  0
  9 14  1  0
 10 15  1  0
 11 16  1  0
 12 17  1  0
 13 18  1  0
 15 19  1  0
 16 19  1  0
 17 20  1  0
 18 20  1  0
 14 21  1  0
 21 22  1  0
 21 23  1  0
 22 24  1  0
 23 25  1  0
 24 26  1  0
 25 26  1  0
M  CHG  2   1  -1   8  -1
M  END
