ucsf336-ucsf004
     RDKit          3D

 29 32  0  0  0  0  0  0  0  0999 V2000
    1.7370   13.7000   -4.2970 O   0  0  0  0  0  0  0  0  0  0  0  0
    1.5620   12.5320   -3.7230 C   0  0  1  0  0  0  0  0  0  0  0  0
    1.5130   12.8110   -2.3410 O   0  0  0  0  0  0  0  0  0  0  0  0
    0.2550   11.7380   -4.2690 C   0  0  2  0  0  0  0  0  0  0  0  0
    0.2140   10.4960   -3.5500 O   0  0  0  0  0  0  0  0  0  0  0  0
    0.0670   11.4960   -5.7330 N   0  0  0  0  0  0  0  0  0  0  0  0
   -0.4930   12.6410   -6.3750 C   0  0  0  0  0  0  0  0  0  0  0  0
   -0.8420   10.4170   -6.1230 C   0  0  0  0  0  0  0  0  0  0  0  0
   -1.6050   13.1440   -5.6150 O   0  0  0  0  0  0  0  0  0  0  0  0
   -0.3130    9.4030   -7.1390 C   0  0  0  0  0  0  0  0  0  0  0  0
   -1.6800    9.7290   -5.0720 C   0  0  0  0  0  0  0  0  0  0  0  0
   -1.4740    8.7810   -7.9090 C   0  0  0  0  0  0  0  0  0  0  0  0
   -2.8830    9.0700   -5.7630 C   0  0  0  0  0  0  0  0  0  0  0  0
   -1.0280   13.8950   -4.5650 C   0  0  2  0  0  0  0  0  0  0  0  0
   -2.5250    8.1880   -6.9730 C   0  0  0  0  0  0  0  0  0  0  0  0
   -1.9510   14.5080   -3.5110 C   0  0  0  0  0  0  0  0  0  0  0  0
   -0.2060   14.9810   -5.2280 C   0  0  0  0  0  0  0  0  0  0  0  0
   -1.1270   15.1790   -2.4950 N   0  0  0  0  0  0  0  0  0  0  0  0
    0.6520   15.6810   -4.2140 C   0  0  0  0  0  0  0  0  0  0  0  0
    0.3010   15.1600   -2.8240 C   0  0  0  0  0  0  0  0  0  0  0  0
   -1.3580   14.6720   -1.1610 C   0  0  1  0  0  0  0  0  0  0  0  0
   -0.1360   14.8790   -0.3460 N   0  0  0  0  0  0  0  0  0  0  0  0
   -2.5450   15.3930   -0.5670 C   0  0  2  0  0  0  0  0  0  0  0  0
   -0.2490   14.3210    0.9860 C   0  0  0  0  0  0  0  0  0  0  0  0
   -2.3650   15.3970    0.9260 C   0  0  2  0  0  0  0  0  0  0  0  0
   -3.9320   14.8470   -0.7670 C   0  0  0  0  0  0  0  0  0  0  0  0
   -1.6400   14.2510    1.3850 N   0  0  0  0  0  0  0  0  0  0  0  0
   -3.6830   15.4550    1.5200 N   0  0  0  0  0  0  0  0  0  0  0  0
   -4.6360   15.5010    0.3980 C   0  0  0  0  0  0  0  0  0  0  0  0
  2  1  1  6
  2  3  1  0
  2  4  1  0
  4  5  1  1
  4  6  1  0
  6  7  1  0
  6  8  1  0
  7  9  1  0
  8 10  1  0
  8 11  1  0
 10 12  1  0
 11 13  1  0
 14  9  1  6
 12 15  1  0
 13 15  1  0
 14 16  1  0
 14 17  1  0
 16 18  1  0
 17 19  1  0
 18 20  1  0
 19 20  1  0
 21 18  1  6
 21 22  1  0
 21 23  1  0
 22 24  1  0
 23 25  1  0
 23 26  1  1
 24 27  1  0
 25 27  1  1
 25 28  1  0
 26 29  1  0
 28 29  1  0
M  CHG  1   1  -1
M  END
