ucsf487-ucsf243
     RDKit          3D

 16 17  0  0  0  0  0  0  0  0999 V2000
   -7.5270   14.3230    2.7100 N   0  0  0  0  0  0  0  0  0  0  0  0
   -6.7830   14.0490    1.4730 C   0  0  1  0  0  0  0  0  0  0  0  0
   -7.5850   14.4240    0.2130 C   0  0  0  0  0  0  0  0  0  0  0  0
   -5.3940   14.7130    1.5470 C   0  0  0  0  0  0  0  0  0  0  0  0
   -4.7520   15.2090    0.2200 C   0  0  2  0  0  0  0  0  0  0  0  0
   -6.7810   14.2030   -0.9850 N   0  0  0  0  0  0  0  0  0  0  0  0
   -5.6610   15.1720   -1.0320 C   0  0  2  0  0  0  0  0  0  0  0  0
   -3.3360   14.5790    0.1340 C   0  0  2  0  0  0  0  0  0  0  0  0
   -2.4970   15.3970    1.0920 C   0  0  0  0  0  0  0  0  0  0  0  0
   -4.9250   15.1690   -2.3780 C   0  0  0  0  0  0  0  0  0  0  0  0
   -2.6990   14.1940   -1.2750 C   0  0  2  0  0  0  0  0  0  0  0  0
   -1.1130   14.2080   -1.5370 C   0  0  1  0  0  0  0  0  0  0  0  0
   -3.5990   14.4280   -2.5370 C   0  0  2  0  0  0  0  0  0  0  0  0
   -2.8800   15.0020   -3.6510 O   0  0  0  0  0  0  0  0  0  0  0  0
   -0.7740   14.5780   -2.8680 O   0  0  0  0  0  0  0  0  0  0  0  0
   -0.4250   15.0670   -0.8260 O   0  0  0  0  0  0  0  0  0  0  0  0
  2  1  1  1
  2  3  1  0
  2  4  1  0
  5  4  1  1
  3  6  1  0
  5  7  1  0
  6  7  1  0
  5  8  1  0
  8  9  1  6
  7 10  1  6
  8 11  1  0
 11 12  1  6
 10 13  1  0
 11 13  1  0
 13 14  1  6
 12 15  1  6
 12 16  1  0
M  CHG  1  16  -1
M  END
