ucsf115-ucsf278
     RDKit          3D

 23 26  0  0  0  0  0  0  0  0999 V2000
   -2.5920   13.9810   -3.4420 C   0  0  0  0  0  0  0  0  0  0  0  0
   -2.4940   15.1290   -2.6950 N   0  0  0  0  0  0  0  0  0  0  0  0
   -2.3850   14.8560   -1.2980 C   0  0  2  0  0  0  0  0  0  0  0  0
   -0.8100   13.2280   -3.7640 S   0  0  0  0  0  0  0  0  0  0  0  0
   -0.7220   11.4900   -4.3410 N   0  0  0  0  0  0  0  0  0  0  0  0
   -0.5910   12.1030   -2.2910 C   0  0  0  0  0  0  0  0  0  0  0  0
    0.0890   14.6840   -3.1010 C   0  0  0  0  0  0  0  0  0  0  0  0
    0.5520   13.8990   -4.9370 C   0  0  0  0  0  0  0  0  0  0  0  0
   -1.0310   11.1380   -5.5590 C   0  0  0  0  0  0  0  0  0  0  0  0
    0.5760   11.3110   -2.5940 C   0  0  0  0  0  0  0  0  0  0  0  0
   -0.1460   10.5360   -3.4820 C   0  0  0  0  0  0  0  0  0  0  0  0
   -0.9910   14.6620   -0.9090 N   0  0  0  0  0  0  0  0  0  0  0  0
   -3.2130   13.8870   -0.5900 C   0  0  1  0  0  0  0  0  0  0  0  0
    1.3240   14.4730   -2.4000 C   0  0  0  0  0  0  0  0  0  0  0  0
    1.8460   13.8080   -4.4000 C   0  0  0  0  0  0  0  0  0  0  0  0
   -2.2530   10.3810   -5.4120 O   0  0  0  0  0  0  0  0  0  0  0  0
   -0.7430   14.6100    0.4890 C   0  0  0  0  0  0  0  0  0  0  0  0
   -3.0770   14.1010    0.8950 C   0  0  1  0  0  0  0  0  0  0  0  0
   -4.5680   14.2890   -0.8790 N   0  0  0  0  0  0  0  0  0  0  0  0
    2.4380   14.5870   -3.3150 C   0  0  0  0  0  0  0  0  0  0  0  0
   -1.8470   14.6010    1.3310 N   0  0  0  0  0  0  0  0  0  0  0  0
   -4.0920   15.0790    1.2710 N   0  0  0  0  0  0  0  0  0  0  0  0
   -5.0020   15.1980    0.1410 C   0  0  0  0  0  0  0  0  0  0  0  0
  1  2  1  0
  3  2  1  6
  1  4  1  0
  4  5  1  0
  4  6  1  0
  4  7  1  0
  4  8  1  0
  5  9  1  0
  6 10  1  0
  5 11  1  0
 10 11  1  0
  3 12  1  0
  3 13  1  0
  7 14  1  0
  8 15  1  0
  9 16  1  0
 12 17  1  0
 13 18  1  0
 13 19  1  6
 14 20  1  0
 15 20  1  0
 17 21  1  0
 18 21  1  6
 18 22  1  0
 19 23  1  0
 22 23  1  0
M  END
