ucsf012-ucsf278
     RDKit          3D

 26 29  0  0  0  0  0  0  0  0999 V2000
   -3.5980   15.1550   -3.4850 C   0  0  0  0  0  0  0  0  0  0  0  0
   -3.1740   14.1950   -2.3730 C   0  0  2  0  0  0  0  0  0  0  0  0
   -4.0680   14.4320   -1.1520 C   0  0  2  0  0  0  0  0  0  0  0  0
   -1.8410   14.2740   -1.9080 N   0  0  0  0  0  0  0  0  0  0  0  0
   -4.6950   15.7550   -1.1280 C   0  0  0  0  0  0  0  0  0  0  0  0
   -0.7740   14.6800   -2.5680 C   0  0  0  0  0  0  0  0  0  0  0  0
   -3.0890   14.1690   -0.0460 C   0  0  1  0  0  0  0  0  0  0  0  0
   -1.7490   14.3460   -0.6380 C   0  0  1  0  0  0  0  0  0  0  0  0
   -3.0480   15.0440    1.0660 C   0  0  1  0  0  0  0  0  0  0  0  0
   -0.8000   13.7280    0.1430 N   0  0  0  0  0  0  0  0  0  0  0  0
    0.0560   13.1810   -3.3700 S   0  0  0  0  0  0  0  0  0  0  0  0
   -4.3780   15.1890    1.6570 N   0  0  0  0  0  0  0  0  0  0  0  0
   -2.1190   14.4930    2.0030 N   0  0  0  0  0  0  0  0  0  0  0  0
   -0.7730   14.3050    1.4270 C   0  0  0  0  0  0  0  0  0  0  0  0
   -0.1030   11.4950   -2.4830 C   0  0  0  0  0  0  0  0  0  0  0  0
   -1.4580   12.2370   -3.6550 O   0  0  0  0  0  0  0  0  0  0  0  0
   -0.0510   14.2380   -4.7260 C   0  0  1  0  0  0  0  0  0  0  0  0
    1.4720   12.9870   -4.4600 C   0  0  0  0  0  0  0  0  0  0  0  0
   -1.4870   15.0890   -4.9060 Cl  0  0  0  0  0  0  0  0  0  0  0  0
   -1.3480   11.0160   -4.1120 C   0  0  2  0  0  0  0  0  0  0  0  0
   -0.0330   10.6810   -3.7220 C   0  0  0  0  0  0  0  0  0  0  0  0
    1.0820   15.2350   -4.5990 C   0  0  0  0  0  0  0  0  0  0  0  0
    2.5930   13.5950   -4.1060 C   0  0  0  0  0  0  0  0  0  0  0  0
   -1.3170   11.1310   -5.6540 C   0  0  0  0  0  0  0  0  0  0  0  0
    2.1340   14.9720   -3.5680 C   0  0  0  0  0  0  0  0  0  0  0  0
   -2.3020   10.3400   -6.1730 O   0  0  0  0  0  0  0  0  0  0  0  0
  2  1  1  6
  2  3  1  0
  2  4  1  0
  3  5  1  1
  4  6  1  0
  3  7  1  0
  4  8  1  0
  7  8  1  0
  7  9  1  1
  8 10  1  1
  6 11  1  0
  9 12  1  1
  9 13  1  0
 10 14  1  0
 13 14  1  0
 11 15  1  0
 11 16  1  0
 11 17  1  0
 11 18  1  0
 17 19  1  1
 16 20  1  0
 15 21  1  0
 20 21  1  0
 17 22  1  0
 18 23  1  0
 20 24  1  6
 22 25  1  0
 23 25  1  0
 24 26  1  0
M  END
