ucsf339-ucsf380
     RDKit          3D

 28 31  0  0  0  0  0  0  0  0999 V2000
    0.7450   14.5390   -3.8250 O   0  0  0  0  0  0  0  0  0  0  0  0
    0.0700   14.6330   -2.7060 C   0  0  2  0  0  0  0  0  0  0  0  0
    1.0490   15.0900   -1.7990 O   0  0  0  0  0  0  0  0  0  0  0  0
   -0.4370   13.2400   -2.2280 C   0  0  0  0  0  0  0  0  0  0  0  0
   -1.0760   15.7100   -2.7910 C   0  0  2  0  0  0  0  0  0  0  0  0
   -2.1280   15.5720   -1.6450 C   0  0  0  0  0  0  0  0  0  0  0  0
   -1.8110   15.7800   -4.1740 C   0  0  0  0  0  0  0  0  0  0  0  0
   -1.2310   13.2950   -0.8670 C   0  0  0  0  0  0  0  0  0  0  0  0
   -1.1380   12.3070   -3.2980 C   0  0  0  0  0  0  0  0  0  0  0  0
   -3.5650   15.4800   -2.2010 C   0  0  1  0  0  0  0  0  0  0  0  0
   -2.8360   14.7550   -4.4630 N   0  0  0  0  0  0  0  0  0  0  0  0
   -0.7160   14.4010    0.0630 C   0  0  0  0  0  0  0  0  0  0  0  0
   -2.7700   13.2360   -0.9580 C   0  0  0  0  0  0  0  0  0  0  0  0
   -1.8640   11.0790   -2.7190 C   0  0  0  0  0  0  0  0  0  0  0  0
   -0.2410   11.8820   -4.4730 C   0  0  0  0  0  0  0  0  0  0  0  0
   -3.6940   14.4490   -3.3320 C   0  0  0  0  0  0  0  0  0  0  0  0
   -4.7070   15.5020   -1.1230 C   0  0  0  0  0  0  0  0  0  0  0  0
   -1.3640   14.3960    1.4310 C   0  0  0  0  0  0  0  0  0  0  0  0
   -3.5570   13.9420    0.1460 C   0  0  0  0  0  0  0  0  0  0  0  0
   -2.8560   10.5010   -3.7320 C   0  0  0  0  0  0  0  0  0  0  0  0
   -0.8210   10.6730   -5.2070 C   0  0  0  0  0  0  0  0  0  0  0  0
   -4.2590   15.7950    0.3450 C   0  0  0  0  0  0  0  0  0  0  0  0
   -5.6670   14.3120   -1.2190 C   0  0  0  0  0  0  0  0  0  0  0  0
   -2.8660   14.1570    1.4880 C   0  0  0  0  0  0  0  0  0  0  0  0
   -2.3430   10.6560   -5.1600 C   0  0  0  0  0  0  0  0  0  0  0  0
   -4.9150   15.0170    1.5170 C   0  0  0  0  0  0  0  0  0  0  0  0
   -6.7730   14.4550   -0.1790 C   0  0  0  0  0  0  0  0  0  0  0  0
   -6.2860   14.3930    1.2680 C   0  0  0  0  0  0  0  0  0  0  0  0
  2  1  1  6
  2  3  1  0
  2  4  1  0
  2  5  1  0
  5  6  1  1
  5  7  1  0
  4  8  1  0
  4  9  1  0
  6 10  1  0
  7 11  1  0
  8 12  1  0
  8 13  1  0
  9 14  1  0
  9 15  1  0
 10 16  1  0
 11 16  1  0
 10 17  1  1
 12 18  1  0
 13 19  1  0
 14 20  1  0
 15 21  1  0
 17 22  1  0
 17 23  1  0
 18 24  1  0
 19 24  1  0
 20 25  1  0
 21 25  1  0
 22 26  1  0
 23 27  1  0
 26 28  1  0
 27 28  1  0
M  CHG  1   1  -1
M  END
