ucsf115-ucsf333
     RDKit          3D

 26 29  0  0  0  0  0  0  0  0999 V2000
   -2.1330   12.5310   -3.4870 C   0  0  0  0  0  0  0  0  0  0  0  0
   -2.0230   12.2870   -2.0430 N   0  0  0  0  0  0  0  0  0  0  0  0
   -1.5340   13.4310   -1.3430 C   0  0  2  0  0  0  0  0  0  0  0  0
   -0.8210   12.2810   -4.2370 C   0  0  2  0  0  0  0  0  0  0  0  0
   -0.8780   11.1060   -5.0310 O   0  0  0  0  0  0  0  0  0  0  0  0
    0.2710   11.9520   -3.2420 C   0  0  0  0  0  0  0  0  0  0  0  0
   -0.1490   10.5790   -2.8220 C   0  0  0  0  0  0  0  0  0  0  0  0
   -0.7200   10.0240   -4.1150 C   0  0  0  0  0  0  0  0  0  0  0  0
   -0.7680   13.0500   -0.1680 N   0  0  0  0  0  0  0  0  0  0  0  0
   -2.4310   14.3700   -0.7030 C   0  0  2  0  0  0  0  0  0  0  0  0
   -0.9530   13.8450    1.0800 C   0  0  0  0  0  0  0  0  0  0  0  0
   -3.2610   13.9040    0.4150 C   0  0  1  0  0  0  0  0  0  0  0  0
   -2.9240   15.6170   -1.2490 C   0  0  2  0  0  0  0  0  0  0  0  0
   -2.3690   14.0190    1.5390 N   0  0  0  0  0  0  0  0  0  0  0  0
   -4.3740   14.8110    0.5470 N   0  0  0  0  0  0  0  0  0  0  0  0
   -4.4160   15.5720   -0.7220 C   0  0  2  0  0  0  0  0  0  0  0  0
   -2.4480   15.7540   -2.6690 N   0  0  0  0  0  0  0  0  0  0  0  0
   -1.8870   16.1670   -0.2890 C   0  0  0  0  0  0  0  0  0  0  0  0
   -5.6900   14.8520   -1.7210 Cl  0  0  0  0  0  0  0  0  0  0  0  0
   -0.9490   15.8780   -2.7860 C   0  0  1  0  0  0  0  0  0  0  0  0
   -0.2930   15.8720   -1.0950 S   0  0  0  0  0  0  0  0  0  0  0  0
   -0.2710   14.7760   -3.6560 C   0  0  0  0  0  0  0  0  0  0  0  0
    1.2910   14.7370   -3.6130 C   0  0  0  0  0  0  0  0  0  0  0  0
    1.9250   13.8000   -2.5470 C   0  0  2  0  0  0  0  0  0  0  0  0
    3.1790   14.1410   -2.3090 O   0  0  0  0  0  0  0  0  0  0  0  0
    2.1090   12.5130   -3.1240 O   0  0  0  0  0  0  0  0  0  0  0  0
  1  2  1  0
  3  2  1  1
  4  1  1  1
  4  5  1  0
  4  6  1  0
  6  7  1  0
  5  8  1  0
  7  8  1  0
  3  9  1  0
 10  3  1  6
  9 11  1  0
 10 12  1  0
 10 13  1  0
 11 14  1  0
 12 14  1  1
 12 15  1  0
 13 16  1  0
 15 16  1  0
 13 17  1  0
 13 18  1  1
 16 19  1  6
 17 20  1  0
 18 21  1  0
 20 21  1  0
 20 22  1  6
 22 23  1  0
 23 24  1  0
 24 25  1  6
 24 26  1  0
M  CHG  1  25  -1
M  END
