ucsf339-ucsf340
     RDKit          3D

 27 30  0  0  0  0  0  0  0  0999 V2000
    1.1270   14.9820   -1.7280 O   0  0  0  0  0  0  0  0  0  0  0  0
    0.3010   14.6020   -2.6840 C   0  0  1  0  0  0  0  0  0  0  0  0
    0.9560   13.5750   -3.4570 O   0  0  0  0  0  0  0  0  0  0  0  0
   -0.9880   13.9370   -2.0690 C   0  0  1  0  0  0  0  0  0  0  0  0
    0.0270   15.9230   -3.5540 C   0  0  1  0  0  0  0  0  0  0  0  0
    1.4580   12.3730   -2.8120 C   0  0  0  0  0  0  0  0  0  0  0  0
   -1.8430   14.8030   -1.1170 C   0  0  0  0  0  0  0  0  0  0  0  0
   -1.8840   13.2210   -3.0850 C   0  0  0  0  0  0  0  0  0  0  0  0
    1.0110   16.5170   -4.5800 C   0  0  0  0  0  0  0  0  0  0  0  0
   -1.3190   16.1340   -4.2590 C   0  0  1  0  0  0  0  0  0  0  0  0
    0.4750   11.4650   -2.6640 O   0  0  0  0  0  0  0  0  0  0  0  0
   -3.2120   15.3420   -1.6460 C   0  0  1  0  0  0  0  0  0  0  0  0
   -2.7920   14.1480   -3.7980 N   0  0  0  0  0  0  0  0  0  0  0  0
    0.2170   17.2390   -5.6220 N   0  0  0  0  0  0  0  0  0  0  0  0
   -1.1310   17.3920   -5.0910 C   0  0  1  0  0  0  0  0  0  0  0  0
   -2.0210   14.9960   -4.9450 C   0  0  0  0  0  0  0  0  0  0  0  0
    0.8100   18.4890   -6.0410 C   0  0  0  0  0  0  0  0  0  0  0  0
   -3.7820   14.6470   -2.8700 C   0  0  0  0  0  0  0  0  0  0  0  0
   -4.2800   15.4100   -0.5360 C   0  0  0  0  0  0  0  0  0  0  0  0
   -3.3740   15.5000   -5.3480 C   0  0  0  0  0  0  0  0  0  0  0  0
   -2.1830   17.6770   -6.1690 C   0  0  0  0  0  0  0  0  0  0  0  0
   -3.7350   15.7560    0.8490 C   0  0  0  0  0  0  0  0  0  0  0  0
   -5.1610   14.1450   -0.5520 C   0  0  0  0  0  0  0  0  0  0  0  0
   -3.2510   16.5850   -6.3700 C   0  0  0  0  0  0  0  0  0  0  0  0
   -4.3410   14.9390    1.9760 C   0  0  0  0  0  0  0  0  0  0  0  0
   -6.3090   14.2500    0.4150 C   0  0  0  0  0  0  0  0  0  0  0  0
   -5.8010   14.4690    1.8280 C   0  0  0  0  0  0  0  0  0  0  0  0
  2  1  1  1
  2  3  1  0
  2  4  1  0
  2  5  1  0
  3  6  1  0
  4  7  1  6
  4  8  1  0
  5  9  1  6
  5 10  1  0
  6 11  1  0
  7 12  1  0
  8 13  1  0
  9 14  1  0
 10 15  1  0
 14 15  1  0
 10 16  1  6
 14 17  1  0
 12 18  1  0
 13 18  1  0
 12 19  1  1
 16 20  1  0
 15 21  1  6
 19 22  1  0
 19 23  1  0
 20 24  1  0
 21 24  1  0
 22 25  1  0
 23 26  1  0
 25 27  1  0
 26 27  1  0
M  CHG  2   1  -1  11  -1
M  END
