ucsf345-ucsf138
     RDKit          3D

 26 27  0  0  0  0  0  0  0  0999 V2000
   -6.7450   14.7110    1.4760 N   0  0  0  0  0  0  0  0  0  0  0  0
   -6.8290   14.7510    0.0210 C   0  0  2  0  0  0  0  0  0  0  0  0
   -7.8710   13.8980   -0.3800 O   0  0  0  0  0  0  0  0  0  0  0  0
   -5.4850   14.3960   -0.6900 C   0  0  1  0  0  0  0  0  0  0  0  0
   -5.4180   15.1850   -1.9500 N   0  0  0  0  0  0  0  0  0  0  0  0
   -4.2480   14.5940    0.2400 C   0  0  0  0  0  0  0  0  0  0  0  0
   -4.2310   14.8200   -2.7260 C   0  0  0  0  0  0  0  0  0  0  0  0
   -3.0670   15.1390   -0.4530 N   0  0  0  0  0  0  0  0  0  0  0  0
   -2.9420   14.6780   -1.8590 C   0  0  1  0  0  0  0  0  0  0  0  0
   -2.3500   13.2550   -1.8980 C   0  0  0  0  0  0  0  0  0  0  0  0
   -1.0380   13.0850   -1.1130 C   0  0  0  0  0  0  0  0  0  0  0  0
    0.1980   13.6800   -1.7920 C   0  0  0  0  0  0  0  0  0  0  0  0
    1.0090   12.6090   -2.2850 O   0  0  0  0  0  0  0  0  0  0  0  0
    0.2760   11.7770   -3.1820 C   0  0  2  0  0  0  0  0  0  0  0  0
    0.4870   10.4050   -2.8130 O   0  0  0  0  0  0  0  0  0  0  0  0
    0.7010   12.0800   -4.6590 C   0  0  0  0  0  0  0  0  0  0  0  0
    0.2420   11.2040   -5.7680 N   0  0  0  0  0  0  0  0  0  0  0  0
    1.0870   11.2730   -6.9270 C   0  0  2  0  0  0  0  0  0  0  0  0
    1.8430   12.4230   -6.8140 O   0  0  0  0  0  0  0  0  0  0  0  0
    0.2760   11.3090   -8.0760 N   0  0  0  0  0  0  0  0  0  0  0  0
    0.3520   10.1580   -9.0030 C   0  0  0  0  0  0  0  0  0  0  0  0
    0.6010   10.5810  -10.4590 C   0  0  0  0  0  0  0  0  0  0  0  0
    1.2310    8.9450   -8.6280 C   0  0  0  0  0  0  0  0  0  0  0  0
    0.4850    9.4580  -11.4940 C   0  0  0  0  0  0  0  0  0  0  0  0
    1.9670    8.2920   -9.8040 C   0  0  0  0  0  0  0  0  0  0  0  0
    1.0490    8.1260  -11.0050 C   0  0  0  0  0  0  0  0  0  0  0  0
  2  1  1  1
  2  3  1  0
  2  4  1  0
  4  5  1  0
  4  6  1  1
  5  7  1  0
  6  8  1  0
  7  9  1  0
  8  9  1  0
  9 10  1  1
 10 11  1  0
 11 12  1  0
 12 13  1  0
 13 14  1  0
 14 15  1  1
 14 16  1  0
 16 17  1  0
 17 18  1  0
 18 19  1  1
 18 20  1  0
 20 21  1  0
 21 22  1  0
 21 23  1  0
 22 24  1  0
 23 25  1  0
 24 26  1  0
 25 26  1  0
M  END
