ucsf012-ucsf520
     RDKit          3D

 23 26  0  0  0  0  0  0  0  0999 V2000
   -3.5870   14.8090   -3.9810 C   0  0  0  0  0  0  0  0  0  0  0  0
   -2.8700   15.3950   -2.7650 C   0  0  1  0  0  0  0  0  0  0  0  0
   -3.6620   15.4840   -1.4450 C   0  0  1  0  0  0  0  0  0  0  0  0
   -1.7010   14.5950   -2.3820 N   0  0  0  0  0  0  0  0  0  0  0  0
   -5.1450   15.1610   -1.4310 C   0  0  0  0  0  0  0  0  0  0  0  0
   -0.5400   14.3730   -3.2530 C   0  0  0  0  0  0  0  0  0  0  0  0
   -2.7710   14.8410   -0.3950 C   0  0  1  0  0  0  0  0  0  0  0  0
   -1.4210   14.9660   -1.0240 C   0  0  1  0  0  0  0  0  0  0  0  0
   -2.6940   15.3290    1.0050 C   0  0  1  0  0  0  0  0  0  0  0  0
   -0.4660   14.1010   -0.3740 N   0  0  0  0  0  0  0  0  0  0  0  0
   -0.4650   12.8110   -3.3690 C   0  0  2  0  0  0  0  0  0  0  0  0
   -0.4980   15.1840   -4.5830 C   0  0  1  0  0  0  0  0  0  0  0  0
   -3.8540   15.1290    1.8270 N   0  0  0  0  0  0  0  0  0  0  0  0
   -1.6110   14.6800    1.6980 N   0  0  0  0  0  0  0  0  0  0  0  0
   -0.3290   14.5150    1.0100 C   0  0  0  0  0  0  0  0  0  0  0  0
    0.6370   12.0480   -2.6950 C   0  0  0  0  0  0  0  0  0  0  0  0
   -0.5630   12.1710   -4.6490 O   0  0  0  0  0  0  0  0  0  0  0  0
   -1.3640   16.3540   -4.4690 O   0  0  0  0  0  0  0  0  0  0  0  0
    0.8570   15.6950   -5.0410 C   0  0  0  0  0  0  0  0  0  0  0  0
   -0.5560   10.7710   -4.2900 C   0  0  0  0  0  0  0  0  0  0  0  0
    0.0110   10.6910   -2.8730 C   0  0  0  0  0  0  0  0  0  0  0  0
    0.5940   17.1310   -5.4470 C   0  0  0  0  0  0  0  0  0  0  0  0
   -0.5490   17.5200   -4.5620 C   0  0  0  0  0  0  0  0  0  0  0  0
  2  1  1  6
  2  3  1  0
  2  4  1  0
  3  5  1  6
  4  6  1  0
  3  7  1  0
  4  8  1  0
  7  8  1  0
  7  9  1  1
  8 10  1  1
 11  6  1  6
 12  6  1  1
  9 13  1  1
  9 14  1  0
 10 15  1  0
 14 15  1  0
 11 16  1  0
 11 17  1  0
 12 18  1  0
 12 19  1  0
 17 20  1  0
 16 21  1  0
 20 21  1  0
 19 22  1  0
 18 23  1  0
 22 23  1  0
M  END
