ucsf487-ucsf424
     RDKit          3D

 27 30  0  0  0  0  0  0  0  0999 V2000
   -7.6500   14.3980    2.9040 N   0  0  0  0  0  0  0  0  0  0  0  0
   -7.1310   13.9650    1.6030 C   0  0  1  0  0  0  0  0  0  0  0  0
   -7.9300   14.5480    0.4280 C   0  0  0  0  0  0  0  0  0  0  0  0
   -5.6350   14.2890    1.5640 C   0  0  0  0  0  0  0  0  0  0  0  0
   -5.0940   15.1700    0.4280 C   0  0  2  0  0  0  0  0  0  0  0  0
   -7.1940   14.4520   -0.8190 N   0  0  0  0  0  0  0  0  0  0  0  0
   -5.9790   15.2620   -0.8590 C   0  0  2  0  0  0  0  0  0  0  0  0
   -3.5830   14.9480    0.3320 C   0  0  0  0  0  0  0  0  0  0  0  0
   -5.2360   14.8910   -2.1480 C   0  0  0  0  0  0  0  0  0  0  0  0
   -3.0170   14.5130   -1.0020 C   0  0  2  0  0  0  0  0  0  0  0  0
   -1.4960   14.7220   -0.9060 C   0  0  0  0  0  0  0  0  0  0  0  0
   -3.7510   15.2270   -2.1360 C   0  0  0  0  0  0  0  0  0  0  0  0
   -0.6840   13.4940   -0.5940 C   0  0  0  0  0  0  0  0  0  0  0  0
    0.2780   13.1530   -1.6890 C   0  0  0  0  0  0  0  0  0  0  0  0
   -0.3420   12.3260   -2.6510 O   0  0  0  0  0  0  0  0  0  0  0  0
    0.6400   11.8750   -3.5550 C   0  0  2  0  0  0  0  0  0  0  0  0
    1.7850   12.2460   -3.0170 O   0  0  0  0  0  0  0  0  0  0  0  0
    0.4290   12.6000   -4.9170 C   0  0  0  0  0  0  0  0  0  0  0  0
    0.4880   11.5820   -6.0520 C   0  0  2  0  0  0  0  0  0  0  0  0
    0.0650   12.0430   -7.3680 N   0  0  0  0  0  0  0  0  0  0  0  0
   -0.4390   10.3670   -5.9680 C   0  0  2  0  0  0  0  0  0  0  0  0
    0.2150   10.8260   -8.1650 O   0  0  0  0  0  0  0  0  0  0  0  0
   -0.2200    9.7500   -7.3380 C   0  0  2  0  0  0  0  0  0  0  0  0
   -1.9160   10.5570   -5.6210 C   0  0  0  0  0  0  0  0  0  0  0  0
   -1.4540    9.1070   -7.9350 C   0  0  0  0  0  0  0  0  0  0  0  0
   -2.6720    9.2310   -5.6760 C   0  0  0  0  0  0  0  0  0  0  0  0
   -2.2770    8.3740   -6.8830 C   0  0  0  0  0  0  0  0  0  0  0  0
  2  1  1  1
  2  3  1  0
  2  4  1  0
  5  4  1  1
  3  6  1  0
  5  7  1  0
  6  7  1  0
  5  8  1  0
  7  9  1  6
  8 10  1  0
 10 11  1  1
  9 12  1  0
 10 12  1  0
 11 13  1  0
 13 14  1  0
 14 15  1  0
 15 16  1  0
 16 17  1  1
 16 18  1  0
 19 18  1  1
 19 20  1  0
 19 21  1  0
 20 22  1  0
 21 23  1  0
 22 23  1  0
 21 24  1  6
 23 25  1  6
 24 26  1  0
 25 27  1  0
 26 27  1  0
M  CHG  1  17  -1
M  END
