ucsf348-ucsf336
     RDKit          3D

 26 28  0  0  0  0  0  0  0  0999 V2000
   -6.8920   14.4470    2.2420 N   0  0  0  0  0  0  0  0  0  0  0  0
   -5.9970   14.3430    1.1450 C   0  0  2  0  0  0  0  0  0  0  0  0
   -4.8950   15.1460    1.5040 N   0  0  0  0  0  0  0  0  0  0  0  0
   -6.7450   14.7660    0.0010 N   0  0  0  0  0  0  0  0  0  0  0  0
   -6.0070   15.5240   -1.0000 C   0  0  2  0  0  0  0  0  0  0  0  0
   -3.8650   15.3630    0.5010 C   0  0  2  0  0  0  0  0  0  0  0  0
   -6.4110   14.9880   -2.2440 O   0  0  0  0  0  0  0  0  0  0  0  0
   -4.4610   15.4460   -0.9230 C   0  0  1  0  0  0  0  0  0  0  0  0
   -2.7160   14.3250    0.6260 C   0  0  0  0  0  0  0  0  0  0  0  0
   -1.6750   14.4790   -0.5080 C   0  0  1  0  0  0  0  0  0  0  0  0
   -3.8780   14.4100   -1.8650 C   0  0  0  0  0  0  0  0  0  0  0  0
   -0.5240   13.4580   -0.4690 C   0  0  0  0  0  0  0  0  0  0  0  0
   -2.3480   14.4930   -1.9000 C   0  0  0  0  0  0  0  0  0  0  0  0
    0.6970   13.9500   -1.2700 C   0  0  0  0  0  0  0  0  0  0  0  0
    1.2310   12.9410   -2.1330 O   0  0  0  0  0  0  0  0  0  0  0  0
    0.9470   13.1340   -3.5340 C   0  0  1  0  0  0  0  0  0  0  0  0
    2.1030   13.0160   -4.1680 O   0  0  0  0  0  0  0  0  0  0  0  0
   -0.0430   11.9720   -4.0410 C   0  0  2  0  0  0  0  0  0  0  0  0
    0.1820   10.8080   -3.2370 O   0  0  0  0  0  0  0  0  0  0  0  0
    0.1850   11.6000   -5.4350 N   0  0  0  0  0  0  0  0  0  0  0  0
   -0.8840   10.8650   -6.0950 C   0  0  0  0  0  0  0  0  0  0  0  0
   -0.3770   10.1910   -7.3830 C   0  0  0  0  0  0  0  0  0  0  0  0
   -1.6530    9.8740   -5.2080 C   0  0  0  0  0  0  0  0  0  0  0  0
   -1.0320    8.8280   -7.6020 C   0  0  0  0  0  0  0  0  0  0  0  0
   -2.8690    9.2840   -5.9210 C   0  0  0  0  0  0  0  0  0  0  0  0
   -2.5380    8.8560   -7.3470 C   0  0  0  0  0  0  0  0  0  0  0  0
  2  1  1  1
  2  3  1  0
  2  4  1  0
  4  5  1  0
  3  6  1  0
  5  7  1  6
  5  8  1  0
  6  8  1  0
  6  9  1  6
  9 10  1  0
  8 11  1  6
 10 12  1  6
 10 13  1  0
 11 13  1  0
 12 14  1  0
 14 15  1  0
 15 16  1  0
 16 17  1  6
 16 18  1  0
 18 19  1  1
 18 20  1  0
 20 21  1  0
 21 22  1  0
 21 23  1  0
 22 24  1  0
 23 25  1  0
 24 26  1  0
 25 26  1  0
M  CHG  1  17  -1
M  END
