ucsf123-ucsf028
     RDKit          3D

 31 34  0  0  0  0  0  0  0  0999 V2000
   -1.8520   18.8720   -4.9430 N   0  0  0  0  0  0  0  0  0  0  0  0
   -1.4050   17.6320   -5.8840 S   0  0  0  0  0  0  0  0  0  0  0  0
   -0.3170   18.1420   -6.9220 O   0  0  0  0  0  0  0  0  0  0  0  0
   -2.6530   17.1800   -6.7600 O   0  0  0  0  0  0  0  0  0  0  0  0
   -0.7900   16.1170   -5.1860 C   0  0  2  0  0  0  0  0  0  0  0  0
   -0.9410   15.9420   -3.7280 C   0  0  0  0  0  0  0  0  0  0  0  0
    0.6270   15.7060   -5.5080 C   0  0  0  0  0  0  0  0  0  0  0  0
   -0.7880   14.4260   -3.6410 C   0  0  2  0  0  0  0  0  0  0  0  0
    1.3520   15.1530   -4.2950 C   0  0  0  0  0  0  0  0  0  0  0  0
   -1.2030   13.8230   -2.3680 C   0  0  1  0  0  0  0  0  0  0  0  0
    0.6410   13.9030   -3.8490 C   0  0  1  0  0  0  0  0  0  0  0  0
    1.1800   13.1490   -2.5630 C   0  0  2  0  0  0  0  0  0  0  0  0
   -1.9630   14.5870   -1.4200 N   0  0  0  0  0  0  0  0  0  0  0  0
   -1.5890   12.3590   -2.5490 C   0  0  1  0  0  0  0  0  0  0  0  0
    2.5780   13.1680   -2.4640 O   0  0  0  0  0  0  0  0  0  0  0  0
    0.9680   11.8510   -2.6510 O   0  0  0  0  0  0  0  0  0  0  0  0
   -3.3050   14.9980   -1.7720 C   0  0  0  0  0  0  0  0  0  0  0  0
   -1.7360   13.9690   -0.2070 C   0  0  2  0  0  0  0  0  0  0  0  0
   -1.8060   11.9030   -3.9810 C   0  0  0  0  0  0  0  0  0  0  0  0
   -0.5300   11.5220   -2.0040 O   0  0  0  0  0  0  0  0  0  0  0  0
   -3.9170   15.7020   -0.6560 N   0  0  0  0  0  0  0  0  0  0  0  0
   -2.4080   14.5430    0.9760 C   0  0  2  0  0  0  0  0  0  0  0  0
   -0.2990   14.1260   -0.0170 N   0  0  0  0  0  0  0  0  0  0  0  0
   -0.1030   10.5910   -3.0690 N   0  0  0  0  0  0  0  0  0  0  0  0
   -0.4950   11.2380   -4.3110 C   0  0  1  0  0  0  0  0  0  0  0  0
   -0.6810   10.3030   -5.3600 O   0  0  0  0  0  0  0  0  0  0  0  0
   -3.8520   14.9050    0.5560 C   0  0  1  0  0  0  0  0  0  0  0  0
   -1.4410   15.5970    1.3000 N   0  0  0  0  0  0  0  0  0  0  0  0
   -0.1660   14.8910    1.1710 C   0  0  0  0  0  0  0  0  0  0  0  0
   -4.5590   15.6490    1.5620 N   0  0  0  0  0  0  0  0  0  0  0  0
   -0.3800   10.8960   -6.6150 C   0  0  0  0  0  0  0  0  0  0  0  0
  1  2  1  0
  2  3  1  0
  2  4  1  0
  5  2  1  1
  5  6  1  0
  5  7  1  0
  8  6  1  1
  7  9  1  0
  8 10  1  0
  8 11  1  0
 11  9  1  1
 11 12  1  0
 10 13  1  6
 10 14  1  0
 12 15  1  6
 12 16  1  0
 13 17  1  0
 13 18  1  0
 14 19  1  6
 14 20  1  0
 17 21  1  0
 18 22  1  0
 18 23  1  1
 20 24  1  0
 19 25  1  0
 24 25  1  0
 25 26  1  6
 21 27  1  0
 22 27  1  0
 22 28  1  6
 23 29  1  0
 28 29  1  0
 27 30  1  1
 26 31  1  0
M  CHG  1  16  -1
M  END
