ucsf248-ucsf274
     RDKit          3D

 31 34  0  0  0  0  0  0  0  0999 V2000
   -8.9160   13.0100    3.0770 N   0  0  0  0  0  0  0  0  0  0  0  0
   -8.4950   14.3950    2.2800 S   0  0  0  0  0  0  0  0  0  0  0  0
   -8.0830   15.5550    3.2900 O   0  0  0  0  0  0  0  0  0  0  0  0
   -9.7400   14.9300    1.4220 O   0  0  0  0  0  0  0  0  0  0  0  0
   -7.1350   14.2270    1.1170 C   0  0  2  0  0  0  0  0  0  0  0  0
   -5.8730   14.8010    1.5080 N   0  0  0  0  0  0  0  0  0  0  0  0
   -7.3080   14.8650   -0.1750 N   0  0  0  0  0  0  0  0  0  0  0  0
   -5.0390   14.3720    0.3820 C   0  0  1  0  0  0  0  0  0  0  0  0
   -6.0760   14.3350   -0.7750 C   0  0  2  0  0  0  0  0  0  0  0  0
   -3.8340   15.2960    0.1970 C   0  0  0  0  0  0  0  0  0  0  0  0
   -5.5940   14.9620   -2.0630 C   0  0  0  0  0  0  0  0  0  0  0  0
   -3.3220   15.3450   -1.2420 C   0  0  0  0  0  0  0  0  0  0  0  0
   -4.1280   14.5890   -2.2680 C   0  0  2  0  0  0  0  0  0  0  0  0
   -3.6170   14.6950   -3.7240 C   0  0  0  0  0  0  0  0  0  0  0  0
   -2.3250   13.8960   -3.9960 C   0  0  0  0  0  0  0  0  0  0  0  0
   -2.4930   12.7650   -4.8560 O   0  0  0  0  0  0  0  0  0  0  0  0
   -1.6680   11.6300   -4.5890 C   0  0  2  0  0  0  0  0  0  0  0  0
   -0.2080   11.7110   -5.2050 C   0  0  2  0  0  0  0  0  0  0  0  0
   -2.4150   10.3840   -4.9740 N   0  0  0  0  0  0  0  0  0  0  0  0
    0.5700   12.9980   -4.9120 C   0  0  0  0  0  0  0  0  0  0  0  0
   -2.0970    9.8830   -6.3460 C   0  0  1  0  0  0  0  0  0  0  0  0
   -0.0960   11.2950   -6.6010 N   0  0  0  0  0  0  0  0  0  0  0  0
    0.6270   13.4640   -3.4470 C   0  0  0  0  0  0  0  0  0  0  0  0
   -0.5920    9.9430   -6.6920 C   0  0  2  0  0  0  0  0  0  0  0  0
   -2.5680    8.4300   -6.4520 C   0  0  0  0  0  0  0  0  0  0  0  0
    1.1590   12.3790   -2.4680 C   0  0  2  0  0  0  0  0  0  0  0  0
   -0.2560    9.3340   -8.0580 C   0  0  0  0  0  0  0  0  0  0  0  0
   -2.2360    7.7660   -7.7940 C   0  0  0  0  0  0  0  0  0  0  0  0
    0.5900   11.2030   -2.6360 O   0  0  0  0  0  0  0  0  0  0  0  0
    0.6660   12.7230   -1.1940 O   0  0  0  0  0  0  0  0  0  0  0  0
   -0.7760    7.9100   -8.2170 C   0  0  0  0  0  0  0  0  0  0  0  0
  1  2  1  0
  2  3  1  0
  2  4  1  0
  5  2  1  1
  5  6  1  0
  5  7  1  0
  6  8  1  0
  7  9  1  0
  8  9  1  0
  8 10  1  6
  9 11  1  6
 10 12  1  0
 11 13  1  0
 12 13  1  0
 13 14  1  6
 14 15  1  0
 15 16  1  0
 17 16  1  6
 17 18  1  0
 17 19  1  0
 18 20  1  6
 19 21  1  0
 18 22  1  0
 20 23  1  0
 21 24  1  0
 22 24  1  0
 21 25  1  1
 23 26  1  0
 24 27  1  6
 25 28  1  0
 26 29  1  6
 26 30  1  0
 27 31  1  0
 28 31  1  0
M  CHG  1  29  -1
M  END
