ucsf013-ucsf243
     RDKit          3D

 15 16  0  0  0  0  0  0  0  0999 V2000
   -3.9790   14.4230    1.9350 N   0  0  0  0  0  0  0  0  0  0  0  0
   -4.8980   15.1450    1.1120 C   0  0  2  0  0  0  0  0  0  0  0  0
   -6.1720   14.4470    1.3180 N   0  0  0  0  0  0  0  0  0  0  0  0
   -4.3880   15.2420   -0.3160 C   0  0  2  0  0  0  0  0  0  0  0  0
   -5.3360   14.5210   -1.2490 C   0  0  1  0  0  0  0  0  0  0  0  0
   -7.2390   14.6140    0.3450 C   0  0  0  0  0  0  0  0  0  0  0  0
   -2.9510   14.7250   -0.4140 C   0  0  0  0  0  0  0  0  0  0  0  0
   -6.7440   14.9100   -0.9950 N   0  0  0  0  0  0  0  0  0  0  0  0
   -4.9060   14.7160   -2.7140 C   0  0  0  0  0  0  0  0  0  0  0  0
   -2.4480   14.5030   -1.8560 C   0  0  2  0  0  0  0  0  0  0  0  0
   -0.8600   14.5820   -2.0310 C   0  0  2  0  0  0  0  0  0  0  0  0
   -3.4210   15.1650   -2.8670 C   0  0  1  0  0  0  0  0  0  0  0  0
   -2.9460   14.8190   -4.2000 O   0  0  0  0  0  0  0  0  0  0  0  0
   -0.4510   14.0800   -3.2940 O   0  0  0  0  0  0  0  0  0  0  0  0
   -0.1730   13.7890   -1.2200 O   0  0  0  0  0  0  0  0  0  0  0  0
  2  1  1  1
  2  3  1  0
  2  4  1  0
  4  5  1  0
  3  6  1  0
  4  7  1  1
  5  8  1  0
  6  8  1  0
  5  9  1  6
 10  7  1  1
 10 11  1  0
  9 12  1  0
 10 12  1  0
 12 13  1  6
 11 14  1  6
 11 15  1  0
M  CHG  1  15  -1
M  END
