ucsf403-ucsf138
     RDKit          3D

 21 23  0  0  0  0  0  0  0  0999 V2000
    0.8660    9.8190   -7.4920 N   0  0  0  0  0  0  0  0  0  0  0  0
    1.1590   11.1700   -6.9860 C   0  0  2  0  0  0  0  0  0  0  0  0
    2.4480   11.4020   -6.5680 O   0  0  0  0  0  0  0  0  0  0  0  0
   -0.5910    9.8020   -7.3030 C   0  0  2  0  0  0  0  0  0  0  0  0
    1.1570    9.5850   -8.8980 C   0  0  0  0  0  0  0  0  0  0  0  0
    0.2980   11.2630   -5.8640 N   0  0  0  0  0  0  0  0  0  0  0  0
   -0.8610   11.2130   -6.7210 C   0  0  2  0  0  0  0  0  0  0  0  0
   -1.0830    8.6170   -6.4620 C   0  0  0  0  0  0  0  0  0  0  0  0
   -0.0480    9.9950   -9.7250 C   0  0  0  0  0  0  0  0  0  0  0  0
    1.7170    8.2510   -9.4490 C   0  0  0  0  0  0  0  0  0  0  0  0
    0.5350   12.4260   -4.9620 C   0  0  0  0  0  0  0  0  0  0  0  0
   -2.2690   11.3490   -6.1830 C   0  0  2  0  0  0  0  0  0  0  0  0
   -2.5480    8.7940   -6.1340 C   0  0  0  0  0  0  0  0  0  0  0  0
    0.3030   10.3170  -11.1500 C   0  0  0  0  0  0  0  0  0  0  0  0
    1.3160    7.9780  -10.8970 C   0  0  0  0  0  0  0  0  0  0  0  0
   -2.5260   12.8980   -5.3190 Cl  0  0  0  0  0  0  0  0  0  0  0  0
    1.1130   12.1650   -3.5130 C   0  0  1  0  0  0  0  0  0  0  0  0
   -2.7440   10.1230   -5.4200 C   0  0  0  0  0  0  0  0  0  0  0  0
    1.2210    9.2540  -11.7380 C   0  0  0  0  0  0  0  0  0  0  0  0
    0.6360   12.9640   -2.5920 O   0  0  0  0  0  0  0  0  0  0  0  0
    0.7120   10.9040   -3.0070 O   0  0  0  0  0  0  0  0  0  0  0  0
  1  2  1  0
  2  3  1  1
  1  4  1  0
  1  5  1  0
  2  6  1  0
  4  7  1  0
  7  6  1  1
  4  8  1  1
  5  9  1  0
  5 10  1  0
  6 11  1  0
  7 12  1  0
  8 13  1  0
  9 14  1  0
 10 15  1  0
 12 16  1  1
 11 17  1  0
 12 18  1  0
 13 18  1  0
 14 19  1  0
 15 19  1  0
 17 20  1  1
 17 21  1  0
M  CHG  1  20  -1
M  END
