ucsf487-ucsf364
     RDKit          3D

 24 26  0  0  0  0  0  0  0  0999 V2000
   -7.6260   14.2910    2.9390 N   0  0  0  0  0  0  0  0  0  0  0  0
   -7.0550   13.9310    1.6330 C   0  0  1  0  0  0  0  0  0  0  0  0
   -7.9740   14.3820    0.4700 C   0  0  0  0  0  0  0  0  0  0  0  0
   -5.6170   14.4690    1.6010 C   0  0  0  0  0  0  0  0  0  0  0  0
   -4.9630   14.4190    0.2340 C   0  0  1  0  0  0  0  0  0  0  0  0
   -7.2700   15.0680   -0.6080 N   0  0  0  0  0  0  0  0  0  0  0  0
   -5.9670   14.4670   -0.9380 C   0  0  1  0  0  0  0  0  0  0  0  0
   -3.9140   15.5200    0.1450 C   0  0  0  0  0  0  0  0  0  0  0  0
   -5.4040   15.2480   -2.1170 C   0  0  0  0  0  0  0  0  0  0  0  0
   -3.0100   15.2940   -1.0560 C   0  0  1  0  0  0  0  0  0  0  0  0
   -2.0930   14.0820   -0.7640 C   0  0  0  0  0  0  0  0  0  0  0  0
   -3.8810   15.1140   -2.3220 C   0  0  0  0  0  0  0  0  0  0  0  0
   -0.6050   14.4250   -0.6570 C   0  0  0  0  0  0  0  0  0  0  0  0
    0.0370   14.3600   -1.9300 O   0  0  0  0  0  0  0  0  0  0  0  0
    0.5220   13.0570   -2.3310 C   0  0  1  0  0  0  0  0  0  0  0  0
   -0.0050   12.1490   -1.5130 O   0  0  0  0  0  0  0  0  0  0  0  0
   -0.0480   12.9030   -3.8120 C   0  0  1  0  0  0  0  0  0  0  0  0
    0.9790   12.9870   -4.9870 C   0  0  1  0  0  0  0  0  0  0  0  0
   -0.9130   11.6060   -3.9900 C   0  0  0  0  0  0  0  0  0  0  0  0
    2.4530   13.0860   -4.5880 C   0  0  0  0  0  0  0  0  0  0  0  0
   -1.6260   11.4670   -5.3560 C   0  0  0  0  0  0  0  0  0  0  0  0
    0.7070   11.8320   -5.9520 C   0  0  2  0  0  0  0  0  0  0  0  0
    1.6870   11.7360   -6.9930 O   0  0  0  0  0  0  0  0  0  0  0  0
   -0.6980   11.8350   -6.5040 C   0  0  0  0  0  0  0  0  0  0  0  0
  2  1  1  1
  2  3  1  0
  2  4  1  0
  5  4  1  1
  3  6  1  0
  5  7  1  0
  6  7  1  0
  5  8  1  0
  7  9  1  6
  8 10  1  0
 10 11  1  1
  9 12  1  0
 10 12  1  0
 11 13  1  0
 13 14  1  0
 14 15  1  0
 15 16  1  1
 15 17  1  0
 17 18  1  0
 17 19  1  1
 18 20  1  1
 19 21  1  0
 18 22  1  0
 22 23  1  6
 21 24  1  0
 22 24  1  0
M  CHG  1  16  -1
M  END
