ucsf028-ucsf584
     RDKit          3D

 22 25  0  0  0  0  0  0  0  0999 V2000
   -3.8710   16.5180    1.0650 N   0  0  0  0  0  0  0  0  0  0  0  0
   -3.8710   15.0700    0.8260 C   0  0  2  0  0  0  0  0  0  0  0  0
   -2.4630   14.4240    0.7310 C   0  0  1  0  0  0  0  0  0  0  0  0
   -4.8160   14.5940   -0.3440 C   0  0  0  0  0  0  0  0  0  0  0  0
   -3.9400   14.4770   -1.7180 C   0  0  0  0  0  0  0  0  0  0  0  0
   -1.7880   14.4940   -0.6050 C   0  0  2  0  0  0  0  0  0  0  0  0
   -1.4170   15.1110    1.5070 N   0  0  0  0  0  0  0  0  0  0  0  0
   -5.4160   13.3310    0.1780 N   0  0  0  0  0  0  0  0  0  0  0  0
   -6.0990   15.3700   -0.5300 N   0  0  0  0  0  0  0  0  0  0  0  0
   -2.4810   14.0290   -1.7610 N   0  0  0  0  0  0  0  0  0  0  0  0
   -0.5210   13.8550   -0.2900 N   0  0  0  0  0  0  0  0  0  0  0  0
   -0.1870   14.4990    0.9900 C   0  0  0  0  0  0  0  0  0  0  0  0
   -7.2360   14.6910    0.1580 C   0  0  0  0  0  0  0  0  0  0  0  0
   -6.5270   13.7370    1.0640 C   0  0  0  0  0  0  0  0  0  0  0  0
   -1.7700   14.4950   -2.9880 C   0  0  0  0  0  0  0  0  0  0  0  0
   -0.6610   13.5590   -3.5410 C   0  0  2  0  0  0  0  0  0  0  0  0
   -1.1060   12.6920   -4.6880 C   0  0  0  0  0  0  0  0  0  0  0  0
   -0.2190   12.6270   -2.5340 O   0  0  0  0  0  0  0  0  0  0  0  0
   -0.0040   11.3210   -3.1670 N   0  0  0  0  0  0  0  0  0  0  0  0
   -0.1290   11.5550   -4.5960 C   0  0  1  0  0  0  0  0  0  0  0  0
   -0.6310   10.3990   -5.2360 O   0  0  0  0  0  0  0  0  0  0  0  0
   -0.5320   10.5230   -6.6480 C   0  0  0  0  0  0  0  0  0  0  0  0
  2  1  1  6
  2  3  1  0
  2  4  1  0
  4  5  1  0
  3  6  1  0
  3  7  1  1
  4  8  1  0
  4  9  1  0
  5 10  1  0
  6 10  1  0
  6 11  1  1
  7 12  1  0
 11 12  1  0
  9 13  1  0
  8 14  1  0
 13 14  1  0
 10 15  1  0
 16 15  1  1
 16 17  1  0
 16 18  1  0
 18 19  1  0
 17 20  1  0
 19 20  1  0
 20 21  1  6
 21 22  1  0
M  END
