ucsf258-ucsf523
     RDKit          3D

 16 17  0  0  0  0  0  0  0  0999 V2000
    1.3870   14.3820   -1.8520 O   0  0  0  0  0  0  0  0  0  0  0  0
    0.2440   13.8950   -2.2740 C   0  0  2  0  0  0  0  0  0  0  0  0
    0.3840   14.0160   -3.6780 O   0  0  0  0  0  0  0  0  0  0  0  0
   -1.0470   14.6580   -1.7800 C   0  0  1  0  0  0  0  0  0  0  0  0
   -2.2260   14.4780   -2.7970 C   0  0  2  0  0  0  0  0  0  0  0  0
   -1.5060   14.4450   -0.3530 N   0  0  0  0  0  0  0  0  0  0  0  0
   -1.8430   14.8630   -4.1310 O   0  0  0  0  0  0  0  0  0  0  0  0
   -0.4150   14.6130    0.6350 N   0  0  0  0  0  0  0  0  0  0  0  0
   -3.4680   15.2590   -2.4110 C   0  0  0  0  0  0  0  0  0  0  0  0
   -2.7130   15.2070    0.0030 C   0  0  1  0  0  0  0  0  0  0  0  0
   -3.8550   14.8960   -0.9910 C   0  0  1  0  0  0  0  0  0  0  0  0
   -3.2120   14.8030    1.4050 C   0  0  0  0  0  0  0  0  0  0  0  0
   -4.5670   15.2140    1.7680 N   0  0  0  0  0  0  0  0  0  0  0  0
   -5.2590   15.3270   -0.5400 C   0  0  0  0  0  0  0  0  0  0  0  0
   -5.5210   14.7300    0.8250 C   0  0  2  0  0  0  0  0  0  0  0  0
   -6.8270   14.9160    1.3020 O   0  0  0  0  0  0  0  0  0  0  0  0
  2  1  1  1
  2  3  1  0
  2  4  1  0
  4  5  1  0
  4  6  1  1
  5  7  1  6
  6  8  1  0
  5  9  1  0
  6 10  1  0
 11  9  1  6
 10 11  1  0
 10 12  1  1
 12 13  1  0
 11 14  1  0
 13 15  1  0
 14 15  1  0
 15 16  1  1
M  CHG  1   1  -1
M  END
