ucsf365-ucsf396
     RDKit          3D

 22 23  0  0  0  0  0  0  0  0999 V2000
    0.4540   11.1320   -2.5580 O   0  0  0  0  0  0  0  0  0  0  0  0
    0.5200   12.4340   -2.7420 C   0  0  1  0  0  0  0  0  0  0  0  0
    1.7060   12.7450   -2.0510 O   0  0  0  0  0  0  0  0  0  0  0  0
    0.7600   12.8110   -4.2270 C   0  0  0  0  0  0  0  0  0  0  0  0
   -0.4300   13.3710   -5.0450 C   0  0  1  0  0  0  0  0  0  0  0  0
   -1.6980   12.5170   -4.9770 C   0  0  2  0  0  0  0  0  0  0  0  0
   -0.7470   14.8570   -4.7620 C   0  0  0  0  0  0  0  0  0  0  0  0
   -1.4360   11.1360   -5.2100 O   0  0  0  0  0  0  0  0  0  0  0  0
   -2.6740   12.9850   -6.0530 C   0  0  0  0  0  0  0  0  0  0  0  0
   -2.2670   15.2120   -4.8070 C   0  0  2  0  0  0  0  0  0  0  0  0
   -3.0270   15.0050   -3.4690 C   0  0  0  0  0  0  0  0  0  0  0  0
   -3.0780   14.4520   -5.8780 C   0  0  0  0  0  0  0  0  0  0  0  0
   -2.3530   15.3980   -2.1480 C   0  0  0  0  0  0  0  0  0  0  0  0
   -2.8790   14.5830   -1.0430 N   0  0  0  0  0  0  0  0  0  0  0  0
   -3.4650   15.2700    0.0910 C   0  0  2  0  0  0  0  0  0  0  0  0
   -2.9650   14.8170    1.3350 O   0  0  0  0  0  0  0  0  0  0  0  0
   -5.0100   15.3120    0.1390 C   0  0  1  0  0  0  0  0  0  0  0  0
   -5.7040   14.7860   -1.1130 C   0  0  0  0  0  0  0  0  0  0  0  0
   -5.6040   14.6710    1.4020 C   0  0  0  0  0  0  0  0  0  0  0  0
   -7.1680   14.9000   -1.0420 N   0  0  0  0  0  0  0  0  0  0  0  0
   -7.1300   14.4620    1.4400 C   0  0  0  0  0  0  0  0  0  0  0  0
   -7.7820   14.2020    0.0880 C   0  0  0  0  0  0  0  0  0  0  0  0
  2  1  1  6
  2  3  1  0
  2  4  1  0
  5  4  1  1
  5  6  1  0
  5  7  1  0
  6  8  1  6
  6  9  1  0
  7 10  1  0
 10 11  1  1
  9 12  1  0
 10 12  1  0
 11 13  1  0
 13 14  1  0
 14 15  1  0
 15 16  1  1
 15 17  1  0
 17 18  1  6
 17 19  1  0
 18 20  1  0
 19 21  1  0
 20 22  1  0
 21 22  1  0
M  CHG  1   1  -1
M  END
