ucsf405-ucsf187
     RDKit          3D

 15 16  0  0  0  0  0  0  0  0999 V2000
   15.0680    5.6560   11.9440 N   0  0  0  0  0  0  0  0  0  0  0  0
   14.7550    5.5790   10.4990 C   0  0  2  0  0  0  0  0  0  0  0  0
   13.5420    4.6890   10.2130 C   0  0  0  0  0  0  0  0  0  0  0  0
   15.9990    5.2140    9.6690 C   0  0  0  0  0  0  0  0  0  0  0  0
   15.6160    4.4410    8.4040 C   0  0  1  0  0  0  0  0  0  0  0  0
   13.8560    3.2430    9.8390 C   0  0  1  0  0  0  0  0  0  0  0  0
   14.9790    5.3770    7.5500 O   0  0  0  0  0  0  0  0  0  0  0  0
   16.7160    3.8170    7.5790 C   0  0  0  0  0  0  0  0  0  0  0  0
   14.9360    3.1040    8.7770 C   0  0  1  0  0  0  0  0  0  0  0  0
   14.3860    2.6050   11.1000 C   0  0  0  0  0  0  0  0  0  0  0  0
   15.9370    2.8890    6.5690 C   0  0  1  0  0  0  0  0  0  0  0  0
   14.7810    2.2520    7.4760 C   0  0  2  0  0  0  0  0  0  0  0  0
   15.3850    3.6750    5.6350 O   0  0  0  0  0  0  0  0  0  0  0  0
   13.6120    2.3300    6.8780 O   0  0  0  0  0  0  0  0  0  0  0  0
   15.0220    0.8670    7.7180 O   0  0  0  0  0  0  0  0  0  0  0  0
  2  1  1  1
  2  3  1  0
  2  4  1  0
  4  5  1  0
  3  6  1  0
  5  7  1  6
  5  8  1  0
  5  9  1  0
  9  6  1  6
  6 10  1  1
  8 11  1  0
  9 12  1  0
 11 12  1  0
 11 13  1  6
 12 14  1  6
 12 15  1  0
M  CHG  2  13  -1  14  -1
M  END
