ucsf333-ucsf016
     RDKit          3D

 20 23  0  0  0  0  0  0  0  0999 V2000
   -6.3000   14.8020   -1.1740 Cl  0  0  0  0  0  0  0  0  0  0  0  0
   -4.7120   15.6270   -1.0890 C   0  0  2  0  0  0  0  0  0  0  0  0
   -3.9500   15.4650   -2.4230 C   0  0  0  0  0  0  0  0  0  0  0  0
   -3.9360   15.2570    0.1960 C   0  0  0  0  0  0  0  0  0  0  0  0
   -2.9280   14.3570   -2.4560 C   0  0  1  0  0  0  0  0  0  0  0  0
   -2.4220   15.2970   -0.0410 C   0  0  2  0  0  0  0  0  0  0  0  0
   -1.9610   14.4930   -3.6500 C   0  0  0  0  0  0  0  0  0  0  0  0
   -2.1450   14.2840   -1.1650 C   0  0  2  0  0  0  0  0  0  0  0  0
   -1.6300   14.9900    1.1940 N   0  0  0  0  0  0  0  0  0  0  0  0
   -0.4530   14.7520   -3.2640 C   0  0  1  0  0  0  0  0  0  0  0  0
   -0.4370   14.2340   -1.5960 S   0  0  1  0  0  0  0  0  0  0  0  0
   -2.3160   13.6120   -4.8460 C   0  0  0  0  0  0  0  0  0  0  0  0
   -2.5330   15.0860   -4.9460 C   0  0  0  0  0  0  0  0  0  0  0  0
   -0.2290   14.6180    0.9320 C   0  0  0  0  0  0  0  0  0  0  0  0
    0.6640   14.0460   -4.0630 C   0  0  0  0  0  0  0  0  0  0  0  0
    0.1950   15.1580   -0.3420 N   0  0  0  0  0  0  0  0  0  0  0  0
    1.0350   12.5710   -3.6940 C   0  0  0  0  0  0  0  0  0  0  0  0
    0.2640   11.8460   -2.5510 C   0  0  2  0  0  0  0  0  0  0  0  0
    0.8180   12.0790   -1.3920 O   0  0  0  0  0  0  0  0  0  0  0  0
    0.4060   10.4370   -2.6280 O   0  0  0  0  0  0  0  0  0  0  0  0
  2  1  1  6
  2  3  1  0
  2  4  1  0
  5  3  1  1
  6  4  1  1
  5  7  1  0
  8  5  1  6
  6  8  1  0
  6  9  1  0
  7 10  1  0
  8 11  1  0
 10 11  1  0
  7 12  1  0
  7 13  1  0
 12 13  1  0
  9 14  1  0
 10 15  1  6
 11 16  1  1
 14 16  1  0
 15 17  1  0
 17 18  1  0
 18 19  1  1
 18 20  1  0
M  CHG  1  19  -1
M  END
