ucsf367-ucsf114
     RDKit          3D

 29 31  0  0  0  0  0  0  0  0999 V2000
    0.5110   10.8810   -3.3640 O   0  0  0  0  0  0  0  0  0  0  0  0
    1.1620   11.9230   -3.8650 C   0  0  2  0  0  0  0  0  0  0  0  0
    1.3040   12.8480   -2.8610 O   0  0  0  0  0  0  0  0  0  0  0  0
    0.5170   12.5480   -5.1280 C   0  0  0  0  0  0  0  0  0  0  0  0
    0.4240   11.5870   -6.1690 O   0  0  0  0  0  0  0  0  0  0  0  0
    2.6340   13.2770   -2.8490 C   0  0  0  0  0  0  0  0  0  0  0  0
    2.6570   14.3810   -1.4680 S   0  0  0  0  0  0  0  0  0  0  0  0
   -0.4860   10.5690   -5.8220 C   0  0  0  0  0  0  0  0  0  0  0  0
   -0.5880    9.6270   -7.0160 C   0  0  0  0  0  0  0  0  0  0  0  0
   -1.8440   11.1570   -5.4700 C   0  0  0  0  0  0  0  0  0  0  0  0
    0.8520   14.3810   -1.2290 C   0  0  2  0  0  0  0  0  0  0  0  0
   -1.6030    8.5130   -6.7920 C   0  0  0  0  0  0  0  0  0  0  0  0
   -2.8880   10.0660   -5.2570 C   0  0  0  0  0  0  0  0  0  0  0  0
    0.0560   15.1290   -2.2520 N   0  0  0  0  0  0  0  0  0  0  0  0
    0.4690   14.7660    0.0900 N   0  0  0  0  0  0  0  0  0  0  0  0
    0.2660   14.6230   -3.6280 C   0  0  0  0  0  0  0  0  0  0  0  0
   -2.9680    9.0580   -6.4020 C   0  0  0  0  0  0  0  0  0  0  0  0
   -1.3670   15.4210   -1.9140 C   0  0  2  0  0  0  0  0  0  0  0  0
   -0.8740   14.4560    0.4160 C   0  0  1  0  0  0  0  0  0  0  0  0
    0.5110   15.6150   -4.7790 C   0  0  0  0  0  0  0  0  0  0  0  0
   -1.0260   14.6950    1.8090 O   0  0  0  0  0  0  0  0  0  0  0  0
   -1.8490   15.2840   -0.4330 C   0  0  2  0  0  0  0  0  0  0  0  0
   -2.4370   14.6360   -2.6640 C   0  0  0  0  0  0  0  0  0  0  0  0
   -0.6500   16.4000   -5.0630 O   0  0  0  0  0  0  0  0  0  0  0  0
   -3.2220   14.7450   -0.4730 N   0  0  0  0  0  0  0  0  0  0  0  0
   -3.6750   14.9300   -1.8370 C   0  0  0  0  0  0  0  0  0  0  0  0
   -0.2930   17.7170   -5.4590 C   0  0  0  0  0  0  0  0  0  0  0  0
    0.8060   18.2080   -4.5340 C   0  0  0  0  0  0  0  0  0  0  0  0
   -1.5470   18.5810   -5.3670 C   0  0  0  0  0  0  0  0  0  0  0  0
  2  1  1  1
  2  3  1  0
  2  4  1  0
  4  5  1  0
  3  6  1  0
  6  7  1  0
  5  8  1  0
  8  9  1  0
  8 10  1  0
 11  7  1  6
  9 12  1  0
 10 13  1  0
 11 14  1  0
 11 15  1  0
 14 16  1  0
 12 17  1  0
 13 17  1  0
 14 18  1  0
 15 19  1  0
 16 20  1  0
 19 21  1  1
 18 22  1  0
 19 22  1  0
 18 23  1  6
 20 24  1  0
 22 25  1  6
 23 26  1  0
 25 26  1  0
 24 27  1  0
 27 28  1  0
 27 29  1  0
M  CHG  1   1  -1
M  END
