ucsf365-ucsf109
     RDKit          3D

 25 28  0  0  0  0  0  0  0  0999 V2000
    0.5740   10.6130   -2.3040 O   0  0  0  0  0  0  0  0  0  0  0  0
    0.4620   11.9280   -2.4540 C   0  0  1  0  0  0  0  0  0  0  0  0
    1.6570   12.4520   -1.9470 O   0  0  0  0  0  0  0  0  0  0  0  0
    0.4640   12.3100   -3.9450 C   0  0  0  0  0  0  0  0  0  0  0  0
   -0.7050   13.2700   -4.2190 C   0  0  2  0  0  0  0  0  0  0  0  0
   -1.8860   12.4980   -4.7970 C   0  0  2  0  0  0  0  0  0  0  0  0
   -0.3610   14.4990   -5.0660 C   0  0  0  0  0  0  0  0  0  0  0  0
   -1.4000   11.3840   -5.5570 O   0  0  0  0  0  0  0  0  0  0  0  0
   -2.7970   13.3740   -5.6620 C   0  0  0  0  0  0  0  0  0  0  0  0
   -1.4890   15.5250   -5.0380 C   0  0  0  0  0  0  0  0  0  0  0  0
   -2.8560   14.8780   -5.2650 C   0  0  2  0  0  0  0  0  0  0  0  0
   -3.7570   15.1870   -4.0480 C   0  0  0  0  0  0  0  0  0  0  0  0
   -3.7680   14.2030   -2.8660 C   0  0  1  0  0  0  0  0  0  0  0  0
   -3.2610   14.7500   -1.5180 C   0  0  0  0  0  0  0  0  0  0  0  0
   -5.2030   13.8380   -2.5340 C   0  0  0  0  0  0  0  0  0  0  0  0
   -5.6730   15.0150   -1.6930 C   0  0  2  0  0  0  0  0  0  0  0  0
   -4.5000   15.2130   -0.7070 C   0  0  1  0  0  0  0  0  0  0  0  0
   -4.7420   14.5090    0.6400 C   0  0  1  0  0  0  0  0  0  0  0  0
   -7.0160   14.8880   -1.1170 N   0  0  0  0  0  0  0  0  0  0  0  0
   -3.7910   15.0010    1.6360 N   0  0  0  0  0  0  0  0  0  0  0  0
   -6.0990   14.7860    1.0810 N   0  0  0  0  0  0  0  0  0  0  0  0
   -7.0440   14.2520    0.1520 C   0  0  1  0  0  0  0  0  0  0  0  0
   -8.3130   14.4960    0.8060 N   0  0  0  0  0  0  0  0  0  0  0  0
   -6.5670   14.0810    2.2630 N   0  0  0  0  0  0  0  0  0  0  0  0
   -7.9840   14.4230    2.2320 C   0  0  0  0  0  0  0  0  0  0  0  0
  2  1  1  6
  2  3  1  0
  2  4  1  0
  5  4  1  6
  5  6  1  0
  5  7  1  0
  6  8  1  6
  6  9  1  0
  7 10  1  0
  9 11  1  0
 10 11  1  0
 11 12  1  1
 13 12  1  6
 13 14  1  0
 13 15  1  0
 16 15  1  1
 17 14  1  6
 16 17  1  0
 17 18  1  0
 16 19  1  0
 18 20  1  1
 18 21  1  0
 22 19  1  6
 21 22  1  0
 22 23  1  0
 21 24  1  0
 23 25  1  0
 24 25  1  0
M  CHG  1   1  -1
M  END
