ucsf519-ucsf411
     RDKit          3D

 25 27  0  0  0  0  0  0  0  0999 V2000
   -0.2040   16.1550   -2.5340 C   0  0  0  0  0  0  0  0  0  0  0  0
   -1.1330   15.3460   -3.4110 C   0  0  2  0  0  0  0  0  0  0  0  0
   -2.3100   14.6040   -2.7350 C   0  0  2  0  0  0  0  0  0  0  0  0
   -0.4140   14.5870   -4.5550 C   0  0  2  0  0  0  0  0  0  0  0  0
   -3.4260   14.6260   -3.6230 O   0  0  0  0  0  0  0  0  0  0  0  0
   -2.6590   15.1370   -1.4800 N   0  0  0  0  0  0  0  0  0  0  0  0
   -0.1170   15.9110   -5.3440 C   0  0  1  0  0  0  0  0  0  0  0  0
   -1.3990   13.7200   -5.3570 C   0  0  0  0  0  0  0  0  0  0  0  0
    0.8310   13.7470   -4.1360 C   0  0  0  0  0  0  0  0  0  0  0  0
   -4.0410   15.2000   -1.0780 C   0  0  0  0  0  0  0  0  0  0  0  0
   -1.8920   14.6820   -0.3720 C   0  0  1  0  0  0  0  0  0  0  0  0
   -1.4480   16.7240   -5.6230 C   0  0  1  0  0  0  0  0  0  0  0  0
   -2.6820   14.4340   -5.7860 C   0  0  0  0  0  0  0  0  0  0  0  0
    1.0890   16.7930   -4.9950 C   0  0  0  0  0  0  0  0  0  0  0  0
    0.6150   12.2340   -3.9740 C   0  0  0  0  0  0  0  0  0  0  0  0
   -0.5490   15.0540   -0.4720 O   0  0  0  0  0  0  0  0  0  0  0  0
   -3.9350   15.3590    0.4330 C   0  0  0  0  0  0  0  0  0  0  0  0
   -2.5030   15.3350    0.7540 N   0  0  0  0  0  0  0  0  0  0  0  0
   -2.7590   15.9340   -5.4680 C   0  0  0  0  0  0  0  0  0  0  0  0
   -1.4720   18.0820   -5.0260 C   0  0  0  0  0  0  0  0  0  0  0  0
    0.9190   18.3040   -5.0070 C   0  0  0  0  0  0  0  0  0  0  0  0
    0.9820   11.6750   -2.5760 C   0  0  1  0  0  0  0  0  0  0  0  0
   -0.3350   18.7170   -5.7400 C   0  0  0  0  0  0  0  0  0  0  0  0
    0.3160   12.3670   -1.5430 O   0  0  0  0  0  0  0  0  0  0  0  0
    0.4880   10.4440   -2.4050 O   0  0  0  0  0  0  0  0  0  0  0  0
  2  1  1  1
  2  3  1  0
  2  4  1  0
  3  5  1  6
  3  6  1  0
  4  7  1  0
  4  8  1  0
  4  9  1  1
  6 10  1  0
  6 11  1  0
  7 12  1  0
  8 13  1  0
  7 14  1  1
  9 15  1  0
 11 16  1  6
 10 17  1  0
 11 18  1  0
 17 18  1  0
 12 19  1  1
 13 19  1  0
 12 20  1  0
 14 21  1  0
 15 22  1  0
 20 23  1  0
 21 23  1  0
 22 24  1  1
 22 25  1  0
M  CHG  1  25  -1
M  END
