ucsf030-ucsf424
     RDKit          3D

 30 34  0  0  0  0  0  0  0  0999 V2000
   -4.0900   15.2480   -1.5120 Cl  0  0  0  0  0  0  0  0  0  0  0  0
   -2.7430   15.6000   -0.3850 C   0  0  1  0  0  0  0  0  0  0  0  0
   -2.8260   14.7570    0.8780 C   0  0  2  0  0  0  0  0  0  0  0  0
   -1.2780   15.5970   -0.9070 C   0  0  1  0  0  0  0  0  0  0  0  0
   -3.7840   15.3660    1.7860 N   0  0  0  0  0  0  0  0  0  0  0  0
   -0.5870   14.4000   -0.4290 N   0  0  0  0  0  0  0  0  0  0  0  0
   -1.6150   14.6480    1.6780 N   0  0  0  0  0  0  0  0  0  0  0  0
   -0.8910   15.7520   -2.3110 N   0  0  0  0  0  0  0  0  0  0  0  0
   -0.3530   14.4350    0.9810 C   0  0  0  0  0  0  0  0  0  0  0  0
   -0.1350   14.6550   -2.8490 C   0  0  0  0  0  0  0  0  0  0  0  0
   -1.9180   16.3020   -3.2330 C   0  0  0  0  0  0  0  0  0  0  0  0
   -1.1980   13.7390   -3.4080 C   0  0  1  0  0  0  0  0  0  0  0  0
   -2.3370   15.5490   -4.5250 C   0  0  0  0  0  0  0  0  0  0  0  0
   -0.9940   12.2040   -3.3080 C   0  0  1  0  0  0  0  0  0  0  0  0
   -2.4270   13.5060   -2.4530 C   0  0  0  0  0  0  0  0  0  0  0  0
   -1.5810   14.2680   -4.7730 C   0  0  0  0  0  0  0  0  0  0  0  0
    0.4010   11.7020   -3.4400 C   0  0  1  0  0  0  0  0  0  0  0  0
   -1.7580   12.2110   -1.9690 C   0  0  0  0  0  0  0  0  0  0  0  0
    1.1050   12.0760   -2.3910 O   0  0  0  0  0  0  0  0  0  0  0  0
    0.3190   10.3260   -3.3070 O   0  0  0  0  0  0  0  0  0  0  0  0
    0.9940   12.2730   -4.7440 C   0  0  0  0  0  0  0  0  0  0  0  0
    0.2850   11.9630   -6.1060 C   0  0  1  0  0  0  0  0  0  0  0  0
    1.3120   11.4940   -7.0830 N   0  0  0  0  0  0  0  0  0  0  0  0
   -0.8300   10.9020   -6.2680 C   0  0  1  0  0  0  0  0  0  0  0  0
    0.7700   10.4110   -7.8900 O   0  0  0  0  0  0  0  0  0  0  0  0
   -0.2370    9.8090   -7.1150 C   0  0  2  0  0  0  0  0  0  0  0  0
   -1.6230   10.2430   -5.1530 C   0  0  0  0  0  0  0  0  0  0  0  0
   -1.3080    9.1330   -7.9540 C   0  0  0  0  0  0  0  0  0  0  0  0
   -2.4750    9.0610   -5.6630 C   0  0  0  0  0  0  0  0  0  0  0  0
   -2.6240    8.9740   -7.1850 C   0  0  0  0  0  0  0  0  0  0  0  0
  2  1  1  6
  2  3  1  0
  2  4  1  0
  3  5  1  1
  4  6  1  0
  3  7  1  0
  4  8  1  6
  6  9  1  0
  7  9  1  0
  8 10  1  0
  8 11  1  0
 12 10  1  1
 11 13  1  0
 12 14  1  0
 12 15  1  0
 12 16  1  0
 13 16  1  0
 14 17  1  0
 14 18  1  1
 15 18  1  0
 17 19  1  1
 17 20  1  0
 17 21  1  0
 22 21  1  1
 22 23  1  0
 22 24  1  0
 23 25  1  0
 24 26  1  0
 25 26  1  0
 24 27  1  1
 26 28  1  6
 27 29  1  0
 28 30  1  0
 29 30  1  0
M  CHG  1  19  -1
M  END
