ucsf516-ucsf380
     RDKit          3D

 28 32  0  0  0  0  0  0  0  0999 V2000
    0.5160   13.3180   -2.1190 O   0  0  0  0  0  0  0  0  0  0  0  0
   -0.3260   12.5040   -1.5760 C   0  0  1  0  0  0  0  0  0  0  0  0
   -0.0540   12.7430   -0.2420 O   0  0  0  0  0  0  0  0  0  0  0  0
   -1.8240   12.8090   -1.9230 C   0  0  2  0  0  0  0  0  0  0  0  0
   -2.5350   13.5410   -0.7150 C   0  0  1  0  0  0  0  0  0  0  0  0
   -2.3620   11.7920   -2.9750 C   0  0  0  0  0  0  0  0  0  0  0  0
   -2.3420   14.9890   -0.9140 C   0  0  1  0  0  0  0  0  0  0  0  0
   -3.9970   13.6010   -0.2610 C   0  0  0  0  0  0  0  0  0  0  0  0
   -3.7600   11.9950   -3.5630 C   0  0  0  0  0  0  0  0  0  0  0  0
   -1.2610   11.6710   -4.0620 C   0  0  0  0  0  0  0  0  0  0  0  0
   -2.6510   15.4050    0.5270 C   0  0  1  0  0  0  0  0  0  0  0  0
   -0.9190   15.2890   -1.3670 C   0  0  1  0  0  0  0  0  0  0  0  0
   -3.9340   14.7130    0.7660 N   0  0  0  0  0  0  0  0  0  0  0  0
   -4.0140   11.0460   -4.7320 C   0  0  0  0  0  0  0  0  0  0  0  0
   -1.6050   10.8390   -5.2750 C   0  0  0  0  0  0  0  0  0  0  0  0
   -0.7180   15.7140   -2.7820 N   0  0  0  0  0  0  0  0  0  0  0  0
   -0.3690   16.0410   -0.2840 N   0  0  0  0  0  0  0  0  0  0  0  0
   -1.6130   14.9800    1.4470 N   0  0  0  0  0  0  0  0  0  0  0  0
   -2.9710   11.2090   -5.8190 C   0  0  0  0  0  0  0  0  0  0  0  0
   -0.2300   14.6380   -3.7040 C   0  0  2  0  0  0  0  0  0  0  0  0
   -2.0400   16.0970   -3.3860 C   0  0  0  0  0  0  0  0  0  0  0  0
   -0.3080   15.0850    0.7920 C   0  0  0  0  0  0  0  0  0  0  0  0
    1.2890   14.3460   -3.8440 C   0  0  0  0  0  0  0  0  0  0  0  0
   -0.7920   14.9730   -5.0620 C   0  0  0  0  0  0  0  0  0  0  0  0
   -2.2120   15.3190   -4.6910 C   0  0  0  0  0  0  0  0  0  0  0  0
    2.2630   13.9070   -2.7100 C   0  0  0  0  0  0  0  0  0  0  0  0
    1.6340   13.0020   -4.5500 C   0  0  0  0  0  0  0  0  0  0  0  0
    2.2130   12.4740   -3.2370 C   0  0  0  0  0  0  0  0  0  0  0  0
  2  1  1  6
  2  3  1  0
  2  4  1  0
  4  5  1  0
  4  6  1  1
  5  7  1  0
  5  8  1  6
  6  9  1  0
  6 10  1  0
  7 11  1  0
  7 12  1  1
  8 13  1  0
 11 13  1  1
  9 14  1  0
 10 15  1  0
 12 16  1  6
 12 17  1  0
 11 18  1  0
 14 19  1  0
 15 19  1  0
 16 20  1  0
 16 21  1  0
 17 22  1  0
 18 22  1  0
 20 23  1  6
 20 24  1  0
 21 25  1  0
 24 25  1  0
 23 26  1  0
 23 27  1  0
 26 28  1  0
 27 28  1  0
M  CHG  1   1  -1
M  END
