ucsf013-ucsf012
     RDKit          3D

 28 32  0  0  0  0  0  0  0  0999 V2000
   -3.9130   14.1000    1.5420 N   0  0  0  0  0  0  0  0  0  0  0  0
   -5.2140   14.6070    1.1350 C   0  0  2  0  0  0  0  0  0  0  0  0
   -6.1820   13.6870    1.7150 N   0  0  0  0  0  0  0  0  0  0  0  0
   -2.7370   14.4440    0.7430 C   0  0  2  0  0  0  0  0  0  0  0  0
   -5.4330   14.5900   -0.3800 C   0  0  1  0  0  0  0  0  0  0  0  0
   -2.4140   13.9440   -0.6670 C   0  0  1  0  0  0  0  0  0  0  0  0
   -1.6170   14.2820    1.6470 N   0  0  0  0  0  0  0  0  0  0  0  0
   -6.8970   14.7950   -0.7170 C   0  0  2  0  0  0  0  0  0  0  0  0
   -7.5660   14.0090    1.4560 C   0  0  0  0  0  0  0  0  0  0  0  0
   -4.7030   15.6300   -1.1850 C   0  0  0  0  0  0  0  0  0  0  0  0
   -3.2620   14.3310   -1.8600 C   0  0  1  0  0  0  0  0  0  0  0  0
   -1.0270   14.3060   -1.0950 C   0  0  2  0  0  0  0  0  0  0  0  0
   -0.2550   14.3060    1.1250 C   0  0  0  0  0  0  0  0  0  0  0  0
   -3.9480   15.6660   -1.6710 C   0  0  0  0  0  0  0  0  0  0  0  0
   -7.7940   13.8980    0.0210 N   0  0  0  0  0  0  0  0  0  0  0  0
   -7.1210   14.7300   -2.2430 C   0  0  0  0  0  0  0  0  0  0  0  0
   -4.5830   15.1170   -2.6260 C   0  0  0  0  0  0  0  0  0  0  0  0
   -2.2630   14.4210   -3.0300 C   0  0  1  0  0  0  0  0  0  0  0  0
   -1.0020   13.8740   -2.4870 N   0  0  0  0  0  0  0  0  0  0  0  0
   -0.1100   13.6940   -0.1900 N   0  0  0  0  0  0  0  0  0  0  0  0
   -2.7680   13.6800   -4.2670 C   0  0  0  0  0  0  0  0  0  0  0  0
    0.1250   14.3410   -3.3020 C   0  0  0  0  0  0  0  0  0  0  0  0
   -5.8740   14.4730   -3.1220 C   0  0  0  0  0  0  0  0  0  0  0  0
    0.8920   13.1840   -3.9360 C   0  0  1  0  0  0  0  0  0  0  0  0
    1.4970   12.3250   -2.8490 C   0  0  0  0  0  0  0  0  0  0  0  0
    0.0120   12.3030   -4.6780 O   0  0  0  0  0  0  0  0  0  0  0  0
   -0.3050   11.1570   -3.8690 C   0  0  0  0  0  0  0  0  0  0  0  0
    0.3830   11.3390   -2.5400 C   0  0  0  0  0  0  0  0  0  0  0  0
  2  1  1  6
  2  3  1  0
  4  1  1  1
  2  5  1  0
  6  4  1  1
  4  7  1  0
  5  8  1  0
  3  9  1  0
  5 10  1  6
  6 11  1  0
  6 12  1  0
  7 13  1  0
 11 14  1  1
  8 15  1  0
  9 15  1  0
  8 16  1  6
 10 17  1  0
 11 18  1  0
 12 19  1  0
 18 19  1  0
 12 20  1  1
 13 20  1  0
 18 21  1  6
 19 22  1  0
 16 23  1  0
 17 23  1  0
 24 22  1  1
 24 25  1  0
 24 26  1  0
 26 27  1  0
 25 28  1  0
 27 28  1  0
M  END
