ucsf258-ucsf345
     RDKit          3D

 13 13  0  0  0  0  0  0  0  0999 V2000
    0.3600   13.0850   -1.1610 O   0  0  0  0  0  0  0  0  0  0  0  0
   -0.5270   13.3840   -2.1020 C   0  0  2  0  0  0  0  0  0  0  0  0
    0.2670   13.9820   -3.1210 O   0  0  0  0  0  0  0  0  0  0  0  0
   -1.5920   14.4320   -1.5900 C   0  0  1  0  0  0  0  0  0  0  0  0
   -2.6820   14.7760   -2.6710 C   0  0  1  0  0  0  0  0  0  0  0  0
   -2.1670   13.9840   -0.2850 N   0  0  0  0  0  0  0  0  0  0  0  0
   -2.5080   14.0930   -3.9210 O   0  0  0  0  0  0  0  0  0  0  0  0
   -4.0880   14.5050   -2.1340 C   0  0  0  0  0  0  0  0  0  0  0  0
   -3.2310   14.8400    0.2690 C   0  0  0  0  0  0  0  0  0  0  0  0
   -4.3340   15.1940   -0.7640 C   0  0  2  0  0  0  0  0  0  0  0  0
   -5.8110   15.0340   -0.2220 C   0  0  2  0  0  0  0  0  0  0  0  0
   -5.9070   14.8830    1.2270 N   0  0  0  0  0  0  0  0  0  0  0  0
   -6.5820   13.9700   -0.7290 O   0  0  0  0  0  0  0  0  0  0  0  0
  2  1  1  1
  2  3  1  0
  2  4  1  0
  4  5  1  0
  4  6  1  1
  5  7  1  6
  5  8  1  0
  6  9  1  0
 10  8  1  6
  9 10  1  0
 10 11  1  0
 11 12  1  1
 11 13  1  0
M  CHG  1   1  -1
M  END
