ucsf511-ucsf274
     RDKit          3D

 29 33  0  0  0  0  0  0  0  0999 V2000
    0.1190   12.6750   -1.4870 O   0  0  0  0  0  0  0  0  0  0  0  0
    0.2620   11.6860   -2.5040 C   0  0  2  0  0  0  0  0  0  0  0  0
    0.7570   10.5540   -2.0380 O   0  0  0  0  0  0  0  0  0  0  0  0
   -0.5140   13.6440   -2.2940 C   0  0  1  0  0  0  0  0  0  0  0  0
    1.2390   12.4030   -3.4950 C   0  0  0  0  0  0  0  0  0  0  0  0
   -1.9340   13.9320   -1.8670 C   0  0  2  0  0  0  0  0  0  0  0  0
    0.2290   14.8490   -2.5970 N   0  0  0  0  0  0  0  0  0  0  0  0
    0.7620   12.7520   -4.9480 C   0  0  0  0  0  0  0  0  0  0  0  0
   -2.5690   14.6180   -3.0770 C   0  0  2  0  0  0  0  0  0  0  0  0
   -0.2790   15.2480   -3.8910 C   0  0  0  0  0  0  0  0  0  0  0  0
   -2.1350   14.7830   -0.7130 O   0  0  0  0  0  0  0  0  0  0  0  0
   -1.6900   15.5970   -3.7940 N   0  0  0  0  0  0  0  0  0  0  0  0
   -3.2900   15.5790   -0.9700 C   0  0  1  0  0  0  0  0  0  0  0  0
   -3.7010   15.4030   -2.4460 C   0  0  2  0  0  0  0  0  0  0  0  0
   -0.3970   11.9820   -5.6430 C   0  0  2  0  0  0  0  0  0  0  0  0
   -5.0640   14.7620   -2.6930 C   0  0  0  0  0  0  0  0  0  0  0  0
   -4.3620   15.4420    0.1170 C   0  0  0  0  0  0  0  0  0  0  0  0
   -1.3970   11.2670   -4.6560 C   0  0  1  0  0  0  0  0  0  0  0  0
    0.2060   11.0490   -6.6230 N   0  0  0  0  0  0  0  0  0  0  0  0
   -2.1830   12.1900   -3.9310 O   0  0  0  0  0  0  0  0  0  0  0  0
   -6.1010   15.2700   -1.7190 C   0  0  0  0  0  0  0  0  0  0  0  0
   -5.6980   14.8450   -0.3180 C   0  0  0  0  0  0  0  0  0  0  0  0
   -2.3680   10.4010   -5.3170 N   0  0  0  0  0  0  0  0  0  0  0  0
   -0.7780   10.1320   -7.2090 C   0  0  2  0  0  0  0  0  0  0  0  0
   -1.6180    9.4250   -6.1070 C   0  0  2  0  0  0  0  0  0  0  0  0
   -0.0090    9.1450   -8.0900 C   0  0  0  0  0  0  0  0  0  0  0  0
   -0.6260    7.7550   -8.0600 C   0  0  0  0  0  0  0  0  0  0  0  0
   -2.6180    8.4080   -6.6710 C   0  0  0  0  0  0  0  0  0  0  0  0
   -2.1440    7.8060   -7.9860 C   0  0  0  0  0  0  0  0  0  0  0  0
  1  2  1  0
  2  3  1  1
  4  1  1  1
  2  5  1  0
  4  6  1  0
  4  7  1  0
  5  8  1  0
  6  9  1  0
  7 10  1  0
  6 11  1  1
  9 12  1  1
 10 12  1  0
 11 13  1  0
  9 14  1  0
 13 14  1  0
 15  8  1  1
 14 16  1  1
 13 17  1  1
 15 18  1  0
 15 19  1  0
 18 20  1  6
 16 21  1  0
 17 22  1  0
 21 22  1  0
 18 23  1  0
 19 24  1  0
 23 25  1  0
 24 25  1  0
 24 26  1  1
 26 27  1  0
 25 28  1  6
 27 29  1  0
 28 29  1  0
M  CHG  1   3  -1
M  END
