ucsf424-ucsf013
     RDKit          3D

 27 30  0  0  0  0  0  0  0  0999 V2000
    1.4830   12.7950   -2.5780 O   0  0  0  0  0  0  0  0  0  0  0  0
    0.5490   12.1140   -3.2040 C   0  0  1  0  0  0  0  0  0  0  0  0
   -0.6920   12.2730   -2.4990 O   0  0  0  0  0  0  0  0  0  0  0  0
    0.2980   12.6860   -4.6410 C   0  0  0  0  0  0  0  0  0  0  0  0
   -0.6360   13.2450   -1.4490 C   0  0  0  0  0  0  0  0  0  0  0  0
    0.2700   11.5280   -5.6430 C   0  0  2  0  0  0  0  0  0  0  0  0
   -0.4400   14.6600   -2.0150 C   0  0  0  0  0  0  0  0  0  0  0  0
    1.2230   11.6150   -6.7910 N   0  0  0  0  0  0  0  0  0  0  0  0
   -1.0150   11.1120   -6.3020 C   0  0  1  0  0  0  0  0  0  0  0  0
   -1.7010   15.2340   -2.6850 C   0  0  0  0  0  0  0  0  0  0  0  0
    0.7300   10.6060   -7.7450 O   0  0  0  0  0  0  0  0  0  0  0  0
   -0.4060   10.0050   -7.1220 C   0  0  2  0  0  0  0  0  0  0  0  0
   -2.0900   10.5530   -5.3760 C   0  0  0  0  0  0  0  0  0  0  0  0
   -1.3630    9.3370   -8.0780 C   0  0  0  0  0  0  0  0  0  0  0  0
   -2.4850    9.1300   -5.7850 C   0  0  0  0  0  0  0  0  0  0  0  0
   -3.0200   14.6460   -2.1450 C   0  0  2  0  0  0  0  0  0  0  0  0
   -2.5980    8.8890   -7.3040 C   0  0  0  0  0  0  0  0  0  0  0  0
   -4.1960   15.0010   -3.0730 C   0  0  0  0  0  0  0  0  0  0  0  0
   -3.2680   15.0770   -0.6940 C   0  0  0  0  0  0  0  0  0  0  0  0
   -4.5230   14.4250   -0.0960 C   0  0  1  0  0  0  0  0  0  0  0  0
   -5.4870   15.2560   -2.2980 C   0  0  0  0  0  0  0  0  0  0  0  0
   -4.9320   15.2500    1.0900 C   0  0  2  0  0  0  0  0  0  0  0  0
   -5.6740   14.3110   -1.1160 C   0  0  2  0  0  0  0  0  0  0  0  0
   -3.9500   15.2520    2.1390 N   0  0  0  0  0  0  0  0  0  0  0  0
   -6.9810   14.6260   -0.5150 N   0  0  0  0  0  0  0  0  0  0  0  0
   -6.1840   14.8700    1.6950 N   0  0  0  0  0  0  0  0  0  0  0  0
   -7.0850   14.1350    0.8390 C   0  0  0  0  0  0  0  0  0  0  0  0
  2  1  1  1
  2  3  1  0
  2  4  1  0
  3  5  1  0
  6  4  1  6
  5  7  1  0
  6  8  1  0
  6  9  1  0
  7 10  1  0
  8 11  1  0
  9 12  1  0
 11 12  1  0
  9 13  1  1
 12 14  1  6
 13 15  1  0
 16 10  1  6
 14 17  1  0
 15 17  1  0
 16 18  1  0
 16 19  1  0
 20 19  1  6
 18 21  1  0
 20 22  1  0
 20 23  1  0
 23 21  1  6
 22 24  1  1
 23 25  1  0
 22 26  1  0
 25 27  1  0
 26 27  1  0
M  CHG  1   1  -1
M  END
