ucsf357-ucsf135
     RDKit          3D

 24 26  0  0  0  0  0  0  0  0999 V2000
   -6.0030   15.3320   -2.0270 O   0  0  0  0  0  0  0  0  0  0  0  0
   -5.5530   14.5760   -1.0610 C   0  0  2  0  0  0  0  0  0  0  0  0
   -6.0100   15.2490    0.0840 O   0  0  0  0  0  0  0  0  0  0  0  0
   -4.0020   14.5590   -1.0900 C   0  0  1  0  0  0  0  0  0  0  0  0
   -3.4900   14.9330   -2.4950 C   0  0  0  0  0  0  0  0  0  0  0  0
   -3.3550   15.3790    0.0370 C   0  0  0  0  0  0  0  0  0  0  0  0
   -2.0850   15.5480   -2.5620 C   0  0  2  0  0  0  0  0  0  0  0  0
   -1.8610   15.1510    0.0620 C   0  0  0  0  0  0  0  0  0  0  0  0
   -1.4180   15.0400   -3.7230 O   0  0  0  0  0  0  0  0  0  0  0  0
   -1.1790   15.4520   -1.2800 C   0  0  1  0  0  0  0  0  0  0  0  0
   -0.0770   14.5500   -1.4340 O   0  0  0  0  0  0  0  0  0  0  0  0
   -0.7710   13.7960   -3.5190 C   0  0  0  0  0  0  0  0  0  0  0  0
   -1.3330   12.7660   -4.3120 O   0  0  0  0  0  0  0  0  0  0  0  0
   -0.4480   11.4700   -4.5600 S   0  0  2  0  0  0  0  0  0  0  0  0
   -0.3310   10.4720   -3.3170 O   0  0  0  0  0  0  0  0  0  0  0  0
    0.9970   11.8330   -5.2440 N   0  0  0  0  0  0  0  0  0  0  0  0
   -1.2700   10.6090   -5.8730 C   0  0  1  0  0  0  0  0  0  0  0  0
    0.9570   11.3750   -6.6090 C   0  0  2  0  0  0  0  0  0  0  0  0
   -0.0470   10.2010   -6.6850 C   0  0  2  0  0  0  0  0  0  0  0  0
   -2.1590    9.4150   -5.5740 C   0  0  0  0  0  0  0  0  0  0  0  0
    2.2160   10.9080   -6.8420 O   0  0  0  0  0  0  0  0  0  0  0  0
   -2.1110    8.3620   -6.6960 C   0  0  0  0  0  0  0  0  0  0  0  0
   -0.4360    9.7440   -8.0830 C   0  0  0  0  0  0  0  0  0  0  0  0
   -1.7400    8.9230   -8.0740 C   0  0  0  0  0  0  0  0  0  0  0  0
  2  1  1  6
  2  3  1  0
  2  4  1  0
  4  5  1  6
  4  6  1  0
  5  7  1  0
  6  8  1  0
  7  9  1  6
  7 10  1  0
  8 10  1  0
 10 11  1  6
  9 12  1  0
 12 13  1  0
 14 13  1  0
 14 15  1  1
 14 16  1  0
 14 17  1  0
 16 18  1  0
 17 19  1  0
 18 19  1  0
 17 20  1  1
 18 21  1  1
 20 22  1  0
 19 23  1  6
 22 24  1  0
 23 24  1  0
M  CHG  1   1  -1
M  END
