ucsf248-ucsf584
     RDKit          3D

 13 14  0  0  0  0  0  0  0  0999 V2000
   -8.2660   12.4610    2.6670 N   0  0  0  0  0  0  0  0  0  0  0  0
   -8.4520   14.0100    2.1440 S   0  0  0  0  0  0  0  0  0  0  0  0
   -8.2840   15.0260    3.3740 O   0  0  0  0  0  0  0  0  0  0  0  0
   -9.9060   14.2900    1.5450 O   0  0  0  0  0  0  0  0  0  0  0  0
   -7.3030   14.6910    0.9330 C   0  0  0  0  0  0  0  0  0  0  0  0
   -5.9490   14.9910    1.4910 N   0  0  0  0  0  0  0  0  0  0  0  0
   -7.0980   14.0420   -0.3540 N   0  0  0  0  0  0  0  0  0  0  0  0
   -5.0620   14.5560    0.4080 C   0  0  1  0  0  0  0  0  0  0  0  0
   -5.9570   14.8690   -0.7610 C   0  0  1  0  0  0  0  0  0  0  0  0
   -3.7070   15.2490    0.3350 C   0  0  0  0  0  0  0  0  0  0  0  0
   -5.3110   14.6270   -2.1140 C   0  0  0  0  0  0  0  0  0  0  0  0
   -3.0400   14.7920   -0.9570 C   0  0  0  0  0  0  0  0  0  0  0  0
   -3.8800   15.1670   -2.1850 C   0  0  0  0  0  0  0  0  0  0  0  0
  1  2  1  0
  2  3  1  0
  2  4  1  0
  2  5  1  0
  5  6  1  0
  5  7  1  0
  6  8  1  0
  7  9  1  0
  8  9  1  0
  8 10  1  6
  9 11  1  6
 10 12  1  0
 11 13  1  0
 12 13  1  0
M  END
