ucsf243-ucsf336
     RDKit          3D

 22 23  0  0  0  0  0  0  0  0999 V2000
   -3.9410   15.7210    0.7030 C   0  0  0  0  0  0  0  0  0  0  0  0
   -3.6910   14.7660   -0.4680 C   0  0  1  0  0  0  0  0  0  0  0  0
   -4.2120   15.3760   -1.7560 C   0  0  0  0  0  0  0  0  0  0  0  0
   -2.2150   14.3440   -0.5490 C   0  0  0  0  0  0  0  0  0  0  0  0
   -1.4020   14.5830   -1.8600 C   0  0  1  0  0  0  0  0  0  0  0  0
   -3.7280   14.6700   -3.0050 C   0  0  0  0  0  0  0  0  0  0  0  0
   -0.0370   13.7970   -1.9610 C   0  0  1  0  0  0  0  0  0  0  0  0
   -2.2210   14.7890   -3.1950 C   0  0  2  0  0  0  0  0  0  0  0  0
   -1.8570   13.9280   -4.2740 O   0  0  0  0  0  0  0  0  0  0  0  0
    0.6270   13.2250   -3.3260 C   0  0  1  0  0  0  0  0  0  0  0  0
    0.8940   14.5230   -1.3310 O   0  0  0  0  0  0  0  0  0  0  0  0
    1.0700   14.1660   -4.1430 O   0  0  0  0  0  0  0  0  0  0  0  0
    1.8580   12.6940   -2.7480 O   0  0  0  0  0  0  0  0  0  0  0  0
   -0.0000   11.9150   -4.0510 C   0  0  2  0  0  0  0  0  0  0  0  0
    0.0920   10.7300   -3.2620 O   0  0  0  0  0  0  0  0  0  0  0  0
    0.1800   11.5080   -5.4540 N   0  0  0  0  0  0  0  0  0  0  0  0
   -0.4950   10.2640   -5.7940 C   0  0  0  0  0  0  0  0  0  0  0  0
   -0.4100   10.0960   -7.3210 C   0  0  0  0  0  0  0  0  0  0  0  0
   -1.9680   10.2900   -5.3700 C   0  0  0  0  0  0  0  0  0  0  0  0
   -1.1730    8.8760   -7.8410 C   0  0  0  0  0  0  0  0  0  0  0  0
   -2.7340    9.0570   -5.8660 C   0  0  0  0  0  0  0  0  0  0  0  0
   -2.6220    8.8220   -7.3680 C   0  0  0  0  0  0  0  0  0  0  0  0
  2  1  1  1
  2  3  1  0
  2  4  1  0
  5  4  1  1
  3  6  1  0
  5  7  1  0
  5  8  1  0
  6  8  1  0
  8  9  1  6
  7 10  1  0
  7 11  1  6
 10 12  1  6
 10 13  1  0
 10 14  1  0
 14 15  1  1
 14 16  1  0
 16 17  1  0
 17 18  1  0
 17 19  1  0
 18 20  1  0
 19 21  1  0
 20 22  1  0
 21 22  1  0
M  CHG  2  11  -1  12  -1
M  END
