ucsf404-ucsf367
     RDKit          3D

 25 27  0  0  0  0  0  0  0  0999 V2000
   -6.5220   15.4150   -2.2050 Cl  0  0  0  0  0  0  0  0  0  0  0  0
   -5.0160   14.6760   -1.5790 C   0  0  2  0  0  0  0  0  0  0  0  0
   -4.8660   15.0080   -0.1060 C   0  0  1  0  0  0  0  0  0  0  0  0
   -3.7390   15.0820   -2.3430 C   0  0  0  0  0  0  0  0  0  0  0  0
   -6.0410   14.7750    0.7310 N   0  0  0  0  0  0  0  0  0  0  0  0
   -3.7920   14.0570    0.3710 C   0  0  2  0  0  0  0  0  0  0  0  0
   -2.4140   14.6190   -1.6590 C   0  0  2  0  0  0  0  0  0  0  0  0
   -1.9430   13.2590   -2.1830 C   0  0  0  0  0  0  0  0  0  0  0  0
   -5.5460   14.8590    2.0760 C   0  0  2  0  0  0  0  0  0  0  0  0
   -4.0200   13.9260    2.1410 S   0  0  0  0  0  0  0  0  0  0  0  0
   -2.4610   14.5680   -0.1070 C   0  0  0  0  0  0  0  0  0  0  0  0
   -6.5940   14.2890    2.8500 N   0  0  0  0  0  0  0  0  0  0  0  0
   -0.7750   12.7280   -1.3470 C   0  0  0  0  0  0  0  0  0  0  0  0
    0.5050   13.5470   -1.5410 C   0  0  0  0  0  0  0  0  0  0  0  0
    1.3320   12.8780   -2.4780 O   0  0  0  0  0  0  0  0  0  0  0  0
    0.5520   12.1350   -3.4300 C   0  0  2  0  0  0  0  0  0  0  0  0
    0.6520   10.8590   -3.0960 O   0  0  0  0  0  0  0  0  0  0  0  0
    1.1810   12.4510   -4.8330 C   0  0  0  0  0  0  0  0  0  0  0  0
    0.6510   11.6810   -5.9470 O   0  0  0  0  0  0  0  0  0  0  0  0
   -0.3300   10.6810   -5.6500 C   0  0  0  0  0  0  0  0  0  0  0  0
   -0.4600    9.7310   -6.8500 C   0  0  0  0  0  0  0  0  0  0  0  0
   -1.6690   11.3560   -5.3930 C   0  0  0  0  0  0  0  0  0  0  0  0
   -1.5350    8.6660   -6.6460 C   0  0  0  0  0  0  0  0  0  0  0  0
   -2.7940   10.3330   -5.2010 C   0  0  0  0  0  0  0  0  0  0  0  0
   -2.8870    9.2880   -6.3130 C   0  0  0  0  0  0  0  0  0  0  0  0
  2  1  1  6
  2  3  1  0
  2  4  1  0
  3  5  1  1
  3  6  1  0
  4  7  1  0
  7  8  1  6
  5  9  1  0
  6 10  1  0
  9 10  1  0
  6 11  1  1
  7 11  1  0
  9 12  1  1
  8 13  1  0
 13 14  1  0
 14 15  1  0
 15 16  1  0
 16 17  1  1
 16 18  1  0
 18 19  1  0
 19 20  1  0
 20 21  1  0
 20 22  1  0
 21 23  1  0
 22 24  1  0
 23 25  1  0
 24 25  1  0
M  CHG  1  17  -1
M  END
