ucsf392-ucsf006
     RDKit          3D

 20 21  0  0  0  0  0  0  0  0999 V2000
   -5.1290   15.4850   -0.8470 C   0  0  0  0  0  0  0  0  0  0  0  0
   -3.8480   14.8390   -0.2640 C   0  0  2  0  0  0  0  0  0  0  0  0
   -3.2850   13.7380   -1.1800 C   0  0  0  0  0  0  0  0  0  0  0  0
   -4.0770   14.3890    1.2060 C   0  0  0  0  0  0  0  0  0  0  0  0
   -2.7060   15.8190   -0.2110 C   0  0  1  0  0  0  0  0  0  0  0  0
   -4.7930   15.3510    2.0320 N   0  0  0  0  0  0  0  0  0  0  0  0
   -1.6510   15.3730    0.6610 N   0  0  0  0  0  0  0  0  0  0  0  0
   -1.8090   13.7620   -1.2220 N   0  0  0  0  0  0  0  0  0  0  0  0
   -1.9450   15.9280   -1.5270 C   0  0  0  0  0  0  0  0  0  0  0  0
   -1.2490   14.5410   -2.3880 N   0  0  0  0  0  0  0  0  0  0  0  0
   -1.2610   14.0530    0.1410 C   0  0  1  0  0  0  0  0  0  0  0  0
   -0.5590   16.2650    0.3450 N   0  0  0  0  0  0  0  0  0  0  0  0
   -0.5080   16.1820   -1.1060 C   0  0  0  0  0  0  0  0  0  0  0  0
    0.2280   13.8820    0.3110 C   0  0  0  0  0  0  0  0  0  0  0  0
   -2.2250   14.6880   -3.4770 C   0  0  0  0  0  0  0  0  0  0  0  0
    0.1440   14.2790   -2.8430 C   0  0  0  0  0  0  0  0  0  0  0  0
    0.4100   14.3560   -4.3690 C   0  0  0  0  0  0  0  0  0  0  0  0
    1.0000   13.0710   -4.9670 C   0  0  2  0  0  0  0  0  0  0  0  0
   -0.0860   12.2320   -5.3310 O   0  0  0  0  0  0  0  0  0  0  0  0
    1.5780   12.3610   -4.0160 O   0  0  0  0  0  0  0  0  0  0  0  0
  2  1  1  6
  2  3  1  0
  2  4  1  0
  2  5  1  0
  4  6  1  0
  5  7  1  0
  3  8  1  0
  5  9  1  6
  8 10  1  0
  7 11  1  0
  8 11  1  0
  7 12  1  0
  9 13  1  0
 12 13  1  0
 11 14  1  6
 10 15  1  0
 10 16  1  0
 16 17  1  0
 17 18  1  0
 18 19  1  1
 18 20  1  0
M  CHG  1  20  -1
M  END
