ucsf172-ucsf385
     RDKit          3D

 22 23  0  0  0  0  0  0  0  0999 V2000
   -8.3040   14.9580    2.3490 C   0  0  0  0  0  0  0  0  0  0  0  0
   -7.0870   14.3650    1.2360 S   0  0  0  0  0  0  0  0  0  0  0  0
   -6.8630   12.8590    1.6930 O   0  0  0  0  0  0  0  0  0  0  0  0
   -7.7910   14.3580   -0.2040 O   0  0  0  0  0  0  0  0  0  0  0  0
   -5.6270   15.1030    1.2180 N   0  0  0  0  0  0  0  0  0  0  0  0
   -4.6690   14.9860    0.1070 C   0  0  1  0  0  0  0  0  0  0  0  0
   -4.1040   13.5790    0.0550 C   0  0  0  0  0  0  0  0  0  0  0  0
   -5.2520   15.3180   -1.2740 C   0  0  0  0  0  0  0  0  0  0  0  0
   -3.0670   13.3260   -1.0420 C   0  0  0  0  0  0  0  0  0  0  0  0
   -4.2770   15.1670   -2.4750 C   0  0  0  0  0  0  0  0  0  0  0  0
   -3.2800   13.9640   -2.4530 C   0  0  1  0  0  0  0  0  0  0  0  0
   -1.9470   14.2850   -3.2420 C   0  0  2  0  0  0  0  0  0  0  0  0
   -0.8030   14.6960   -2.3930 N   0  0  0  0  0  0  0  0  0  0  0  0
   -2.1560   15.1420   -4.2380 O   0  0  0  0  0  0  0  0  0  0  0  0
    0.3760   13.9420   -2.8330 O   0  0  0  0  0  0  0  0  0  0  0  0
   -0.9070   14.5510   -0.9320 C   0  0  2  0  0  0  0  0  0  0  0  0
   -1.8300   15.5890   -0.3090 C   0  0  1  0  0  0  0  0  0  0  0  0
    0.2790   14.3270   -0.0310 C   0  0  0  0  0  0  0  0  0  0  0  0
   -2.8900   15.9550   -1.2480 N   0  0  0  0  0  0  0  0  0  0  0  0
   -0.1190   14.1100    1.4380 C   0  0  0  0  0  0  0  0  0  0  0  0
   -2.4070   15.0290    0.9940 C   0  0  0  0  0  0  0  0  0  0  0  0
   -1.5260   14.2120    1.8060 N   0  0  0  0  0  0  0  0  0  0  0  0
  1  2  1  0
  2  3  1  0
  2  4  1  0
  2  5  1  0
  6  5  1  1
  6  7  1  0
  6  8  1  0
  7  9  1  0
  8 10  1  0
 11  9  1  1
 10 11  1  0
 11 12  1  0
 12 13  1  0
 12 14  1  6
 13 15  1  0
 16 13  1  6
 16 17  1  0
 16 18  1  0
 17 19  1  6
 18 20  1  0
 17 21  1  0
 20 22  1  0
 21 22  1  0
M  CHG  1  14  -1
M  END
