ucsf339-ucsf278
     RDKit          3D

 27 30  0  0  0  0  0  0  0  0999 V2000
    1.0540   15.3830   -0.9080 O   0  0  0  0  0  0  0  0  0  0  0  0
    0.5150   14.5850   -1.7230 C   0  0  1  0  0  0  0  0  0  0  0  0
    0.9000   13.3100   -1.2580 O   0  0  0  0  0  0  0  0  0  0  0  0
   -1.0270   14.7880   -1.9170 C   0  0  1  0  0  0  0  0  0  0  0  0
    0.9440   14.9020   -3.1160 C   0  0  2  0  0  0  0  0  0  0  0  0
   -1.8190   15.3710   -0.7670 C   0  0  0  0  0  0  0  0  0  0  0  0
   -1.3390   15.6560   -3.1850 C   0  0  0  0  0  0  0  0  0  0  0  0
   -0.2840   14.2770   -3.7960 C   0  0  2  0  0  0  0  0  0  0  0  0
    2.3360   14.4740   -3.6130 C   0  0  0  0  0  0  0  0  0  0  0  0
   -1.5340   13.7280   -2.5960 Cl  0  0  0  0  0  0  0  0  0  0  0  0
   -3.3130   15.2870   -1.0920 C   0  0  1  0  0  0  0  0  0  0  0  0
   -2.7390   15.5550   -3.6510 N   0  0  0  0  0  0  0  0  0  0  0  0
   -0.0320   12.9840   -4.4710 C   0  0  1  0  0  0  0  0  0  0  0  0
    2.3680   13.2560   -4.5370 C   0  0  0  0  0  0  0  0  0  0  0  0
   -3.6590   15.0970   -2.6030 C   0  0  0  0  0  0  0  0  0  0  0  0
   -3.9490   14.1530   -0.2820 C   0  0  0  0  0  0  0  0  0  0  0  0
   -1.1820   12.6270   -5.3750 C   0  0  0  0  0  0  0  0  0  0  0  0
    1.1200   13.0930   -5.3800 C   0  0  1  0  0  0  0  0  0  0  0  0
   -3.7860   14.3660    1.2200 C   0  0  0  0  0  0  0  0  0  0  0  0
   -5.4410   14.0340   -0.6680 C   0  0  0  0  0  0  0  0  0  0  0  0
   -0.5070   11.7250   -6.3900 C   0  0  1  0  0  0  0  0  0  0  0  0
    0.9490   11.8880   -6.1830 N   0  0  0  0  0  0  0  0  0  0  0  0
   -0.9700   10.2780   -6.2270 C   0  0  0  0  0  0  0  0  0  0  0  0
   -4.9290   15.2200    1.7170 C   0  0  0  0  0  0  0  0  0  0  0  0
   -6.3480   13.5710    0.4610 C   0  0  0  0  0  0  0  0  0  0  0  0
   -2.2320   10.2440   -5.5600 O   0  0  0  0  0  0  0  0  0  0  0  0
   -6.2740   14.4920    1.6550 C   0  0  0  0  0  0  0  0  0  0  0  0
  2  1  1  1
  2  3  1  0
  2  4  1  0
  2  5  1  0
  4  6  1  1
  4  7  1  0
  5  8  1  0
  5  9  1  6
  8 10  1  1
  6 11  1  0
  7 12  1  0
  8 13  1  0
  9 14  1  0
 11 15  1  0
 12 15  1  0
 11 16  1  1
 13 17  1  6
 13 18  1  0
 18 14  1  1
 16 19  1  0
 16 20  1  0
 17 21  1  0
 18 22  1  0
 21 22  1  0
 21 23  1  1
 19 24  1  0
 20 25  1  0
 23 26  1  0
 24 27  1  0
 25 27  1  0
M  CHG  1   1  -1
M  END
