ucsf365-ucsf493
     RDKit          3D

 22 24  0  0  0  0  0  0  0  0999 V2000
    0.2960   10.7230   -2.3440 O   0  0  0  0  0  0  0  0  0  0  0  0
    0.7130   11.9840   -2.2400 C   0  0  1  0  0  0  0  0  0  0  0  0
    1.9360   11.9860   -2.9210 O   0  0  0  0  0  0  0  0  0  0  0  0
   -0.2140   13.0320   -2.9380 C   0  0  2  0  0  0  0  0  0  0  0  0
   -1.5400   12.5670   -3.6230 C   0  0  2  0  0  0  0  0  0  0  0  0
    0.6020   14.2100   -3.6020 C   0  0  2  0  0  0  0  0  0  0  0  0
   -1.4930   11.5020   -4.7590 C   0  0  2  0  0  0  0  0  0  0  0  0
   -2.3510   13.7670   -4.0930 C   0  0  0  0  0  0  0  0  0  0  0  0
   -0.0030   15.6170   -3.6340 C   0  0  2  0  0  0  0  0  0  0  0  0
    1.2630   14.0860   -4.9790 C   0  0  0  0  0  0  0  0  0  0  0  0
   -0.2570   11.5960   -5.4760 O   0  0  0  0  0  0  0  0  0  0  0  0
   -2.6460   11.6530   -5.7790 C   0  0  0  0  0  0  0  0  0  0  0  0
   -2.0610   14.0630   -5.5610 C   0  0  0  0  0  0  0  0  0  0  0  0
   -1.3470   15.8100   -4.3340 C   0  0  0  0  0  0  0  0  0  0  0  0
    1.0810   16.3430   -4.4000 C   0  0  1  0  0  0  0  0  0  0  0  0
    1.2210   15.4630   -5.5400 N   0  0  0  0  0  0  0  0  0  0  0  0
   -2.6700   13.0160   -6.4610 C   0  0  0  0  0  0  0  0  0  0  0  0
   -1.5020   16.9910   -5.2510 C   0  0  1  0  0  0  0  0  0  0  0  0
    0.8120   17.8140   -4.7300 C   0  0  0  0  0  0  0  0  0  0  0  0
   -2.8780   17.2420   -5.2540 O   0  0  0  0  0  0  0  0  0  0  0  0
   -0.6570   18.1930   -4.8920 C   0  0  0  0  0  0  0  0  0  0  0  0
   -3.5960   16.1150   -5.7910 C   0  0  0  0  0  0  0  0  0  0  0  0
  2  1  1  6
  2  3  1  0
  4  2  1  6
  4  5  1  0
  4  6  1  0
  5  7  1  0
  5  8  1  6
  6  9  1  0
  6 10  1  6
  7 11  1  6
  7 12  1  0
  8 13  1  0
  9 14  1  6
  9 15  1  0
 10 16  1  0
 15 16  1  0
 12 17  1  0
 13 17  1  0
 14 18  1  0
 15 19  1  6
 18 20  1  1
 18 21  1  0
 19 21  1  0
 20 22  1  0
M  CHG  1   1  -1
M  END
