ucsf380-ucsf190
     RDKit          3D

 30 33  0  0  0  0  0  0  0  0999 V2000
    0.1350   14.6830   -0.6570 O   0  0  0  0  0  0  0  0  0  0  0  0
   -0.0270   13.8170   -1.6490 C   0  0  1  0  0  0  0  0  0  0  0  0
    0.6900   12.5830   -1.4310 O   0  0  0  0  0  0  0  0  0  0  0  0
   -1.5530   13.3710   -1.7710 C   0  0  0  0  0  0  0  0  0  0  0  0
    0.4630   11.7300   -2.5810 C   0  0  2  0  0  0  0  0  0  0  0  0
   -2.5270   14.5110   -1.3340 C   0  0  0  0  0  0  0  0  0  0  0  0
   -2.0080   12.7250   -3.1370 C   0  0  0  0  0  0  0  0  0  0  0  0
    0.7820   10.4550   -2.3320 O   0  0  0  0  0  0  0  0  0  0  0  0
    1.2880   12.3320   -3.8030 C   0  0  0  0  0  0  0  0  0  0  0  0
   -2.6050   14.7210    0.1980 C   0  0  0  0  0  0  0  0  0  0  0  0
   -3.8950   14.3520   -1.9620 C   0  0  0  0  0  0  0  0  0  0  0  0
   -3.0130   11.5800   -2.8800 C   0  0  0  0  0  0  0  0  0  0  0  0
   -0.8780   12.1950   -4.0610 C   0  0  0  0  0  0  0  0  0  0  0  0
   -3.7190   15.6620    0.7030 C   0  0  0  0  0  0  0  0  0  0  0  0
   -4.6550   15.5980   -1.6920 C   0  0  0  0  0  0  0  0  0  0  0  0
   -3.5280   10.9570   -4.1610 C   0  0  0  0  0  0  0  0  0  0  0  0
   -1.3220   11.4590   -5.3230 C   0  0  0  0  0  0  0  0  0  0  0  0
    1.0340   13.8550   -4.0980 C   0  0  2  0  0  0  0  0  0  0  0  0
   -4.9210   15.8180   -0.2260 C   0  0  0  0  0  0  0  0  0  0  0  0
   -2.3840   10.4180   -5.0150 C   0  0  0  0  0  0  0  0  0  0  0  0
    0.0280   14.2350   -5.2280 C   0  0  2  0  0  0  0  0  0  0  0  0
    2.2430   14.6490   -4.1680 N   0  0  0  0  0  0  0  0  0  0  0  0
   -0.4420   15.6770   -4.9920 C   0  0  2  0  0  0  0  0  0  0  0  0
    1.9190   16.0760   -4.0840 N   0  0  0  0  0  0  0  0  0  0  0  0
   -1.0990   13.1940   -5.4270 C   0  0  0  0  0  0  0  0  0  0  0  0
    0.5050   16.4410   -4.0700 C   0  0  1  0  0  0  0  0  0  0  0  0
   -1.9010   15.7910   -4.5380 C   0  0  0  0  0  0  0  0  0  0  0  0
   -2.4640   13.6980   -5.9140 C   0  0  0  0  0  0  0  0  0  0  0  0
    0.3620   17.8370   -4.3230 O   0  0  0  0  0  0  0  0  0  0  0  0
   -2.9040   15.0750   -5.4220 C   0  0  0  0  0  0  0  0  0  0  0  0
  2  1  1  1
  2  3  1  0
  2  4  1  0
  3  5  1  0
  4  6  1  0
  4  7  1  0
  5  8  1  1
  5  9  1  0
  6 10  1  0
  6 11  1  0
  7 12  1  0
  7 13  1  0
 10 14  1  0
 11 15  1  0
 12 16  1  0
 13 17  1  0
 18  9  1  6
 14 19  1  0
 15 19  1  0
 16 20  1  0
 17 20  1  0
 18 21  1  0
 18 22  1  0
 21 23  1  0
 22 24  1  0
 21 25  1  1
 23 26  1  0
 24 26  1  0
 23 27  1  1
 25 28  1  0
 26 29  1  6
 27 30  1  0
 28 30  1  0
M  CHG  2   1  -1   8  -1
M  END
