ucsf380-ucsf170
     RDKit          3D

 19 20  0  0  0  0  0  0  0  0999 V2000
    0.7890   15.1850   -1.3010 O   0  0  0  0  0  0  0  0  0  0  0  0
    0.2640   14.0110   -1.8300 C   0  0  0  0  0  0  0  0  0  0  0  0
    0.5110   12.9630   -0.9190 O   0  0  0  0  0  0  0  0  0  0  0  0
   -1.2000   14.1150   -2.3020 C   0  0  2  0  0  0  0  0  0  0  0  0
    1.0660   13.6530   -2.9310 O   0  0  0  0  0  0  0  0  0  0  0  0
   -2.3960   14.2720   -1.3020 C   0  0  1  0  0  0  0  0  0  0  0  0
   -1.5240   13.0740   -3.4430 C   0  0  0  0  0  0  0  0  0  0  0  0
   -2.2990   15.3230   -0.1600 C   0  0  0  0  0  0  0  0  0  0  0  0
   -3.6220   14.4720   -2.2250 C   0  0  2  0  0  0  0  0  0  0  0  0
   -2.4270   11.9060   -2.9900 C   0  0  0  0  0  0  0  0  0  0  0  0
   -0.3900   12.5940   -4.3480 C   0  0  0  0  0  0  0  0  0  0  0  0
   -3.2550   14.6280   -3.6070 O   0  0  0  0  0  0  0  0  0  0  0  0
   -3.6390   15.7000    0.5420 C   0  0  1  0  0  0  0  0  0  0  0  0
   -4.3200   15.7390   -1.8700 C   0  0  0  0  0  0  0  0  0  0  0  0
   -2.7090   10.8620   -4.0620 C   0  0  0  0  0  0  0  0  0  0  0  0
   -0.8420   11.7550   -5.5360 C   0  0  0  0  0  0  0  0  0  0  0  0
   -4.7950   15.8010   -0.4420 C   0  0  0  0  0  0  0  0  0  0  0  0
   -2.3090   11.3480   -5.4490 C   0  0  0  0  0  0  0  0  0  0  0  0
   -4.0470   14.7710    1.6680 C   0  0  0  0  0  0  0  0  0  0  0  0
  2  1  1  0
  2  3  1  0
  4  2  1  1
  2  5  1  0
  4  6  1  0
  4  7  1  0
  6  8  1  1
  6  9  1  0
  7 10  1  0
  7 11  1  0
  9 12  1  6
  8 13  1  0
  9 14  1  0
 10 15  1  0
 11 16  1  0
 13 17  1  0
 14 17  1  0
 15 18  1  0
 16 18  1  0
 13 19  1  1
M  CHG  2   1  -1   5  -1
M  END
