ucsf412-ucsf258
     RDKit          3D

 15 16  0  0  0  0  0  0  0  0999 V2000
   -7.5570   15.5270   -0.8270 O   0  0  0  0  0  0  0  0  0  0  0  0
   -6.7650   14.5510   -0.2110 C   0  0  2  0  0  0  0  0  0  0  0  0
   -7.0290   14.7150    1.2330 N   0  0  0  0  0  0  0  0  0  0  0  0
   -5.2690   14.3930   -0.6800 C   0  0  2  0  0  0  0  0  0  0  0  0
   -4.1890   14.3000    0.4080 C   0  0  2  0  0  0  0  0  0  0  0  0
   -5.8690   14.6960    2.1250 C   0  0  0  0  0  0  0  0  0  0  0  0
   -4.8010   15.2920   -1.8420 C   0  0  0  0  0  0  0  0  0  0  0  0
   -4.5750   15.2160    1.5360 C   0  0  0  0  0  0  0  0  0  0  0  0
   -2.7600   14.5180   -0.1100 C   0  0  0  0  0  0  0  0  0  0  0  0
   -3.5950   14.6530   -2.5630 C   0  0  1  0  0  0  0  0  0  0  0  0
   -2.9770   15.4880   -3.5490 O   0  0  0  0  0  0  0  0  0  0  0  0
   -2.5540   14.0300   -1.5790 C   0  0  1  0  0  0  0  0  0  0  0  0
   -1.0360   13.7980   -2.0290 C   0  0  2  0  0  0  0  0  0  0  0  0
   -0.1360   14.0290   -1.0930 O   0  0  0  0  0  0  0  0  0  0  0  0
   -0.6000   14.6960   -3.0400 O   0  0  0  0  0  0  0  0  0  0  0  0
  2  1  1  6
  2  3  1  0
  2  4  1  0
  4  5  1  0
  3  6  1  0
  4  7  1  6
  5  8  1  1
  6  8  1  0
  5  9  1  0
  7 10  1  0
 10 11  1  1
 12  9  1  1
 10 12  1  0
 12 13  1  0
 13 14  1  1
 13 15  1  0
M  CHG  1  14  -1
M  END
