ucsf039-ucsf110
     RDKit          3D

 17 19  0  0  0  0  0  0  0  0999 V2000
   -4.3950   15.4100    1.0810 N   0  0  0  0  0  0  0  0  0  0  0  0
   -3.5440   14.8530    0.0420 C   0  0  2  0  0  0  0  0  0  0  0  0
   -2.0780   15.2540    0.2290 C   0  0  2  0  0  0  0  0  0  0  0  0
   -4.0150   15.4000   -1.2230 N   0  0  0  0  0  0  0  0  0  0  0  0
   -3.1560   15.0460   -2.3870 C   0  0  0  0  0  0  0  0  0  0  0  0
   -1.3220   14.6700   -0.9240 C   0  0  1  0  0  0  0  0  0  0  0  0
   -1.3690   14.6790    1.3630 N   0  0  0  0  0  0  0  0  0  0  0  0
   -1.7130   15.2490   -2.1900 N   0  0  0  0  0  0  0  0  0  0  0  0
    0.0540   14.8590   -0.5390 N   0  0  0  0  0  0  0  0  0  0  0  0
    0.0040   14.5680    0.8920 C   0  0  0  0  0  0  0  0  0  0  0  0
   -0.8640   14.7430   -3.3020 C   0  0  0  0  0  0  0  0  0  0  0  0
   -0.3980   15.7360   -4.4150 C   0  0  2  0  0  0  0  0  0  0  0  0
    0.8060   16.5850   -4.0130 C   0  0  0  0  0  0  0  0  0  0  0  0
   -1.4550   16.6560   -4.9180 N   0  0  0  0  0  0  0  0  0  0  0  0
   -0.8860   17.9760   -5.2240 C   0  0  1  0  0  0  0  0  0  0  0  0
    0.8980   17.7900   -5.3480 S   0  0  0  0  0  0  0  0  0  0  0  0
   -1.4550   18.5420   -6.5120 C   0  0  0  0  0  0  0  0  0  0  0  0
  2  1  1  1
  2  3  1  0
  2  4  1  0
  4  5  1  0
  3  6  1  0
  3  7  1  1
  5  8  1  0
  6  8  1  0
  6  9  1  1
  7 10  1  0
  9 10  1  0
  8 11  1  0
 12 11  1  1
 12 13  1  0
 12 14  1  0
 14 15  1  0
 13 16  1  0
 15 16  1  0
 15 17  1  6
M  END
