ucsf584-ucsf260
     RDKit          3D

 28 31  0  0  0  0  0  0  0  0999 V2000
    0.8670   11.0190   -2.7280 O   0  0  0  0  0  0  0  0  0  0  0  0
    0.5660   12.2750   -3.0020 C   0  0  1  0  0  0  0  0  0  0  0  0
    1.1160   13.1270   -1.9830 O   0  0  0  0  0  0  0  0  0  0  0  0
    1.2360   12.7210   -4.3400 C   0  0  0  0  0  0  0  0  0  0  0  0
    0.2440   13.3000   -5.3710 C   0  0  0  0  0  0  0  0  0  0  0  0
    0.1410   13.6900   -1.0900 C   0  0  0  0  0  0  0  0  0  0  0  0
   -0.2710   15.1190   -1.4960 C   0  0  0  0  0  0  0  0  0  0  0  0
   -0.7420   12.3130   -5.8730 N   0  0  0  0  0  0  0  0  0  0  0  0
   -1.5240   15.1620   -2.3970 C   0  0  0  0  0  0  0  0  0  0  0  0
   -1.7530   11.9070   -4.8970 C   0  0  0  0  0  0  0  0  0  0  0  0
   -0.2250   11.0520   -6.3740 C   0  0  1  0  0  0  0  0  0  0  0  0
   -2.7980   14.7780   -1.7350 N   0  0  0  0  0  0  0  0  0  0  0  0
   -2.2240   10.5690   -5.3150 N   0  0  0  0  0  0  0  0  0  0  0  0
   -1.5410   10.3510   -6.5890 C   0  0  2  0  0  0  0  0  0  0  0  0
    0.6300   11.0450   -7.6440 C   0  0  0  0  0  0  0  0  0  0  0  0
   -2.9110   15.3120   -0.3780 C   0  0  0  0  0  0  0  0  0  0  0  0
   -3.9420   15.0880   -2.6020 C   0  0  0  0  0  0  0  0  0  0  0  0
   -1.3230    8.9050   -6.9930 C   0  0  0  0  0  0  0  0  0  0  0  0
    0.7830    9.6470   -8.2670 C   0  0  0  0  0  0  0  0  0  0  0  0
   -4.1180   14.8050    0.4080 C   0  0  0  0  0  0  0  0  0  0  0  0
   -5.2240   15.2980   -1.7920 C   0  0  0  0  0  0  0  0  0  0  0  0
   -0.5050    8.8050   -8.2820 C   0  0  0  0  0  0  0  0  0  0  0  0
   -5.3130   14.4680   -0.5040 C   0  0  0  0  0  0  0  0  0  0  0  0
   -6.6690   14.7450    0.1900 C   0  0  0  0  0  0  0  0  0  0  0  0
   -6.5940   14.7080    1.6510 N   0  0  0  0  0  0  0  0  0  0  0  0
   -7.7390   13.8080   -0.0880 N   0  0  0  0  0  0  0  0  0  0  0  0
   -8.7600   14.1650    0.9050 C   0  0  0  0  0  0  0  0  0  0  0  0
   -7.9770   14.6160    2.1260 C   0  0  0  0  0  0  0  0  0  0  0  0
  2  1  1  1
  2  3  1  0
  2  4  1  0
  4  5  1  0
  3  6  1  0
  6  7  1  0
  5  8  1  0
  7  9  1  0
  8 10  1  0
  8 11  1  0
  9 12  1  0
 10 13  1  0
 11 14  1  0
 13 14  1  0
 11 15  1  6
 12 16  1  0
 12 17  1  0
 14 18  1  1
 15 19  1  0
 16 20  1  0
 17 21  1  0
 18 22  1  0
 19 22  1  0
 20 23  1  0
 21 23  1  0
 23 24  1  0
 24 25  1  0
 24 26  1  0
 26 27  1  0
 25 28  1  0
 27 28  1  0
M  CHG  1   1  -1
M  END
