ucsf385-ucsf172
     RDKit          3D

 22 23  0  0  0  0  0  0  0  0999 V2000
   -2.4560   16.0620   -1.2800 N   0  0  0  0  0  0  0  0  0  0  0  0
   -2.2010   14.8950   -0.4270 C   0  0  2  0  0  0  0  0  0  0  0  0
   -2.0170   15.3290    1.0220 C   0  0  0  0  0  0  0  0  0  0  0  0
   -1.0130   14.0430   -0.8840 C   0  0  1  0  0  0  0  0  0  0  0  0
   -0.7630   14.1410   -2.4050 C   0  0  2  0  0  0  0  0  0  0  0  0
    0.1930   14.3500    0.0150 C   0  0  0  0  0  0  0  0  0  0  0  0
   -1.5140   14.2380    1.8310 N   0  0  0  0  0  0  0  0  0  0  0  0
    0.2000   15.1320   -2.7240 O   0  0  0  0  0  0  0  0  0  0  0  0
   -1.9620   14.4710   -3.1400 N   0  0  0  0  0  0  0  0  0  0  0  0
   -0.1160   14.0680    1.4950 C   0  0  0  0  0  0  0  0  0  0  0  0
   -2.0830   13.8660   -4.4320 O   0  0  0  0  0  0  0  0  0  0  0  0
   -3.1780   14.3740   -2.3190 C   0  0  2  0  0  0  0  0  0  0  0  0
   -3.4730   13.0680   -1.5510 C   0  0  0  0  0  0  0  0  0  0  0  0
   -4.4650   15.0430   -2.8080 C   0  0  0  0  0  0  0  0  0  0  0  0
   -4.2220   13.3940   -0.2590 C   0  0  0  0  0  0  0  0  0  0  0  0
   -5.4330   15.2240   -1.6330 C   0  0  0  0  0  0  0  0  0  0  0  0
   -4.7780   14.8420   -0.2820 C   0  0  1  0  0  0  0  0  0  0  0  0
   -5.6800   15.0530    0.8460 N   0  0  0  0  0  0  0  0  0  0  0  0
   -7.0600   14.2320    1.1730 S   0  0  0  0  0  0  0  0  0  0  0  0
   -8.1520   14.9020    2.3750 C   0  0  0  0  0  0  0  0  0  0  0  0
   -6.7130   12.8000    1.7800 O   0  0  0  0  0  0  0  0  0  0  0  0
   -7.9710   14.0150   -0.1210 O   0  0  0  0  0  0  0  0  0  0  0  0
  2  1  1  6
  2  3  1  0
  2  4  1  0
  4  5  1  0
  4  6  1  1
  3  7  1  0
  5  8  1  1
  5  9  1  0
  6 10  1  0
  7 10  1  0
  9 11  1  0
 12  9  1  6
 12 13  1  0
 12 14  1  0
 13 15  1  0
 14 16  1  0
 15 17  1  0
 16 17  1  0
 17 18  1  1
 18 19  1  0
 19 20  1  0
 19 21  1  0
 19 22  1  0
M  CHG  1  11  -1
M  END
