ucsf213-ucsf123
     RDKit          3D

 17 18  0  0  0  0  0  0  0  0999 V2000
    0.5080   10.5740   -2.2740 O   0  0  0  0  0  0  0  0  0  0  0  0
    0.0130   11.7910   -2.4180 C   0  0  1  0  0  0  0  0  0  0  0  0
    0.5300   12.4410   -1.2780 O   0  0  0  0  0  0  0  0  0  0  0  0
    0.5510   12.5380   -3.6790 C   0  0  0  0  0  0  0  0  0  0  0  0
    0.0620   14.0040   -3.7350 C   0  0  1  0  0  0  0  0  0  0  0  0
    1.1090   15.0200   -4.2320 C   0  0  0  0  0  0  0  0  0  0  0  0
   -1.4720   14.2920   -4.7440 S   0  0  0  0  0  0  0  0  0  0  0  0
    0.4760   15.9170   -5.3010 C   0  0  1  0  0  0  0  0  0  0  0  0
   -0.9980   16.0600   -4.9950 C   0  0  1  0  0  0  0  0  0  0  0  0
   -2.0020   17.2040   -6.0100 S   0  0  0  0  0  0  0  0  0  0  0  0
    1.0830   17.2860   -5.3560 C   0  0  0  0  0  0  0  0  0  0  0  0
   -1.1300   16.8670   -3.7740 C   0  0  0  0  0  0  0  0  0  0  0  0
   -2.3100   18.6790   -5.3720 N   0  0  0  0  0  0  0  0  0  0  0  0
   -1.1640   17.6920   -7.2720 O   0  0  0  0  0  0  0  0  0  0  0  0
   -3.2820   16.4340   -6.5340 O   0  0  0  0  0  0  0  0  0  0  0  0
    0.0400   18.3210   -5.5080 C   0  0  0  0  0  0  0  0  0  0  0  0
   -0.7940   18.2880   -4.2380 C   0  0  0  0  0  0  0  0  0  0  0  0
  2  1  1  6
  2  3  1  0
  2  4  1  0
  5  4  1  6
  5  6  1  0
  5  7  1  0
  8  6  1  1
  9  7  1  0
  8  9  1  0
  9 10  1  6
  8 11  1  0
  9 12  1  0
 10 13  1  0
 10 14  1  0
 10 15  1  0
 11 16  1  0
 12 17  1  0
 16 17  1  0
M  CHG  1   1  -1
M  END
