ucsf303-ucsf385
     RDKit          3D

 17 19  0  0  0  0  0  0  0  0999 V2000
   -2.4570   14.0440   -3.1620 O   0  0  0  0  0  0  0  0  0  0  0  0
   -3.9120   14.3400   -2.5040 S   0  0  1  0  0  0  0  0  0  0  0  0
   -4.4730   15.6510   -3.1710 O   0  0  0  0  0  0  0  0  0  0  0  0
   -1.4070   14.4260   -2.2540 C   0  0  2  0  0  0  0  0  0  0  0  0
   -5.0380   13.1610   -2.5210 N   0  0  0  0  0  0  0  0  0  0  0  0
   -0.1700   13.8120   -2.5420 O   0  0  0  0  0  0  0  0  0  0  0  0
   -2.0130   14.1640   -0.8610 C   0  0  2  0  0  0  0  0  0  0  0  0
   -3.3360   14.9160   -0.9770 C   0  0  2  0  0  0  0  0  0  0  0  0
   -4.8130   11.9700   -1.7580 C   0  0  1  0  0  0  0  0  0  0  0  0
   -1.2490   14.5540    0.3900 C   0  0  0  0  0  0  0  0  0  0  0  0
   -4.2630   14.7950    0.2100 C   0  0  0  0  0  0  0  0  0  0  0  0
   -5.9410   11.0840   -2.0190 N   0  0  0  0  0  0  0  0  0  0  0  0
   -3.3080   11.1780   -2.3480 S   0  0  0  0  0  0  0  0  0  0  0  0
   -2.1780   14.7690    1.5770 C   0  0  0  0  0  0  0  0  0  0  0  0
   -3.5340   15.4460    1.3510 C   0  0  0  0  0  0  0  0  0  0  0  0
   -4.1720    9.6670   -2.7670 C   0  0  0  0  0  0  0  0  0  0  0  0
   -5.4960    9.6840   -2.1240 N   0  0  0  0  0  0  0  0  0  0  0  0
  2  1  1  0
  2  3  1  6
  1  4  1  0
  2  5  1  0
  4  6  1  6
  4  7  1  0
  2  8  1  0
  7  8  1  0
  9  5  1  6
  7 10  1  1
  8 11  1  1
  9 12  1  0
  9 13  1  0
 10 14  1  0
 11 15  1  0
 14 15  1  0
 13 16  1  0
 12 17  1  0
 16 17  1  0
M  END
