ucsf345-ucsf243
     RDKit          3D

 14 14  0  0  0  0  0  0  0  0999 V2000
   -6.3160   14.8380    1.6410 N   0  0  0  0  0  0  0  0  0  0  0  0
   -6.2510   14.7950    0.1850 C   0  0  2  0  0  0  0  0  0  0  0  0
   -7.4250   14.0680   -0.1740 O   0  0  0  0  0  0  0  0  0  0  0  0
   -4.9780   14.2150   -0.5350 C   0  0  1  0  0  0  0  0  0  0  0  0
   -5.4090   14.0700   -1.9470 N   0  0  0  0  0  0  0  0  0  0  0  0
   -3.6430   15.0960   -0.3810 C   0  0  1  0  0  0  0  0  0  0  0  0
   -3.0250   14.9420    1.0110 C   0  0  0  0  0  0  0  0  0  0  0  0
   -4.6050   14.9370   -2.7990 C   0  0  0  0  0  0  0  0  0  0  0  0
   -2.5210   14.9650   -1.4580 N   0  0  0  0  0  0  0  0  0  0  0  0
   -1.2100   14.2920   -1.2070 C   0  0  1  0  0  0  0  0  0  0  0  0
   -3.1080   14.6020   -2.7370 C   0  0  2  0  0  0  0  0  0  0  0  0
   -2.4090   15.0930   -3.8810 O   0  0  0  0  0  0  0  0  0  0  0  0
   -0.5100   14.1470   -2.4450 O   0  0  0  0  0  0  0  0  0  0  0  0
   -0.3330   15.0890   -0.6510 O   0  0  0  0  0  0  0  0  0  0  0  0
  2  1  1  1
  2  3  1  0
  2  4  1  0
  4  5  1  6
  4  6  1  0
  6  7  1  1
  5  8  1  0
  6  9  1  0
  9 10  1  0
  8 11  1  0
  9 11  1  0
 11 12  1  6
 10 13  1  6
 10 14  1  0
M  CHG  1  14  -1
M  END
