ucsf385-ucsf151
     RDKit          3D

 18 19  0  0  0  0  0  0  0  0999 V2000
   -3.2770   14.7670   -1.3150 N   0  0  0  0  0  0  0  0  0  0  0  0
   -2.2770   14.1060   -0.4910 C   0  0  2  0  0  0  0  0  0  0  0  0
   -2.7360   14.2480    0.9010 C   0  0  0  0  0  0  0  0  0  0  0  0
   -0.8400   14.4670   -0.8250 C   0  0  2  0  0  0  0  0  0  0  0  0
   -0.2400   14.0710   -2.4410 S   0  0  0  0  0  0  0  0  0  0  0  0
   -0.0310   14.1850    0.2930 C   0  0  0  0  0  0  0  0  0  0  0  0
   -1.7510   14.9340    1.7150 N   0  0  0  0  0  0  0  0  0  0  0  0
    1.6550   14.7140   -2.6300 O   0  0  0  0  0  0  0  0  0  0  0  0
   -0.0170   15.7440   -3.2760 O   0  0  0  0  0  0  0  0  0  0  0  0
    0.9230   12.6930   -3.3780 O   0  0  0  0  0  0  0  0  0  0  0  0
   -0.5180   14.1710    1.6060 C   0  0  0  0  0  0  0  0  0  0  0  0
   -1.3900   13.7390   -3.7400 C   0  0  2  0  0  0  0  0  0  0  0  0
   -1.5770   15.0750   -4.5110 C   0  0  0  0  0  0  0  0  0  0  0  0
   -2.5730   12.9300   -3.7920 C   0  0  0  0  0  0  0  0  0  0  0  0
   -2.9290   14.9880   -5.1550 C   0  0  1  0  0  0  0  0  0  0  0  0
   -2.8610   12.5700   -5.1880 N   0  0  0  0  0  0  0  0  0  0  0  0
   -3.0840   16.1210   -5.9780 O   0  0  0  0  0  0  0  0  0  0  0  0
   -3.1190   13.7450   -5.9940 C   0  0  0  0  0  0  0  0  0  0  0  0
  2  1  1  6
  2  3  1  0
  2  4  1  0
  4  5  1  6
  4  6  1  0
  3  7  1  0
  5  8  1  0
  5  9  1  0
  5 10  1  0
  6 11  1  0
  7 11  1  0
 12  5  1  1
 12 13  1  0
 12 14  1  0
 13 15  1  0
 14 16  1  0
 15 17  1  6
 15 18  1  0
 16 18  1  0
M  CHG  2   9  -1  10  -1
M  END
