ucsf109-ucsf411
     RDKit          3D

 29 33  0  0  0  0  0  0  0  0999 V2000
   -3.7010   14.5160    1.5520 N   0  0  0  0  0  0  0  0  0  0  0  0
   -4.8640   15.0590    0.8710 C   0  0  1  0  0  0  0  0  0  0  0  0
   -4.6490   15.1320   -0.6240 C   0  0  2  0  0  0  0  0  0  0  0  0
   -6.0700   14.2740    1.2540 N   0  0  0  0  0  0  0  0  0  0  0  0
   -7.1560   14.0660    0.2920 C   0  0  2  0  0  0  0  0  0  0  0  0
   -5.5200   14.1440   -1.3300 C   0  0  1  0  0  0  0  0  0  0  0  0
   -3.2720   14.7850   -1.1640 C   0  0  0  0  0  0  0  0  0  0  0  0
   -6.7260   14.6430    2.5030 N   0  0  0  0  0  0  0  0  0  0  0  0
   -6.9030   14.4070   -1.0780 N   0  0  0  0  0  0  0  0  0  0  0  0
   -5.0340   14.1680   -2.7620 C   0  0  0  0  0  0  0  0  0  0  0  0
   -3.5480   14.5160   -2.6500 C   0  0  1  0  0  0  0  0  0  0  0  0
   -8.3210   14.7440    0.7970 N   0  0  0  0  0  0  0  0  0  0  0  0
   -8.1520   14.7400    2.2430 C   0  0  0  0  0  0  0  0  0  0  0  0
   -3.1520   15.6730   -3.5180 C   0  0  0  0  0  0  0  0  0  0  0  0
   -2.6710   15.5760   -4.9660 C   0  0  1  0  0  0  0  0  0  0  0  0
   -1.4660   16.5230   -4.8380 C   0  0  1  0  0  0  0  0  0  0  0  0
   -2.3780   14.1560   -5.4680 C   0  0  0  0  0  0  0  0  0  0  0  0
   -0.1290   15.9300   -4.3850 C   0  0  1  0  0  0  0  0  0  0  0  0
   -0.9430   13.6720   -5.3130 C   0  0  0  0  0  0  0  0  0  0  0  0
   -1.3710   17.6440   -5.8590 C   0  0  0  0  0  0  0  0  0  0  0  0
   -0.1520   14.3850   -4.2260 C   0  0  1  0  0  0  0  0  0  0  0  0
   -0.3520   18.6190   -5.3710 C   0  0  0  0  0  0  0  0  0  0  0  0
    1.0670   16.4840   -5.1290 C   0  0  0  0  0  0  0  0  0  0  0  0
    1.1870   13.8720   -4.2000 O   0  0  0  0  0  0  0  0  0  0  0  0
    1.0400   18.0080   -5.3100 C   0  0  0  0  0  0  0  0  0  0  0  0
    1.3720   12.5240   -3.6810 C   0  0  0  0  0  0  0  0  0  0  0  0
    0.3650   11.9250   -2.6160 C   0  0  1  0  0  0  0  0  0  0  0  0
    0.5590   10.6280   -2.3570 O   0  0  0  0  0  0  0  0  0  0  0  0
    0.5600   12.5190   -1.3470 O   0  0  0  0  0  0  0  0  0  0  0  0
  2  1  1  1
  2  3  1  0
  2  4  1  0
  4  5  1  0
  3  6  1  0
  3  7  1  1
  4  8  1  0
  5  9  1  6
  6  9  1  0
  6 10  1  6
  7 11  1  0
 10 11  1  0
  5 12  1  0
  8 13  1  0
 12 13  1  0
 11 14  1  6
 15 14  1  1
 15 16  1  0
 15 17  1  0
 16 18  1  0
 17 19  1  0
 16 20  1  6
 18 21  1  0
 19 21  1  0
 20 22  1  0
 18 23  1  6
 21 24  1  6
 22 25  1  0
 23 25  1  0
 24 26  1  0
 26 27  1  0
 27 28  1  1
 27 29  1  0
M  CHG  1  28  -1
M  END
