ucsf365-ucsf262
     RDKit          3D

 23 25  0  0  0  0  0  0  0  0999 V2000
    0.3230   11.0460   -2.3380 O   0  0  0  0  0  0  0  0  0  0  0  0
    0.3490   12.2960   -2.8110 C   0  0  1  0  0  0  0  0  0  0  0  0
    1.4060   13.0130   -2.1540 O   0  0  0  0  0  0  0  0  0  0  0  0
    0.6460   12.3030   -4.3540 C   0  0  0  0  0  0  0  0  0  0  0  0
    2.2000   13.9710   -2.9190 C   0  0  2  0  0  0  0  0  0  0  0  0
   -0.4980   12.8150   -5.2740 C   0  0  1  0  0  0  0  0  0  0  0  0
    2.7810   14.8030   -2.0640 O   0  0  0  0  0  0  0  0  0  0  0  0
   -1.8140   12.1120   -4.9610 C   0  0  2  0  0  0  0  0  0  0  0  0
   -0.7050   14.3320   -5.1670 C   0  0  0  0  0  0  0  0  0  0  0  0
    1.2180   14.7800   -3.8830 C   0  0  1  0  0  0  0  0  0  0  0  0
   -1.5880   10.6900   -5.0080 O   0  0  0  0  0  0  0  0  0  0  0  0
   -2.8820   12.4580   -5.9820 C   0  0  0  0  0  0  0  0  0  0  0  0
   -2.1520   14.8190   -5.3240 C   0  0  0  0  0  0  0  0  0  0  0  0
   -0.1000   15.3940   -3.3500 C   0  0  0  0  0  0  0  0  0  0  0  0
    1.8770   15.9660   -4.4860 N   0  0  0  0  0  0  0  0  0  0  0  0
   -3.0740   13.9660   -6.1920 C   0  0  0  0  0  0  0  0  0  0  0  0
   -0.2420   16.7360   -4.0910 C   0  0  1  0  0  0  0  0  0  0  0  0
    0.8090   16.6870   -5.1330 C   0  0  1  0  0  0  0  0  0  0  0  0
   -1.5690   17.2240   -4.6830 C   0  0  2  0  0  0  0  0  0  0  0  0
    1.0660   18.0790   -5.6930 C   0  0  0  0  0  0  0  0  0  0  0  0
   -2.8830   15.9830   -4.7460 Cl  0  0  0  0  0  0  0  0  0  0  0  0
   -1.5080   17.9460   -6.0380 C   0  0  0  0  0  0  0  0  0  0  0  0
   -0.1690   18.5710   -6.4550 C   0  0  0  0  0  0  0  0  0  0  0  0
  2  1  1  1
  2  3  1  0
  2  4  1  0
  3  5  1  0
  6  4  1  1
  5  7  1  1
  6  8  1  0
  6  9  1  0
  5 10  1  0
  8 11  1  6
  8 12  1  0
  9 13  1  0
 10 14  1  1
 10 15  1  0
 12 16  1  0
 13 16  1  0
 17 14  1  6
 15 18  1  0
 17 18  1  0
 17 19  1  0
 18 20  1  1
 19 21  1  6
 19 22  1  0
 20 23  1  0
 22 23  1  0
M  CHG  2   1  -1   7  -1
M  END
