ucsf320-ucsf135
     RDKit          3D

 23 25  0  0  0  0  0  0  0  0999 V2000
   -0.8830   15.0860   -1.7820 O   0  0  0  0  0  0  0  0  0  0  0  0
   -1.8850   14.2740   -2.0170 C   0  0  2  0  0  0  0  0  0  0  0  0
   -2.0030   13.9880   -3.4110 O   0  0  0  0  0  0  0  0  0  0  0  0
   -3.2350   14.9320   -1.5630 C   0  0  2  0  0  0  0  0  0  0  0  0
   -2.5970   12.7040   -3.5690 C   0  0  0  0  0  0  0  0  0  0  0  0
   -3.8230   14.2880   -0.3110 C   0  0  0  0  0  0  0  0  0  0  0  0
   -4.2860   14.9640   -2.6920 C   0  0  0  0  0  0  0  0  0  0  0  0
   -1.9920   11.9870   -4.6270 O   0  0  0  0  0  0  0  0  0  0  0  0
   -4.9850   15.1120    0.2170 C   0  0  0  0  0  0  0  0  0  0  0  0
   -5.7400   14.8660   -2.2150 C   0  0  0  0  0  0  0  0  0  0  0  0
   -5.9950   15.5090   -0.8630 C   0  0  1  0  0  0  0  0  0  0  0  0
   -0.6400   11.1670   -4.4490 S   0  0  2  0  0  0  0  0  0  0  0  0
   -7.3080   15.1500   -0.4270 O   0  0  0  0  0  0  0  0  0  0  0  0
   -0.4550   10.5350   -2.9930 O   0  0  0  0  0  0  0  0  0  0  0  0
    0.7660   11.8140   -5.0620 N   0  0  0  0  0  0  0  0  0  0  0  0
   -0.8120    9.8040   -5.5410 C   0  0  2  0  0  0  0  0  0  0  0  0
    0.7860   11.5070   -6.4990 C   0  0  1  0  0  0  0  0  0  0  0  0
   -0.3790   10.5280   -6.8360 C   0  0  1  0  0  0  0  0  0  0  0  0
   -2.1670    9.1470   -5.6930 C   0  0  0  0  0  0  0  0  0  0  0  0
    0.6610   12.6950   -7.1580 O   0  0  0  0  0  0  0  0  0  0  0  0
   -2.4700    8.7750   -7.1550 C   0  0  0  0  0  0  0  0  0  0  0  0
   -0.1270    9.5210   -7.9460 C   0  0  0  0  0  0  0  0  0  0  0  0
   -1.2220    8.4400   -7.9900 C   0  0  0  0  0  0  0  0  0  0  0  0
  2  1  1  6
  2  3  1  0
  2  4  1  0
  3  5  1  0
  4  6  1  1
  4  7  1  0
  5  8  1  0
  6  9  1  0
  7 10  1  0
  9 11  1  0
 10 11  1  0
 12  8  1  0
 11 13  1  1
 12 14  1  1
 12 15  1  0
 12 16  1  0
 15 17  1  0
 16 18  1  0
 17 18  1  0
 16 19  1  6
 17 20  1  6
 19 21  1  0
 18 22  1  6
 21 23  1  0
 22 23  1  0
M  CHG  1   1  -1
M  END
