ucsf247-ucsf004
     RDKit          3D

 26 28  0  0  0  0  0  0  0  0999 V2000
    0.0740   11.0420   -1.4660 O   0  0  0  0  0  0  0  0  0  0  0  0
   -0.4050   11.9850   -2.2790 C   0  0  1  0  0  0  0  0  0  0  0  0
   -0.0610   11.4700   -3.5560 O   0  0  0  0  0  0  0  0  0  0  0  0
   -1.9770   12.1800   -2.1590 C   0  0  0  0  0  0  0  0  0  0  0  0
   -2.5900   13.0460   -3.1980 N   0  0  0  0  0  0  0  0  0  0  0  0
   -3.6140   14.0580   -2.9080 C   0  0  1  0  0  0  0  0  0  0  0  0
   -4.8810   13.4340   -3.0310 O   0  0  0  0  0  0  0  0  0  0  0  0
   -3.6500   15.0330   -1.6760 C   0  0  1  0  0  0  0  0  0  0  0  0
   -5.0680   15.4870   -1.2530 C   0  0  0  0  0  0  0  0  0  0  0  0
   -2.7580   14.5720   -0.4630 C   0  0  2  0  0  0  0  0  0  0  0  0
   -5.6250   14.7820   -0.0100 C   0  0  1  0  0  0  0  0  0  0  0  0
   -3.4810   13.3040    0.1020 C   0  0  0  0  0  0  0  0  0  0  0  0
   -2.8160   15.4650    0.8080 C   0  0  0  0  0  0  0  0  0  0  0  0
   -1.1740   14.5190   -0.8990 C   0  0  2  0  0  0  0  0  0  0  0  0
   -7.0490   14.6640   -0.1070 O   0  0  0  0  0  0  0  0  0  0  0  0
   -5.0000   13.4350    0.3230 C   0  0  0  0  0  0  0  0  0  0  0  0
   -0.6180   14.2710   -2.2730 N   0  0  0  0  0  0  0  0  0  0  0  0
   -0.5490   13.7010    0.1120 N   0  0  0  0  0  0  0  0  0  0  0  0
   -1.4450   15.5650    1.3050 N   0  0  0  0  0  0  0  0  0  0  0  0
   -1.2890   14.9120   -3.4320 C   0  0  0  0  0  0  0  0  0  0  0  0
    0.8200   14.6210   -2.4450 C   0  0  0  0  0  0  0  0  0  0  0  0
   -0.7830   14.2640    1.4130 C   0  0  0  0  0  0  0  0  0  0  0  0
   -0.9750   14.1000   -4.6820 C   0  0  1  0  0  0  0  0  0  0  0  0
    1.1300   15.1730   -3.8700 C   0  0  0  0  0  0  0  0  0  0  0  0
   -1.8390   14.4130   -5.6870 F   0  0  0  0  0  0  0  0  0  0  0  0
    0.4640   14.4140   -5.0390 C   0  0  0  0  0  0  0  0  0  0  0  0
  2  1  1  1
  2  3  1  0
  2  4  1  0
  4  5  1  0
  5  6  1  0
  6  7  1  1
  6  8  1  0
  8  9  1  1
  8 10  1  0
  9 11  1  0
 10 12  1  1
 10 13  1  0
 10 14  1  0
 11 15  1  6
 11 16  1  0
 12 16  1  0
 14 17  1  6
 14 18  1  0
 13 19  1  0
 17 20  1  0
 17 21  1  0
 18 22  1  0
 19 22  1  0
 20 23  1  0
 21 24  1  0
 23 25  1  6
 23 26  1  0
 24 26  1  0
M  CHG  1   1  -1
M  END
