ucsf371-ucsf138
     RDKit          3D

 24 25  0  0  0  0  0  0  0  0999 V2000
   -4.7760   15.3350    0.5240 C   0  0  0  0  0  0  0  0  0  0  0  0
   -4.0220   14.7590   -0.6650 C   0  0  1  0  0  0  0  0  0  0  0  0
   -4.5620   15.2490   -1.9270 N   0  0  0  0  0  0  0  0  0  0  0  0
   -2.2750   15.2260   -0.6010 S   0  0  0  0  0  0  0  0  0  0  0  0
   -3.5190   15.0710   -2.9460 C   0  0  0  0  0  0  0  0  0  0  0  0
   -2.1550   15.5100   -2.4040 C   0  0  2  0  0  0  0  0  0  0  0  0
   -0.9740   14.7540   -3.0640 C   0  0  1  0  0  0  0  0  0  0  0  0
   -0.9540   15.0220   -4.4650 O   0  0  0  0  0  0  0  0  0  0  0  0
    0.2980   15.0800   -2.4940 O   0  0  0  0  0  0  0  0  0  0  0  0
    0.8470   14.0860   -1.6150 C   0  0  0  0  0  0  0  0  0  0  0  0
    1.4660   13.0360   -2.3850 O   0  0  0  0  0  0  0  0  0  0  0  0
    0.5340   12.2820   -3.1490 C   0  0  2  0  0  0  0  0  0  0  0  0
    0.5790   10.9110   -2.7450 O   0  0  0  0  0  0  0  0  0  0  0  0
    0.8370   12.3870   -4.6680 C   0  0  0  0  0  0  0  0  0  0  0  0
    0.1380   11.4430   -5.5520 N   0  0  0  0  0  0  0  0  0  0  0  0
    0.4830   11.4880   -6.9390 C   0  0  1  0  0  0  0  0  0  0  0  0
    1.8330   11.7420   -7.0520 O   0  0  0  0  0  0  0  0  0  0  0  0
    0.1080   10.2520   -7.5750 N   0  0  0  0  0  0  0  0  0  0  0  0
    0.8340    9.9760   -8.8320 C   0  0  0  0  0  0  0  0  0  0  0  0
   -0.0360   10.1000  -10.0940 C   0  0  0  0  0  0  0  0  0  0  0  0
    1.4460    8.5690   -8.7400 C   0  0  0  0  0  0  0  0  0  0  0  0
    0.6380    9.5810  -11.3710 C   0  0  0  0  0  0  0  0  0  0  0  0
    2.1510    8.1070  -10.0140 C   0  0  0  0  0  0  0  0  0  0  0  0
    1.2060    8.1770  -11.2020 C   0  0  0  0  0  0  0  0  0  0  0  0
  2  1  1  1
  2  3  1  0
  2  4  1  0
  3  5  1  0
  4  6  1  0
  6  5  1  6
  6  7  1  0
  7  8  1  6
  7  9  1  0
  9 10  1  0
 10 11  1  0
 11 12  1  0
 12 13  1  1
 12 14  1  0
 14 15  1  0
 15 16  1  0
 16 17  1  1
 16 18  1  0
 18 19  1  0
 19 20  1  0
 19 21  1  0
 20 22  1  0
 21 23  1  0
 22 24  1  0
 23 24  1  0
M  END
