ucsf338-ucsf012
     RDKit          3D

 28 31  0  0  0  0  0  0  0  0999 V2000
   -9.2770   13.9410   -0.1110 O   0  0  0  0  0  0  0  0  0  0  0  0
   -8.1360   14.5570    0.5540 N   0  0  0  0  0  0  0  0  0  0  0  0
   -7.2000   14.9360   -0.5020 C   0  0  2  0  0  0  0  0  0  0  0  0
   -7.5610   14.2510   -1.6750 O   0  0  0  0  0  0  0  0  0  0  0  0
   -5.7310   14.6780   -0.1020 C   0  0  1  0  0  0  0  0  0  0  0  0
   -4.7590   15.4780   -0.9720 C   0  0  2  0  0  0  0  0  0  0  0  0
   -5.4940   14.7560    1.4350 C   0  0  0  0  0  0  0  0  0  0  0  0
   -4.4930   14.6680   -2.1170 O   0  0  0  0  0  0  0  0  0  0  0  0
   -3.3940   15.7260   -0.4060 C   0  0  0  0  0  0  0  0  0  0  0  0
   -4.2120   15.3860    1.9960 C   0  0  0  0  0  0  0  0  0  0  0  0
   -3.3940   16.2070    1.0200 C   0  0  0  0  0  0  0  0  0  0  0  0
   -3.1090   14.2870   -2.3460 C   0  0  1  0  0  0  0  0  0  0  0  0
   -2.4040   15.3990   -3.1410 C   0  0  2  0  0  0  0  0  0  0  0  0
   -2.2360   14.1280   -1.0700 C   0  0  1  0  0  0  0  0  0  0  0  0
   -2.5560   15.1840   -4.6440 C   0  0  0  0  0  0  0  0  0  0  0  0
   -1.1220   15.1170   -1.2910 C   0  0  2  0  0  0  0  0  0  0  0  0
   -0.9860   15.3710   -2.7180 N   0  0  0  0  0  0  0  0  0  0  0  0
   -2.6950   14.3880    0.3510 C   0  0  1  0  0  0  0  0  0  0  0  0
   -3.6470   13.4130    0.8350 N   0  0  0  0  0  0  0  0  0  0  0  0
   -0.1400   14.3850   -3.4380 C   0  0  0  0  0  0  0  0  0  0  0  0
   -1.5850   14.3810    1.2860 N   0  0  0  0  0  0  0  0  0  0  0  0
    0.0540   14.6200   -0.6410 N   0  0  0  0  0  0  0  0  0  0  0  0
   -0.1950   14.3550    0.7830 C   0  0  0  0  0  0  0  0  0  0  0  0
   -0.5070   12.9080   -3.1730 C   0  0  2  0  0  0  0  0  0  0  0  0
    0.6040   12.1040   -2.5290 C   0  0  0  0  0  0  0  0  0  0  0  0
   -0.7870   12.1640   -4.3730 O   0  0  0  0  0  0  0  0  0  0  0  0
   -0.6010   10.7790   -4.0550 C   0  0  0  0  0  0  0  0  0  0  0  0
    0.0080   10.7240   -2.6690 C   0  0  0  0  0  0  0  0  0  0  0  0
  1  2  1  0
  2  3  1  0
  3  4  1  6
  3  5  1  0
  5  6  1  0
  5  7  1  1
  6  8  1  6
  6  9  1  0
  7 10  1  0
  9 11  1  0
 10 11  1  0
 12  8  1  1
 12 13  1  0
 12 14  1  0
 13 15  1  6
 14 16  1  0
 13 17  1  0
 16 17  1  0
 14 18  1  1
 18 19  1  1
 17 20  1  0
 18 21  1  0
 16 22  1  6
 21 23  1  0
 22 23  1  0
 24 20  1  6
 24 25  1  0
 24 26  1  0
 26 27  1  0
 25 28  1  0
 27 28  1  0
M  END
