ucsf170-ucsf337
     RDKit          3D

 19 20  0  0  0  0  0  0  0  0999 V2000
   -2.4620   15.0230    1.1510 S   0  0  0  0  0  0  0  0  0  0  0  0
   -2.0930   15.3830   -0.6110 C   0  0  2  0  0  0  0  0  0  0  0  0
   -3.2660   15.4080   -1.6200 C   0  0  1  0  0  0  0  0  0  0  0  0
   -0.9550   14.5340   -1.1160 C   0  0  0  0  0  0  0  0  0  0  0  0
   -0.4240   15.0980   -2.4500 C   0  0  1  0  0  0  0  0  0  0  0  0
   -2.8900   14.7180   -2.9600 C   0  0  0  0  0  0  0  0  0  0  0  0
   -4.5260   14.7910   -1.0390 C   0  0  1  0  0  0  0  0  0  0  0  0
    0.8680   14.3570   -2.8830 C   0  0  1  0  0  0  0  0  0  0  0  0
   -1.5540   15.1780   -3.5230 C   0  0  2  0  0  0  0  0  0  0  0  0
   -5.0010   15.6060    0.1270 C   0  0  0  0  0  0  0  0  0  0  0  0
   -5.7900   14.5270   -1.9200 C   0  0  2  0  0  0  0  0  0  0  0  0
   -1.2990   14.4820   -4.7410 O   0  0  0  0  0  0  0  0  0  0  0  0
    1.2670   13.5060   -1.8230 O   0  0  0  0  0  0  0  0  0  0  0  0
    0.6030   13.4760   -3.8070 O   0  0  0  0  0  0  0  0  0  0  0  0
   -5.8400   15.0030   -3.2770 N   0  0  0  0  0  0  0  0  0  0  0  0
   -5.9110   14.7370    0.9510 C   0  0  0  0  0  0  0  0  0  0  0  0
   -6.9780   15.0060   -1.2500 N   0  0  0  0  0  0  0  0  0  0  0  0
   -7.1020   14.3740    0.0730 C   0  0  2  0  0  0  0  0  0  0  0  0
   -8.3970   14.8130    0.7440 C   0  0  0  0  0  0  0  0  0  0  0  0
  2  1  1  1
  2  3  1  0
  2  4  1  0
  5  4  1  1
  3  6  1  6
  3  7  1  0
  5  8  1  0
  5  9  1  0
  6  9  1  0
  7 10  1  1
  7 11  1  0
  9 12  1  6
  8 13  1  1
  8 14  1  0
 11 15  1  6
 10 16  1  0
 11 17  1  0
 16 18  1  0
 17 18  1  0
 18 19  1  1
M  CHG  1  14  -1
M  END
