ucsf378-ucsf213
     RDKit          3D

 18 19  0  0  0  0  0  0  0  0999 V2000
   -2.4690   13.9570   -3.9860 Cl  0  0  0  0  0  0  0  0  0  0  0  0
   -0.7300   14.3770   -3.7850 C   0  0  1  0  0  0  0  0  0  0  0  0
    0.2390   13.3070   -4.3560 C   0  0  2  0  0  0  0  0  0  0  0  0
   -0.4030   15.7540   -4.4300 C   0  0  0  0  0  0  0  0  0  0  0  0
   -0.1710   11.8730   -3.9470 C   0  0  0  0  0  0  0  0  0  0  0  0
    1.6620   13.6830   -3.8640 C   0  0  1  0  0  0  0  0  0  0  0  0
    1.0080   15.7290   -5.0310 C   0  0  0  0  0  0  0  0  0  0  0  0
   -0.4390   16.9230   -3.5020 C   0  0  0  0  0  0  0  0  0  0  0  0
   -1.3850   16.1220   -5.4960 C   0  0  0  0  0  0  0  0  0  0  0  0
    2.9520   12.8320   -4.7490 Cl  0  0  0  0  0  0  0  0  0  0  0  0
    0.4270   11.3710   -2.6420 C   0  0  1  0  0  0  0  0  0  0  0  0
    1.9310   15.1580   -4.0040 C   0  0  0  0  0  0  0  0  0  0  0  0
   -0.3350   18.2010   -4.3150 C   0  0  0  0  0  0  0  0  0  0  0  0
   -2.3820   17.1640   -5.1930 C   0  0  0  0  0  0  0  0  0  0  0  0
    0.0190   12.0850   -1.4990 O   0  0  0  0  0  0  0  0  0  0  0  0
    0.0910   10.0280   -2.4570 O   0  0  0  0  0  0  0  0  0  0  0  0
   -1.5900   18.4440   -5.1510 C   0  0  0  0  0  0  0  0  0  0  0  0
    0.7560   13.2800   -1.3650 C   0  0  0  0  0  0  0  0  0  0  0  0
  2  1  1  6
  2  3  1  0
  2  4  1  0
  3  5  1  1
  3  6  1  0
  4  7  1  0
  4  8  1  0
  4  9  1  0
  6 10  1  6
  5 11  1  0
  6 12  1  0
  7 12  1  0
  8 13  1  0
  9 14  1  0
 11 15  1  0
 11 16  1  1
 13 17  1  0
 14 17  1  0
 15 18  1  0
M  END
