ucsf016-ucsf523
     RDKit          3D

 20 23  0  0  0  0  0  0  0  0999 V2000
    0.7690   15.3490    0.9450 N   0  0  0  0  0  0  0  0  0  0  0  0
   -0.1760   14.3450    0.7180 C   0  0  2  0  0  0  0  0  0  0  0  0
   -0.2370   14.1410   -0.7010 N   0  0  0  0  0  0  0  0  0  0  0  0
   -1.3480   14.7310    1.4120 N   0  0  0  0  0  0  0  0  0  0  0  0
   -2.5130   14.6080    0.6180 C   0  0  2  0  0  0  0  0  0  0  0  0
   -1.3270   14.6220   -1.5340 C   0  0  2  0  0  0  0  0  0  0  0  0
   -1.9500   13.5440   -2.1680 O   0  0  0  0  0  0  0  0  0  0  0  0
   -0.7080   15.3960   -2.6190 N   0  0  0  0  0  0  0  0  0  0  0  0
   -2.4060   15.3290   -0.6930 C   0  0  1  0  0  0  0  0  0  0  0  0
   -3.5790   15.3220    1.2910 N   0  0  0  0  0  0  0  0  0  0  0  0
    0.4570   14.7000   -3.2350 C   0  0  0  0  0  0  0  0  0  0  0  0
   -1.6670   15.8740   -3.6500 C   0  0  0  0  0  0  0  0  0  0  0  0
   -3.8810   15.2650   -1.0870 C   0  0  0  0  0  0  0  0  0  0  0  0
   -4.5590   15.5880    0.2560 C   0  0  1  0  0  0  0  0  0  0  0  0
   -5.7020   14.7860    0.5070 O   0  0  0  0  0  0  0  0  0  0  0  0
   -1.9820   14.7850   -4.6930 C   0  0  0  0  0  0  0  0  0  0  0  0
    0.0900   13.5420   -4.1750 C   0  0  0  0  0  0  0  0  0  0  0  0
   -3.2880   14.0170   -4.5600 C   0  0  0  0  0  0  0  0  0  0  0  0
   -3.1420   15.0430   -5.6420 C   0  0  0  0  0  0  0  0  0  0  0  0
   -0.7750   14.0790   -5.2870 C   0  0  0  0  0  0  0  0  0  0  0  0
  2  1  1  6
  2  3  1  0
  2  4  1  0
  5  4  1  1
  3  6  1  0
  6  7  1  6
  6  8  1  0
  5  9  1  0
  6  9  1  0
  5 10  1  0
  8 11  1  0
  8 12  1  0
  9 13  1  6
 10 14  1  0
 13 14  1  0
 14 15  1  1
 16 12  1  0
 11 17  1  0
 16 18  1  0
 16 19  1  0
 18 19  1  0
 16 20  1  0
 17 20  1  0
M  END
