ucsf367-ucsf016
     RDKit          3D

 28 32  0  0  0  0  0  0  0  0999 V2000
    0.7490   10.3590   -2.4340 O   0  0  0  0  0  0  0  0  0  0  0  0
    0.7040   11.6620   -2.6770 C   0  0  1  0  0  0  0  0  0  0  0  0
    2.0360   12.1150   -2.8100 O   0  0  0  0  0  0  0  0  0  0  0  0
   -0.0500   12.0260   -3.9830 C   0  0  2  0  0  0  0  0  0  0  0  0
    0.4050   11.5560   -5.2670 O   0  0  0  0  0  0  0  0  0  0  0  0
   -0.5860   13.4550   -3.9820 C   0  0  2  0  0  0  0  0  0  0  0  0
   -0.4740   10.4900   -5.5930 C   0  0  0  0  0  0  0  0  0  0  0  0
   -1.0380   14.0400   -5.2880 C   0  0  0  0  0  0  0  0  0  0  0  0
    0.2780   14.5100   -3.3420 C   0  0  0  0  0  0  0  0  0  0  0  0
   -0.3590    9.9550   -7.0030 C   0  0  0  0  0  0  0  0  0  0  0  0
   -1.8960   11.0280   -5.4240 C   0  0  0  0  0  0  0  0  0  0  0  0
   -2.1460   14.9500   -4.8220 C   0  0  0  0  0  0  0  0  0  0  0  0
   -0.6680   15.4860   -2.7960 N   0  0  0  0  0  0  0  0  0  0  0  0
   -1.3230    8.7750   -7.1540 C   0  0  0  0  0  0  0  0  0  0  0  0
   -2.9290    9.9170   -5.4970 C   0  0  0  0  0  0  0  0  0  0  0  0
   -3.5170   14.3160   -4.6910 C   0  0  0  0  0  0  0  0  0  0  0  0
   -3.2560   15.3010   -5.7950 C   0  0  0  0  0  0  0  0  0  0  0  0
   -1.7310   15.9690   -3.7280 C   0  0  0  0  0  0  0  0  0  0  0  0
   -0.8750   15.5170   -1.3310 C   0  0  2  0  0  0  0  0  0  0  0  0
   -2.7850    9.0760   -6.7600 C   0  0  0  0  0  0  0  0  0  0  0  0
   -0.1110   14.5210   -0.5740 N   0  0  0  0  0  0  0  0  0  0  0  0
   -2.2720   15.6520   -0.7350 C   0  0  2  0  0  0  0  0  0  0  0  0
   -0.1180   14.6660    0.8870 C   0  0  0  0  0  0  0  0  0  0  0  0
   -2.4170   14.7110    0.4020 C   0  0  1  0  0  0  0  0  0  0  0  0
   -3.5450   15.2830   -1.4620 C   0  0  0  0  0  0  0  0  0  0  0  0
   -1.4400   14.9870    1.4090 N   0  0  0  0  0  0  0  0  0  0  0  0
   -3.7130   15.0960    0.9360 N   0  0  0  0  0  0  0  0  0  0  0  0
   -4.5160   15.3690   -0.2780 C   0  0  0  0  0  0  0  0  0  0  0  0
  2  1  1  6
  2  3  1  0
  2  4  1  0
  4  5  1  6
  4  6  1  0
  5  7  1  0
  6  8  1  6
  6  9  1  0
  7 10  1  0
  7 11  1  0
 12  8  1  0
  9 13  1  0
 10 14  1  0
 11 15  1  0
 12 16  1  0
 12 17  1  0
 16 17  1  0
 12 18  1  0
 13 18  1  0
 19 13  1  6
 14 20  1  0
 15 20  1  0
 19 21  1  0
 19 22  1  0
 21 23  1  0
 22 24  1  0
 22 25  1  6
 23 26  1  0
 24 26  1  1
 24 27  1  0
 25 28  1  0
 27 28  1  0
M  CHG  1   1  -1
M  END
