ucsf385-ucsf365
     RDKit          3D

 21 22  0  0  0  0  0  0  0  0999 V2000
   -3.4780   15.1030   -1.2830 N   0  0  0  0  0  0  0  0  0  0  0  0
   -2.4160   14.3930   -0.5290 C   0  0  2  0  0  0  0  0  0  0  0  0
   -2.7730   14.4590    0.9760 C   0  0  0  0  0  0  0  0  0  0  0  0
   -1.0220   15.0090   -0.8540 C   0  0  2  0  0  0  0  0  0  0  0  0
   -0.5540   14.6740   -2.2790 C   0  0  2  0  0  0  0  0  0  0  0  0
    0.0730   14.5530    0.1350 C   0  0  0  0  0  0  0  0  0  0  0  0
   -1.6730   14.9940    1.7500 N   0  0  0  0  0  0  0  0  0  0  0  0
    0.8020   15.0200   -2.4510 O   0  0  0  0  0  0  0  0  0  0  0  0
   -1.3260   15.3630   -3.2480 O   0  0  0  0  0  0  0  0  0  0  0  0
   -0.4500   14.2420    1.5130 C   0  0  0  0  0  0  0  0  0  0  0  0
   -1.2300   14.6890   -4.5240 C   0  0  1  0  0  0  0  0  0  0  0  0
   -1.1870   13.1730   -4.1800 C   0  0  2  0  0  0  0  0  0  0  0  0
   -2.4600   15.2330   -5.2780 C   0  0  0  0  0  0  0  0  0  0  0  0
    0.2190   12.5360   -3.9510 C   0  0  0  0  0  0  0  0  0  0  0  0
   -2.0500   12.2980   -5.1020 C   0  0  2  0  0  0  0  0  0  0  0  0
   -3.2450   14.2640   -6.1520 C   0  0  0  0  0  0  0  0  0  0  0  0
    0.4740   11.9910   -2.5130 C   0  0  1  0  0  0  0  0  0  0  0  0
   -1.3190   11.1170   -5.4710 O   0  0  0  0  0  0  0  0  0  0  0  0
   -2.5280   12.9530   -6.3860 C   0  0  0  0  0  0  0  0  0  0  0  0
    0.5060   10.6630   -2.4360 O   0  0  0  0  0  0  0  0  0  0  0  0
    1.7610   12.3900   -2.1190 O   0  0  0  0  0  0  0  0  0  0  0  0
  2  1  1  6
  2  3  1  0
  2  4  1  0
  4  5  1  0
  4  6  1  1
  3  7  1  0
  5  8  1  1
  5  9  1  0
  6 10  1  0
  7 10  1  0
 11  9  1  1
 11 12  1  0
 11 13  1  0
 12 14  1  6
 12 15  1  0
 13 16  1  0
 14 17  1  0
 15 18  1  6
 15 19  1  0
 16 19  1  0
 17 20  1  6
 17 21  1  0
M  CHG  1  20  -1
M  END
