ucsf017-ucsf348
     RDKit          3D

 25 29  0  0  0  0  0  0  0  0999 V2000
   -6.9990   14.0320    2.5650 N   0  0  0  0  0  0  0  0  0  0  0  0
   -6.1580   14.6410    1.5970 C   0  0  1  0  0  0  0  0  0  0  0  0
   -4.9660   13.8310    1.4230 N   0  0  0  0  0  0  0  0  0  0  0  0
   -6.9780   14.7550    0.4320 N   0  0  0  0  0  0  0  0  0  0  0  0
   -4.0820   14.6340    0.5940 N   0  0  0  0  0  0  0  0  0  0  0  0
   -6.2940   14.3200   -0.7540 C   0  0  1  0  0  0  0  0  0  0  0  0
   -6.9010   14.9320   -1.8800 O   0  0  0  0  0  0  0  0  0  0  0  0
   -2.6490   14.2910    0.4230 C   0  0  2  0  0  0  0  0  0  0  0  0
   -4.7410   14.5480   -0.7220 C   0  0  1  0  0  0  0  0  0  0  0  0
   -1.7660   14.9400    1.3920 N   0  0  0  0  0  0  0  0  0  0  0  0
   -2.2110   14.5560   -1.0280 C   0  0  2  0  0  0  0  0  0  0  0  0
   -4.3650   15.7240   -1.5320 C   0  0  0  0  0  0  0  0  0  0  0  0
   -0.3730   14.5410    1.2630 C   0  0  0  0  0  0  0  0  0  0  0  0
   -0.6880   14.5120   -1.1420 C   0  0  2  0  0  0  0  0  0  0  0  0
   -2.8720   15.8620   -1.4210 C   0  0  0  0  0  0  0  0  0  0  0  0
   -0.0790   13.8350   -2.2830 N   0  0  0  0  0  0  0  0  0  0  0  0
   -0.1540   13.8420    0.0240 N   0  0  0  0  0  0  0  0  0  0  0  0
   -0.6160   14.0370   -3.6500 C   0  0  2  0  0  0  0  0  0  0  0  0
    0.7800   12.6720   -2.0960 C   0  0  0  0  0  0  0  0  0  0  0  0
   -1.8820   14.8290   -4.0200 C   0  0  0  0  0  0  0  0  0  0  0  0
   -1.0190   12.7640   -4.3670 C   0  0  1  0  0  0  0  0  0  0  0  0
    0.2070   11.4060   -2.7460 C   0  0  0  0  0  0  0  0  0  0  0  0
   -1.2910   13.3460   -5.7240 C   0  0  0  0  0  0  0  0  0  0  0  0
   -2.1470   14.4670   -5.4090 O   0  0  0  0  0  0  0  0  0  0  0  0
   -0.0250   11.6360   -4.2350 C   0  0  0  0  0  0  0  0  0  0  0  0
  2  1  1  1
  2  3  1  0
  2  4  1  0
  3  5  1  0
  4  6  1  0
  6  7  1  6
  5  8  1  0
  5  9  1  0
  6  9  1  0
  8 10  1  1
  8 11  1  0
  9 12  1  1
 10 13  1  0
 11 14  1  0
 11 15  1  1
 12 15  1  0
 14 16  1  6
 13 17  1  0
 14 17  1  0
 16 18  1  0
 16 19  1  0
 18 20  1  1
 18 21  1  0
 19 22  1  0
 21 23  1  6
 20 24  1  0
 23 24  1  0
 21 25  1  0
 22 25  1  0
M  END
