ucsf013-ucsf333
     RDKit          3D

 21 23  0  0  0  0  0  0  0  0999 V2000
   -3.6930   14.4720    1.5390 N   0  0  0  0  0  0  0  0  0  0  0  0
   -4.9370   15.0310    1.1080 C   0  0  2  0  0  0  0  0  0  0  0  0
   -5.9160   14.0100    1.3230 N   0  0  0  0  0  0  0  0  0  0  0  0
   -4.9130   15.6650   -0.2800 C   0  0  2  0  0  0  0  0  0  0  0  0
   -6.1100   15.2020   -1.0890 C   0  0  2  0  0  0  0  0  0  0  0  0
   -7.2730   14.3790    0.9830 C   0  0  0  0  0  0  0  0  0  0  0  0
   -3.5630   15.6230   -0.9870 C   0  0  0  0  0  0  0  0  0  0  0  0
   -7.3640   14.9490   -0.3370 N   0  0  0  0  0  0  0  0  0  0  0  0
   -5.8050   14.1270   -2.1240 C   0  0  1  0  0  0  0  0  0  0  0  0
   -3.1800   14.5420   -1.9740 C   0  0  1  0  0  0  0  0  0  0  0  0
   -7.0770   14.3440   -3.3400 Cl  0  0  0  0  0  0  0  0  0  0  0  0
   -4.4160   14.0930   -2.7760 C   0  0  0  0  0  0  0  0  0  0  0  0
   -2.2450   15.0420   -3.0510 N   0  0  0  0  0  0  0  0  0  0  0  0
   -2.3670   13.5070   -1.1620 C   0  0  0  0  0  0  0  0  0  0  0  0
   -1.0220   14.2550   -2.9730 C   0  0  2  0  0  0  0  0  0  0  0  0
   -0.6810   14.1590   -1.2080 S   0  0  0  0  0  0  0  0  0  0  0  0
    0.1760   14.5250   -3.8990 C   0  0  0  0  0  0  0  0  0  0  0  0
    1.0290   13.2510   -4.0650 C   0  0  0  0  0  0  0  0  0  0  0  0
    0.9400   12.3260   -2.8360 C   0  0  2  0  0  0  0  0  0  0  0  0
    2.0790   12.3240   -2.2210 O   0  0  0  0  0  0  0  0  0  0  0  0
    0.6910   10.9780   -3.1340 O   0  0  0  0  0  0  0  0  0  0  0  0
  2  1  1  6
  2  3  1  0
  2  4  1  0
  4  5  1  0
  3  6  1  0
  4  7  1  6
  5  8  1  1
  6  8  1  0
  5  9  1  0
 10  7  1  1
  9 11  1  6
  9 12  1  0
 10 12  1  0
 10 13  1  0
 10 14  1  0
 13 15  1  0
 14 16  1  0
 15 16  1  0
 15 17  1  6
 17 18  1  0
 18 19  1  0
 19 20  1  6
 19 21  1  0
M  CHG  1  20  -1
M  END
