ucsf241-ucsf487
     RDKit          3D

 15 17  0  0  0  0  0  0  0  0999 V2000
   -7.3990   13.5820    2.5660 N   0  0  0  0  0  0  0  0  0  0  0  0
   -6.7680   14.4110    1.5420 C   0  0  2  0  0  0  0  0  0  0  0  0
   -7.7020   14.6910    0.3380 C   0  0  0  0  0  0  0  0  0  0  0  0
   -5.4270   13.8480    1.0350 C   0  0  0  0  0  0  0  0  0  0  0  0
   -4.6930   14.7930    0.0200 C   0  0  2  0  0  0  0  0  0  0  0  0
   -7.0480   14.9120   -0.9620 N   0  0  0  0  0  0  0  0  0  0  0  0
   -3.7810   14.0380   -0.9820 C   0  0  0  0  0  0  0  0  0  0  0  0
   -3.7070   15.6270    0.7410 N   0  0  0  0  0  0  0  0  0  0  0  0
   -5.7180   15.5710   -0.8640 C   0  0  0  0  0  0  0  0  0  0  0  0
   -2.3800   14.0500   -0.3930 C   0  0  2  0  0  0  0  0  0  0  0  0
   -2.5860   14.7330    0.9280 C   0  0  1  0  0  0  0  0  0  0  0  0
   -1.3290   14.7630   -1.2340 C   0  0  0  0  0  0  0  0  0  0  0  0
   -1.4100   15.3960    1.3770 N   0  0  0  0  0  0  0  0  0  0  0  0
    0.0150   14.6280   -0.5360 C   0  0  0  0  0  0  0  0  0  0  0  0
   -0.1490   14.7760    0.9710 C   0  0  0  0  0  0  0  0  0  0  0  0
  2  1  1  1
  2  3  1  0
  2  4  1  0
  5  4  1  1
  3  6  1  0
  5  7  1  0
  5  8  1  0
  5  9  1  0
  6  9  1  0
 10  7  1  6
 11  8  1  6
 10 11  1  0
 10 12  1  0
 11 13  1  0
 12 14  1  0
 13 15  1  0
 14 15  1  0
M  END
