ucsf017-ucsf357
     RDKit          3D

 23 26  0  0  0  0  0  0  0  0999 V2000
   -5.6210   15.2370   -2.2950 O   0  0  0  0  0  0  0  0  0  0  0  0
   -5.3370   14.7090   -1.1210 C   0  0  2  0  0  0  0  0  0  0  0  0
   -6.4130   15.0730   -0.2350 O   0  0  0  0  0  0  0  0  0  0  0  0
   -4.0500   15.3780   -0.5900 C   0  0  1  0  0  0  0  0  0  0  0  0
   -3.5950   14.8790    0.7260 N   0  0  0  0  0  0  0  0  0  0  0  0
   -2.8310   15.2490   -1.5490 C   0  0  2  0  0  0  0  0  0  0  0  0
   -2.6780   16.2840   -2.4840 O   0  0  0  0  0  0  0  0  0  0  0  0
   -2.8090   14.1040   -2.2690 F   0  0  0  0  0  0  0  0  0  0  0  0
   -2.2000   15.2750    0.7580 C   0  0  2  0  0  0  0  0  0  0  0  0
   -1.6360   15.3300   -0.6620 C   0  0  1  0  0  0  0  0  0  0  0  0
   -1.5830   14.3420    1.6310 N   0  0  0  0  0  0  0  0  0  0  0  0
   -0.4420   14.4120   -0.9580 C   0  0  2  0  0  0  0  0  0  0  0  0
   -0.4630   13.4960   -2.1150 N   0  0  0  0  0  0  0  0  0  0  0  0
    0.1020   13.6730    0.1740 N   0  0  0  0  0  0  0  0  0  0  0  0
   -0.1760   14.3100    1.4110 C   0  0  0  0  0  0  0  0  0  0  0  0
   -0.5500   14.0200   -3.4980 C   0  0  2  0  0  0  0  0  0  0  0  0
    0.5870   12.5110   -2.0780 C   0  0  0  0  0  0  0  0  0  0  0  0
   -1.9400   14.3560   -4.0640 C   0  0  0  0  0  0  0  0  0  0  0  0
   -0.0380   13.0010   -4.5270 C   0  0  2  0  0  0  0  0  0  0  0  0
    0.0460   11.2500   -2.7610 C   0  0  0  0  0  0  0  0  0  0  0  0
   -0.6680   13.4820   -5.7910 C   0  0  0  0  0  0  0  0  0  0  0  0
   -1.9570   14.0180   -5.4600 O   0  0  0  0  0  0  0  0  0  0  0  0
   -0.4100   11.5580   -4.1840 C   0  0  0  0  0  0  0  0  0  0  0  0
  2  1  1  6
  2  3  1  0
  2  4  1  0
  4  5  1  1
  4  6  1  0
  6  7  1  6
  6  8  1  0
  9  5  1  6
  6 10  1  0
  9 10  1  0
  9 11  1  0
 10 12  1  6
 12 13  1  6
 12 14  1  0
 11 15  1  0
 14 15  1  0
 13 16  1  0
 13 17  1  0
 16 18  1  6
 16 19  1  0
 17 20  1  0
 19 21  1  6
 18 22  1  0
 21 22  1  0
 19 23  1  0
 20 23  1  0
M  CHG  1   1  -1
M  END
