ucsf340-ucsf333
     RDKit          3D

 24 27  0  0  0  0  0  0  0  0999 V2000
    0.6620   18.5690   -5.6530 C   0  0  0  0  0  0  0  0  0  0  0  0
    0.3060   17.2210   -5.2980 N   0  0  0  0  0  0  0  0  0  0  0  0
    0.7580   16.6900   -4.0000 C   0  0  0  0  0  0  0  0  0  0  0  0
   -1.0860   16.9220   -5.0860 C   0  0  2  0  0  0  0  0  0  0  0  0
    0.2380   15.2280   -4.1290 C   0  0  2  0  0  0  0  0  0  0  0  0
   -0.8300   15.4330   -5.1730 C   0  0  1  0  0  0  0  0  0  0  0  0
   -2.1240   17.4140   -6.0590 C   0  0  0  0  0  0  0  0  0  0  0  0
   -2.0260   14.4740   -5.3870 C   0  0  0  0  0  0  0  0  0  0  0  0
   -3.3430   16.5080   -5.8900 C   0  0  0  0  0  0  0  0  0  0  0  0
   -0.2130   14.3110   -2.9860 C   0  0  2  0  0  0  0  0  0  0  0  0
   -3.1960   15.0560   -6.1790 C   0  0  0  0  0  0  0  0  0  0  0  0
   -1.6570   14.2250   -3.2040 N   0  0  0  0  0  0  0  0  0  0  0  0
   -0.0480   15.0640   -1.2730 S   0  0  0  0  0  0  0  0  0  0  0  0
    0.4590   12.8920   -3.0650 C   0  0  0  0  0  0  0  0  0  0  0  0
   -2.4800   14.2370   -2.0230 C   0  0  1  0  0  0  0  0  0  0  0  0
   -1.7280   14.6220   -0.7430 C   0  0  2  0  0  0  0  0  0  0  0  0
   -0.1130   11.8240   -2.1300 C   0  0  2  0  0  0  0  0  0  0  0  0
   -3.7180   15.1140   -2.2670 C   0  0  0  0  0  0  0  0  0  0  0  0
   -2.4640   15.7140    0.0220 C   0  0  0  0  0  0  0  0  0  0  0  0
    0.3320   12.3120   -0.9030 O   0  0  0  0  0  0  0  0  0  0  0  0
    0.4860   10.6470   -2.1960 O   0  0  0  0  0  0  0  0  0  0  0  0
   -4.6430   14.9140   -1.0870 C   0  0  1  0  0  0  0  0  0  0  0  0
   -3.9770   15.4490    0.1910 C   0  0  0  0  0  0  0  0  0  0  0  0
   -6.2680   15.5970   -1.3550 Cl  0  0  0  0  0  0  0  0  0  0  0  0
  1  2  1  0
  2  3  1  0
  2  4  1  0
  5  3  1  1
  4  6  1  0
  5  6  1  0
  4  7  1  6
  6  8  1  1
  7  9  1  0
  5 10  1  0
  8 11  1  0
  9 11  1  0
 10 12  1  0
 10 13  1  0
 10 14  1  1
 12 15  1  0
 13 16  1  0
 15 16  1  0
 14 17  1  0
 15 18  1  6
 16 19  1  6
 17 20  1  1
 17 21  1  0
 18 22  1  0
 19 23  1  0
 22 23  1  0
 22 24  1  6
M  CHG  1  21  -1
M  END
