ucsf123-ucsf519
     RDKit          3D

 26 27  0  0  0  0  0  0  0  0999 V2000
   -1.6390   18.9760   -5.0290 N   0  0  0  0  0  0  0  0  0  0  0  0
   -1.1530   17.6770   -5.8940 S   0  0  0  0  0  0  0  0  0  0  0  0
   -0.1170   18.1450   -7.0300 O   0  0  0  0  0  0  0  0  0  0  0  0
   -2.4280   17.1270   -6.6810 O   0  0  0  0  0  0  0  0  0  0  0  0
   -0.3810   16.2730   -5.0850 C   0  0  1  0  0  0  0  0  0  0  0  0
    0.8210   16.6060   -4.2150 C   0  0  0  0  0  0  0  0  0  0  0  0
   -1.3750   15.4010   -4.3400 C   0  0  0  0  0  0  0  0  0  0  0  0
    1.5000   15.3070   -3.7390 C   0  0  0  0  0  0  0  0  0  0  0  0
   -0.7270   14.2120   -3.5910 C   0  0  0  0  0  0  0  0  0  0  0  0
    0.5670   14.4890   -2.8200 C   0  0  1  0  0  0  0  0  0  0  0  0
    1.1730   13.1980   -2.0960 C   0  0  1  0  0  0  0  0  0  0  0  0
    0.6130   13.1560   -0.7750 O   0  0  0  0  0  0  0  0  0  0  0  0
    0.8720   11.8420   -2.6420 N   0  0  0  0  0  0  0  0  0  0  0  0
    0.1700   11.8500   -3.9450 C   0  0  0  0  0  0  0  0  0  0  0  0
    0.1000   11.0570   -1.6790 O   0  0  0  0  0  0  0  0  0  0  0  0
   -1.6650   11.9660   -3.7440 S   0  0  0  0  0  0  0  0  0  0  0  0
   -1.8890   13.7840   -4.0440 C   0  0  1  0  0  0  0  0  0  0  0  0
   -1.7540   13.9730   -5.5680 C   0  0  0  0  0  0  0  0  0  0  0  0
   -3.2010   14.4420   -3.4210 C   0  0  1  0  0  0  0  0  0  0  0  0
   -4.2000   13.4300   -3.4730 O   0  0  0  0  0  0  0  0  0  0  0  0
   -3.0920   15.0570   -2.0640 N   0  0  0  0  0  0  0  0  0  0  0  0
   -4.3910   15.2480   -1.4110 C   0  0  0  0  0  0  0  0  0  0  0  0
   -2.2850   14.3830   -1.0500 C   0  0  1  0  0  0  0  0  0  0  0  0
   -0.9980   14.8810   -0.8200 O   0  0  0  0  0  0  0  0  0  0  0  0
   -4.0740   15.3870    0.0570 C   0  0  0  0  0  0  0  0  0  0  0  0
   -2.9460   14.4830    0.2370 N   0  0  0  0  0  0  0  0  0  0  0  0
  1  2  1  0
  2  3  1  0
  2  4  1  0
  5  2  1  1
  5  6  1  0
  5  7  1  0
  6  8  1  0
  7  9  1  0
 10  8  1  6
  9 10  1  0
 10 11  1  0
 11 12  1  1
 11 13  1  0
 13 14  1  0
 13 15  1  0
 14 16  1  0
 16 17  1  0
 17 18  1  6
 17 19  1  0
 19 20  1  1
 19 21  1  0
 21 22  1  0
 21 23  1  0
 23 24  1  1
 22 25  1  0
 23 26  1  0
 25 26  1  0
M  CHG  1  15  -1
M  END
