ucsf147-ucsf258
     RDKit          3D

 16 17  0  0  0  0  0  0  0  0999 V2000
    1.5340   13.3370   -5.2800 C   0  0  0  0  0  0  0  0  0  0  0  0
    0.1500   12.8720   -4.8660 C   0  0  2  0  0  0  0  0  0  0  0  0
   -0.8210   13.6140   -5.6500 O   0  0  0  0  0  0  0  0  0  0  0  0
   -0.3110   12.9770   -3.4090 C   0  0  1  0  0  0  0  0  0  0  0  0
    0.5790   13.6440   -2.3260 C   0  0  2  0  0  0  0  0  0  0  0  0
   -1.8360   14.1600   -4.7430 N   0  0  0  0  0  0  0  0  0  0  0  0
   -1.8290   13.2440   -3.5800 C   0  0  2  0  0  0  0  0  0  0  0  0
    0.3630   13.0910   -1.0380 O   0  0  0  0  0  0  0  0  0  0  0  0
    0.2900   14.9160   -2.1520 O   0  0  0  0  0  0  0  0  0  0  0  0
   -2.7610   13.7360   -2.4160 C   0  0  1  0  0  0  0  0  0  0  0  0
   -2.1220   14.3470   -1.1380 C   0  0  0  0  0  0  0  0  0  0  0  0
   -3.7780   14.7360   -2.9760 C   0  0  2  0  0  0  0  0  0  0  0  0
   -3.1910   15.5520   -3.9750 O   0  0  0  0  0  0  0  0  0  0  0  0
   -3.1070   14.6940   -0.0040 C   0  0  0  0  0  0  0  0  0  0  0  0
   -4.4210   15.6100   -1.9010 C   0  0  0  0  0  0  0  0  0  0  0  0
   -4.4960   15.0350   -0.5070 C   0  0  0  0  0  0  0  0  0  0  0  0
  2  1  1  1
  2  3  1  0
  2  4  1  0
  4  5  1  6
  3  6  1  0
  4  7  1  0
  7  6  1  6
  5  8  1  1
  5  9  1  0
  7 10  1  0
 10 11  1  1
 10 12  1  0
 12 13  1  6
 11 14  1  0
 12 15  1  0
 14 16  1  0
 15 16  1  0
M  CHG  1   9  -1
M  END
