ucsf264-ucsf422
     RDKit          3D

 27 30  0  0  0  0  0  0  0  0999 V2000
    0.9030   12.7180   -2.1330 O   0  0  0  0  0  0  0  0  0  0  0  0
    1.2080   12.0750   -3.2390 C   0  0  1  0  0  0  0  0  0  0  0  0
    0.6710   10.8190   -2.8600 O   0  0  0  0  0  0  0  0  0  0  0  0
    0.4180   12.6130   -4.4960 C   0  0  2  0  0  0  0  0  0  0  0  0
    0.2250   11.7240   -5.7410 N   0  0  0  0  0  0  0  0  0  0  0  0
    0.7520   14.0760   -4.8910 C   0  0  2  0  0  0  0  0  0  0  0  0
    1.1660   11.7100   -6.9150 N   0  0  0  0  0  0  0  0  0  0  0  0
   -1.1190   11.3860   -6.1950 C   0  0  1  0  0  0  0  0  0  0  0  0
    1.8710   14.8050   -4.1440 C   0  0  0  0  0  0  0  0  0  0  0  0
   -0.3050   15.0810   -4.5620 C   0  0  1  0  0  0  0  0  0  0  0  0
    0.6270   10.5620   -7.7120 C   0  0  1  0  0  0  0  0  0  0  0  0
   -0.8820   10.6340   -7.5420 C   0  0  1  0  0  0  0  0  0  0  0  0
   -1.9710   10.6090   -5.1850 C   0  0  0  0  0  0  0  0  0  0  0  0
    1.6080   16.2700   -4.3800 N   0  0  0  0  0  0  0  0  0  0  0  0
    0.3680   16.2890   -5.1570 C   0  0  2  0  0  0  0  0  0  0  0  0
   -1.6810   14.7440   -5.0540 C   0  0  0  0  0  0  0  0  0  0  0  0
    0.9770   10.3030   -9.2000 C   0  0  0  0  0  0  0  0  0  0  0  0
   -1.4250    9.1820   -7.7130 C   0  0  0  0  0  0  0  0  0  0  0  0
   -2.9520    9.6420   -5.8080 C   0  0  0  0  0  0  0  0  0  0  0  0
   -0.4860   17.5480   -5.1080 C   0  0  0  0  0  0  0  0  0  0  0  0
   -2.5640   15.9710   -5.0470 C   0  0  2  0  0  0  0  0  0  0  0  0
    1.6950    9.1560   -9.2990 F   0  0  0  0  0  0  0  0  0  0  0  0
   -0.0970   10.1330   -9.9820 F   0  0  0  0  0  0  0  0  0  0  0  0
    1.6800   11.2640   -9.8070 F   0  0  0  0  0  0  0  0  0  0  0  0
   -4.0990   15.4030   -6.1170 Br  0  0  0  0  0  0  0  0  0  0  0  0
   -2.1590    8.5820   -6.5290 C   0  0  0  0  0  0  0  0  0  0  0  0
   -1.9250   17.2690   -5.5910 C   0  0  0  0  0  0  0  0  0  0  0  0
  2  1  1  1
  2  3  1  0
  2  4  1  0
  4  5  1  6
  4  6  1  0
  5  7  1  0
  5  8  1  0
  6  9  1  1
  6 10  1  0
  7 11  1  0
  8 12  1  0
 11 12  1  0
  8 13  1  1
  9 14  1  0
 10 15  1  0
 14 15  1  0
 10 16  1  6
 11 17  1  6
 12 18  1  1
 13 19  1  0
 15 20  1  1
 16 21  1  0
 17 22  1  0
 17 23  1  0
 17 24  1  0
 21 25  1  6
 18 26  1  0
 19 26  1  0
 20 27  1  0
 21 27  1  0
M  CHG  1   1  -1
M  END
