ucsf345-ucsf124
     RDKit          3D

 26 28  0  0  0  0  0  0  0  0999 V2000
   -6.7350   14.7220    1.5050 N   0  0  0  0  0  0  0  0  0  0  0  0
   -6.8450   14.7990    0.0640 C   0  0  2  0  0  0  0  0  0  0  0  0
   -7.8600   13.8900   -0.2830 O   0  0  0  0  0  0  0  0  0  0  0  0
   -5.5360   14.5140   -0.7160 C   0  0  1  0  0  0  0  0  0  0  0  0
   -5.6500   15.0580   -2.0900 N   0  0  0  0  0  0  0  0  0  0  0  0
   -4.2480   15.0150    0.0180 C   0  0  0  0  0  0  0  0  0  0  0  0
   -4.3460   14.9150   -2.7430 C   0  0  0  0  0  0  0  0  0  0  0  0
   -2.9930   14.7110   -0.7010 N   0  0  0  0  0  0  0  0  0  0  0  0
   -3.3830   14.0160   -1.9400 C   0  0  2  0  0  0  0  0  0  0  0  0
   -2.2040   13.4540   -2.7610 C   0  0  0  0  0  0  0  0  0  0  0  0
   -2.7070   12.5020   -3.8600 C   0  0  0  0  0  0  0  0  0  0  0  0
   -1.8380   11.3820   -4.0640 O   0  0  0  0  0  0  0  0  0  0  0  0
   -1.2190   11.4710   -5.3420 C   0  0  1  0  0  0  0  0  0  0  0  0
    0.2150   11.6600   -5.2620 N   0  0  0  0  0  0  0  0  0  0  0  0
   -1.1630   10.1450   -6.1120 C   0  0  2  0  0  0  0  0  0  0  0  0
    0.6830   12.7540   -4.3870 C   0  0  0  0  0  0  0  0  0  0  0  0
   -0.3480   10.6080   -7.3010 C   0  0  1  0  0  0  0  0  0  0  0  0
    0.5580   11.6750   -6.6680 C   0  0  2  0  0  0  0  0  0  0  0  0
   -2.4170    9.4560   -6.6130 C   0  0  0  0  0  0  0  0  0  0  0  0
    1.3720   12.3190   -3.0400 C   0  0  2  0  0  0  0  0  0  0  0  0
    1.8890   11.6010   -7.0130 O   0  0  0  0  0  0  0  0  0  0  0  0
   -2.0630    8.2680   -7.5440 C   0  0  0  0  0  0  0  0  0  0  0  0
    0.2280    9.4060   -8.0320 C   0  0  0  0  0  0  0  0  0  0  0  0
    0.7710   11.2480   -2.5500 O   0  0  0  0  0  0  0  0  0  0  0  0
    1.0990   13.2600   -2.0250 O   0  0  0  0  0  0  0  0  0  0  0  0
   -0.9270    8.5280   -8.5610 C   0  0  0  0  0  0  0  0  0  0  0  0
  2  1  1  1
  2  3  1  0
  2  4  1  0
  4  5  1  0
  4  6  1  1
  5  7  1  0
  6  8  1  0
  7  9  1  0
  8  9  1  0
  9 10  1  6
 10 11  1  0
 11 12  1  0
 13 12  1  1
 13 14  1  0
 13 15  1  0
 14 16  1  0
 15 17  1  0
 14 18  1  0
 17 18  1  0
 15 19  1  6
 16 20  1  0
 18 21  1  1
 19 22  1  0
 17 23  1  1
 20 24  1  1
 20 25  1  0
 22 26  1  0
 23 26  1  0
M  CHG  1  24  -1
M  END
