ucsf442-ucsf493
     RDKit          3D

 27 30  0  0  0  0  0  0  0  0999 V2000
   -0.2430   15.4050    0.7510 O   0  0  0  0  0  0  0  0  0  0  0  0
   -1.4220   14.7720    0.3570 C   0  0  2  0  0  0  0  0  0  0  0  0
   -1.7510   15.3000   -0.9490 N   0  0  0  0  0  0  0  0  0  0  0  0
   -2.4210   15.1400    1.3320 N   0  0  0  0  0  0  0  0  0  0  0  0
   -3.7120   14.7100    0.8960 C   0  0  2  0  0  0  0  0  0  0  0  0
   -3.1140   14.9870   -1.4200 C   0  0  2  0  0  0  0  0  0  0  0  0
   -3.3690   15.7690   -2.5660 O   0  0  0  0  0  0  0  0  0  0  0  0
   -4.1840   15.3290   -0.3830 C   0  0  1  0  0  0  0  0  0  0  0  0
   -4.7880   15.1740    1.7180 N   0  0  0  0  0  0  0  0  0  0  0  0
   -4.0510   15.1290   -3.6390 C   0  0  0  0  0  0  0  0  0  0  0  0
   -5.5670   14.8230   -0.4580 N   0  0  0  0  0  0  0  0  0  0  0  0
   -5.8930   14.6130    0.9600 C   0  0  0  0  0  0  0  0  0  0  0  0
   -3.7000   15.8140   -4.8890 N   0  0  0  0  0  0  0  0  0  0  0  0
   -4.1690   15.0820   -6.0640 C   0  0  0  0  0  0  0  0  0  0  0  0
   -2.2730   16.0350   -4.7890 C   0  0  1  0  0  0  0  0  0  0  0  0
   -1.4430   14.7800   -4.9000 C   0  0  0  0  0  0  0  0  0  0  0  0
   -1.6770   17.2490   -5.5270 C   0  0  0  0  0  0  0  0  0  0  0  0
   -0.2750   15.0550   -4.0090 C   0  0  2  0  0  0  0  0  0  0  0  0
   -0.1470   17.3470   -5.3570 C   0  0  0  0  0  0  0  0  0  0  0  0
    0.4950   16.3340   -4.3830 C   0  0  2  0  0  0  0  0  0  0  0  0
    0.7740   13.9580   -3.7680 C   0  0  1  0  0  0  0  0  0  0  0  0
    0.3770   12.4630   -3.9440 C   0  0  0  0  0  0  0  0  0  0  0  0
    1.7330   15.8320   -4.9350 N   0  0  0  0  0  0  0  0  0  0  0  0
    1.7790   14.3630   -4.8170 C   0  0  0  0  0  0  0  0  0  0  0  0
   -0.0390   11.7310   -2.6170 C   0  0  1  0  0  0  0  0  0  0  0  0
    0.4720   10.4150   -2.5630 O   0  0  0  0  0  0  0  0  0  0  0  0
    0.5370   12.2440   -1.5490 O   0  0  0  0  0  0  0  0  0  0  0  0
  2  1  1  1
  2  3  1  0
  2  4  1  0
  5  4  1  1
  3  6  1  0
  6  7  1  6
  5  8  1  0
  6  8  1  0
  5  9  1  0
  7 10  1  0
  8 11  1  6
  9 12  1  0
 11 12  1  0
 10 13  1  0
 13 14  1  0
 15 13  1  6
 15 16  1  0
 15 17  1  0
 18 16  1  6
 17 19  1  0
 18 20  1  0
 20 19  1  6
 18 21  1  0
 21 22  1  6
 20 23  1  0
 21 24  1  0
 23 24  1  0
 22 25  1  0
 25 26  1  6
 25 27  1  0
M  CHG  1  27  -1
M  END
