ucsf115-ucsf260
     RDKit          3D

 30 34  0  0  0  0  0  0  0  0999 V2000
   -2.1780   14.6590   -3.4130 C   0  0  0  0  0  0  0  0  0  0  0  0
   -1.3500   15.5930   -2.6260 N   0  0  0  0  0  0  0  0  0  0  0  0
   -1.5110   15.5850   -1.1620 C   0  0  2  0  0  0  0  0  0  0  0  0
   -2.1050   13.2660   -2.7870 C   0  0  1  0  0  0  0  0  0  0  0  0
   -2.0880   12.2150   -3.7740 O   0  0  0  0  0  0  0  0  0  0  0  0
   -0.8890   13.0880   -1.9200 C   0  0  0  0  0  0  0  0  0  0  0  0
   -0.4670   11.7110   -2.2640 C   0  0  1  0  0  0  0  0  0  0  0  0
   -1.5740   11.0990   -3.0610 C   0  0  0  0  0  0  0  0  0  0  0  0
   -0.6360   14.5570   -0.6010 N   0  0  0  0  0  0  0  0  0  0  0  0
   -2.9050   15.4840   -0.4980 C   0  0  2  0  0  0  0  0  0  0  0  0
    0.7970   11.5410   -2.9490 C   0  0  2  0  0  0  0  0  0  0  0  0
   -0.4810   14.5920    0.8510 C   0  0  0  0  0  0  0  0  0  0  0  0
   -2.8350   14.5740    0.6940 C   0  0  1  0  0  0  0  0  0  0  0  0
   -4.1570   15.0130   -1.1080 N   0  0  0  0  0  0  0  0  0  0  0  0
    0.9610   10.2740   -2.6420 O   0  0  0  0  0  0  0  0  0  0  0  0
    1.7580   12.2790   -2.2070 O   0  0  0  0  0  0  0  0  0  0  0  0
    0.9850   11.9560   -4.4470 C   0  0  0  0  0  0  0  0  0  0  0  0
   -1.7280   14.9180    1.5310 N   0  0  0  0  0  0  0  0  0  0  0  0
   -4.1060   14.9760    1.2520 N   0  0  0  0  0  0  0  0  0  0  0  0
   -4.9800   14.7890    0.0910 C   0  0  0  0  0  0  0  0  0  0  0  0
    0.1260   12.9570   -5.2290 C   0  0  0  0  0  0  0  0  0  0  0  0
   -0.8140   12.4360   -6.2180 N   0  0  0  0  0  0  0  0  0  0  0  0
   -2.1590   12.2290   -5.7580 C   0  0  0  0  0  0  0  0  0  0  0  0
   -0.5690   11.2860   -7.0670 C   0  0  2  0  0  0  0  0  0  0  0  0
   -2.3330   10.7710   -5.5590 N   0  0  0  0  0  0  0  0  0  0  0  0
   -1.1550   10.1690   -6.2110 C   0  0  1  0  0  0  0  0  0  0  0  0
    0.7600   10.8680   -7.6850 C   0  0  0  0  0  0  0  0  0  0  0  0
   -1.4390    8.9580   -7.0810 C   0  0  0  0  0  0  0  0  0  0  0  0
    0.7510    9.4650   -8.3360 C   0  0  0  0  0  0  0  0  0  0  0  0
   -0.1430    8.4100   -7.6770 C   0  0  0  0  0  0  0  0  0  0  0  0
  1  2  1  0
  3  2  1  6
  4  1  1  6
  4  5  1  0
  4  6  1  0
  7  6  1  6
  5  8  1  0
  7  8  1  0
  3  9  1  0
  3 10  1  0
  7 11  1  0
  9 12  1  0
 10 13  1  0
 10 14  1  6
 11 15  1  6
 11 16  1  0
 11 17  1  0
 12 18  1  0
 13 18  1  1
 13 19  1  0
 14 20  1  0
 19 20  1  0
 17 21  1  0
 21 22  1  0
 22 23  1  0
 22 24  1  0
 23 25  1  0
 24 26  1  0
 25 26  1  0
 24 27  1  1
 26 28  1  6
 27 29  1  0
 28 30  1  0
 29 30  1  0
M  CHG  1  15  -1
M  END
