ucsf274-ucsf387
     RDKit          3D

 24 26  0  0  0  0  0  0  0  0999 V2000
    1.0340   11.3460   -2.5220 O   0  0  0  0  0  0  0  0  0  0  0  0
    1.2300   12.6460   -2.5710 C   0  0  2  0  0  0  0  0  0  0  0  0
    0.6500   13.0060   -1.3310 O   0  0  0  0  0  0  0  0  0  0  0  0
    0.4420   13.2160   -3.8000 C   0  0  2  0  0  0  0  0  0  0  0  0
    0.7600   12.4220   -5.0600 C   0  0  0  0  0  0  0  0  0  0  0  0
    0.3880   14.6740   -4.3820 C   0  0  0  0  0  0  0  0  0  0  0  0
   -0.4940   11.9210   -5.7650 C   0  0  2  0  0  0  0  0  0  0  0  0
   -1.0310   14.7700   -4.9600 C   0  0  0  0  0  0  0  0  0  0  0  0
    0.8900   15.8580   -3.5320 C   0  0  0  0  0  0  0  0  0  0  0  0
   -1.5040   11.2420   -4.7560 C   0  0  1  0  0  0  0  0  0  0  0  0
   -0.0400   11.0530   -6.8940 N   0  0  0  0  0  0  0  0  0  0  0  0
   -1.5170   16.1650   -5.2220 C   0  0  1  0  0  0  0  0  0  0  0  0
    0.2150   17.2050   -3.8460 C   0  0  1  0  0  0  0  0  0  0  0  0
   -2.2880   12.2630   -4.1390 O   0  0  0  0  0  0  0  0  0  0  0  0
    0.8960   18.0180   -5.2860 Cl  0  0  0  0  0  0  0  0  0  0  0  0
   -3.2330   16.0640   -5.6960 Cl  0  0  0  0  0  0  0  0  0  0  0  0
   -2.4380   10.2750   -5.3020 N   0  0  0  0  0  0  0  0  0  0  0  0
   -0.8890    9.9150   -7.2310 C   0  0  2  0  0  0  0  0  0  0  0  0
   -1.2780   17.0630   -4.0530 C   0  0  0  0  0  0  0  0  0  0  0  0
   -1.7060    9.2930   -6.0790 C   0  0  2  0  0  0  0  0  0  0  0  0
   -0.0490    8.8520   -7.9430 C   0  0  0  0  0  0  0  0  0  0  0  0
   -0.8290    7.5710   -8.2290 C   0  0  0  0  0  0  0  0  0  0  0  0
   -2.6720    8.2220   -6.5950 C   0  0  0  0  0  0  0  0  0  0  0  0
   -2.3260    7.7270   -8.0010 C   0  0  0  0  0  0  0  0  0  0  0  0
  2  1  1  6
  2  3  1  0
  2  4  1  0
  4  5  1  6
  4  6  1  0
  7  5  1  1
  6  8  1  0
  6  9  1  0
  7 10  1  0
  7 11  1  0
  8 12  1  0
  9 13  1  0
 10 14  1  6
 13 15  1  6
 12 16  1  1
 10 17  1  0
 11 18  1  0
 12 19  1  0
 13 19  1  0
 17 20  1  0
 18 20  1  0
 18 21  1  1
 21 22  1  0
 20 23  1  6
 22 24  1  0
 23 24  1  0
M  CHG  1   1  -1
M  END
