ucsf442-ucsf340
     RDKit          3D

 27 30  0  0  0  0  0  0  0  0999 V2000
   -0.3650   15.6260    0.5440 O   0  0  0  0  0  0  0  0  0  0  0  0
   -1.3960   14.6940    0.6290 C   0  0  2  0  0  0  0  0  0  0  0  0
   -1.8530   14.4370   -0.7110 N   0  0  0  0  0  0  0  0  0  0  0  0
   -2.4200   15.2790    1.4420 N   0  0  0  0  0  0  0  0  0  0  0  0
   -3.6710   14.7570    0.9990 C   0  0  2  0  0  0  0  0  0  0  0  0
   -2.9310   15.2900   -1.2470 C   0  0  1  0  0  0  0  0  0  0  0  0
   -3.4800   14.6550   -2.3810 O   0  0  0  0  0  0  0  0  0  0  0  0
   -4.0810   15.4460   -0.2590 C   0  0  1  0  0  0  0  0  0  0  0  0
   -4.8160   15.1680    1.7540 N   0  0  0  0  0  0  0  0  0  0  0  0
   -2.4740   14.2950   -3.3040 C   0  0  0  0  0  0  0  0  0  0  0  0
   -5.4160   14.8640   -0.4810 N   0  0  0  0  0  0  0  0  0  0  0  0
   -5.8540   14.6130    0.8940 C   0  0  0  0  0  0  0  0  0  0  0  0
   -2.3650   15.4810   -4.2420 C   0  0  1  0  0  0  0  0  0  0  0  0
   -0.9520   15.6560   -4.8240 C   0  0  2  0  0  0  0  0  0  0  0  0
   -3.4030   15.3790   -5.3280 C   0  0  0  0  0  0  0  0  0  0  0  0
    0.1640   15.7550   -3.7700 C   0  0  1  0  0  0  0  0  0  0  0  0
   -0.8330   16.9790   -5.6190 C   0  0  2  0  0  0  0  0  0  0  0  0
   -3.2610   16.5060   -6.3030 C   0  0  0  0  0  0  0  0  0  0  0  0
    1.0260   14.4570   -3.5990 C   0  0  0  0  0  0  0  0  0  0  0  0
    0.0660   17.8560   -4.9230 N   0  0  0  0  0  0  0  0  0  0  0  0
    0.9920   16.8580   -4.4210 C   0  0  0  0  0  0  0  0  0  0  0  0
   -2.1810   17.5690   -5.9980 C   0  0  0  0  0  0  0  0  0  0  0  0
    0.7620   18.6340   -5.9370 C   0  0  0  0  0  0  0  0  0  0  0  0
    0.3340   13.0550   -3.5240 C   0  0  0  0  0  0  0  0  0  0  0  0
    0.8260   12.0150   -2.4680 C   0  0  1  0  0  0  0  0  0  0  0  0
    0.5320   12.4790   -1.1810 O   0  0  0  0  0  0  0  0  0  0  0  0
    0.2050   10.8340   -2.4760 O   0  0  0  0  0  0  0  0  0  0  0  0
  2  1  1  6
  2  3  1  0
  2  4  1  0
  5  4  1  1
  3  6  1  0
  6  7  1  6
  5  8  1  0
  6  8  1  0
  5  9  1  0
  7 10  1  0
  8 11  1  6
  9 12  1  0
 11 12  1  0
 13 10  1  6
 14 13  1  1
 13 15  1  0
 14 16  1  0
 14 17  1  0
 15 18  1  0
 16 19  1  6
 17 20  1  0
 16 21  1  0
 20 21  1  0
 17 22  1  1
 18 22  1  0
 20 23  1  0
 19 24  1  0
 24 25  1  0
 25 26  1  1
 25 27  1  0
M  CHG  1  27  -1
M  END
