ucsf135-ucsf017
     RDKit          3D

 30 35  0  0  0  0  0  0  0  0999 V2000
    1.7170   11.4980   -7.3040 O   0  0  0  0  0  0  0  0  0  0  0  0
    0.3770   11.4050   -6.9870 C   0  0  2  0  0  0  0  0  0  0  0  0
    0.3030   11.6470   -5.5770 N   0  0  0  0  0  0  0  0  0  0  0  0
   -0.2050    9.9720   -7.1760 C   0  0  1  0  0  0  0  0  0  0  0  0
   -1.1350   11.0260   -5.0590 S   0  0  2  0  0  0  0  0  0  0  0  0
   -1.4490    9.8580   -6.3000 C   0  0  2  0  0  0  0  0  0  0  0  0
   -0.5930    9.5010   -8.5580 C   0  0  0  0  0  0  0  0  0  0  0  0
   -2.3650   11.9830   -5.2930 O   0  0  0  0  0  0  0  0  0  0  0  0
   -1.0810   10.2320   -3.6700 O   0  0  0  0  0  0  0  0  0  0  0  0
   -1.7620    8.4430   -5.9590 C   0  0  0  0  0  0  0  0  0  0  0  0
   -1.8670    8.6190   -8.5190 C   0  0  0  0  0  0  0  0  0  0  0  0
   -2.0270    7.7160   -7.2770 C   0  0  0  0  0  0  0  0  0  0  0  0
   -2.2900   13.1520   -4.5910 C   0  0  2  0  0  0  0  0  0  0  0  0
   -1.9490   14.3430   -5.3030 O   0  0  0  0  0  0  0  0  0  0  0  0
   -1.1940   12.9820   -3.5770 C   0  0  2  0  0  0  0  0  0  0  0  0
   -1.2640   15.1370   -4.3150 C   0  0  0  0  0  0  0  0  0  0  0  0
   -1.2720   14.3380   -3.0070 C   0  0  2  0  0  0  0  0  0  0  0  0
    0.2200   12.5760   -3.9220 C   0  0  0  0  0  0  0  0  0  0  0  0
    1.0100   12.4010   -2.6610 C   0  0  0  0  0  0  0  0  0  0  0  0
   -0.2320   14.5360   -2.0070 N   0  0  0  0  0  0  0  0  0  0  0  0
    0.4670   13.3030   -1.5570 C   0  0  0  0  0  0  0  0  0  0  0  0
   -0.7900   15.2080   -0.8590 C   0  0  2  0  0  0  0  0  0  0  0  0
    0.1150   15.1350    0.2680 N   0  0  0  0  0  0  0  0  0  0  0  0
   -2.1900   14.7060   -0.4820 C   0  0  1  0  0  0  0  0  0  0  0  0
   -0.3260   14.2690    1.3430 C   0  0  0  0  0  0  0  0  0  0  0  0
   -2.3590   15.3180    0.8530 C   0  0  2  0  0  0  0  0  0  0  0  0
   -3.4320   15.2550   -1.1900 C   0  0  0  0  0  0  0  0  0  0  0  0
   -1.6440   14.6080    1.8190 N   0  0  0  0  0  0  0  0  0  0  0  0
   -3.7750   15.3480    1.1770 N   0  0  0  0  0  0  0  0  0  0  0  0
   -4.5000   15.2020   -0.0990 C   0  0  0  0  0  0  0  0  0  0  0  0
  2  1  1  1
  2  3  1  0
  2  4  1  0
  3  5  1  0
  4  6  1  0
  5  6  1  0
  4  7  1  6
  5  8  1  0
  5  9  1  1
  6 10  1  1
  7 11  1  0
 10 12  1  0
 11 12  1  0
 13  8  1  6
 13 14  1  0
 13 15  1  0
 14 16  1  0
 15 17  1  0
 17 16  1  6
 15 18  1  6
 18 19  1  0
 17 20  1  0
 19 21  1  0
 20 21  1  0
 22 20  1  6
 22 23  1  0
 22 24  1  0
 23 25  1  0
 24 26  1  0
 24 27  1  6
 25 28  1  0
 26 28  1  1
 26 29  1  0
 27 30  1  0
 29 30  1  0
M  END
