ucsf338-ucsf258
     RDKit          3D

 19 20  0  0  0  0  0  0  0  0999 V2000
   -8.9430   14.2080   -0.2010 O   0  0  0  0  0  0  0  0  0  0  0  0
   -7.6200   14.4190    0.3600 N   0  0  0  0  0  0  0  0  0  0  0  0
   -6.7640   15.0400   -0.6460 C   0  0  2  0  0  0  0  0  0  0  0  0
   -6.8960   14.3870   -1.8820 O   0  0  0  0  0  0  0  0  0  0  0  0
   -5.2710   15.2620   -0.2390 C   0  0  2  0  0  0  0  0  0  0  0  0
   -4.0760   15.0840   -1.2430 C   0  0  1  0  0  0  0  0  0  0  0  0
   -4.9770   14.5720    1.1190 C   0  0  0  0  0  0  0  0  0  0  0  0
   -4.3810   16.0300   -2.2840 O   0  0  0  0  0  0  0  0  0  0  0  0
   -2.7080   15.5390   -0.6350 C   0  0  1  0  0  0  0  0  0  0  0  0
   -3.6080   14.9020    1.6950 C   0  0  0  0  0  0  0  0  0  0  0  0
   -3.9720   13.8250   -2.0950 C   0  0  0  0  0  0  0  0  0  0  0  0
   -2.8640   15.9010    0.8380 C   0  0  0  0  0  0  0  0  0  0  0  0
   -2.6550   13.7800   -2.8600 C   0  0  1  0  0  0  0  0  0  0  0  0
   -1.5280   14.6500   -0.7260 N   0  0  0  0  0  0  0  0  0  0  0  0
   -2.5000   14.9480   -3.6860 O   0  0  0  0  0  0  0  0  0  0  0  0
   -1.5330   13.6350   -1.8210 C   0  0  2  0  0  0  0  0  0  0  0  0
   -0.0910   13.4360   -2.4260 C   0  0  2  0  0  0  0  0  0  0  0  0
    0.8410   13.6540   -1.5260 O   0  0  0  0  0  0  0  0  0  0  0  0
    0.2000   14.4090   -3.4080 O   0  0  0  0  0  0  0  0  0  0  0  0
  1  2  1  0
  2  3  1  0
  3  4  1  6
  3  5  1  0
  5  6  1  0
  5  7  1  1
  6  8  1  6
  6  9  1  0
  7 10  1  0
  6 11  1  0
  9 12  1  1
 10 12  1  0
 11 13  1  0
  9 14  1  0
 13 15  1  1
 13 16  1  0
 16 14  1  6
 16 17  1  0
 17 18  1  1
 17 19  1  0
M  CHG  1  18  -1
M  END
