ucsf016-ucsf110
     RDKit          3D

 19 22  0  0  0  0  0  0  0  0999 V2000
   -2.3880   13.4670   -2.1180 C   0  0  0  0  0  0  0  0  0  0  0  0
   -3.1530   14.7180   -1.6980 C   0  0  2  0  0  0  0  0  0  0  0  0
   -2.1860   15.7220   -1.1470 C   0  0  1  0  0  0  0  0  0  0  0  0
   -4.2150   14.5920   -0.5630 C   0  0  0  0  0  0  0  0  0  0  0  0
   -2.4560   15.6060    0.3180 C   0  0  1  0  0  0  0  0  0  0  0  0
   -0.6910   15.5490   -1.4290 C   0  0  2  0  0  0  0  0  0  0  0  0
   -3.8970   15.6640    0.3850 N   0  0  0  0  0  0  0  0  0  0  0  0
   -0.4970   15.2510   -2.8460 N   0  0  0  0  0  0  0  0  0  0  0  0
   -0.0790   14.5040   -0.5770 N   0  0  0  0  0  0  0  0  0  0  0  0
   -1.9870   14.4120    0.8720 N   0  0  0  0  0  0  0  0  0  0  0  0
   -2.6240   14.4030    2.1670 N   0  0  0  0  0  0  0  0  0  0  0  0
    0.5640   14.3460   -3.3090 C   0  0  0  0  0  0  0  0  0  0  0  0
   -1.4830   15.7560   -3.8140 C   0  0  0  0  0  0  0  0  0  0  0  0
   -0.5200   14.5190    0.8250 C   0  0  0  0  0  0  0  0  0  0  0  0
   -1.8930   14.7290   -4.8520 C   0  0  0  0  0  0  0  0  0  0  0  0
    0.0860   13.2760   -4.2990 C   0  0  0  0  0  0  0  0  0  0  0  0
   -3.2320   14.0150   -4.6920 C   0  0  0  0  0  0  0  0  0  0  0  0
   -3.0760   15.0440   -5.7630 C   0  0  0  0  0  0  0  0  0  0  0  0
   -0.7290   13.9260   -5.4090 C   0  0  0  0  0  0  0  0  0  0  0  0
  2  1  1  1
  3  2  1  6
  2  4  1  0
  3  5  1  0
  3  6  1  0
  4  7  1  0
  5  7  1  6
  6  8  1  6
  6  9  1  0
  5 10  1  0
 10 11  1  0
  8 12  1  0
  8 13  1  0
  9 14  1  0
 10 14  1  0
 15 13  1  0
 12 16  1  0
 15 17  1  0
 15 18  1  0
 17 18  1  0
 15 19  1  0
 16 19  1  0
M  END
