ucsf520-ucsf004
     RDKit          3D

 22 25  0  0  0  0  0  0  0  0999 V2000
   -4.2660   15.4060    1.3500 N   0  0  0  0  0  0  0  0  0  0  0  0
   -3.5710   14.5320    0.4200 C   0  0  2  0  0  0  0  0  0  0  0  0
   -2.1880   15.0310   -0.0240 C   0  0  2  0  0  0  0  0  0  0  0  0
   -4.4650   14.4110   -0.7250 N   0  0  0  0  0  0  0  0  0  0  0  0
   -4.1630   15.3130   -1.8510 C   0  0  0  0  0  0  0  0  0  0  0  0
   -1.9660   14.4070   -1.4020 C   0  0  1  0  0  0  0  0  0  0  0  0
   -0.9450   14.7680    0.7080 N   0  0  0  0  0  0  0  0  0  0  0  0
   -2.7710   15.2320   -2.3210 N   0  0  0  0  0  0  0  0  0  0  0  0
   -0.4360   14.4890   -1.6330 C   0  0  2  0  0  0  0  0  0  0  0  0
   -0.0050   15.2130   -0.3310 C   0  0  0  0  0  0  0  0  0  0  0  0
   -2.5230   15.0270   -3.7800 C   0  0  0  0  0  0  0  0  0  0  0  0
   -0.1740   15.1610   -2.9860 C   0  0  0  0  0  0  0  0  0  0  0  0
    0.3110   13.1330   -1.7740 C   0  0  0  0  0  0  0  0  0  0  0  0
   -1.8050   16.1220   -4.6530 C   0  0  1  0  0  0  0  0  0  0  0  0
   -0.2940   14.1500   -4.1700 C   0  0  2  0  0  0  0  0  0  0  0  0
    1.4430   13.1440   -2.8280 C   0  0  0  0  0  0  0  0  0  0  0  0
   -1.3350   13.2780   -3.9880 F   0  0  0  0  0  0  0  0  0  0  0  0
   -1.7550   17.4360   -4.0470 O   0  0  0  0  0  0  0  0  0  0  0  0
   -0.3240   15.8390   -4.9790 C   0  0  0  0  0  0  0  0  0  0  0  0
    0.9470   13.3230   -4.2530 C   0  0  0  0  0  0  0  0  0  0  0  0
    0.1470   17.1780   -5.4690 C   0  0  0  0  0  0  0  0  0  0  0  0
   -0.5890   18.1130   -4.5410 C   0  0  0  0  0  0  0  0  0  0  0  0
  2  1  1  1
  2  3  1  0
  2  4  1  0
  4  5  1  0
  3  6  1  0
  3  7  1  1
  5  8  1  0
  6  8  1  6
  6  9  1  0
  7 10  1  0
  9 10  1  1
  8 11  1  0
  9 12  1  0
  9 13  1  0
 14 11  1  1
 12 15  1  0
 13 16  1  0
 15 17  1  1
 14 18  1  0
 14 19  1  0
 15 20  1  0
 16 20  1  0
 19 21  1  0
 18 22  1  0
 21 22  1  0
M  END
