ucsf380-ucsf005
     RDKit          3D

 22 24  0  0  0  0  0  0  0  0999 V2000
    1.1190   14.4670   -1.8450 O   0  0  0  0  0  0  0  0  0  0  0  0
    0.2830   13.4440   -1.8970 C   0  0  1  0  0  0  0  0  0  0  0  0
    0.3950   12.9890   -0.5720 O   0  0  0  0  0  0  0  0  0  0  0  0
   -1.1770   13.9830   -2.3000 C   0  0  2  0  0  0  0  0  0  0  0  0
   -2.0250   14.7300   -1.1460 C   0  0  2  0  0  0  0  0  0  0  0  0
   -1.8200   13.0600   -3.4270 C   0  0  0  0  0  0  0  0  0  0  0  0
   -3.0920   14.1090   -0.1800 C   0  0  2  0  0  0  0  0  0  0  0  0
   -2.6770   15.9310   -1.8020 C   0  0  0  0  0  0  0  0  0  0  0  0
   -2.2540   11.6620   -2.9100 C   0  0  0  0  0  0  0  0  0  0  0  0
   -1.0040   12.9230   -4.7080 C   0  0  0  0  0  0  0  0  0  0  0  0
   -0.9840   15.2630   -0.2390 N   0  0  0  0  0  0  0  0  0  0  0  0
   -4.5980   14.1200   -0.5080 C   0  0  0  0  0  0  0  0  0  0  0  0
   -4.0500   15.5510   -2.3110 C   0  0  0  0  0  0  0  0  0  0  0  0
   -3.0110   10.8150   -3.9340 C   0  0  0  0  0  0  0  0  0  0  0  0
   -0.9810   11.5030   -5.2600 C   0  0  0  0  0  0  0  0  0  0  0  0
   -3.0510   15.0610    1.0100 C   0  0  1  0  0  0  0  0  0  0  0  0
   -0.9220   14.4350    0.9140 C   0  0  1  0  0  0  0  0  0  0  0  0
   -4.2370   15.0500    1.8340 N   0  0  0  0  0  0  0  0  0  0  0  0
    0.3010   14.7040    1.5350 N   0  0  0  0  0  0  0  0  0  0  0  0
   -5.0100   15.4040   -1.1660 C   0  0  0  0  0  0  0  0  0  0  0  0
   -2.3530   10.8500   -5.3030 C   0  0  0  0  0  0  0  0  0  0  0  0
   -1.9240   14.8470    1.8120 N   0  0  0  0  0  0  0  0  0  0  0  0
  2  1  1  1
  2  3  1  0
  2  4  1  0
  4  5  1  0
  4  6  1  1
  5  7  1  0
  5  8  1  6
  6  9  1  0
  6 10  1  0
  5 11  1  0
  7 12  1  6
  8 13  1  0
  9 14  1  0
 10 15  1  0
  7 16  1  0
 11 17  1  0
 16 18  1  1
 17 19  1  1
 12 20  1  0
 13 20  1  0
 14 21  1  0
 15 21  1  0
 16 22  1  0
 17 22  1  0
M  CHG  1   1  -1
M  END
