ucsf493-ucsf190
     RDKit          3D

 21 23  0  0  0  0  0  0  0  0999 V2000
   -4.6690   15.2570   -5.9690 C   0  0  0  0  0  0  0  0  0  0  0  0
   -3.7810   16.0470   -5.2820 O   0  0  0  0  0  0  0  0  0  0  0  0
   -2.5550   16.1010   -5.8910 C   0  0  2  0  0  0  0  0  0  0  0  0
   -1.6060   14.9270   -5.4900 C   0  0  0  0  0  0  0  0  0  0  0  0
   -1.9290   17.4690   -5.9930 C   0  0  0  0  0  0  0  0  0  0  0  0
   -0.1910   15.0760   -5.3670 C   0  0  1  0  0  0  0  0  0  0  0  0
   -0.8590   17.4230   -4.9280 C   0  0  0  0  0  0  0  0  0  0  0  0
    0.2460   16.5520   -5.4660 C   0  0  1  0  0  0  0  0  0  0  0  0
    0.2500   14.1280   -3.8320 S   0  0  0  0  0  0  0  0  0  0  0  0
    1.0400   12.3720   -4.0080 C   0  0  0  0  0  0  0  0  0  0  0  0
    1.0460   16.6500   -4.4860 N   0  0  0  0  0  0  0  0  0  0  0  0
    1.5530   15.4130   -4.3970 C   0  0  0  0  0  0  0  0  0  0  0  0
   -1.3520   13.3180   -3.8090 C   0  0  0  0  0  0  0  0  0  0  0  0
   -1.0670   14.8060   -2.6700 C   0  0  0  0  0  0  0  0  0  0  0  0
    0.4140   11.5090   -2.9620 C   0  0  1  0  0  0  0  0  0  0  0  0
    0.6790   17.3750   -3.4610 O   0  0  0  0  0  0  0  0  0  0  0  0
   -2.3360   15.2660   -3.1050 C   0  0  0  0  0  0  0  0  0  0  0  0
   -2.3890   13.7710   -4.6880 C   0  0  0  0  0  0  0  0  0  0  0  0
    0.6740   10.2610   -2.6290 O   0  0  0  0  0  0  0  0  0  0  0  0
    0.6330   12.1810   -1.6830 O   0  0  0  0  0  0  0  0  0  0  0  0
   -3.4140   14.4210   -3.8570 C   0  0  0  0  0  0  0  0  0  0  0  0
  1  2  1  0
  3  2  1  1
  3  4  1  0
  3  5  1  0
  6  4  1  1
  5  7  1  0
  6  8  1  0
  8  7  1  1
  6  9  1  0
  9 10  1  0
  8 11  1  0
  9 12  1  0
 11 12  1  0
  9 13  1  0
  9 14  1  0
 10 15  1  0
 11 16  1  0
 14 17  1  0
 13 18  1  0
 15 19  1  1
 15 20  1  0
 17 21  1  0
 18 21  1  0
M  CHG  1  20  -1
M  END
