ucsf520-ucsf190
     RDKit          3D

 25 28  0  0  0  0  0  0  0  0999 V2000
   -4.5900   15.1990    1.1250 N   0  0  0  0  0  0  0  0  0  0  0  0
   -3.5250   15.0460    0.1880 C   0  0  1  0  0  0  0  0  0  0  0  0
   -2.3130   14.3740    0.7030 C   0  0  1  0  0  0  0  0  0  0  0  0
   -4.0330   14.4060   -1.0070 N   0  0  0  0  0  0  0  0  0  0  0  0
   -2.9660   14.5680   -1.9820 C   0  0  0  0  0  0  0  0  0  0  0  0
   -1.3650   13.8500   -0.4240 C   0  0  1  0  0  0  0  0  0  0  0  0
   -1.4490   15.3350    1.3760 N   0  0  0  0  0  0  0  0  0  0  0  0
   -1.7650   13.7480   -1.6370 N   0  0  0  0  0  0  0  0  0  0  0  0
   -0.2940   14.8900   -0.4330 N   0  0  0  0  0  0  0  0  0  0  0  0
   -0.1450   14.9770    0.9510 C   0  0  0  0  0  0  0  0  0  0  0  0
   -1.3770   13.2130   -2.8140 C   0  0  0  0  0  0  0  0  0  0  0  0
   -0.9220   14.3690   -4.2410 S   0  0  0  0  0  0  0  0  0  0  0  0
    0.7500   14.7650   -5.1230 O   0  0  0  0  0  0  0  0  0  0  0  0
    0.6650   15.1810   -3.5280 C   0  0  1  0  0  0  0  0  0  0  0  0
   -2.2910   15.3570   -4.5140 C   0  0  0  0  0  0  0  0  0  0  0  0
   -1.7200   13.9310   -5.8240 C   0  0  0  0  0  0  0  0  0  0  0  0
    1.7500   14.1710   -3.7510 C   0  0  0  0  0  0  0  0  0  0  0  0
    0.6770   16.5430   -4.0700 C   0  0  0  0  0  0  0  0  0  0  0  0
    0.5450   16.0590   -5.4130 C   0  0  0  0  0  0  0  0  0  0  0  0
   -3.4520   14.8220   -5.1360 C   0  0  0  0  0  0  0  0  0  0  0  0
   -2.5240   12.7720   -5.5320 C   0  0  0  0  0  0  0  0  0  0  0  0
    1.7840   12.8820   -2.9870 C   0  0  2  0  0  0  0  0  0  0  0  0
   -3.8300   13.3580   -5.0310 C   0  0  0  0  0  0  0  0  0  0  0  0
    1.0880   11.8030   -3.5940 O   0  0  0  0  0  0  0  0  0  0  0  0
    1.1900   12.9530   -1.7110 O   0  0  0  0  0  0  0  0  0  0  0  0
  2  1  1  1
  2  3  1  0
  2  4  1  0
  4  5  1  0
  3  6  1  0
  3  7  1  1
  5  8  1  0
  6  8  1  0
  6  9  1  6
  7 10  1  0
  9 10  1  0
  8 11  1  0
 11 12  1  0
 12 13  1  0
 12 14  1  0
 12 15  1  0
 12 16  1  0
 14 17  1  6
 14 18  1  0
 13 19  1  0
 18 19  1  0
 15 20  1  0
 16 21  1  0
 17 22  1  0
 20 23  1  0
 21 23  1  0
 22 24  1  6
 22 25  1  0
M  CHG  1  24  -1
M  END
