ucsf135-ucsf387
     RDKit          3D

 23 25  0  0  0  0  0  0  0  0999 V2000
    1.5890   11.4000   -7.4400 O   0  0  0  0  0  0  0  0  0  0  0  0
    0.3800   11.6840   -6.8430 C   0  0  2  0  0  0  0  0  0  0  0  0
    0.6180   12.0300   -5.4600 N   0  0  0  0  0  0  0  0  0  0  0  0
   -0.5880   10.4780   -6.8820 C   0  0  2  0  0  0  0  0  0  0  0  0
   -0.6100   11.4040   -4.5610 S   0  0  2  0  0  0  0  0  0  0  0  0
   -0.8490    9.9110   -5.4660 C   0  0  1  0  0  0  0  0  0  0  0  0
   -0.2760    9.3360   -7.8190 C   0  0  0  0  0  0  0  0  0  0  0  0
   -2.0060   12.1620   -4.6790 O   0  0  0  0  0  0  0  0  0  0  0  0
   -0.1410   11.2480   -3.0560 O   0  0  0  0  0  0  0  0  0  0  0  0
   -2.1980    9.2380   -5.5100 C   0  0  0  0  0  0  0  0  0  0  0  0
   -1.5590    8.5100   -7.9440 C   0  0  0  0  0  0  0  0  0  0  0  0
    0.1540   12.5400   -2.5220 C   0  0  1  0  0  0  0  0  0  0  0  0
   -2.1880    8.1270   -6.5830 C   0  0  0  0  0  0  0  0  0  0  0  0
    0.6960   12.4720   -1.2280 O   0  0  0  0  0  0  0  0  0  0  0  0
    1.1470   13.3250   -3.4220 C   0  0  0  0  0  0  0  0  0  0  0  0
    0.4460   14.3170   -4.3910 C   0  0  0  0  0  0  0  0  0  0  0  0
   -0.9820   14.6090   -3.9200 C   0  0  0  0  0  0  0  0  0  0  0  0
    1.1670   15.6630   -4.6300 C   0  0  0  0  0  0  0  0  0  0  0  0
   -1.7330   15.3760   -4.9810 C   0  0  1  0  0  0  0  0  0  0  0  0
    0.2570   16.9060   -4.5300 C   0  0  1  0  0  0  0  0  0  0  0  0
    0.9900   18.2640   -5.4400 Cl  0  0  0  0  0  0  0  0  0  0  0  0
   -3.4950   15.3880   -4.7180 Cl  0  0  0  0  0  0  0  0  0  0  0  0
   -1.1720   16.7830   -5.0920 C   0  0  0  0  0  0  0  0  0  0  0  0
  2  1  1  1
  2  3  1  0
  2  4  1  0
  3  5  1  0
  4  6  1  0
  5  6  1  0
  4  7  1  6
  5  8  1  1
  5  9  1  0
  6 10  1  6
  7 11  1  0
  9 12  1  0
 10 13  1  0
 11 13  1  0
 12 14  1  1
 12 15  1  0
 15 16  1  0
 16 17  1  0
 16 18  1  0
 17 19  1  0
 18 20  1  0
 20 21  1  6
 19 22  1  1
 19 23  1  0
 20 23  1  0
M  END
