ucsf243-ucsf364
     RDKit          3D

 19 20  0  0  0  0  0  0  0  0999 V2000
   -4.1040   15.6370    0.9890 C   0  0  0  0  0  0  0  0  0  0  0  0
   -3.5400   15.0300   -0.3010 C   0  0  1  0  0  0  0  0  0  0  0  0
   -4.4610   15.3000   -1.4970 C   0  0  0  0  0  0  0  0  0  0  0  0
   -2.1020   15.4920   -0.5140 C   0  0  0  0  0  0  0  0  0  0  0  0
   -1.5040   15.3090   -1.9310 C   0  0  1  0  0  0  0  0  0  0  0  0
   -3.9030   14.8160   -2.8230 C   0  0  0  0  0  0  0  0  0  0  0  0
   -0.4480   14.1720   -1.9880 C   0  0  1  0  0  0  0  0  0  0  0  0
   -2.5150   15.3650   -3.1250 C   0  0  2  0  0  0  0  0  0  0  0  0
   -2.0400   14.7060   -4.2990 O   0  0  0  0  0  0  0  0  0  0  0  0
   -0.2760   13.8680   -3.3580 O   0  0  0  0  0  0  0  0  0  0  0  0
    0.7060   14.6210   -1.5330 O   0  0  0  0  0  0  0  0  0  0  0  0
    0.0700   12.5180   -3.6260 C   0  0  2  0  0  0  0  0  0  0  0  0
    1.1890   12.4240   -4.6520 C   0  0  2  0  0  0  0  0  0  0  0  0
   -1.2160   11.7590   -4.0720 C   0  0  0  0  0  0  0  0  0  0  0  0
    1.9800   13.6900   -4.8370 C   0  0  0  0  0  0  0  0  0  0  0  0
   -1.6630   11.8820   -5.5450 C   0  0  0  0  0  0  0  0  0  0  0  0
    0.7540   11.7270   -5.9530 C   0  0  2  0  0  0  0  0  0  0  0  0
    1.7550   11.6930   -6.9590 O   0  0  0  0  0  0  0  0  0  0  0  0
   -0.5430   12.2760   -6.4880 C   0  0  0  0  0  0  0  0  0  0  0  0
  2  1  1  1
  2  3  1  0
  2  4  1  0
  5  4  1  1
  3  6  1  0
  5  7  1  0
  5  8  1  0
  6  8  1  0
  8  9  1  6
  7 10  1  0
  7 11  1  6
 12 10  1  6
 12 13  1  0
 12 14  1  0
 13 15  1  6
 14 16  1  0
 13 17  1  0
 17 18  1  6
 16 19  1  0
 17 19  1  0
M  CHG  1  11  -1
M  END
