ucsf274-ucsf017
     RDKit          3D

 34 39  0  0  0  0  0  0  0  0999 V2000
    3.3880   12.1630   -3.1880 O   0  0  0  0  0  0  0  0  0  0  0  0
    2.5870   13.0950   -3.6070 C   0  0  2  0  0  0  0  0  0  0  0  0
    2.6330   14.0310   -2.5240 O   0  0  0  0  0  0  0  0  0  0  0  0
    1.1450   12.5300   -3.7970 C   0  0  2  0  0  0  0  0  0  0  0  0
    0.4770   13.0430   -5.1450 C   0  0  0  0  0  0  0  0  0  0  0  0
    0.2650   12.6570   -2.4860 C   0  0  2  0  0  0  0  0  0  0  0  0
   -0.4000   12.0760   -6.0270 C   0  0  2  0  0  0  0  0  0  0  0  0
   -0.7870   11.5540   -2.3720 C   0  0  0  0  0  0  0  0  0  0  0  0
   -0.4620   13.9360   -2.3280 N   0  0  0  0  0  0  0  0  0  0  0  0
   -1.5210   11.3370   -5.1790 C   0  0  1  0  0  0  0  0  0  0  0  0
    0.3820   11.1050   -6.8220 N   0  0  0  0  0  0  0  0  0  0  0  0
   -1.2760   14.1310   -3.5080 C   0  0  2  0  0  0  0  0  0  0  0  0
   -1.7690   11.6050   -3.5320 C   0  0  0  0  0  0  0  0  0  0  0  0
   -0.9500   14.1460   -0.9780 C   0  0  1  0  0  0  0  0  0  0  0  0
   -2.2850   12.1780   -4.3580 O   0  0  0  0  0  0  0  0  0  0  0  0
   -2.4980   10.6620   -6.0040 N   0  0  0  0  0  0  0  0  0  0  0  0
   -0.2670    9.7850   -6.8660 C   0  0  1  0  0  0  0  0  0  0  0  0
   -2.1360   15.3450   -3.8560 C   0  0  0  0  0  0  0  0  0  0  0  0
   -2.2940   13.0500   -3.7460 C   0  0  2  0  0  0  0  0  0  0  0  0
   -0.1110   15.0740   -0.3090 N   0  0  0  0  0  0  0  0  0  0  0  0
   -2.4550   14.1230   -0.5550 C   0  0  1  0  0  0  0  0  0  0  0  0
   -1.8200    9.8070   -6.9620 C   0  0  1  0  0  0  0  0  0  0  0  0
    0.2940    8.9540   -8.0210 C   0  0  0  0  0  0  0  0  0  0  0  0
   -2.7320   13.5070   -5.1380 C   0  0  0  0  0  0  0  0  0  0  0  0
   -2.9140   14.9340   -5.0070 O   0  0  0  0  0  0  0  0  0  0  0  0
   -0.1370   14.7940    1.0730 C   0  0  0  0  0  0  0  0  0  0  0  0
   -2.5190   14.4560    0.9530 C   0  0  1  0  0  0  0  0  0  0  0  0
   -3.5540   14.9880   -1.1620 C   0  0  0  0  0  0  0  0  0  0  0  0
   -0.2440    7.5200   -8.0200 C   0  0  0  0  0  0  0  0  0  0  0  0
   -2.3440    8.3690   -6.8510 C   0  0  0  0  0  0  0  0  0  0  0  0
   -1.4260   15.1670    1.5510 N   0  0  0  0  0  0  0  0  0  0  0  0
   -3.6900   15.2780    1.2200 N   0  0  0  0  0  0  0  0  0  0  0  0
   -4.4960   15.2850   -0.0070 C   0  0  0  0  0  0  0  0  0  0  0  0
   -1.7670    7.4450   -7.9280 C   0  0  0  0  0  0  0  0  0  0  0  0
  2  1  1  1
  2  3  1  0
  2  4  1  0
  4  5  1  6
  4  6  1  0
  7  5  1  1
  6  8  1  6
  6  9  1  0
  7 10  1  0
  7 11  1  0
  9 12  1  0
  8 13  1  0
 14  9  1  6
 10 15  1  6
 10 16  1  0
 11 17  1  0
 12 18  1  1
 12 19  1  0
 19 13  1  6
 14 20  1  0
 14 21  1  0
 16 22  1  0
 17 22  1  0
 17 23  1  6
 19 24  1  0
 18 25  1  0
 24 25  1  0
 20 26  1  0
 21 27  1  0
 21 28  1  6
 23 29  1  0
 22 30  1  1
 26 31  1  0
 27 31  1  6
 27 32  1  0
 28 33  1  0
 32 33  1  0
 29 34  1  0
 30 34  1  0
M  CHG  1   1  -1
M  END
