ucsf357-ucsf012
     RDKit          3D

 22 24  0  0  0  0  0  0  0  0999 V2000
   -6.2630   14.4160   -2.3950 O   0  0  0  0  0  0  0  0  0  0  0  0
   -5.6210   15.1830   -1.5530 C   0  0  1  0  0  0  0  0  0  0  0  0
   -6.2460   14.8110   -0.3390 O   0  0  0  0  0  0  0  0  0  0  0  0
   -4.0960   14.8220   -1.5160 C   0  0  1  0  0  0  0  0  0  0  0  0
   -3.3050   14.9610   -2.8280 C   0  0  2  0  0  0  0  0  0  0  0  0
   -3.4320   15.8780   -0.6770 C   0  0  0  0  0  0  0  0  0  0  0  0
   -3.6940   14.0640   -3.9990 C   0  0  0  0  0  0  0  0  0  0  0  0
   -1.7510   15.0280   -2.6100 C   0  0  2  0  0  0  0  0  0  0  0  0
   -2.0910   15.5460   -0.0930 C   0  0  2  0  0  0  0  0  0  0  0  0
   -1.0100   14.1790   -3.5270 O   0  0  0  0  0  0  0  0  0  0  0  0
   -1.1490   14.9870   -1.1340 C   0  0  2  0  0  0  0  0  0  0  0  0
   -2.4140   14.6000    1.0400 C   0  0  2  0  0  0  0  0  0  0  0  0
    0.0030   15.8090   -1.2700 O   0  0  0  0  0  0  0  0  0  0  0  0
   -3.3760   15.1390    1.9670 N   0  0  0  0  0  0  0  0  0  0  0  0
   -1.2150   14.2610    1.7290 N   0  0  0  0  0  0  0  0  0  0  0  0
   -0.6620   13.7670   -0.5370 N   0  0  0  0  0  0  0  0  0  0  0  0
   -1.0210   12.7970   -3.2280 C   0  0  2  0  0  0  0  0  0  0  0  0
   -0.1360   14.1030    0.7800 C   0  0  0  0  0  0  0  0  0  0  0  0
    0.3190   12.2990   -2.7130 C   0  0  0  0  0  0  0  0  0  0  0  0
   -1.2510   11.9830   -4.3880 O   0  0  0  0  0  0  0  0  0  0  0  0
   -0.5500   10.7470   -4.1720 C   0  0  0  0  0  0  0  0  0  0  0  0
    0.0100   10.8340   -2.7680 C   0  0  0  0  0  0  0  0  0  0  0  0
  2  1  1  6
  2  3  1  0
  2  4  1  0
  4  5  1  0
  4  6  1  1
  5  7  1  6
  5  8  1  0
  9  6  1  6
  8 10  1  6
  8 11  1  0
  9 11  1  0
  9 12  1  0
 11 13  1  6
 12 14  1  1
 12 15  1  0
 11 16  1  0
 17 10  1  6
 15 18  1  0
 16 18  1  0
 17 19  1  0
 17 20  1  0
 20 21  1  0
 19 22  1  0
 21 22  1  0
M  CHG  1   1  -1
M  END
