ucsf442-ucsf392
     RDKit          3D

 13 14  0  0  0  0  0  0  0  0999 V2000
   -0.6650   13.9430    0.7660 O   0  0  0  0  0  0  0  0  0  0  0  0
   -1.6100   14.8820    0.3360 C   0  0  1  0  0  0  0  0  0  0  0  0
   -1.8110   14.6760   -1.1020 N   0  0  0  0  0  0  0  0  0  0  0  0
   -2.8610   14.6280    1.0090 N   0  0  0  0  0  0  0  0  0  0  0  0
   -2.8950   14.8780    2.4040 N   0  0  0  0  0  0  0  0  0  0  0  0
   -3.8980   15.4970    0.5670 C   0  0  1  0  0  0  0  0  0  0  0  0
   -3.1190   15.0560   -1.6770 C   0  0  1  0  0  0  0  0  0  0  0  0
   -3.3230   14.2450   -2.8020 O   0  0  0  0  0  0  0  0  0  0  0  0
   -4.3660   15.0340   -0.7570 C   0  0  2  0  0  0  0  0  0  0  0  0
   -5.0460   15.2390    1.4350 N   0  0  0  0  0  0  0  0  0  0  0  0
   -5.5230   15.8500   -1.2970 C   0  0  0  0  0  0  0  0  0  0  0  0
   -5.0170   13.7760   -0.4010 N   0  0  0  0  0  0  0  0  0  0  0  0
   -5.7050   14.0740    0.8470 C   0  0  0  0  0  0  0  0  0  0  0  0
  2  1  1  1
  2  3  1  0
  2  4  1  0
  4  5  1  0
  4  6  1  0
  3  7  1  0
  7  8  1  6
  6  9  1  0
  7  9  1  0
  6 10  1  1
  9 11  1  6
  9 12  1  0
 10 13  1  0
 12 13  1  0
M  END
