ucsf135-ucsf320
     RDKit          3D

 23 25  0  0  0  0  0  0  0  0999 V2000
    0.7540   12.8290   -6.9970 O   0  0  0  0  0  0  0  0  0  0  0  0
    0.8340   11.6020   -6.3820 C   0  0  1  0  0  0  0  0  0  0  0  0
    0.8140   11.8810   -4.9430 N   0  0  0  0  0  0  0  0  0  0  0  0
   -0.3700   10.6840   -6.7370 C   0  0  2  0  0  0  0  0  0  0  0  0
   -0.5580   11.2300   -4.2570 S   0  0  2  0  0  0  0  0  0  0  0  0
   -0.8770    9.9740   -5.4590 C   0  0  1  0  0  0  0  0  0  0  0  0
   -0.1980    9.6310   -7.8280 C   0  0  0  0  0  0  0  0  0  0  0  0
   -1.7780   12.2720   -4.2470 O   0  0  0  0  0  0  0  0  0  0  0  0
   -0.3210   10.4430   -2.8870 O   0  0  0  0  0  0  0  0  0  0  0  0
   -2.2830    9.4860   -5.6860 C   0  0  0  0  0  0  0  0  0  0  0  0
   -1.5410    8.9230   -8.0830 C   0  0  0  0  0  0  0  0  0  0  0  0
   -1.5860   13.6050   -4.7540 C   0  0  0  0  0  0  0  0  0  0  0  0
   -2.2520    8.4350   -6.8070 C   0  0  0  0  0  0  0  0  0  0  0  0
   -1.8920   14.6320   -3.8000 O   0  0  0  0  0  0  0  0  0  0  0  0
   -1.8340   14.2440   -2.4100 C   0  0  1  0  0  0  0  0  0  0  0  0
   -1.0490   15.0300   -1.6950 O   0  0  0  0  0  0  0  0  0  0  0  0
   -3.2870   14.3530   -1.8260 C   0  0  1  0  0  0  0  0  0  0  0  0
   -3.3460   15.1070   -0.4920 C   0  0  0  0  0  0  0  0  0  0  0  0
   -4.3230   14.9750   -2.7900 C   0  0  0  0  0  0  0  0  0  0  0  0
   -4.7470   15.0450    0.1200 C   0  0  0  0  0  0  0  0  0  0  0  0
   -5.7540   14.9420   -2.2480 C   0  0  0  0  0  0  0  0  0  0  0  0
   -5.8840   15.4670   -0.8260 C   0  0  1  0  0  0  0  0  0  0  0  0
   -7.1400   15.0550   -0.2800 O   0  0  0  0  0  0  0  0  0  0  0  0
  2  1  1  6
  2  3  1  0
  2  4  1  0
  3  5  1  0
  4  6  1  0
  5  6  1  0
  4  7  1  6
  5  8  1  0
  5  9  1  1
  6 10  1  6
  7 11  1  0
  8 12  1  0
 10 13  1  0
 11 13  1  0
 12 14  1  0
 14 15  1  0
 15 16  1  1
 15 17  1  0
 17 18  1  1
 17 19  1  0
 18 20  1  0
 19 21  1  0
 20 22  1  0
 21 22  1  0
 22 23  1  1
M  CHG  1  16  -1
M  END
