ucsf114-ucsf357
     RDKit          3D

 21 22  0  0  0  0  0  0  0  0999 V2000
    0.8000   18.1370   -4.5310 C   0  0  0  0  0  0  0  0  0  0  0  0
   -0.2700   17.5800   -5.4530 C   0  0  0  0  0  0  0  0  0  0  0  0
   -1.5150   18.4630   -5.4490 C   0  0  0  0  0  0  0  0  0  0  0  0
   -0.5700   16.2670   -4.9750 O   0  0  0  0  0  0  0  0  0  0  0  0
    0.6020   15.5330   -4.5720 C   0  0  0  0  0  0  0  0  0  0  0  0
    0.2020   14.2280   -3.8520 C   0  0  0  0  0  0  0  0  0  0  0  0
   -0.1130   14.4770   -2.4260 N   0  0  0  0  0  0  0  0  0  0  0  0
   -1.4410   13.9920   -1.9420 C   0  0  1  0  0  0  0  0  0  0  0  0
    0.9890   14.5280   -1.4870 C   0  0  2  0  0  0  0  0  0  0  0  0
    2.6040   13.8700   -1.9940 S   0  0  0  0  0  0  0  0  0  0  0  0
   -1.7360   14.1370   -0.4060 C   0  0  1  0  0  0  0  0  0  0  0  0
    0.6170   14.0220   -0.1900 N   0  0  0  0  0  0  0  0  0  0  0  0
   -2.5940   14.8350   -2.4700 C   0  0  2  0  0  0  0  0  0  0  0  0
   -2.1160   16.1650   -2.3850 O   0  0  0  0  0  0  0  0  0  0  0  0
   -0.5370   14.7270    0.3100 C   0  0  2  0  0  0  0  0  0  0  0  0
   -2.9520   14.9460   -0.2190 N   0  0  0  0  0  0  0  0  0  0  0  0
   -3.6500   14.4550   -1.4040 C   0  0  1  0  0  0  0  0  0  0  0  0
   -0.7230   14.5930    1.7240 O   0  0  0  0  0  0  0  0  0  0  0  0
   -5.1600   14.8500   -1.5320 C   0  0  2  0  0  0  0  0  0  0  0  0
   -5.3000   15.8210   -2.3820 O   0  0  0  0  0  0  0  0  0  0  0  0
   -5.6720   15.3980   -0.3280 O   0  0  0  0  0  0  0  0  0  0  0  0
  1  2  1  0
  2  3  1  0
  2  4  1  0
  4  5  1  0
  5  6  1  0
  6  7  1  0
  8  7  1  1
  7  9  1  0
  9 10  1  6
  8 11  1  0
  9 12  1  0
  8 13  1  0
 13 14  1  1
 11 15  1  0
 12 15  1  0
 11 16  1  6
 13 17  1  0
 17 16  1  1
 15 18  1  1
 17 19  1  0
 19 20  1  6
 19 21  1  0
M  CHG  1  20  -1
M  END
