ucsf392-ucsf442
     RDKit          3D

 13 14  0  0  0  0  0  0  0  0999 V2000
   -5.2530   15.8080   -1.1170 C   0  0  0  0  0  0  0  0  0  0  0  0
   -4.2050   14.8590   -0.4980 C   0  0  1  0  0  0  0  0  0  0  0  0
   -2.9360   14.9490   -1.3860 C   0  0  2  0  0  0  0  0  0  0  0  0
   -3.8130   15.1700    0.9560 C   0  0  2  0  0  0  0  0  0  0  0  0
   -4.9760   13.6300   -0.2770 N   0  0  0  0  0  0  0  0  0  0  0  0
   -3.6560   16.5400    1.2680 N   0  0  0  0  0  0  0  0  0  0  0  0
   -3.0500   14.1690   -2.5530 O   0  0  0  0  0  0  0  0  0  0  0  0
   -2.6240   14.5660    1.4470 N   0  0  0  0  0  0  0  0  0  0  0  0
   -1.6210   14.6240   -0.7830 N   0  0  0  0  0  0  0  0  0  0  0  0
   -5.0120   14.8860    1.6770 N   0  0  0  0  0  0  0  0  0  0  0  0
   -5.8420   14.0700    0.8150 C   0  0  0  0  0  0  0  0  0  0  0  0
   -1.4550   14.9230    0.6510 C   0  0  2  0  0  0  0  0  0  0  0  0
   -0.2180   14.2170    1.1780 C   0  0  0  0  0  0  0  0  0  0  0  0
  2  1  1  6
  2  3  1  0
  2  4  1  0
  2  5  1  0
  4  6  1  6
  3  7  1  6
  4  8  1  0
  3  9  1  0
  4 10  1  0
  5 11  1  0
 10 11  1  0
  8 12  1  0
  9 12  1  0
 12 13  1  1
M  END
