ucsf135-ucsf404
     RDKit          3D

 25 28  0  0  0  0  0  0  0  0999 V2000
    1.8280   11.7220   -7.0810 O   0  0  0  0  0  0  0  0  0  0  0  0
    0.5390   11.7680   -6.5920 C   0  0  2  0  0  0  0  0  0  0  0  0
    0.6240   12.0190   -5.1650 N   0  0  0  0  0  0  0  0  0  0  0  0
   -0.2810   10.4520   -6.8090 C   0  0  1  0  0  0  0  0  0  0  0  0
   -0.6690   11.2950   -4.4480 S   0  0  2  0  0  0  0  0  0  0  0  0
   -1.4430   10.4430   -5.8120 C   0  0  2  0  0  0  0  0  0  0  0  0
   -0.7500   10.0940   -8.2060 C   0  0  0  0  0  0  0  0  0  0  0  0
   -1.7120   12.3690   -3.9150 O   0  0  0  0  0  0  0  0  0  0  0  0
   -0.2610   10.2090   -3.3550 O   0  0  0  0  0  0  0  0  0  0  0  0
   -2.0250    9.0650   -5.6020 C   0  0  0  0  0  0  0  0  0  0  0  0
   -1.8760    9.0490   -8.1910 C   0  0  0  0  0  0  0  0  0  0  0  0
   -3.0380   11.9800   -3.6670 C   0  0  0  0  0  0  0  0  0  0  0  0
   -2.0400    8.2380   -6.8910 C   0  0  0  0  0  0  0  0  0  0  0  0
   -3.5270   12.6760   -2.4070 C   0  0  0  0  0  0  0  0  0  0  0  0
   -2.8890   14.0660   -2.1540 C   0  0  1  0  0  0  0  0  0  0  0  0
   -3.8410   15.1520   -2.7060 C   0  0  0  0  0  0  0  0  0  0  0  0
   -2.6100   14.2200   -0.6640 C   0  0  0  0  0  0  0  0  0  0  0  0
   -3.9200   14.0530    0.0290 C   0  0  2  0  0  0  0  0  0  0  0  0
   -5.0750   15.3700   -1.8220 C   0  0  1  0  0  0  0  0  0  0  0  0
   -6.5570   14.6190   -2.4790 Cl  0  0  0  0  0  0  0  0  0  0  0  0
   -4.8740   15.1600   -0.3230 C   0  0  1  0  0  0  0  0  0  0  0  0
   -3.9470   14.0230    1.8030 S   0  0  0  0  0  0  0  0  0  0  0  0
   -5.4990   14.9220    1.8480 C   0  0  1  0  0  0  0  0  0  0  0  0
   -6.0270   14.9360    0.5260 N   0  0  0  0  0  0  0  0  0  0  0  0
   -6.5800   14.3980    2.6050 N   0  0  0  0  0  0  0  0  0  0  0  0
  2  1  1  1
  2  3  1  0
  2  4  1  0
  3  5  1  0
  4  6  1  0
  5  6  1  0
  4  7  1  6
  5  8  1  0
  5  9  1  1
  6 10  1  1
  7 11  1  0
  8 12  1  0
 10 13  1  0
 11 13  1  0
 12 14  1  0
 15 14  1  1
 15 16  1  0
 15 17  1  0
 18 17  1  1
 16 19  1  0
 19 20  1  6
 18 21  1  0
 19 21  1  0
 18 22  1  0
 22 23  1  0
 21 24  1  1
 23 24  1  0
 23 25  1  1
M  END
