ucsf371-ucsf013
     RDKit          3D

 15 16  0  0  0  0  0  0  0  0999 V2000
   -5.5460   16.2750   -0.7700 C   0  0  0  0  0  0  0  0  0  0  0  0
   -4.7050   14.6880   -0.8000 S   0  0  0  0  0  0  0  0  0  0  0  0
   -4.3270   14.5580   -2.6620 N   0  0  0  0  0  0  0  0  0  0  0  0
   -2.5950   14.7670   -1.0570 S   0  0  0  0  0  0  0  0  0  0  0  0
   -4.8270   13.5270    0.6380 C   0  0  1  0  0  0  0  0  0  0  0  0
   -6.0510   13.6450   -0.9310 C   0  0  0  0  0  0  0  0  0  0  0  0
   -3.8790   13.6010    1.6430 N   0  0  0  0  0  0  0  0  0  0  0  0
   -3.2890   13.9360   -2.9000 C   0  0  0  0  0  0  0  0  0  0  0  0
   -2.4130   15.1200   -2.8350 C   0  0  2  0  0  0  0  0  0  0  0  0
   -7.2400   14.1040   -0.3520 N   0  0  0  0  0  0  0  0  0  0  0  0
   -6.0310   13.6280    1.3460 N   0  0  0  0  0  0  0  0  0  0  0  0
   -1.0670   14.7330   -3.2630 C   0  0  1  0  0  0  0  0  0  0  0  0
   -7.2450   14.2210    1.0290 C   0  0  0  0  0  0  0  0  0  0  0  0
   -0.9090   15.1000   -4.6190 O   0  0  0  0  0  0  0  0  0  0  0  0
   -0.0300   15.2560   -2.5370 O   0  0  0  0  0  0  0  0  0  0  0  0
  1  2  1  0
  2  3  1  0
  2  4  1  0
  2  5  1  0
  2  6  1  0
  5  7  1  1
  3  8  1  0
  4  9  1  0
  9  8  1  6
  6 10  1  0
  5 11  1  0
  9 12  1  0
 10 13  1  0
 11 13  1  0
 12 14  1  6
 12 15  1  0
M  CHG  1  15  -1
M  END
