ucsf039-ucsf487
     RDKit          3D

 26 30  0  0  0  0  0  0  0  0999 V2000
   -3.7820   16.4280    0.6490 N   0  0  0  0  0  0  0  0  0  0  0  0
   -3.6340   15.2200   -0.1300 C   0  0  2  0  0  0  0  0  0  0  0  0
   -2.1590   14.7600    0.2620 C   0  0  2  0  0  0  0  0  0  0  0  0
   -3.6260   15.6130   -1.5390 N   0  0  0  0  0  0  0  0  0  0  0  0
   -5.0570   14.6110    0.2600 C   0  0  2  0  0  0  0  0  0  0  0  0
   -2.7400   14.9290   -2.4710 C   0  0  0  0  0  0  0  0  0  0  0  0
   -1.3110   14.1600   -0.8590 C   0  0  1  0  0  0  0  0  0  0  0  0
   -1.7640   13.9840    1.4220 N   0  0  0  0  0  0  0  0  0  0  0  0
   -5.4770   14.1210    1.6500 C   0  0  0  0  0  0  0  0  0  0  0  0
   -5.8530   13.8430   -0.7990 C   0  0  1  0  0  0  0  0  0  0  0  0
   -4.8820   15.5440   -2.2210 C   0  0  0  0  0  0  0  0  0  0  0  0
   -1.3380   14.9590   -2.0810 N   0  0  0  0  0  0  0  0  0  0  0  0
   -0.0150   14.0590   -0.1920 N   0  0  0  0  0  0  0  0  0  0  0  0
   -0.3030   14.0660    1.2540 C   0  0  0  0  0  0  0  0  0  0  0  0
   -7.0130   14.3390    1.8530 C   0  0  2  0  0  0  0  0  0  0  0  0
   -7.2850   14.1800   -0.6860 N   0  0  0  0  0  0  0  0  0  0  0  0
   -5.4420   14.1670   -2.2070 C   0  0  0  0  0  0  0  0  0  0  0  0
   -0.5530   14.4460   -3.2410 C   0  0  0  0  0  0  0  0  0  0  0  0
   -7.5570   13.6730    3.0330 N   0  0  0  0  0  0  0  0  0  0  0  0
   -7.8690   13.9350    0.6330 C   0  0  0  0  0  0  0  0  0  0  0  0
   -0.1760   15.3860   -4.4420 C   0  0  2  0  0  0  0  0  0  0  0  0
    1.1660   16.0970   -4.2230 C   0  0  0  0  0  0  0  0  0  0  0  0
   -1.2250   16.3500   -4.8900 N   0  0  0  0  0  0  0  0  0  0  0  0
   -0.5290   17.4720   -5.5300 C   0  0  2  0  0  0  0  0  0  0  0  0
    0.8510   17.8630   -4.4500 S   0  0  0  0  0  0  0  0  0  0  0  0
   -1.4310   18.6740   -5.7810 C   0  0  0  0  0  0  0  0  0  0  0  0
  2  1  1  1
  2  3  1  0
  2  4  1  0
  2  5  1  0
  4  6  1  0
  3  7  1  0
  3  8  1  1
  5  9  1  1
  5 10  1  0
  4 11  1  0
  6 12  1  0
  7 12  1  0
  7 13  1  1
  8 14  1  0
 13 14  1  0
  9 15  1  0
 10 16  1  0
 10 17  1  6
 11 17  1  0
 12 18  1  0
 15 19  1  1
 15 20  1  0
 16 20  1  0
 21 18  1  1
 21 22  1  0
 21 23  1  0
 23 24  1  0
 22 25  1  0
 24 25  1  0
 24 26  1  1
M  END
