ucsf172-ucsf378
     RDKit          3D

 25 26  0  0  0  0  0  0  0  0999 V2000
   -8.2890   14.8570    2.2430 C   0  0  0  0  0  0  0  0  0  0  0  0
   -6.9580   14.4370    1.1830 S   0  0  0  0  0  0  0  0  0  0  0  0
   -6.8120   12.8640    1.3620 O   0  0  0  0  0  0  0  0  0  0  0  0
   -7.5320   14.6670   -0.2930 O   0  0  0  0  0  0  0  0  0  0  0  0
   -5.4960   15.1490    1.4120 N   0  0  0  0  0  0  0  0  0  0  0  0
   -4.4650   15.4310    0.4080 C   0  0  1  0  0  0  0  0  0  0  0  0
   -3.2050   14.6280    0.7260 C   0  0  0  0  0  0  0  0  0  0  0  0
   -5.0110   15.1940   -1.0250 C   0  0  0  0  0  0  0  0  0  0  0  0
   -2.7420   13.7490   -0.4130 C   0  0  0  0  0  0  0  0  0  0  0  0
   -3.9670   15.1230   -2.1520 C   0  0  0  0  0  0  0  0  0  0  0  0
   -2.6140   14.5710   -1.6840 C   0  0  2  0  0  0  0  0  0  0  0  0
   -1.8270   13.7940   -2.7300 C   0  0  2  0  0  0  0  0  0  0  0  0
   -0.4490   13.9340   -2.4560 O   0  0  0  0  0  0  0  0  0  0  0  0
   -2.0650   14.2960   -4.0200 O   0  0  0  0  0  0  0  0  0  0  0  0
   -0.8690   14.4210   -4.7750 C   0  0  2  0  0  0  0  0  0  0  0  0
    0.2490   13.3510   -4.4830 C   0  0  2  0  0  0  0  0  0  0  0  0
   -0.5030   15.9090   -4.7060 C   0  0  0  0  0  0  0  0  0  0  0  0
   -0.1950   11.9950   -3.8270 C   0  0  0  0  0  0  0  0  0  0  0  0
    1.5450   13.8980   -3.8450 C   0  0  1  0  0  0  0  0  0  0  0  0
    0.6560   16.2100   -3.7870 C   0  0  0  0  0  0  0  0  0  0  0  0
    2.9380   12.9060   -4.3820 Cl  0  0  0  0  0  0  0  0  0  0  0  0
    0.4940   11.5080   -2.5200 C   0  0  1  0  0  0  0  0  0  0  0  0
    1.8220   15.3520   -4.1580 C   0  0  0  0  0  0  0  0  0  0  0  0
   -0.1220   11.9170   -1.4230 O   0  0  0  0  0  0  0  0  0  0  0  0
    0.3320   10.1160   -2.4240 O   0  0  0  0  0  0  0  0  0  0  0  0
  1  2  1  0
  2  3  1  0
  2  4  1  0
  2  5  1  0
  6  5  1  1
  6  7  1  0
  6  8  1  0
  7  9  1  0
  8 10  1  0
 11  9  1  1
 10 11  1  0
 11 12  1  0
 12 13  1  1
 12 14  1  0
 15 14  1  1
 15 16  1  0
 15 17  1  0
 16 18  1  1
 16 19  1  0
 17 20  1  0
 19 21  1  6
 18 22  1  0
 19 23  1  0
 20 23  1  0
 22 24  1  1
 22 25  1  0
M  CHG  1  24  -1
M  END
