ucsf190-ucsf005
     RDKit          3D

 27 30  0  0  0  0  0  0  0  0999 V2000
    0.6350   10.5210   -2.4820 O   0  0  0  0  0  0  0  0  0  0  0  0
    1.1610   11.7510   -2.4400 C   0  0  2  0  0  0  0  0  0  0  0  0
    0.1520   12.4030   -1.7100 O   0  0  0  0  0  0  0  0  0  0  0  0
    1.4260   12.3540   -3.8390 C   0  0  0  0  0  0  0  0  0  0  0  0
    1.0460   13.8190   -3.9400 C   0  0  2  0  0  0  0  0  0  0  0  0
   -0.3910   13.9890   -4.3690 C   0  0  1  0  0  0  0  0  0  0  0  0
    1.8690   14.6910   -4.7450 N   0  0  0  0  0  0  0  0  0  0  0  0
   -0.7460   15.4670   -4.1960 C   0  0  1  0  0  0  0  0  0  0  0  0
    1.6870   16.0910   -4.3340 N   0  0  0  0  0  0  0  0  0  0  0  0
   -0.8710   13.3730   -5.6760 C   0  0  0  0  0  0  0  0  0  0  0  0
    0.3090   16.5610   -4.5760 C   0  0  1  0  0  0  0  0  0  0  0  0
   -2.2580   15.5890   -4.4190 C   0  0  2  0  0  0  0  0  0  0  0  0
   -2.3570   13.6810   -6.0380 C   0  0  0  0  0  0  0  0  0  0  0  0
    0.2310   17.2070   -5.8230 O   0  0  0  0  0  0  0  0  0  0  0  0
   -2.6710   14.5600   -3.3850 C   0  0  0  0  0  0  0  0  0  0  0  0
   -2.8690   15.1030   -5.7280 C   0  0  0  0  0  0  0  0  0  0  0  0
   -3.0600   15.1930   -2.1810 N   0  0  0  0  0  0  0  0  0  0  0  0
   -4.5220   15.1530   -2.1420 C   0  0  0  0  0  0  0  0  0  0  0  0
   -2.6640   14.4530   -1.0060 C   0  0  2  0  0  0  0  0  0  0  0  0
   -4.9020   14.7520   -0.7950 N   0  0  0  0  0  0  0  0  0  0  0  0
   -3.6530   15.1340   -0.1180 C   0  0  1  0  0  0  0  0  0  0  0  0
   -1.2850   14.7330   -0.5940 N   0  0  0  0  0  0  0  0  0  0  0  0
   -3.3900   14.6790    1.2820 C   0  0  2  0  0  0  0  0  0  0  0  0
   -1.0430   14.3200    0.7560 C   0  0  1  0  0  0  0  0  0  0  0  0
   -4.1460   15.5280    2.1620 N   0  0  0  0  0  0  0  0  0  0  0  0
    0.1200   15.0210    1.1300 N   0  0  0  0  0  0  0  0  0  0  0  0
   -2.0150   14.8640    1.6520 N   0  0  0  0  0  0  0  0  0  0  0  0
  2  1  1  6
  2  3  1  0
  2  4  1  0
  5  4  1  6
  5  6  1  0
  5  7  1  0
  6  8  1  0
  7  9  1  0
  6 10  1  6
  8 11  1  6
  9 11  1  0
  8 12  1  0
 10 13  1  0
 11 14  1  6
 12 15  1  1
 12 16  1  0
 13 16  1  0
 15 17  1  0
 17 18  1  0
 17 19  1  0
 18 20  1  0
 19 21  1  0
 21 20  1  6
 19 22  1  1
 21 23  1  0
 22 24  1  0
 23 25  1  1
 24 26  1  1
 23 27  1  0
 24 27  1  0
M  CHG  1   1  -1
M  END
