ucsf340-ucsf123
     RDKit          3D

 23 24  0  0  0  0  0  0  0  0999 V2000
    0.9530   17.1510   -5.1420 C   0  0  0  0  0  0  0  0  0  0  0  0
   -0.2240   16.0110   -4.4490 S   0  0  1  0  0  0  0  0  0  0  0  0
   -1.0940   16.6870   -3.2190 N   0  0  0  0  0  0  0  0  0  0  0  0
    0.3590   18.3570   -5.7220 N   0  0  0  0  0  0  0  0  0  0  0  0
   -1.3200   15.8930   -5.5920 O   0  0  0  0  0  0  0  0  0  0  0  0
   -0.9180   18.2150   -6.4010 C   0  0  0  0  0  0  0  0  0  0  0  0
    0.2110   14.2740   -4.2590 C   0  0  1  0  0  0  0  0  0  0  0  0
   -2.0980   17.7440   -5.5340 C   0  0  0  0  0  0  0  0  0  0  0  0
    1.1860   13.8560   -5.3440 C   0  0  0  0  0  0  0  0  0  0  0  0
    0.8790   13.8270   -2.9110 C   0  0  1  0  0  0  0  0  0  0  0  0
    0.3020   12.5680   -2.1970 C   0  0  2  0  0  0  0  0  0  0  0  0
   -3.0120   16.6320   -6.1590 C   0  0  0  0  0  0  0  0  0  0  0  0
    2.3620   13.7770   -3.2690 C   0  0  0  0  0  0  0  0  0  0  0  0
    2.3040   13.1070   -4.6280 C   0  0  0  0  0  0  0  0  0  0  0  0
   -1.1540   12.2470   -2.5440 C   0  0  0  0  0  0  0  0  0  0  0  0
    0.3520   12.7430   -0.8000 O   0  0  0  0  0  0  0  0  0  0  0  0
    0.9860   11.4690   -2.3590 O   0  0  0  0  0  0  0  0  0  0  0  0
   -2.8730   15.2090   -5.6030 C   0  0  0  0  0  0  0  0  0  0  0  0
   -1.8560   13.4160   -3.2270 C   0  0  0  0  0  0  0  0  0  0  0  0
   -3.7550   14.9190   -4.3920 C   0  0  0  0  0  0  0  0  0  0  0  0
   -2.3190   14.5600   -2.3060 C   0  0  2  0  0  0  0  0  0  0  0  0
   -3.2040   15.5430   -3.1060 C   0  0  0  0  0  0  0  0  0  0  0  0
   -1.1780   15.2860   -1.5670 C   0  0  0  0  0  0  0  0  0  0  0  0
  1  2  1  0
  2  3  1  1
  1  4  1  0
  2  5  1  0
  4  6  1  0
  2  7  1  0
  6  8  1  0
  7  9  1  6
  7 10  1  0
 10 11  1  0
  8 12  1  0
 10 13  1  6
  9 14  1  0
 13 14  1  0
 11 15  1  0
 11 16  1  1
 11 17  1  0
 12 18  1  0
 15 19  1  0
 18 20  1  0
 19 21  1  0
 20 22  1  0
 21 22  1  0
 21 23  1  6
M  CHG  1  17  -1
M  END
