ucsf367-ucsf378
     RDKit          3D

 19 20  0  0  0  0  0  0  0  0999 V2000
    0.5220   10.2990   -2.4070 O   0  0  0  0  0  0  0  0  0  0  0  0
   -0.0040   11.4620   -2.7870 C   0  0  1  0  0  0  0  0  0  0  0  0
    0.4620   12.2190   -1.6860 O   0  0  0  0  0  0  0  0  0  0  0  0
    0.6250   11.9830   -4.1360 C   0  0  1  0  0  0  0  0  0  0  0  0
    0.4740   11.1760   -5.3360 O   0  0  0  0  0  0  0  0  0  0  0  0
    0.3640   13.3840   -4.7330 C   0  0  2  0  0  0  0  0  0  0  0  0
   -0.5970   10.2650   -5.3770 C   0  0  0  0  0  0  0  0  0  0  0  0
    1.6620   14.1220   -4.7280 C   0  0  2  0  0  0  0  0  0  0  0  0
   -0.8510   14.3440   -4.5130 C   0  0  1  0  0  0  0  0  0  0  0  0
   -2.3140   13.6950   -3.7250 Cl  0  0  0  0  0  0  0  0  0  0  0  0
    3.0410   13.0050   -4.5700 Cl  0  0  0  0  0  0  0  0  0  0  0  0
   -0.5630    9.5100   -6.7030 C   0  0  0  0  0  0  0  0  0  0  0  0
   -1.8850   11.0650   -5.2700 C   0  0  0  0  0  0  0  0  0  0  0  0
    1.7930   15.2830   -3.8060 C   0  0  0  0  0  0  0  0  0  0  0  0
   -0.5900   15.7480   -3.9630 C   0  0  0  0  0  0  0  0  0  0  0  0
   -1.7430    8.5580   -6.8010 C   0  0  0  0  0  0  0  0  0  0  0  0
   -3.0980   10.1510   -5.3480 C   0  0  0  0  0  0  0  0  0  0  0  0
    0.7910   16.3030   -4.2460 C   0  0  0  0  0  0  0  0  0  0  0  0
   -3.0730    9.2780   -6.5990 C   0  0  0  0  0  0  0  0  0  0  0  0
  2  1  1  1
  2  3  1  0
  2  4  1  0
  4  5  1  6
  4  6  1  0
  5  7  1  0
  6  8  1  1
  6  9  1  0
  9 10  1  1
  8 11  1  1
  7 12  1  0
  7 13  1  0
  8 14  1  0
  9 15  1  0
 12 16  1  0
 13 17  1  0
 14 18  1  0
 15 18  1  0
 16 19  1  0
 17 19  1  0
M  CHG  1   1  -1
M  END
