ucsf260-ucsf387
     RDKit          3D

 22 24  0  0  0  0  0  0  0  0999 V2000
    0.9960   11.5150   -3.0750 O   0  0  0  0  0  0  0  0  0  0  0  0
    1.4780   12.7460   -3.1010 C   0  0  2  0  0  0  0  0  0  0  0  0
    0.6880   13.3480   -2.1070 O   0  0  0  0  0  0  0  0  0  0  0  0
    1.3360   13.4210   -4.5420 C   0  0  1  0  0  0  0  0  0  0  0  0
    0.9570   12.4000   -5.6160 C   0  0  0  0  0  0  0  0  0  0  0  0
    0.4470   14.7200   -4.6910 C   0  0  1  0  0  0  0  0  0  0  0  0
   -0.4470   12.0730   -5.9660 N   0  0  0  0  0  0  0  0  0  0  0  0
   -1.0620   14.4580   -4.5870 C   0  0  0  0  0  0  0  0  0  0  0  0
    0.9060   15.9760   -3.9500 C   0  0  0  0  0  0  0  0  0  0  0  0
   -1.2710   11.6120   -4.8380 C   0  0  0  0  0  0  0  0  0  0  0  0
   -0.2920   10.8150   -6.6560 C   0  0  1  0  0  0  0  0  0  0  0  0
   -1.9310   15.7130   -4.5810 C   0  0  2  0  0  0  0  0  0  0  0  0
    0.1760   17.2350   -4.4300 C   0  0  1  0  0  0  0  0  0  0  0  0
    1.0610   18.1820   -5.6460 Cl  0  0  0  0  0  0  0  0  0  0  0  0
   -3.3810   15.4730   -5.6070 Cl  0  0  0  0  0  0  0  0  0  0  0  0
   -2.2140   10.6030   -5.4020 N   0  0  0  0  0  0  0  0  0  0  0  0
   -1.7050   10.3420   -6.7680 C   0  0  2  0  0  0  0  0  0  0  0  0
    0.4060   10.8920   -7.9910 C   0  0  0  0  0  0  0  0  0  0  0  0
   -1.2140   16.9910   -5.0190 C   0  0  0  0  0  0  0  0  0  0  0  0
   -1.7490    8.8860   -7.2280 C   0  0  0  0  0  0  0  0  0  0  0  0
    0.3380    9.5160   -8.6390 C   0  0  0  0  0  0  0  0  0  0  0  0
   -0.3830    8.4540   -7.7840 C   0  0  0  0  0  0  0  0  0  0  0  0
  2  1  1  6
  2  3  1  0
  2  4  1  0
  4  5  1  6
  4  6  1  0
  5  7  1  0
  6  8  1  1
  6  9  1  0
  7 10  1  0
  7 11  1  0
  8 12  1  0
  9 13  1  0
 13 14  1  6
 12 15  1  6
 10 16  1  0
 11 17  1  0
 16 17  1  0
 11 18  1  6
 12 19  1  0
 13 19  1  0
 17 20  1  1
 18 21  1  0
 20 22  1  0
 21 22  1  0
M  CHG  1   1  -1
M  END
