ucsf411-ucsf172
     RDKit          3D

 29 31  0  0  0  0  0  0  0  0999 V2000
    0.6400   10.5140   -2.3450 O   0  0  0  0  0  0  0  0  0  0  0  0
    0.2310   11.7550   -2.5870 C   0  0  1  0  0  0  0  0  0  0  0  0
    0.5200   12.3690   -1.3390 O   0  0  0  0  0  0  0  0  0  0  0  0
    1.0460   12.4640   -3.7360 C   0  0  0  0  0  0  0  0  0  0  0  0
    0.7170   13.8750   -3.9370 O   0  0  0  0  0  0  0  0  0  0  0  0
    0.0850   14.2700   -5.1730 C   0  0  2  0  0  0  0  0  0  0  0  0
   -0.0830   15.8390   -5.2290 C   0  0  1  0  0  0  0  0  0  0  0  0
   -1.2190   13.4950   -5.4440 C   0  0  0  0  0  0  0  0  0  0  0  0
   -1.5160   16.4620   -5.1800 C   0  0  2  0  0  0  0  0  0  0  0  0
   -2.4300   14.2340   -4.9040 C   0  0  1  0  0  0  0  0  0  0  0  0
    0.7900   16.6210   -4.2790 C   0  0  0  0  0  0  0  0  0  0  0  0
   -2.1140   14.7530   -3.6440 O   0  0  0  0  0  0  0  0  0  0  0  0
   -2.6760   15.5430   -5.6010 C   0  0  0  0  0  0  0  0  0  0  0  0
   -1.5420   17.8460   -5.8200 C   0  0  0  0  0  0  0  0  0  0  0  0
    0.6890   18.1120   -4.6240 C   0  0  0  0  0  0  0  0  0  0  0  0
   -1.8530   13.7910   -2.6850 C   0  0  1  0  0  0  0  0  0  0  0  0
   -0.1320   18.4220   -5.8850 C   0  0  0  0  0  0  0  0  0  0  0  0
   -0.5430   13.9780   -2.1750 O   0  0  0  0  0  0  0  0  0  0  0  0
   -2.8860   14.0260   -1.5900 C   0  0  1  0  0  0  0  0  0  0  0  0
   -2.2200   14.2930   -0.2410 C   0  0  0  0  0  0  0  0  0  0  0  0
   -3.8880   15.1290   -1.9880 C   0  0  0  0  0  0  0  0  0  0  0  0
   -3.2520   14.4510    0.8540 C   0  0  0  0  0  0  0  0  0  0  0  0
   -4.9780   15.2860   -0.9370 C   0  0  0  0  0  0  0  0  0  0  0  0
   -4.4240   15.3880    0.5030 C   0  0  1  0  0  0  0  0  0  0  0  0
   -5.4960   15.1390    1.4700 N   0  0  0  0  0  0  0  0  0  0  0  0
   -6.9570   14.4430    1.1990 S   0  0  0  0  0  0  0  0  0  0  0  0
   -8.2600   14.8640    2.2960 C   0  0  0  0  0  0  0  0  0  0  0  0
   -6.8640   12.8540    1.3000 O   0  0  0  0  0  0  0  0  0  0  0  0
   -7.5510   14.7620   -0.2510 O   0  0  0  0  0  0  0  0  0  0  0  0
  2  1  1  1
  2  3  1  0
  2  4  1  0
  4  5  1  0
  6  5  1  1
  6  7  1  0
  6  8  1  0
  7  9  1  0
  8 10  1  0
  7 11  1  1
 10 12  1  1
  9 13  1  6
 10 13  1  0
  9 14  1  0
 11 15  1  0
 12 16  1  0
 14 17  1  0
 15 17  1  0
 16 18  1  1
 16 19  1  0
 19 20  1  1
 19 21  1  0
 20 22  1  0
 21 23  1  0
 22 24  1  0
 23 24  1  0
 24 25  1  1
 25 26  1  0
 26 27  1  0
 26 28  1  0
 26 29  1  0
M  CHG  1   1  -1
M  END
