ucsf169
     RDKit          3D

 13 13  0  0  0  0  0  0  0  0999 V2000
    1.4720   18.2400   -5.1890 C   0  0  0  0  0  0  0  0  0  0  0  0
    0.1840   18.2010   -4.6490 O   0  0  0  0  0  0  0  0  0  0  0  0
   -0.3840   16.9240   -4.6310 C   0  0  0  0  0  0  0  0  0  0  0  0
    0.4270   15.8090   -4.4950 C   0  0  0  0  0  0  0  0  0  0  0  0
   -0.1350   14.5430   -4.4780 C   0  0  0  0  0  0  0  0  0  0  0  0
    0.7600   13.3130   -4.3280 C   0  0  0  0  0  0  0  0  0  0  0  0
    0.5160   12.5750   -3.0130 C   0  0  0  0  0  0  0  0  0  0  0  0
    0.9150   13.0750   -1.9270 O   0  0  0  0  0  0  0  0  0  0  0  0
   -0.0830   11.4690   -3.0130 O   0  0  0  0  0  0  0  0  0  0  0  0
   -1.5060   14.3920   -4.5960 C   0  0  0  0  0  0  0  0  0  0  0  0
   -2.3170   15.5060   -4.7320 C   0  0  0  0  0  0  0  0  0  0  0  0
   -1.7550   16.7730   -4.7490 C   0  0  0  0  0  0  0  0  0  0  0  0
   -2.5740   17.8990   -4.8870 O   0  0  0  0  0  0  0  0  0  0  0  0
  1  2  1  0
  2  3  1  0
  3  4  1  0
  4  5  1  0
  5  6  1  0
  6  7  1  0
  7  8  1  0
  7  9  1  0
  5 10  1  0
 10 11  1  0
  3 12  1  0
 11 12  1  0
 12 13  1  0
M  CHG  1   9  -1
M  END
