ucsf190-ucsf169
     RDKit          3D

 17 18  0  0  0  0  0  0  0  0999 V2000
    0.6000   10.5220   -2.4230 O   0  0  0  0  0  0  0  0  0  0  0  0
    0.3970   11.8070   -2.7270 C   0  0  1  0  0  0  0  0  0  0  0  0
    0.7640   12.4120   -1.5070 O   0  0  0  0  0  0  0  0  0  0  0  0
    1.3380   12.2430   -3.9060 C   0  0  0  0  0  0  0  0  0  0  0  0
    1.1900   13.6550   -4.5680 C   0  0  1  0  0  0  0  0  0  0  0  0
   -0.2260   14.1150   -5.0460 C   0  0  2  0  0  0  0  0  0  0  0  0
    1.9470   14.6460   -3.7590 N   0  0  0  0  0  0  0  0  0  0  0  0
   -0.4510   15.6940   -5.0610 C   0  0  2  0  0  0  0  0  0  0  0  0
    1.7900   16.0000   -4.2680 N   0  0  0  0  0  0  0  0  0  0  0  0
   -1.3750   13.3210   -4.4300 C   0  0  0  0  0  0  0  0  0  0  0  0
    0.4290   16.4770   -4.0890 C   0  0  1  0  0  0  0  0  0  0  0  0
   -1.9270   16.2290   -5.1280 C   0  0  2  0  0  0  0  0  0  0  0  0
   -2.7210   13.8400   -4.8950 C   0  0  0  0  0  0  0  0  0  0  0  0
    0.2690   17.8730   -4.3530 O   0  0  0  0  0  0  0  0  0  0  0  0
   -2.0360   17.6000   -4.6750 O   0  0  0  0  0  0  0  0  0  0  0  0
   -2.9380   15.2900   -4.4790 C   0  0  0  0  0  0  0  0  0  0  0  0
    1.0540   18.2770   -5.4640 C   0  0  0  0  0  0  0  0  0  0  0  0
  2  1  1  1
  2  3  1  0
  2  4  1  0
  5  4  1  1
  5  6  1  0
  5  7  1  0
  6  8  1  0
  7  9  1  0
  6 10  1  1
  8 11  1  1
  9 11  1  0
  8 12  1  0
 10 13  1  0
 11 14  1  6
 12 15  1  1
 12 16  1  0
 13 16  1  0
 14 17  1  0
M  CHG  1   1  -1
M  END
