ucsf170-ucsf172
     RDKit          3D

 16 16  0  0  0  0  0  0  0  0999 V2000
   -5.0150   15.2840    1.2170 C   0  0  0  0  0  0  0  0  0  0  0  0
   -3.3870   14.4810    1.2180 S   0  0  0  0  0  0  0  0  0  0  0  0
   -3.0140   14.2480   -0.5610 C   0  0  2  0  0  0  0  0  0  0  0  0
   -6.5690   14.3670    1.2720 S   0  0  0  0  0  0  0  0  0  0  0  0
   -7.7910   14.9070    2.4340 C   0  0  0  0  0  0  0  0  0  0  0  0
   -6.3050   12.8590    1.7330 O   0  0  0  0  0  0  0  0  0  0  0  0
   -7.2980   14.4340   -0.1670 O   0  0  0  0  0  0  0  0  0  0  0  0
   -1.5120   14.4010   -0.7340 C   0  0  0  0  0  0  0  0  0  0  0  0
   -3.7900   15.1950   -1.4790 C   0  0  0  0  0  0  0  0  0  0  0  0
   -0.9740   14.6070   -2.1880 C   0  0  1  0  0  0  0  0  0  0  0  0
   -3.5110   14.8770   -2.9510 C   0  0  0  0  0  0  0  0  0  0  0  0
    0.1080   13.5770   -2.6230 C   0  0  2  0  0  0  0  0  0  0  0  0
   -2.0270   14.9290   -3.3330 C   0  0  2  0  0  0  0  0  0  0  0  0
   -1.9050   14.1050   -4.4930 O   0  0  0  0  0  0  0  0  0  0  0  0
    1.2630   13.6410   -1.8080 O   0  0  0  0  0  0  0  0  0  0  0  0
    0.6310   13.8410   -3.7870 O   0  0  0  0  0  0  0  0  0  0  0  0
  1  2  1  0
  3  2  1  1
  1  4  1  0
  4  5  1  0
  4  6  1  0
  4  7  1  0
  3  8  1  0
  3  9  1  0
 10  8  1  1
  9 11  1  0
 10 12  1  0
 10 13  1  0
 11 13  1  0
 13 14  1  6
 12 15  1  1
 12 16  1  0
M  CHG  1  16  -1
M  END
