ucsf264-ucsf357
     RDKit          3D

 29 31  0  0  0  0  0  0  0  0999 V2000
    1.6540   12.3810   -2.5830 O   0  0  0  0  0  0  0  0  0  0  0  0
    0.5020   12.1570   -3.1880 C   0  0  2  0  0  0  0  0  0  0  0  0
    0.4950   10.7370   -3.2070 O   0  0  0  0  0  0  0  0  0  0  0  0
    0.5020   12.7700   -4.6600 C   0  0  2  0  0  0  0  0  0  0  0  0
   -0.5070   13.9830   -4.6750 C   0  0  0  0  0  0  0  0  0  0  0  0
    0.3320   11.6650   -5.6840 N   0  0  0  0  0  0  0  0  0  0  0  0
   -1.6250   13.9310   -3.7520 O   0  0  0  0  0  0  0  0  0  0  0  0
    1.1150   11.7860   -6.9260 N   0  0  0  0  0  0  0  0  0  0  0  0
   -0.9720   11.1380   -6.0460 C   0  0  1  0  0  0  0  0  0  0  0  0
    0.2940   11.1040   -7.9700 C   0  0  2  0  0  0  0  0  0  0  0  0
   -0.5460   10.1640   -7.1320 C   0  0  2  0  0  0  0  0  0  0  0  0
   -1.7410   10.4340   -4.9240 C   0  0  0  0  0  0  0  0  0  0  0  0
   -1.8060   14.9760   -2.7520 C   0  0  1  0  0  0  0  0  0  0  0  0
    0.9270   10.4080   -9.1870 C   0  0  0  0  0  0  0  0  0  0  0  0
   -1.7350    9.4530   -7.7490 C   0  0  0  0  0  0  0  0  0  0  0  0
   -2.9150    9.6300   -5.4810 C   0  0  0  0  0  0  0  0  0  0  0  0
   -3.3320   15.1580   -2.6010 C   0  0  0  0  0  0  0  0  0  0  0  0
   -1.1160   14.6310   -1.4000 C   0  0  1  0  0  0  0  0  0  0  0  0
    1.5950    9.2760   -8.8470 F   0  0  0  0  0  0  0  0  0  0  0  0
   -0.0130   10.0240  -10.0680 F   0  0  0  0  0  0  0  0  0  0  0  0
    1.7350   11.1860   -9.9280 F   0  0  0  0  0  0  0  0  0  0  0  0
    0.2800   14.9560   -1.4590 O   0  0  0  0  0  0  0  0  0  0  0  0
   -2.5020    8.7190   -6.6470 C   0  0  0  0  0  0  0  0  0  0  0  0
   -3.8750   14.6360   -1.2600 C   0  0  2  0  0  0  0  0  0  0  0  0
   -1.6680   15.3920   -0.1960 C   0  0  0  0  0  0  0  0  0  0  0  0
   -5.4280   14.5970   -1.2150 C   0  0  2  0  0  0  0  0  0  0  0  0
   -3.1840   15.3010   -0.0470 C   0  0  0  0  0  0  0  0  0  0  0  0
   -5.9610   15.2680   -2.2060 O   0  0  0  0  0  0  0  0  0  0  0  0
   -5.9030   15.3040   -0.0920 O   0  0  0  0  0  0  0  0  0  0  0  0
  2  1  1  6
  2  3  1  0
  2  4  1  0
  4  5  1  1
  4  6  1  0
  5  7  1  0
  6  8  1  0
  6  9  1  0
  8 10  1  0
  9 11  1  0
 10 11  1  0
  9 12  1  1
 13  7  1  6
 10 14  1  6
 11 15  1  6
 12 16  1  0
 13 17  1  0
 13 18  1  0
 14 19  1  0
 14 20  1  0
 14 21  1  0
 18 22  1  6
 15 23  1  0
 16 23  1  0
 24 17  1  6
 18 25  1  0
 24 26  1  0
 24 27  1  0
 25 27  1  0
 26 28  1  6
 26 29  1  0
M  CHG  2   1  -1  28  -1
M  END
