ucsf243-ucsf520
     RDKit          3D

 20 22  0  0  0  0  0  0  0  0999 V2000
   -3.8790   15.5850    0.8470 C   0  0  0  0  0  0  0  0  0  0  0  0
   -3.3790   15.4150   -0.5970 C   0  0  2  0  0  0  0  0  0  0  0  0
   -4.4550   14.6940   -1.4290 C   0  0  0  0  0  0  0  0  0  0  0  0
   -1.9310   14.8440   -0.7910 C   0  0  1  0  0  0  0  0  0  0  0  0
   -1.6350   14.4480   -2.2800 C   0  0  2  0  0  0  0  0  0  0  0  0
   -4.1460   14.6450   -2.9190 C   0  0  0  0  0  0  0  0  0  0  0  0
   -0.8680   15.7470   -0.2000 C   0  0  0  0  0  0  0  0  0  0  0  0
   -1.6070   13.6200    0.0720 N   0  0  0  0  0  0  0  0  0  0  0  0
   -0.1710   14.7180   -2.8090 C   0  0  2  0  0  0  0  0  0  0  0  0
   -2.7140   15.0550   -3.2490 C   0  0  2  0  0  0  0  0  0  0  0  0
   -0.8200   15.4000    1.1940 N   0  0  0  0  0  0  0  0  0  0  0  0
   -0.6180   14.0080    1.0670 C   0  0  0  0  0  0  0  0  0  0  0  0
   -2.4510   14.6360   -4.6100 O   0  0  0  0  0  0  0  0  0  0  0  0
    0.1810   13.6310   -3.6470 O   0  0  0  0  0  0  0  0  0  0  0  0
    0.7670   14.6040   -1.8850 O   0  0  0  0  0  0  0  0  0  0  0  0
    0.0200   16.0110   -3.6500 C   0  0  2  0  0  0  0  0  0  0  0  0
   -1.1730   16.6970   -4.1060 O   0  0  0  0  0  0  0  0  0  0  0  0
    0.8600   15.8660   -4.9090 C   0  0  0  0  0  0  0  0  0  0  0  0
    0.7100   17.2650   -5.4420 C   0  0  0  0  0  0  0  0  0  0  0  0
   -0.7540   17.5660   -5.1670 C   0  0  0  0  0  0  0  0  0  0  0  0
  2  1  1  1
  2  3  1  0
  2  4  1  0
  4  5  1  0
  3  6  1  0
  4  7  1  1
  4  8  1  0
  5  9  1  0
  5 10  1  6
  6 10  1  0
  7 11  1  0
  8 12  1  0
 11 12  1  0
 10 13  1  6
  9 14  1  6
  9 15  1  0
  9 16  1  0
 16 17  1  0
 16 18  1  6
 18 19  1  0
 17 20  1  0
 19 20  1  0
M  CHG  1  15  -1
M  END
