ucsf012
     RDKit          3D

 18 20  0  0  0  0  0  0  0  0999 V2000
   -3.5010   14.9960   -3.9540 C   0  0  0  0  0  0  0  0  0  0  0  0
   -2.8080   14.9290   -2.6050 C   0  0  0  0  0  0  0  0  0  0  0  0
   -3.4260   15.0640   -1.3880 C   0  0  0  0  0  0  0  0  0  0  0  0
   -4.8930   15.2740   -1.1570 C   0  0  0  0  0  0  0  0  0  0  0  0
   -2.4690   14.9510   -0.3840 C   0  0  0  0  0  0  0  0  0  0  0  0
   -2.5090   15.0020    1.0260 C   0  0  0  0  0  0  0  0  0  0  0  0
   -3.7670   15.2150    1.7300 N   0  0  0  0  0  0  0  0  0  0  0  0
   -1.3630   14.8500    1.6710 N   0  0  0  0  0  0  0  0  0  0  0  0
   -0.2170   14.6640    1.0210 C   0  0  0  0  0  0  0  0  0  0  0  0
   -0.1430   14.6140   -0.2990 N   0  0  0  0  0  0  0  0  0  0  0  0
   -1.2740   14.7570   -1.0330 C   0  0  0  0  0  0  0  0  0  0  0  0
   -1.5170   14.7640   -2.3860 N   0  0  0  0  0  0  0  0  0  0  0  0
   -0.5260   14.5740   -3.4320 C   0  0  0  0  0  0  0  0  0  0  0  0
   -0.3120   13.0670   -3.5570 C   0  0  0  0  0  0  0  0  0  0  0  0
    0.5900   12.3140   -2.8180 C   0  0  0  0  0  0  0  0  0  0  0  0
    0.4550   11.0000   -3.2290 C   0  0  0  0  0  0  0  0  0  0  0  0
   -0.5260   10.9680   -4.2090 C   0  0  0  0  0  0  0  0  0  0  0  0
   -0.9710   12.2260   -4.3780 O   0  0  0  0  0  0  0  0  0  0  0  0
  1  2  1  0
  2  3  1  0
  3  4  1  0
  3  5  1  0
  5  6  1  0
  6  7  1  0
  6  8  1  0
  8  9  1  0
  9 10  1  0
  5 11  1  0
 10 11  1  0
  2 12  1  0
 11 12  1  0
 12 13  1  0
 13 14  1  0
 14 15  1  0
 15 16  1  0
 16 17  1  0
 14 18  1  0
 17 18  1  0
M  END
