ucsf385-ucsf013
     RDKit          3D

 21 23  0  0  0  0  0  0  0  0999 V2000
   -3.0880   13.2270   -0.2780 N   0  0  0  0  0  0  0  0  0  0  0  0
   -2.4590   14.5630   -0.4080 C   0  0  1  0  0  0  0  0  0  0  0  0
   -2.2900   15.0770    1.0690 C   0  0  0  0  0  0  0  0  0  0  0  0
   -0.9950   14.2990   -0.9990 C   0  0  1  0  0  0  0  0  0  0  0  0
   -3.6590   15.2940   -1.0610 C   0  0  2  0  0  0  0  0  0  0  0  0
   -0.5570   14.8640   -2.3900 C   0  0  1  0  0  0  0  0  0  0  0  0
    0.0320   14.7730    0.0770 C   0  0  0  0  0  0  0  0  0  0  0  0
   -1.5880   14.1530    1.8720 N   0  0  0  0  0  0  0  0  0  0  0  0
   -5.0620   15.3000   -0.3300 C   0  0  2  0  0  0  0  0  0  0  0  0
   -3.6310   15.2720   -2.5990 C   0  0  0  0  0  0  0  0  0  0  0  0
    0.4310   14.0480   -2.9570 O   0  0  0  0  0  0  0  0  0  0  0  0
   -1.4850   14.7020   -3.3070 O   0  0  0  0  0  0  0  0  0  0  0  0
   -0.2070   14.1170    1.4410 C   0  0  0  0  0  0  0  0  0  0  0  0
   -5.2360   14.9320    1.1620 C   0  0  2  0  0  0  0  0  0  0  0  0
   -6.1850   14.5970   -1.0900 C   0  0  1  0  0  0  0  0  0  0  0  0
   -4.8550   14.6430   -3.2330 C   0  0  0  0  0  0  0  0  0  0  0  0
   -4.2580   14.0910    1.7750 N   0  0  0  0  0  0  0  0  0  0  0  0
   -7.5270   14.8910   -0.5510 N   0  0  0  0  0  0  0  0  0  0  0  0
   -6.4240   14.1230    1.4180 N   0  0  0  0  0  0  0  0  0  0  0  0
   -6.1620   15.0010   -2.5460 C   0  0  0  0  0  0  0  0  0  0  0  0
   -7.6750   14.5510    0.8490 C   0  0  0  0  0  0  0  0  0  0  0  0
  2  1  1  1
  2  3  1  0
  2  4  1  0
  2  5  1  0
  4  6  1  0
  4  7  1  1
  3  8  1  0
  5  9  1  0
  5 10  1  6
  6 11  1  6
  6 12  1  0
  7 13  1  0
  8 13  1  0
  9 14  1  1
  9 15  1  0
 10 16  1  0
 14 17  1  6
 15 18  1  0
 14 19  1  0
 15 20  1  6
 16 20  1  0
 18 21  1  0
 19 21  1  0
M  CHG  1  12  -1
M  END
