ucsf338-ucsf345
     RDKit          3D

 12 12  0  0  0  0  0  0  0  0999 V2000
   -8.5730   13.3090   -0.3250 O   0  0  0  0  0  0  0  0  0  0  0  0
   -7.1120   13.3940   -0.4840 N   0  0  0  0  0  0  0  0  0  0  0  0
   -6.8340   14.7590   -0.1820 C   0  0  1  0  0  0  0  0  0  0  0  0
   -7.5490   15.5100   -1.1110 O   0  0  0  0  0  0  0  0  0  0  0  0
   -7.4950   14.8630    1.0980 N   0  0  0  0  0  0  0  0  0  0  0  0
   -5.3500   15.2190   -0.1150 C   0  0  2  0  0  0  0  0  0  0  0  0
   -4.3530   14.7240   -1.1780 C   0  0  1  0  0  0  0  0  0  0  0  0
   -4.8070   14.8700    1.2670 C   0  0  0  0  0  0  0  0  0  0  0  0
   -4.7640   15.1040   -2.4950 O   0  0  0  0  0  0  0  0  0  0  0  0
   -2.9570   15.3220   -0.9400 C   0  0  0  0  0  0  0  0  0  0  0  0
   -3.4810   15.5340    1.5170 C   0  0  0  0  0  0  0  0  0  0  0  0
   -2.4410   15.1530    0.4850 C   0  0  0  0  0  0  0  0  0  0  0  0
  1  2  1  0
  2  3  1  0
  3  4  1  0
  3  5  1  1
  3  6  1  0
  6  7  1  0
  6  8  1  1
  7  9  1  6
  7 10  1  0
  8 11  1  0
 10 12  1  0
 11 12  1  0
M  END
