ucsf170-ucsf404
     RDKit          3D

 18 19  0  0  0  0  0  0  0  0999 V2000
   -4.1450   15.6710    2.1550 C   0  0  0  0  0  0  0  0  0  0  0  0
   -3.0590   15.7740    0.9800 S   0  0  0  0  0  0  0  0  0  0  0  0
   -3.6150   14.2570   -0.3310 S   0  0  0  0  0  0  0  0  0  0  0  0
   -2.4950   13.5760   -1.4990 C   0  0  0  0  0  0  0  0  0  0  0  0
   -4.0800   14.7770   -1.9810 C   0  0  1  0  0  0  0  0  0  0  0  0
   -4.6250   13.0860    0.7020 C   0  0  0  0  0  0  0  0  0  0  0  0
   -5.0770   15.2900    0.4660 S   0  0  0  0  0  0  0  0  0  0  0  0
   -5.7360   15.3990   -1.8900 Cl  0  0  0  0  0  0  0  0  0  0  0  0
   -1.4050   14.3310   -2.0730 C   0  0  1  0  0  0  0  0  0  0  0  0
   -3.2440   15.2710   -3.0360 C   0  0  0  0  0  0  0  0  0  0  0  0
   -6.4360   14.3960    0.9600 C   0  0  1  0  0  0  0  0  0  0  0  0
   -6.0170   13.2700    0.2170 N   0  0  0  0  0  0  0  0  0  0  0  0
    0.0260   13.9140   -2.1970 C   0  0  1  0  0  0  0  0  0  0  0  0
   -6.4930   14.2360    2.4240 N   0  0  0  0  0  0  0  0  0  0  0  0
   -1.8490   14.9640   -3.3510 C   0  0  2  0  0  0  0  0  0  0  0  0
   -1.7800   14.0810   -4.4270 O   0  0  0  0  0  0  0  0  0  0  0  0
    0.5380   13.1100   -1.1620 O   0  0  0  0  0  0  0  0  0  0  0  0
    0.4720   13.5800   -3.4600 O   0  0  0  0  0  0  0  0  0  0  0  0
  1  2  1  0
  2  3  1  0
  3  4  1  0
  3  5  1  0
  3  6  1  0
  3  7  1  0
  5  8  1  1
  9  4  1  6
  5 10  1  0
  7 11  1  0
  6 12  1  0
 11 12  1  0
  9 13  1  0
 11 14  1  1
  9 15  1  0
 10 15  1  0
 15 16  1  6
 13 17  1  1
 13 18  1  0
M  CHG  1  18  -1
M  END
