ucsf187-ucsf242
     RDKit          3D

 13 14  0  0  0  0  0  0  0  0999 V2000
   14.4040    1.3910    6.0230 O   0  0  0  0  0  0  0  0  0  0  0  0
   14.8710    1.6240    7.2290 C   0  0  2  0  0  0  0  0  0  0  0  0
   14.1720    0.6720    8.0020 O   0  0  0  0  0  0  0  0  0  0  0  0
   14.5160    3.0770    7.6720 C   0  0  1  0  0  0  0  0  0  0  0  0
   14.6370    3.3620    9.1960 C   0  0  0  0  0  0  0  0  0  0  0  0
   15.2820    4.0760    6.7490 C   0  0  0  0  0  0  0  0  0  0  0  0
   14.4620    4.8250    9.5440 C   0  0  2  0  0  0  0  0  0  0  0  0
   15.4970    5.5160    7.2590 C   0  0  0  0  0  0  0  0  0  0  0  0
   15.4050    5.7040    8.7710 C   0  0  1  0  0  0  0  0  0  0  0  0
   14.8060    5.4120   10.9110 C   0  0  2  0  0  0  0  0  0  0  0  0
   14.0690    4.9520   12.0900 N   0  0  0  0  0  0  0  0  0  0  0  0
   15.0230    7.0300    9.1780 O   0  0  0  0  0  0  0  0  0  0  0  0
   14.5820    6.8820   10.5560 C   0  0  0  0  0  0  0  0  0  0  0  0
  2  1  1  6
  2  3  1  0
  2  4  1  0
  4  5  1  1
  4  6  1  0
  7  5  1  1
  6  8  1  0
  7  9  1  0
  9  8  1  6
  7 10  1  0
 10 11  1  1
  9 12  1  0
 10 13  1  0
 12 13  1  0
M  CHG  1   1  -1
M  END
