ucsf262-ucsf371
     RDKit          3D

 22 24  0  0  0  0  0  0  0  0999 V2000
   -3.0010   15.6930   -5.5200 Cl  0  0  0  0  0  0  0  0  0  0  0  0
   -1.6200   16.7230   -5.0230 C   0  0  1  0  0  0  0  0  0  0  0  0
   -0.2900   15.9170   -5.0710 C   0  0  2  0  0  0  0  0  0  0  0  0
   -1.6690   17.9760   -5.9100 C   0  0  0  0  0  0  0  0  0  0  0  0
   -0.0250   14.9300   -3.9300 C   0  0  2  0  0  0  0  0  0  0  0  0
    0.9860   16.7390   -5.1350 C   0  0  2  0  0  0  0  0  0  0  0  0
   -0.2990   18.5400   -6.2750 C   0  0  0  0  0  0  0  0  0  0  0  0
   -0.8050   15.3780   -2.8740 O   0  0  0  0  0  0  0  0  0  0  0  0
    1.4730   14.9510   -3.6840 C   0  0  1  0  0  0  0  0  0  0  0  0
    1.7380   16.3760   -3.9550 N   0  0  0  0  0  0  0  0  0  0  0  0
    0.7650   18.2310   -5.2360 C   0  0  0  0  0  0  0  0  0  0  0  0
    2.0330   14.5030   -2.2990 C   0  0  2  0  0  0  0  0  0  0  0  0
   -1.6920   14.3600   -2.7550 C   0  0  2  0  0  0  0  0  0  0  0  0
    3.3240   14.3490   -2.3400 O   0  0  0  0  0  0  0  0  0  0  0  0
    1.5810   13.2720   -1.7730 O   0  0  0  0  0  0  0  0  0  0  0  0
   -2.1040   14.0820   -4.0880 O   0  0  0  0  0  0  0  0  0  0  0  0
   -2.9100   14.6130   -1.8960 C   0  0  2  0  0  0  0  0  0  0  0  0
   -4.0800   15.1840   -2.6470 C   0  0  0  0  0  0  0  0  0  0  0  0
   -2.7810   15.7320   -0.4810 S   0  0  0  0  0  0  0  0  0  0  0  0
   -4.5870   15.6840   -0.3700 C   0  0  1  0  0  0  0  0  0  0  0  0
   -5.1710   15.3480   -1.6810 N   0  0  0  0  0  0  0  0  0  0  0  0
   -5.0340   14.7190    0.7060 C   0  0  0  0  0  0  0  0  0  0  0  0
  2  1  1  6
  3  2  1  1
  2  4  1  0
  3  5  1  0
  3  6  1  0
  4  7  1  0
  5  8  1  1
  5  9  1  0
  6 10  1  0
  9 10  1  1
  6 11  1  1
  7 11  1  0
  9 12  1  0
  8 13  1  0
 12 14  1  6
 12 15  1  0
 13 16  1  6
 13 17  1  0
 17 18  1  6
 17 19  1  0
 19 20  1  0
 18 21  1  0
 20 21  1  0
 20 22  1  1
M  CHG  1  14  -1
M  END
