ucsf345-ucsf519
     RDKit          3D

 19 19  0  0  0  0  0  0  0  0999 V2000
   -6.4360   14.7430    1.5700 N   0  0  0  0  0  0  0  0  0  0  0  0
   -6.4410   14.7600    0.1170 C   0  0  2  0  0  0  0  0  0  0  0  0
   -7.6200   14.1100   -0.2780 O   0  0  0  0  0  0  0  0  0  0  0  0
   -5.1540   14.1760   -0.5310 C   0  0  1  0  0  0  0  0  0  0  0  0
   -5.4790   14.0870   -1.9900 N   0  0  0  0  0  0  0  0  0  0  0  0
   -3.8450   14.9620   -0.1370 C   0  0  0  0  0  0  0  0  0  0  0  0
   -4.5430   14.8790   -2.7920 C   0  0  0  0  0  0  0  0  0  0  0  0
   -2.7660   15.1300   -1.1790 N   0  0  0  0  0  0  0  0  0  0  0  0
   -1.5340   14.5450   -0.6340 O   0  0  0  0  0  0  0  0  0  0  0  0
   -3.0900   14.5060   -2.4880 C   0  0  2  0  0  0  0  0  0  0  0  0
   -2.2350   14.7210   -3.8010 C   0  0  2  0  0  0  0  0  0  0  0  0
   -0.6800   14.9010   -3.8260 C   0  0  2  0  0  0  0  0  0  0  0  0
   -2.9080   15.6840   -4.6080 O   0  0  0  0  0  0  0  0  0  0  0  0
   -0.2340   16.2510   -4.4000 C   0  0  0  0  0  0  0  0  0  0  0  0
    0.2220   13.6360   -4.8240 S   0  0  0  0  0  0  0  0  0  0  0  0
   -0.0370   12.0630   -3.8830 C   0  0  0  0  0  0  0  0  0  0  0  0
    0.7920   11.5990   -2.6460 C   0  0  1  0  0  0  0  0  0  0  0  0
    0.4970   12.3420   -1.4780 O   0  0  0  0  0  0  0  0  0  0  0  0
    0.4910   10.3670   -2.2620 O   0  0  0  0  0  0  0  0  0  0  0  0
  2  1  1  1
  2  3  1  0
  2  4  1  0
  4  5  1  0
  4  6  1  6
  5  7  1  0
  6  8  1  0
  8  9  1  0
 10  7  1  6
  8 10  1  0
 10 11  1  0
 11 12  1  0
 11 13  1  1
 12 14  1  6
 12 15  1  0
 15 16  1  0
 16 17  1  0
 17 18  1  1
 17 19  1  0
M  CHG  1  19  -1
M  END
