ucsf380-ucsf336
     RDKit          3D

 27 29  0  0  0  0  0  0  0  0999 V2000
    0.4380   15.2180   -1.1350 O   0  0  0  0  0  0  0  0  0  0  0  0
    0.0120   14.5240   -2.1860 C   0  0  1  0  0  0  0  0  0  0  0  0
    0.8730   13.3700   -2.3270 O   0  0  0  0  0  0  0  0  0  0  0  0
   -1.4960   14.0640   -1.8740 C   0  0  0  0  0  0  0  0  0  0  0  0
    1.2450   13.1040   -3.7240 C   0  0  1  0  0  0  0  0  0  0  0  0
   -2.3460   15.2280   -1.2410 C   0  0  0  0  0  0  0  0  0  0  0  0
   -2.1790   13.3070   -3.0640 C   0  0  0  0  0  0  0  0  0  0  0  0
    2.5550   12.9590   -3.8670 O   0  0  0  0  0  0  0  0  0  0  0  0
    0.6170   11.6770   -4.1060 C   0  0  1  0  0  0  0  0  0  0  0  0
   -2.3320   15.2080    0.2970 C   0  0  0  0  0  0  0  0  0  0  0  0
   -3.7270   15.3800   -1.9620 C   0  0  0  0  0  0  0  0  0  0  0  0
   -2.6650   11.8810   -2.7510 C   0  0  0  0  0  0  0  0  0  0  0  0
   -1.3700   13.4450   -4.3740 C   0  0  0  0  0  0  0  0  0  0  0  0
   -0.6090   11.4970   -3.4150 O   0  0  0  0  0  0  0  0  0  0  0  0
    0.4200   11.5750   -5.5780 N   0  0  0  0  0  0  0  0  0  0  0  0
   -3.6190   15.6820    0.9570 C   0  0  0  0  0  0  0  0  0  0  0  0
   -4.9740   15.6670   -1.1200 C   0  0  0  0  0  0  0  0  0  0  0  0
   -3.3860   11.2060   -3.9190 C   0  0  0  0  0  0  0  0  0  0  0  0
   -1.7480   12.4200   -5.4270 C   0  0  0  0  0  0  0  0  0  0  0  0
   -4.8450   15.1220    0.2720 C   0  0  0  0  0  0  0  0  0  0  0  0
   -3.1630   11.9090   -5.2540 C   0  0  0  0  0  0  0  0  0  0  0  0
   -0.6680   10.7540   -6.1680 C   0  0  0  0  0  0  0  0  0  0  0  0
   -0.1670   10.0670   -7.4460 C   0  0  0  0  0  0  0  0  0  0  0  0
   -1.2250    9.6890   -5.2000 C   0  0  0  0  0  0  0  0  0  0  0  0
   -0.9860    8.8220   -7.7890 C   0  0  0  0  0  0  0  0  0  0  0  0
   -2.4750    9.0080   -5.7670 C   0  0  0  0  0  0  0  0  0  0  0  0
   -2.4190    8.9140   -7.2850 C   0  0  0  0  0  0  0  0  0  0  0  0
  2  1  1  1
  2  3  1  0
  2  4  1  0
  3  5  1  0
  4  6  1  0
  4  7  1  0
  5  8  1  1
  5  9  1  0
  6 10  1  0
  6 11  1  0
  7 12  1  0
  7 13  1  0
  9 14  1  1
  9 15  1  0
 10 16  1  0
 11 17  1  0
 12 18  1  0
 13 19  1  0
 16 20  1  0
 17 20  1  0
 18 21  1  0
 19 21  1  0
 15 22  1  0
 22 23  1  0
 22 24  1  0
 23 25  1  0
 24 26  1  0
 25 27  1  0
 26 27  1  0
M  CHG  2   1  -1   8  -1
M  END
