ucsf516
     RDKit          3D

 18 21  0  0  0  0  0  0  0  0999 V2000
    0.8720   11.2490   -3.6990 C   0  0  0  0  0  0  0  0  0  0  0  0
   -0.1450   11.9820   -2.8380 C   0  0  0  0  0  0  0  0  0  0  0  0
    0.6880   13.2660   -2.9080 C   0  0  1  0  0  0  0  0  0  0  0  0
    1.6630   12.5480   -3.8540 C   0  0  0  0  0  0  0  0  0  0  0  0
   -0.0770   14.5980   -3.2620 C   0  0  1  0  0  0  0  0  0  0  0  0
   -0.5510   14.6000   -4.8370 C   0  0  0  0  0  0  0  0  0  0  0  0
   -1.7820   14.1170   -4.8420 C   0  0  0  0  0  0  0  0  0  0  0  0
   -2.4320   14.7090   -3.5380 C   0  0  0  0  0  0  0  0  0  0  0  0
   -1.2160   14.8290   -2.5490 N   0  0  0  0  0  0  0  0  0  0  0  0
   -1.2790   14.8840   -1.1150 C   0  0  0  0  0  0  0  0  0  0  0  0
   -0.1540   14.7530   -0.4600 N   0  0  0  0  0  0  0  0  0  0  0  0
   -0.1220   14.7950    0.8680 C   0  0  0  0  0  0  0  0  0  0  0  0
   -1.2460   14.9810    1.5640 N   0  0  0  0  0  0  0  0  0  0  0  0
   -2.4490   15.1370    0.9570 C   0  0  0  0  0  0  0  0  0  0  0  0
   -3.7290   15.3450    1.4620 N   0  0  0  0  0  0  0  0  0  0  0  0
   -4.6120   15.4480    0.4850 C   0  0  0  0  0  0  0  0  0  0  0  0
   -3.9110   15.2940   -0.7270 C   0  0  0  0  0  0  0  0  0  0  0  0
   -2.5310   15.0930   -0.4060 C   0  0  0  0  0  0  0  0  0  0  0  0
  1  2  1  0
  3  2  1  6
  1  4  1  0
  3  4  1  0
  3  5  1  0
  5  6  1  6
  6  7  1  0
  7  8  1  0
  5  9  1  0
  8  9  1  0
  9 10  1  0
 10 11  1  0
 11 12  1  0
 12 13  1  0
 13 14  1  0
 14 15  1  0
 15 16  1  0
 16 17  1  0
 10 18  1  0
 14 18  1  0
 17 18  1  0
M  END
