ucsf039
     RDKit          3D

 17 19  0  0  0  0  0  0  0  0999 V2000
   -4.1810   15.4660    1.0820 N   0  0  0  0  0  0  0  0  0  0  0  0
   -3.2820   15.2470   -0.0410 C   0  0  0  0  0  0  0  0  0  0  0  0
   -1.9110   15.0260    0.1680 C   0  0  0  0  0  0  0  0  0  0  0  0
   -1.1450   14.9630    1.2990 N   0  0  0  0  0  0  0  0  0  0  0  0
    0.1160   14.7430    0.9030 C   0  0  0  0  0  0  0  0  0  0  0  0
    0.1700   14.6640   -0.4360 N   0  0  0  0  0  0  0  0  0  0  0  0
   -1.1130   14.8220   -0.8860 C   0  0  0  0  0  0  0  0  0  0  0  0
   -1.6080   14.8310   -2.1460 N   0  0  0  0  0  0  0  0  0  0  0  0
   -0.7170   14.5770   -3.2690 C   0  0  0  0  0  0  0  0  0  0  0  0
   -0.2230   15.8390   -3.9700 C   0  0  1  0  0  0  0  0  0  0  0  0
    1.0880   16.3970   -3.9860 C   0  0  0  0  0  0  0  0  0  0  0  0
    1.1620   17.7590   -4.8810 S   0  0  0  0  0  0  0  0  0  0  0  0
   -0.4230   17.6810   -5.3290 C   0  0  0  0  0  0  0  0  0  0  0  0
   -1.1160   18.6510   -6.2580 C   0  0  0  0  0  0  0  0  0  0  0  0
   -1.1150   16.6080   -4.8050 N   0  0  0  0  0  0  0  0  0  0  0  0
   -2.9420   15.0110   -2.3460 C   0  0  0  0  0  0  0  0  0  0  0  0
   -3.7610   15.2260   -1.2870 N   0  0  0  0  0  0  0  0  0  0  0  0
  1  2  1  0
  2  3  1  0
  3  4  1  0
  4  5  1  0
  5  6  1  0
  3  7  1  0
  6  7  1  0
  7  8  1  0
  8  9  1  0
 10  9  1  6
 10 11  1  0
 11 12  1  0
 12 13  1  0
 13 14  1  0
 10 15  1  0
 13 15  1  0
  8 16  1  0
  2 17  1  0
 16 17  1  0
M  END
