ucsf264-ucsf511
     RDKit          3D

 30 34  0  0  0  0  0  0  0  0999 V2000
    1.3220   13.0700   -3.1380 O   0  0  0  0  0  0  0  0  0  0  0  0
    0.3380   12.1260   -3.5300 C   0  0  2  0  0  0  0  0  0  0  0  0
    0.4080   10.9780   -2.6750 O   0  0  0  0  0  0  0  0  0  0  0  0
    0.6850   14.3720   -2.9690 N   0  0  0  0  0  0  0  0  0  0  0  0
    0.6340   11.6460   -4.9420 C   0  0  0  0  0  0  0  0  0  0  0  0
   -0.0930   14.1630   -1.7360 C   0  0  0  0  0  0  0  0  0  0  0  0
   -0.1610   14.6150   -4.1570 C   0  0  0  0  0  0  0  0  0  0  0  0
   -0.0890   12.1100   -6.1190 N   0  0  0  0  0  0  0  0  0  0  0  0
   -1.2480   15.1330   -1.6320 C   0  0  1  0  0  0  0  0  0  0  0  0
   -1.5830   14.2610   -3.9740 N   0  0  0  0  0  0  0  0  0  0  0  0
    0.8250   11.8770   -7.2430 N   0  0  0  0  0  0  0  0  0  0  0  0
   -1.2210   11.2040   -6.3900 C   0  0  1  0  0  0  0  0  0  0  0  0
   -2.1710   14.9840   -2.8580 C   0  0  1  0  0  0  0  0  0  0  0  0
   -2.0880   15.0030   -0.4600 O   0  0  0  0  0  0  0  0  0  0  0  0
    0.1300   11.0000   -8.1940 C   0  0  2  0  0  0  0  0  0  0  0  0
   -0.5830   10.0970   -7.2180 C   0  0  2  0  0  0  0  0  0  0  0  0
   -1.9140   10.6970   -5.1240 C   0  0  0  0  0  0  0  0  0  0  0  0
   -3.3890   15.3550   -0.9400 C   0  0  1  0  0  0  0  0  0  0  0  0
   -3.4930   14.5850   -2.2410 C   0  0  1  0  0  0  0  0  0  0  0  0
    0.8850   10.3120   -9.3340 C   0  0  0  0  0  0  0  0  0  0  0  0
   -1.6120    9.1280   -7.7730 C   0  0  0  0  0  0  0  0  0  0  0  0
   -2.5370    9.3240   -5.3640 C   0  0  0  0  0  0  0  0  0  0  0  0
   -4.7830   14.7720   -3.0150 C   0  0  0  0  0  0  0  0  0  0  0  0
   -4.5520   15.0830   -0.0280 C   0  0  0  0  0  0  0  0  0  0  0  0
    1.5800    9.2310   -8.8930 F   0  0  0  0  0  0  0  0  0  0  0  0
    0.0650    9.8750  -10.3010 F   0  0  0  0  0  0  0  0  0  0  0  0
    1.7330   11.1540   -9.9520 F   0  0  0  0  0  0  0  0  0  0  0  0
   -2.8230    9.0190   -6.8410 C   0  0  0  0  0  0  0  0  0  0  0  0
   -6.0200   15.1380   -2.1510 C   0  0  0  0  0  0  0  0  0  0  0  0
   -5.7880   15.6350   -0.7230 C   0  0  0  0  0  0  0  0  0  0  0  0
  1  2  1  0
  2  3  1  1
  1  4  1  0
  2  5  1  0
  4  6  1  0
  4  7  1  0
  5  8  1  0
  9  6  1  1
  7 10  1  0
  8 11  1  0
  8 12  1  0
  9 13  1  0
 13 10  1  6
  9 14  1  0
 11 15  1  0
 12 16  1  0
 15 16  1  0
 12 17  1  1
 14 18  1  0
 13 19  1  0
 18 19  1  0
 15 20  1  6
 16 21  1  6
 17 22  1  0
 19 23  1  6
 18 24  1  1
 20 25  1  0
 20 26  1  0
 20 27  1  0
 21 28  1  0
 22 28  1  0
 23 29  1  0
 24 30  1  0
 29 30  1  0
M  END
