ucsf442-ucsf336
     RDKit          3D

 25 27  0  0  0  0  0  0  0  0999 V2000
   -0.0020   15.3750    0.7250 O   0  0  0  0  0  0  0  0  0  0  0  0
   -1.1410   14.6070    0.3870 C   0  0  2  0  0  0  0  0  0  0  0  0
   -1.4840   14.8850   -1.0100 N   0  0  0  0  0  0  0  0  0  0  0  0
   -2.1630   15.0940    1.2810 N   0  0  0  0  0  0  0  0  0  0  0  0
   -0.4860   14.3780   -1.9990 C   0  0  0  0  0  0  0  0  0  0  0  0
   -3.4810   14.6820    0.9010 C   0  0  2  0  0  0  0  0  0  0  0  0
   -2.8950   14.6590   -1.4290 C   0  0  2  0  0  0  0  0  0  0  0  0
   -3.1390   15.3630   -2.6480 O   0  0  0  0  0  0  0  0  0  0  0  0
    0.3230   13.1430   -1.5590 C   0  0  0  0  0  0  0  0  0  0  0  0
   -3.9360   15.1650   -0.4280 C   0  0  1  0  0  0  0  0  0  0  0  0
   -4.5410   15.2700    1.6880 N   0  0  0  0  0  0  0  0  0  0  0  0
    1.6040   13.0480   -2.2000 O   0  0  0  0  0  0  0  0  0  0  0  0
   -5.3640   14.7540   -0.4280 N   0  0  0  0  0  0  0  0  0  0  0  0
   -5.6720   14.6580    0.9990 C   0  0  0  0  0  0  0  0  0  0  0  0
    1.5880   12.7700   -3.6140 C   0  0  2  0  0  0  0  0  0  0  0  0
    1.7400   13.8850   -4.3110 O   0  0  0  0  0  0  0  0  0  0  0  0
    0.2360   12.0260   -4.0720 C   0  0  2  0  0  0  0  0  0  0  0  0
    0.1560   10.7850   -3.3630 O   0  0  0  0  0  0  0  0  0  0  0  0
    0.0240   11.7100   -5.4820 N   0  0  0  0  0  0  0  0  0  0  0  0
   -0.5800   10.4260   -5.8160 C   0  0  0  0  0  0  0  0  0  0  0  0
   -0.4370   10.0720   -7.3060 C   0  0  0  0  0  0  0  0  0  0  0  0
   -2.0690   10.4540   -5.4340 C   0  0  0  0  0  0  0  0  0  0  0  0
   -1.1680    8.7880   -7.6950 C   0  0  0  0  0  0  0  0  0  0  0  0
   -2.8030    9.1630   -5.7960 C   0  0  0  0  0  0  0  0  0  0  0  0
   -2.6300    8.8130   -7.2700 C   0  0  0  0  0  0  0  0  0  0  0  0
  2  1  1  1
  2  3  1  0
  2  4  1  0
  3  5  1  0
  6  4  1  1
  3  7  1  0
  7  8  1  6
  5  9  1  0
  6 10  1  0
  7 10  1  0
  6 11  1  0
  9 12  1  0
 10 13  1  6
 11 14  1  0
 13 14  1  0
 12 15  1  0
 15 16  1  6
 15 17  1  0
 17 18  1  1
 17 19  1  0
 19 20  1  0
 20 21  1  0
 20 22  1  0
 21 23  1  0
 22 24  1  0
 23 25  1  0
 24 25  1  0
M  CHG  1  16  -1
M  END
