ucsf493-ucsf380
     RDKit          3D

 30 33  0  0  0  0  0  0  0  0999 V2000
   -4.4750   15.1390   -5.5850 C   0  0  0  0  0  0  0  0  0  0  0  0
   -3.6810   16.1440   -4.9640 O   0  0  0  0  0  0  0  0  0  0  0  0
   -2.4150   16.2340   -5.5430 C   0  0  2  0  0  0  0  0  0  0  0  0
   -1.6970   14.9860   -5.0210 C   0  0  0  0  0  0  0  0  0  0  0  0
   -1.6850   17.5820   -5.3430 C   0  0  0  0  0  0  0  0  0  0  0  0
   -0.1690   14.9750   -4.9900 C   0  0  1  0  0  0  0  0  0  0  0  0
   -0.1680   17.4880   -5.5000 C   0  0  0  0  0  0  0  0  0  0  0  0
    0.3860   16.3320   -4.6830 C   0  0  2  0  0  0  0  0  0  0  0  0
    0.6580   14.1650   -3.9540 C   0  0  1  0  0  0  0  0  0  0  0  0
    0.7920   12.6190   -4.0350 C   0  0  0  0  0  0  0  0  0  0  0  0
    1.7830   16.0720   -4.9050 N   0  0  0  0  0  0  0  0  0  0  0  0
    2.0240   14.8140   -4.1660 C   0  0  0  0  0  0  0  0  0  0  0  0
    0.1870   11.8950   -2.7930 C   0  0  1  0  0  0  0  0  0  0  0  0
    0.6280   10.5380   -2.6800 O   0  0  0  0  0  0  0  0  0  0  0  0
    0.6240   12.5030   -1.5720 O   0  0  0  0  0  0  0  0  0  0  0  0
    0.0010   13.7680   -1.2570 C   0  0  1  0  0  0  0  0  0  0  0  0
    0.8550   14.7450   -1.5410 O   0  0  0  0  0  0  0  0  0  0  0  0
   -1.2900   13.9600   -2.1560 C   0  0  0  0  0  0  0  0  0  0  0  0
   -2.5420   14.5580   -1.4270 C   0  0  0  0  0  0  0  0  0  0  0  0
   -1.6460   12.7150   -3.0950 C   0  0  0  0  0  0  0  0  0  0  0  0
   -2.5960   14.4710    0.1040 C   0  0  0  0  0  0  0  0  0  0  0  0
   -3.9140   14.2750   -1.9910 C   0  0  0  0  0  0  0  0  0  0  0  0
   -3.0420   12.0790   -2.9340 C   0  0  0  0  0  0  0  0  0  0  0  0
   -1.3590   12.8930   -4.5940 C   0  0  0  0  0  0  0  0  0  0  0  0
   -3.6380   15.4410    0.6920 C   0  0  0  0  0  0  0  0  0  0  0  0
   -4.8080   15.4350   -1.6480 C   0  0  0  0  0  0  0  0  0  0  0  0
   -3.1690   10.7530   -3.6860 C   0  0  0  0  0  0  0  0  0  0  0  0
   -1.3610   11.5570   -5.3080 C   0  0  0  0  0  0  0  0  0  0  0  0
   -4.8960   15.7100   -0.1540 C   0  0  0  0  0  0  0  0  0  0  0  0
   -2.6890   10.8350   -5.1360 C   0  0  0  0  0  0  0  0  0  0  0  0
  1  2  1  0
  3  2  1  1
  3  4  1  0
  3  5  1  0
  6  4  1  1
  5  7  1  0
  6  8  1  0
  8  7  1  6
  6  9  1  0
  9 10  1  6
  8 11  1  0
  9 12  1  0
 11 12  1  0
 10 13  1  0
 13 14  1  1
 13 15  1  0
 15 16  1  0
 16 17  1  6
 16 18  1  0
 18 19  1  0
 18 20  1  0
 19 21  1  0
 19 22  1  0
 20 23  1  0
 20 24  1  0
 21 25  1  0
 22 26  1  0
 23 27  1  0
 24 28  1  0
 25 29  1  0
 26 29  1  0
 27 30  1  0
 28 30  1  0
M  CHG  1  17  -1
M  END
