ucsf005-ucsf387
     RDKit          3D

 25 27  0  0  0  0  0  0  0  0999 V2000
   -0.7250   15.8010   -2.4990 C   0  0  0  0  0  0  0  0  0  0  0  0
   -1.8640   14.9320   -2.3200 N   0  0  0  0  0  0  0  0  0  0  0  0
   -3.1600   15.5120   -2.6330 C   0  0  1  0  0  0  0  0  0  0  0  0
   -1.9790   14.5440   -0.9460 C   0  0  2  0  0  0  0  0  0  0  0  0
   -3.7200   15.4690   -4.0720 C   0  0  0  0  0  0  0  0  0  0  0  0
   -4.1040   15.0670   -1.5770 N   0  0  0  0  0  0  0  0  0  0  0  0
   -3.1980   15.2460   -0.4320 C   0  0  1  0  0  0  0  0  0  0  0  0
   -0.8620   14.8150   -0.1050 N   0  0  0  0  0  0  0  0  0  0  0  0
   -3.0500   14.5620   -5.0850 C   0  0  0  0  0  0  0  0  0  0  0  0
   -3.5120   14.6900    0.9660 C   0  0  2  0  0  0  0  0  0  0  0  0
   -1.0870   14.1800    1.1290 C   0  0  1  0  0  0  0  0  0  0  0  0
   -4.5580   15.3240    1.7530 N   0  0  0  0  0  0  0  0  0  0  0  0
    0.0570   14.2020    1.9570 N   0  0  0  0  0  0  0  0  0  0  0  0
   -2.3140   14.5930    1.7880 N   0  0  0  0  0  0  0  0  0  0  0  0
   -1.5310   14.7400   -5.1850 C   0  0  2  0  0  0  0  0  0  0  0  0
   -0.8150   13.8500   -4.2200 C   0  0  0  0  0  0  0  0  0  0  0  0
   -1.0790   16.2200   -5.0580 C   0  0  0  0  0  0  0  0  0  0  0  0
    0.6940   13.9090   -4.4150 C   0  0  2  0  0  0  0  0  0  0  0  0
    0.4520   16.3870   -5.0570 C   0  0  1  0  0  0  0  0  0  0  0  0
    0.8170   18.0490   -4.5210 Cl  0  0  0  0  0  0  0  0  0  0  0  0
    1.3060   12.7720   -3.5510 C   0  0  0  0  0  0  0  0  0  0  0  0
    1.2380   15.3460   -4.2290 C   0  0  0  0  0  0  0  0  0  0  0  0
    0.3790   12.0120   -2.5380 C   0  0  1  0  0  0  0  0  0  0  0  0
    0.6270   10.7150   -2.4160 O   0  0  0  0  0  0  0  0  0  0  0  0
    0.5870   12.4800   -1.2370 O   0  0  0  0  0  0  0  0  0  0  0  0
  1  2  1  0
  2  3  1  0
  2  4  1  0
  3  5  1  6
  3  6  1  0
  4  7  1  0
  7  6  1  6
  4  8  1  1
  5  9  1  0
  7 10  1  0
  8 11  1  0
 10 12  1  1
 11 13  1  1
 10 14  1  0
 11 14  1  0
 15  9  1  1
 15 16  1  0
 15 17  1  0
 16 18  1  0
 17 19  1  0
 19 20  1  1
 18 21  1  1
 18 22  1  0
 19 22  1  0
 21 23  1  0
 23 24  1  1
 23 25  1  0
M  CHG  1  24  -1
M  END
