ucsf511-ucsf017
     RDKit          3D

 28 33  0  0  0  0  0  0  0  0999 V2000
    0.7700   15.6540   -2.3780 O   0  0  0  0  0  0  0  0  0  0  0  0
   -0.3670   13.9860   -2.6000 S   0  0  0  0  0  0  0  0  0  0  0  0
   -1.1020   15.2850   -3.4870 N   0  0  0  0  0  0  0  0  0  0  0  0
   -2.1590   13.6660   -3.0650 C   0  0  2  0  0  0  0  0  0  0  0  0
    0.6640   12.5180   -2.2500 C   0  0  0  0  0  0  0  0  0  0  0  0
    0.6180   13.2880   -3.9780 C   0  0  0  0  0  0  0  0  0  0  0  0
   -0.8060   14.3400   -0.7550 C   0  0  2  0  0  0  0  0  0  0  0  0
   -2.9370   14.2160   -4.1020 C   0  0  2  0  0  0  0  0  0  0  0  0
   -1.1780   15.3250   -4.8620 C   0  0  0  0  0  0  0  0  0  0  0  0
   -2.9790   13.8500   -1.9770 O   0  0  0  0  0  0  0  0  0  0  0  0
   -0.0580   11.2210   -2.2650 C   0  0  0  0  0  0  0  0  0  0  0  0
    0.1050   12.0650   -4.5500 C   0  0  0  0  0  0  0  0  0  0  0  0
   -0.2860   13.4310    0.1310 N   0  0  0  0  0  0  0  0  0  0  0  0
   -2.1530   14.6820   -0.3960 C   0  0  2  0  0  0  0  0  0  0  0  0
   -2.4740   15.0200   -5.1780 N   0  0  0  0  0  0  0  0  0  0  0  0
   -3.5430   15.0300   -2.0300 C   0  0  1  0  0  0  0  0  0  0  0  0
   -4.0060   15.0710   -3.4120 C   0  0  2  0  0  0  0  0  0  0  0  0
   -0.4380   10.9700   -3.7360 C   0  0  0  0  0  0  0  0  0  0  0  0
   -0.1380   13.9630    1.4210 C   0  0  0  0  0  0  0  0  0  0  0  0
   -2.0880   15.1570    0.9790 C   0  0  2  0  0  0  0  0  0  0  0  0
   -3.2470   13.6430   -0.2210 C   0  0  0  0  0  0  0  0  0  0  0  0
   -5.3590   14.5220   -3.5890 C   0  0  0  0  0  0  0  0  0  0  0  0
   -4.5360   15.3420   -0.9300 C   0  0  0  0  0  0  0  0  0  0  0  0
   -1.4510   14.2860    1.8420 N   0  0  0  0  0  0  0  0  0  0  0  0
   -3.4420   15.2910    1.4280 N   0  0  0  0  0  0  0  0  0  0  0  0
   -3.9370   13.9840    1.1260 C   0  0  0  0  0  0  0  0  0  0  0  0
   -6.3990   14.8230   -2.5600 C   0  0  0  0  0  0  0  0  0  0  0  0
   -5.9690   15.4580   -1.2800 C   0  0  0  0  0  0  0  0  0  0  0  0
  1  2  1  0
  2  3  1  0
  2  4  1  0
  2  5  1  0
  2  6  1  0
  2  7  1  0
  4  8  1  0
  3  9  1  0
  4 10  1  1
  5 11  1  0
  6 12  1  0
  7 13  1  1
  7 14  1  0
  8 15  1  6
  9 15  1  0
 10 16  1  0
  8 17  1  0
 16 17  1  0
 11 18  1  0
 12 18  1  0
 13 19  1  0
 14 20  1  0
 14 21  1  1
 17 22  1  1
 16 23  1  1
 19 24  1  0
 20 24  1  1
 20 25  1  0
 21 26  1  0
 25 26  1  0
 22 27  1  0
 23 28  1  0
 27 28  1  0
M  END
