ucsf367-ucsf004
     RDKit          3D

 27 30  0  0  0  0  0  0  0  0999 V2000
    1.1900   10.1640   -3.2160 O   0  0  0  0  0  0  0  0  0  0  0  0
    0.8740   11.4360   -3.1430 C   0  0  1  0  0  0  0  0  0  0  0  0
    2.1270   12.0890   -3.2020 O   0  0  0  0  0  0  0  0  0  0  0  0
   -0.0080   11.8730   -4.3540 C   0  0  2  0  0  0  0  0  0  0  0  0
    0.6210   11.6540   -5.6380 O   0  0  0  0  0  0  0  0  0  0  0  0
   -0.4080   13.3350   -4.1440 C   0  0  2  0  0  0  0  0  0  0  0  0
   -0.2820   11.0470   -6.5720 C   0  0  0  0  0  0  0  0  0  0  0  0
   -1.7960   13.7220   -4.5850 C   0  0  1  0  0  0  0  0  0  0  0  0
    0.5350   14.4700   -4.5040 C   0  0  0  0  0  0  0  0  0  0  0  0
   -2.6560   12.6720   -4.4220 F   0  0  0  0  0  0  0  0  0  0  0  0
   -0.1140    9.5240   -6.5120 C   0  0  0  0  0  0  0  0  0  0  0  0
   -1.7280   11.4250   -6.2440 C   0  0  0  0  0  0  0  0  0  0  0  0
   -2.1850   14.8460   -3.6270 C   0  0  0  0  0  0  0  0  0  0  0  0
    0.2710   15.4980   -3.4090 C   0  0  0  0  0  0  0  0  0  0  0  0
   -1.3480    8.7360   -6.9610 C   0  0  0  0  0  0  0  0  0  0  0  0
   -2.4800   10.3730   -5.4220 C   0  0  0  0  0  0  0  0  0  0  0  0
   -1.0500   15.2460   -2.7480 N   0  0  0  0  0  0  0  0  0  0  0  0
   -2.5780    9.0180   -6.1120 C   0  0  0  0  0  0  0  0  0  0  0  0
   -1.1070   15.1860   -1.2720 C   0  0  2  0  0  0  0  0  0  0  0  0
   -0.0880   14.3650   -0.6160 N   0  0  0  0  0  0  0  0  0  0  0  0
   -2.4510   14.7660   -0.6830 C   0  0  1  0  0  0  0  0  0  0  0  0
   -0.0820   14.4060    0.8510 C   0  0  0  0  0  0  0  0  0  0  0  0
   -2.3480   15.1700    0.7460 C   0  0  2  0  0  0  0  0  0  0  0  0
   -3.7530   15.4100   -1.1160 C   0  0  0  0  0  0  0  0  0  0  0  0
   -1.4060   14.3820    1.4500 N   0  0  0  0  0  0  0  0  0  0  0  0
   -3.6820   15.0730    1.2850 N   0  0  0  0  0  0  0  0  0  0  0  0
   -4.5290   15.5780    0.1860 C   0  0  0  0  0  0  0  0  0  0  0  0
  2  1  1  6
  2  3  1  0
  2  4  1  0
  4  5  1  6
  4  6  1  0
  5  7  1  0
  6  8  1  0
  6  9  1  6
  8 10  1  1
  7 11  1  0
  7 12  1  0
  8 13  1  0
  9 14  1  0
 11 15  1  0
 12 16  1  0
 13 17  1  0
 14 17  1  0
 15 18  1  0
 16 18  1  0
 19 17  1  6
 19 20  1  0
 19 21  1  0
 20 22  1  0
 21 23  1  0
 21 24  1  6
 22 25  1  0
 23 25  1  1
 23 26  1  0
 24 27  1  0
 26 27  1  0
M  CHG  1   1  -1
M  END
