ucsf520-ucsf365
     RDKit          3D

 27 30  0  0  0  0  0  0  0  0999 V2000
   -4.4060   15.5230    1.2190 N   0  0  0  0  0  0  0  0  0  0  0  0
   -3.7070   14.8400    0.1250 C   0  0  2  0  0  0  0  0  0  0  0  0
   -2.2390   14.4330    0.4250 C   0  0  1  0  0  0  0  0  0  0  0  0
   -3.8840   15.6260   -1.0770 N   0  0  0  0  0  0  0  0  0  0  0  0
   -3.2100   15.0840   -2.2600 C   0  0  0  0  0  0  0  0  0  0  0  0
   -1.4200   14.1450   -0.8380 C   0  0  1  0  0  0  0  0  0  0  0  0
   -1.4330   15.4510    1.1090 N   0  0  0  0  0  0  0  0  0  0  0  0
   -1.8010   14.9210   -1.9880 N   0  0  0  0  0  0  0  0  0  0  0  0
   -0.0350   14.3600   -0.4160 N   0  0  0  0  0  0  0  0  0  0  0  0
   -0.0980   14.8990    0.9300 C   0  0  0  0  0  0  0  0  0  0  0  0
   -0.7420   15.1470   -3.0250 C   0  0  2  0  0  0  0  0  0  0  0  0
   -0.3480   16.6060   -3.3130 C   0  0  2  0  0  0  0  0  0  0  0  0
   -1.0550   14.4570   -4.4030 C   0  0  1  0  0  0  0  0  0  0  0  0
   -1.3770   17.3310   -4.0660 O   0  0  0  0  0  0  0  0  0  0  0  0
    0.9150   16.7550   -4.1530 C   0  0  0  0  0  0  0  0  0  0  0  0
   -0.9200   12.9070   -4.3350 C   0  0  2  0  0  0  0  0  0  0  0  0
   -2.3840   14.9860   -5.0090 C   0  0  0  0  0  0  0  0  0  0  0  0
    0.5500   12.5110   -3.9780 C   0  0  0  0  0  0  0  0  0  0  0  0
    0.3870   16.8480   -5.5420 C   0  0  0  0  0  0  0  0  0  0  0  0
   -0.8380   17.7010   -5.3350 C   0  0  0  0  0  0  0  0  0  0  0  0
   -1.3970   12.2220   -5.6240 C   0  0  1  0  0  0  0  0  0  0  0  0
   -3.3620   13.8840   -5.3430 C   0  0  0  0  0  0  0  0  0  0  0  0
    0.8850   11.8200   -2.6120 C   0  0  2  0  0  0  0  0  0  0  0  0
   -1.5140   10.8220   -5.4020 O   0  0  0  0  0  0  0  0  0  0  0  0
   -2.7400   12.7500   -6.1450 C   0  0  0  0  0  0  0  0  0  0  0  0
    0.2900   10.6350   -2.4660 O   0  0  0  0  0  0  0  0  0  0  0  0
    0.3400   12.5180   -1.5170 O   0  0  0  0  0  0  0  0  0  0  0  0
  2  1  1  1
  2  3  1  0
  2  4  1  0
  4  5  1  0
  3  6  1  0
  3  7  1  6
  5  8  1  0
  6  8  1  0
  6  9  1  1
  7 10  1  0
  9 10  1  0
 11  8  1  1
 11 12  1  0
 11 13  1  0
 12 14  1  0
 12 15  1  6
 13 16  1  0
 13 17  1  1
 16 18  1  6
 15 19  1  0
 14 20  1  0
 19 20  1  0
 16 21  1  0
 17 22  1  0
 18 23  1  0
 21 24  1  1
 21 25  1  0
 22 25  1  0
 23 26  1  6
 23 27  1  0
M  CHG  1  26  -1
M  END
