ucsf336-ucsf442
     RDKit          3D

 25 27  0  0  0  0  0  0  0  0999 V2000
    2.1800   13.6300   -4.7900 O   0  0  0  0  0  0  0  0  0  0  0  0
    1.1170   13.2590   -4.1030 C   0  0  2  0  0  0  0  0  0  0  0  0
    1.6230   12.9570   -2.7870 O   0  0  0  0  0  0  0  0  0  0  0  0
    0.5380   11.9120   -4.7490 C   0  0  1  0  0  0  0  0  0  0  0  0
    0.1390   11.0140   -3.7040 O   0  0  0  0  0  0  0  0  0  0  0  0
   -0.5650   12.2300   -5.6570 N   0  0  0  0  0  0  0  0  0  0  0  0
    0.6120   13.0550   -1.8070 C   0  0  0  0  0  0  0  0  0  0  0  0
    0.7290   14.2880   -0.9020 C   0  0  0  0  0  0  0  0  0  0  0  0
   -1.2260   11.1160   -6.3640 C   0  0  0  0  0  0  0  0  0  0  0  0
   -0.0230   14.0900    0.3180 O   0  0  0  0  0  0  0  0  0  0  0  0
   -0.3220   10.0880   -7.0540 C   0  0  0  0  0  0  0  0  0  0  0  0
   -2.0930   10.3440   -5.3750 C   0  0  0  0  0  0  0  0  0  0  0  0
   -1.1170    9.1550   -7.9650 C   0  0  0  0  0  0  0  0  0  0  0  0
   -2.5980    9.0000   -5.8970 C   0  0  0  0  0  0  0  0  0  0  0  0
   -1.2470   14.7830    0.3080 C   0  0  2  0  0  0  0  0  0  0  0  0
   -2.5200    8.8960   -7.4190 C   0  0  0  0  0  0  0  0  0  0  0  0
   -2.2640   14.2390    1.1880 N   0  0  0  0  0  0  0  0  0  0  0  0
   -1.6960   14.8490   -1.0780 N   0  0  0  0  0  0  0  0  0  0  0  0
   -3.5700   14.8410    1.1180 C   0  0  1  0  0  0  0  0  0  0  0  0
   -3.1250   14.8360   -1.3220 C   0  0  2  0  0  0  0  0  0  0  0  0
   -3.3760   15.5950   -2.5020 O   0  0  0  0  0  0  0  0  0  0  0  0
   -3.9500   15.4550   -0.1980 C   0  0  1  0  0  0  0  0  0  0  0  0
   -4.6200   13.9050    1.3810 N   0  0  0  0  0  0  0  0  0  0  0  0
   -5.4190   15.2400   -0.3410 N   0  0  0  0  0  0  0  0  0  0  0  0
   -5.8120   14.5190    0.8680 C   0  0  0  0  0  0  0  0  0  0  0  0
  2  1  1  6
  2  3  1  0
  2  4  1  0
  4  5  1  1
  4  6  1  0
  3  7  1  0
  7  8  1  0
  6  9  1  0
  8 10  1  0
  9 11  1  0
  9 12  1  0
 11 13  1  0
 12 14  1  0
 15 10  1  6
 13 16  1  0
 14 16  1  0
 15 17  1  0
 15 18  1  0
 19 17  1  6
 18 20  1  0
 20 21  1  6
 19 22  1  0
 20 22  1  0
 19 23  1  0
 22 24  1  6
 23 25  1  0
 24 25  1  0
M  CHG  1   1  -1
M  END
