ucsf247-ucsf487
     RDKit          3D

 18 19  0  0  0  0  0  0  0  0999 V2000
    0.6680   13.2650   -1.9250 O   0  0  0  0  0  0  0  0  0  0  0  0
    0.5240   13.6370   -3.1830 C   0  0  2  0  0  0  0  0  0  0  0  0
    1.7160   14.3730   -3.4110 O   0  0  0  0  0  0  0  0  0  0  0  0
   -0.7010   14.5890   -3.3470 C   0  0  0  0  0  0  0  0  0  0  0  0
   -1.5480   14.6810   -2.1430 N   0  0  0  0  0  0  0  0  0  0  0  0
   -2.8540   15.2970   -2.2390 C   0  0  1  0  0  0  0  0  0  0  0  0
   -3.3630   15.2270   -3.5570 O   0  0  0  0  0  0  0  0  0  0  0  0
   -3.8750   14.8060   -1.1950 C   0  0  2  0  0  0  0  0  0  0  0  0
   -5.2800   15.3970   -1.4100 C   0  0  0  0  0  0  0  0  0  0  0  0
   -3.3950   15.0520    0.2410 C   0  0  0  0  0  0  0  0  0  0  0  0
   -6.2890   14.8970   -0.3760 C   0  0  2  0  0  0  0  0  0  0  0  0
   -4.2700   14.2940    1.2170 C   0  0  0  0  0  0  0  0  0  0  0  0
   -7.4720   15.6530   -0.4010 O   0  0  0  0  0  0  0  0  0  0  0  0
   -5.7380   14.7090    1.0670 C   0  0  2  0  0  0  0  0  0  0  0  0
   -6.8250   13.6080   -0.6930 N   0  0  0  0  0  0  0  0  0  0  0  0
   -6.7470   13.7240    1.6580 C   0  0  2  0  0  0  0  0  0  0  0  0
   -7.6790   13.3990    0.4800 C   0  0  0  0  0  0  0  0  0  0  0  0
   -7.4280   14.2360    2.8440 N   0  0  0  0  0  0  0  0  0  0  0  0
  2  1  1  1
  2  3  1  0
  2  4  1  0
  4  5  1  0
  5  6  1  0
  6  7  1  6
  6  8  1  0
  8  9  1  6
  8 10  1  0
  9 11  1  0
 10 12  1  0
 11 13  1  1
 11 14  1  0
 14 12  1  6
 11 15  1  0
 14 16  1  0
 15 17  1  0
 16 17  1  0
 16 18  1  1
M  CHG  1   1  -1
M  END
