ucsf333-ucsf260
     RDKit          3D

 24 27  0  0  0  0  0  0  0  0999 V2000
   -6.2690   15.5070   -1.5180 Cl  0  0  0  0  0  0  0  0  0  0  0  0
   -4.8240   14.5450   -1.0950 C   0  0  1  0  0  0  0  0  0  0  0  0
   -3.9390   14.2800   -2.3290 C   0  0  0  0  0  0  0  0  0  0  0  0
   -4.0570   15.1810    0.0600 C   0  0  0  0  0  0  0  0  0  0  0  0
   -2.6660   15.1060   -2.2410 C   0  0  2  0  0  0  0  0  0  0  0  0
   -2.6770   14.5130    0.2270 C   0  0  0  0  0  0  0  0  0  0  0  0
   -1.7850   15.0260   -3.4090 N   0  0  0  0  0  0  0  0  0  0  0  0
   -1.8090   14.7480   -1.0080 C   0  0  1  0  0  0  0  0  0  0  0  0
   -1.2400   13.6580   -3.3270 C   0  0  2  0  0  0  0  0  0  0  0  0
   -0.6950   13.4760   -1.5600 S   0  0  0  0  0  0  0  0  0  0  0  0
   -0.1900   13.1620   -4.4200 C   0  0  1  0  0  0  0  0  0  0  0  0
    0.8860   12.3020   -3.7170 C   0  0  0  0  0  0  0  0  0  0  0  0
   -0.8110   12.3850   -5.5550 N   0  0  0  0  0  0  0  0  0  0  0  0
    0.3060   11.4940   -2.5230 C   0  0  2  0  0  0  0  0  0  0  0  0
   -2.2260   12.1160   -5.3390 C   0  0  0  0  0  0  0  0  0  0  0  0
   -0.2380   11.1410   -6.1000 C   0  0  1  0  0  0  0  0  0  0  0  0
    0.8820   11.8680   -1.4150 O   0  0  0  0  0  0  0  0  0  0  0  0
    0.6010   10.1320   -2.5320 O   0  0  0  0  0  0  0  0  0  0  0  0
   -2.3910   10.6630   -5.4700 N   0  0  0  0  0  0  0  0  0  0  0  0
   -1.4770   10.4030   -6.5490 C   0  0  2  0  0  0  0  0  0  0  0  0
    0.6560   11.2670   -7.3280 C   0  0  0  0  0  0  0  0  0  0  0  0
   -1.1970    8.9440   -6.8360 C   0  0  0  0  0  0  0  0  0  0  0  0
    0.8570    9.9180   -8.0710 C   0  0  0  0  0  0  0  0  0  0  0  0
   -0.2950    8.8800   -8.0630 C   0  0  0  0  0  0  0  0  0  0  0  0
  2  1  1  6
  2  3  1  0
  2  4  1  0
  5  3  1  6
  4  6  1  0
  5  7  1  0
  5  8  1  0
  8  6  1  1
  9  7  1  6
  8 10  1  0
  9 10  1  0
  9 11  1  0
 11 12  1  1
 11 13  1  0
 12 14  1  0
 13 15  1  0
 13 16  1  0
 14 17  1  1
 14 18  1  0
 15 19  1  0
 16 20  1  0
 19 20  1  0
 16 21  1  6
 20 22  1  1
 21 23  1  0
 22 24  1  0
 23 24  1  0
M  CHG  1  17  -1
M  END
