ucsf357-ucsf260
     RDKit          3D

 26 28  0  0  0  0  0  0  0  0999 V2000
   -5.6550   15.5680   -2.0740 O   0  0  0  0  0  0  0  0  0  0  0  0
   -5.6150   14.6190   -1.1750 C   0  0  2  0  0  0  0  0  0  0  0  0
   -6.0510   15.2610   -0.0050 O   0  0  0  0  0  0  0  0  0  0  0  0
   -4.1640   14.0970   -0.9960 C   0  0  1  0  0  0  0  0  0  0  0  0
   -3.4090   13.8920   -2.3310 C   0  0  0  0  0  0  0  0  0  0  0  0
   -3.3500   14.9280    0.0260 C   0  0  0  0  0  0  0  0  0  0  0  0
   -2.2970   14.8840   -2.5040 C   0  0  2  0  0  0  0  0  0  0  0  0
   -1.8480   14.6380    0.0060 C   0  0  0  0  0  0  0  0  0  0  0  0
   -1.7590   14.7790   -3.7560 F   0  0  0  0  0  0  0  0  0  0  0  0
   -1.2320   14.7300   -1.4010 C   0  0  1  0  0  0  0  0  0  0  0  0
   -0.3480   13.6590   -1.6970 O   0  0  0  0  0  0  0  0  0  0  0  0
    0.8800   14.1820   -2.2070 C   0  0  0  0  0  0  0  0  0  0  0  0
    1.8920   13.2000   -2.2150 O   0  0  0  0  0  0  0  0  0  0  0  0
    1.8090   12.2390   -3.2720 C   0  0  1  0  0  0  0  0  0  0  0  0
    0.8530   11.3630   -2.9750 O   0  0  0  0  0  0  0  0  0  0  0  0
    1.5580   12.9230   -4.6660 C   0  0  0  0  0  0  0  0  0  0  0  0
    0.0870   13.2970   -4.9930 C   0  0  0  0  0  0  0  0  0  0  0  0
   -0.7620   12.2880   -5.6700 N   0  0  0  0  0  0  0  0  0  0  0  0
   -1.8640   11.8430   -4.8430 C   0  0  0  0  0  0  0  0  0  0  0  0
   -0.1230   11.0820   -6.1920 C   0  0  1  0  0  0  0  0  0  0  0  0
   -2.3770   10.6590   -5.5100 N   0  0  0  0  0  0  0  0  0  0  0  0
   -1.2030    9.9830   -6.0430 C   0  0  1  0  0  0  0  0  0  0  0  0
    0.5350   11.0940   -7.5830 C   0  0  0  0  0  0  0  0  0  0  0  0
   -1.5150    9.2030   -7.3200 C   0  0  0  0  0  0  0  0  0  0  0  0
    0.8260    9.7290   -8.2100 C   0  0  0  0  0  0  0  0  0  0  0  0
   -0.2750    8.6830   -8.0280 C   0  0  0  0  0  0  0  0  0  0  0  0
  2  1  1  6
  2  3  1  0
  2  4  1  0
  4  5  1  6
  4  6  1  0
  5  7  1  0
  6  8  1  0
  7  9  1  6
  7 10  1  0
  8 10  1  0
 10 11  1  6
 11 12  1  0
 12 13  1  0
 13 14  1  0
 14 15  1  1
 14 16  1  0
 16 17  1  0
 17 18  1  0
 18 19  1  0
 18 20  1  0
 19 21  1  0
 20 22  1  0
 21 22  1  0
 20 23  1  6
 22 24  1  6
 23 25  1  0
 24 26  1  0
 25 26  1  0
M  CHG  2   1  -1  15  -1
M  END
