ucsf584-ucsf340
     RDKit          3D

 27 30  0  0  0  0  0  0  0  0999 V2000
    0.7320   18.5100   -5.7880 C   0  0  0  0  0  0  0  0  0  0  0  0
    0.2890   17.2150   -5.3380 N   0  0  0  0  0  0  0  0  0  0  0  0
    0.8360   16.6970   -4.0820 C   0  0  0  0  0  0  0  0  0  0  0  0
   -1.1010   16.9630   -5.0760 C   0  0  2  0  0  0  0  0  0  0  0  0
    0.3390   15.2560   -4.1710 C   0  0  2  0  0  0  0  0  0  0  0  0
   -0.9840   15.4400   -4.9160 C   0  0  1  0  0  0  0  0  0  0  0  0
   -2.1800   17.3590   -6.0680 C   0  0  0  0  0  0  0  0  0  0  0  0
    0.4150   14.3330   -2.9550 C   0  0  0  0  0  0  0  0  0  0  0  0
   -2.2940   14.7940   -4.5120 C   0  0  1  0  0  0  0  0  0  0  0  0
   -3.3740   16.4210   -5.8620 C   0  0  0  0  0  0  0  0  0  0  0  0
    0.6190   12.8420   -3.3250 C   0  0  0  0  0  0  0  0  0  0  0  0
   -3.0380   15.4180   -3.2890 C   0  0  0  0  0  0  0  0  0  0  0  0
   -3.1620   14.9460   -5.7460 C   0  0  0  0  0  0  0  0  0  0  0  0
   -0.0230   11.8890   -2.2930 C   0  0  2  0  0  0  0  0  0  0  0  0
   -3.8080   14.5050   -2.3280 C   0  0  1  0  0  0  0  0  0  0  0  0
    0.4420   12.3610   -1.0600 O   0  0  0  0  0  0  0  0  0  0  0  0
    0.4700   10.6590   -2.3060 O   0  0  0  0  0  0  0  0  0  0  0  0
   -2.8610   14.2890   -1.2240 N   0  0  0  0  0  0  0  0  0  0  0  0
   -5.1260   15.0510   -1.7230 C   0  0  0  0  0  0  0  0  0  0  0  0
   -2.8610   15.3770   -0.2480 C   0  0  0  0  0  0  0  0  0  0  0  0
   -5.1730   14.5450   -0.2670 C   0  0  2  0  0  0  0  0  0  0  0  0
   -6.5380   14.3120    0.4410 C   0  0  0  0  0  0  0  0  0  0  0  0
   -4.1750   15.3870    0.5180 C   0  0  0  0  0  0  0  0  0  0  0  0
   -6.5980   14.6640    1.8450 N   0  0  0  0  0  0  0  0  0  0  0  0
   -7.6860   14.9540   -0.1640 N   0  0  0  0  0  0  0  0  0  0  0  0
   -8.7480   14.8020    0.8420 C   0  0  0  0  0  0  0  0  0  0  0  0
   -8.0200   14.7280    2.1790 C   0  0  0  0  0  0  0  0  0  0  0  0
  1  2  1  0
  2  3  1  0
  2  4  1  0
  3  5  1  0
  4  6  1  0
  6  5  1  1
  4  7  1  6
  5  8  1  1
  6  9  1  0
  7 10  1  0
  8 11  1  0
  9 12  1  1
  9 13  1  0
 10 13  1  0
 11 14  1  0
 15 12  1  6
 14 16  1  1
 14 17  1  0
 15 18  1  0
 15 19  1  0
 18 20  1  0
 19 21  1  0
 21 22  1  1
 20 23  1  0
 21 23  1  0
 22 24  1  0
 22 25  1  0
 25 26  1  0
 24 27  1  0
 26 27  1  0
M  CHG  1  17  -1
M  END
