ucsf262-ucsf213
     RDKit          3D

 16 18  0  0  0  0  0  0  0  0999 V2000
   -2.8650   15.0740   -5.5900 Cl  0  0  0  0  0  0  0  0  0  0  0  0
   -1.7880   16.3400   -4.9470 C   0  0  1  0  0  0  0  0  0  0  0  0
   -0.4280   15.9250   -4.3160 C   0  0  1  0  0  0  0  0  0  0  0  0
   -1.7310   17.5900   -5.8440 C   0  0  0  0  0  0  0  0  0  0  0  0
    0.0920   14.5700   -3.6970 C   0  0  1  0  0  0  0  0  0  0  0  0
    0.7950   16.4340   -5.0840 C   0  0  2  0  0  0  0  0  0  0  0  0
   -0.6040   18.5430   -5.4650 C   0  0  0  0  0  0  0  0  0  0  0  0
   -0.2790   13.1010   -3.9580 C   0  0  0  0  0  0  0  0  0  0  0  0
    1.5910   14.6380   -3.9450 C   0  0  1  0  0  0  0  0  0  0  0  0
    1.8110   16.0800   -4.1280 N   0  0  0  0  0  0  0  0  0  0  0  0
    0.7820   17.9160   -5.4870 C   0  0  0  0  0  0  0  0  0  0  0  0
    2.3900   13.8540   -2.8700 C   0  0  1  0  0  0  0  0  0  0  0  0
    0.6610   12.1860   -3.0690 C   0  0  1  0  0  0  0  0  0  0  0  0
    2.9230   14.7080   -2.0140 O   0  0  0  0  0  0  0  0  0  0  0  0
    1.4110   13.0340   -2.1690 O   0  0  0  0  0  0  0  0  0  0  0  0
   -0.0540   11.3190   -2.3440 O   0  0  0  0  0  0  0  0  0  0  0  0
  2  1  1  6
  3  2  1  6
  2  4  1  0
  3  5  1  0
  3  6  1  0
  4  7  1  0
  5  8  1  6
  5  9  1  0
  6 10  1  0
  9 10  1  1
  6 11  1  1
  7 11  1  0
  9 12  1  0
  8 13  1  0
 12 14  1  1
 12 15  1  0
 13 15  1  0
 13 16  1  1
M  CHG  2  14  -1  16  -1
M  END
