ucsf258-ucsf365
     RDKit          3D

 19 20  0  0  0  0  0  0  0  0999 V2000
    0.9240   14.2990   -1.2710 O   0  0  0  0  0  0  0  0  0  0  0  0
   -0.2360   13.8610   -1.7650 C   0  0  2  0  0  0  0  0  0  0  0  0
    0.0980   13.2960   -3.1030 N   0  0  0  0  0  0  0  0  0  0  0  0
   -1.2770   15.1240   -1.5810 C   0  0  1  0  0  0  0  0  0  0  0  0
    0.6740   11.9160   -3.1140 C   0  0  0  0  0  0  0  0  0  0  0  0
   -2.5860   15.2500   -2.4720 C   0  0  1  0  0  0  0  0  0  0  0  0
   -1.5290   15.3430   -0.0860 N   0  0  0  0  0  0  0  0  0  0  0  0
   -0.9900   13.6030   -4.0680 C   0  0  2  0  0  0  0  0  0  0  0  0
   -2.6660   14.3370   -3.5660 O   0  0  0  0  0  0  0  0  0  0  0  0
    0.1880   11.1280   -2.1450 O   0  0  0  0  0  0  0  0  0  0  0  0
   -3.9520   15.1120   -1.7910 C   0  0  0  0  0  0  0  0  0  0  0  0
   -2.7150   14.6420    0.3530 C   0  0  0  0  0  0  0  0  0  0  0  0
   -1.7570   12.4960   -4.8670 C   0  0  2  0  0  0  0  0  0  0  0  0
   -0.7290   14.8020   -5.0180 C   0  0  0  0  0  0  0  0  0  0  0  0
   -0.8860   11.4160   -5.3080 O   0  0  0  0  0  0  0  0  0  0  0  0
   -3.9290   15.2910   -0.2780 C   0  0  0  0  0  0  0  0  0  0  0  0
   -2.5050   13.0680   -6.0800 C   0  0  0  0  0  0  0  0  0  0  0  0
   -2.0570   15.4950   -5.3320 C   0  0  0  0  0  0  0  0  0  0  0  0
   -3.0760   14.4880   -5.8740 C   0  0  0  0  0  0  0  0  0  0  0  0
  2  1  1  6
  2  3  1  0
  2  4  1  0
  3  5  1  0
  4  6  1  0
  4  7  1  1
  8  3  1  6
  6  9  1  6
  5 10  1  0
  6 11  1  0
  7 12  1  0
  8 13  1  0
  8 14  1  0
 13 15  1  6
 11 16  1  0
 12 16  1  0
 13 17  1  0
 14 18  1  0
 17 19  1  0
 18 19  1  0
M  CHG  2   1  -1  10  -1
M  END
