ucsf404-ucsf493
     RDKit          3D

 28 31  0  0  0  0  0  0  0  0999 V2000
   -6.6630   15.0080   -2.5770 Cl  0  0  0  0  0  0  0  0  0  0  0  0
   -5.2220   14.5050   -1.6340 C   0  0  2  0  0  0  0  0  0  0  0  0
   -5.2300   15.3490   -0.3620 C   0  0  1  0  0  0  0  0  0  0  0  0
   -3.9360   14.5890   -2.4730 C   0  0  1  0  0  0  0  0  0  0  0  0
   -6.2500   14.7900    0.5670 N   0  0  0  0  0  0  0  0  0  0  0  0
   -3.8630   15.4570    0.2990 C   0  0  1  0  0  0  0  0  0  0  0  0
   -2.6310   14.4800   -1.6620 C   0  0  0  0  0  0  0  0  0  0  0  0
   -3.9300   13.4910   -3.5640 C   0  0  0  0  0  0  0  0  0  0  0  0
   -5.6700   14.4760    1.8290 C   0  0  1  0  0  0  0  0  0  0  0  0
   -4.1990   15.4600    2.0440 S   0  0  0  0  0  0  0  0  0  0  0  0
   -2.8500   14.4400   -0.1600 C   0  0  0  0  0  0  0  0  0  0  0  0
   -4.0710   14.0110   -4.9830 C   0  0  0  0  0  0  0  0  0  0  0  0
   -6.6820   14.8490    2.7670 N   0  0  0  0  0  0  0  0  0  0  0  0
   -3.7960   15.4500   -5.0490 N   0  0  0  0  0  0  0  0  0  0  0  0
   -4.1570   15.8500   -6.3580 C   0  0  0  0  0  0  0  0  0  0  0  0
   -2.4070   15.8590   -4.7770 C   0  0  1  0  0  0  0  0  0  0  0  0
   -1.4020   14.7340   -4.8090 C   0  0  0  0  0  0  0  0  0  0  0  0
   -1.8720   17.1700   -5.4110 C   0  0  0  0  0  0  0  0  0  0  0  0
   -0.3060   15.1250   -3.8780 C   0  0  2  0  0  0  0  0  0  0  0  0
   -0.3310   17.3260   -5.3470 C   0  0  0  0  0  0  0  0  0  0  0  0
    0.4190   16.3720   -4.3850 C   0  0  2  0  0  0  0  0  0  0  0  0
    0.7780   14.0570   -3.7720 C   0  0  1  0  0  0  0  0  0  0  0  0
    0.2200   12.6090   -3.6990 C   0  0  0  0  0  0  0  0  0  0  0  0
    1.6430   15.8740   -5.0080 N   0  0  0  0  0  0  0  0  0  0  0  0
    1.5780   14.3900   -4.9840 C   0  0  0  0  0  0  0  0  0  0  0  0
    0.6890   11.7980   -2.4620 C   0  0  2  0  0  0  0  0  0  0  0  0
    0.3870   10.4210   -2.5660 O   0  0  0  0  0  0  0  0  0  0  0  0
    0.0530   12.1420   -1.3580 O   0  0  0  0  0  0  0  0  0  0  0  0
  2  1  1  6
  2  3  1  0
  2  4  1  0
  3  5  1  1
  3  6  1  0
  4  7  1  0
  4  8  1  6
  5  9  1  0
  6 10  1  0
  9 10  1  0
  6 11  1  1
  7 11  1  0
  8 12  1  0
  9 13  1  1
 12 14  1  0
 14 15  1  0
 16 14  1  6
 16 17  1  0
 16 18  1  0
 19 17  1  6
 18 20  1  0
 19 21  1  0
 21 20  1  6
 19 22  1  0
 22 23  1  6
 21 24  1  0
 22 25  1  0
 24 25  1  0
 23 26  1  0
 26 27  1  6
 26 28  1  0
M  CHG  1  28  -1
M  END
