ucsf345-ucsf340
     RDKit          3D

 25 27  0  0  0  0  0  0  0  0999 V2000
   -6.8470   14.7520    1.6250 N   0  0  0  0  0  0  0  0  0  0  0  0
   -6.7530   14.7440    0.1640 C   0  0  2  0  0  0  0  0  0  0  0  0
   -7.7640   13.8880   -0.3160 O   0  0  0  0  0  0  0  0  0  0  0  0
   -5.3780   14.3220   -0.4110 C   0  0  1  0  0  0  0  0  0  0  0  0
   -5.2690   14.6060   -1.8700 N   0  0  0  0  0  0  0  0  0  0  0  0
   -4.2250   15.0210    0.3500 C   0  0  0  0  0  0  0  0  0  0  0  0
   -3.9140   14.2220   -2.3010 C   0  0  1  0  0  0  0  0  0  0  0  0
   -2.9190   14.4810   -0.0620 N   0  0  0  0  0  0  0  0  0  0  0  0
   -3.0130   15.3630   -2.7430 C   0  0  0  0  0  0  0  0  0  0  0  0
   -3.1800   13.5250   -1.1570 C   0  0  0  0  0  0  0  0  0  0  0  0
   -2.5220   15.7240   -4.1530 C   0  0  1  0  0  0  0  0  0  0  0  0
   -1.0710   15.6630   -4.6450 C   0  0  2  0  0  0  0  0  0  0  0  0
   -3.4320   15.3250   -5.2810 C   0  0  0  0  0  0  0  0  0  0  0  0
    0.1580   15.6520   -3.7460 C   0  0  1  0  0  0  0  0  0  0  0  0
   -0.8550   16.8570   -5.5690 C   0  0  2  0  0  0  0  0  0  0  0  0
   -3.3000   16.3790   -6.3380 C   0  0  0  0  0  0  0  0  0  0  0  0
    0.9300   14.3270   -3.6310 C   0  0  0  0  0  0  0  0  0  0  0  0
    0.0060   17.7550   -4.8720 N   0  0  0  0  0  0  0  0  0  0  0  0
    0.9770   16.7890   -4.3720 C   0  0  0  0  0  0  0  0  0  0  0  0
   -2.1810   17.4370   -6.0910 C   0  0  0  0  0  0  0  0  0  0  0  0
    0.6790   18.5850   -5.8600 C   0  0  0  0  0  0  0  0  0  0  0  0
    0.1140   13.0130   -3.4570 C   0  0  0  0  0  0  0  0  0  0  0  0
    0.7640   12.0150   -2.4400 C   0  0  1  0  0  0  0  0  0  0  0  0
    0.4910   12.4830   -1.1420 O   0  0  0  0  0  0  0  0  0  0  0  0
    0.1360   10.8400   -2.3940 O   0  0  0  0  0  0  0  0  0  0  0  0
  2  1  1  1
  2  3  1  0
  2  4  1  0
  4  5  1  0
  4  6  1  1
  5  7  1  0
  6  8  1  0
  7  9  1  1
  7 10  1  0
  8 10  1  0
 11  9  1  1
 12 11  1  1
 11 13  1  0
 12 14  1  0
 12 15  1  0
 13 16  1  0
 14 17  1  6
 15 18  1  0
 14 19  1  0
 18 19  1  0
 15 20  1  1
 16 20  1  0
 18 21  1  0
 17 22  1  0
 22 23  1  0
 23 24  1  1
 23 25  1  0
M  CHG  1  25  -1
M  END
