ucsf247-ucsf396
     RDKit          3D

 15 15  0  0  0  0  0  0  0  0999 V2000
    0.7020   13.2850   -1.8390 O   0  0  0  0  0  0  0  0  0  0  0  0
    0.6020   13.6550   -3.1100 C   0  0  2  0  0  0  0  0  0  0  0  0
    1.7910   14.3860   -3.3230 O   0  0  0  0  0  0  0  0  0  0  0  0
   -0.6270   14.6090   -3.3220 C   0  0  0  0  0  0  0  0  0  0  0  0
   -1.8510   14.1780   -2.6300 N   0  0  0  0  0  0  0  0  0  0  0  0
   -3.0400   14.9890   -2.8150 C   0  0  1  0  0  0  0  0  0  0  0  0
   -3.8850   14.5380   -3.8350 O   0  0  0  0  0  0  0  0  0  0  0  0
   -3.7970   15.2720   -1.5110 C   0  0  1  0  0  0  0  0  0  0  0  0
   -5.1960   14.6590   -1.4830 C   0  0  0  0  0  0  0  0  0  0  0  0
   -3.0470   14.8060   -0.2630 C   0  0  0  0  0  0  0  0  0  0  0  0
   -5.8970   15.1800   -0.2440 C   0  0  1  0  0  0  0  0  0  0  0  0
   -3.6890   15.2750    1.0270 C   0  0  1  0  0  0  0  0  0  0  0  0
   -7.2500   14.7010   -0.1980 O   0  0  0  0  0  0  0  0  0  0  0  0
   -5.1620   14.8550    1.0810 C   0  0  0  0  0  0  0  0  0  0  0  0
   -2.9640   14.7060    2.1190 O   0  0  0  0  0  0  0  0  0  0  0  0
  2  1  1  1
  2  3  1  0
  2  4  1  0
  4  5  1  0
  5  6  1  0
  6  7  1  6
  6  8  1  0
  8  9  1  6
  8 10  1  0
  9 11  1  0
 10 12  1  0
 11 13  1  1
 11 14  1  0
 12 14  1  0
 12 15  1  1
M  CHG  1   1  -1
M  END
