ucsf403-ucsf017
     RDKit          3D

 31 35  0  0  0  0  0  0  0  0999 V2000
    0.7880    9.2760   -8.6800 Cl  0  0  0  0  0  0  0  0  0  0  0  0
   -0.7510    9.9420   -8.0160 C   0  0  2  0  0  0  0  0  0  0  0  0
   -0.5970   11.1650   -7.1110 C   0  0  2  0  0  0  0  0  0  0  0  0
   -1.7210    8.8360   -7.4840 C   0  0  0  0  0  0  0  0  0  0  0  0
    0.2950   11.0440   -6.0020 O   0  0  0  0  0  0  0  0  0  0  0  0
   -2.0110   11.5050   -6.6900 C   0  0  2  0  0  0  0  0  0  0  0  0
   -2.4030    9.0380   -6.1040 C   0  0  0  0  0  0  0  0  0  0  0  0
   -2.1540   12.9800   -6.3880 C   0  0  0  0  0  0  0  0  0  0  0  0
    1.2120   12.1130   -5.6510 C   0  0  0  0  0  0  0  0  0  0  0  0
   -2.5430   10.5010   -5.6590 C   0  0  0  0  0  0  0  0  0  0  0  0
    1.5170   12.2030   -4.1080 C   0  0  2  0  0  0  0  0  0  0  0  0
   -2.2620   13.3710   -4.9700 C   0  0  2  0  0  0  0  0  0  0  0  0
    2.7380   12.5070   -3.7580 O   0  0  0  0  0  0  0  0  0  0  0  0
    1.4010   10.9250   -3.5290 O   0  0  0  0  0  0  0  0  0  0  0  0
   -2.5600   14.7730   -4.8920 O   0  0  0  0  0  0  0  0  0  0  0  0
   -1.0920   13.0880   -4.0520 C   0  0  1  0  0  0  0  0  0  0  0  0
   -1.7760   15.2900   -3.8260 C   0  0  0  0  0  0  0  0  0  0  0  0
   -1.4070   14.0870   -2.9690 C   0  0  2  0  0  0  0  0  0  0  0  0
   -0.8520   11.6500   -3.5660 C   0  0  0  0  0  0  0  0  0  0  0  0
    0.0090   11.6990   -2.3130 C   0  0  0  0  0  0  0  0  0  0  0  0
   -0.3550   14.1330   -1.9880 N   0  0  0  0  0  0  0  0  0  0  0  0
    0.6470   13.0980   -2.2130 C   0  0  0  0  0  0  0  0  0  0  0  0
   -0.8660   14.0650   -0.6680 C   0  0  1  0  0  0  0  0  0  0  0  0
   -0.0050   14.7650    0.2470 N   0  0  0  0  0  0  0  0  0  0  0  0
   -2.3540   14.3510   -0.3790 C   0  0  1  0  0  0  0  0  0  0  0  0
   -0.3080   14.2250    1.5430 C   0  0  0  0  0  0  0  0  0  0  0  0
   -2.3100   15.2560    0.7980 C   0  0  2  0  0  0  0  0  0  0  0  0
   -3.3450   15.1510   -1.2150 C   0  0  0  0  0  0  0  0  0  0  0  0
   -1.6730   14.5530    1.8510 N   0  0  0  0  0  0  0  0  0  0  0  0
   -3.7090   15.4880    1.1390 N   0  0  0  0  0  0  0  0  0  0  0  0
   -4.4130   15.4560   -0.1620 C   0  0  0  0  0  0  0  0  0  0  0  0
  2  1  1  1
  2  3  1  0
  2  4  1  0
  3  5  1  1
  3  6  1  0
  4  7  1  0
  6  8  1  1
  5  9  1  0
  6 10  1  0
  7 10  1  0
  9 11  1  0
 12  8  1  6
 11 13  1  6
 11 14  1  0
 12 15  1  0
 12 16  1  0
 15 17  1  0
 16 18  1  0
 18 17  1  6
 16 19  1  1
 19 20  1  0
 18 21  1  0
 20 22  1  0
 21 22  1  0
 23 21  1  6
 23 24  1  0
 23 25  1  0
 24 26  1  0
 25 27  1  0
 25 28  1  6
 26 29  1  0
 27 29  1  1
 27 30  1  0
 28 31  1  0
 30 31  1  0
M  CHG  1  13  -1
M  END
