ucsf392-ucsf333
     RDKit          3D

 18 19  0  0  0  0  0  0  0  0999 V2000
   -5.2820   14.9840   -1.0660 C   0  0  0  0  0  0  0  0  0  0  0  0
   -3.8140   15.1800   -0.6980 C   0  0  2  0  0  0  0  0  0  0  0  0
   -2.7440   14.9180   -1.7810 C   0  0  2  0  0  0  0  0  0  0  0  0
   -3.5010   14.7700    0.7620 C   0  0  2  0  0  0  0  0  0  0  0  0
   -4.2790   15.4830    1.7560 N   0  0  0  0  0  0  0  0  0  0  0  0
   -2.1570   14.7290    1.2710 N   0  0  0  0  0  0  0  0  0  0  0  0
   -3.0470   15.1930   -3.2410 C   0  0  0  0  0  0  0  0  0  0  0  0
   -1.7560   13.5210   -1.8750 S   0  0  2  0  0  0  0  0  0  0  0  0
   -1.0200   14.6680    0.3740 C   0  0  2  0  0  0  0  0  0  0  0  0
   -0.8900   13.5410   -0.4740 N   0  0  0  0  0  0  0  0  0  0  0  0
   -1.0460   13.9560   -3.4440 C   0  0  1  0  0  0  0  0  0  0  0  0
   -1.7580   15.1360   -3.9550 N   0  0  0  0  0  0  0  0  0  0  0  0
    0.2410   15.2530    0.8890 C   0  0  0  0  0  0  0  0  0  0  0  0
    0.4810   13.9040   -3.6060 C   0  0  0  0  0  0  0  0  0  0  0  0
    1.0890   12.5030   -3.4990 C   0  0  0  0  0  0  0  0  0  0  0  0
    0.3160   11.6430   -2.4800 C   0  0  2  0  0  0  0  0  0  0  0  0
    0.7520   11.9500   -1.2950 O   0  0  0  0  0  0  0  0  0  0  0  0
    0.5950   10.2710   -2.5470 O   0  0  0  0  0  0  0  0  0  0  0  0
  2  1  1  6
  2  3  1  0
  2  4  1  0
  4  5  1  1
  4  6  1  0
  3  7  1  6
  3  8  1  0
  6  9  1  0
  8 10  1  1
  9 10  1  0
  8 11  1  0
  7 12  1  0
 11 12  1  0
  9 13  1  1
 11 14  1  1
 14 15  1  0
 15 16  1  0
 16 17  1  1
 16 18  1  0
M  CHG  1  17  -1
M  END
