ucsf013-ucsf442
     RDKit          3D

 18 20  0  0  0  0  0  0  0  0999 V2000
   -4.8550   15.5920    2.2260 N   0  0  0  0  0  0  0  0  0  0  0  0
   -5.3200   15.2240    1.0130 C   0  0  2  0  0  0  0  0  0  0  0  0
   -6.4090   14.4720    1.1900 N   0  0  0  0  0  0  0  0  0  0  0  0
   -4.0280   14.5970   -0.2180 S   0  0  0  0  0  0  0  0  0  0  0  0
   -5.5910   14.8880   -0.9870 C   0  0  2  0  0  0  0  0  0  0  0  0
   -7.5170   14.5050    0.3230 C   0  0  0  0  0  0  0  0  0  0  0  0
   -4.2380   13.1660   -1.3780 C   0  0  0  0  0  0  0  0  0  0  0  0
   -2.6130   15.3470   -1.0070 C   0  0  0  0  0  0  0  0  0  0  0  0
   -2.6920   15.5340    0.4910 C   0  0  2  0  0  0  0  0  0  0  0  0
   -2.1620   16.1830   -0.6940 O   0  0  0  0  0  0  0  0  0  0  0  0
   -6.6600   14.0510   -0.7950 N   0  0  0  0  0  0  0  0  0  0  0  0
   -5.6620   15.0280   -2.4980 C   0  0  0  0  0  0  0  0  0  0  0  0
   -3.8430   13.6920   -2.7170 C   0  0  0  0  0  0  0  0  0  0  0  0
   -1.4880   14.4710   -0.8440 N   0  0  0  0  0  0  0  0  0  0  0  0
   -1.6820   15.0040    1.1160 N   0  0  0  0  0  0  0  0  0  0  0  0
   -4.3790   14.9430   -3.1920 C   0  0  0  0  0  0  0  0  0  0  0  0
   -0.6460   14.4630    0.2900 C   0  0  2  0  0  0  0  0  0  0  0  0
    0.4270   15.2990    0.2260 O   0  0  0  0  0  0  0  0  0  0  0  0
  2  1  1  1
  2  3  1  0
  2  4  1  0
  4  5  1  0
  3  6  1  0
  4  7  1  0
  4  8  1  0
  4  9  1  0
  9 10  1  6
  5 11  1  0
  6 11  1  0
  5 12  1  6
  7 13  1  0
  8 14  1  0
  9 15  1  0
 12 16  1  0
 13 16  1  0
 14 17  1  0
 15 17  1  0
 17 18  1  6
M  END
