ucsf039-ucsf339
     RDKit          3D

 24 27  0  0  0  0  0  0  0  0999 V2000
   -4.1260   15.8110    1.7300 N   0  0  0  0  0  0  0  0  0  0  0  0
   -3.5910   14.6040    0.2210 S   0  0  0  0  0  0  0  0  0  0  0  0
   -1.9310   15.3230    0.1570 C   0  0  2  0  0  0  0  0  0  0  0  0
   -3.0930   15.5240   -1.2080 N   0  0  0  0  0  0  0  0  0  0  0  0
   -4.6510   13.4830    1.1120 C   0  0  0  0  0  0  0  0  0  0  0  0
   -4.9720   14.0290   -0.7770 C   0  0  0  0  0  0  0  0  0  0  0  0
   -2.6570   14.8650   -2.3110 C   0  0  0  0  0  0  0  0  0  0  0  0
   -0.9360   15.1450   -0.8650 C   0  0  2  0  0  0  0  0  0  0  0  0
   -1.2510   15.2490    1.3320 N   0  0  0  0  0  0  0  0  0  0  0  0
   -5.9900   13.9540    1.4520 C   0  0  0  0  0  0  0  0  0  0  0  0
   -6.1310   14.9000   -0.6210 C   0  0  0  0  0  0  0  0  0  0  0  0
   -1.2680   14.6140   -2.1560 N   0  0  0  0  0  0  0  0  0  0  0  0
    0.0380   14.2620   -0.2480 N   0  0  0  0  0  0  0  0  0  0  0  0
    0.0030   14.5980    1.1430 C   0  0  0  0  0  0  0  0  0  0  0  0
   -6.9860   14.3000    0.4220 C   0  0  0  0  0  0  0  0  0  0  0  0
   -0.2830   14.7900   -3.0390 C   0  0  2  0  0  0  0  0  0  0  0  0
   -0.1640   13.7460   -3.9930 O   0  0  0  0  0  0  0  0  0  0  0  0
    0.9340   14.5310   -2.3410 O   0  0  0  0  0  0  0  0  0  0  0  0
   -0.0950   16.1030   -3.7630 C   0  0  1  0  0  0  0  0  0  0  0  0
    1.1770   16.1680   -4.4870 C   0  0  0  0  0  0  0  0  0  0  0  0
   -1.1360   16.5670   -4.5290 N   0  0  0  0  0  0  0  0  0  0  0  0
   -0.8610   17.8590   -5.0420 C   0  0  1  0  0  0  0  0  0  0  0  0
    0.9410   17.7680   -5.3710 S   0  0  0  0  0  0  0  0  0  0  0  0
   -1.5160   18.2570   -6.3280 C   0  0  0  0  0  0  0  0  0  0  0  0
  1  2  1  0
  2  3  1  0
  2  4  1  0
  2  5  1  0
  2  6  1  0
  4  7  1  0
  3  8  1  0
  3  9  1  1
  5 10  1  0
  6 11  1  0
  7 12  1  0
  8 12  1  0
  8 13  1  1
  9 14  1  0
 13 14  1  0
 10 15  1  0
 11 15  1  0
 12 16  1  0
 16 17  1  6
 16 18  1  0
 16 19  1  0
 19 20  1  6
 19 21  1  0
 21 22  1  0
 20 23  1  0
 22 23  1  0
 22 24  1  6
M  CHG  1  17  -1
M  END
