ucsf114-ucsf170
     RDKit          3D

 21 23  0  0  0  0  0  0  0  0999 V2000
    0.7830   18.1740   -4.5910 C   0  0  0  0  0  0  0  0  0  0  0  0
   -0.2930   17.4850   -5.4130 C   0  0  0  0  0  0  0  0  0  0  0  0
   -1.6430   18.1910   -5.2590 C   0  0  0  0  0  0  0  0  0  0  0  0
   -0.3520   16.1380   -4.9170 O   0  0  0  0  0  0  0  0  0  0  0  0
    0.8760   15.7330   -4.2730 C   0  0  0  0  0  0  0  0  0  0  0  0
    0.8770   14.2620   -3.8680 C   0  0  2  0  0  0  0  0  0  0  0  0
    0.2700   13.6810   -2.5350 C   0  0  1  0  0  0  0  0  0  0  0  0
    2.2020   13.6600   -3.3460 C   0  0  0  0  0  0  0  0  0  0  0  0
   -1.1000   13.0300   -2.7660 C   0  0  0  0  0  0  0  0  0  0  0  0
    1.3860   12.7210   -2.5510 N   0  0  0  0  0  0  0  0  0  0  0  0
    0.4330   14.5710   -1.3300 N   0  0  0  0  0  0  0  0  0  0  0  0
   -0.5780   14.3940   -0.2810 C   0  0  1  0  0  0  0  0  0  0  0  0
   -2.1080   14.0820   -2.3660 C   0  0  2  0  0  0  0  0  0  0  0  0
   -0.4870   15.3810    0.7430 O   0  0  0  0  0  0  0  0  0  0  0  0
   -1.8630   15.2510   -3.1590 O   0  0  0  0  0  0  0  0  0  0  0  0
   -2.0170   14.1720   -0.8470 C   0  0  2  0  0  0  0  0  0  0  0  0
   -3.5970   13.8130   -2.4660 C   0  0  0  0  0  0  0  0  0  0  0  0
   -3.0860   15.1330   -0.5000 N   0  0  0  0  0  0  0  0  0  0  0  0
   -4.1560   14.8630   -1.4980 C   0  0  0  0  0  0  0  0  0  0  0  0
   -3.4220   15.4460    1.0860 S   0  0  0  0  0  0  0  0  0  0  0  0
   -5.1490   14.9280    1.1950 C   0  0  0  0  0  0  0  0  0  0  0  0
  1  2  1  0
  2  3  1  0
  2  4  1  0
  4  5  1  0
  6  5  1  1
  6  7  1  0
  6  8  1  0
  7  9  1  6
  7 10  1  0
  8 10  1  0
  7 11  1  0
 11 12  1  0
  9 13  1  0
 12 14  1  1
 13 15  1  6
 12 16  1  0
 13 16  1  0
 13 17  1  0
 16 18  1  6
 17 19  1  0
 18 19  1  0
 18 20  1  0
 20 21  1  0
M  END
