ucsf378-ucsf345
     RDKit          3D

 24 25  0  0  0  0  0  0  0  0999 V2000
   -2.4950   14.0870   -4.4660 Cl  0  0  0  0  0  0  0  0  0  0  0  0
   -0.7760   14.3940   -4.8480 C   0  0  2  0  0  0  0  0  0  0  0  0
    0.1810   13.5870   -3.9680 C   0  0  1  0  0  0  0  0  0  0  0  0
   -0.4900   15.9070   -4.7610 C   0  0  0  0  0  0  0  0  0  0  0  0
   -0.0830   12.0610   -3.8660 C   0  0  0  0  0  0  0  0  0  0  0  0
    1.6030   13.8810   -4.4320 C   0  0  2  0  0  0  0  0  0  0  0  0
    0.9920   16.3010   -4.7750 C   0  0  0  0  0  0  0  0  0  0  0  0
    2.8870   12.8200   -3.7910 Cl  0  0  0  0  0  0  0  0  0  0  0  0
    0.4420   11.4710   -2.5460 C   0  0  1  0  0  0  0  0  0  0  0  0
    1.8590   15.3030   -4.0220 C   0  0  0  0  0  0  0  0  0  0  0  0
   -0.1400   12.0130   -1.3700 O   0  0  0  0  0  0  0  0  0  0  0  0
    0.2880   10.0740   -2.5380 O   0  0  0  0  0  0  0  0  0  0  0  0
    0.1240   13.3700   -1.0250 C   0  0  0  0  0  0  0  0  0  0  0  0
   -1.1800   13.9180   -0.4830 C   0  0  0  0  0  0  0  0  0  0  0  0
   -2.3560   13.5880   -1.4130 C   0  0  0  0  0  0  0  0  0  0  0  0
   -3.1710   14.8530   -1.6890 C   0  0  1  0  0  0  0  0  0  0  0  0
   -4.4510   14.6380   -2.5600 C   0  0  0  0  0  0  0  0  0  0  0  0
   -3.4030   15.5350   -0.4060 N   0  0  0  0  0  0  0  0  0  0  0  0
   -5.7070   14.3130   -1.8560 N   0  0  0  0  0  0  0  0  0  0  0  0
   -4.6180   15.0730    0.2580 C   0  0  0  0  0  0  0  0  0  0  0  0
   -5.8520   15.1760   -0.6570 C   0  0  2  0  0  0  0  0  0  0  0  0
   -7.1620   14.8500    0.1120 C   0  0  2  0  0  0  0  0  0  0  0  0
   -6.9320   14.6050    1.5300 N   0  0  0  0  0  0  0  0  0  0  0  0
   -7.7830   13.7170   -0.4080 O   0  0  0  0  0  0  0  0  0  0  0  0
  2  1  1  1
  2  3  1  0
  2  4  1  0
  3  5  1  6
  3  6  1  0
  4  7  1  0
  6  8  1  1
  5  9  1  0
  6 10  1  0
  7 10  1  0
  9 11  1  0
  9 12  1  6
 11 13  1  0
 13 14  1  0
 14 15  1  0
 16 15  1  1
 16 17  1  0
 16 18  1  0
 17 19  1  0
 18 20  1  0
 19 21  1  0
 21 20  1  1
 21 22  1  0
 22 23  1  1
 22 24  1  0
M  END
