ucsf258-ucsf442
     RDKit          3D

 15 16  0  0  0  0  0  0  0  0999 V2000
    0.6450   13.0610   -1.3090 O   0  0  0  0  0  0  0  0  0  0  0  0
   -0.1660   13.5440   -2.2500 C   0  0  2  0  0  0  0  0  0  0  0  0
    0.7250   14.1610   -3.1590 O   0  0  0  0  0  0  0  0  0  0  0  0
   -1.1140   14.6470   -1.6430 C   0  0  1  0  0  0  0  0  0  0  0  0
   -2.4280   14.6150   -2.5010 C   0  0  2  0  0  0  0  0  0  0  0  0
   -1.3070   14.5160   -0.1590 N   0  0  0  0  0  0  0  0  0  0  0  0
   -2.1970   15.2820   -3.7560 O   0  0  0  0  0  0  0  0  0  0  0  0
   -0.2160   15.2300    0.5200 O   0  0  0  0  0  0  0  0  0  0  0  0
   -3.7050   15.1690   -1.8820 C   0  0  0  0  0  0  0  0  0  0  0  0
   -2.5460   15.0720    0.4480 C   0  0  0  0  0  0  0  0  0  0  0  0
   -3.8550   14.9450   -0.3650 C   0  0  1  0  0  0  0  0  0  0  0  0
   -4.9320   15.7940    0.1640 N   0  0  0  0  0  0  0  0  0  0  0  0
   -4.4100   13.5880    0.0480 C   0  0  0  0  0  0  0  0  0  0  0  0
   -5.3850   13.8430    1.1190 N   0  0  0  0  0  0  0  0  0  0  0  0
   -5.1530   15.2040    1.4520 C   0  0  0  0  0  0  0  0  0  0  0  0
  2  1  1  1
  2  3  1  0
  2  4  1  0
  4  5  1  0
  4  6  1  1
  5  7  1  6
  6  8  1  0
  5  9  1  0
  6 10  1  0
 11  9  1  6
 10 11  1  0
 11 12  1  0
 11 13  1  0
 13 14  1  0
 12 15  1  0
 14 15  1  0
M  CHG  1   1  -1
M  END
