ucsf339-ucsf511
     RDKit          3D

 24 26  0  0  0  0  0  0  0  0999 V2000
    2.0310   14.7460   -2.2070 O   0  0  0  0  0  0  0  0  0  0  0  0
    0.8320   14.2990   -2.5840 C   0  0  1  0  0  0  0  0  0  0  0  0
    0.5690   12.9920   -2.1350 O   0  0  0  0  0  0  0  0  0  0  0  0
   -0.3570   15.1020   -1.9610 C   0  0  0  0  0  0  0  0  0  0  0  0
   -1.3570   14.4590   -0.9040 C   0  0  0  0  0  0  0  0  0  0  0  0
   -0.5790   12.5530   -2.8090 C   0  0  0  0  0  0  0  0  0  0  0  0
   -2.9550   14.4110   -1.1020 C   0  0  1  0  0  0  0  0  0  0  0  0
   -0.6080   13.1800   -4.1490 N   0  0  0  0  0  0  0  0  0  0  0  0
   -3.6180   13.5880    0.0180 C   0  0  0  0  0  0  0  0  0  0  0  0
   -1.6200   14.2480   -4.2930 C   0  0  0  0  0  0  0  0  0  0  0  0
   -3.7430   15.7460   -1.0210 C   0  0  0  0  0  0  0  0  0  0  0  0
   -2.9160   13.7690   -5.0390 C   0  0  1  0  0  0  0  0  0  0  0  0
   -3.5000   14.3590    1.3530 C   0  0  0  0  0  0  0  0  0  0  0  0
   -5.0710   13.1340   -0.3380 C   0  0  0  0  0  0  0  0  0  0  0  0
   -5.2760   15.6310   -1.0670 C   0  0  0  0  0  0  0  0  0  0  0  0
   -4.2540   13.8480   -4.2410 C   0  0  1  0  0  0  0  0  0  0  0  0
   -4.6950   15.2380    1.6700 C   0  0  0  0  0  0  0  0  0  0  0  0
   -6.2500   13.9200    0.2610 C   0  0  0  0  0  0  0  0  0  0  0  0
   -5.6640   15.0900   -2.4290 C   0  0  0  0  0  0  0  0  0  0  0  0
   -3.2210   14.6680   -6.2600 C   0  0  0  0  0  0  0  0  0  0  0  0
   -5.9640   14.4150    1.6520 C   0  0  0  0  0  0  0  0  0  0  0  0
   -4.7300   14.7860   -6.4240 C   0  0  0  0  0  0  0  0  0  0  0  0
   -4.3460   14.9680   -3.2120 C   0  0  0  0  0  0  0  0  0  0  0  0
   -5.3490   13.9740   -5.3060 C   0  0  0  0  0  0  0  0  0  0  0  0
  2  1  1  1
  2  3  1  0
  2  4  1  0
  4  5  1  0
  3  6  1  0
  5  7  1  0
  6  8  1  0
  7  9  1  1
  8 10  1  0
  7 11  1  0
 12 10  1  1
  9 13  1  0
  9 14  1  0
 11 15  1  0
 12 16  1  0
 13 17  1  0
 14 18  1  0
 15 19  1  0
 12 20  1  0
 17 21  1  0
 18 21  1  0
 20 22  1  0
 16 23  1  1
 19 23  1  0
 16 24  1  0
 22 24  1  0
M  CHG  1   1  -1
M  END
