ucsf241-ucsf248
     RDKit          3D

 17 19  0  0  0  0  0  0  0  0999 V2000
   -8.0720   12.8260    2.9680 N   0  0  0  0  0  0  0  0  0  0  0  0
   -8.0720   14.1470    1.9860 S   0  0  0  0  0  0  0  0  0  0  0  0
   -7.7380   15.4230    2.8850 O   0  0  0  0  0  0  0  0  0  0  0  0
   -9.5220   14.4290    1.3630 O   0  0  0  0  0  0  0  0  0  0  0  0
   -6.8630   14.1560    0.6030 C   0  0  2  0  0  0  0  0  0  0  0  0
   -5.4530   14.2320    0.9950 N   0  0  0  0  0  0  0  0  0  0  0  0
   -7.1220   15.2300   -0.3650 N   0  0  0  0  0  0  0  0  0  0  0  0
   -4.7190   14.9940   -0.0110 C   0  0  2  0  0  0  0  0  0  0  0  0
   -5.7960   15.7430   -0.8090 C   0  0  0  0  0  0  0  0  0  0  0  0
   -3.8310   14.2610   -1.0260 C   0  0  0  0  0  0  0  0  0  0  0  0
   -3.8110   15.8000    0.8380 N   0  0  0  0  0  0  0  0  0  0  0  0
   -2.4630   14.2620   -0.4090 C   0  0  2  0  0  0  0  0  0  0  0  0
   -2.4280   15.4710    0.4640 C   0  0  2  0  0  0  0  0  0  0  0  0
   -1.2120   14.3380   -1.2610 C   0  0  0  0  0  0  0  0  0  0  0  0
   -1.6090   15.1350    1.5730 N   0  0  0  0  0  0  0  0  0  0  0  0
   -0.0110   14.5810   -0.3270 C   0  0  0  0  0  0  0  0  0  0  0  0
   -0.3580   14.4650    1.1710 C   0  0  0  0  0  0  0  0  0  0  0  0
  1  2  1  0
  2  3  1  0
  2  4  1  0
  5  2  1  1
  5  6  1  0
  5  7  1  0
  8  6  1  0
  7  9  1  0
  8  9  1  6
  8 10  1  0
  8 11  1  0
 12 10  1  6
 13 11  1  1
 12 13  1  0
 12 14  1  0
 13 15  1  0
 14 16  1  0
 15 17  1  0
 16 17  1  0
M  END
