ucsf336-ucsf511
     RDKit          3D

 25 28  0  0  0  0  0  0  0  0999 V2000
    2.7970   12.4130   -4.1290 O   0  0  0  0  0  0  0  0  0  0  0  0
    1.6930   13.1080   -4.3060 C   0  0  2  0  0  0  0  0  0  0  0  0
    1.5340   13.8200   -3.0920 O   0  0  0  0  0  0  0  0  0  0  0  0
    0.4450   12.0950   -4.4680 C   0  0  2  0  0  0  0  0  0  0  0  0
    0.4320   11.0650   -3.4650 O   0  0  0  0  0  0  0  0  0  0  0  0
    0.1210   11.5760   -5.7960 N   0  0  0  0  0  0  0  0  0  0  0  0
    0.1050   14.0040   -2.9700 N   0  0  0  0  0  0  0  0  0  0  0  0
   -0.5460   10.2760   -5.8400 C   0  0  0  0  0  0  0  0  0  0  0  0
   -0.0970   14.5870   -1.6570 C   0  0  0  0  0  0  0  0  0  0  0  0
   -0.3530   14.8700   -4.0820 C   0  0  0  0  0  0  0  0  0  0  0  0
   -0.2880    9.5990   -7.2020 C   0  0  0  0  0  0  0  0  0  0  0  0
   -2.0460   10.4860   -5.6010 C   0  0  0  0  0  0  0  0  0  0  0  0
   -1.4920   15.1410   -1.5920 C   0  0  1  0  0  0  0  0  0  0  0  0
   -1.8160   15.0310   -4.0620 N   0  0  0  0  0  0  0  0  0  0  0  0
   -1.5510    9.2570   -7.9880 C   0  0  0  0  0  0  0  0  0  0  0  0
   -2.8390    9.1960   -5.8080 C   0  0  0  0  0  0  0  0  0  0  0  0
   -2.3070   14.5980   -2.7530 C   0  0  2  0  0  0  0  0  0  0  0  0
   -2.2560   14.8870   -0.4060 O   0  0  0  0  0  0  0  0  0  0  0  0
   -2.5800    8.5150   -7.1460 C   0  0  0  0  0  0  0  0  0  0  0  0
   -3.6000   14.6840   -0.8840 C   0  0  2  0  0  0  0  0  0  0  0  0
   -3.6160   15.1930   -2.3150 C   0  0  2  0  0  0  0  0  0  0  0  0
   -4.8760   14.6860   -2.9850 C   0  0  0  0  0  0  0  0  0  0  0  0
   -4.6180   15.3710   -0.0070 C   0  0  0  0  0  0  0  0  0  0  0  0
   -6.1160   15.0180   -2.1460 C   0  0  0  0  0  0  0  0  0  0  0  0
   -5.9060   15.6900   -0.7720 C   0  0  0  0  0  0  0  0  0  0  0  0
  2  1  1  1
  2  3  1  0
  2  4  1  0
  4  5  1  1
  4  6  1  0
  3  7  1  0
  6  8  1  0
  7  9  1  0
  7 10  1  0
  8 11  1  0
  8 12  1  0
 13  9  1  1
 10 14  1  0
 11 15  1  0
 12 16  1  0
 13 17  1  0
 17 14  1  6
 13 18  1  0
 15 19  1  0
 16 19  1  0
 18 20  1  0
 17 21  1  0
 20 21  1  0
 21 22  1  6
 20 23  1  1
 22 24  1  0
 23 25  1  0
 24 25  1  0
M  CHG  1   1  -1
M  END
