ucsf248-ucsf016
     RDKit          3D

 26 30  0  0  0  0  0  0  0  0999 V2000
   -8.8160   12.9730    3.0040 N   0  0  0  0  0  0  0  0  0  0  0  0
   -8.4010   14.3000    2.1190 S   0  0  0  0  0  0  0  0  0  0  0  0
   -7.8360   15.4240    3.1040 O   0  0  0  0  0  0  0  0  0  0  0  0
   -9.6720   14.9380    1.3860 O   0  0  0  0  0  0  0  0  0  0  0  0
   -7.1140   14.0300    0.8520 C   0  0  2  0  0  0  0  0  0  0  0  0
   -5.7440   13.9570    1.3640 N   0  0  0  0  0  0  0  0  0  0  0  0
   -7.0800   14.9880   -0.2620 N   0  0  0  0  0  0  0  0  0  0  0  0
   -5.0610   13.9460    0.0820 C   0  0  1  0  0  0  0  0  0  0  0  0
   -5.6330   15.1980   -0.4880 C   0  0  1  0  0  0  0  0  0  0  0  0
   -3.5210   13.8490    0.1190 C   0  0  0  0  0  0  0  0  0  0  0  0
   -5.1850   15.2630   -1.9000 C   0  0  0  0  0  0  0  0  0  0  0  0
   -2.7190   14.8210   -0.8120 C   0  0  1  0  0  0  0  0  0  0  0  0
   -3.6520   15.3630   -2.0020 C   0  0  0  0  0  0  0  0  0  0  0  0
   -2.2780   15.9030    0.1560 C   0  0  0  0  0  0  0  0  0  0  0  0
   -1.2960   14.3620   -1.4240 C   0  0  1  0  0  0  0  0  0  0  0  0
   -0.7560   14.7620   -2.7620 N   0  0  0  0  0  0  0  0  0  0  0  0
   -0.2120   14.8750   -0.5520 N   0  0  0  0  0  0  0  0  0  0  0  0
   -1.6050   15.2640    1.2900 N   0  0  0  0  0  0  0  0  0  0  0  0
    0.3920   14.0810   -3.3610 C   0  0  0  0  0  0  0  0  0  0  0  0
   -1.6080   15.4980   -3.7200 C   0  0  0  0  0  0  0  0  0  0  0  0
   -0.3960   14.6080    0.8570 C   0  0  0  0  0  0  0  0  0  0  0  0
   -2.1140   14.5490   -4.8110 C   0  0  0  0  0  0  0  0  0  0  0  0
    0.3110   13.8940   -4.8870 C   0  0  0  0  0  0  0  0  0  0  0  0
   -3.5500   14.0480   -4.7700 C   0  0  0  0  0  0  0  0  0  0  0  0
   -3.1640   15.0980   -5.7660 C   0  0  0  0  0  0  0  0  0  0  0  0
   -1.0940   13.5450   -5.3320 C   0  0  0  0  0  0  0  0  0  0  0  0
  1  2  1  0
  2  3  1  0
  2  4  1  0
  5  2  1  1
  5  6  1  0
  5  7  1  0
  6  8  1  0
  7  9  1  0
  8  9  1  0
  8 10  1  1
  9 11  1  6
 12 10  1  1
 11 13  1  0
 12 13  1  0
 12 14  1  0
 12 15  1  0
 15 16  1  6
 15 17  1  0
 14 18  1  0
 16 19  1  0
 16 20  1  0
 17 21  1  0
 18 21  1  0
 22 20  1  0
 19 23  1  0
 22 24  1  0
 22 25  1  0
 24 25  1  0
 22 26  1  0
 23 26  1  0
M  END
