ucsf339-ucsf333
     RDKit          3D

 23 26  0  0  0  0  0  0  0  0999 V2000
    0.6930   14.0110   -4.3260 O   0  0  0  0  0  0  0  0  0  0  0  0
   -0.0550   13.3110   -3.3490 C   0  0  1  0  0  0  0  0  0  0  0  0
    0.7200   13.3980   -2.1730 O   0  0  0  0  0  0  0  0  0  0  0  0
    1.9680   13.3980   -4.0930 C   0  0  0  0  0  0  0  0  0  0  0  0
    1.7760   12.6950   -2.7480 C   0  0  2  0  0  0  0  0  0  0  0  0
   -1.4670   13.7680   -3.1400 C   0  0  2  0  0  0  0  0  0  0  0  0
    1.2750   11.3970   -2.8980 O   0  0  0  0  0  0  0  0  0  0  0  0
   -1.8180   15.1360   -3.7020 C   0  0  0  0  0  0  0  0  0  0  0  0
   -1.8530   13.9730   -1.6980 C   0  0  1  0  0  0  0  0  0  0  0  0
   -0.8840   14.6850   -0.7450 C   0  0  0  0  0  0  0  0  0  0  0  0
   -3.2850   14.5430   -1.8930 C   0  0  1  0  0  0  0  0  0  0  0  0
   -3.1810   15.3630   -3.1630 N   0  0  0  0  0  0  0  0  0  0  0  0
   -4.4520   13.5490   -2.0500 C   0  0  0  0  0  0  0  0  0  0  0  0
   -3.8250   15.2060   -0.6210 C   0  0  2  0  0  0  0  0  0  0  0  0
   -1.6060   15.2460    0.4820 C   0  0  0  0  0  0  0  0  0  0  0  0
   -5.4080   16.0290   -0.9230 Cl  0  0  0  0  0  0  0  0  0  0  0  0
   -5.3290   13.6080   -0.7730 C   0  0  0  0  0  0  0  0  0  0  0  0
   -2.8120   16.0550    0.0710 C   0  0  0  0  0  0  0  0  0  0  0  0
   -4.5290   13.9970    0.4880 C   0  0  0  0  0  0  0  0  0  0  0  0
   -6.0920   12.3240   -0.4110 C   0  0  0  0  0  0  0  0  0  0  0  0
   -5.4490   14.3410    1.6330 C   0  0  0  0  0  0  0  0  0  0  0  0
   -6.9280   12.4400    0.8790 C   0  0  0  0  0  0  0  0  0  0  0  0
   -6.2190   13.1070    2.0580 C   0  0  0  0  0  0  0  0  0  0  0  0
  2  1  1  6
  2  3  1  0
  1  4  1  0
  3  5  1  0
  4  5  1  0
  2  6  1  0
  5  7  1  6
  6  8  1  6
  6  9  1  0
  9 10  1  6
  9 11  1  0
  8 12  1  0
 11 12  1  0
 11 13  1  6
 11 14  1  0
 10 15  1  0
 14 16  1  6
 13 17  1  0
 14 18  1  0
 15 18  1  0
 17 19  1  0
 17 20  1  0
 19 21  1  0
 20 22  1  0
 21 23  1  0
 22 23  1  0
M  END
