ucsf385-ucsf274
     RDKit          3D

 25 27  0  0  0  0  0  0  0  0999 V2000
   -3.4490   14.8840   -1.6110 N   0  0  0  0  0  0  0  0  0  0  0  0
   -2.3830   15.1720   -0.6260 C   0  0  1  0  0  0  0  0  0  0  0  0
   -2.7220   14.5190    0.7250 C   0  0  0  0  0  0  0  0  0  0  0  0
   -0.9090   14.8770   -1.0890 C   0  0  2  0  0  0  0  0  0  0  0  0
   -0.5860   14.6930   -2.6820 C   0  0  1  0  0  0  0  0  0  0  0  0
   -0.3090   13.8550   -0.0990 C   0  0  0  0  0  0  0  0  0  0  0  0
   -1.7170   14.8170    1.7440 N   0  0  0  0  0  0  0  0  0  0  0  0
   -0.2160   13.2940   -3.2470 N   0  0  0  0  0  0  0  0  0  0  0  0
   -1.6690   15.1830   -3.2730 O   0  0  0  0  0  0  0  0  0  0  0  0
   -0.4210   14.2250    1.3750 C   0  0  0  0  0  0  0  0  0  0  0  0
    0.8140   12.4750   -2.5350 C   0  0  2  0  0  0  0  0  0  0  0  0
    0.1120   13.3130   -4.7360 C   0  0  0  0  0  0  0  0  0  0  0  0
    0.5090   11.1760   -2.4760 O   0  0  0  0  0  0  0  0  0  0  0  0
    0.8230   12.7470   -1.1660 O   0  0  0  0  0  0  0  0  0  0  0  0
   -0.7500   12.3460   -5.6440 C   0  0  2  0  0  0  0  0  0  0  0  0
   -2.0740   11.8790   -4.9210 C   0  0  2  0  0  0  0  0  0  0  0  0
    0.0720   11.3140   -6.3680 N   0  0  0  0  0  0  0  0  0  0  0  0
   -2.0780   12.0790   -3.5250 O   0  0  0  0  0  0  0  0  0  0  0  0
   -2.5380   10.5110   -5.1230 N   0  0  0  0  0  0  0  0  0  0  0  0
   -0.4820    9.9520   -6.5070 C   0  0  1  0  0  0  0  0  0  0  0  0
   -2.0270    9.9560   -6.3800 C   0  0  1  0  0  0  0  0  0  0  0  0
   -0.0340    9.3340   -7.8470 C   0  0  0  0  0  0  0  0  0  0  0  0
   -0.6000    7.9410   -8.0930 C   0  0  0  0  0  0  0  0  0  0  0  0
   -2.5600    8.5320   -6.5350 C   0  0  0  0  0  0  0  0  0  0  0  0
   -2.1090    7.8760   -7.8460 C   0  0  0  0  0  0  0  0  0  0  0  0
  2  1  1  6
  2  3  1  0
  2  4  1  0
  4  5  1  0
  4  6  1  1
  3  7  1  0
  5  8  1  0
  5  9  1  6
  6 10  1  0
  7 10  1  0
  8 11  1  0
  8 12  1  0
 11 13  1  1
 11 14  1  0
 15 12  1  1
 15 16  1  0
 15 17  1  0
 16 18  1  1
 16 19  1  0
 17 20  1  0
 19 21  1  0
 20 21  1  0
 20 22  1  6
 22 23  1  0
 21 24  1  1
 23 25  1  0
 24 25  1  0
M  CHG  2   9  -1  13  -1
M  END
