ucsf258-ucsf151
     RDKit          3D

 17 18  0  0  0  0  0  0  0  0999 V2000
    0.2940   13.1830   -1.7680 O   0  0  0  0  0  0  0  0  0  0  0  0
   -0.3580   14.1210   -2.4260 C   0  0  2  0  0  0  0  0  0  0  0  0
    0.6980   14.8790   -2.9930 O   0  0  0  0  0  0  0  0  0  0  0  0
   -1.2770   15.0350   -1.5170 C   0  0  1  0  0  0  0  0  0  0  0  0
   -1.2010   13.7050   -3.6710 C   0  0  1  0  0  0  0  0  0  0  0  0
   -2.5140   15.6590   -2.2440 C   0  0  1  0  0  0  0  0  0  0  0  0
   -1.7580   14.4700   -0.2060 N   0  0  0  0  0  0  0  0  0  0  0  0
   -1.0850   14.6120   -4.9120 C   0  0  0  0  0  0  0  0  0  0  0  0
   -1.4190   12.2770   -4.1660 C   0  0  0  0  0  0  0  0  0  0  0  0
   -2.3970   15.5880   -3.6810 O   0  0  0  0  0  0  0  0  0  0  0  0
   -3.8570   15.0480   -1.8730 C   0  0  0  0  0  0  0  0  0  0  0  0
   -2.8130   15.2870    0.4030 C   0  0  0  0  0  0  0  0  0  0  0  0
   -2.4000   14.5270   -5.6970 C   0  0  2  0  0  0  0  0  0  0  0  0
   -2.6250   12.1480   -4.9990 N   0  0  0  0  0  0  0  0  0  0  0  0
   -3.0330   15.8240   -5.7340 O   0  0  0  0  0  0  0  0  0  0  0  0
   -4.1160   15.2660   -0.3950 C   0  0  0  0  0  0  0  0  0  0  0  0
   -3.3080   13.4500   -5.1230 C   0  0  0  0  0  0  0  0  0  0  0  0
  2  1  1  1
  2  3  1  0
  2  4  1  0
  2  5  1  0
  4  6  1  0
  4  7  1  1
  5  8  1  6
  5  9  1  0
  6 10  1  6
  6 11  1  0
  7 12  1  0
  8 13  1  0
  9 14  1  0
 13 15  1  1
 11 16  1  0
 12 16  1  0
 13 17  1  0
 14 17  1  0
M  CHG  1   1  -1
M  END
