ucsf584-ucsf135
     RDKit          3D

 25 28  0  0  0  0  0  0  0  0999 V2000
    1.8080   11.7980   -6.9770 O   0  0  0  0  0  0  0  0  0  0  0  0
    0.4890   11.8500   -6.5170 C   0  0  2  0  0  0  0  0  0  0  0  0
    0.5500   12.1030   -5.0790 N   0  0  0  0  0  0  0  0  0  0  0  0
   -0.2780   10.5070   -6.7070 C   0  0  1  0  0  0  0  0  0  0  0  0
   -0.7180   11.3400   -4.3330 S   0  0  2  0  0  0  0  0  0  0  0  0
   -1.4510   10.4910   -5.7140 C   0  0  2  0  0  0  0  0  0  0  0  0
   -0.7780   10.1130   -8.0910 C   0  0  0  0  0  0  0  0  0  0  0  0
   -1.8590   12.2650   -3.6900 O   0  0  0  0  0  0  0  0  0  0  0  0
   -0.2260   10.2360   -3.2950 O   0  0  0  0  0  0  0  0  0  0  0  0
   -1.9530    9.0730   -5.5640 C   0  0  0  0  0  0  0  0  0  0  0  0
   -1.4360    8.7190   -8.0660 C   0  0  0  0  0  0  0  0  0  0  0  0
   -1.9640   13.6630   -3.9800 C   0  0  0  0  0  0  0  0  0  0  0  0
   -2.4330    8.5070   -6.9130 C   0  0  0  0  0  0  0  0  0  0  0  0
   -1.8850   14.5310   -2.6980 C   0  0  0  0  0  0  0  0  0  0  0  0
   -3.0780   14.6690   -1.8410 N   0  0  0  0  0  0  0  0  0  0  0  0
   -2.8200   15.3180   -0.5440 C   0  0  0  0  0  0  0  0  0  0  0  0
   -4.2970   15.1050   -2.5320 C   0  0  0  0  0  0  0  0  0  0  0  0
   -4.0200   15.2200    0.3960 C   0  0  0  0  0  0  0  0  0  0  0  0
   -5.5150   15.2190   -1.6180 C   0  0  0  0  0  0  0  0  0  0  0  0
   -5.2050   14.5110   -0.2910 C   0  0  0  0  0  0  0  0  0  0  0  0
   -6.4540   14.2190    0.5760 C   0  0  0  0  0  0  0  0  0  0  0  0
   -6.4490   14.8420    1.8800 N   0  0  0  0  0  0  0  0  0  0  0  0
   -7.7200   14.6310   -0.0080 N   0  0  0  0  0  0  0  0  0  0  0  0
   -8.6520   14.7380    1.1110 C   0  0  0  0  0  0  0  0  0  0  0  0
   -7.8060   14.6380    2.3680 C   0  0  0  0  0  0  0  0  0  0  0  0
  2  1  1  1
  2  3  1  0
  2  4  1  0
  3  5  1  0
  4  6  1  0
  5  6  1  0
  4  7  1  6
  5  8  1  0
  5  9  1  1
  6 10  1  1
  7 11  1  0
  8 12  1  0
 10 13  1  0
 11 13  1  0
 12 14  1  0
 14 15  1  0
 15 16  1  0
 15 17  1  0
 16 18  1  0
 17 19  1  0
 18 20  1  0
 19 20  1  0
 20 21  1  0
 21 22  1  0
 21 23  1  0
 23 24  1  0
 22 25  1  0
 24 25  1  0
M  END
