ucsf190-ucsf424
     RDKit          3D

 24 27  0  0  0  0  0  0  0  0999 V2000
    0.6170   10.3990   -2.4870 O   0  0  0  0  0  0  0  0  0  0  0  0
    0.3890   11.6750   -2.7840 C   0  0  1  0  0  0  0  0  0  0  0  0
    0.9500   12.2950   -1.6460 O   0  0  0  0  0  0  0  0  0  0  0  0
    0.9950   12.2270   -4.1550 C   0  0  2  0  0  0  0  0  0  0  0  0
    0.8090   13.7790   -4.1570 C   0  0  2  0  0  0  0  0  0  0  0  0
    0.4040   11.3760   -5.3650 C   0  0  2  0  0  0  0  0  0  0  0  0
   -0.2830   14.2490   -5.1180 C   0  0  2  0  0  0  0  0  0  0  0  0
    2.0460   14.5600   -4.3380 N   0  0  0  0  0  0  0  0  0  0  0  0
    1.2620   11.6210   -6.5770 N   0  0  0  0  0  0  0  0  0  0  0  0
   -0.9250   11.3180   -6.1070 C   0  0  1  0  0  0  0  0  0  0  0  0
   -0.5380   15.7690   -5.0180 C   0  0  2  0  0  0  0  0  0  0  0  0
    1.7760   15.9330   -3.9010 N   0  0  0  0  0  0  0  0  0  0  0  0
   -1.5560   13.5020   -4.7150 C   0  0  0  0  0  0  0  0  0  0  0  0
    0.8300   10.7070   -7.6080 O   0  0  0  0  0  0  0  0  0  0  0  0
   -0.5130   10.3960   -7.2860 C   0  0  1  0  0  0  0  0  0  0  0  0
   -2.1430   10.6780   -5.4460 C   0  0  0  0  0  0  0  0  0  0  0  0
    0.7040   16.6070   -4.6360 C   0  0  2  0  0  0  0  0  0  0  0  0
   -1.9400   16.0480   -4.4630 C   0  0  0  0  0  0  0  0  0  0  0  0
   -2.7690   13.9160   -5.5100 C   0  0  0  0  0  0  0  0  0  0  0  0
   -0.7020    8.9170   -7.0070 C   0  0  0  0  0  0  0  0  0  0  0  0
   -2.9630    9.7930   -6.3940 C   0  0  0  0  0  0  0  0  0  0  0  0
    0.3790   17.8130   -3.9790 O   0  0  0  0  0  0  0  0  0  0  0  0
   -3.0750   15.3780   -5.2400 C   0  0  0  0  0  0  0  0  0  0  0  0
   -2.1890    8.6060   -6.9430 C   0  0  0  0  0  0  0  0  0  0  0  0
  2  1  1  1
  2  3  1  0
  4  2  1  1
  4  5  1  0
  4  6  1  0
  5  7  1  0
  5  8  1  6
  6  9  1  6
  6 10  1  0
  7 11  1  0
  8 12  1  0
  7 13  1  1
  9 14  1  0
 10 15  1  0
 14 15  1  0
 10 16  1  1
 11 17  1  0
 12 17  1  0
 11 18  1  1
 13 19  1  0
 15 20  1  1
 16 21  1  0
 17 22  1  1
 18 23  1  0
 19 23  1  0
 20 24  1  0
 21 24  1  0
M  CHG  1   1  -1
M  END
