ucsf442-ucsf172
     RDKit          3D

 19 20  0  0  0  0  0  0  0  0999 V2000
   -0.4770   14.9420    0.6180 O   0  0  0  0  0  0  0  0  0  0  0  0
   -1.7450   14.5330    0.1650 C   0  0  2  0  0  0  0  0  0  0  0  0
   -1.9390   14.8540   -1.2720 N   0  0  0  0  0  0  0  0  0  0  0  0
   -2.7190   15.0500    1.1240 N   0  0  0  0  0  0  0  0  0  0  0  0
   -1.2160   14.0500   -2.2670 C   0  0  2  0  0  0  0  0  0  0  0  0
   -4.0690   14.9200    0.6990 C   0  0  1  0  0  0  0  0  0  0  0  0
   -3.3460   14.9050   -1.6800 C   0  0  2  0  0  0  0  0  0  0  0  0
   -3.4520   15.6130   -2.9050 O   0  0  0  0  0  0  0  0  0  0  0  0
   -5.1000   15.2900    1.6470 N   0  0  0  0  0  0  0  0  0  0  0  0
    0.1190   14.4550   -2.3780 O   0  0  0  0  0  0  0  0  0  0  0  0
   -1.6260   14.3820   -3.4760 O   0  0  0  0  0  0  0  0  0  0  0  0
   -4.3900   15.4270   -0.6790 C   0  0  1  0  0  0  0  0  0  0  0  0
   -4.3990   13.5370    0.6310 N   0  0  0  0  0  0  0  0  0  0  0  0
   -6.6250   14.5930    1.6670 S   0  0  0  0  0  0  0  0  0  0  0  0
   -5.7390   14.8340   -0.8200 N   0  0  0  0  0  0  0  0  0  0  0  0
   -5.5040   13.4930   -0.3170 C   0  0  0  0  0  0  0  0  0  0  0  0
   -7.8230   15.0580    2.8650 C   0  0  0  0  0  0  0  0  0  0  0  0
   -6.5050   13.0310    1.9720 O   0  0  0  0  0  0  0  0  0  0  0  0
   -7.4240   14.7000    0.2730 O   0  0  0  0  0  0  0  0  0  0  0  0
  2  1  1  1
  2  3  1  0
  2  4  1  0
  3  5  1  0
  4  6  1  0
  3  7  1  0
  7  8  1  6
  6  9  1  1
  5 10  1  6
  5 11  1  0
  6 12  1  0
  7 12  1  0
  6 13  1  0
  9 14  1  0
 12 15  1  6
 13 16  1  0
 15 16  1  0
 14 17  1  0
 14 18  1  0
 14 19  1  0
M  CHG  1  11  -1
M  END
