ucsf147-ucsf004
     RDKit          3D

 20 22  0  0  0  0  0  0  0  0999 V2000
    1.3920   14.0740   -4.9430 C   0  0  0  0  0  0  0  0  0  0  0  0
    0.1100   13.6230   -4.2660 C   0  0  2  0  0  0  0  0  0  0  0  0
   -1.0240   13.9990   -5.0410 O   0  0  0  0  0  0  0  0  0  0  0  0
   -0.2270   13.9570   -2.7550 C   0  0  2  0  0  0  0  0  0  0  0  0
    0.6970   12.9530   -1.9620 C   0  0  2  0  0  0  0  0  0  0  0  0
   -2.1550   13.5720   -4.2360 N   0  0  0  0  0  0  0  0  0  0  0  0
   -1.7670   13.7540   -2.7850 C   0  0  2  0  0  0  0  0  0  0  0  0
    0.0510   15.2220   -2.0000 N   0  0  0  0  0  0  0  0  0  0  0  0
    0.3200   12.8580   -0.6150 O   0  0  0  0  0  0  0  0  0  0  0  0
    1.8760   13.5370   -1.8600 O   0  0  0  0  0  0  0  0  0  0  0  0
   -2.4460   12.2510   -4.5170 F   0  0  0  0  0  0  0  0  0  0  0  0
   -2.7030   14.8610   -2.1810 C   0  0  2  0  0  0  0  0  0  0  0  0
    0.1870   15.1950   -0.5450 C   0  0  0  0  0  0  0  0  0  0  0  0
   -2.8200   15.1910   -0.6220 C   0  0  1  0  0  0  0  0  0  0  0  0
   -3.9950   15.1030   -3.0050 C   0  0  0  0  0  0  0  0  0  0  0  0
   -0.5760   14.1460    0.0800 N   0  0  0  0  0  0  0  0  0  0  0  0
   -4.2240   14.8650   -0.0990 C   0  0  0  0  0  0  0  0  0  0  0  0
   -5.3530   15.0880   -2.2740 C   0  0  0  0  0  0  0  0  0  0  0  0
   -1.9080   14.5510    0.4580 C   0  0  0  0  0  0  0  0  0  0  0  0
   -5.3210   15.5600   -0.8530 C   0  0  0  0  0  0  0  0  0  0  0  0
  2  1  1  6
  2  3  1  0
  2  4  1  0
  4  5  1  0
  3  6  1  0
  4  7  1  0
  7  6  1  6
  4  8  1  1
  5  9  1  1
  5 10  1  0
  6 11  1  0
  7 12  1  0
  8 13  1  0
 12 14  1  0
 12 15  1  1
 13 16  1  0
 14 17  1  1
 15 18  1  0
 14 19  1  0
 16 19  1  0
 17 20  1  0
 18 20  1  0
M  CHG  1  10  -1
M  END
