ucsf017-ucsf190
     RDKit          3D

 28 32  0  0  0  0  0  0  0  0999 V2000
    1.2600   11.3690   -2.9580 O   0  0  0  0  0  0  0  0  0  0  0  0
    1.9620   12.5310   -3.3210 C   0  0  1  0  0  0  0  0  0  0  0  0
    3.2080   12.5420   -2.7520 O   0  0  0  0  0  0  0  0  0  0  0  0
    2.0570   12.8360   -4.7600 C   0  0  0  0  0  0  0  0  0  0  0  0
    1.2360   14.0120   -5.1200 C   0  0  1  0  0  0  0  0  0  0  0  0
   -0.4250   13.7710   -4.4160 S   0  0  0  0  0  0  0  0  0  0  0  0
    1.9190   15.1780   -4.7290 N   0  0  0  0  0  0  0  0  0  0  0  0
   -1.9580   14.7840   -4.9770 C   0  0  0  0  0  0  0  0  0  0  0  0
   -1.6630   13.5760   -3.2640 C   0  0  1  0  0  0  0  0  0  0  0  0
   -0.3840   11.9580   -3.9360 C   0  0  0  0  0  0  0  0  0  0  0  0
    0.4480   15.2160   -3.5980 C   0  0  0  0  0  0  0  0  0  0  0  0
    1.5330   16.3440   -5.2990 N   0  0  0  0  0  0  0  0  0  0  0  0
   -3.0010   14.0630   -4.9540 O   0  0  0  0  0  0  0  0  0  0  0  0
   -2.9660   13.2680   -3.8540 C   0  0  0  0  0  0  0  0  0  0  0  0
   -0.2080   11.4670   -2.6490 C   0  0  0  0  0  0  0  0  0  0  0  0
   -1.3300   13.1290   -1.9580 N   0  0  0  0  0  0  0  0  0  0  0  0
    0.4670   16.3950   -4.4100 C   0  0  2  0  0  0  0  0  0  0  0  0
    0.5800   17.6210   -3.7560 O   0  0  0  0  0  0  0  0  0  0  0  0
    0.0580   12.7290   -1.9330 C   0  0  0  0  0  0  0  0  0  0  0  0
   -1.5110   13.7970   -0.8080 C   0  0  1  0  0  0  0  0  0  0  0  0
   -0.4270   14.7130   -0.4990 N   0  0  0  0  0  0  0  0  0  0  0  0
   -2.8410   14.0360   -0.2660 C   0  0  1  0  0  0  0  0  0  0  0  0
   -0.3010   14.7020    0.9390 C   0  0  0  0  0  0  0  0  0  0  0  0
   -2.6640   14.5460    1.1860 C   0  0  1  0  0  0  0  0  0  0  0  0
   -3.6550   15.1350   -0.8510 C   0  0  0  0  0  0  0  0  0  0  0  0
   -1.4760   15.2530    1.4750 N   0  0  0  0  0  0  0  0  0  0  0  0
   -3.8550   15.2870    1.4550 N   0  0  0  0  0  0  0  0  0  0  0  0
   -4.6340   15.4380    0.2370 C   0  0  0  0  0  0  0  0  0  0  0  0
  2  1  1  6
  2  3  1  0
  2  4  1  0
  5  4  1  1
  5  6  1  0
  5  7  1  0
  6  8  1  0
  6  9  1  0
  6 10  1  0
  6 11  1  0
  7 12  1  0
  8 13  1  0
  9 14  1  6
 13 14  1  0
 10 15  1  0
  9 16  1  0
 11 17  1  0
 12 17  1  0
 17 18  1  1
 15 19  1  0
 16 19  1  0
 20 16  1  6
 20 21  1  0
 20 22  1  0
 21 23  1  0
 22 24  1  0
 22 25  1  6
 23 26  1  0
 24 26  1  6
 24 27  1  0
 25 28  1  0
 27 28  1  0
M  CHG  1   1  -1
M  END
