ucsf147-ucsf170
     RDKit          3D

 19 20  0  0  0  0  0  0  0  0999 V2000
    1.3680   12.9200   -5.2800 C   0  0  0  0  0  0  0  0  0  0  0  0
    0.1810   13.8590   -5.1410 C   0  0  1  0  0  0  0  0  0  0  0  0
   -0.9410   13.3100   -5.8620 O   0  0  0  0  0  0  0  0  0  0  0  0
   -0.3300   14.2730   -3.7650 C   0  0  2  0  0  0  0  0  0  0  0  0
    0.7020   14.1560   -2.6470 C   0  0  0  0  0  0  0  0  0  0  0  0
   -2.1030   13.3210   -4.9720 N   0  0  0  0  0  0  0  0  0  0  0  0
   -1.5170   13.3340   -3.6040 C   0  0  2  0  0  0  0  0  0  0  0  0
    0.6420   13.0390   -1.8120 O   0  0  0  0  0  0  0  0  0  0  0  0
    0.6530   15.2500   -1.7820 O   0  0  0  0  0  0  0  0  0  0  0  0
    1.9810   14.1540   -3.1850 O   0  0  0  0  0  0  0  0  0  0  0  0
   -2.7010   13.7300   -2.6680 C   0  0  1  0  0  0  0  0  0  0  0  0
   -2.1740   14.3500   -1.3430 C   0  0  0  0  0  0  0  0  0  0  0  0
   -3.7310   14.6580   -3.3160 C   0  0  2  0  0  0  0  0  0  0  0  0
   -3.0620   15.6930   -4.0370 O   0  0  0  0  0  0  0  0  0  0  0  0
   -3.2700   14.9840   -0.4740 C   0  0  2  0  0  0  0  0  0  0  0  0
   -4.8440   15.1290   -2.3730 C   0  0  0  0  0  0  0  0  0  0  0  0
   -3.0610   14.6740    1.3170 S   0  0  0  0  0  0  0  0  0  0  0  0
   -4.6640   14.6600   -0.9430 C   0  0  0  0  0  0  0  0  0  0  0  0
   -4.5920   15.5100    1.7380 C   0  0  0  0  0  0  0  0  0  0  0  0
  2  1  1  1
  2  3  1  0
  2  4  1  0
  4  5  1  1
  3  6  1  0
  4  7  1  0
  7  6  1  6
  5  8  1  0
  5  9  1  0
  5 10  1  0
  7 11  1  0
 11 12  1  1
 11 13  1  0
 13 14  1  1
 12 15  1  0
 13 16  1  0
 15 17  1  1
 15 18  1  0
 16 18  1  0
 17 19  1  0
M  CHG  2   9  -1  10  -1
M  END
