ucsf012-ucsf378
     RDKit          3D

 29 32  0  0  0  0  0  0  0  0999 V2000
   -2.5900   14.4400   -3.8880 C   0  0  0  0  0  0  0  0  0  0  0  0
   -3.4060   13.5590   -2.8700 C   0  0  2  0  0  0  0  0  0  0  0  0
   -4.2140   14.2430   -1.7320 C   0  0  2  0  0  0  0  0  0  0  0  0
   -1.0450   14.7380   -3.7770 C   0  0  1  0  0  0  0  0  0  0  0  0
   -2.4550   12.7930   -2.0380 N   0  0  0  0  0  0  0  0  0  0  0  0
    0.0460   13.6130   -3.9670 C   0  0  2  0  0  0  0  0  0  0  0  0
   -0.6790   15.9470   -4.6730 C   0  0  0  0  0  0  0  0  0  0  0  0
   -4.9600   15.4730   -2.1930 C   0  0  0  0  0  0  0  0  0  0  0  0
   -1.5860   11.9010   -2.8360 C   0  0  0  0  0  0  0  0  0  0  0  0
   -0.1710   12.1650   -3.4390 C   0  0  0  0  0  0  0  0  0  0  0  0
   -3.1290   14.6350   -0.7270 C   0  0  2  0  0  0  0  0  0  0  0  0
   -1.8950   13.8570   -1.1920 C   0  0  1  0  0  0  0  0  0  0  0  0
    1.4060   14.1450   -3.5000 C   0  0  1  0  0  0  0  0  0  0  0  0
    0.7150   15.8360   -5.2510 C   0  0  0  0  0  0  0  0  0  0  0  0
    2.7640   13.0180   -3.9080 Cl  0  0  0  0  0  0  0  0  0  0  0  0
    0.5160   11.6440   -2.1610 C   0  0  1  0  0  0  0  0  0  0  0  0
   -3.2870   14.3280    0.7470 C   0  0  2  0  0  0  0  0  0  0  0  0
   -0.9670   13.4890   -0.1520 N   0  0  0  0  0  0  0  0  0  0  0  0
   -2.0540   11.6180   -4.3010 C   0  0  1  0  0  0  0  0  0  0  0  0
    1.7020   15.4660   -4.1720 C   0  0  0  0  0  0  0  0  0  0  0  0
   -4.4080   15.0040    1.3710 N   0  0  0  0  0  0  0  0  0  0  0  0
   -0.1340   11.9600   -1.0810 O   0  0  0  0  0  0  0  0  0  0  0  0
    0.5070   10.2340   -2.1570 O   0  0  0  0  0  0  0  0  0  0  0  0
   -2.1510   14.7830    1.5080 N   0  0  0  0  0  0  0  0  0  0  0  0
   -0.8490   14.4370    0.9380 C   0  0  0  0  0  0  0  0  0  0  0  0
   -0.9480   11.2790   -5.3070 C   0  0  0  0  0  0  0  0  0  0  0  0
   -2.9700   10.5060   -4.3470 O   0  0  0  0  0  0  0  0  0  0  0  0
   -2.3310    9.4400   -5.0770 C   0  0  0  0  0  0  0  0  0  0  0  0
   -0.8650    9.7840   -5.1790 C   0  0  0  0  0  0  0  0  0  0  0  0
  2  1  1  6
  2  3  1  0
  4  1  1  6
  2  5  1  0
  4  6  1  0
  4  7  1  0
  3  8  1  6
  5  9  1  0
  6 10  1  1
  3 11  1  0
  5 12  1  0
 11 12  1  0
  6 13  1  0
  7 14  1  0
 13 15  1  6
 10 16  1  0
 11 17  1  1
 12 18  1  1
 19  9  1  1
 13 20  1  0
 14 20  1  0
 17 21  1  1
 16 22  1  1
 16 23  1  0
 17 24  1  0
 18 25  1  0
 24 25  1  0
 19 26  1  0
 19 27  1  0
 27 28  1  0
 26 29  1  0
 28 29  1  0
M  CHG  1  22  -1
M  END
