ucsf340-ucsf364
     RDKit          3D

 23 25  0  0  0  0  0  0  0  0999 V2000
    0.6400   18.5120   -6.0810 C   0  0  0  0  0  0  0  0  0  0  0  0
    0.1350   17.2010   -5.6950 N   0  0  0  0  0  0  0  0  0  0  0  0
    1.0040   16.5410   -4.7250 C   0  0  0  0  0  0  0  0  0  0  0  0
   -1.1930   17.2010   -5.0860 C   0  0  2  0  0  0  0  0  0  0  0  0
    0.1820   15.3700   -4.2100 C   0  0  2  0  0  0  0  0  0  0  0  0
   -1.2700   15.8310   -4.3560 C   0  0  2  0  0  0  0  0  0  0  0  0
   -2.2690   17.4940   -6.1270 C   0  0  0  0  0  0  0  0  0  0  0  0
    0.6050   14.9670   -2.7820 C   0  0  0  0  0  0  0  0  0  0  0  0
   -2.1560   14.7690   -4.9790 C   0  0  0  0  0  0  0  0  0  0  0  0
   -3.3630   16.4240   -6.3290 C   0  0  0  0  0  0  0  0  0  0  0  0
   -0.1550   13.7670   -2.1890 C   0  0  0  0  0  0  0  0  0  0  0  0
   -3.4950   15.3650   -5.2650 C   0  0  0  0  0  0  0  0  0  0  0  0
    0.4210   12.3720   -2.4950 C   0  0  1  0  0  0  0  0  0  0  0  0
    1.7830   12.3750   -2.1810 O   0  0  0  0  0  0  0  0  0  0  0  0
   -0.0540   11.4680   -1.6410 O   0  0  0  0  0  0  0  0  0  0  0  0
    0.1630   11.8320   -3.9250 C   0  0  2  0  0  0  0  0  0  0  0  0
    0.8250   12.6640   -5.0550 C   0  0  1  0  0  0  0  0  0  0  0  0
   -1.3170   11.5040   -4.2210 C   0  0  0  0  0  0  0  0  0  0  0  0
    2.3200   12.9500   -4.7800 C   0  0  0  0  0  0  0  0  0  0  0  0
   -1.6460   11.1820   -5.6620 C   0  0  0  0  0  0  0  0  0  0  0  0
    0.5720   12.0670   -6.4370 C   0  0  1  0  0  0  0  0  0  0  0  0
    1.7790   11.6850   -7.0590 O   0  0  0  0  0  0  0  0  0  0  0  0
   -0.4070   10.9060   -6.4770 C   0  0  0  0  0  0  0  0  0  0  0  0
  1  2  1  0
  2  3  1  0
  2  4  1  0
  3  5  1  0
  4  6  1  0
  5  6  1  0
  4  7  1  6
  5  8  1  1
  6  9  1  6
  7 10  1  0
  8 11  1  0
  9 12  1  0
 10 12  1  0
 11 13  1  0
 13 14  1  1
 13 15  1  0
 13 16  1  0
 16 17  1  0
 16 18  1  6
 17 19  1  1
 18 20  1  0
 17 21  1  0
 21 22  1  1
 20 23  1  0
 21 23  1  0
M  CHG  1  15  -1
M  END
