ucsf336-ucsf345
     RDKit          3D

 24 25  0  0  0  0  0  0  0  0999 V2000
    2.2050   13.1560   -4.5910 O   0  0  0  0  0  0  0  0  0  0  0  0
    1.1710   13.1320   -3.7780 C   0  0  2  0  0  0  0  0  0  0  0  0
    1.6830   12.8380   -2.4770 O   0  0  0  0  0  0  0  0  0  0  0  0
    0.0410   12.0670   -4.2080 C   0  0  2  0  0  0  0  0  0  0  0  0
   -0.0850   10.9580   -3.3150 O   0  0  0  0  0  0  0  0  0  0  0  0
    0.3010   11.6030   -5.5850 N   0  0  0  0  0  0  0  0  0  0  0  0
   -1.2550   11.0100   -2.5130 C   0  0  0  0  0  0  0  0  0  0  0  0
   -0.7940   10.8860   -6.2620 C   0  0  0  0  0  0  0  0  0  0  0  0
   -1.4010   12.4270   -1.9350 C   0  0  0  0  0  0  0  0  0  0  0  0
   -0.2860    9.8140   -7.2280 C   0  0  0  0  0  0  0  0  0  0  0  0
   -1.7270   10.2070   -5.2370 C   0  0  0  0  0  0  0  0  0  0  0  0
   -2.8260   12.9940   -2.0360 C   0  0  0  0  0  0  0  0  0  0  0  0
   -1.3970    9.1510   -8.0430 C   0  0  0  0  0  0  0  0  0  0  0  0
   -2.6030    9.0710   -5.7900 C   0  0  0  0  0  0  0  0  0  0  0  0
   -2.7340    9.0420   -7.3080 C   0  0  0  0  0  0  0  0  0  0  0  0
   -2.9580   14.5190   -1.8050 C   0  0  1  0  0  0  0  0  0  0  0  0
   -4.2550   15.0880   -2.4610 C   0  0  0  0  0  0  0  0  0  0  0  0
   -2.8790   14.9130   -0.3930 N   0  0  0  0  0  0  0  0  0  0  0  0
   -5.5260   14.5530   -1.9300 N   0  0  0  0  0  0  0  0  0  0  0  0
   -4.2330   15.2290    0.1410 C   0  0  0  0  0  0  0  0  0  0  0  0
   -5.3800   14.3630   -0.4390 C   0  0  1  0  0  0  0  0  0  0  0  0
   -6.7480   14.6890    0.2390 C   0  0  2  0  0  0  0  0  0  0  0  0
   -6.8170   14.7170    1.6910 N   0  0  0  0  0  0  0  0  0  0  0  0
   -7.7320   13.7750   -0.2350 O   0  0  0  0  0  0  0  0  0  0  0  0
  2  1  1  6
  2  3  1  0
  2  4  1  0
  4  5  1  0
  4  6  1  6
  5  7  1  0
  6  8  1  0
  7  9  1  0
  8 10  1  0
  8 11  1  0
  9 12  1  0
 10 13  1  0
 11 14  1  0
 13 15  1  0
 14 15  1  0
 16 12  1  1
 16 17  1  0
 16 18  1  0
 17 19  1  0
 18 20  1  0
 19 21  1  0
 21 20  1  1
 21 22  1  0
 22 23  1  1
 22 24  1  0
M  CHG  1   1  -1
M  END
