ucsf367-ucsf385
     RDKit          3D

 22 23  0  0  0  0  0  0  0  0999 V2000
    0.6660   10.7460   -2.9610 O   0  0  0  0  0  0  0  0  0  0  0  0
    0.5120   12.0360   -3.2740 C   0  0  1  0  0  0  0  0  0  0  0  0
    1.2540   12.7560   -2.2660 O   0  0  0  0  0  0  0  0  0  0  0  0
    1.1180   12.3780   -4.7000 C   0  0  0  0  0  0  0  0  0  0  0  0
    0.6890   11.5890   -5.8390 O   0  0  0  0  0  0  0  0  0  0  0  0
    1.5480   14.1390   -2.5680 C   0  0  0  0  0  0  0  0  0  0  0  0
    0.4200   15.0320   -2.5670 O   0  0  0  0  0  0  0  0  0  0  0  0
   -0.3360   10.6320   -5.5930 C   0  0  0  0  0  0  0  0  0  0  0  0
   -0.8690   14.3700   -2.5100 C   0  0  2  0  0  0  0  0  0  0  0  0
   -0.4210    9.7360   -6.8320 C   0  0  0  0  0  0  0  0  0  0  0  0
   -1.6800   11.3210   -5.4010 C   0  0  0  0  0  0  0  0  0  0  0  0
   -1.8170   15.1900   -2.9540 O   0  0  0  0  0  0  0  0  0  0  0  0
   -1.4860    8.6670   -6.6530 C   0  0  0  0  0  0  0  0  0  0  0  0
   -2.7970   10.2990   -5.2180 C   0  0  0  0  0  0  0  0  0  0  0  0
   -1.1050   14.0470   -1.0010 C   0  0  2  0  0  0  0  0  0  0  0  0
   -2.8500    9.2840   -6.3580 C   0  0  0  0  0  0  0  0  0  0  0  0
   -2.5910   14.2370   -0.5330 C   0  0  2  0  0  0  0  0  0  0  0  0
   -0.1200   14.7060   -0.0190 C   0  0  0  0  0  0  0  0  0  0  0  0
   -3.4390   15.0610   -1.4170 N   0  0  0  0  0  0  0  0  0  0  0  0
   -0.4010   14.2080    1.3840 C   0  0  0  0  0  0  0  0  0  0  0  0
   -2.7250   14.8430    0.8870 C   0  0  0  0  0  0  0  0  0  0  0  0
   -1.7600   14.4170    1.8670 N   0  0  0  0  0  0  0  0  0  0  0  0
  2  1  1  1
  2  3  1  0
  2  4  1  0
  4  5  1  0
  3  6  1  0
  6  7  1  0
  5  8  1  0
  7  9  1  0
  8 10  1  0
  8 11  1  0
  9 12  1  1
 10 13  1  0
 11 14  1  0
  9 15  1  0
 13 16  1  0
 14 16  1  0
 15 17  1  0
 15 18  1  1
 17 19  1  6
 18 20  1  0
 17 21  1  0
 20 22  1  0
 21 22  1  0
M  CHG  2   1  -1  12  -1
M  END
