ucsf487-ucsf169
     RDKit          3D

 25 27  0  0  0  0  0  0  0  0999 V2000
   -7.2340   13.7430    2.7290 N   0  0  0  0  0  0  0  0  0  0  0  0
   -7.0410   14.4940    1.4850 C   0  0  2  0  0  0  0  0  0  0  0  0
   -7.6320   13.7760    0.2640 C   0  0  0  0  0  0  0  0  0  0  0  0
   -5.5610   14.8760    1.2240 C   0  0  0  0  0  0  0  0  0  0  0  0
   -4.8870   14.1300    0.0930 C   0  0  1  0  0  0  0  0  0  0  0  0
   -7.1780   14.3440   -0.9980 N   0  0  0  0  0  0  0  0  0  0  0  0
   -5.7240   14.2130   -1.2100 C   0  0  1  0  0  0  0  0  0  0  0  0
   -3.4710   14.7190   -0.0320 C   0  0  0  0  0  0  0  0  0  0  0  0
   -5.3170   15.3990   -2.0730 C   0  0  0  0  0  0  0  0  0  0  0  0
   -2.9280   14.7570   -1.4600 C   0  0  0  0  0  0  0  0  0  0  0  0
   -3.8380   15.4180   -2.5010 C   0  0  1  0  0  0  0  0  0  0  0  0
   -3.6490   14.9010   -3.9550 C   0  0  0  0  0  0  0  0  0  0  0  0
   -2.4080   15.3910   -4.7820 C   0  0  1  0  0  0  0  0  0  0  0  0
   -1.7410   16.6640   -4.1530 C   0  0  2  0  0  0  0  0  0  0  0  0
   -1.4330   14.2220   -4.9400 C   0  0  0  0  0  0  0  0  0  0  0  0
   -2.3730   17.8400   -4.6770 O   0  0  0  0  0  0  0  0  0  0  0  0
   -0.2220   16.9460   -4.3340 C   0  0  2  0  0  0  0  0  0  0  0  0
   -0.1470   14.4660   -4.1760 C   0  0  1  0  0  0  0  0  0  0  0  0
   -0.1490   17.9910   -5.3170 O   0  0  0  0  0  0  0  0  0  0  0  0
    0.7340   13.2040   -4.0690 C   0  0  0  0  0  0  0  0  0  0  0  0
    0.5710   15.6990   -4.7170 C   0  0  0  0  0  0  0  0  0  0  0  0
    1.1860   18.3100   -5.6560 C   0  0  0  0  0  0  0  0  0  0  0  0
    0.5030   12.5540   -2.6950 C   0  0  2  0  0  0  0  0  0  0  0  0
    1.6200   12.8230   -1.8980 O   0  0  0  0  0  0  0  0  0  0  0  0
    0.5050   11.2440   -2.7630 O   0  0  0  0  0  0  0  0  0  0  0  0
  2  1  1  1
  2  3  1  0
  2  4  1  0
  5  4  1  1
  3  6  1  0
  5  7  1  0
  6  7  1  0
  5  8  1  0
  7  9  1  1
  8 10  1  0
  9 11  1  0
 10 11  1  0
 11 12  1  6
 13 12  1  1
 13 14  1  0
 13 15  1  0
 14 16  1  6
 14 17  1  0
 15 18  1  0
 17 19  1  6
 18 20  1  6
 17 21  1  0
 18 21  1  0
 19 22  1  0
 20 23  1  0
 23 24  1  1
 23 25  1  0
M  CHG  1  25  -1
M  END
