ucsf138-ucsf303
     RDKit          3D

 32 34  0  0  0  0  0  0  0  0999 V2000
    1.3390   12.3670   -2.1240 O   0  0  0  0  0  0  0  0  0  0  0  0
    0.4840   11.8900   -3.0140 C   0  0  2  0  0  0  0  0  0  0  0  0
    0.4900   10.4830   -2.7460 O   0  0  0  0  0  0  0  0  0  0  0  0
    0.9340   12.1780   -4.4910 C   0  0  0  0  0  0  0  0  0  0  0  0
   -0.9560   12.3620   -2.7840 C   0  0  0  0  0  0  0  0  0  0  0  0
    0.2690   11.2300   -5.4410 N   0  0  0  0  0  0  0  0  0  0  0  0
   -1.8470   12.2760   -4.0340 C   0  0  0  0  0  0  0  0  0  0  0  0
    0.5290   11.5520   -6.8240 C   0  0  1  0  0  0  0  0  0  0  0  0
   -2.5660   13.5660   -4.3930 C   0  0  0  0  0  0  0  0  0  0  0  0
    1.8830   11.8640   -6.9360 O   0  0  0  0  0  0  0  0  0  0  0  0
    0.0790   10.4280   -7.6300 N   0  0  0  0  0  0  0  0  0  0  0  0
   -2.6550   14.3980   -3.2470 O   0  0  0  0  0  0  0  0  0  0  0  0
   -3.9940   14.4120   -2.3620 S   0  0  1  0  0  0  0  0  0  0  0  0
    0.8280   10.0870   -8.8440 C   0  0  0  0  0  0  0  0  0  0  0  0
   -4.6850   15.8350   -2.4840 O   0  0  0  0  0  0  0  0  0  0  0  0
   -5.0510   13.1910   -2.6500 N   0  0  0  0  0  0  0  0  0  0  0  0
   -0.0480   10.1720  -10.1040 C   0  0  0  0  0  0  0  0  0  0  0  0
    1.4130    8.6600   -8.7400 C   0  0  0  0  0  0  0  0  0  0  0  0
   -3.4720   14.3910   -0.6840 C   0  0  0  0  0  0  0  0  0  0  0  0
    0.6410    9.6130  -11.3620 C   0  0  0  0  0  0  0  0  0  0  0  0
    2.1210    8.1180   -9.9840 C   0  0  0  0  0  0  0  0  0  0  0  0
   -4.9750   12.0460   -1.8030 C   0  0  1  0  0  0  0  0  0  0  0  0
   -1.9690   14.4110   -0.4230 C   0  0  0  0  0  0  0  0  0  0  0  0
   -4.2290   15.5020    0.0410 C   0  0  0  0  0  0  0  0  0  0  0  0
    1.2320    8.2100  -11.2070 C   0  0  0  0  0  0  0  0  0  0  0  0
   -6.0100   11.0860   -2.1660 N   0  0  0  0  0  0  0  0  0  0  0  0
   -3.3980   11.2500   -2.1040 S   0  0  0  0  0  0  0  0  0  0  0  0
   -1.7230   14.6940    1.0540 C   0  0  0  0  0  0  0  0  0  0  0  0
   -4.1370   15.3820    1.5300 C   0  0  0  0  0  0  0  0  0  0  0  0
   -4.1460    9.6200   -2.1230 C   0  0  0  0  0  0  0  0  0  0  0  0
   -5.5460    9.7670   -1.7260 N   0  0  0  0  0  0  0  0  0  0  0  0
   -2.9940   14.4670    1.8760 C   0  0  0  0  0  0  0  0  0  0  0  0
  2  1  1  1
  2  3  1  0
  2  4  1  0
  2  5  1  0
  4  6  1  0
  5  7  1  0
  6  8  1  0
  7  9  1  0
  8 10  1  1
  8 11  1  0
  9 12  1  0
 13 12  1  0
 11 14  1  0
 13 15  1  1
 13 16  1  0
 14 17  1  0
 14 18  1  0
 13 19  1  0
 17 20  1  0
 18 21  1  0
 22 16  1  6
 19 23  1  0
 19 24  1  0
 20 25  1  0
 21 25  1  0
 22 26  1  0
 22 27  1  0
 23 28  1  0
 24 29  1  0
 27 30  1  0
 26 31  1  0
 30 31  1  0
 28 32  1  0
 29 32  1  0
M  CHG  1   1  -1
M  END
