ucsf039-ucsf013
     RDKit          3D

 27 31  0  0  0  0  0  0  0  0999 V2000
   -4.1700   15.8250    0.8710 N   0  0  0  0  0  0  0  0  0  0  0  0
   -3.1120   15.8390   -0.1180 C   0  0  1  0  0  0  0  0  0  0  0  0
   -2.0450   14.7920    0.1530 C   0  0  1  0  0  0  0  0  0  0  0  0
   -4.8720   14.5830    0.9850 C   0  0  2  0  0  0  0  0  0  0  0  0
   -3.6420   15.7080   -1.4670 N   0  0  0  0  0  0  0  0  0  0  0  0
   -5.1690   13.7790   -0.2920 C   0  0  1  0  0  0  0  0  0  0  0  0
   -6.1080   14.8620    1.6880 N   0  0  0  0  0  0  0  0  0  0  0  0
   -2.6240   15.7020   -2.5220 C   0  0  0  0  0  0  0  0  0  0  0  0
   -0.9810   15.1100   -0.8860 C   0  0  2  0  0  0  0  0  0  0  0  0
   -1.3200   14.8350    1.4090 N   0  0  0  0  0  0  0  0  0  0  0  0
   -6.3430   14.3080   -1.1440 C   0  0  1  0  0  0  0  0  0  0  0  0
   -7.3090   14.3460    1.0590 C   0  0  0  0  0  0  0  0  0  0  0  0
   -3.9090   13.4640   -1.1090 C   0  0  0  0  0  0  0  0  0  0  0  0
   -1.4940   14.8590   -2.2210 N   0  0  0  0  0  0  0  0  0  0  0  0
    0.0430   14.2100   -0.4300 N   0  0  0  0  0  0  0  0  0  0  0  0
    0.0180   14.4530    1.0110 C   0  0  0  0  0  0  0  0  0  0  0  0
   -7.4430   14.7930   -0.3180 N   0  0  0  0  0  0  0  0  0  0  0  0
   -5.8980   15.3700   -2.1280 C   0  0  0  0  0  0  0  0  0  0  0  0
   -4.0250   13.6620   -2.6210 C   0  0  0  0  0  0  0  0  0  0  0  0
   -0.5350   14.6220   -3.3140 C   0  0  0  0  0  0  0  0  0  0  0  0
   -4.8540   14.8580   -3.1140 C   0  0  0  0  0  0  0  0  0  0  0  0
   -0.1930   15.7420   -4.3660 C   0  0  2  0  0  0  0  0  0  0  0  0
    0.8100   16.7590   -3.8660 C   0  0  0  0  0  0  0  0  0  0  0  0
   -1.3280   16.5620   -4.8890 N   0  0  0  0  0  0  0  0  0  0  0  0
   -0.7590   17.6460   -5.7230 C   0  0  2  0  0  0  0  0  0  0  0  0
    0.8930   18.0280   -5.1360 S   0  0  0  0  0  0  0  0  0  0  0  0
   -1.6310   18.8840   -5.8330 C   0  0  0  0  0  0  0  0  0  0  0  0
  2  1  1  1
  2  3  1  0
  4  1  1  6
  2  5  1  0
  4  6  1  0
  4  7  1  0
  5  8  1  0
  3  9  1  0
  3 10  1  1
  6 11  1  0
  7 12  1  0
  6 13  1  6
  8 14  1  0
  9 14  1  0
  9 15  1  1
 10 16  1  0
 15 16  1  0
 11 17  1  0
 12 17  1  0
 11 18  1  1
 13 19  1  0
 14 20  1  0
 18 21  1  0
 19 21  1  0
 22 20  1  1
 22 23  1  0
 22 24  1  0
 24 25  1  0
 23 26  1  0
 25 26  1  0
 25 27  1  1
M  END
