ucsf303-ucsf151
     RDKit          3D

 26 28  0  0  0  0  0  0  0  0999 V2000
   -2.4030   13.5590   -2.7150 O   0  0  0  0  0  0  0  0  0  0  0  0
   -3.6400   14.4850   -2.3430 S   0  0  1  0  0  0  0  0  0  0  0  0
   -3.5030   15.8320   -3.1820 O   0  0  0  0  0  0  0  0  0  0  0  0
   -5.0040   13.5470   -2.3870 N   0  0  0  0  0  0  0  0  0  0  0  0
   -3.2440   15.0370   -0.7330 C   0  0  0  0  0  0  0  0  0  0  0  0
   -2.1290   16.2120   -3.4360 C   0  0  0  0  0  0  0  0  0  0  0  0
   -4.9370   12.2700   -1.7210 C   0  0  1  0  0  0  0  0  0  0  0  0
   -2.0480   14.2700   -0.1230 C   0  0  0  0  0  0  0  0  0  0  0  0
   -4.5580   14.9840    0.0480 C   0  0  0  0  0  0  0  0  0  0  0  0
   -6.0070   11.3900   -2.1690 N   0  0  0  0  0  0  0  0  0  0  0  0
   -3.3920   11.4690   -2.2100 S   0  0  0  0  0  0  0  0  0  0  0  0
   -1.8000   14.6520    1.3160 C   0  0  0  0  0  0  0  0  0  0  0  0
   -4.3190   14.4220    1.4080 C   0  0  0  0  0  0  0  0  0  0  0  0
   -1.5790   15.2980   -4.5240 C   0  0  1  0  0  0  0  0  0  0  0  0
   -4.1800    9.8690   -2.3830 C   0  0  0  0  0  0  0  0  0  0  0  0
   -5.5770    9.9990   -1.9610 N   0  0  0  0  0  0  0  0  0  0  0  0
   -3.1090   15.1240    1.9250 C   0  0  0  0  0  0  0  0  0  0  0  0
   -0.6280   14.1180   -4.0760 C   0  0  1  0  0  0  0  0  0  0  0  0
   -2.7940   14.9180   -5.3760 C   0  0  1  0  0  0  0  0  0  0  0  0
    0.0020   14.1970   -2.6370 C   0  0  1  0  0  0  0  0  0  0  0  0
   -3.0460   15.9620   -6.3370 O   0  0  0  0  0  0  0  0  0  0  0  0
   -2.6080   13.5850   -6.0800 C   0  0  0  0  0  0  0  0  0  0  0  0
   -1.1610   12.6760   -4.3820 C   0  0  0  0  0  0  0  0  0  0  0  0
    0.6100   13.0610   -2.3260 O   0  0  0  0  0  0  0  0  0  0  0  0
    1.0810   15.1040   -2.5900 O   0  0  0  0  0  0  0  0  0  0  0  0
   -2.4050   12.5000   -5.1480 N   0  0  0  0  0  0  0  0  0  0  0  0
  2  1  1  6
  2  3  1  0
  2  4  1  0
  2  5  1  0
  3  6  1  0
  7  4  1  6
  5  8  1  0
  5  9  1  0
  7 10  1  0
  7 11  1  0
  8 12  1  0
  9 13  1  0
 14  6  1  1
 11 15  1  0
 10 16  1  0
 15 16  1  0
 12 17  1  0
 13 17  1  0
 14 18  1  0
 14 19  1  0
 18 20  1  0
 19 21  1  6
 19 22  1  0
 18 23  1  1
 20 24  1  6
 20 25  1  0
 22 26  1  0
 23 26  1  0
M  CHG  1  24  -1
M  END
