ucsf109-ucsf012
     RDKit          3D

 25 29  0  0  0  0  0  0  0  0999 V2000
   -3.8770   15.0760    0.9500 N   0  0  0  0  0  0  0  0  0  0  0  0
   -5.1010   15.2560    0.1900 C   0  0  2  0  0  0  0  0  0  0  0  0
   -6.1410   14.4780    0.9140 N   0  0  0  0  0  0  0  0  0  0  0  0
   -2.6560   14.5530    0.4340 C   0  0  1  0  0  0  0  0  0  0  0  0
   -5.4220   14.7340   -1.2580 C   0  0  2  0  0  0  0  0  0  0  0  0
   -2.1080   14.6110   -1.0130 C   0  0  1  0  0  0  0  0  0  0  0  0
   -1.6000   14.9520    1.3330 N   0  0  0  0  0  0  0  0  0  0  0  0
   -7.2580   14.6310    0.0640 C   0  0  1  0  0  0  0  0  0  0  0  0
   -6.7820   14.0750   -1.1600 N   0  0  0  0  0  0  0  0  0  0  0  0
   -4.3820   13.9210   -2.0420 C   0  0  1  0  0  0  0  0  0  0  0  0
   -2.9820   14.5630   -2.3440 C   0  0  1  0  0  0  0  0  0  0  0  0
   -6.7120   14.8830    2.2140 N   0  0  0  0  0  0  0  0  0  0  0  0
   -0.2810   14.4670    1.0170 C   0  0  0  0  0  0  0  0  0  0  0  0
   -0.8850   15.5380   -1.0360 C   0  0  0  0  0  0  0  0  0  0  0  0
   -3.1960   15.8940   -2.9920 C   0  0  0  0  0  0  0  0  0  0  0  0
   -4.2770   12.6460   -1.2140 C   0  0  0  0  0  0  0  0  0  0  0  0
   -2.0520   13.8160   -3.3940 C   0  0  0  0  0  0  0  0  0  0  0  0
   -8.2580   13.8570    0.7270 N   0  0  0  0  0  0  0  0  0  0  0  0
   -7.9820   14.1410    2.1540 C   0  0  0  0  0  0  0  0  0  0  0  0
    0.1870   14.9350   -0.2770 N   0  0  0  0  0  0  0  0  0  0  0  0
   -1.3900   12.4870   -3.0600 C   0  0  2  0  0  0  0  0  0  0  0  0
   -0.0460   12.5290   -2.3850 C   0  0  0  0  0  0  0  0  0  0  0  0
   -1.1680   11.8720   -4.3330 O   0  0  0  0  0  0  0  0  0  0  0  0
   -0.1480   10.9140   -4.1540 C   0  0  0  0  0  0  0  0  0  0  0  0
    0.6600   11.3350   -2.9410 C   0  0  0  0  0  0  0  0  0  0  0  0
  2  1  1  1
  2  3  1  0
  4  1  1  6
  2  5  1  0
  4  6  1  0
  4  7  1  0
  3  8  1  0
  5  9  1  1
  8  9  1  6
  5 10  1  0
  6 11  1  0
 10 11  1  0
  3 12  1  0
  7 13  1  0
  6 14  1  1
 11 15  1  6
 10 16  1  1
 11 17  1  0
  8 18  1  0
 12 19  1  0
 18 19  1  0
 13 20  1  0
 14 20  1  0
 21 17  1  6
 21 22  1  0
 21 23  1  0
 23 24  1  0
 22 25  1  0
 24 25  1  0
M  END
