ucsf403-ucsf371
     RDKit          3D

 23 24  0  0  0  0  0  0  0  0999 V2000
    0.4840    9.6700   -7.8610 Cl  0  0  0  0  0  0  0  0  0  0  0  0
   -0.5580    9.3980   -6.4280 C   0  0  1  0  0  0  0  0  0  0  0  0
   -0.5280   10.5800   -5.3900 C   0  0  1  0  0  0  0  0  0  0  0  0
   -1.9000    8.8220   -6.9050 C   0  0  0  0  0  0  0  0  0  0  0  0
    0.3420   11.6180   -5.8540 O   0  0  0  0  0  0  0  0  0  0  0  0
   -1.9290   11.1440   -4.9730 C   0  0  1  0  0  0  0  0  0  0  0  0
   -3.1290    9.3420   -6.1800 C   0  0  0  0  0  0  0  0  0  0  0  0
   -1.9590   12.5490   -4.2890 C   0  0  0  0  0  0  0  0  0  0  0  0
    1.0740   12.3600   -4.8400 C   0  0  0  0  0  0  0  0  0  0  0  0
   -3.0440   10.8330   -5.9630 C   0  0  0  0  0  0  0  0  0  0  0  0
    0.7660   12.0050   -3.3440 C   0  0  2  0  0  0  0  0  0  0  0  0
   -1.9210   13.8420   -5.1110 C   0  0  0  0  0  0  0  0  0  0  0  0
    1.7380   12.3930   -2.5480 O   0  0  0  0  0  0  0  0  0  0  0  0
    0.8250   10.6080   -3.1100 O   0  0  0  0  0  0  0  0  0  0  0  0
   -0.9230   14.7270   -4.5630 O   0  0  0  0  0  0  0  0  0  0  0  0
   -1.2080   15.4720   -3.3430 C   0  0  2  0  0  0  0  0  0  0  0  0
   -0.0650   15.5360   -2.6760 O   0  0  0  0  0  0  0  0  0  0  0  0
   -2.3040   14.8180   -2.4370 C   0  0  2  0  0  0  0  0  0  0  0  0
   -3.7320   14.9570   -2.9800 C   0  0  0  0  0  0  0  0  0  0  0  0
   -2.4840   15.3800   -0.6870 S   0  0  0  0  0  0  0  0  0  0  0  0
   -4.2830   15.4170   -0.7590 C   0  0  1  0  0  0  0  0  0  0  0  0
   -4.6910   14.5950   -1.9000 N   0  0  0  0  0  0  0  0  0  0  0  0
   -4.9070   14.9830    0.5650 C   0  0  0  0  0  0  0  0  0  0  0  0
  2  1  1  6
  2  3  1  0
  2  4  1  0
  3  5  1  6
  3  6  1  0
  4  7  1  0
  6  8  1  6
  5  9  1  0
  6 10  1  0
  7 10  1  0
  9 11  1  0
  8 12  1  0
 11 13  1  1
 11 14  1  0
 12 15  1  0
 15 16  1  0
 16 17  1  1
 16 18  1  0
 18 19  1  6
 18 20  1  0
 20 21  1  0
 19 22  1  0
 21 22  1  0
 21 23  1  1
M  CHG  2  13  -1  17  -1
M  END
