ucsf487-ucsf006
     RDKit          3D

 23 25  0  0  0  0  0  0  0  0999 V2000
   -7.7020   14.2980    2.8870 N   0  0  0  0  0  0  0  0  0  0  0  0
   -7.1050   13.9100    1.6010 C   0  0  1  0  0  0  0  0  0  0  0  0
   -7.8820   14.4680    0.3900 C   0  0  0  0  0  0  0  0  0  0  0  0
   -5.6140   14.2640    1.6730 C   0  0  0  0  0  0  0  0  0  0  0  0
   -4.9410   14.8220    0.4200 C   0  0  2  0  0  0  0  0  0  0  0  0
   -7.1340   14.3580   -0.8560 N   0  0  0  0  0  0  0  0  0  0  0  0
   -5.8620   15.0850   -0.7970 C   0  0  2  0  0  0  0  0  0  0  0  0
   -3.7070   13.9960    0.0140 C   0  0  0  0  0  0  0  0  0  0  0  0
   -5.0320   14.9300   -2.0830 C   0  0  0  0  0  0  0  0  0  0  0  0
   -2.7710   14.9150   -0.7970 C   0  0  2  0  0  0  0  0  0  0  0  0
   -3.6810   15.6170   -1.8590 C   0  0  0  0  0  0  0  0  0  0  0  0
   -1.3930   14.3850   -1.3630 C   0  0  1  0  0  0  0  0  0  0  0  0
   -2.2580   15.8820    0.2800 C   0  0  0  0  0  0  0  0  0  0  0  0
   -1.1240   14.8640   -2.7290 N   0  0  0  0  0  0  0  0  0  0  0  0
   -1.6410   15.1390    1.3670 N   0  0  0  0  0  0  0  0  0  0  0  0
   -0.2590   14.7400   -0.4990 N   0  0  0  0  0  0  0  0  0  0  0  0
   -2.0800   14.3330   -3.7090 C   0  0  0  0  0  0  0  0  0  0  0  0
    0.2640   14.8320   -3.2790 C   0  0  0  0  0  0  0  0  0  0  0  0
   -0.4170   14.5300    0.9160 C   0  0  0  0  0  0  0  0  0  0  0  0
    0.4540   14.5100   -4.7750 C   0  0  0  0  0  0  0  0  0  0  0  0
    0.9870   13.0760   -5.0260 C   0  0  2  0  0  0  0  0  0  0  0  0
   -0.1250   12.2320   -5.2730 O   0  0  0  0  0  0  0  0  0  0  0  0
    1.4950   12.5380   -3.9320 O   0  0  0  0  0  0  0  0  0  0  0  0
  2  1  1  1
  2  3  1  0
  2  4  1  0
  5  4  1  1
  3  6  1  0
  5  7  1  0
  6  7  1  0
  5  8  1  0
  7  9  1  6
 10  8  1  1
  9 11  1  0
 10 11  1  0
 10 12  1  0
 10 13  1  0
 12 14  1  6
 13 15  1  0
 12 16  1  0
 14 17  1  0
 14 18  1  0
 15 19  1  0
 16 19  1  0
 18 20  1  0
 20 21  1  0
 21 22  1  1
 21 23  1  0
M  CHG  1  23  -1
M  END
