ucsf404-ucsf320
     RDKit          3D

 15 16  0  0  0  0  0  0  0  0999 V2000
   -6.8150   15.6480   -2.2360 Cl  0  0  0  0  0  0  0  0  0  0  0  0
   -5.5680   14.6050   -1.5260 C   0  0  1  0  0  0  0  0  0  0  0  0
   -5.2350   15.0770   -0.1410 C   0  0  1  0  0  0  0  0  0  0  0  0
   -6.3340   13.4280   -1.3120 O   0  0  0  0  0  0  0  0  0  0  0  0
   -4.3520   14.3640   -2.4310 C   0  0  0  0  0  0  0  0  0  0  0  0
   -6.3330   14.7920    0.7980 N   0  0  0  0  0  0  0  0  0  0  0  0
   -4.0350   14.3080    0.3830 C   0  0  2  0  0  0  0  0  0  0  0  0
   -3.0100   14.8900   -1.8470 C   0  0  2  0  0  0  0  0  0  0  0  0
   -1.7770   14.4900   -2.6820 C   0  0  2  0  0  0  0  0  0  0  0  0
   -5.7710   14.4550    2.0540 C   0  0  1  0  0  0  0  0  0  0  0  0
   -4.0560   15.0010    2.0310 S   0  0  0  0  0  0  0  0  0  0  0  0
   -2.7440   14.5380   -0.3640 C   0  0  0  0  0  0  0  0  0  0  0  0
   -6.5760   15.0890    3.0480 N   0  0  0  0  0  0  0  0  0  0  0  0
   -0.6640   14.8310   -2.0830 O   0  0  0  0  0  0  0  0  0  0  0  0
   -1.7450   15.2610   -3.8630 O   0  0  0  0  0  0  0  0  0  0  0  0
  2  1  1  0
  2  3  1  0
  2  4  1  1
  2  5  1  0
  3  6  1  1
  3  7  1  0
  8  5  1  6
  8  9  1  0
  6 10  1  0
  7 11  1  0
 10 11  1  0
  7 12  1  6
  8 12  1  0
 10 13  1  1
  9 14  1  1
  9 15  1  0
M  CHG  1  14  -1
M  END
