ucsf123-ucsf124
     RDKit          3D

 25 27  0  0  0  0  0  0  0  0999 V2000
   -2.0830   18.9920   -5.1760 N   0  0  0  0  0  0  0  0  0  0  0  0
   -1.6210   17.5350   -5.7600 S   0  0  0  0  0  0  0  0  0  0  0  0
   -0.3300   17.7300   -6.6570 O   0  0  0  0  0  0  0  0  0  0  0  0
   -2.7420   16.9830   -6.7440 O   0  0  0  0  0  0  0  0  0  0  0  0
   -1.2800   16.1920   -4.6460 C   0  0  2  0  0  0  0  0  0  0  0  0
    0.1390   16.2640   -4.0410 C   0  0  0  0  0  0  0  0  0  0  0  0
   -1.6840   14.7900   -5.0710 C   0  0  0  0  0  0  0  0  0  0  0  0
    0.3910   15.2460   -2.9160 C   0  0  0  0  0  0  0  0  0  0  0  0
   -1.5320   13.8550   -3.8830 C   0  0  0  0  0  0  0  0  0  0  0  0
   -0.0750   13.8790   -3.4060 C   0  0  2  0  0  0  0  0  0  0  0  0
    0.4460   12.6120   -2.7060 C   0  0  1  0  0  0  0  0  0  0  0  0
    1.5920   12.9060   -1.9390 O   0  0  0  0  0  0  0  0  0  0  0  0
   -0.3300   12.0010   -1.8160 O   0  0  0  0  0  0  0  0  0  0  0  0
    0.8040   11.6780   -3.8740 C   0  0  0  0  0  0  0  0  0  0  0  0
   -0.0560   11.6800   -5.0800 N   0  0  0  0  0  0  0  0  0  0  0  0
   -1.0660   10.6470   -4.9840 C   0  0  1  0  0  0  0  0  0  0  0  0
    0.6130   11.5460   -6.3880 C   0  0  2  0  0  0  0  0  0  0  0  0
   -2.1620   11.0400   -4.1880 O   0  0  0  0  0  0  0  0  0  0  0  0
    0.7700   12.7850   -6.9690 O   0  0  0  0  0  0  0  0  0  0  0  0
   -1.5270   10.3810   -6.4080 C   0  0  1  0  0  0  0  0  0  0  0  0
   -0.3220   10.7020   -7.2910 C   0  0  2  0  0  0  0  0  0  0  0  0
   -2.1450    9.0070   -6.6370 C   0  0  0  0  0  0  0  0  0  0  0  0
    0.2990    9.4620   -7.9490 C   0  0  0  0  0  0  0  0  0  0  0  0
   -2.0570    8.4560   -8.0580 C   0  0  0  0  0  0  0  0  0  0  0  0
   -0.7140    8.6600   -8.7640 C   0  0  0  0  0  0  0  0  0  0  0  0
  1  2  1  0
  2  3  1  0
  2  4  1  0
  5  2  1  6
  5  6  1  0
  5  7  1  0
  6  8  1  0
  7  9  1  0
 10  8  1  1
  9 10  1  0
 10 11  1  0
 11 12  1  1
 11 13  1  0
 11 14  1  0
 14 15  1  0
 15 16  1  0
 15 17  1  0
 16 18  1  1
 17 19  1  6
 16 20  1  0
 17 21  1  0
 20 21  1  0
 20 22  1  1
 21 23  1  1
 22 24  1  0
 23 25  1  0
 24 25  1  0
M  CHG  1  13  -1
M  END
