ucsf114-ucsf364
     RDKit          3D

 27 29  0  0  0  0  0  0  0  0999 V2000
    0.7640   18.0160   -4.4250 C   0  0  0  0  0  0  0  0  0  0  0  0
   -0.1650   17.6170   -5.5470 C   0  0  0  0  0  0  0  0  0  0  0  0
   -1.3920   18.5150   -5.4290 C   0  0  0  0  0  0  0  0  0  0  0  0
   -0.6030   16.3620   -5.5800 O   0  0  0  0  0  0  0  0  0  0  0  0
    0.2760   15.4980   -5.1130 C   0  0  0  0  0  0  0  0  0  0  0  0
   -0.0030   14.3610   -3.6810 S   0  0  0  0  0  0  0  0  0  0  0  0
    1.6660   13.6710   -2.8510 O   0  0  0  0  0  0  0  0  0  0  0  0
    1.1350   15.6600   -2.8890 O   0  0  0  0  0  0  0  0  0  0  0  0
   -0.4380   14.2100   -2.0040 N   0  0  0  0  0  0  0  0  0  0  0  0
   -0.3430   12.7040   -4.3660 C   0  0  2  0  0  0  0  0  0  0  0  0
   -1.2930   15.2170   -1.7030 C   0  0  2  0  0  0  0  0  0  0  0  0
    0.4710   14.0890   -1.0090 C   0  0  1  0  0  0  0  0  0  0  0  0
    0.8720   12.2460   -4.9970 C   0  0  2  0  0  0  0  0  0  0  0  0
   -1.6200   12.0790   -4.5550 C   0  0  0  0  0  0  0  0  0  0  0  0
    2.2690   14.2260   -1.4090 S   0  0  0  0  0  0  0  0  0  0  0  0
    2.1810   12.9370   -4.8880 C   0  0  0  0  0  0  0  0  0  0  0  0
   -1.8430   15.3460   -0.2860 C   0  0  2  0  0  0  0  0  0  0  0  0
    0.4300   14.9800    0.1240 N   0  0  0  0  0  0  0  0  0  0  0  0
   -2.5710   15.2900   -2.5210 C   0  0  0  0  0  0  0  0  0  0  0  0
   -1.8720   11.6520   -6.0500 C   0  0  0  0  0  0  0  0  0  0  0  0
    0.5060   12.1150   -6.4200 C   0  0  1  0  0  0  0  0  0  0  0  0
    1.6800   11.6640   -7.0400 O   0  0  0  0  0  0  0  0  0  0  0  0
   -0.8430   15.1600    0.7500 C   0  0  2  0  0  0  0  0  0  0  0  0
   -2.9700   14.5040   -0.3370 N   0  0  0  0  0  0  0  0  0  0  0  0
   -3.6780   14.9110   -1.5180 C   0  0  0  0  0  0  0  0  0  0  0  0
   -0.5640   11.0910   -6.5610 C   0  0  0  0  0  0  0  0  0  0  0  0
   -1.1710   14.3260    1.8010 O   0  0  0  0  0  0  0  0  0  0  0  0
  1  2  1  0
  2  3  1  0
  2  4  1  0
  4  5  1  0
  5  6  1  0
  6  7  1  0
  6  8  1  0
  6  9  1  0
 10  6  1  6
  9 11  1  0
  9 12  1  0
 10 13  1  0
 10 14  1  0
 12 15  1  6
 13 16  1  6
 11 17  1  0
 12 18  1  0
 11 19  1  6
 14 20  1  0
 13 21  1  0
 21 22  1  6
 17 23  1  0
 18 23  1  0
 17 24  1  1
 19 25  1  0
 24 25  1  0
 20 26  1  0
 21 26  1  0
 23 27  1  6
M  CHG  1   8  -1
M  END
