ucsf151-ucsf213
     RDKit          3D

 22 24  0  0  0  0  0  0  0  0999 V2000
   -0.0120   12.5990   -1.4960 O   0  0  0  0  0  0  0  0  0  0  0  0
   -0.6840   13.8190   -1.8610 C   0  0  1  0  0  0  0  0  0  0  0  0
    0.2720   14.8810   -1.8140 O   0  0  0  0  0  0  0  0  0  0  0  0
    0.2860   11.8000   -2.6350 C   0  0  2  0  0  0  0  0  0  0  0  0
    0.7550   10.6230   -2.2620 O   0  0  0  0  0  0  0  0  0  0  0  0
    1.2120   12.6790   -3.5520 C   0  0  0  0  0  0  0  0  0  0  0  0
   -1.3030   13.7220   -3.2930 C   0  0  2  0  0  0  0  0  0  0  0  0
   -2.2150   14.9100   -3.6200 C   0  0  0  0  0  0  0  0  0  0  0  0
   -2.0300   12.3990   -3.5950 C   0  0  0  0  0  0  0  0  0  0  0  0
    0.6920   14.0890   -3.9770 C   0  0  1  0  0  0  0  0  0  0  0  0
   -2.7050   14.8930   -5.0780 C   0  0  2  0  0  0  0  0  0  0  0  0
   -3.2290   12.5510   -4.4560 N   0  0  0  0  0  0  0  0  0  0  0  0
    1.5100   15.3710   -4.1190 C   0  0  0  0  0  0  0  0  0  0  0  0
   -0.4170   14.1790   -5.4050 S   0  0  0  0  0  0  0  0  0  0  0  0
   -3.8430   15.7270   -5.2640 O   0  0  0  0  0  0  0  0  0  0  0  0
   -3.0160   13.4780   -5.5630 C   0  0  0  0  0  0  0  0  0  0  0  0
    0.5020   16.5180   -4.3730 C   0  0  2  0  0  0  0  0  0  0  0  0
   -0.5140   16.0130   -5.3270 C   0  0  2  0  0  0  0  0  0  0  0  0
    0.9520   17.7820   -5.1040 C   0  0  0  0  0  0  0  0  0  0  0  0
   -1.8660   16.7520   -5.2910 C   0  0  0  0  0  0  0  0  0  0  0  0
   -0.1700   18.4530   -5.9300 C   0  0  0  0  0  0  0  0  0  0  0  0
   -1.5960   18.2320   -5.4230 C   0  0  0  0  0  0  0  0  0  0  0  0
  1  2  1  0
  2  3  1  6
  1  4  1  0
  4  5  1  1
  4  6  1  0
  2  7  1  0
  7  8  1  1
  7  9  1  0
 10  6  1  6
  8 11  1  0
  9 12  1  0
 10 13  1  0
 10 14  1  0
 11 15  1  1
 11 16  1  0
 12 16  1  0
 17 13  1  6
 14 18  1  0
 17 18  1  0
 17 19  1  0
 18 20  1  1
 19 21  1  0
 20 22  1  0
 21 22  1  0
M  CHG  1   5  -1
M  END
