ucsf396-ucsf385
     RDKit          3D

 17 18  0  0  0  0  0  0  0  0999 V2000
   -3.9300   15.3140   -0.5350 C   0  0  0  0  0  0  0  0  0  0  0  0
   -3.2670   15.3880    0.6950 O   0  0  0  0  0  0  0  0  0  0  0  0
   -2.5690   14.2040    0.9130 C   0  0  1  0  0  0  0  0  0  0  0  0
   -5.3890   15.3440   -0.1960 C   0  0  1  0  0  0  0  0  0  0  0  0
   -6.2330   14.6710   -1.2620 C   0  0  0  0  0  0  0  0  0  0  0  0
   -5.6500   14.7390    1.1940 C   0  0  0  0  0  0  0  0  0  0  0  0
   -7.6580   14.7120   -0.9380 N   0  0  0  0  0  0  0  0  0  0  0  0
   -7.1330   14.4480    1.4860 C   0  0  0  0  0  0  0  0  0  0  0  0
   -2.0550   13.5980   -0.3820 C   0  0  0  0  0  0  0  0  0  0  0  0
   -1.4970   14.5680    1.7890 N   0  0  0  0  0  0  0  0  0  0  0  0
   -7.9820   14.0060    0.2890 C   0  0  0  0  0  0  0  0  0  0  0  0
   -1.0350   14.5010   -1.0250 C   0  0  2  0  0  0  0  0  0  0  0  0
   -0.1690   14.1980    1.3380 C   0  0  0  0  0  0  0  0  0  0  0  0
   -0.7300   14.0920   -2.4810 C   0  0  2  0  0  0  0  0  0  0  0  0
    0.1900   14.5480   -0.1050 C   0  0  0  0  0  0  0  0  0  0  0  0
    0.4830   14.7080   -2.8610 O   0  0  0  0  0  0  0  0  0  0  0  0
   -1.5750   14.6690   -3.3060 O   0  0  0  0  0  0  0  0  0  0  0  0
  1  2  1  0
  3  2  1  6
  4  1  1  6
  4  5  1  0
  4  6  1  0
  5  7  1  0
  6  8  1  0
  3  9  1  0
  3 10  1  0
  7 11  1  0
  8 11  1  0
 12  9  1  1
 10 13  1  0
 12 14  1  0
 12 15  1  0
 13 15  1  0
 14 16  1  6
 14 17  1  0
M  CHG  1  17  -1
M  END
