ucsf147-ucsf017
     RDKit          3D

 24 28  0  0  0  0  0  0  0  0999 V2000
    1.3930   13.3400   -5.0210 C   0  0  0  0  0  0  0  0  0  0  0  0
   -0.1000   13.2360   -4.5530 C   0  0  2  0  0  0  0  0  0  0  0  0
   -0.7950   14.0260   -5.5330 O   0  0  0  0  0  0  0  0  0  0  0  0
   -0.5260   13.8410   -3.1420 C   0  0  1  0  0  0  0  0  0  0  0  0
   -0.4070   11.7510   -4.5400 C   0  0  0  0  0  0  0  0  0  0  0  0
    0.7100   14.7600   -2.4980 C   0  0  1  0  0  0  0  0  0  0  0  0
   -2.1250   14.3360   -4.9400 N   0  0  0  0  0  0  0  0  0  0  0  0
   -1.8120   14.6280   -3.5170 C   0  0  1  0  0  0  0  0  0  0  0  0
    0.4300   11.2080   -3.3940 C   0  0  0  0  0  0  0  0  0  0  0  0
   -0.9190   12.8250   -2.1230 N   0  0  0  0  0  0  0  0  0  0  0  0
    1.4410   13.9680   -1.5810 O   0  0  0  0  0  0  0  0  0  0  0  0
    1.7070   15.1050   -3.2620 O   0  0  0  0  0  0  0  0  0  0  0  0
   -2.9300   14.4510   -2.4700 C   0  0  1  0  0  0  0  0  0  0  0  0
    0.0570   11.7620   -2.0390 C   0  0  0  0  0  0  0  0  0  0  0  0
   -1.1960   13.4970   -0.8360 C   0  0  2  0  0  0  0  0  0  0  0  0
   -2.4020   14.4750   -0.9820 C   0  0  2  0  0  0  0  0  0  0  0  0
   -4.1300   15.3460   -2.7280 C   0  0  0  0  0  0  0  0  0  0  0  0
    0.0060   14.1660   -0.3050 N   0  0  0  0  0  0  0  0  0  0  0  0
   -3.6400   14.1430   -0.0980 C   0  0  0  0  0  0  0  0  0  0  0  0
   -5.2440   15.3290   -1.6830 C   0  0  0  0  0  0  0  0  0  0  0  0
   -0.1790   14.7950    0.9790 C   0  0  0  0  0  0  0  0  0  0  0  0
   -1.8790   15.7890   -0.3800 C   0  0  0  0  0  0  0  0  0  0  0  0
   -4.7620   15.1780   -0.2530 C   0  0  0  0  0  0  0  0  0  0  0  0
   -1.3630   15.5980    0.9830 N   0  0  0  0  0  0  0  0  0  0  0  0
  2  1  1  6
  2  3  1  0
  2  4  1  0
  2  5  1  0
  4  6  1  0
  3  7  1  0
  4  8  1  0
  8  7  1  6
  5  9  1  0
  4 10  1  1
  6 11  1  1
  6 12  1  0
  8 13  1  0
  9 14  1  0
 10 14  1  0
 10 15  1  0
 13 16  1  0
 15 16  1  0
 13 17  1  1
 15 18  1  6
 16 19  1  1
 17 20  1  0
 18 21  1  0
 16 22  1  0
 19 23  1  0
 20 23  1  0
 21 24  1  0
 22 24  1  0
M  CHG  1  12  -1
M  END
