ucsf190-ucsf411
     RDKit          3D

 21 24  0  0  0  0  0  0  0  0999 V2000
    0.5040   10.4280   -2.6350 O   0  0  0  0  0  0  0  0  0  0  0  0
    1.1090   11.6140   -2.7090 C   0  0  2  0  0  0  0  0  0  0  0  0
    0.9380   12.1960   -1.4190 O   0  0  0  0  0  0  0  0  0  0  0  0
    0.3400   12.6370   -3.4850 C   0  0  2  0  0  0  0  0  0  0  0  0
    0.1500   12.7330   -4.9060 O   0  0  0  0  0  0  0  0  0  0  0  0
    0.6260   14.0580   -3.1780 C   0  0  2  0  0  0  0  0  0  0  0  0
   -0.7920   14.4650   -3.5170 C   0  0  2  0  0  0  0  0  0  0  0  0
    1.7900   14.7650   -3.7220 N   0  0  0  0  0  0  0  0  0  0  0  0
   -1.0890   13.4260   -4.6300 C   0  0  1  0  0  0  0  0  0  0  0  0
   -1.0190   15.9640   -3.7210 C   0  0  1  0  0  0  0  0  0  0  0  0
    1.4430   16.1310   -4.0210 N   0  0  0  0  0  0  0  0  0  0  0  0
   -2.0290   13.8150   -5.7230 C   0  0  0  0  0  0  0  0  0  0  0  0
    0.2870   16.6190   -3.2610 C   0  0  1  0  0  0  0  0  0  0  0  0
   -1.4260   16.2870   -5.1310 C   0  0  0  0  0  0  0  0  0  0  0  0
   -2.5060   15.2560   -5.6200 C   0  0  0  0  0  0  0  0  0  0  0  0
    0.2740   18.0200   -3.3600 O   0  0  0  0  0  0  0  0  0  0  0  0
   -1.7980   17.7350   -5.4850 C   0  0  0  0  0  0  0  0  0  0  0  0
   -0.0800   16.2180   -5.7850 C   0  0  0  0  0  0  0  0  0  0  0  0
   -0.6850   18.7540   -5.2410 C   0  0  0  0  0  0  0  0  0  0  0  0
    1.0620   16.9450   -5.2470 C   0  0  0  0  0  0  0  0  0  0  0  0
    0.7850   18.3770   -5.5470 C   0  0  0  0  0  0  0  0  0  0  0  0
  2  1  1  1
  2  3  1  0
  2  4  1  0
  4  5  1  6
  4  6  1  0
  6  7  1  0
  6  8  1  6
  5  9  1  0
  7  9  1  6
  7 10  1  0
  8 11  1  0
  9 12  1  6
 10 13  1  0
 11 13  1  0
 10 14  1  6
 12 15  1  0
 14 15  1  0
 13 16  1  6
 14 17  1  0
 14 18  1  0
 17 19  1  0
 18 20  1  0
 19 21  1  0
 20 21  1  0
M  CHG  1   1  -1
M  END
