ucsf337-ucsf338
     RDKit          3D

 11 11  0  0  0  0  0  0  0  0999 V2000
   -7.7900   14.9050    0.3650 C   0  0  0  0  0  0  0  0  0  0  0  0
   -8.7470   13.8810    0.1100 O   0  0  0  0  0  0  0  0  0  0  0  0
   -6.4830   14.6810   -0.4460 C   0  0  2  0  0  0  0  0  0  0  0  0
   -5.2080   15.3410    0.1020 C   0  0  1  0  0  0  0  0  0  0  0  0
   -6.6330   15.0610   -1.8350 N   0  0  0  0  0  0  0  0  0  0  0  0
   -5.0270   14.8820    1.9570 Br  0  0  0  0  0  0  0  0  0  0  0  0
   -3.9310   14.9530   -0.6130 C   0  0  0  0  0  0  0  0  0  0  0  0
   -5.4730   14.5830   -2.5570 C   0  0  1  0  0  0  0  0  0  0  0  0
   -7.7560   14.2850   -2.3130 O   0  0  0  0  0  0  0  0  0  0  0  0
   -5.7650   14.7830   -3.9530 N   0  0  0  0  0  0  0  0  0  0  0  0
   -4.1130   15.1440   -2.1090 C   0  0  0  0  0  0  0  0  0  0  0  0
  1  2  1  0
  3  1  1  1
  3  4  1  0
  3  5  1  0
  4  6  1  1
  4  7  1  0
  5  8  1  0
  5  9  1  0
  8 10  1  6
  7 11  1  0
  8 11  1  0
M  END
