ucsf404-ucsf387
     RDKit          3D

 25 27  0  0  0  0  0  0  0  0999 V2000
   -7.0280   15.1780   -1.8530 Cl  0  0  0  0  0  0  0  0  0  0  0  0
   -5.3060   15.2380   -1.3670 C   0  0  1  0  0  0  0  0  0  0  0  0
   -5.1130   14.6700    0.0290 C   0  0  2  0  0  0  0  0  0  0  0  0
   -4.3820   14.3480   -2.1960 C   0  0  2  0  0  0  0  0  0  0  0  0
   -6.1440   14.8970    1.0450 N   0  0  0  0  0  0  0  0  0  0  0  0
   -3.8080   15.2440    0.5480 C   0  0  1  0  0  0  0  0  0  0  0  0
   -2.9190   14.6840   -1.8000 C   0  0  0  0  0  0  0  0  0  0  0  0
   -4.6250   14.3380   -3.7290 C   0  0  0  0  0  0  0  0  0  0  0  0
   -5.5890   14.3170    2.2360 C   0  0  1  0  0  0  0  0  0  0  0  0
   -3.8520   14.7920    2.2990 S   0  0  0  0  0  0  0  0  0  0  0  0
   -2.6460   14.6810   -0.2640 C   0  0  0  0  0  0  0  0  0  0  0  0
   -3.8760   15.2640   -4.6770 C   0  0  0  0  0  0  0  0  0  0  0  0
   -6.3330   14.8970    3.3050 N   0  0  0  0  0  0  0  0  0  0  0  0
   -2.7950   14.6470   -5.5170 C   0  0  0  0  0  0  0  0  0  0  0  0
   -1.3710   15.0920   -5.1680 C   0  0  2  0  0  0  0  0  0  0  0  0
   -0.7660   14.3400   -4.0290 C   0  0  0  0  0  0  0  0  0  0  0  0
   -1.0910   16.5740   -5.0100 C   0  0  0  0  0  0  0  0  0  0  0  0
    0.7110   14.2310   -4.3710 C   0  0  2  0  0  0  0  0  0  0  0  0
    0.3120   16.8340   -4.4410 C   0  0  2  0  0  0  0  0  0  0  0  0
    0.9540   18.2120   -5.3810 Cl  0  0  0  0  0  0  0  0  0  0  0  0
    1.4540   13.2420   -3.4490 C   0  0  0  0  0  0  0  0  0  0  0  0
    1.3140   15.6540   -4.4070 C   0  0  0  0  0  0  0  0  0  0  0  0
    0.4540   12.4580   -2.5650 C   0  0  1  0  0  0  0  0  0  0  0  0
    0.7040   11.1730   -2.5870 O   0  0  0  0  0  0  0  0  0  0  0  0
    0.6690   12.7620   -1.2070 O   0  0  0  0  0  0  0  0  0  0  0  0
  2  1  1  6
  2  3  1  0
  2  4  1  0
  3  5  1  1
  3  6  1  0
  4  7  1  0
  4  8  1  6
  5  9  1  0
  6 10  1  0
  9 10  1  0
  6 11  1  6
  7 11  1  0
  8 12  1  0
  9 13  1  1
 12 14  1  0
 15 14  1  1
 15 16  1  0
 15 17  1  0
 16 18  1  0
 17 19  1  0
 19 20  1  6
 18 21  1  1
 18 22  1  0
 19 22  1  0
 21 23  1  0
 23 24  1  1
 23 25  1  0
M  CHG  1  24  -1
M  END
