ucsf378-ucsf387
     RDKit          3D

 14 14  0  0  0  0  0  0  0  0999 V2000
   -1.9850   13.8890   -3.0250 Cl  0  0  0  0  0  0  0  0  0  0  0  0
   -0.9320   14.0130   -4.4660 C   0  0  2  0  0  0  0  0  0  0  0  0
    0.3050   13.0740   -4.5790 C   0  0  2  0  0  0  0  0  0  0  0  0
   -0.6730   15.4720   -4.8600 C   0  0  1  0  0  0  0  0  0  0  0  0
    0.4430   11.8090   -3.6750 C   0  0  0  0  0  0  0  0  0  0  0  0
   -2.1990   16.4180   -5.0380 Cl  0  0  0  0  0  0  0  0  0  0  0  0
    1.5670   13.9510   -4.6660 C   0  0  2  0  0  0  0  0  0  0  0  0
    0.3950   16.1180   -3.9810 C   0  0  2  0  0  0  0  0  0  0  0  0
    3.0330   12.9840   -4.4680 Cl  0  0  0  0  0  0  0  0  0  0  0  0
   -0.3510   11.5580   -2.3880 C   0  0  2  0  0  0  0  0  0  0  0  0
    0.8190   17.7480   -4.6720 Cl  0  0  0  0  0  0  0  0  0  0  0  0
    1.6120   15.2020   -3.7900 C   0  0  0  0  0  0  0  0  0  0  0  0
    0.3240   11.9760   -1.3330 O   0  0  0  0  0  0  0  0  0  0  0  0
   -0.2500   10.1620   -2.2290 O   0  0  0  0  0  0  0  0  0  0  0  0
  2  1  1  1
  2  3  1  0
  2  4  1  0
  3  5  1  1
  4  6  1  1
  3  7  1  0
  4  8  1  0
  7  9  1  1
  5 10  1  0
  8 11  1  6
  7 12  1  0
  8 12  1  0
 10 13  1  1
 10 14  1  0
M  CHG  1  13  -1
M  END
