ucsf135-ucsf247
     RDKit          3D

 27 29  0  0  0  0  0  0  0  0999 V2000
    0.7050   12.7080   -7.1600 O   0  0  0  0  0  0  0  0  0  0  0  0
    0.8090   11.5120   -6.5010 C   0  0  1  0  0  0  0  0  0  0  0  0
    0.8260   11.8280   -5.0720 N   0  0  0  0  0  0  0  0  0  0  0  0
   -0.4220   10.6190   -6.8170 C   0  0  2  0  0  0  0  0  0  0  0  0
   -0.5040   11.1660   -4.3270 S   0  0  2  0  0  0  0  0  0  0  0  0
   -0.8920    9.9240   -5.5240 C   0  0  1  0  0  0  0  0  0  0  0  0
   -0.2740    9.5640   -7.9010 C   0  0  0  0  0  0  0  0  0  0  0  0
   -1.7130   12.2040   -4.2090 O   0  0  0  0  0  0  0  0  0  0  0  0
   -0.1600   10.3760   -2.9850 O   0  0  0  0  0  0  0  0  0  0  0  0
   -2.3010    9.4260   -5.6890 C   0  0  0  0  0  0  0  0  0  0  0  0
   -1.6240    8.8590   -8.1160 C   0  0  0  0  0  0  0  0  0  0  0  0
   -1.4940   13.5780   -4.5860 C   0  0  0  0  0  0  0  0  0  0  0  0
   -2.3070    8.3830   -6.8190 C   0  0  0  0  0  0  0  0  0  0  0  0
   -0.8090   14.4330   -3.4720 C   0  0  2  0  0  0  0  0  0  0  0  0
    0.5810   13.7740   -3.0830 C   0  0  2  0  0  0  0  0  0  0  0  0
   -1.7040   14.5600   -2.2900 N   0  0  0  0  0  0  0  0  0  0  0  0
    0.6280   13.4540   -1.7990 O   0  0  0  0  0  0  0  0  0  0  0  0
    1.6320   14.7160   -3.1730 O   0  0  0  0  0  0  0  0  0  0  0  0
   -3.0700   15.0160   -2.4640 C   0  0  1  0  0  0  0  0  0  0  0  0
   -3.7170   14.5730   -3.6340 O   0  0  0  0  0  0  0  0  0  0  0  0
   -3.8770   14.5720   -1.2300 C   0  0  2  0  0  0  0  0  0  0  0  0
   -5.3860   14.5070   -1.4440 C   0  0  0  0  0  0  0  0  0  0  0  0
   -3.5090   15.3660    0.0350 C   0  0  0  0  0  0  0  0  0  0  0  0
   -6.1460   15.1250   -0.2950 C   0  0  1  0  0  0  0  0  0  0  0  0
   -4.1770   14.8980    1.3040 C   0  0  0  0  0  0  0  0  0  0  0  0
   -7.5320   14.8040   -0.4120 O   0  0  0  0  0  0  0  0  0  0  0  0
   -5.6550   14.6410    1.0770 C   0  0  0  0  0  0  0  0  0  0  0  0
  2  1  1  6
  2  3  1  0
  2  4  1  0
  3  5  1  0
  4  6  1  0
  5  6  1  0
  4  7  1  6
  5  8  1  0
  5  9  1  1
  6 10  1  6
  7 11  1  0
  8 12  1  0
 10 13  1  0
 11 13  1  0
 14 12  1  6
 14 15  1  0
 14 16  1  0
 15 17  1  1
 15 18  1  0
 16 19  1  0
 19 20  1  6
 19 21  1  0
 21 22  1  6
 21 23  1  0
 22 24  1  0
 23 25  1  0
 24 26  1  6
 24 27  1  0
 25 27  1  0
M  CHG  1  17  -1
M  END
