ucsf170-ucsf337
     RDKit          3D

 19 20  0  0  0  0  0  0  0  0999 V2000
   -2.4610   15.0240    1.1470 S   0  0  0  0  0  0  0  0  0  0  0  0
   -2.0950   15.3800   -0.6160 C   0  0  2  0  0  0  0  0  0  0  0  0
   -3.2670   15.4020   -1.6260 C   0  0  1  0  0  0  0  0  0  0  0  0
   -0.9570   14.5300   -1.1210 C   0  0  0  0  0  0  0  0  0  0  0  0
   -0.4210   15.0980   -2.4530 C   0  0  1  0  0  0  0  0  0  0  0  0
   -2.8820   14.7100   -2.9640 C   0  0  0  0  0  0  0  0  0  0  0  0
   -4.5260   14.7840   -1.0440 C   0  0  1  0  0  0  0  0  0  0  0  0
    0.8700   14.3540   -2.8830 C   0  0  1  0  0  0  0  0  0  0  0  0
   -1.5490   15.1790   -3.5250 C   0  0  2  0  0  0  0  0  0  0  0  0
   -5.0000   15.5970    0.1260 C   0  0  0  0  0  0  0  0  0  0  0  0
   -5.7870   14.5230   -1.9240 C   0  0  2  0  0  0  0  0  0  0  0  0
   -1.2880   14.4900   -4.7460 O   0  0  0  0  0  0  0  0  0  0  0  0
    1.2730   13.5090   -1.8200 O   0  0  0  0  0  0  0  0  0  0  0  0
    0.6020   13.4690   -3.8020 O   0  0  0  0  0  0  0  0  0  0  0  0
   -5.8380   15.0210   -3.2720 N   0  0  0  0  0  0  0  0  0  0  0  0
   -5.9070   14.7270    0.9520 C   0  0  0  0  0  0  0  0  0  0  0  0
   -6.9780   14.9920   -1.2520 N   0  0  0  0  0  0  0  0  0  0  0  0
   -7.0980   14.3630    0.0750 C   0  0  2  0  0  0  0  0  0  0  0  0
   -8.3920   14.8100    0.7380 C   0  0  0  0  0  0  0  0  0  0  0  0
  2  1  1  1
  2  3  1  0
  2  4  1  0
  5  4  1  1
  3  6  1  6
  3  7  1  0
  5  8  1  0
  5  9  1  0
  6  9  1  0
  7 10  1  1
  7 11  1  0
  9 12  1  6
  8 13  1  1
  8 14  1  0
 11 15  1  6
 10 16  1  0
 11 17  1  0
 16 18  1  0
 17 18  1  0
 18 19  1  1
M  CHG  1  14  -1
M  END
