ucsf357-ucsf385
     RDKit          3D

 19 21  0  0  0  0  0  0  0  0999 V2000
   -7.0560   12.9140   -1.9680 O   0  0  0  0  0  0  0  0  0  0  0  0
   -6.5720   14.1070   -2.2350 C   0  0  1  0  0  0  0  0  0  0  0  0
   -7.1780   14.8740   -1.2080 O   0  0  0  0  0  0  0  0  0  0  0  0
   -5.0330   14.1160   -2.0210 C   0  0  1  0  0  0  0  0  0  0  0  0
   -4.2190   13.6690   -3.2810 C   0  0  0  0  0  0  0  0  0  0  0  0
   -4.6110   15.4620   -1.3930 C   0  0  0  0  0  0  0  0  0  0  0  0
   -2.8600   14.3300   -3.5780 C   0  0  2  0  0  0  0  0  0  0  0  0
   -3.1320   15.7290   -1.5390 C   0  0  0  0  0  0  0  0  0  0  0  0
   -1.7050   13.6090   -3.1020 O   0  0  0  0  0  0  0  0  0  0  0  0
   -2.6660   15.6920   -2.9830 C   0  0  1  0  0  0  0  0  0  0  0  0
   -1.2570   15.8590   -3.0610 O   0  0  0  0  0  0  0  0  0  0  0  0
   -0.8780   14.6160   -2.4890 C   0  0  1  0  0  0  0  0  0  0  0  0
   -1.1160   14.7140   -0.9770 C   0  0  1  0  0  0  0  0  0  0  0  0
   -2.5300   14.2140   -0.5590 C   0  0  1  0  0  0  0  0  0  0  0  0
   -0.0230   14.0700   -0.1220 C   0  0  0  0  0  0  0  0  0  0  0  0
   -2.8200   12.8250   -0.9500 N   0  0  0  0  0  0  0  0  0  0  0  0
   -0.3480   14.2800    1.3550 C   0  0  0  0  0  0  0  0  0  0  0  0
   -2.7250   14.4170    0.9600 C   0  0  0  0  0  0  0  0  0  0  0  0
   -1.5630   15.0720    1.5490 N   0  0  0  0  0  0  0  0  0  0  0  0
  2  1  1  1
  2  3  1  0
  2  4  1  0
  4  5  1  6
  4  6  1  0
  7  5  1  1
  6  8  1  0
  7  9  1  0
  7 10  1  0
 10  8  1  1
 10 11  1  0
 12  9  1  6
 11 12  1  0
 12 13  1  0
 13 14  1  0
 13 15  1  1
 14 16  1  1
 15 17  1  0
 14 18  1  0
 17 19  1  0
 18 19  1  0
M  CHG  1   1  -1
M  END
