ucsf190-ucsf303
     RDKit          3D

 30 33  0  0  0  0  0  0  0  0999 V2000
    0.6230   10.5240   -2.4320 O   0  0  0  0  0  0  0  0  0  0  0  0
    1.1100   11.7660   -2.4240 C   0  0  2  0  0  0  0  0  0  0  0  0
    0.1690   12.4120   -1.6040 O   0  0  0  0  0  0  0  0  0  0  0  0
    1.2470   12.3490   -3.8550 C   0  0  0  0  0  0  0  0  0  0  0  0
    0.9340   13.8410   -3.8400 C   0  0  2  0  0  0  0  0  0  0  0  0
   -0.4590   14.1750   -4.3740 C   0  0  1  0  0  0  0  0  0  0  0  0
    1.9240   14.6800   -4.5200 N   0  0  0  0  0  0  0  0  0  0  0  0
   -0.5190   15.6090   -4.9280 C   0  0  2  0  0  0  0  0  0  0  0  0
    1.7700   16.0730   -4.0830 N   0  0  0  0  0  0  0  0  0  0  0  0
   -1.1020   13.2330   -5.3920 C   0  0  0  0  0  0  0  0  0  0  0  0
    0.3760   16.5300   -4.1050 C   0  0  1  0  0  0  0  0  0  0  0  0
   -1.9850   16.0620   -5.0480 C   0  0  0  0  0  0  0  0  0  0  0  0
   -2.5430   13.6720   -5.6900 C   0  0  0  0  0  0  0  0  0  0  0  0
    0.3660   17.8240   -4.6930 O   0  0  0  0  0  0  0  0  0  0  0  0
   -2.9450   14.8830   -4.8420 C   0  0  1  0  0  0  0  0  0  0  0  0
   -2.8720   14.4210   -3.4980 O   0  0  0  0  0  0  0  0  0  0  0  0
   -4.1290   14.3900   -2.5220 S   0  0  1  0  0  0  0  0  0  0  0  0
   -4.9010   15.7720   -2.6040 O   0  0  0  0  0  0  0  0  0  0  0  0
   -5.1760   13.1480   -2.7260 N   0  0  0  0  0  0  0  0  0  0  0  0
   -3.5060   14.4190   -0.8840 C   0  0  0  0  0  0  0  0  0  0  0  0
   -4.9610   12.0040   -1.9010 C   0  0  1  0  0  0  0  0  0  0  0  0
   -2.0620   14.8790   -0.6650 C   0  0  0  0  0  0  0  0  0  0  0  0
   -4.5320   15.1470   -0.0390 C   0  0  0  0  0  0  0  0  0  0  0  0
   -5.9670   10.9930   -2.1980 N   0  0  0  0  0  0  0  0  0  0  0  0
   -3.3510   11.3330   -2.3250 S   0  0  0  0  0  0  0  0  0  0  0  0
   -1.7320   14.7430    0.8160 C   0  0  0  0  0  0  0  0  0  0  0  0
   -4.2520   14.8170    1.3770 C   0  0  0  0  0  0  0  0  0  0  0  0
   -3.9640    9.6590   -2.3850 C   0  0  0  0  0  0  0  0  0  0  0  0
   -5.3800    9.6370   -1.9830 N   0  0  0  0  0  0  0  0  0  0  0  0
   -2.8720   15.3070    1.6640 C   0  0  0  0  0  0  0  0  0  0  0  0
  2  1  1  6
  2  3  1  0
  2  4  1  0
  5  4  1  6
  5  6  1  0
  5  7  1  0
  6  8  1  0
  7  9  1  0
  6 10  1  6
  8 11  1  0
  9 11  1  0
  8 12  1  1
 10 13  1  0
 11 14  1  6
 12 15  1  0
 13 15  1  0
 15 16  1  1
 17 16  1  0
 17 18  1  6
 17 19  1  0
 17 20  1  0
 21 19  1  6
 20 22  1  0
 20 23  1  0
 21 24  1  0
 21 25  1  0
 22 26  1  0
 23 27  1  0
 25 28  1  0
 24 29  1  0
 28 29  1  0
 26 30  1  0
 27 30  1  0
M  CHG  1   1  -1
M  END
