ucsf124-ucsf385
     RDKit          3D

 24 26  0  0  0  0  0  0  0  0999 V2000
    0.9880   11.3140   -2.4080 O   0  0  0  0  0  0  0  0  0  0  0  0
    0.2530   12.2470   -2.9780 C   0  0  1  0  0  0  0  0  0  0  0  0
    0.3420   13.5170   -2.2820 O   0  0  0  0  0  0  0  0  0  0  0  0
    0.7780   12.4820   -4.4510 C   0  0  0  0  0  0  0  0  0  0  0  0
   -0.9680   14.1410   -2.1660 C   0  0  2  0  0  0  0  0  0  0  0  0
    0.0760   11.7350   -5.5060 N   0  0  0  0  0  0  0  0  0  0  0  0
   -1.1950   14.8120   -3.2920 O   0  0  0  0  0  0  0  0  0  0  0  0
   -0.9840   10.8240   -5.1290 C   0  0  1  0  0  0  0  0  0  0  0  0
    0.7440   11.2880   -6.7160 C   0  0  2  0  0  0  0  0  0  0  0  0
   -1.0450   15.1250   -0.9550 C   0  0  1  0  0  0  0  0  0  0  0  0
   -2.0490   11.4810   -4.4940 O   0  0  0  0  0  0  0  0  0  0  0  0
    0.5440   12.1680   -7.7540 O   0  0  0  0  0  0  0  0  0  0  0  0
   -1.3720   10.2410   -6.4850 C   0  0  1  0  0  0  0  0  0  0  0  0
    0.0120    9.9830   -7.0650 C   0  0  1  0  0  0  0  0  0  0  0  0
   -2.4880   15.3400   -0.4270 C   0  0  1  0  0  0  0  0  0  0  0  0
    0.0060   14.9280    0.1690 C   0  0  0  0  0  0  0  0  0  0  0  0
   -3.5310   15.1430   -1.4620 N   0  0  0  0  0  0  0  0  0  0  0  0
   -2.2890    9.0270   -6.5490 C   0  0  0  0  0  0  0  0  0  0  0  0
   -0.0330    9.5680   -8.5330 C   0  0  0  0  0  0  0  0  0  0  0  0
   -0.4690   14.0850    1.3470 C   0  0  0  0  0  0  0  0  0  0  0  0
   -2.7800   14.4120    0.7660 C   0  0  0  0  0  0  0  0  0  0  0  0
   -1.8370    7.9950   -7.5960 C   0  0  0  0  0  0  0  0  0  0  0  0
   -1.1900    8.6040   -8.8400 C   0  0  0  0  0  0  0  0  0  0  0  0
   -1.7970   14.4550    1.8340 N   0  0  0  0  0  0  0  0  0  0  0  0
  2  1  1  1
  2  3  1  0
  2  4  1  0
  3  5  1  0
  4  6  1  0
  5  7  1  6
  6  8  1  0
  6  9  1  0
  5 10  1  0
  8 11  1  6
  9 12  1  6
  8 13  1  0
  9 14  1  0
 13 14  1  0
 10 15  1  0
 10 16  1  1
 15 17  1  6
 13 18  1  1
 14 19  1  6
 16 20  1  0
 15 21  1  0
 18 22  1  0
 19 23  1  0
 22 23  1  0
 20 24  1  0
 21 24  1  0
M  CHG  2   1  -1   7  -1
M  END
