ucsf392-ucsf385
     RDKit          3D

 12 12  0  0  0  0  0  0  0  0999 V2000
   -5.2970   15.1100   -0.8560 C   0  0  0  0  0  0  0  0  0  0  0  0
   -3.8430   15.3620   -0.4690 C   0  0  2  0  0  0  0  0  0  0  0  0
   -2.8990   14.7850   -1.5030 C   0  0  0  0  0  0  0  0  0  0  0  0
   -3.5080   14.8450    0.9240 C   0  0  2  0  0  0  0  0  0  0  0  0
   -4.2980   15.4910    1.9470 N   0  0  0  0  0  0  0  0  0  0  0  0
   -2.1330   15.0310    1.2790 N   0  0  0  0  0  0  0  0  0  0  0  0
   -1.5020   14.8610   -1.1030 N   0  0  0  0  0  0  0  0  0  0  0  0
   -0.5450   14.7600   -2.1980 C   0  0  1  0  0  0  0  0  0  0  0  0
   -1.1610   14.5450    0.2900 C   0  0  1  0  0  0  0  0  0  0  0  0
    0.1410   15.2170    0.6810 C   0  0  0  0  0  0  0  0  0  0  0  0
    0.3980   13.7350   -2.0450 O   0  0  0  0  0  0  0  0  0  0  0  0
   -1.1750   14.3870   -3.2840 O   0  0  0  0  0  0  0  0  0  0  0  0
  2  1  1  6
  2  3  1  0
  2  4  1  0
  4  5  1  1
  4  6  1  0
  3  7  1  0
  7  8  1  0
  6  9  1  0
  7  9  1  0
  9 10  1  1
  8 11  1  1
  8 12  1  0
M  CHG  1  12  -1
M  END
