ucsf110-ucsf367
     RDKit          3D

 24 26  0  0  0  0  0  0  0  0999 V2000
   -0.2940   16.4350   -2.7500 C   0  0  0  0  0  0  0  0  0  0  0  0
   -0.9920   15.1120   -2.5490 C   0  0  1  0  0  0  0  0  0  0  0  0
   -2.5040   15.1760   -2.9400 C   0  0  0  0  0  0  0  0  0  0  0  0
   -0.1770   14.1720   -3.4330 C   0  0  0  0  0  0  0  0  0  0  0  0
   -1.0440   14.6620   -1.0670 C   0  0  2  0  0  0  0  0  0  0  0  0
    1.2050   13.8320   -2.8430 C   0  0  0  0  0  0  0  0  0  0  0  0
   -3.2660   15.3700   -1.6170 C   0  0  0  0  0  0  0  0  0  0  0  0
   -2.5010   14.4830   -0.6450 C   0  0  2  0  0  0  0  0  0  0  0  0
   -0.2060   15.3080   -0.1030 N   0  0  0  0  0  0  0  0  0  0  0  0
    1.1890   12.5310   -2.2610 O   0  0  0  0  0  0  0  0  0  0  0  0
   -2.7480   14.5530    0.8790 C   0  0  2  0  0  0  0  0  0  0  0  0
   -0.3390   14.5940    1.1270 C   0  0  0  0  0  0  0  0  0  0  0  0
   -3.8560   15.3070    1.3990 N   0  0  0  0  0  0  0  0  0  0  0  0
    0.3930   11.6470   -3.0640 C   0  0  2  0  0  0  0  0  0  0  0  0
   -1.6180   14.9740    1.6590 N   0  0  0  0  0  0  0  0  0  0  0  0
    0.6230   10.3720   -2.7180 O   0  0  0  0  0  0  0  0  0  0  0  0
    0.9080   12.0980   -4.5080 C   0  0  0  0  0  0  0  0  0  0  0  0
    0.6070   11.3400   -5.6840 O   0  0  0  0  0  0  0  0  0  0  0  0
   -0.4620   10.4260   -5.5410 C   0  0  0  0  0  0  0  0  0  0  0  0
   -0.5390    9.5780   -6.8110 C   0  0  0  0  0  0  0  0  0  0  0  0
   -1.7640   11.1860   -5.3410 C   0  0  0  0  0  0  0  0  0  0  0  0
   -1.6980    8.5890   -6.7790 C   0  0  0  0  0  0  0  0  0  0  0  0
   -2.9560   10.2350   -5.2820 C   0  0  0  0  0  0  0  0  0  0  0  0
   -3.0300    9.2390   -6.4430 C   0  0  0  0  0  0  0  0  0  0  0  0
  2  1  1  1
  2  3  1  0
  2  4  1  0
  2  5  1  0
  4  6  1  0
  3  7  1  0
  5  8  1  0
  8  7  1  6
  5  9  1  1
  6 10  1  0
  8 11  1  0
  9 12  1  0
 11 13  1  6
 10 14  1  0
 11 15  1  0
 12 15  1  0
 14 16  1  1
 14 17  1  0
 17 18  1  0
 18 19  1  0
 19 20  1  0
 19 21  1  0
 20 22  1  0
 21 23  1  0
 22 24  1  0
 23 24  1  0
M  CHG  1  16  -1
M  END
