ucsf039-ucsf213
     RDKit          3D

 25 28  0  0  0  0  0  0  0  0999 V2000
   -4.7260   15.2470    1.1090 N   0  0  0  0  0  0  0  0  0  0  0  0
   -3.6650   14.8400    0.2030 C   0  0  2  0  0  0  0  0  0  0  0  0
   -2.2950   15.3220    0.6820 C   0  0  2  0  0  0  0  0  0  0  0  0
   -4.0290   15.3460   -1.1060 N   0  0  0  0  0  0  0  0  0  0  0  0
   -3.0770   14.9800   -2.1500 C   0  0  0  0  0  0  0  0  0  0  0  0
   -1.4100   15.5350   -0.5370 C   0  0  2  0  0  0  0  0  0  0  0  0
   -1.5660   14.4440    1.5940 N   0  0  0  0  0  0  0  0  0  0  0  0
   -1.7530   14.6300   -1.5860 N   0  0  0  0  0  0  0  0  0  0  0  0
   -0.0760   15.3370    0.0050 N   0  0  0  0  0  0  0  0  0  0  0  0
   -0.2020   14.4150    1.1100 C   0  0  0  0  0  0  0  0  0  0  0  0
   -0.7420   14.6620   -2.6180 C   0  0  0  0  0  0  0  0  0  0  0  0
   -0.7920   15.9360   -3.4530 C   0  0  1  0  0  0  0  0  0  0  0  0
    0.3520   16.8590   -3.1920 C   0  0  0  0  0  0  0  0  0  0  0  0
   -0.6480   15.8070   -4.9320 C   0  0  1  0  0  0  0  0  0  0  0  0
   -1.1870   17.2600   -5.2140 C   0  0  1  0  0  0  0  0  0  0  0  0
    0.2350   18.1320   -4.4730 S   0  0  0  0  0  0  0  0  0  0  0  0
    0.8380   15.7140   -5.2560 C   0  0  0  0  0  0  0  0  0  0  0  0
   -1.3390   14.1260   -5.2920 S   0  0  0  0  0  0  0  0  0  0  0  0
   -1.4810   17.9370   -6.5440 C   0  0  0  0  0  0  0  0  0  0  0  0
    0.2690   13.2670   -4.8860 C   0  0  1  0  0  0  0  0  0  0  0  0
    1.3110   14.2590   -5.3310 C   0  0  0  0  0  0  0  0  0  0  0  0
    0.7940   12.6160   -3.5590 C   0  0  0  0  0  0  0  0  0  0  0  0
   -0.0090   11.8140   -2.5020 C   0  0  1  0  0  0  0  0  0  0  0  0
    0.3920   10.5570   -2.3450 O   0  0  0  0  0  0  0  0  0  0  0  0
    0.3800   12.3510   -1.2510 O   0  0  0  0  0  0  0  0  0  0  0  0
  2  1  1  1
  2  3  1  0
  2  4  1  0
  4  5  1  0
  3  6  1  0
  3  7  1  1
  5  8  1  0
  6  8  1  0
  6  9  1  1
  7 10  1  0
  9 10  1  0
  8 11  1  0
 12 11  1  1
 12 13  1  0
 12 14  1  0
 14 15  1  0
 13 16  1  0
 15 16  1  0
 14 17  1  1
 14 18  1  0
 15 19  1  6
 18 20  1  0
 17 21  1  0
 20 21  1  0
 20 22  1  1
 22 23  1  0
 23 24  1  1
 23 25  1  0
M  CHG  1  24  -1
M  END
