ucsf115-ucsf247
     RDKit          3D

 22 25  0  0  0  0  0  0  0  0999 V2000
   -0.9160   14.2920   -3.4410 C   0  0  1  0  0  0  0  0  0  0  0  0
   -1.9230   14.3670   -2.3080 N   0  0  0  0  0  0  0  0  0  0  0  0
   -3.3480   14.6660   -2.5210 C   0  0  2  0  0  0  0  0  0  0  0  0
    0.4660   15.0160   -3.0850 C   0  0  1  0  0  0  0  0  0  0  0  0
   -0.4420   12.8250   -3.8160 C   0  0  2  0  0  0  0  0  0  0  0  0
    0.9360   14.6500   -1.9070 O   0  0  0  0  0  0  0  0  0  0  0  0
    1.5180   14.5760   -3.9250 O   0  0  0  0  0  0  0  0  0  0  0  0
   -1.4550   11.8170   -3.9860 O   0  0  0  0  0  0  0  0  0  0  0  0
    0.6240   12.2270   -2.8870 C   0  0  0  0  0  0  0  0  0  0  0  0
   -1.4850   15.1670   -1.1890 C   0  0  2  0  0  0  0  0  0  0  0  0
   -3.5480   15.5430   -3.6110 O   0  0  0  0  0  0  0  0  0  0  0  0
    0.0610   10.9090   -2.4600 C   0  0  0  0  0  0  0  0  0  0  0  0
   -0.9000   10.5800   -3.5600 C   0  0  0  0  0  0  0  0  0  0  0  0
   -0.6400   14.4290   -0.2690 N   0  0  0  0  0  0  0  0  0  0  0  0
   -2.7560   15.5060   -0.4690 C   0  0  1  0  0  0  0  0  0  0  0  0
   -3.9340   15.3700   -1.3470 N   0  0  0  0  0  0  0  0  0  0  0  0
   -0.7140   14.8850    1.1010 C   0  0  0  0  0  0  0  0  0  0  0  0
   -2.9710   14.4740    0.5670 C   0  0  1  0  0  0  0  0  0  0  0  0
   -4.8660   14.5540   -0.5240 C   0  0  2  0  0  0  0  0  0  0  0  0
   -6.1660   15.1300   -0.5220 O   0  0  0  0  0  0  0  0  0  0  0  0
   -2.0330   14.5210    1.6440 N   0  0  0  0  0  0  0  0  0  0  0  0
   -4.3740   14.5870    0.8470 N   0  0  0  0  0  0  0  0  0  0  0  0
  1  2  1  1
  2  3  1  0
  1  4  1  0
  1  5  1  0
  4  6  1  1
  4  7  1  0
  5  8  1  0
  5  9  1  1
  2 10  1  0
  3 11  1  6
  9 12  1  0
  8 13  1  0
 12 13  1  0
 10 14  1  1
 10 15  1  0
  3 16  1  0
 15 16  1  6
 14 17  1  0
 15 18  1  0
 16 19  1  0
 19 20  1  1
 17 21  1  0
 18 21  1  1
 18 22  1  0
 19 22  1  0
M  CHG  1   6  -1
M  END
