ucsf030-ucsf274
     RDKit          3D

 33 37  0  0  0  0  0  0  0  0999 V2000
   -4.2680   14.0740   -0.9930 Cl  0  0  0  0  0  0  0  0  0  0  0  0
   -3.1640   15.3780   -0.4690 C   0  0  1  0  0  0  0  0  0  0  0  0
   -2.9270   15.4220    1.0330 C   0  0  1  0  0  0  0  0  0  0  0  0
   -1.7360   15.3910   -1.0240 C   0  0  1  0  0  0  0  0  0  0  0  0
   -4.1290   15.5030    1.8370 N   0  0  0  0  0  0  0  0  0  0  0  0
   -0.7960   14.4190   -0.4470 N   0  0  0  0  0  0  0  0  0  0  0  0
   -2.0360   14.4280    1.5930 N   0  0  0  0  0  0  0  0  0  0  0  0
   -1.5830   15.4270   -2.4530 N   0  0  0  0  0  0  0  0  0  0  0  0
   -0.7180   14.4060    0.9940 C   0  0  0  0  0  0  0  0  0  0  0  0
   -0.6380   16.3830   -2.9850 C   0  0  0  0  0  0  0  0  0  0  0  0
   -2.7360   15.3140   -3.3220 C   0  0  0  0  0  0  0  0  0  0  0  0
    0.0950   15.5420   -3.9660 C   0  0  2  0  0  0  0  0  0  0  0  0
   -2.2550   14.8060   -4.6890 C   0  0  0  0  0  0  0  0  0  0  0  0
    0.7920   14.2890   -3.3410 C   0  0  1  0  0  0  0  0  0  0  0  0
    1.4530   16.0530   -4.4270 C   0  0  0  0  0  0  0  0  0  0  0  0
   -0.8500   15.2620   -5.1310 C   0  0  0  0  0  0  0  0  0  0  0  0
    0.3070   12.8510   -3.5610 C   0  0  2  0  0  0  0  0  0  0  0  0
    2.1180   14.7420   -3.9640 C   0  0  0  0  0  0  0  0  0  0  0  0
    0.9910   11.9040   -2.5060 C   0  0  2  0  0  0  0  0  0  0  0  0
    0.5000   12.4360   -5.0370 C   0  0  0  0  0  0  0  0  0  0  0  0
    0.4330   10.6890   -2.4310 O   0  0  0  0  0  0  0  0  0  0  0  0
    0.6930   12.3920   -1.2270 O   0  0  0  0  0  0  0  0  0  0  0  0
   -0.8220   12.0240   -5.6890 C   0  0  2  0  0  0  0  0  0  0  0  0
   -1.7790   11.2380   -4.7310 C   0  0  1  0  0  0  0  0  0  0  0  0
   -0.5300   11.3390   -7.0010 N   0  0  0  0  0  0  0  0  0  0  0  0
   -2.5980   12.0860   -3.9650 O   0  0  0  0  0  0  0  0  0  0  0  0
   -2.6750   10.4060   -5.5040 N   0  0  0  0  0  0  0  0  0  0  0  0
   -0.5970    9.8700   -6.8340 C   0  0  1  0  0  0  0  0  0  0  0  0
   -1.8940    9.3520   -6.1400 C   0  0  2  0  0  0  0  0  0  0  0  0
   -0.3380    9.1660   -8.1600 C   0  0  0  0  0  0  0  0  0  0  0  0
   -0.7180    7.6970   -8.1310 C   0  0  0  0  0  0  0  0  0  0  0  0
   -2.8450    8.6410   -7.0940 C   0  0  0  0  0  0  0  0  0  0  0  0
   -2.2020    7.4820   -7.8460 C   0  0  0  0  0  0  0  0  0  0  0  0
  2  1  1  1
  2  3  1  0
  2  4  1  0
  3  5  1  1
  4  6  1  0
  3  7  1  0
  4  8  1  6
  6  9  1  0
  7  9  1  0
  8 10  1  0
  8 11  1  0
 12 10  1  1
 11 13  1  0
 12 14  1  0
 12 15  1  0
 12 16  1  0
 13 16  1  0
 14 17  1  0
 14 18  1  6
 15 18  1  0
 17 19  1  0
 17 20  1  6
 19 21  1  1
 19 22  1  0
 23 20  1  1
 23 24  1  0
 23 25  1  0
 24 26  1  6
 24 27  1  0
 25 28  1  0
 27 29  1  0
 28 29  1  0
 28 30  1  6
 30 31  1  0
 29 32  1  6
 31 33  1  0
 32 33  1  0
M  CHG  1  21  -1
M  END
