ucsf412-ucsf213
     RDKit          3D

 26 29  0  0  0  0  0  0  0  0999 V2000
   -8.3890   14.7730    0.3190 O   0  0  0  0  0  0  0  0  0  0  0  0
   -7.0990   14.4140    0.7780 C   0  0  2  0  0  0  0  0  0  0  0  0
   -6.9570   14.8860    2.1350 N   0  0  0  0  0  0  0  0  0  0  0  0
   -6.0740   15.0030   -0.2050 C   0  0  1  0  0  0  0  0  0  0  0  0
   -4.6950   15.2840    0.4190 C   0  0  1  0  0  0  0  0  0  0  0  0
   -5.6030   14.7350    2.6930 C   0  0  0  0  0  0  0  0  0  0  0  0
   -6.0220   14.0360   -1.3690 C   0  0  0  0  0  0  0  0  0  0  0  0
   -4.4950   14.4290    1.6690 C   0  0  0  0  0  0  0  0  0  0  0  0
   -3.5490   15.3150   -0.5850 C   0  0  0  0  0  0  0  0  0  0  0  0
   -5.1240   14.5570   -2.4210 C   0  0  0  0  0  0  0  0  0  0  0  0
   -3.7050   14.5780   -1.9140 C   0  0  1  0  0  0  0  0  0  0  0  0
   -3.0300   15.2500   -3.0800 C   0  0  0  0  0  0  0  0  0  0  0  0
   -1.5520   14.9790   -3.2200 C   0  0  0  0  0  0  0  0  0  0  0  0
   -1.0250   15.5220   -4.5510 C   0  0  1  0  0  0  0  0  0  0  0  0
    0.3210   16.2360   -4.3180 C   0  0  1  0  0  0  0  0  0  0  0  0
   -0.6280   13.9520   -5.3940 S   0  0  0  0  0  0  0  0  0  0  0  0
   -2.1180   16.3930   -5.2520 C   0  0  0  0  0  0  0  0  0  0  0  0
    1.0760   13.8060   -4.7180 C   0  0  1  0  0  0  0  0  0  0  0  0
    1.3770   15.1460   -4.0380 C   0  0  0  0  0  0  0  0  0  0  0  0
    0.7460   17.3170   -5.3310 C   0  0  0  0  0  0  0  0  0  0  0  0
   -1.7600   17.8570   -5.5210 C   0  0  0  0  0  0  0  0  0  0  0  0
    1.3350   12.5180   -3.8640 C   0  0  0  0  0  0  0  0  0  0  0  0
   -0.3500   18.1020   -6.0350 C   0  0  0  0  0  0  0  0  0  0  0  0
    0.4130   12.0710   -2.6770 C   0  0  1  0  0  0  0  0  0  0  0  0
    0.5330   10.7710   -2.3870 O   0  0  0  0  0  0  0  0  0  0  0  0
    0.7810   12.6460   -1.4400 O   0  0  0  0  0  0  0  0  0  0  0  0
  2  1  1  6
  2  3  1  0
  2  4  1  0
  4  5  1  0
  3  6  1  0
  4  7  1  6
  5  8  1  1
  6  8  1  0
  5  9  1  0
  7 10  1  0
  9 11  1  0
 10 11  1  0
 11 12  1  6
 12 13  1  0
 14 13  1  1
 14 15  1  0
 14 16  1  0
 14 17  1  0
 16 18  1  0
 15 19  1  6
 18 19  1  0
 15 20  1  0
 17 21  1  0
 18 22  1  1
 20 23  1  0
 21 23  1  0
 22 24  1  0
 24 25  1  1
 24 26  1  0
M  CHG  1  25  -1
M  END
