ucsf264-ucsf320
     RDKit          3D

 28 30  0  0  0  0  0  0  0  0999 V2000
    1.5580   12.5820   -2.6540 O   0  0  0  0  0  0  0  0  0  0  0  0
    0.4330   12.2430   -3.2540 C   0  0  2  0  0  0  0  0  0  0  0  0
    0.4390   10.8100   -3.2890 O   0  0  0  0  0  0  0  0  0  0  0  0
    0.3320   12.8750   -4.7510 C   0  0  2  0  0  0  0  0  0  0  0  0
   -0.9420   13.8200   -4.7660 C   0  0  0  0  0  0  0  0  0  0  0  0
    0.3400   11.7300   -5.7650 N   0  0  0  0  0  0  0  0  0  0  0  0
   -1.7810   13.7070   -3.5750 O   0  0  0  0  0  0  0  0  0  0  0  0
    1.1830   11.7640   -7.0000 N   0  0  0  0  0  0  0  0  0  0  0  0
   -0.9110   11.1450   -6.2370 C   0  0  1  0  0  0  0  0  0  0  0  0
   -1.8420   14.9000   -2.7760 C   0  0  2  0  0  0  0  0  0  0  0  0
    0.8990   10.4830   -7.7280 C   0  0  1  0  0  0  0  0  0  0  0  0
   -0.3990    9.9730   -7.0630 C   0  0  2  0  0  0  0  0  0  0  0  0
   -2.0850   10.7490   -5.3260 C   0  0  0  0  0  0  0  0  0  0  0  0
    0.9190   10.3590   -9.2600 C   0  0  0  0  0  0  0  0  0  0  0  0
   -0.9820   14.7330   -1.7890 O   0  0  0  0  0  0  0  0  0  0  0  0
   -1.4770    9.4070   -7.9630 C   0  0  0  0  0  0  0  0  0  0  0  0
   -2.5400    9.3100   -5.6110 C   0  0  0  0  0  0  0  0  0  0  0  0
   -3.2740   15.0930   -2.1170 C   0  0  2  0  0  0  0  0  0  0  0  0
    1.5260    9.1910   -9.6020 F   0  0  0  0  0  0  0  0  0  0  0  0
   -0.2650   10.3820   -9.8840 F   0  0  0  0  0  0  0  0  0  0  0  0
    1.6540   11.3040   -9.8820 F   0  0  0  0  0  0  0  0  0  0  0  0
   -2.6520    8.9410   -7.0980 C   0  0  0  0  0  0  0  0  0  0  0  0
   -3.3670   14.4620   -0.7140 C   0  0  0  0  0  0  0  0  0  0  0  0
   -4.4290   14.6000   -2.9900 C   0  0  0  0  0  0  0  0  0  0  0  0
   -4.6630   14.8420    0.0040 C   0  0  0  0  0  0  0  0  0  0  0  0
   -5.7930   14.7910   -2.3210 C   0  0  0  0  0  0  0  0  0  0  0  0
   -5.7510   15.3950   -0.9170 C   0  0  1  0  0  0  0  0  0  0  0  0
   -7.0230   15.1410   -0.3050 O   0  0  0  0  0  0  0  0  0  0  0  0
  2  1  1  6
  2  3  1  0
  2  4  1  0
  4  5  1  1
  4  6  1  0
  5  7  1  0
  6  8  1  0
  6  9  1  0
  7 10  1  0
  8 11  1  0
  9 12  1  0
 11 12  1  0
  9 13  1  1
 11 14  1  6
 10 15  1  1
 12 16  1  6
 13 17  1  0
 10 18  1  0
 14 19  1  0
 14 20  1  0
 14 21  1  0
 16 22  1  0
 17 22  1  0
 18 23  1  1
 18 24  1  0
 23 25  1  0
 24 26  1  0
 25 27  1  0
 26 27  1  0
 27 28  1  1
M  CHG  2   1  -1  15  -1
M  END
