ucsf367-ucsf371
     RDKit          3D

 21 22  0  0  0  0  0  0  0  0999 V2000
    0.7200   10.9550   -3.0090 O   0  0  0  0  0  0  0  0  0  0  0  0
    0.5040   12.2040   -3.3920 C   0  0  1  0  0  0  0  0  0  0  0  0
    1.3080   13.1040   -2.6220 O   0  0  0  0  0  0  0  0  0  0  0  0
    0.8940   12.4620   -4.9000 C   0  0  0  0  0  0  0  0  0  0  0  0
    0.7860   11.3230   -5.7660 O   0  0  0  0  0  0  0  0  0  0  0  0
    1.2170   14.4540   -3.0560 C   0  0  0  0  0  0  0  0  0  0  0  0
    0.0650   15.0940   -2.4700 O   0  0  0  0  0  0  0  0  0  0  0  0
   -0.5220   10.9470   -6.1860 C   0  0  0  0  0  0  0  0  0  0  0  0
   -1.0900   15.0650   -3.2950 C   0  0  1  0  0  0  0  0  0  0  0  0
   -0.4170    9.5010   -6.6970 C   0  0  0  0  0  0  0  0  0  0  0  0
   -1.5330   11.0680   -5.0380 C   0  0  0  0  0  0  0  0  0  0  0  0
   -0.8300   14.2960   -4.4620 O   0  0  0  0  0  0  0  0  0  0  0  0
   -1.7700    8.9590   -7.1130 C   0  0  0  0  0  0  0  0  0  0  0  0
   -2.8950   10.4950   -5.4040 C   0  0  0  0  0  0  0  0  0  0  0  0
   -2.3370   14.5110   -2.5690 C   0  0  2  0  0  0  0  0  0  0  0  0
   -2.7870    9.0820   -5.9820 C   0  0  0  0  0  0  0  0  0  0  0  0
   -3.6480   15.1660   -2.9760 C   0  0  0  0  0  0  0  0  0  0  0  0
   -2.3410   14.6890   -0.7440 S   0  0  0  0  0  0  0  0  0  0  0  0
   -4.1430   14.5730   -0.6670 C   0  0  2  0  0  0  0  0  0  0  0  0
   -4.7110   14.8430   -1.9950 N   0  0  0  0  0  0  0  0  0  0  0  0
   -4.6970   15.4880    0.4120 C   0  0  0  0  0  0  0  0  0  0  0  0
  2  1  1  1
  2  3  1  0
  2  4  1  0
  4  5  1  0
  3  6  1  0
  6  7  1  0
  5  8  1  0
  7  9  1  0
  8 10  1  0
  8 11  1  0
  9 12  1  6
 10 13  1  0
 11 14  1  0
  9 15  1  0
 13 16  1  0
 14 16  1  0
 15 17  1  6
 15 18  1  0
 18 19  1  0
 17 20  1  0
 19 20  1  0
 19 21  1  1
M  CHG  1   1  -1
M  END
