ucsf519-ucsf367
     RDKit          3D

 22 23  0  0  0  0  0  0  0  0999 V2000
   -0.3960   16.4540   -4.5980 C   0  0  0  0  0  0  0  0  0  0  0  0
   -0.3860   15.1140   -3.8350 C   0  0  2  0  0  0  0  0  0  0  0  0
    0.5130   13.9610   -4.9710 S   0  0  0  0  0  0  0  0  0  0  0  0
   -1.8670   14.8040   -3.3410 C   0  0  2  0  0  0  0  0  0  0  0  0
    0.2940   12.2510   -4.2780 C   0  0  2  0  0  0  0  0  0  0  0  0
   -2.7790   15.1300   -4.4060 O   0  0  0  0  0  0  0  0  0  0  0  0
   -2.4520   15.4180   -2.1450 N   0  0  0  0  0  0  0  0  0  0  0  0
    1.0350   11.8520   -2.9150 C   0  0  1  0  0  0  0  0  0  0  0  0
    0.4670   11.3790   -5.3980 O   0  0  0  0  0  0  0  0  0  0  0  0
   -3.8320   15.0590   -1.8160 C   0  0  0  0  0  0  0  0  0  0  0  0
   -1.7160   15.4260   -0.8970 C   0  0  2  0  0  0  0  0  0  0  0  0
    0.9080   12.8430   -1.9160 O   0  0  0  0  0  0  0  0  0  0  0  0
    0.5300   10.7760   -2.2730 O   0  0  0  0  0  0  0  0  0  0  0  0
   -0.4390   14.8820   -0.9440 O   0  0  0  0  0  0  0  0  0  0  0  0
   -3.8990   15.1790   -0.2970 C   0  0  0  0  0  0  0  0  0  0  0  0
   -2.5500   14.8080    0.0860 N   0  0  0  0  0  0  0  0  0  0  0  0
   -0.5350   10.3940   -5.4910 C   0  0  0  0  0  0  0  0  0  0  0  0
   -0.4830    9.7460   -6.8650 C   0  0  0  0  0  0  0  0  0  0  0  0
   -1.9170   11.0070   -5.2790 C   0  0  0  0  0  0  0  0  0  0  0  0
   -1.5390    8.6500   -6.9470 C   0  0  0  0  0  0  0  0  0  0  0  0
   -3.0350    9.9790   -5.3630 C   0  0  0  0  0  0  0  0  0  0  0  0
   -2.9560    9.1420   -6.6320 C   0  0  0  0  0  0  0  0  0  0  0  0
  2  1  1  6
  2  3  1  0
  2  4  1  0
  3  5  1  0
  4  6  1  6
  4  7  1  0
  5  8  1  0
  5  9  1  6
  7 10  1  0
  7 11  1  0
  8 12  1  1
  8 13  1  0
 11 14  1  6
 10 15  1  0
 11 16  1  0
 15 16  1  0
  9 17  1  0
 17 18  1  0
 17 19  1  0
 18 20  1  0
 19 21  1  0
 20 22  1  0
 21 22  1  0
M  CHG  1  13  -1
M  END
