ucsf340-ucsf520
     RDKit          3D

 25 28  0  0  0  0  0  0  0  0999 V2000
    0.7220   18.1310   -5.9350 C   0  0  0  0  0  0  0  0  0  0  0  0
   -0.1020   17.8620   -4.7650 N   0  0  0  0  0  0  0  0  0  0  0  0
    0.5610   17.0450   -3.7350 C   0  0  0  0  0  0  0  0  0  0  0  0
   -1.3600   17.1460   -4.9500 C   0  0  2  0  0  0  0  0  0  0  0  0
    0.1830   15.5610   -3.9920 C   0  0  2  0  0  0  0  0  0  0  0  0
   -0.8660   15.7080   -5.0600 C   0  0  1  0  0  0  0  0  0  0  0  0
   -2.2530   17.5220   -6.1240 C   0  0  0  0  0  0  0  0  0  0  0  0
   -0.2150   14.6370   -2.7810 C   0  0  2  0  0  0  0  0  0  0  0  0
   -2.0240   14.7280   -5.1080 C   0  0  0  0  0  0  0  0  0  0  0  0
   -3.3220   16.4360   -6.3100 C   0  0  0  0  0  0  0  0  0  0  0  0
   -0.1180   13.0950   -3.1320 C   0  0  0  0  0  0  0  0  0  0  0  0
   -3.3590   15.4330   -5.1900 C   0  0  0  0  0  0  0  0  0  0  0  0
   -1.3640   15.1110   -1.9200 N   0  0  0  0  0  0  0  0  0  0  0  0
    0.4840   12.1480   -2.0740 C   0  0  2  0  0  0  0  0  0  0  0  0
   -2.7580   14.9170   -2.3700 C   0  0  0  0  0  0  0  0  0  0  0  0
   -1.2170   14.5870   -0.6070 C   0  0  2  0  0  0  0  0  0  0  0  0
    1.8700   12.2780   -2.2680 O   0  0  0  0  0  0  0  0  0  0  0  0
    0.2960   10.8500   -2.3340 O   0  0  0  0  0  0  0  0  0  0  0  0
   -3.7740   15.3340   -1.3700 N   0  0  0  0  0  0  0  0  0  0  0  0
   -2.0850   15.2280    0.4190 C   0  0  1  0  0  0  0  0  0  0  0  0
    0.0590   14.8070    0.0110 N   0  0  0  0  0  0  0  0  0  0  0  0
   -3.5320   14.9520   -0.0020 C   0  0  1  0  0  0  0  0  0  0  0  0
   -1.5920   14.6140    1.6640 N   0  0  0  0  0  0  0  0  0  0  0  0
   -0.1960   14.2920    1.3360 C   0  0  0  0  0  0  0  0  0  0  0  0
   -4.5340   15.6470    0.7860 N   0  0  0  0  0  0  0  0  0  0  0  0
  1  2  1  0
  2  3  1  0
  2  4  1  0
  5  3  1  1
  4  6  1  0
  5  6  1  0
  4  7  1  6
  5  8  1  0
  6  9  1  1
  7 10  1  0
  8 11  1  6
  9 12  1  0
 10 12  1  0
  8 13  1  0
 11 14  1  0
 13 15  1  0
 13 16  1  0
 14 17  1  6
 14 18  1  0
 15 19  1  0
 16 20  1  0
 16 21  1  1
 19 22  1  0
 20 22  1  0
 20 23  1  1
 21 24  1  0
 23 24  1  0
 22 25  1  1
M  CHG  1  18  -1
M  END
