ucsf338-ucsf411
     RDKit          3D

 28 30  0  0  0  0  0  0  0  0999 V2000
   -9.0390   14.2950   -0.0130 O   0  0  0  0  0  0  0  0  0  0  0  0
   -7.6390   14.2270    0.3960 N   0  0  0  0  0  0  0  0  0  0  0  0
   -6.8050   14.9720   -0.5330 C   0  0  2  0  0  0  0  0  0  0  0  0
   -6.9470   14.4370   -1.8270 O   0  0  0  0  0  0  0  0  0  0  0  0
   -5.3110   15.2550   -0.1660 C   0  0  2  0  0  0  0  0  0  0  0  0
   -4.2410   14.6520   -1.0910 C   0  0  1  0  0  0  0  0  0  0  0  0
   -4.9680   14.8880    1.2840 C   0  0  0  0  0  0  0  0  0  0  0  0
   -4.6190   14.9040   -2.4490 O   0  0  0  0  0  0  0  0  0  0  0  0
   -2.9010   15.3560   -0.8920 C   0  0  0  0  0  0  0  0  0  0  0  0
   -3.4580   14.8210    1.5120 C   0  0  0  0  0  0  0  0  0  0  0  0
   -3.6950   14.4170   -3.4060 C   0  0  0  0  0  0  0  0  0  0  0  0
   -2.6980   15.7240    0.5620 C   0  0  0  0  0  0  0  0  0  0  0  0
   -3.6700   15.4340   -4.5300 C   0  0  0  0  0  0  0  0  0  0  0  0
   -2.5350   15.2520   -5.4850 C   0  0  1  0  0  0  0  0  0  0  0  0
   -1.3410   16.2440   -5.3130 C   0  0  2  0  0  0  0  0  0  0  0  0
   -2.2130   13.7670   -5.7130 C   0  0  0  0  0  0  0  0  0  0  0  0
    0.0500   15.6360   -5.0000 C   0  0  2  0  0  0  0  0  0  0  0  0
   -0.8070   13.3280   -5.2660 C   0  0  0  0  0  0  0  0  0  0  0  0
   -1.4560   17.5970   -4.7090 C   0  0  0  0  0  0  0  0  0  0  0  0
   -0.1060   14.2790   -4.2860 C   0  0  1  0  0  0  0  0  0  0  0  0
   -0.4440   18.4350   -5.4400 C   0  0  0  0  0  0  0  0  0  0  0  0
    0.9200   16.6540   -4.2780 C   0  0  0  0  0  0  0  0  0  0  0  0
    1.2130   13.8340   -3.9360 O   0  0  0  0  0  0  0  0  0  0  0  0
    0.9620   17.9890   -5.0270 C   0  0  0  0  0  0  0  0  0  0  0  0
    1.4520   12.4130   -3.6830 C   0  0  0  0  0  0  0  0  0  0  0  0
    0.3870   11.8670   -2.6400 C   0  0  1  0  0  0  0  0  0  0  0  0
    0.5710   10.5680   -2.3880 O   0  0  0  0  0  0  0  0  0  0  0  0
    0.6000   12.5060   -1.3650 O   0  0  0  0  0  0  0  0  0  0  0  0
  1  2  1  0
  2  3  1  0
  3  4  1  6
  3  5  1  0
  5  6  1  0
  5  7  1  1
  6  8  1  6
  6  9  1  0
  7 10  1  0
  8 11  1  0
  9 12  1  0
 10 12  1  0
 11 13  1  0
 14 13  1  1
 14 15  1  0
 14 16  1  0
 15 17  1  0
 16 18  1  0
 15 19  1  1
 17 20  1  0
 18 20  1  0
 19 21  1  0
 17 22  1  1
 20 23  1  6
 21 24  1  0
 22 24  1  0
 23 25  1  0
 25 26  1  0
 26 27  1  1
 26 28  1  0
M  CHG  1  27  -1
M  END
