ucsf487-ucsf138
     RDKit          3D

 28 30  0  0  0  0  0  0  0  0999 V2000
   -7.2350   13.6650    2.7450 N   0  0  0  0  0  0  0  0  0  0  0  0
   -7.1000   14.5680    1.6090 C   0  0  2  0  0  0  0  0  0  0  0  0
   -7.7720   14.0060    0.3480 C   0  0  0  0  0  0  0  0  0  0  0  0
   -5.6280   14.9340    1.3040 C   0  0  0  0  0  0  0  0  0  0  0  0
   -5.0130   14.1090    0.2030 C   0  0  1  0  0  0  0  0  0  0  0  0
   -7.2370   14.5230   -0.9160 N   0  0  0  0  0  0  0  0  0  0  0  0
   -5.8010   14.2810   -1.1160 C   0  0  1  0  0  0  0  0  0  0  0  0
   -3.5480   14.5690    0.1040 C   0  0  0  0  0  0  0  0  0  0  0  0
   -5.1990   15.3490   -2.0160 C   0  0  0  0  0  0  0  0  0  0  0  0
   -2.9570   14.2960   -1.2760 C   0  0  2  0  0  0  0  0  0  0  0  0
   -1.4390   14.5800   -1.3070 C   0  0  0  0  0  0  0  0  0  0  0  0
   -3.7320   15.0840   -2.3580 C   0  0  0  0  0  0  0  0  0  0  0  0
   -0.5300   13.3780   -1.0580 C   0  0  0  0  0  0  0  0  0  0  0  0
    0.8610   13.6020   -1.6580 C   0  0  0  0  0  0  0  0  0  0  0  0
    1.3670   12.4050   -2.2580 O   0  0  0  0  0  0  0  0  0  0  0  0
    0.3960   11.8000   -3.1130 C   0  0  2  0  0  0  0  0  0  0  0  0
    0.3300   10.3950   -2.8180 O   0  0  0  0  0  0  0  0  0  0  0  0
    0.7270   12.0630   -4.6230 C   0  0  0  0  0  0  0  0  0  0  0  0
    0.1860   11.1310   -5.6460 N   0  0  0  0  0  0  0  0  0  0  0  0
    0.7740   11.1650   -6.9680 C   0  0  2  0  0  0  0  0  0  0  0  0
    1.3980   12.3730   -7.1190 O   0  0  0  0  0  0  0  0  0  0  0  0
   -0.2330   10.8440   -7.9360 N   0  0  0  0  0  0  0  0  0  0  0  0
    0.0560    9.7470   -8.8890 C   0  0  0  0  0  0  0  0  0  0  0  0
   -0.3260   10.1380  -10.3270 C   0  0  0  0  0  0  0  0  0  0  0  0
    1.4610    9.1930   -8.9140 C   0  0  0  0  0  0  0  0  0  0  0  0
    0.6170    9.5720  -11.4030 C   0  0  0  0  0  0  0  0  0  0  0  0
    1.6280    7.9410   -9.7640 C   0  0  0  0  0  0  0  0  0  0  0  0
    1.0310    8.1240  -11.1550 C   0  0  0  0  0  0  0  0  0  0  0  0
  2  1  1  1
  2  3  1  0
  2  4  1  0
  5  4  1  1
  3  6  1  0
  5  7  1  0
  6  7  1  0
  5  8  1  0
  7  9  1  1
  8 10  1  0
 10 11  1  1
  9 12  1  0
 10 12  1  0
 11 13  1  0
 13 14  1  0
 14 15  1  0
 15 16  1  0
 16 17  1  6
 16 18  1  0
 18 19  1  0
 19 20  1  0
 20 21  1  6
 20 22  1  0
 22 23  1  0
 23 24  1  0
 23 25  1  0
 24 26  1  0
 25 27  1  0
 26 28  1  0
 27 28  1  0
M  END
