ucsf172-ucsf520
     RDKit          3D

 23 25  0  0  0  0  0  0  0  0999 V2000
   -8.1300   15.0480    2.5480 C   0  0  0  0  0  0  0  0  0  0  0  0
   -7.0310   14.3630    1.3660 S   0  0  0  0  0  0  0  0  0  0  0  0
   -6.8610   12.8720    1.8830 O   0  0  0  0  0  0  0  0  0  0  0  0
   -7.8430   14.3230   -0.0140 O   0  0  0  0  0  0  0  0  0  0  0  0
   -5.5130   14.9240    1.1990 N   0  0  0  0  0  0  0  0  0  0  0  0
   -4.7360   14.5200    0.0260 C   0  0  2  0  0  0  0  0  0  0  0  0
   -3.3190   14.0310    0.3680 C   0  0  0  0  0  0  0  0  0  0  0  0
   -4.6880   15.6540   -0.9420 C   0  0  0  0  0  0  0  0  0  0  0  0
   -2.1110   14.6100   -0.4690 C   0  0  1  0  0  0  0  0  0  0  0  0
   -3.9990   15.1980   -2.1940 C   0  0  0  0  0  0  0  0  0  0  0  0
   -2.4760   15.0630   -1.9650 C   0  0  2  0  0  0  0  0  0  0  0  0
   -1.5640   15.6660    0.4340 N   0  0  0  0  0  0  0  0  0  0  0  0
   -0.9160   13.6310   -0.4650 C   0  0  0  0  0  0  0  0  0  0  0  0
   -1.9120   14.1950   -3.1630 C   0  0  2  0  0  0  0  0  0  0  0  0
    0.2550   14.5020   -0.3000 N   0  0  0  0  0  0  0  0  0  0  0  0
   -0.2350   15.2480    0.8280 C   0  0  0  0  0  0  0  0  0  0  0  0
   -0.4950   14.3900   -3.2070 O   0  0  0  0  0  0  0  0  0  0  0  0
   -2.3670   14.6780   -4.3090 O   0  0  0  0  0  0  0  0  0  0  0  0
   -0.1520   15.7110   -3.6220 C   0  0  2  0  0  0  0  0  0  0  0  0
   -1.3020   16.4260   -4.1410 O   0  0  0  0  0  0  0  0  0  0  0  0
    0.7950   15.6650   -4.8030 C   0  0  0  0  0  0  0  0  0  0  0  0
    0.6840   17.0970   -5.2780 C   0  0  0  0  0  0  0  0  0  0  0  0
   -0.7690   17.4270   -5.0190 C   0  0  0  0  0  0  0  0  0  0  0  0
  1  2  1  0
  2  3  1  0
  2  4  1  0
  2  5  1  0
  6  5  1  1
  6  7  1  0
  6  8  1  0
  9  7  1  1
  8 10  1  0
  9 11  1  0
 11 10  1  1
  9 12  1  0
  9 13  1  0
 11 14  1  0
 13 15  1  0
 12 16  1  0
 15 16  1  0
 14 17  1  0
 14 18  1  6
 19 17  1  6
 19 20  1  0
 19 21  1  0
 21 22  1  0
 20 23  1  0
 22 23  1  0
M  CHG  1  18  -1
M  END
