ucsf006-ucsf039
     RDKit          3D

 22 24  0  0  0  0  0  0  0  0999 V2000
   -2.3680   14.3610   -3.8380 C   0  0  0  0  0  0  0  0  0  0  0  0
   -1.0970   14.8750   -3.1290 C   0  0  2  0  0  0  0  0  0  0  0  0
    0.1300   13.9690   -3.5080 C   0  0  0  0  0  0  0  0  0  0  0  0
   -1.2360   14.6560   -1.5220 C   0  0  2  0  0  0  0  0  0  0  0  0
   -0.6090   16.1000   -4.0520 C   0  0  2  0  0  0  0  0  0  0  0  0
    0.7810   14.0960   -4.8850 C   0  0  0  0  0  0  0  0  0  0  0  0
   -2.5220   14.5770   -0.6370 C   0  0  1  0  0  0  0  0  0  0  0  0
   -0.1290   15.2210   -0.7360 N   0  0  0  0  0  0  0  0  0  0  0  0
    0.6770   16.8750   -3.8320 C   0  0  0  0  0  0  0  0  0  0  0  0
   -1.6200   17.0270   -4.5820 N   0  0  0  0  0  0  0  0  0  0  0  0
    1.2820   12.7030   -5.2320 C   0  0  2  0  0  0  0  0  0  0  0  0
   -2.3660   14.6320    0.8790 C   0  0  1  0  0  0  0  0  0  0  0  0
   -0.0250   14.9060    0.6540 C   0  0  0  0  0  0  0  0  0  0  0  0
   -3.8040   15.3120   -0.9480 C   0  0  0  0  0  0  0  0  0  0  0  0
   -0.9720   17.7810   -5.6600 C   0  0  2  0  0  0  0  0  0  0  0  0
    0.8150   17.8680   -5.3420 S   0  0  0  0  0  0  0  0  0  0  0  0
    0.1650   11.9180   -5.6010 O   0  0  0  0  0  0  0  0  0  0  0  0
    1.6660   12.1450   -4.1020 O   0  0  0  0  0  0  0  0  0  0  0  0
   -1.5670   19.1590   -5.8720 C   0  0  0  0  0  0  0  0  0  0  0  0
   -1.2130   15.3060    1.3520 N   0  0  0  0  0  0  0  0  0  0  0  0
   -3.5340   15.2720    1.4460 N   0  0  0  0  0  0  0  0  0  0  0  0
   -4.5020   15.5160    0.3780 C   0  0  0  0  0  0  0  0  0  0  0  0
  2  1  1  6
  2  3  1  0
  2  4  1  0
  2  5  1  0
  3  6  1  0
  4  7  1  0
  4  8  1  1
  5  9  1  1
  5 10  1  0
  6 11  1  0
  7 12  1  0
  8 13  1  0
  7 14  1  6
 10 15  1  0
  9 16  1  0
 15 16  1  0
 11 17  1  1
 11 18  1  0
 15 19  1  1
 12 20  1  6
 13 20  1  0
 12 21  1  0
 14 22  1  0
 21 22  1  0
M  CHG  1  18  -1
M  END
