ucsf213-ucsf124
     RDKit          3D

 24 27  0  0  0  0  0  0  0  0999 V2000
    0.2990   10.8650   -2.1950 O   0  0  0  0  0  0  0  0  0  0  0  0
    0.9470   11.9900   -2.5480 C   0  0  2  0  0  0  0  0  0  0  0  0
    0.2810   12.9590   -1.7650 O   0  0  0  0  0  0  0  0  0  0  0  0
    0.9230   12.3550   -4.1240 C   0  0  2  0  0  0  0  0  0  0  0  0
    0.3630   13.7800   -4.5110 C   0  0  2  0  0  0  0  0  0  0  0  0
    0.4160   11.3330   -5.1100 N   0  0  0  0  0  0  0  0  0  0  0  0
    1.1690   15.0720   -4.2060 C   0  0  0  0  0  0  0  0  0  0  0  0
   -1.3280   14.2050   -3.8930 S   0  0  0  0  0  0  0  0  0  0  0  0
   -0.9280   10.7740   -4.9790 C   0  0  1  0  0  0  0  0  0  0  0  0
    0.8030   11.4340   -6.5220 C   0  0  2  0  0  0  0  0  0  0  0  0
   -1.7930   11.6790   -4.3440 O   0  0  0  0  0  0  0  0  0  0  0  0
    0.7660   12.7380   -6.9540 O   0  0  0  0  0  0  0  0  0  0  0  0
    0.1990   16.2670   -4.3120 C   0  0  2  0  0  0  0  0  0  0  0  0
   -1.0700   15.6720   -4.8860 C   0  0  2  0  0  0  0  0  0  0  0  0
   -1.4420   10.4630   -6.3990 C   0  0  1  0  0  0  0  0  0  0  0  0
   -0.2300   10.6080   -7.3060 C   0  0  2  0  0  0  0  0  0  0  0  0
    0.6370   17.4860   -5.1100 C   0  0  0  0  0  0  0  0  0  0  0  0
   -2.2700   16.6030   -5.0880 C   0  0  0  0  0  0  0  0  0  0  0  0
   -2.0060    9.0310   -6.4420 C   0  0  0  0  0  0  0  0  0  0  0  0
    0.2490    9.2950   -7.9280 C   0  0  0  0  0  0  0  0  0  0  0  0
   -0.5410   18.4570   -5.2840 C   0  0  0  0  0  0  0  0  0  0  0  0
   -1.8240   17.8520   -5.8500 C   0  0  0  0  0  0  0  0  0  0  0  0
   -2.1610    8.4870   -7.8590 C   0  0  0  0  0  0  0  0  0  0  0  0
   -0.8470    8.5070   -8.6390 C   0  0  0  0  0  0  0  0  0  0  0  0
  2  1  1  6
  2  3  1  0
  2  4  1  0
  4  5  1  0
  4  6  1  6
  5  7  1  1
  5  8  1  0
  6  9  1  0
  6 10  1  0
  9 11  1  6
 10 12  1  6
 13  7  1  6
  8 14  1  0
 13 14  1  0
  9 15  1  0
 10 16  1  0
 15 16  1  0
 13 17  1  0
 14 18  1  1
 15 19  1  1
 16 20  1  1
 17 21  1  0
 18 22  1  0
 21 22  1  0
 19 23  1  0
 20 24  1  0
 23 24  1  0
M  CHG  1   1  -1
M  END
