ucsf262-ucsf348
     RDKit          3D

 27 30  0  0  0  0  0  0  0  0999 V2000
   -3.1200   15.7490   -5.6890 Cl  0  0  0  0  0  0  0  0  0  0  0  0
   -1.8370   16.7730   -4.9680 C   0  0  1  0  0  0  0  0  0  0  0  0
   -0.4710   16.1230   -4.9010 C   0  0  2  0  0  0  0  0  0  0  0  0
   -1.7330   18.1220   -5.7150 C   0  0  0  0  0  0  0  0  0  0  0  0
   -0.2290   14.8440   -4.0990 C   0  0  0  0  0  0  0  0  0  0  0  0
    0.5670   17.1040   -4.4330 C   0  0  1  0  0  0  0  0  0  0  0  0
   -0.3680   18.4720   -6.3540 C   0  0  0  0  0  0  0  0  0  0  0  0
    0.9800   15.2030   -3.2210 C   0  0  2  0  0  0  0  0  0  0  0  0
    1.6600   16.2670   -3.9970 N   0  0  0  0  0  0  0  0  0  0  0  0
    0.8910   18.0700   -5.5610 C   0  0  0  0  0  0  0  0  0  0  0  0
    1.9470   13.9890   -2.8610 C   0  0  1  0  0  0  0  0  0  0  0  0
    3.0610   14.4100   -2.2510 O   0  0  0  0  0  0  0  0  0  0  0  0
    1.2070   13.1670   -1.9230 O   0  0  0  0  0  0  0  0  0  0  0  0
    0.5950   13.8990   -0.8560 C   0  0  0  0  0  0  0  0  0  0  0  0
   -0.9120   13.7050   -0.8500 C   0  0  0  0  0  0  0  0  0  0  0  0
   -1.7040   14.9940   -0.5960 C   0  0  2  0  0  0  0  0  0  0  0  0
   -2.6160   14.7710    0.6390 C   0  0  0  0  0  0  0  0  0  0  0  0
   -2.4510   15.4050   -1.8690 C   0  0  0  0  0  0  0  0  0  0  0  0
   -4.1140   15.1880    0.5810 C   0  0  1  0  0  0  0  0  0  0  0  0
   -3.8880   14.9220   -1.9310 C   0  0  0  0  0  0  0  0  0  0  0  0
   -4.6980   15.5170   -0.7970 C   0  0  1  0  0  0  0  0  0  0  0  0
   -4.9260   14.1330    1.1850 N   0  0  0  0  0  0  0  0  0  0  0  0
   -6.2240   14.6140    1.3600 C   0  0  2  0  0  0  0  0  0  0  0  0
   -6.2300   15.3290   -0.9210 C   0  0  1  0  0  0  0  0  0  0  0  0
   -6.9020   13.7220    2.2100 N   0  0  0  0  0  0  0  0  0  0  0  0
   -6.5370   14.7220   -2.1510 O   0  0  0  0  0  0  0  0  0  0  0  0
   -6.9110   14.5670    0.1160 N   0  0  0  0  0  0  0  0  0  0  0  0
  2  1  1  6
  2  3  1  0
  2  4  1  0
  3  5  1  1
  3  6  1  0
  4  7  1  0
  8  5  1  6
  6  9  1  0
  8  9  1  0
  6 10  1  6
  7 10  1  0
  8 11  1  0
 11 12  1  1
 11 13  1  0
 13 14  1  0
 14 15  1  0
 16 15  1  6
 16 17  1  0
 16 18  1  0
 19 17  1  6
 18 20  1  0
 19 21  1  0
 21 20  1  6
 19 22  1  0
 22 23  1  0
 21 24  1  0
 23 25  1  1
 24 26  1  6
 23 27  1  0
 24 27  1  0
M  CHG  1  12  -1
M  END
