ucsf365-ucsf258
     RDKit          3D

 19 20  0  0  0  0  0  0  0  0999 V2000
    0.3860   10.6940   -2.4210 O   0  0  0  0  0  0  0  0  0  0  0  0
    0.8490   11.9490   -2.4840 C   0  0  2  0  0  0  0  0  0  0  0  0
    0.1220   12.7350   -1.5100 O   0  0  0  0  0  0  0  0  0  0  0  0
    0.6320   12.4730   -3.9560 C   0  0  0  0  0  0  0  0  0  0  0  0
    0.0560   14.1660   -1.7930 C   0  0  0  0  0  0  0  0  0  0  0  0
   -0.6800   13.2590   -4.2180 C   0  0  2  0  0  0  0  0  0  0  0  0
   -1.7830   12.4130   -4.8910 C   0  0  2  0  0  0  0  0  0  0  0  0
   -0.4300   14.5570   -5.0130 C   0  0  0  0  0  0  0  0  0  0  0  0
   -1.2770   14.8810   -1.3540 C   0  0  1  0  0  0  0  0  0  0  0  0
   -1.2030   11.2130   -5.4070 O   0  0  0  0  0  0  0  0  0  0  0  0
   -2.5290   13.1180   -6.0350 C   0  0  0  0  0  0  0  0  0  0  0  0
   -1.7210   15.3800   -5.1760 C   0  0  0  0  0  0  0  0  0  0  0  0
   -2.3860   15.1210   -2.4320 C   0  0  1  0  0  0  0  0  0  0  0  0
   -1.8020   14.3050   -0.1120 N   0  0  0  0  0  0  0  0  0  0  0  0
   -2.3720   14.1870   -3.5010 O   0  0  0  0  0  0  0  0  0  0  0  0
   -2.9070   14.5670   -5.7120 C   0  0  0  0  0  0  0  0  0  0  0  0
   -3.8340   15.1350   -1.9230 C   0  0  0  0  0  0  0  0  0  0  0  0
   -2.8000   15.1880    0.4600 C   0  0  0  0  0  0  0  0  0  0  0  0
   -4.0390   15.3270   -0.4180 C   0  0  0  0  0  0  0  0  0  0  0  0
  2  1  1  6
  2  3  1  0
  2  4  1  0
  3  5  1  0
  6  4  1  6
  6  7  1  0
  6  8  1  0
  9  5  1  6
  7 10  1  6
  7 11  1  0
  8 12  1  0
  9 13  1  0
  9 14  1  0
 13 15  1  6
 11 16  1  0
 12 16  1  0
 13 17  1  0
 14 18  1  0
 17 19  1  0
 18 19  1  0
M  CHG  1   1  -1
M  END
