ucsf262-ucsf357
     RDKit          3D

 23 25  0  0  0  0  0  0  0  0999 V2000
   -3.1820   15.9290   -5.2890 Cl  0  0  0  0  0  0  0  0  0  0  0  0
   -1.6640   16.8660   -5.3320 C   0  0  2  0  0  0  0  0  0  0  0  0
   -0.5610   16.3880   -4.4360 C   0  0  1  0  0  0  0  0  0  0  0  0
   -1.7270   18.3620   -5.4780 C   0  0  0  0  0  0  0  0  0  0  0  0
   -0.3160   14.8970   -4.2600 C   0  0  0  0  0  0  0  0  0  0  0  0
    0.7280   16.7630   -5.1000 C   0  0  2  0  0  0  0  0  0  0  0  0
   -0.4290   18.8020   -6.1610 C   0  0  0  0  0  0  0  0  0  0  0  0
    1.1280   14.8620   -3.7770 C   0  0  1  0  0  0  0  0  0  0  0  0
    1.7260   16.1170   -4.2910 N   0  0  0  0  0  0  0  0  0  0  0  0
    0.8430   18.2330   -5.5070 C   0  0  0  0  0  0  0  0  0  0  0  0
    1.2780   14.7290   -2.2170 C   0  0  2  0  0  0  0  0  0  0  0  0
    2.5800   14.4360   -2.0260 O   0  0  0  0  0  0  0  0  0  0  0  0
    0.3670   13.6850   -1.7360 O   0  0  0  0  0  0  0  0  0  0  0  0
   -1.0740   14.0220   -1.5050 C   0  0  2  0  0  0  0  0  0  0  0  0
   -1.7190   14.9080   -2.5780 C   0  0  1  0  0  0  0  0  0  0  0  0
   -1.3330   14.7150   -0.1560 C   0  0  0  0  0  0  0  0  0  0  0  0
   -1.5670   14.3260   -3.8060 F   0  0  0  0  0  0  0  0  0  0  0  0
   -3.2200   15.0620   -2.4190 C   0  0  0  0  0  0  0  0  0  0  0  0
   -2.8410   14.7550    0.1730 C   0  0  0  0  0  0  0  0  0  0  0  0
   -3.7700   15.2540   -0.9830 C   0  0  2  0  0  0  0  0  0  0  0  0
   -5.2040   14.6470   -0.9400 C   0  0  2  0  0  0  0  0  0  0  0  0
   -5.8780   15.0010   -2.0140 O   0  0  0  0  0  0  0  0  0  0  0  0
   -5.9820   15.2800    0.0510 O   0  0  0  0  0  0  0  0  0  0  0  0
  2  1  1  1
  2  3  1  0
  2  4  1  0
  3  5  1  6
  3  6  1  0
  4  7  1  0
  8  5  1  1
  6  9  1  0
  8  9  1  0
  6 10  1  1
  7 10  1  0
  8 11  1  0
 11 12  1  6
 11 13  1  0
 14 13  1  6
 14 15  1  0
 14 16  1  0
 15 17  1  6
 15 18  1  0
 16 19  1  0
 20 18  1  6
 19 20  1  0
 20 21  1  0
 21 22  1  6
 21 23  1  0
M  CHG  2  12  -1  22  -1
M  END
