ucsf012-ucsf258
     RDKit          3D

 20 22  0  0  0  0  0  0  0  0999 V2000
   -3.4510   15.1960   -4.1210 C   0  0  0  0  0  0  0  0  0  0  0  0
   -2.9520   14.6570   -2.7870 C   0  0  2  0  0  0  0  0  0  0  0  0
   -3.6930   15.2350   -1.5530 C   0  0  1  0  0  0  0  0  0  0  0  0
   -1.5380   14.7150   -2.3890 N   0  0  0  0  0  0  0  0  0  0  0  0
   -5.2010   15.0650   -1.5580 C   0  0  0  0  0  0  0  0  0  0  0  0
   -0.3640   14.4200   -3.2540 C   0  0  1  0  0  0  0  0  0  0  0  0
   -2.8810   14.6400   -0.4010 C   0  0  1  0  0  0  0  0  0  0  0  0
   -1.5130   14.3230   -0.9880 C   0  0  2  0  0  0  0  0  0  0  0  0
    0.9240   14.9370   -2.5050 C   0  0  0  0  0  0  0  0  0  0  0  0
   -2.6890   15.2490    0.9790 C   0  0  1  0  0  0  0  0  0  0  0  0
   -0.4500   14.8500   -0.1640 N   0  0  0  0  0  0  0  0  0  0  0  0
   -0.1680   12.9690   -3.7960 C   0  0  1  0  0  0  0  0  0  0  0  0
   -3.8590   15.3950    1.8110 N   0  0  0  0  0  0  0  0  0  0  0  0
    1.5110   13.9280   -1.8640 O   0  0  0  0  0  0  0  0  0  0  0  0
   -1.7880   14.4470    1.7750 N   0  0  0  0  0  0  0  0  0  0  0  0
   -0.4640   14.3340    1.1800 C   0  0  0  0  0  0  0  0  0  0  0  0
    0.5940   12.0280   -2.8580 C   0  0  0  0  0  0  0  0  0  0  0  0
   -1.3660   12.2710   -4.2060 O   0  0  0  0  0  0  0  0  0  0  0  0
   -1.4040   11.0290   -3.5110 C   0  0  0  0  0  0  0  0  0  0  0  0
    0.0190   10.6840   -3.2120 C   0  0  0  0  0  0  0  0  0  0  0  0
  2  1  1  6
  2  3  1  0
  2  4  1  0
  3  5  1  1
  4  6  1  0
  3  7  1  0
  4  8  1  0
  7  8  1  0
  6  9  1  1
  7 10  1  1
  8 11  1  1
  6 12  1  0
 10 13  1  1
  9 14  1  0
 10 15  1  0
 11 16  1  0
 15 16  1  0
 12 17  1  1
 12 18  1  0
 18 19  1  0
 17 20  1  0
 19 20  1  0
M  CHG  1  14  -1
M  END
