ucsf345-ucsf213
     RDKit          3D

 23 25  0  0  0  0  0  0  0  0999 V2000
   -6.4770   14.7430    1.3720 N   0  0  0  0  0  0  0  0  0  0  0  0
   -6.7000   14.8860   -0.0640 C   0  0  2  0  0  0  0  0  0  0  0  0
   -7.3240   13.6970   -0.4830 O   0  0  0  0  0  0  0  0  0  0  0  0
   -5.3790   15.1990   -0.8670 C   0  0  2  0  0  0  0  0  0  0  0  0
   -5.2940   14.4380   -2.1440 N   0  0  0  0  0  0  0  0  0  0  0  0
   -4.0900   15.0400   -0.0110 C   0  0  0  0  0  0  0  0  0  0  0  0
   -4.0960   14.7780   -2.9540 C   0  0  0  0  0  0  0  0  0  0  0  0
   -2.8340   14.8730   -0.7870 N   0  0  0  0  0  0  0  0  0  0  0  0
   -2.9670   15.4670   -2.1490 C   0  0  1  0  0  0  0  0  0  0  0  0
   -1.5840   15.6900   -2.8830 C   0  0  0  0  0  0  0  0  0  0  0  0
   -1.3470   15.6720   -4.4560 C   0  0  1  0  0  0  0  0  0  0  0  0
    0.1110   16.0370   -4.8590 C   0  0  2  0  0  0  0  0  0  0  0  0
   -1.1750   13.9120   -4.9080 S   0  0  0  0  0  0  0  0  0  0  0  0
   -2.3780   16.4810   -5.2830 C   0  0  0  0  0  0  0  0  0  0  0  0
    0.2580   13.8540   -3.7620 C   0  0  2  0  0  0  0  0  0  0  0  0
    1.1090   15.0450   -4.2220 C   0  0  0  0  0  0  0  0  0  0  0  0
    0.3720   17.5250   -4.7320 C   0  0  0  0  0  0  0  0  0  0  0  0
   -1.9830   17.9290   -5.6830 C   0  0  0  0  0  0  0  0  0  0  0  0
    0.8930   12.4580   -3.6280 C   0  0  0  0  0  0  0  0  0  0  0  0
   -0.4850   18.2420   -5.7670 C   0  0  0  0  0  0  0  0  0  0  0  0
    0.1630   11.7190   -2.4650 C   0  0  1  0  0  0  0  0  0  0  0  0
    0.5920   10.4860   -2.2710 O   0  0  0  0  0  0  0  0  0  0  0  0
    0.5220   12.3490   -1.2560 O   0  0  0  0  0  0  0  0  0  0  0  0
  2  1  1  1
  2  3  1  0
  2  4  1  0
  4  5  1  0
  4  6  1  1
  5  7  1  0
  6  8  1  0
  7  9  1  0
  8  9  1  0
  9 10  1  6
 11 10  1  1
 11 12  1  0
 11 13  1  0
 11 14  1  0
 13 15  1  0
 12 16  1  1
 15 16  1  0
 12 17  1  0
 14 18  1  0
 15 19  1  6
 17 20  1  0
 18 20  1  0
 19 21  1  0
 21 22  1  1
 21 23  1  0
M  CHG  1  22  -1
M  END
