ucsf519-ucsf006
     RDKit          3D

 20 21  0  0  0  0  0  0  0  0999 V2000
   -0.5070   16.0320   -4.9450 C   0  0  0  0  0  0  0  0  0  0  0  0
   -0.6780   14.8620   -3.9620 C   0  0  0  0  0  0  0  0  0  0  0  0
   -0.4910   13.2720   -4.9440 S   0  0  0  0  0  0  0  0  0  0  0  0
   -2.1590   14.6880   -3.4120 C   0  0  2  0  0  0  0  0  0  0  0  0
    0.3690   14.9940   -2.8560 C   0  0  0  0  0  0  0  0  0  0  0  0
    1.2430   12.7610   -4.5340 C   0  0  1  0  0  0  0  0  0  0  0  0
   -3.0930   15.2040   -4.3530 O   0  0  0  0  0  0  0  0  0  0  0  0
   -2.5030   15.1400   -2.0660 N   0  0  0  0  0  0  0  0  0  0  0  0
    1.3280   11.7410   -3.3310 C   0  0  1  0  0  0  0  0  0  0  0  0
    1.8110   12.2170   -5.8220 C   0  0  0  0  0  0  0  0  0  0  0  0
   -3.9460   15.1170   -1.8200 C   0  0  0  0  0  0  0  0  0  0  0  0
   -1.9200   14.3810   -0.9660 C   0  0  2  0  0  0  0  0  0  0  0  0
    1.5670   12.4630   -2.1280 O   0  0  0  0  0  0  0  0  0  0  0  0
    0.2300   11.0400   -3.1380 O   0  0  0  0  0  0  0  0  0  0  0  0
   -4.0300   15.2250   -0.3160 C   0  0  0  0  0  0  0  0  0  0  0  0
   -2.8660   14.4850    0.1380 N   0  0  0  0  0  0  0  0  0  0  0  0
   -0.6540   15.0040   -0.6220 N   0  0  0  0  0  0  0  0  0  0  0  0
   -2.3280   15.0880    1.3070 C   0  0  0  0  0  0  0  0  0  0  0  0
   -0.1140   14.5690    0.6390 C   0  0  0  0  0  0  0  0  0  0  0  0
   -1.1240   14.3900    1.6410 N   0  0  0  0  0  0  0  0  0  0  0  0
  1  2  1  0
  2  3  1  0
  2  4  1  0
  2  5  1  0
  3  6  1  0
  4  7  1  6
  4  8  1  0
  6  9  1  0
  6 10  1  6
  8 11  1  0
  8 12  1  0
  9 13  1  1
  9 14  1  0
 11 15  1  0
 12 16  1  0
 15 16  1  0
 12 17  1  1
 16 18  1  0
 17 19  1  0
 18 20  1  0
 19 20  1  0
M  CHG  1  14  -1
M  END
