ucsf411-ucsf006
     RDKit          3D

 29 32  0  0  0  0  0  0  0  0999 V2000
    0.6100   10.6480   -2.3680 O   0  0  0  0  0  0  0  0  0  0  0  0
    0.5330   11.9880   -2.3840 C   0  0  1  0  0  0  0  0  0  0  0  0
    1.8420   12.3690   -2.0280 O   0  0  0  0  0  0  0  0  0  0  0  0
    0.2010   12.5880   -3.8230 C   0  0  1  0  0  0  0  0  0  0  0  0
    0.6170   14.0080   -4.0370 N   0  0  0  0  0  0  0  0  0  0  0  0
    0.5800   11.7170   -5.0220 C   0  0  0  0  0  0  0  0  0  0  0  0
    0.4270   14.8380   -2.8650 C   0  0  0  0  0  0  0  0  0  0  0  0
   -0.1130   12.0170   -6.2280 O   0  0  0  0  0  0  0  0  0  0  0  0
   -0.1490   14.5330   -5.1760 C   0  0  2  0  0  0  0  0  0  0  0  0
   -0.9320   14.7510   -2.3010 N   0  0  0  0  0  0  0  0  0  0  0  0
   -0.3980   16.0300   -4.8630 C   0  0  2  0  0  0  0  0  0  0  0  0
   -1.3970   13.7190   -5.6060 C   0  0  0  0  0  0  0  0  0  0  0  0
   -2.0050   15.3170   -3.1090 C   0  0  0  0  0  0  0  0  0  0  0  0
   -1.7240   16.7040   -5.2940 C   0  0  2  0  0  0  0  0  0  0  0  0
   -2.7740   14.3350   -5.4580 C   0  0  0  0  0  0  0  0  0  0  0  0
    0.8530   16.8260   -5.2720 C   0  0  0  0  0  0  0  0  0  0  0  0
   -1.0460   15.1690   -0.9390 C   0  0  1  0  0  0  0  0  0  0  0  0
   -2.8700   15.8090   -5.7990 C   0  0  0  0  0  0  0  0  0  0  0  0
   -1.4700   17.8730   -6.2320 C   0  0  0  0  0  0  0  0  0  0  0  0
    0.7460   18.3300   -5.1440 C   0  0  0  0  0  0  0  0  0  0  0  0
   -2.4070   15.4650   -0.3380 C   0  0  2  0  0  0  0  0  0  0  0  0
   -0.2820   14.1970   -0.1630 N   0  0  0  0  0  0  0  0  0  0  0  0
   -0.6070   18.8950   -5.5690 C   0  0  0  0  0  0  0  0  0  0  0  0
   -2.5230   14.7380    0.9410 C   0  0  1  0  0  0  0  0  0  0  0  0
   -0.1190   14.6030    1.1960 C   0  0  0  0  0  0  0  0  0  0  0  0
   -3.7560   15.1980   -0.9270 C   0  0  0  0  0  0  0  0  0  0  0  0
   -1.3880   14.9760    1.7680 N   0  0  0  0  0  0  0  0  0  0  0  0
   -3.7190   15.3410    1.4920 N   0  0  0  0  0  0  0  0  0  0  0  0
   -4.6290   15.3510    0.3220 C   0  0  0  0  0  0  0  0  0  0  0  0
  2  1  1  6
  2  3  1  0
  2  4  1  0
  4  5  1  0
  4  6  1  6
  5  7  1  0
  6  8  1  0
  9  5  1  1
  7 10  1  0
  9 11  1  0
  9 12  1  0
 10 13  1  0
 11 14  1  0
 12 15  1  0
 11 16  1  6
 17 10  1  6
 14 18  1  6
 15 18  1  0
 14 19  1  0
 16 20  1  0
 17 21  1  0
 17 22  1  0
 19 23  1  0
 20 23  1  0
 21 24  1  0
 22 25  1  0
 21 26  1  6
 24 27  1  1
 25 27  1  0
 24 28  1  0
 26 29  1  0
 28 29  1  0
M  CHG  1   1  -1
M  END
