ucsf442-ucsf412
     RDKit          3D

 12 13  0  0  0  0  0  0  0  0999 V2000
   -0.2500   14.3870    0.9410 O   0  0  0  0  0  0  0  0  0  0  0  0
   -1.2660   15.2540    0.5270 C   0  0  1  0  0  0  0  0  0  0  0  0
   -1.4430   15.1610   -0.9140 N   0  0  0  0  0  0  0  0  0  0  0  0
   -2.4530   14.9780    1.3480 N   0  0  0  0  0  0  0  0  0  0  0  0
   -3.6630   15.3370    0.6720 C   0  0  1  0  0  0  0  0  0  0  0  0
   -2.7910   15.3570   -1.4230 C   0  0  1  0  0  0  0  0  0  0  0  0
   -2.8510   15.0040   -2.7950 O   0  0  0  0  0  0  0  0  0  0  0  0
   -3.7470   14.5380   -0.5940 C   0  0  2  0  0  0  0  0  0  0  0  0
   -4.9350   15.0390    1.3030 N   0  0  0  0  0  0  0  0  0  0  0  0
   -5.1680   14.3940   -0.9070 N   0  0  0  0  0  0  0  0  0  0  0  0
   -5.7640   15.1780    0.1200 C   0  0  1  0  0  0  0  0  0  0  0  0
   -7.0750   14.7240    0.3580 O   0  0  0  0  0  0  0  0  0  0  0  0
  2  1  1  1
  2  3  1  0
  2  4  1  0
  5  4  1  1
  3  6  1  0
  6  7  1  6
  5  8  1  0
  6  8  1  0
  5  9  1  0
  8 10  1  6
  9 11  1  0
 10 11  1  0
 11 12  1  1
M  END
