ucsf013-ucsf519
     RDKit          3D

 21 22  0  0  0  0  0  0  0  0999 V2000
   -3.9860   15.4550    1.9960 N   0  0  0  0  0  0  0  0  0  0  0  0
   -4.8690   15.1990    0.8850 C   0  0  2  0  0  0  0  0  0  0  0  0
   -6.1090   14.7000    1.4730 N   0  0  0  0  0  0  0  0  0  0  0  0
   -4.2740   14.2870   -0.1890 C   0  0  1  0  0  0  0  0  0  0  0  0
   -5.4910   13.8490   -1.0430 C   0  0  1  0  0  0  0  0  0  0  0  0
   -7.2020   14.4910    0.5520 C   0  0  0  0  0  0  0  0  0  0  0  0
   -3.0060   14.9440   -0.9020 C   0  0  1  0  0  0  0  0  0  0  0  0
   -1.8600   14.0630   -0.9130 O   0  0  0  0  0  0  0  0  0  0  0  0
   -6.7100   14.6500   -0.7890 N   0  0  0  0  0  0  0  0  0  0  0  0
   -5.1720   13.9300   -2.5080 C   0  0  0  0  0  0  0  0  0  0  0  0
   -3.2010   15.5460   -2.3180 C   0  0  1  0  0  0  0  0  0  0  0  0
   -2.2490   15.3980   -3.5730 C   0  0  1  0  0  0  0  0  0  0  0  0
   -4.6130   15.2770   -2.8440 C   0  0  0  0  0  0  0  0  0  0  0  0
   -0.7930   14.8510   -3.5110 C   0  0  2  0  0  0  0  0  0  0  0  0
   -2.9780   14.6640   -4.5760 O   0  0  0  0  0  0  0  0  0  0  0  0
    0.2180   15.8200   -4.1210 C   0  0  0  0  0  0  0  0  0  0  0  0
   -0.7540   13.3110   -4.5340 S   0  0  0  0  0  0  0  0  0  0  0  0
    0.7810   12.4610   -3.9460 C   0  0  0  0  0  0  0  0  0  0  0  0
    0.9240   11.7760   -2.5440 C   0  0  1  0  0  0  0  0  0  0  0  0
    0.2130   12.4150   -1.5080 O   0  0  0  0  0  0  0  0  0  0  0  0
    0.4680   10.5200   -2.4640 O   0  0  0  0  0  0  0  0  0  0  0  0
  2  1  1  1
  2  3  1  0
  4  2  1  1
  4  5  1  0
  3  6  1  0
  4  7  1  0
  7  8  1  6
  5  9  1  0
  6  9  1  0
  5 10  1  6
  7 11  1  0
 11 12  1  0
 10 13  1  0
 11 13  1  6
 12 14  1  0
 12 15  1  6
 14 16  1  6
 14 17  1  0
 17 18  1  0
 18 19  1  0
 19 20  1  1
 19 21  1  0
M  CHG  1  21  -1
M  END
