ucsf340-ucsf338
     RDKit          3D

 27 29  0  0  0  0  0  0  0  0999 V2000
    0.8600   18.4520   -5.6180 C   0  0  0  0  0  0  0  0  0  0  0  0
   -0.0950   17.7490   -4.7770 N   0  0  0  0  0  0  0  0  0  0  0  0
    0.5960   16.9400   -3.7710 C   0  0  0  0  0  0  0  0  0  0  0  0
   -0.8320   16.8390   -5.6050 C   0  0  1  0  0  0  0  0  0  0  0  0
    0.5090   15.4540   -4.1690 C   0  0  2  0  0  0  0  0  0  0  0  0
   -0.7890   15.4500   -4.9500 C   0  0  1  0  0  0  0  0  0  0  0  0
   -2.1980   17.3830   -5.9950 C   0  0  0  0  0  0  0  0  0  0  0  0
    0.7740   14.4000   -3.0720 C   0  0  0  0  0  0  0  0  0  0  0  0
   -2.1280   14.8690   -4.4610 C   0  0  1  0  0  0  0  0  0  0  0  0
   -3.3490   16.4190   -5.7250 C   0  0  0  0  0  0  0  0  0  0  0  0
    0.7310   12.8870   -3.4300 C   0  0  0  0  0  0  0  0  0  0  0  0
   -2.6530   15.4970   -3.1400 C   0  0  0  0  0  0  0  0  0  0  0  0
   -3.0910   14.9560   -5.6210 C   0  0  0  0  0  0  0  0  0  0  0  0
    0.0510   11.9750   -2.3610 C   0  0  2  0  0  0  0  0  0  0  0  0
   -3.9070   14.9550   -2.6180 O   0  0  0  0  0  0  0  0  0  0  0  0
    0.4700   12.4170   -1.0990 O   0  0  0  0  0  0  0  0  0  0  0  0
    0.4680   10.7100   -2.3600 O   0  0  0  0  0  0  0  0  0  0  0  0
   -3.7570   14.5410   -1.2450 C   0  0  2  0  0  0  0  0  0  0  0  0
   -5.0160   14.3670   -0.3120 C   0  0  2  0  0  0  0  0  0  0  0  0
   -2.6550   15.4440   -0.6370 C   0  0  0  0  0  0  0  0  0  0  0  0
   -6.4840   14.3780   -0.8390 C   0  0  1  0  0  0  0  0  0  0  0  0
   -2.3170   15.1600    0.8150 C   0  0  0  0  0  0  0  0  0  0  0  0
   -4.8270   15.3060    0.8780 C   0  0  0  0  0  0  0  0  0  0  0  0
   -7.4990   14.6470    0.1830 N   0  0  0  0  0  0  0  0  0  0  0  0
   -6.6500   15.3320   -1.8670 O   0  0  0  0  0  0  0  0  0  0  0  0
   -3.5730   14.9560    1.6470 C   0  0  0  0  0  0  0  0  0  0  0  0
   -8.7870   14.1300   -0.2560 O   0  0  0  0  0  0  0  0  0  0  0  0
  1  2  1  0
  2  3  1  0
  2  4  1  0
  3  5  1  0
  4  6  1  0
  6  5  1  1
  4  7  1  1
  5  8  1  1
  6  9  1  0
  7 10  1  0
  8 11  1  0
  9 12  1  1
  9 13  1  0
 10 13  1  0
 11 14  1  0
 12 15  1  0
 14 16  1  1
 14 17  1  0
 18 15  1  6
 18 19  1  0
 18 20  1  0
 19 21  1  0
 20 22  1  0
 19 23  1  1
 21 24  1  0
 21 25  1  6
 22 26  1  0
 23 26  1  0
 24 27  1  0
M  CHG  1  17  -1
M  END
