ucsf028-ucsf173
     RDKit          3D

 30 35  0  0  0  0  0  0  0  0999 V2000
   -4.2770   15.6340    1.5240 N   0  0  0  0  0  0  0  0  0  0  0  0
   -3.7230   14.8920    0.4000 C   0  0  2  0  0  0  0  0  0  0  0  0
   -2.2850   14.3860    0.5930 C   0  0  1  0  0  0  0  0  0  0  0  0
   -3.9130   15.7230   -0.7280 N   0  0  0  0  0  0  0  0  0  0  0  0
   -3.4220   15.1720   -1.9660 C   0  0  0  0  0  0  0  0  0  0  0  0
   -1.4940   14.2360   -0.7170 C   0  0  1  0  0  0  0  0  0  0  0  0
   -1.4180   15.2290    1.4110 N   0  0  0  0  0  0  0  0  0  0  0  0
   -2.0070   14.8000   -1.9610 N   0  0  0  0  0  0  0  0  0  0  0  0
   -0.1930   14.8330   -0.4350 N   0  0  0  0  0  0  0  0  0  0  0  0
   -0.1030   14.8200    0.9910 C   0  0  0  0  0  0  0  0  0  0  0  0
   -1.9040   13.6630   -2.8810 C   0  0  0  0  0  0  0  0  0  0  0  0
   -0.5880   13.1220   -3.4970 C   0  0  2  0  0  0  0  0  0  0  0  0
   -1.0670   12.1460   -4.5680 C   0  0  0  0  0  0  0  0  0  0  0  0
    0.2520   12.2900   -2.5970 N   0  0  0  0  0  0  0  0  0  0  0  0
    0.3390   14.1400   -4.1570 C   0  0  0  0  0  0  0  0  0  0  0  0
    0.0570   10.8730   -2.9440 N   0  0  0  0  0  0  0  0  0  0  0  0
   -0.8650   10.7580   -4.0560 C   0  0  2  0  0  0  0  0  0  0  0  0
    1.6740   12.6730   -2.9060 C   0  0  1  0  0  0  0  0  0  0  0  0
   -0.4320   14.5400   -5.3940 C   0  0  0  0  0  0  0  0  0  0  0  0
    0.7670   15.5370   -3.5660 C   0  0  0  0  0  0  0  0  0  0  0  0
    1.6080   13.2960   -4.3160 C   0  0  0  0  0  0  0  0  0  0  0  0
   -0.4820    9.9450   -5.1660 O   0  0  0  0  0  0  0  0  0  0  0  0
    2.1560   13.5260   -2.0270 O   0  0  0  0  0  0  0  0  0  0  0  0
   -1.0460   15.7880   -4.8230 C   0  0  1  0  0  0  0  0  0  0  0  0
    0.2880   16.4560   -4.6960 C   0  0  1  0  0  0  0  0  0  0  0  0
   -0.3430   10.6390   -6.4010 C   0  0  0  0  0  0  0  0  0  0  0  0
   -2.1910   16.5190   -5.5020 C   0  0  0  0  0  0  0  0  0  0  0  0
    0.2880   17.9640   -4.5330 C   0  0  0  0  0  0  0  0  0  0  0  0
   -1.7330   17.8190   -6.1450 C   0  0  0  0  0  0  0  0  0  0  0  0
   -0.9050   18.6700   -5.2060 C   0  0  0  0  0  0  0  0  0  0  0  0
  2  1  1  1
  2  3  1  0
  2  4  1  0
  4  5  1  0
  3  6  1  0
  3  7  1  1
  5  8  1  0
  6  8  1  0
  6  9  1  1
  7 10  1  0
  9 10  1  0
  8 11  1  0
 12 11  1  1
 12 13  1  0
 12 14  1  0
 12 15  1  0
 14 16  1  0
 13 17  1  0
 16 17  1  0
 14 18  1  0
 15 19  1  0
 15 20  1  0
 15 21  1  0
 18 21  1  0
 17 22  1  6
 18 23  1  1
 24 19  1  6
 25 20  1  1
 24 25  1  0
 22 26  1  0
 24 27  1  0
 25 28  1  0
 27 29  1  0
 28 30  1  0
 29 30  1  0
M  CHG  1  23  -1
M  END
