ucsf241-ucsf172
     RDKit          3D

 17 18  0  0  0  0  0  0  0  0999 V2000
   -7.6120   14.9060    2.1570 C   0  0  0  0  0  0  0  0  0  0  0  0
   -6.8610   14.3470    0.6660 S   0  0  0  0  0  0  0  0  0  0  0  0
   -6.3020   12.9360    1.1730 O   0  0  0  0  0  0  0  0  0  0  0  0
   -8.1030   14.1020   -0.3110 O   0  0  0  0  0  0  0  0  0  0  0  0
   -5.6650   15.1730   -0.1640 N   0  0  0  0  0  0  0  0  0  0  0  0
   -4.3030   14.6900    0.0050 C   0  0  1  0  0  0  0  0  0  0  0  0
   -3.3940   14.1260   -1.1820 C   0  0  1  0  0  0  0  0  0  0  0  0
   -3.4750   15.6690    0.6970 N   0  0  0  0  0  0  0  0  0  0  0  0
   -3.2010   14.6120   -2.6590 C   0  0  2  0  0  0  0  0  0  0  0  0
   -2.0790   14.1860   -0.4370 C   0  0  2  0  0  0  0  0  0  0  0  0
   -2.4550   14.6760    0.9460 C   0  0  1  0  0  0  0  0  0  0  0  0
   -2.0740   13.9040   -3.1730 O   0  0  0  0  0  0  0  0  0  0  0  0
   -2.7360   15.8320   -2.7990 O   0  0  0  0  0  0  0  0  0  0  0  0
   -0.8790   14.9460   -0.9740 C   0  0  0  0  0  0  0  0  0  0  0  0
   -1.3380   15.2300    1.5870 N   0  0  0  0  0  0  0  0  0  0  0  0
    0.3060   14.5440   -0.1030 C   0  0  0  0  0  0  0  0  0  0  0  0
   -0.1600   14.4170    1.3450 C   0  0  0  0  0  0  0  0  0  0  0  0
  1  2  1  0
  2  3  1  0
  2  4  1  0
  2  5  1  0
  6  5  1  6
  6  7  1  0
  6  8  1  0
  7  9  1  6
  7 10  1  0
 11  8  1  6
 10 11  1  0
  9 12  1  1
  9 13  1  0
 10 14  1  6
 11 15  1  0
 14 16  1  0
 15 17  1  0
 16 17  1  0
M  CHG  1  13  -1
M  END
