ucsf124-ucsf387
     RDKit          3D

 23 25  0  0  0  0  0  0  0  0999 V2000
    1.0540   11.1530   -2.6710 O   0  0  0  0  0  0  0  0  0  0  0  0
    1.4160   12.2380   -3.3250 C   0  0  2  0  0  0  0  0  0  0  0  0
    1.6370   13.1310   -2.2530 O   0  0  0  0  0  0  0  0  0  0  0  0
    0.2140   12.7120   -4.2160 C   0  0  2  0  0  0  0  0  0  0  0  0
   -0.0170   12.0320   -5.5510 N   0  0  0  0  0  0  0  0  0  0  0  0
   -0.1950   14.2440   -4.3140 C   0  0  0  0  0  0  0  0  0  0  0  0
   -1.3000   11.3480   -5.7080 C   0  0  2  0  0  0  0  0  0  0  0  0
    1.0150   11.1420   -6.0630 C   0  0  2  0  0  0  0  0  0  0  0  0
   -1.3900   14.3120   -5.2360 C   0  0  0  0  0  0  0  0  0  0  0  0
    0.7950   15.3590   -4.7900 C   0  0  0  0  0  0  0  0  0  0  0  0
   -2.0240   11.3940   -4.4930 O   0  0  0  0  0  0  0  0  0  0  0  0
    2.0190   11.7230   -6.8400 O   0  0  0  0  0  0  0  0  0  0  0  0
   -0.9610    9.8650   -5.9160 C   0  0  2  0  0  0  0  0  0  0  0  0
    0.3340    9.9040   -6.7020 C   0  0  1  0  0  0  0  0  0  0  0  0
   -2.1140   15.6420   -5.2820 C   0  0  1  0  0  0  0  0  0  0  0  0
    0.1530   16.7640   -4.6140 C   0  0  1  0  0  0  0  0  0  0  0  0
    1.0410   18.0860   -5.4180 Cl  0  0  0  0  0  0  0  0  0  0  0  0
   -3.3670   15.5280   -4.0120 Cl  0  0  0  0  0  0  0  0  0  0  0  0
   -2.0890    8.9830   -6.4740 C   0  0  0  0  0  0  0  0  0  0  0  0
    0.1240    9.8850   -8.2200 C   0  0  0  0  0  0  0  0  0  0  0  0
   -1.2830   16.9220   -5.1150 C   0  0  0  0  0  0  0  0  0  0  0  0
   -2.1360    8.8170   -7.9940 C   0  0  0  0  0  0  0  0  0  0  0  0
   -0.7510    8.6970   -8.6150 C   0  0  0  0  0  0  0  0  0  0  0  0
  2  1  1  1
  2  3  1  0
  2  4  1  0
  4  5  1  0
  4  6  1  6
  5  7  1  0
  5  8  1  0
  6  9  1  0
  6 10  1  0
  7 11  1  1
  8 12  1  6
  7 13  1  0
  8 14  1  0
 13 14  1  0
  9 15  1  0
 10 16  1  0
 16 17  1  6
 15 18  1  1
 13 19  1  6
 14 20  1  6
 15 21  1  0
 16 21  1  0
 19 22  1  0
 20 23  1  0
 22 23  1  0
M  CHG  1   1  -1
M  END
