ucsf364-ucsf262
     RDKit          3D

 22 24  0  0  0  0  0  0  0  0999 V2000
    2.5770   12.8120   -5.0690 C   0  0  0  0  0  0  0  0  0  0  0  0
    1.1000   12.6300   -5.2010 C   0  0  1  0  0  0  0  0  0  0  0  0
    0.6440   11.9360   -6.4210 C   0  0  1  0  0  0  0  0  0  0  0  0
    0.4850   12.3950   -3.9420 C   0  0  1  0  0  0  0  0  0  0  0  0
    1.7440   11.4160   -7.1040 O   0  0  0  0  0  0  0  0  0  0  0  0
    0.4790   13.8390   -2.9750 S   0  0  0  0  0  0  0  0  0  0  0  0
   -0.8490   11.6050   -3.9050 C   0  0  0  0  0  0  0  0  0  0  0  0
   -0.3730   10.8510   -6.2390 C   0  0  0  0  0  0  0  0  0  0  0  0
   -0.5010   14.7950   -1.7420 O   0  0  0  0  0  0  0  0  0  0  0  0
    1.5690   13.7130   -1.0610 O   0  0  0  0  0  0  0  0  0  0  0  0
    2.7140   14.0120   -2.5570 O   0  0  0  0  0  0  0  0  0  0  0  0
   -1.3790   11.2710   -5.2410 C   0  0  0  0  0  0  0  0  0  0  0  0
    0.8020   15.0390   -4.1480 C   0  0  1  0  0  0  0  0  0  0  0  0
   -0.1560   15.3440   -5.1680 C   0  0  0  0  0  0  0  0  0  0  0  0
    1.0550   16.3590   -3.5770 N   0  0  0  0  0  0  0  0  0  0  0  0
   -0.9450   16.4140   -4.5500 C   0  0  1  0  0  0  0  0  0  0  0  0
    0.2260   17.2480   -4.2900 C   0  0  2  0  0  0  0  0  0  0  0  0
   -2.0330   17.0500   -5.2890 C   0  0  2  0  0  0  0  0  0  0  0  0
    0.7930   17.8810   -5.4930 C   0  0  0  0  0  0  0  0  0  0  0  0
   -3.1420   15.8390   -5.9360 Cl  0  0  0  0  0  0  0  0  0  0  0  0
   -1.6720   18.1570   -6.2350 C   0  0  0  0  0  0  0  0  0  0  0  0
   -0.2050   18.4580   -6.4520 C   0  0  0  0  0  0  0  0  0  0  0  0
  2  1  1  1
  2  3  1  0
  2  4  1  0
  3  5  1  1
  4  6  1  6
  4  7  1  0
  3  8  1  0
  6  9  1  0
  6 10  1  0
  6 11  1  0
  7 12  1  0
  8 12  1  0
 13  6  1  1
 13 14  1  0
 13 15  1  0
 16 14  1  6
 15 17  1  0
 16 17  1  0
 16 18  1  0
 17 19  1  6
 18 20  1  6
 18 21  1  0
 19 22  1  0
 21 22  1  0
M  CHG  2  10  -1  11  -1
M  END
