ucsf169-ucsf339
     RDKit          3D

 25 27  0  0  0  0  0  0  0  0999 V2000
    1.2910   18.6120   -5.6980 C   0  0  0  0  0  0  0  0  0  0  0  0
    0.3710   18.2160   -4.7180 O   0  0  0  0  0  0  0  0  0  0  0  0
   -0.1290   16.9480   -5.0910 C   0  0  2  0  0  0  0  0  0  0  0  0
   -1.5630   16.8270   -4.5600 C   0  0  1  0  0  0  0  0  0  0  0  0
    0.7390   15.7770   -4.6270 C   0  0  0  0  0  0  0  0  0  0  0  0
   -2.2760   18.0420   -4.8260 O   0  0  0  0  0  0  0  0  0  0  0  0
   -2.2630   15.6230   -5.1940 C   0  0  0  0  0  0  0  0  0  0  0  0
   -0.1670   14.6380   -4.1410 C   0  0  2  0  0  0  0  0  0  0  0  0
    0.6250   13.3720   -3.7100 C   0  0  0  0  0  0  0  0  0  0  0  0
   -1.3240   14.4010   -5.1350 C   0  0  0  0  0  0  0  0  0  0  0  0
   -0.0120   12.6490   -2.4870 C   0  0  2  0  0  0  0  0  0  0  0  0
    0.7900   12.8270   -1.3450 O   0  0  0  0  0  0  0  0  0  0  0  0
    0.0150   11.3350   -2.5890 O   0  0  0  0  0  0  0  0  0  0  0  0
   -1.4410   13.2020   -2.1590 C   0  0  1  0  0  0  0  0  0  0  0  0
   -1.5000   14.5870   -1.4650 C   0  0  0  0  0  0  0  0  0  0  0  0
   -2.3120   13.2830   -3.4320 C   0  0  0  0  0  0  0  0  0  0  0  0
   -2.9310   15.2070   -1.4480 C   0  0  1  0  0  0  0  0  0  0  0  0
   -2.7840   14.6220   -3.8110 N   0  0  0  0  0  0  0  0  0  0  0  0
   -3.6660   15.1170   -2.7890 C   0  0  0  0  0  0  0  0  0  0  0  0
   -3.7920   14.6380   -0.3060 C   0  0  0  0  0  0  0  0  0  0  0  0
   -4.0360   15.6980    0.7470 C   0  0  0  0  0  0  0  0  0  0  0  0
   -5.1750   14.1040   -0.7560 C   0  0  0  0  0  0  0  0  0  0  0  0
   -4.7270   15.0550    1.9230 C   0  0  0  0  0  0  0  0  0  0  0  0
   -6.0080   13.5090    0.3790 C   0  0  0  0  0  0  0  0  0  0  0  0
   -6.0790   14.4070    1.5950 C   0  0  0  0  0  0  0  0  0  0  0  0
  1  2  1  0
  3  2  1  1
  3  4  1  0
  3  5  1  0
  4  6  1  6
  4  7  1  0
  5  8  1  0
  8  9  1  6
  7 10  1  0
  8 10  1  0
  9 11  1  0
 11 12  1  1
 11 13  1  0
 11 14  1  0
 14 15  1  6
 14 16  1  0
 15 17  1  0
 16 18  1  0
 17 19  1  0
 18 19  1  0
 17 20  1  1
 20 21  1  0
 20 22  1  0
 21 23  1  0
 22 24  1  0
 23 25  1  0
 24 25  1  0
M  CHG  1  13  -1
M  END
