ucsf345-ucsf367
     RDKit          3D

 23 24  0  0  0  0  0  0  0  0999 V2000
   -6.8000   14.6480    1.6460 N   0  0  0  0  0  0  0  0  0  0  0  0
   -6.7440   14.7130    0.1860 C   0  0  2  0  0  0  0  0  0  0  0  0
   -7.6630   13.7630   -0.3140 O   0  0  0  0  0  0  0  0  0  0  0  0
   -5.3550   14.5070   -0.4920 C   0  0  1  0  0  0  0  0  0  0  0  0
   -5.4240   15.1070   -1.8720 N   0  0  0  0  0  0  0  0  0  0  0  0
   -4.2020   15.0260    0.3950 C   0  0  0  0  0  0  0  0  0  0  0  0
   -4.1470   14.9470   -2.6070 C   0  0  0  0  0  0  0  0  0  0  0  0
   -3.0590   15.5360   -0.3570 N   0  0  0  0  0  0  0  0  0  0  0  0
   -2.8940   14.9360   -1.6830 C   0  0  2  0  0  0  0  0  0  0  0  0
   -1.6120   15.4470   -2.3680 C   0  0  0  0  0  0  0  0  0  0  0  0
   -0.6270   14.4080   -2.9150 C   0  0  0  0  0  0  0  0  0  0  0  0
    0.6820   14.1810   -2.1550 C   0  0  0  0  0  0  0  0  0  0  0  0
    1.1620   12.8390   -2.3170 O   0  0  0  0  0  0  0  0  0  0  0  0
    0.4250   12.0700   -3.2990 C   0  0  2  0  0  0  0  0  0  0  0  0
    0.6230   10.7950   -2.9960 O   0  0  0  0  0  0  0  0  0  0  0  0
    1.0270   12.4370   -4.7060 C   0  0  0  0  0  0  0  0  0  0  0  0
    0.6790   11.5320   -5.7970 O   0  0  0  0  0  0  0  0  0  0  0  0
   -0.3690   10.5820   -5.5560 C   0  0  0  0  0  0  0  0  0  0  0  0
   -0.4020    9.5280   -6.6820 C   0  0  0  0  0  0  0  0  0  0  0  0
   -1.7110   11.3220   -5.4720 C   0  0  0  0  0  0  0  0  0  0  0  0
   -1.8000    8.9890   -6.8770 C   0  0  0  0  0  0  0  0  0  0  0  0
   -2.8920   10.4030   -5.1350 C   0  0  0  0  0  0  0  0  0  0  0  0
   -3.1060    9.3150   -6.1860 C   0  0  0  0  0  0  0  0  0  0  0  0
  2  1  1  1
  2  3  1  0
  2  4  1  0
  4  5  1  0
  4  6  1  1
  5  7  1  0
  6  8  1  0
  7  9  1  0
  8  9  1  0
  9 10  1  6
 10 11  1  0
 11 12  1  0
 12 13  1  0
 13 14  1  0
 14 15  1  1
 14 16  1  0
 16 17  1  0
 17 18  1  0
 18 19  1  0
 18 20  1  0
 19 21  1  0
 20 22  1  0
 21 23  1  0
 22 23  1  0
M  CHG  1  15  -1
M  END
