ucsf135-ucsf523
     RDKit          3D

 27 30  0  0  0  0  0  0  0  0999 V2000
    0.9200   12.6770   -7.0820 O   0  0  0  0  0  0  0  0  0  0  0  0
    0.9110   11.4860   -6.4100 C   0  0  1  0  0  0  0  0  0  0  0  0
    0.8040   11.8560   -4.9880 N   0  0  0  0  0  0  0  0  0  0  0  0
   -0.3510   10.6370   -6.7790 C   0  0  2  0  0  0  0  0  0  0  0  0
   -0.5460   11.1440   -4.3390 S   0  0  2  0  0  0  0  0  0  0  0  0
   -0.7720    9.8450   -5.5370 C   0  0  1  0  0  0  0  0  0  0  0  0
   -0.2810    9.7090   -7.9800 C   0  0  0  0  0  0  0  0  0  0  0  0
   -1.8870   12.0110   -4.3290 O   0  0  0  0  0  0  0  0  0  0  0  0
   -0.3000   10.4280   -2.9380 O   0  0  0  0  0  0  0  0  0  0  0  0
   -2.1740    9.3070   -5.7200 C   0  0  0  0  0  0  0  0  0  0  0  0
   -1.6020    8.9560   -8.1990 C   0  0  0  0  0  0  0  0  0  0  0  0
   -1.8930   13.3260   -4.8940 C   0  0  0  0  0  0  0  0  0  0  0  0
   -2.2140    8.3590   -6.9130 C   0  0  0  0  0  0  0  0  0  0  0  0
   -1.5850   14.3350   -3.7930 C   0  0  0  0  0  0  0  0  0  0  0  0
   -1.8090   13.7190   -2.5220 O   0  0  0  0  0  0  0  0  0  0  0  0
   -1.7060   14.6160   -1.4420 C   0  0  2  0  0  0  0  0  0  0  0  0
   -0.6860   14.1140   -0.5090 N   0  0  0  0  0  0  0  0  0  0  0  0
   -3.0920   14.8900   -0.7560 C   0  0  2  0  0  0  0  0  0  0  0  0
   -0.6440   14.8290    0.7260 C   0  0  2  0  0  0  0  0  0  0  0  0
   -2.9250   14.2220    0.6030 C   0  0  1  0  0  0  0  0  0  0  0  0
   -4.3440   14.5320   -1.4480 N   0  0  0  0  0  0  0  0  0  0  0  0
    0.0130   13.9650    1.6240 N   0  0  0  0  0  0  0  0  0  0  0  0
   -1.9170   14.9310    1.3270 N   0  0  0  0  0  0  0  0  0  0  0  0
   -4.1090   14.2430    1.4070 N   0  0  0  0  0  0  0  0  0  0  0  0
   -5.4500   15.0580   -0.6100 C   0  0  0  0  0  0  0  0  0  0  0  0
   -5.1070   15.1560    0.9120 C   0  0  1  0  0  0  0  0  0  0  0  0
   -6.2590   14.9330    1.7020 O   0  0  0  0  0  0  0  0  0  0  0  0
  2  1  1  6
  2  3  1  0
  2  4  1  0
  3  5  1  0
  4  6  1  0
  5  6  1  0
  4  7  1  6
  5  8  1  0
  5  9  1  1
  6 10  1  6
  7 11  1  0
  8 12  1  0
 10 13  1  0
 11 13  1  0
 12 14  1  0
 14 15  1  0
 16 15  1  6
 16 17  1  0
 16 18  1  0
 17 19  1  0
 18 20  1  0
 18 21  1  6
 19 22  1  1
 19 23  1  0
 20 23  1  1
 20 24  1  0
 21 25  1  0
 24 26  1  0
 25 26  1  0
 26 27  1  1
M  END
