ucsf114
     RDKit          3D

 17 18  0  0  0  0  0  0  0  0999 V2000
    0.7790   18.4530   -4.7200 C   0  0  0  0  0  0  0  0  0  0  0  0
   -0.5550   17.8370   -5.3280 C   0  0  2  0  0  0  0  0  0  0  0  0
   -1.9320   18.6050   -5.1780 C   0  0  0  0  0  0  0  0  0  0  0  0
   -0.6190   16.5230   -4.7940 O   0  0  0  0  0  0  0  0  0  0  0  0
    0.6040   15.7040   -4.6600 C   0  0  0  0  0  0  0  0  0  0  0  0
    0.2910   14.4120   -3.8540 C   0  0  0  0  0  0  0  0  0  0  0  0
    0.0530   14.5590   -2.3930 N   0  0  0  0  0  0  0  0  0  0  0  0
    1.0480   14.4450   -1.4960 C   0  0  0  0  0  0  0  0  0  0  0  0
    2.5890   14.2270   -1.9120 S   0  0  0  0  0  0  0  0  0  0  0  0
    0.7640   14.5520   -0.1940 N   0  0  0  0  0  0  0  0  0  0  0  0
   -0.4800   14.7440    0.2620 C   0  0  0  0  0  0  0  0  0  0  0  0
   -0.7380   14.8290    1.6710 O   0  0  0  0  0  0  0  0  0  0  0  0
   -1.5520   14.8530   -0.6650 C   0  0  0  0  0  0  0  0  0  0  0  0
   -2.9140   15.0560   -0.4970 N   0  0  0  0  0  0  0  0  0  0  0  0
   -3.5010   15.0750   -1.6530 C   0  0  0  0  0  0  0  0  0  0  0  0
   -2.5360   14.8860   -2.6420 C   0  0  0  0  0  0  0  0  0  0  0  0
   -1.2740   14.7490   -1.9690 C   0  0  0  0  0  0  0  0  0  0  0  0
  2  1  1  1
  2  3  1  0
  2  4  1  0
  4  5  1  0
  5  6  1  0
  6  7  1  0
  7  8  1  0
  8  9  1  0
  8 10  1  0
 10 11  1  0
 11 12  1  0
 11 13  1  0
 13 14  1  0
 14 15  1  0
 15 16  1  0
  7 17  1  0
 13 17  1  0
 16 17  1  0
M  END
