ucsf123-ucsf274
     RDKit          3D

 26 28  0  0  0  0  0  0  0  0999 V2000
   -1.8960   18.8730   -4.9500 N   0  0  0  0  0  0  0  0  0  0  0  0
   -1.4720   17.5290   -5.7700 S   0  0  0  0  0  0  0  0  0  0  0  0
   -0.3200   17.9230   -6.7920 O   0  0  0  0  0  0  0  0  0  0  0  0
   -2.6860   17.0440   -6.6860 O   0  0  0  0  0  0  0  0  0  0  0  0
   -0.9000   16.0820   -4.8870 C   0  0  1  0  0  0  0  0  0  0  0  0
    0.1020   16.5220   -3.7980 C   0  0  0  0  0  0  0  0  0  0  0  0
   -2.0580   15.1750   -4.4120 C   0  0  0  0  0  0  0  0  0  0  0  0
    0.5650   15.3880   -2.8940 C   0  0  0  0  0  0  0  0  0  0  0  0
   -1.6870   14.2920   -3.2200 C   0  0  0  0  0  0  0  0  0  0  0  0
   -0.1670   14.0800   -3.2150 C   0  0  2  0  0  0  0  0  0  0  0  0
    0.4430   12.8010   -2.5630 C   0  0  1  0  0  0  0  0  0  0  0  0
    1.5000   13.1710   -1.7150 O   0  0  0  0  0  0  0  0  0  0  0  0
   -0.3310   12.0890   -1.7500 O   0  0  0  0  0  0  0  0  0  0  0  0
    0.9960   11.9810   -3.7140 C   0  0  0  0  0  0  0  0  0  0  0  0
    0.7270   12.5170   -5.1490 C   0  0  0  0  0  0  0  0  0  0  0  0
   -0.6740   12.1870   -5.7300 C   0  0  2  0  0  0  0  0  0  0  0  0
   -1.5430   11.3870   -4.6810 C   0  0  1  0  0  0  0  0  0  0  0  0
   -0.6360   11.5280   -7.0620 N   0  0  0  0  0  0  0  0  0  0  0  0
   -2.3380   12.2370   -3.8970 O   0  0  0  0  0  0  0  0  0  0  0  0
   -2.4980   10.4970   -5.3220 N   0  0  0  0  0  0  0  0  0  0  0  0
   -0.5490   10.0670   -6.9260 C   0  0  1  0  0  0  0  0  0  0  0  0
   -1.7250    9.4820   -6.0790 C   0  0  2  0  0  0  0  0  0  0  0  0
   -0.4200    9.3590   -8.2690 C   0  0  0  0  0  0  0  0  0  0  0  0
   -0.6630    7.8620   -8.1720 C   0  0  0  0  0  0  0  0  0  0  0  0
   -2.7250    8.6780   -6.9240 C   0  0  0  0  0  0  0  0  0  0  0  0
   -2.0840    7.5410   -7.7080 C   0  0  0  0  0  0  0  0  0  0  0  0
  1  2  1  0
  2  3  1  0
  2  4  1  0
  5  2  1  1
  5  6  1  0
  5  7  1  0
  6  8  1  0
  7  9  1  0
 10  8  1  1
  9 10  1  0
 10 11  1  0
 11 12  1  1
 11 13  1  0
 11 14  1  0
 14 15  1  0
 16 15  1  1
 16 17  1  0
 16 18  1  0
 17 19  1  6
 17 20  1  0
 18 21  1  0
 20 22  1  0
 21 22  1  0
 21 23  1  6
 23 24  1  0
 22 25  1  6
 24 26  1  0
 25 26  1  0
M  CHG  1  13  -1
M  END
