ucsf151-ucsf348
     RDKit          3D

 23 25  0  0  0  0  0  0  0  0999 V2000
    0.7620   12.9050   -2.6640 O   0  0  0  0  0  0  0  0  0  0  0  0
   -0.1530   13.8070   -2.3850 C   0  0  2  0  0  0  0  0  0  0  0  0
    0.5980   15.0030   -2.3240 O   0  0  0  0  0  0  0  0  0  0  0  0
   -0.7360   13.4660   -1.0190 C   0  0  0  0  0  0  0  0  0  0  0  0
   -1.2900   13.9000   -3.4170 C   0  0  1  0  0  0  0  0  0  0  0  0
   -1.6650   15.3250   -3.8570 C   0  0  0  0  0  0  0  0  0  0  0  0
   -1.1710   12.9400   -4.6260 C   0  0  0  0  0  0  0  0  0  0  0  0
   -2.0430   14.1930   -0.5650 C   0  0  1  0  0  0  0  0  0  0  0  0
   -2.1740   15.2060   -5.2650 C   0  0  2  0  0  0  0  0  0  0  0  0
   -2.4860   12.7370   -5.2920 N   0  0  0  0  0  0  0  0  0  0  0  0
   -1.8840   15.5640    0.0030 C   0  0  0  0  0  0  0  0  0  0  0  0
   -3.2950   14.2710   -1.4880 C   0  0  0  0  0  0  0  0  0  0  0  0
   -2.7450   16.4320   -5.7390 O   0  0  0  0  0  0  0  0  0  0  0  0
   -3.1540   14.0360   -5.4060 C   0  0  0  0  0  0  0  0  0  0  0  0
   -4.5200   14.2680   -0.5500 C   0  0  2  0  0  0  0  0  0  0  0  0
   -3.0230   15.7710    0.9880 C   0  0  0  0  0  0  0  0  0  0  0  0
   -5.9600   14.3570   -1.0700 C   0  0  2  0  0  0  0  0  0  0  0  0
   -4.4160   15.3240    0.5390 C   0  0  2  0  0  0  0  0  0  0  0  0
   -6.1110   15.3580   -2.0500 O   0  0  0  0  0  0  0  0  0  0  0  0
   -6.9530   14.5970   -0.0230 N   0  0  0  0  0  0  0  0  0  0  0  0
   -5.1440   14.7460    1.6500 N   0  0  0  0  0  0  0  0  0  0  0  0
   -6.5430   14.6320    1.3730 C   0  0  2  0  0  0  0  0  0  0  0  0
   -6.9000   13.4050    1.9640 N   0  0  0  0  0  0  0  0  0  0  0  0
  2  1  1  6
  2  3  1  0
  2  4  1  0
  2  5  1  0
  5  6  1  6
  5  7  1  0
  8  4  1  6
  6  9  1  0
  7 10  1  0
  8 11  1  0
  8 12  1  0
  9 13  1  1
  9 14  1  0
 10 14  1  0
 15 12  1  6
 11 16  1  0
 15 17  1  0
 15 18  1  0
 18 16  1  1
 17 19  1  6
 17 20  1  0
 18 21  1  0
 20 22  1  0
 21 22  1  0
 22 23  1  1
M  CHG  1   1  -1
M  END
