ucsf345-ucsf385
     RDKit          3D

 18 19  0  0  0  0  0  0  0  0999 V2000
   -6.8480   14.7050    1.5020 N   0  0  0  0  0  0  0  0  0  0  0  0
   -7.0340   14.7690    0.0650 C   0  0  2  0  0  0  0  0  0  0  0  0
   -7.9510   13.7450   -0.2640 O   0  0  0  0  0  0  0  0  0  0  0  0
   -5.7280   14.5840   -0.7640 C   0  0  1  0  0  0  0  0  0  0  0  0
   -6.0520   14.8010   -2.2090 N   0  0  0  0  0  0  0  0  0  0  0  0
   -4.5940   15.4940   -0.2440 C   0  0  0  0  0  0  0  0  0  0  0  0
   -4.8310   14.6200   -2.9840 C   0  0  0  0  0  0  0  0  0  0  0  0
   -3.3770   15.2870   -1.0550 N   0  0  0  0  0  0  0  0  0  0  0  0
   -3.6090   14.3080   -2.1090 C   0  0  0  0  0  0  0  0  0  0  0  0
   -2.2710   14.8820   -0.1850 C   0  0  2  0  0  0  0  0  0  0  0  0
   -1.0540   14.2550   -0.9600 C   0  0  1  0  0  0  0  0  0  0  0  0
   -2.6480   13.9650    0.9390 C   0  0  0  0  0  0  0  0  0  0  0  0
   -0.5920   14.9130   -2.2950 C   0  0  1  0  0  0  0  0  0  0  0  0
    0.1150   14.1480    0.0150 C   0  0  0  0  0  0  0  0  0  0  0  0
   -1.5420   13.9150    1.8760 N   0  0  0  0  0  0  0  0  0  0  0  0
    0.3040   14.0530   -2.9600 O   0  0  0  0  0  0  0  0  0  0  0  0
   -1.5490   15.0420   -3.1900 O   0  0  0  0  0  0  0  0  0  0  0  0
   -0.3470   14.5960    1.3890 C   0  0  0  0  0  0  0  0  0  0  0  0
  2  1  1  1
  2  3  1  0
  2  4  1  0
  4  5  1  0
  4  6  1  1
  5  7  1  0
  6  8  1  0
  7  9  1  0
  8  9  1  0
 10  8  1  6
 10 11  1  0
 10 12  1  0
 11 13  1  0
 11 14  1  1
 12 15  1  0
 13 16  1  6
 13 17  1  0
 14 18  1  0
 15 18  1  0
M  CHG  1  17  -1
M  END
