ucsf516-ucsf424
     RDKit          3D

 31 36  0  0  0  0  0  0  0  0999 V2000
    1.5130   13.1670   -3.9200 O   0  0  0  0  0  0  0  0  0  0  0  0
    1.0020   12.2970   -4.7660 C   0  0  1  0  0  0  0  0  0  0  0  0
    0.7950   11.1970   -3.9270 O   0  0  0  0  0  0  0  0  0  0  0  0
   -0.4460   12.6190   -5.3010 C   0  0  1  0  0  0  0  0  0  0  0  0
   -1.2070   13.7660   -4.5100 C   0  0  1  0  0  0  0  0  0  0  0  0
   -0.6720   11.9410   -6.6780 C   0  0  1  0  0  0  0  0  0  0  0  0
   -0.4290   14.5460   -3.5190 C   0  0  2  0  0  0  0  0  0  0  0  0
   -2.1740   14.8140   -4.9880 C   0  0  0  0  0  0  0  0  0  0  0  0
    0.6040   11.6630   -7.3890 N   0  0  0  0  0  0  0  0  0  0  0  0
   -1.0860   10.4860   -6.4190 C   0  0  2  0  0  0  0  0  0  0  0  0
    0.3180   13.3670   -2.9270 C   0  0  0  0  0  0  0  0  0  0  0  0
   -1.4750   15.1260   -2.6580 N   0  0  0  0  0  0  0  0  0  0  0  0
   -2.6790   15.1720   -3.5770 C   0  0  0  0  0  0  0  0  0  0  0  0
    0.2830   10.5920   -8.3070 O   0  0  0  0  0  0  0  0  0  0  0  0
   -0.3920    9.6420   -7.4830 C   0  0  2  0  0  0  0  0  0  0  0  0
   -2.6030   10.2620   -6.4020 C   0  0  0  0  0  0  0  0  0  0  0  0
    1.0450   13.1140   -1.6060 C   0  0  0  0  0  0  0  0  0  0  0  0
   -0.5320   12.1340   -2.5060 C   0  0  0  0  0  0  0  0  0  0  0  0
   -1.4860   14.4250   -1.3500 C   0  0  1  0  0  0  0  0  0  0  0  0
   -1.3450    8.7770   -8.2820 C   0  0  0  0  0  0  0  0  0  0  0  0
   -2.9680    8.7950   -6.2990 C   0  0  0  0  0  0  0  0  0  0  0  0
    0.8400   11.6620   -2.1010 C   0  0  0  0  0  0  0  0  0  0  0  0
   -0.3960   14.9990   -0.5620 N   0  0  0  0  0  0  0  0  0  0  0  0
   -2.8370   14.3650   -0.6070 C   0  0  1  0  0  0  0  0  0  0  0  0
   -2.2800    7.9650   -7.3790 C   0  0  0  0  0  0  0  0  0  0  0  0
   -0.3610   14.7370    0.8390 C   0  0  0  0  0  0  0  0  0  0  0  0
   -2.7210   14.5520    0.9090 C   0  0  1  0  0  0  0  0  0  0  0  0
   -3.9460   15.2870   -1.0690 C   0  0  0  0  0  0  0  0  0  0  0  0
   -1.5670   15.2350    1.4170 N   0  0  0  0  0  0  0  0  0  0  0  0
   -3.8660   15.3280    1.3360 N   0  0  0  0  0  0  0  0  0  0  0  0
   -4.7460   15.5510    0.1890 C   0  0  0  0  0  0  0  0  0  0  0  0
  2  1  1  1
  2  3  1  0
  4  2  1  6
  4  5  1  0
  4  6  1  0
  5  7  1  0
  5  8  1  6
  6  9  1  6
  6 10  1  0
  7 11  1  1
  7 12  1  0
  8 13  1  0
 12 13  1  0
  9 14  1  0
 10 15  1  0
 14 15  1  0
 10 16  1  6
 11 17  1  0
 11 18  1  0
 19 12  1  6
 15 20  1  6
 16 21  1  0
 17 22  1  0
 18 22  1  0
 19 23  1  0
 19 24  1  0
 20 25  1  0
 21 25  1  0
 23 26  1  0
 24 27  1  0
 24 28  1  6
 26 29  1  0
 27 29  1  6
 27 30  1  0
 28 31  1  0
 30 31  1  0
M  CHG  1   1  -1
M  END
