ucsf006-ucsf320
     RDKit          3D

 23 25  0  0  0  0  0  0  0  0999 V2000
   -2.1230   15.9740   -3.5810 C   0  0  0  0  0  0  0  0  0  0  0  0
   -1.9210   14.7790   -2.6180 C   0  0  1  0  0  0  0  0  0  0  0  0
   -0.6920   13.9230   -3.1500 C   0  0  0  0  0  0  0  0  0  0  0  0
   -1.5460   15.3020   -1.1910 C   0  0  1  0  0  0  0  0  0  0  0  0
   -3.3150   13.9820   -2.5110 C   0  0  1  0  0  0  0  0  0  0  0  0
    0.0940   14.3810   -4.4040 C   0  0  0  0  0  0  0  0  0  0  0  0
   -2.6990   14.9920   -0.2310 C   0  0  1  0  0  0  0  0  0  0  0  0
   -0.2570   14.7260   -0.6890 N   0  0  0  0  0  0  0  0  0  0  0  0
   -3.6620   13.3960   -1.1000 C   0  0  0  0  0  0  0  0  0  0  0  0
   -4.5800   14.6220   -3.1380 C   0  0  0  0  0  0  0  0  0  0  0  0
    0.8770   13.1830   -4.9880 C   0  0  2  0  0  0  0  0  0  0  0  0
   -2.1600   14.5540    1.0970 C   0  0  1  0  0  0  0  0  0  0  0  0
    0.0360   14.8770    0.7140 C   0  0  0  0  0  0  0  0  0  0  0  0
   -3.7170   15.9930    0.2120 C   0  0  0  0  0  0  0  0  0  0  0  0
   -5.1360   13.4510   -0.6760 C   0  0  0  0  0  0  0  0  0  0  0  0
   -5.3620   15.4920   -2.1540 C   0  0  0  0  0  0  0  0  0  0  0  0
   -0.0540   12.2030   -5.4060 O   0  0  0  0  0  0  0  0  0  0  0  0
    1.5110   12.5550   -4.0150 O   0  0  0  0  0  0  0  0  0  0  0  0
   -1.0980   15.3840    1.4030 N   0  0  0  0  0  0  0  0  0  0  0  0
   -3.2100   14.7440    2.0700 N   0  0  0  0  0  0  0  0  0  0  0  0
   -4.3600   15.2790    1.3690 C   0  0  0  0  0  0  0  0  0  0  0  0
   -5.7990   14.8090   -0.8740 C   0  0  1  0  0  0  0  0  0  0  0  0
   -7.2200   14.6800   -0.8270 O   0  0  0  0  0  0  0  0  0  0  0  0
  2  1  1  6
  2  3  1  0
  2  4  1  0
  2  5  1  0
  3  6  1  0
  4  7  1  0
  4  8  1  1
  5  9  1  1
  5 10  1  0
  6 11  1  0
  7 12  1  0
  8 13  1  0
  7 14  1  1
  9 15  1  0
 10 16  1  0
 11 17  1  1
 11 18  1  0
 12 19  1  1
 13 19  1  0
 12 20  1  0
 14 21  1  0
 20 21  1  0
 15 22  1  0
 16 22  1  0
 22 23  1  6
M  CHG  1  18  -1
M  END
