ucsf392-ucsf135
     RDKit          3D

 23 25  0  0  0  0  0  0  0  0999 V2000
   -4.7950   15.6180   -1.0000 C   0  0  0  0  0  0  0  0  0  0  0  0
   -3.7370   14.6360   -0.5060 C   0  0  1  0  0  0  0  0  0  0  0  0
   -2.5160   14.4060   -1.4280 C   0  0  1  0  0  0  0  0  0  0  0  0
   -3.3480   14.8290    0.9680 C   0  0  2  0  0  0  0  0  0  0  0  0
   -4.3280   15.5020    1.7780 N   0  0  0  0  0  0  0  0  0  0  0  0
   -2.7280   14.5410   -2.9570 C   0  0  0  0  0  0  0  0  0  0  0  0
   -2.1910   15.6410    1.1580 N   0  0  0  0  0  0  0  0  0  0  0  0
   -1.3580   15.2280   -1.0400 N   0  0  0  0  0  0  0  0  0  0  0  0
   -1.7000   13.7930   -3.8250 C   0  0  0  0  0  0  0  0  0  0  0  0
   -1.0300   15.3640    0.3650 C   0  0  2  0  0  0  0  0  0  0  0  0
   -0.1650   14.2530    0.9440 C   0  0  0  0  0  0  0  0  0  0  0  0
   -1.8960   12.3750   -3.8130 O   0  0  0  0  0  0  0  0  0  0  0  0
   -0.7830   11.3820   -4.4010 S   0  0  2  0  0  0  0  0  0  0  0  0
   -0.4030   10.2560   -3.3390 O   0  0  0  0  0  0  0  0  0  0  0  0
    0.5420   12.0600   -5.1160 N   0  0  0  0  0  0  0  0  0  0  0  0
   -1.5490   10.5770   -5.8030 C   0  0  1  0  0  0  0  0  0  0  0  0
    0.4960   11.7830   -6.5460 C   0  0  2  0  0  0  0  0  0  0  0  0
   -0.3230   10.4590   -6.7220 C   0  0  2  0  0  0  0  0  0  0  0  0
   -2.1720    9.2130   -5.5940 C   0  0  0  0  0  0  0  0  0  0  0  0
    1.7860   11.7110   -7.0490 O   0  0  0  0  0  0  0  0  0  0  0  0
   -1.9760    8.3170   -6.8260 C   0  0  0  0  0  0  0  0  0  0  0  0
   -0.6890   10.0980   -8.1600 C   0  0  0  0  0  0  0  0  0  0  0  0
   -1.8110    9.0530   -8.1680 C   0  0  0  0  0  0  0  0  0  0  0  0
  2  1  1  6
  2  3  1  0
  2  4  1  0
  4  5  1  1
  3  6  1  6
  4  7  1  0
  3  8  1  0
  6  9  1  0
  7 10  1  0
  8 10  1  0
 10 11  1  1
  9 12  1  0
 13 12  1  0
 13 14  1  1
 13 15  1  0
 13 16  1  0
 15 17  1  0
 16 18  1  0
 17 18  1  0
 16 19  1  1
 17 20  1  1
 19 21  1  0
 18 22  1  6
 21 23  1  0
 22 23  1  0
M  END
