ucsf336-ucsf030
     RDKit          3D

 29 32  0  0  0  0  0  0  0  0999 V2000
    1.6550   13.4300   -4.8530 O   0  0  0  0  0  0  0  0  0  0  0  0
    1.0910   12.7670   -3.8620 C   0  0  2  0  0  0  0  0  0  0  0  0
    2.1780   12.1300   -3.2470 O   0  0  0  0  0  0  0  0  0  0  0  0
    0.0220   11.7120   -4.3690 C   0  0  2  0  0  0  0  0  0  0  0  0
    0.4180   13.6360   -2.8510 C   0  0  2  0  0  0  0  0  0  0  0  0
    0.1140   10.5480   -3.5340 O   0  0  0  0  0  0  0  0  0  0  0  0
    0.2490   11.3690   -5.7550 N   0  0  0  0  0  0  0  0  0  0  0  0
    0.3500   15.2200   -2.5650 C   0  0  2  0  0  0  0  0  0  0  0  0
    1.1220   13.4090   -1.5220 C   0  0  0  0  0  0  0  0  0  0  0  0
   -0.9080   10.7910   -6.3990 C   0  0  0  0  0  0  0  0  0  0  0  0
    0.7510   15.9830   -3.8300 C   0  0  0  0  0  0  0  0  0  0  0  0
    1.4330   14.8780   -1.4560 C   0  0  0  0  0  0  0  0  0  0  0  0
   -0.9500   15.6270   -1.9960 N   0  0  0  0  0  0  0  0  0  0  0  0
   -0.4700    9.9430   -7.5960 C   0  0  0  0  0  0  0  0  0  0  0  0
   -1.6800    9.9300   -5.3710 C   0  0  0  0  0  0  0  0  0  0  0  0
   -1.6570   14.6480   -1.1480 C   0  0  2  0  0  0  0  0  0  0  0  0
   -1.8520   15.9400   -3.1370 C   0  0  0  0  0  0  0  0  0  0  0  0
   -0.1730   15.5810   -4.9790 C   0  0  0  0  0  0  0  0  0  0  0  0
   -1.2200    8.6170   -7.7090 C   0  0  0  0  0  0  0  0  0  0  0  0
   -2.9050    9.2040   -5.9220 C   0  0  0  0  0  0  0  0  0  0  0  0
   -2.8250   15.3680   -0.4480 C   0  0  1  0  0  0  0  0  0  0  0  0
   -0.8160   13.9080   -0.2150 N   0  0  0  0  0  0  0  0  0  0  0  0
   -1.5530   15.2090   -4.4540 C   0  0  0  0  0  0  0  0  0  0  0  0
   -4.3790   15.1700   -1.3710 Cl  0  0  0  0  0  0  0  0  0  0  0  0
   -2.6980    8.6980   -7.3400 C   0  0  0  0  0  0  0  0  0  0  0  0
   -2.9880   14.8040    0.9560 C   0  0  2  0  0  0  0  0  0  0  0  0
   -0.5410   14.5730    1.0250 C   0  0  0  0  0  0  0  0  0  0  0  0
   -3.9150   15.5260    1.8010 N   0  0  0  0  0  0  0  0  0  0  0  0
   -1.7800   14.7700    1.7390 N   0  0  0  0  0  0  0  0  0  0  0  0
  2  1  1  6
  2  3  1  0
  2  4  1  0
  2  5  1  0
  4  6  1  1
  4  7  1  0
  5  8  1  0
  5  9  1  1
  7 10  1  0
  8 11  1  6
  8 12  1  0
  9 12  1  0
  8 13  1  0
 10 14  1  0
 10 15  1  0
 16 13  1  1
 13 17  1  0
 11 18  1  0
 14 19  1  0
 15 20  1  0
 16 21  1  0
 16 22  1  0
 17 23  1  0
 18 23  1  0
 21 24  1  6
 19 25  1  0
 20 25  1  0
 21 26  1  0
 22 27  1  0
 26 28  1  1
 26 29  1  0
 27 29  1  0
M  CHG  1   1  -1
M  END
