ucsf380-ucsf412
     RDKit          3D

 22 24  0  0  0  0  0  0  0  0999 V2000
    0.9820   14.9070   -1.4020 O   0  0  0  0  0  0  0  0  0  0  0  0
    0.2820   13.8170   -1.6590 C   0  0  1  0  0  0  0  0  0  0  0  0
    0.1270   13.2940   -0.3580 O   0  0  0  0  0  0  0  0  0  0  0  0
   -1.0720   14.2520   -2.3800 C   0  0  2  0  0  0  0  0  0  0  0  0
   -2.2640   14.9050   -1.5450 C   0  0  2  0  0  0  0  0  0  0  0  0
   -1.5410   13.1500   -3.4180 C   0  0  0  0  0  0  0  0  0  0  0  0
   -2.8180   14.2250   -0.2240 C   0  0  0  0  0  0  0  0  0  0  0  0
   -3.4020   15.2210   -2.5760 C   0  0  0  0  0  0  0  0  0  0  0  0
   -2.3590   11.9760   -2.8540 C   0  0  0  0  0  0  0  0  0  0  0  0
   -0.4680   12.6830   -4.3980 C   0  0  0  0  0  0  0  0  0  0  0  0
   -4.2300   14.7270    0.2380 C   0  0  1  0  0  0  0  0  0  0  0  0
   -4.7320   15.4590   -1.9410 C   0  0  0  0  0  0  0  0  0  0  0  0
   -2.9910   11.1780   -4.0000 C   0  0  0  0  0  0  0  0  0  0  0  0
   -1.1160   11.9430   -5.5600 C   0  0  0  0  0  0  0  0  0  0  0  0
   -4.4450   15.9460   -0.5710 C   0  0  0  0  0  0  0  0  0  0  0  0
   -1.9750   10.7760   -5.0710 C   0  0  0  0  0  0  0  0  0  0  0  0
   -5.4030   13.8060   -0.1520 C   0  0  0  0  0  0  0  0  0  0  0  0
   -4.4090   15.1180    1.7090 C   0  0  0  0  0  0  0  0  0  0  0  0
   -6.7060   14.5980   -0.0030 C   0  0  1  0  0  0  0  0  0  0  0  0
   -5.7880   14.6500    2.2150 C   0  0  0  0  0  0  0  0  0  0  0  0
   -7.8480   13.9140   -0.4680 O   0  0  0  0  0  0  0  0  0  0  0  0
   -6.9480   14.8870    1.3750 N   0  0  0  0  0  0  0  0  0  0  0  0
  2  1  1  1
  2  3  1  0
  2  4  1  0
  4  5  1  0
  4  6  1  1
  5  7  1  1
  5  8  1  0
  6  9  1  0
  6 10  1  0
 11  7  1  1
  8 12  1  0
  9 13  1  0
 10 14  1  0
 11 15  1  0
 12 15  1  0
 13 16  1  0
 14 16  1  0
 11 17  1  0
 11 18  1  0
 17 19  1  0
 18 20  1  0
 19 21  1  1
 19 22  1  0
 20 22  1  0
M  CHG  1   1  -1
M  END
