ucsf173-ucsf396
     RDKit          3D

 22 24  0  0  0  0  0  0  0  0999 V2000
    0.1940   12.8130   -1.2240 O   0  0  0  0  0  0  0  0  0  0  0  0
    0.6120   12.6300   -2.4620 C   0  0  1  0  0  0  0  0  0  0  0  0
    0.0230   11.3730   -2.7340 O   0  0  0  0  0  0  0  0  0  0  0  0
    0.0540   13.6690   -3.5060 C   0  0  1  0  0  0  0  0  0  0  0  0
   -1.3440   14.3800   -3.3770 C   0  0  1  0  0  0  0  0  0  0  0  0
    0.9700   14.9040   -3.6800 C   0  0  0  0  0  0  0  0  0  0  0  0
   -1.6810   15.0950   -2.0240 C   0  0  0  0  0  0  0  0  0  0  0  0
   -1.2550   15.3100   -4.6310 C   0  0  2  0  0  0  0  0  0  0  0  0
    0.2160   15.7720   -4.7050 C   0  0  1  0  0  0  0  0  0  0  0  0
   -2.7480   14.3850   -1.2820 N   0  0  0  0  0  0  0  0  0  0  0  0
   -2.2900   16.4260   -4.8330 C   0  0  0  0  0  0  0  0  0  0  0  0
    0.3840   17.2810   -4.5530 C   0  0  0  0  0  0  0  0  0  0  0  0
   -3.5210   15.1690   -0.3220 C   0  0  2  0  0  0  0  0  0  0  0  0
   -1.8720   17.6650   -5.6430 C   0  0  0  0  0  0  0  0  0  0  0  0
   -0.3880   18.0100   -5.6370 C   0  0  0  0  0  0  0  0  0  0  0  0
   -2.8500   15.1090    0.9300 O   0  0  0  0  0  0  0  0  0  0  0  0
   -4.9680   14.6230   -0.2050 C   0  0  2  0  0  0  0  0  0  0  0  0
   -5.9340   15.3810   -1.1030 C   0  0  0  0  0  0  0  0  0  0  0  0
   -5.5010   14.5620    1.2280 C   0  0  0  0  0  0  0  0  0  0  0  0
   -7.2320   14.7000   -1.1360 N   0  0  0  0  0  0  0  0  0  0  0  0
   -7.0150   14.3130    1.3590 C   0  0  0  0  0  0  0  0  0  0  0  0
   -7.8970   14.7220    0.1690 C   0  0  0  0  0  0  0  0  0  0  0  0
  2  1  1  1
  2  3  1  0
  2  4  1  0
  4  5  1  0
  4  6  1  1
  5  7  1  1
  5  8  1  0
  9  6  1  1
  8  9  1  0
  7 10  1  0
  8 11  1  1
  9 12  1  0
 10 13  1  0
 11 14  1  0
 12 15  1  0
 14 15  1  0
 13 16  1  1
 13 17  1  0
 17 18  1  6
 17 19  1  0
 18 20  1  0
 19 21  1  0
 20 22  1  0
 21 22  1  0
M  CHG  1   1  -1
M  END
