ucsf345-ucsf151
     RDKit          3D

 18 19  0  0  0  0  0  0  0  0999 V2000
   -6.3210   14.7890    1.3950 N   0  0  0  0  0  0  0  0  0  0  0  0
   -6.4010   14.8390   -0.0610 C   0  0  2  0  0  0  0  0  0  0  0  0
   -7.5680   14.1010   -0.3610 O   0  0  0  0  0  0  0  0  0  0  0  0
   -5.1620   14.3310   -0.8750 C   0  0  1  0  0  0  0  0  0  0  0  0
   -5.3660   14.3320   -2.3270 N   0  0  0  0  0  0  0  0  0  0  0  0
   -3.8260   15.0120   -0.5010 C   0  0  0  0  0  0  0  0  0  0  0  0
   -4.1900   13.7600   -3.0180 C   0  0  0  0  0  0  0  0  0  0  0  0
   -2.9330   15.4130   -1.6300 N   0  0  0  0  0  0  0  0  0  0  0  0
   -2.8180   14.4990   -2.8370 C   0  0  1  0  0  0  0  0  0  0  0  0
   -1.4340   13.6860   -2.8540 C   0  0  1  0  0  0  0  0  0  0  0  0
   -2.5260   15.2330   -4.2440 C   0  0  2  0  0  0  0  0  0  0  0  0
   -0.4550   13.5740   -1.6330 C   0  0  1  0  0  0  0  0  0  0  0  0
   -3.4740   16.1680   -4.7630 O   0  0  0  0  0  0  0  0  0  0  0  0
   -2.3310   14.1870   -5.3730 C   0  0  0  0  0  0  0  0  0  0  0  0
   -1.6210   12.4560   -3.7540 C   0  0  0  0  0  0  0  0  0  0  0  0
    0.0930   12.3780   -1.4640 O   0  0  0  0  0  0  0  0  0  0  0  0
    0.6860   14.3780   -1.9390 O   0  0  0  0  0  0  0  0  0  0  0  0
   -2.4900   12.7840   -4.9180 N   0  0  0  0  0  0  0  0  0  0  0  0
  2  1  1  1
  2  3  1  0
  2  4  1  0
  4  5  1  0
  4  6  1  6
  5  7  1  0
  6  8  1  0
  9  7  1  6
  9  8  1  0
  9 10  1  0
  9 11  1  0
 10 12  1  0
 11 13  1  6
 11 14  1  0
 10 15  1  1
 12 16  1  6
 12 17  1  0
 14 18  1  0
 15 18  1  0
M  CHG  1  16  -1
M  END
