ucsf016
     RDKit          3D

 17 20  0  0  0  0  0  0  0  0999 V2000
   -3.3970   13.7630   -4.7770 C   0  0  0  0  0  0  0  0  0  0  0  0
   -3.2360   15.0280   -5.6380 C   0  0  0  0  0  0  0  0  0  0  0  0
   -2.0830   14.5440   -4.7480 C   0  0  2  0  0  0  0  0  0  0  0  0
   -0.9080   13.9800   -5.4410 C   0  0  0  0  0  0  0  0  0  0  0  0
    0.0210   13.3590   -4.5130 C   0  0  0  0  0  0  0  0  0  0  0  0
    0.4470   14.3140   -3.3950 C   0  0  0  0  0  0  0  0  0  0  0  0
   -0.7340   14.9650   -2.6990 N   0  0  0  0  0  0  0  0  0  0  0  0
   -1.7070   15.5550   -3.6950 C   0  0  0  0  0  0  0  0  0  0  0  0
   -0.9050   14.9660   -1.2500 C   0  0  0  0  0  0  0  0  0  0  0  0
    0.1480   14.8290   -0.4550 N   0  0  0  0  0  0  0  0  0  0  0  0
    0.0410   14.7980    0.8560 C   0  0  0  0  0  0  0  0  0  0  0  0
   -1.1230   14.9310    1.4370 N   0  0  0  0  0  0  0  0  0  0  0  0
   -2.2560   15.0870    0.7270 C   0  0  0  0  0  0  0  0  0  0  0  0
   -3.5700   15.2500    1.1060 N   0  0  0  0  0  0  0  0  0  0  0  0
   -4.3330   15.3570    0.0030 C   0  0  0  0  0  0  0  0  0  0  0  0
   -3.5030   15.2690   -1.1030 C   0  0  0  0  0  0  0  0  0  0  0  0
   -2.1890   15.1050   -0.6320 C   0  0  0  0  0  0  0  0  0  0  0  0
  1  2  1  0
  3  1  1  1
  2  3  1  0
  3  4  1  0
  4  5  1  0
  5  6  1  0
  6  7  1  0
  3  8  1  0
  7  8  1  0
  7  9  1  0
  9 10  1  0
 10 11  1  0
 11 12  1  0
 12 13  1  0
 13 14  1  0
 14 15  1  0
 15 16  1  0
  9 17  1  0
 13 17  1  0
 16 17  1  0
M  END
