ucsf333-ucsf264
     RDKit          3D

 28 31  0  0  0  0  0  0  0  0999 V2000
   -6.5330   15.1460   -1.2390 Cl  0  0  0  0  0  0  0  0  0  0  0  0
   -4.8020   15.5620   -1.0480 C   0  0  2  0  0  0  0  0  0  0  0  0
   -4.0750   15.2700   -2.3580 C   0  0  0  0  0  0  0  0  0  0  0  0
   -4.2090   14.9000    0.2020 C   0  0  0  0  0  0  0  0  0  0  0  0
   -2.7370   14.5390   -2.3070 C   0  0  1  0  0  0  0  0  0  0  0  0
   -2.6840   14.8930    0.2990 C   0  0  0  0  0  0  0  0  0  0  0  0
   -1.8240   15.0810   -3.3310 N   0  0  0  0  0  0  0  0  0  0  0  0
   -1.9830   14.3600   -0.9530 C   0  0  2  0  0  0  0  0  0  0  0  0
   -0.5970   14.3970   -2.9890 C   0  0  2  0  0  0  0  0  0  0  0  0
   -0.2550   14.8660   -1.2740 S   0  0  0  0  0  0  0  0  0  0  0  0
    0.4290   14.2290   -4.1070 C   0  0  0  0  0  0  0  0  0  0  0  0
    0.4100   12.6950   -4.3100 C   0  0  2  0  0  0  0  0  0  0  0  0
    1.3470   12.0310   -3.2130 C   0  0  1  0  0  0  0  0  0  0  0  0
    0.1060   12.0310   -5.6740 N   0  0  0  0  0  0  0  0  0  0  0  0
    1.3620   12.6540   -2.0510 O   0  0  0  0  0  0  0  0  0  0  0  0
    0.7520   10.8020   -2.8060 O   0  0  0  0  0  0  0  0  0  0  0  0
    1.1690   11.7870   -6.6650 N   0  0  0  0  0  0  0  0  0  0  0  0
   -0.6410   10.7600   -5.6010 C   0  0  2  0  0  0  0  0  0  0  0  0
    0.3990   11.1160   -7.7510 C   0  0  2  0  0  0  0  0  0  0  0  0
   -0.3670   10.0750   -6.9550 C   0  0  2  0  0  0  0  0  0  0  0  0
   -2.1540   10.9370   -5.3650 C   0  0  0  0  0  0  0  0  0  0  0  0
    1.0850   10.4300   -8.9370 C   0  0  0  0  0  0  0  0  0  0  0  0
   -1.5980    9.5120   -7.6420 C   0  0  0  0  0  0  0  0  0  0  0  0
   -2.9490    9.6370   -5.4950 C   0  0  0  0  0  0  0  0  0  0  0  0
    1.7520    9.2970   -8.6220 F   0  0  0  0  0  0  0  0  0  0  0  0
    0.1650   10.0750   -9.8680 F   0  0  0  0  0  0  0  0  0  0  0  0
    1.8930   11.2300   -9.5980 F   0  0  0  0  0  0  0  0  0  0  0  0
   -2.4950    8.7660   -6.6660 C   0  0  0  0  0  0  0  0  0  0  0  0
  2  1  1  6
  2  3  1  0
  2  4  1  0
  5  3  1  1
  4  6  1  0
  5  7  1  0
  5  8  1  0
  8  6  1  1
  7  9  1  0
  8 10  1  0
  9 10  1  0
  9 11  1  6
 12 11  1  6
 12 13  1  0
 12 14  1  0
 13 15  1  1
 13 16  1  0
 14 17  1  0
 14 18  1  0
 17 19  1  0
 18 20  1  0
 19 20  1  0
 18 21  1  6
 19 22  1  6
 20 23  1  6
 21 24  1  0
 22 25  1  0
 22 26  1  0
 22 27  1  0
 23 28  1  0
 24 28  1  0
M  CHG  1  15  -1
M  END
