ucsf411-ucsf247
     RDKit          3D

 26 28  0  0  0  0  0  0  0  0999 V2000
    0.6200   10.5140   -2.2290 O   0  0  0  0  0  0  0  0  0  0  0  0
    0.0320   11.6900   -2.1810 C   0  0  1  0  0  0  0  0  0  0  0  0
    0.7210   12.4110   -1.2120 O   0  0  0  0  0  0  0  0  0  0  0  0
   -0.0760   12.5010   -3.5160 C   0  0  2  0  0  0  0  0  0  0  0  0
    0.6520   13.7150   -3.8300 O   0  0  0  0  0  0  0  0  0  0  0  0
   -1.4890   13.1610   -3.3200 C   0  0  0  0  0  0  0  0  0  0  0  0
   -1.5380   14.2240   -2.2850 N   0  0  0  0  0  0  0  0  0  0  0  0
   -0.4410   14.5140   -4.2600 C   0  0  1  0  0  0  0  0  0  0  0  0
   -2.7170   15.0700   -2.2910 C   0  0  1  0  0  0  0  0  0  0  0  0
   -0.2690   16.0240   -4.4060 C   0  0  2  0  0  0  0  0  0  0  0  0
   -1.0260   13.8710   -5.5010 C   0  0  0  0  0  0  0  0  0  0  0  0
   -3.4340   14.9150   -3.5020 O   0  0  0  0  0  0  0  0  0  0  0  0
   -1.6190   16.7000   -4.7900 C   0  0  2  0  0  0  0  0  0  0  0  0
   -2.4480   14.3610   -5.7920 C   0  0  0  0  0  0  0  0  0  0  0  0
    0.9610   16.5170   -5.1420 C   0  0  0  0  0  0  0  0  0  0  0  0
   -3.6100   14.6510   -1.1140 C   0  0  2  0  0  0  0  0  0  0  0  0
   -2.6660   15.8690   -5.5950 C   0  0  0  0  0  0  0  0  0  0  0  0
   -1.5460   18.1160   -5.3830 C   0  0  0  0  0  0  0  0  0  0  0  0
    0.9690   18.0020   -5.4430 C   0  0  0  0  0  0  0  0  0  0  0  0
   -5.1070   14.7240   -1.4650 C   0  0  0  0  0  0  0  0  0  0  0  0
   -3.2630   15.4630    0.1470 C   0  0  0  0  0  0  0  0  0  0  0  0
   -0.2890   18.4290   -6.1680 C   0  0  0  0  0  0  0  0  0  0  0  0
   -5.9220   15.2890   -0.3310 C   0  0  1  0  0  0  0  0  0  0  0  0
   -4.0590   15.0710    1.3730 C   0  0  0  0  0  0  0  0  0  0  0  0
   -7.3080   15.0100   -0.5490 O   0  0  0  0  0  0  0  0  0  0  0  0
   -5.4970   14.7230    1.0250 C   0  0  0  0  0  0  0  0  0  0  0  0
  2  1  1  6
  2  3  1  0
  2  4  1  0
  4  5  1  0
  4  6  1  1
  6  7  1  0
  8  5  1  6
  7  9  1  0
  8 10  1  0
  8 11  1  0
  9 12  1  6
 10 13  1  0
 11 14  1  0
 10 15  1  6
  9 16  1  0
 13 17  1  6
 14 17  1  0
 13 18  1  0
 15 19  1  0
 16 20  1  6
 16 21  1  0
 18 22  1  0
 19 22  1  0
 20 23  1  0
 21 24  1  0
 23 25  1  6
 23 26  1  0
 24 26  1  0
M  CHG  1   1  -1
M  END
