ucsf274-ucsf109
     RDKit          3D

 30 34  0  0  0  0  0  0  0  0999 V2000
    0.4540   10.9120   -2.4130 O   0  0  0  0  0  0  0  0  0  0  0  0
    1.0030   12.1250   -2.3490 C   0  0  2  0  0  0  0  0  0  0  0  0
    0.5370   12.5500   -1.0930 O   0  0  0  0  0  0  0  0  0  0  0  0
    0.4390   13.1720   -3.3510 C   0  0  0  0  0  0  0  0  0  0  0  0
    0.7440   12.9290   -4.8440 C   0  0  0  0  0  0  0  0  0  0  0  0
   -0.3870   12.2410   -5.6250 C   0  0  2  0  0  0  0  0  0  0  0  0
   -1.6520   11.9200   -4.7240 C   0  0  1  0  0  0  0  0  0  0  0  0
    0.1940   11.0430   -6.2580 N   0  0  0  0  0  0  0  0  0  0  0  0
   -2.6350   12.9760   -4.6940 O   0  0  0  0  0  0  0  0  0  0  0  0
   -2.3660   10.6490   -5.0490 N   0  0  0  0  0  0  0  0  0  0  0  0
   -0.7890   10.3600   -7.1010 C   0  0  2  0  0  0  0  0  0  0  0  0
   -2.5080   14.0840   -3.7570 C   0  0  0  0  0  0  0  0  0  0  0  0
   -2.1540   10.0420   -6.3880 C   0  0  1  0  0  0  0  0  0  0  0  0
   -0.1050    9.1190   -7.7040 C   0  0  0  0  0  0  0  0  0  0  0  0
   -1.0670    8.2260   -8.4710 C   0  0  0  0  0  0  0  0  0  0  0  0
   -2.3420    8.5210   -6.2640 C   0  0  0  0  0  0  0  0  0  0  0  0
   -3.5080   14.0100   -2.5840 C   0  0  1  0  0  0  0  0  0  0  0  0
   -2.2400    7.7760   -7.5980 C   0  0  0  0  0  0  0  0  0  0  0  0
   -3.2350   14.5150   -1.1740 C   0  0  0  0  0  0  0  0  0  0  0  0
   -4.8360   14.7350   -2.7850 C   0  0  0  0  0  0  0  0  0  0  0  0
   -5.5930   14.1220   -1.5970 C   0  0  1  0  0  0  0  0  0  0  0  0
   -4.4830   13.8710   -0.5430 C   0  0  2  0  0  0  0  0  0  0  0  0
   -4.8070   14.2150    0.9240 C   0  0  1  0  0  0  0  0  0  0  0  0
   -6.7680   14.8400   -1.1240 N   0  0  0  0  0  0  0  0  0  0  0  0
   -3.8160   15.0800    1.5530 N   0  0  0  0  0  0  0  0  0  0  0  0
   -6.1260   14.7720    1.1770 N   0  0  0  0  0  0  0  0  0  0  0  0
   -7.0570   14.3530    0.1900 C   0  0  1  0  0  0  0  0  0  0  0  0
   -8.3370   14.7850    0.6940 N   0  0  0  0  0  0  0  0  0  0  0  0
   -6.7960   14.3790    2.4210 N   0  0  0  0  0  0  0  0  0  0  0  0
   -8.2010   14.6770    2.1390 C   0  0  0  0  0  0  0  0  0  0  0  0
  2  1  1  6
  2  3  1  0
  2  4  1  0
  4  5  1  0
  6  5  1  1
  6  7  1  0
  6  8  1  0
  7  9  1  6
  7 10  1  0
  8 11  1  0
  9 12  1  0
 10 13  1  0
 11 13  1  0
 11 14  1  1
 14 15  1  0
 13 16  1  1
 17 12  1  6
 15 18  1  0
 16 18  1  0
 17 19  1  0
 17 20  1  0
 21 20  1  6
 22 19  1  6
 21 22  1  0
 22 23  1  0
 21 24  1  0
 23 25  1  6
 23 26  1  0
 27 24  1  6
 26 27  1  0
 27 28  1  0
 26 29  1  0
 28 30  1  0
 29 30  1  0
M  CHG  1   1  -1
M  END
