ucsf017-ucsf123
     RDKit          3D

 25 28  0  0  0  0  0  0  0  0999 V2000
   -1.8930   17.8430   -4.5660 N   0  0  0  0  0  0  0  0  0  0  0  0
   -1.7360   16.6280   -5.6070 S   0  0  0  0  0  0  0  0  0  0  0  0
   -0.2910   16.9540   -6.1950 O   0  0  0  0  0  0  0  0  0  0  0  0
   -2.7630   16.9160   -6.7840 O   0  0  0  0  0  0  0  0  0  0  0  0
   -1.9200   15.0370   -5.0110 N   0  0  0  0  0  0  0  0  0  0  0  0
   -1.2990   13.7200   -5.4390 C   0  0  0  0  0  0  0  0  0  0  0  0
   -2.2100   14.7950   -3.6200 C   0  0  0  0  0  0  0  0  0  0  0  0
   -0.9830   14.0380   -3.0850 C   0  0  1  0  0  0  0  0  0  0  0  0
   -0.5080   13.1110   -4.2150 C   0  0  1  0  0  0  0  0  0  0  0  0
   -0.8280   11.6970   -3.5560 C   0  0  2  0  0  0  0  0  0  0  0  0
    0.9810   13.1650   -4.4600 C   0  0  0  0  0  0  0  0  0  0  0  0
   -0.0790   14.4120   -1.9870 N   0  0  0  0  0  0  0  0  0  0  0  0
   -0.3730   11.7770   -2.1910 O   0  0  0  0  0  0  0  0  0  0  0  0
   -0.0480   10.7120   -3.9050 O   0  0  0  0  0  0  0  0  0  0  0  0
    1.6420   12.8210   -3.1400 C   0  0  0  0  0  0  0  0  0  0  0  0
    1.3170   13.9090   -2.1080 C   0  0  0  0  0  0  0  0  0  0  0  0
   -0.7170   14.0070   -0.7520 C   0  0  1  0  0  0  0  0  0  0  0  0
    0.1510   14.6240    0.2670 N   0  0  0  0  0  0  0  0  0  0  0  0
   -2.2650   14.1150   -0.3650 C   0  0  1  0  0  0  0  0  0  0  0  0
   -0.3440   14.3600    1.5580 C   0  0  0  0  0  0  0  0  0  0  0  0
   -2.5900   14.6320    1.0240 C   0  0  1  0  0  0  0  0  0  0  0  0
   -3.3040   14.8360   -1.2250 C   0  0  0  0  0  0  0  0  0  0  0  0
   -1.4850   15.1880    1.6620 N   0  0  0  0  0  0  0  0  0  0  0  0
   -3.6990   15.5750    0.9900 N   0  0  0  0  0  0  0  0  0  0  0  0
   -4.3900   15.2880   -0.2640 C   0  0  0  0  0  0  0  0  0  0  0  0
  1  2  1  0
  2  3  1  0
  2  4  1  0
  2  5  1  0
  5  6  1  0
  5  7  1  0
  8  7  1  6
  9  6  1  6
  8  9  1  0
  9 10  1  0
  9 11  1  0
  8 12  1  0
 10 13  1  1
 10 14  1  0
 11 15  1  0
 12 16  1  0
 15 16  1  0
 17 12  1  6
 17 18  1  0
 17 19  1  0
 18 20  1  0
 19 21  1  0
 19 22  1  6
 20 23  1  0
 21 23  1  6
 21 24  1  0
 22 25  1  0
 24 25  1  0
M  CHG  1  14  -1
M  END
