ucsf422-ucsf385
     RDKit          3D

 25 27  0  0  0  0  0  0  0  0999 V2000
    0.3530   11.0830   -2.6260 O   0  0  0  0  0  0  0  0  0  0  0  0
    1.1080   12.0210   -3.1930 C   0  0  2  0  0  0  0  0  0  0  0  0
    1.7280   12.8020   -2.1790 O   0  0  0  0  0  0  0  0  0  0  0  0
    0.2650   12.9400   -4.0960 C   0  0  0  0  0  0  0  0  0  0  0  0
    0.8130   13.6380   -1.4800 C   0  0  0  0  0  0  0  0  0  0  0  0
    0.6220   14.4330   -3.9500 C   0  0  1  0  0  0  0  0  0  0  0  0
    0.4640   14.7810   -2.2650 O   0  0  0  0  0  0  0  0  0  0  0  0
    1.6180   14.8190   -4.9850 C   0  0  0  0  0  0  0  0  0  0  0  0
   -0.4790   15.4370   -4.2230 C   0  0  1  0  0  0  0  0  0  0  0  0
   -0.9030   15.1730   -2.1290 C   0  0  1  0  0  0  0  0  0  0  0  0
    1.4520   16.2540   -5.3060 N   0  0  0  0  0  0  0  0  0  0  0  0
    0.2030   16.7000   -4.7180 C   0  0  1  0  0  0  0  0  0  0  0  0
   -1.6800   14.9360   -4.9680 C   0  0  0  0  0  0  0  0  0  0  0  0
   -1.6990   14.2710   -2.6790 O   0  0  0  0  0  0  0  0  0  0  0  0
   -0.5870   17.5600   -5.6940 C   0  0  0  0  0  0  0  0  0  0  0  0
   -2.6850   16.0300   -5.1430 C   0  0  2  0  0  0  0  0  0  0  0  0
   -1.1880   15.2080   -0.6090 C   0  0  1  0  0  0  0  0  0  0  0  0
   -4.1610   15.2800   -6.2050 Br  0  0  0  0  0  0  0  0  0  0  0  0
   -2.1150   17.3460   -5.7150 C   0  0  0  0  0  0  0  0  0  0  0  0
   -2.7080   15.2400   -0.2740 C   0  0  1  0  0  0  0  0  0  0  0  0
   -0.5440   14.0150    0.1350 C   0  0  0  0  0  0  0  0  0  0  0  0
   -3.6170   14.9950   -1.4100 N   0  0  0  0  0  0  0  0  0  0  0  0
   -0.7110   14.0780    1.6140 C   0  0  0  0  0  0  0  0  0  0  0  0
   -3.0260   14.3080    0.8890 C   0  0  0  0  0  0  0  0  0  0  0  0
   -2.0880   14.4670    1.9780 N   0  0  0  0  0  0  0  0  0  0  0  0
  2  1  1  1
  2  3  1  0
  2  4  1  0
  3  5  1  0
  6  4  1  6
  5  7  1  0
  6  8  1  0
  6  9  1  0
  7 10  1  0
  8 11  1  0
  9 12  1  0
 11 12  1  0
  9 13  1  6
 10 14  1  6
 12 15  1  6
 13 16  1  0
 10 17  1  0
 16 18  1  6
 15 19  1  0
 16 19  1  0
 17 20  1  0
 17 21  1  1
 20 22  1  6
 21 23  1  0
 20 24  1  0
 23 25  1  0
 24 25  1  0
M  CHG  2   1  -1  14  -1
M  END
