ucsf339-ucsf371
     RDKit          3D

 17 18  0  0  0  0  0  0  0  0999 V2000
    1.6270   14.4520   -2.9820 O   0  0  0  0  0  0  0  0  0  0  0  0
    0.4370   13.9720   -2.6820 C   0  0  1  0  0  0  0  0  0  0  0  0
    0.6910   13.3480   -1.4350 O   0  0  0  0  0  0  0  0  0  0  0  0
   -0.6100   15.1250   -2.5400 C   0  0  2  0  0  0  0  0  0  0  0  0
   -1.4590   14.9320   -1.2600 C   0  0  0  0  0  0  0  0  0  0  0  0
   -1.4880   15.4020   -3.7890 C   0  0  2  0  0  0  0  0  0  0  0  0
   -2.8200   14.2320   -1.4550 C   0  0  2  0  0  0  0  0  0  0  0  0
   -2.9190   15.6700   -3.5360 N   0  0  0  0  0  0  0  0  0  0  0  0
   -1.3640   14.3760   -4.7570 O   0  0  0  0  0  0  0  0  0  0  0  0
   -3.6530   14.7910   -2.5970 C   0  0  2  0  0  0  0  0  0  0  0  0
   -3.5940   14.1620   -0.1180 C   0  0  0  0  0  0  0  0  0  0  0  0
   -4.9210   15.4390   -1.9980 C   0  0  0  0  0  0  0  0  0  0  0  0
   -3.7520   15.4740    0.6530 C   0  0  0  0  0  0  0  0  0  0  0  0
   -4.9770   13.4750   -0.2850 C   0  0  0  0  0  0  0  0  0  0  0  0
   -4.3990   15.1750    1.9880 C   0  0  0  0  0  0  0  0  0  0  0  0
   -6.1210   14.2120    0.4160 C   0  0  0  0  0  0  0  0  0  0  0  0
   -5.7640   14.4940    1.8580 C   0  0  0  0  0  0  0  0  0  0  0  0
  2  1  1  1
  2  3  1  0
  2  4  1  0
  4  5  1  1
  4  6  1  0
  5  7  1  0
  6  8  1  0
  6  9  1  6
  7 10  1  0
  8 10  1  0
  7 11  1  1
 10 12  1  1
 11 13  1  0
 11 14  1  0
 13 15  1  0
 14 16  1  0
 15 17  1  0
 16 17  1  0
M  CHG  1   1  -1
M  END
