ucsf278-ucsf396
     RDKit          3D

 20 22  0  0  0  0  0  0  0  0999 V2000
   -2.2650   14.5140   -1.7670 C   0  0  0  0  0  0  0  0  0  0  0  0
   -2.8670   14.2870   -0.2990 C   0  0  1  0  0  0  0  0  0  0  0  0
   -2.3610   15.2550    0.6220 O   0  0  0  0  0  0  0  0  0  0  0  0
   -0.7800   14.0700   -2.2550 C   0  0  1  0  0  0  0  0  0  0  0  0
   -0.8240   13.5180   -3.7070 C   0  0  2  0  0  0  0  0  0  0  0  0
    0.3130   15.1910   -2.2190 C   0  0  0  0  0  0  0  0  0  0  0  0
   -4.4590   14.2480   -0.1500 C   0  0  2  0  0  0  0  0  0  0  0  0
   -1.0010   12.0040   -3.8040 C   0  0  0  0  0  0  0  0  0  0  0  0
    0.3940   13.8030   -4.6030 C   0  0  2  0  0  0  0  0  0  0  0  0
    1.7220   14.8210   -2.7560 C   0  0  0  0  0  0  0  0  0  0  0  0
   -5.2780   15.1550   -1.0800 C   0  0  0  0  0  0  0  0  0  0  0  0
   -4.9830   14.5700    1.2590 C   0  0  0  0  0  0  0  0  0  0  0  0
   -0.3740   11.6090   -5.1430 C   0  0  2  0  0  0  0  0  0  0  0  0
    0.4410   12.7460   -5.6110 N   0  0  0  0  0  0  0  0  0  0  0  0
    1.7210   13.7960   -3.8610 C   0  0  0  0  0  0  0  0  0  0  0  0
   -6.6850   14.7220   -1.1180 N   0  0  0  0  0  0  0  0  0  0  0  0
   -6.4910   14.2890    1.4070 C   0  0  0  0  0  0  0  0  0  0  0  0
   -1.4400   11.1900   -6.1730 C   0  0  0  0  0  0  0  0  0  0  0  0
   -7.3750   14.5820    0.1780 C   0  0  0  0  0  0  0  0  0  0  0  0
   -2.4160   10.3610   -5.5490 O   0  0  0  0  0  0  0  0  0  0  0  0
  1  2  1  0
  2  3  1  1
  4  1  1  6
  4  5  1  0
  4  6  1  0
  2  7  1  0
  5  8  1  1
  5  9  1  0
  6 10  1  0
  7 11  1  6
  7 12  1  0
  8 13  1  0
  9 14  1  0
 13 14  1  0
  9 15  1  1
 10 15  1  0
 11 16  1  0
 12 17  1  0
 13 18  1  6
 16 19  1  0
 17 19  1  0
 18 20  1  0
M  END
