ucsf403-ucsf320
     RDKit          3D

 24 25  0  0  0  0  0  0  0  0999 V2000
    0.7400    9.0530   -7.8940 Cl  0  0  0  0  0  0  0  0  0  0  0  0
   -0.7220    9.7360   -7.0830 C   0  0  2  0  0  0  0  0  0  0  0  0
   -0.4940   10.6350   -5.8440 C   0  0  1  0  0  0  0  0  0  0  0  0
   -1.6720    8.6150   -6.7020 C   0  0  0  0  0  0  0  0  0  0  0  0
    0.6100   11.5350   -6.0980 O   0  0  0  0  0  0  0  0  0  0  0  0
   -1.7910   11.4830   -5.6720 C   0  0  2  0  0  0  0  0  0  0  0  0
   -2.7290    9.0820   -5.6950 C   0  0  0  0  0  0  0  0  0  0  0  0
   -1.8010   12.4850   -4.4910 C   0  0  0  0  0  0  0  0  0  0  0  0
    1.0970   12.3960   -5.0370 C   0  0  0  0  0  0  0  0  0  0  0  0
   -3.0370   10.5910   -5.7130 C   0  0  0  0  0  0  0  0  0  0  0  0
    0.8160   12.0840   -3.5200 C   0  0  2  0  0  0  0  0  0  0  0  0
   -1.6350   13.9810   -4.8240 C   0  0  0  0  0  0  0  0  0  0  0  0
    1.8610   12.2870   -2.7530 O   0  0  0  0  0  0  0  0  0  0  0  0
    0.5190   10.7250   -3.2660 O   0  0  0  0  0  0  0  0  0  0  0  0
   -1.8680   14.9040   -3.7440 O   0  0  0  0  0  0  0  0  0  0  0  0
   -1.7990   14.3820   -2.3980 C   0  0  1  0  0  0  0  0  0  0  0  0
   -1.0420   15.1510   -1.6390 O   0  0  0  0  0  0  0  0  0  0  0  0
   -3.2600   14.4220   -1.8090 C   0  0  1  0  0  0  0  0  0  0  0  0
   -3.3830   15.1370   -0.4570 C   0  0  0  0  0  0  0  0  0  0  0  0
   -4.3080   15.0230   -2.7730 C   0  0  0  0  0  0  0  0  0  0  0  0
   -4.7880   15.0270    0.1240 C   0  0  0  0  0  0  0  0  0  0  0  0
   -5.7450   14.9590   -2.2490 C   0  0  0  0  0  0  0  0  0  0  0  0
   -5.8970   15.4880   -0.8340 C   0  0  1  0  0  0  0  0  0  0  0  0
   -7.1590   15.0630   -0.3100 O   0  0  0  0  0  0  0  0  0  0  0  0
  2  1  1  1
  2  3  1  0
  2  4  1  0
  3  5  1  6
  3  6  1  0
  4  7  1  0
  6  8  1  1
  5  9  1  0
  6 10  1  0
  7 10  1  0
  9 11  1  0
  8 12  1  0
 11 13  1  1
 11 14  1  0
 12 15  1  0
 15 16  1  0
 16 17  1  1
 16 18  1  0
 18 19  1  1
 18 20  1  0
 19 21  1  0
 20 22  1  0
 21 23  1  0
 22 23  1  0
 23 24  1  1
M  CHG  2  13  -1  17  -1
M  END
