ucsf109-ucsf387
     RDKit          3D

 26 29  0  0  0  0  0  0  0  0999 V2000
   -3.7900   14.6490    1.4870 N   0  0  0  0  0  0  0  0  0  0  0  0
   -4.8860   15.0770    0.6070 C   0  0  1  0  0  0  0  0  0  0  0  0
   -4.7530   14.4330   -0.7440 C   0  0  1  0  0  0  0  0  0  0  0  0
   -6.2710   14.9080    1.1570 N   0  0  0  0  0  0  0  0  0  0  0  0
   -7.4130   14.7440    0.2360 C   0  0  1  0  0  0  0  0  0  0  0  0
   -5.9260   14.9500   -1.5350 C   0  0  2  0  0  0  0  0  0  0  0  0
   -3.5130   14.7030   -1.6160 C   0  0  0  0  0  0  0  0  0  0  0  0
   -6.4620   13.7550    2.0530 N   0  0  0  0  0  0  0  0  0  0  0  0
   -7.1240   14.2890   -1.0760 N   0  0  0  0  0  0  0  0  0  0  0  0
   -5.5640   14.5530   -2.9370 C   0  0  0  0  0  0  0  0  0  0  0  0
   -4.0970   14.9370   -3.0360 C   0  0  2  0  0  0  0  0  0  0  0  0
   -8.4210   13.9640    0.9210 N   0  0  0  0  0  0  0  0  0  0  0  0
   -7.8950   13.8520    2.2730 C   0  0  0  0  0  0  0  0  0  0  0  0
   -3.5410   14.1720   -4.2320 C   0  0  0  0  0  0  0  0  0  0  0  0
   -2.9530   15.1570   -5.2320 C   0  0  0  0  0  0  0  0  0  0  0  0
   -1.5630   15.4610   -4.7150 C   0  0  1  0  0  0  0  0  0  0  0  0
   -0.7060   14.2260   -4.9090 C   0  0  0  0  0  0  0  0  0  0  0  0
   -0.8740   16.7260   -5.2080 C   0  0  0  0  0  0  0  0  0  0  0  0
    0.3680   14.3180   -3.8580 C   0  0  1  0  0  0  0  0  0  0  0  0
    0.6510   16.6580   -5.0550 C   0  0  1  0  0  0  0  0  0  0  0  0
    1.0440   18.1860   -4.2660 Cl  0  0  0  0  0  0  0  0  0  0  0  0
    0.9790   12.9070   -3.5630 C   0  0  0  0  0  0  0  0  0  0  0  0
    1.3050   15.4700   -4.2760 C   0  0  0  0  0  0  0  0  0  0  0  0
    0.1920   12.0530   -2.5110 C   0  0  1  0  0  0  0  0  0  0  0  0
    0.5710   10.7910   -2.3940 O   0  0  0  0  0  0  0  0  0  0  0  0
    0.4440   12.5620   -1.2250 O   0  0  0  0  0  0  0  0  0  0  0  0
  2  1  1  1
  2  3  1  0
  2  4  1  0
  4  5  1  0
  3  6  1  0
  3  7  1  6
  4  8  1  0
  5  9  1  6
  6  9  1  0
  6 10  1  6
  7 11  1  0
 10 11  1  0
  5 12  1  0
  8 13  1  0
 12 13  1  0
 11 14  1  6
 14 15  1  0
 16 15  1  6
 16 17  1  0
 16 18  1  0
 17 19  1  0
 18 20  1  0
 20 21  1  1
 19 22  1  6
 19 23  1  0
 20 23  1  0
 22 24  1  0
 24 25  1  1
 24 26  1  0
M  CHG  1  25  -1
M  END
