ucsf013-ucsf320
     RDKit          3D

 15 16  0  0  0  0  0  0  0  0999 V2000
   -3.9950   14.0670    1.8680 N   0  0  0  0  0  0  0  0  0  0  0  0
   -5.1240   14.8250    1.4120 C   0  0  2  0  0  0  0  0  0  0  0  0
   -6.2420   13.9540    1.7100 N   0  0  0  0  0  0  0  0  0  0  0  0
   -5.0130   15.2020   -0.0550 C   0  0  2  0  0  0  0  0  0  0  0  0
   -5.9480   14.3510   -0.9030 C   0  0  1  0  0  0  0  0  0  0  0  0
   -7.4740   14.3520    1.0680 C   0  0  0  0  0  0  0  0  0  0  0  0
   -3.6070   15.2010   -0.6190 C   0  0  0  0  0  0  0  0  0  0  0  0
   -7.3410   14.3390   -0.3780 N   0  0  0  0  0  0  0  0  0  0  0  0
   -5.9590   14.8770   -2.3360 C   0  0  1  0  0  0  0  0  0  0  0  0
   -3.5090   14.4060   -1.9420 C   0  0  2  0  0  0  0  0  0  0  0  0
   -2.0420   14.3280   -2.4730 C   0  0  2  0  0  0  0  0  0  0  0  0
   -6.6690   16.1090   -2.1830 O   0  0  0  0  0  0  0  0  0  0  0  0
   -4.5450   14.9960   -2.9220 C   0  0  0  0  0  0  0  0  0  0  0  0
   -1.1850   14.8440   -1.6260 O   0  0  0  0  0  0  0  0  0  0  0  0
   -1.8930   15.1480   -3.6140 O   0  0  0  0  0  0  0  0  0  0  0  0
  2  1  1  6
  2  3  1  0
  2  4  1  0
  4  5  1  0
  3  6  1  0
  4  7  1  6
  5  8  1  1
  6  8  1  0
  5  9  1  0
 10  7  1  1
 10 11  1  0
  9 12  1  1
  9 13  1  0
 10 13  1  0
 11 14  1  1
 11 15  1  0
M  CHG  1  14  -1
M  END
