ucsf241-ucsf412
     RDKit          3D

 15 17  0  0  0  0  0  0  0  0999 V2000
   -8.0610   15.4810   -0.4540 O   0  0  0  0  0  0  0  0  0  0  0  0
   -6.9100   14.8150   -0.0040 C   0  0  2  0  0  0  0  0  0  0  0  0
   -7.0340   14.6770    1.4300 N   0  0  0  0  0  0  0  0  0  0  0  0
   -5.6350   15.5260   -0.5090 C   0  0  0  0  0  0  0  0  0  0  0  0
   -4.3840   14.8940    0.0850 C   0  0  1  0  0  0  0  0  0  0  0  0
   -5.8240   14.1870    2.0600 C   0  0  0  0  0  0  0  0  0  0  0  0
   -3.4800   14.6090   -1.1260 C   0  0  0  0  0  0  0  0  0  0  0  0
   -3.5040   15.6730    0.9740 N   0  0  0  0  0  0  0  0  0  0  0  0
   -4.8020   13.7220    1.0070 C   0  0  0  0  0  0  0  0  0  0  0  0
   -2.2060   14.2390   -0.4380 C   0  0  2  0  0  0  0  0  0  0  0  0
   -2.1690   15.1200    0.7580 C   0  0  2  0  0  0  0  0  0  0  0  0
   -0.8750   14.3540   -1.1000 C   0  0  0  0  0  0  0  0  0  0  0  0
   -1.6300   14.3890    1.8090 N   0  0  0  0  0  0  0  0  0  0  0  0
    0.1860   14.5180   -0.0050 C   0  0  0  0  0  0  0  0  0  0  0  0
   -0.2380   14.1220    1.4450 C   0  0  0  0  0  0  0  0  0  0  0  0
  2  1  1  1
  2  3  1  0
  2  4  1  0
  5  4  1  6
  3  6  1  0
  5  7  1  0
  5  8  1  0
  5  9  1  0
  6  9  1  0
 10  7  1  6
 11  8  1  1
 10 11  1  0
 10 12  1  0
 11 13  1  0
 12 14  1  0
 13 15  1  0
 14 15  1  0
M  END
