ucsf124-ucsf173
     RDKit          3D

 24 27  0  0  0  0  0  0  0  0999 V2000
   -0.0040   12.1950   -2.1590 O   0  0  0  0  0  0  0  0  0  0  0  0
    0.6960   12.7430   -3.1310 C   0  0  1  0  0  0  0  0  0  0  0  0
    1.9250   13.0350   -2.4970 O   0  0  0  0  0  0  0  0  0  0  0  0
    0.8610   11.7900   -4.3120 C   0  0  0  0  0  0  0  0  0  0  0  0
    0.1720   14.0120   -3.8390 C   0  0  0  0  0  0  0  0  0  0  0  0
   -0.1130   11.7360   -5.3890 N   0  0  0  0  0  0  0  0  0  0  0  0
   -1.3100   14.4510   -3.7120 C   0  0  0  0  0  0  0  0  0  0  0  0
    0.9630   15.3120   -3.6980 C   0  0  0  0  0  0  0  0  0  0  0  0
   -1.1090   10.7230   -5.1450 C   0  0  1  0  0  0  0  0  0  0  0  0
    0.3320   11.7470   -6.7720 C   0  0  1  0  0  0  0  0  0  0  0  0
   -1.2660   15.9310   -4.1400 C   0  0  1  0  0  0  0  0  0  0  0  0
    0.1430   16.1410   -4.6760 C   0  0  1  0  0  0  0  0  0  0  0  0
   -2.1480   11.2200   -4.3280 O   0  0  0  0  0  0  0  0  0  0  0  0
    1.7300   11.6130   -6.9040 O   0  0  0  0  0  0  0  0  0  0  0  0
   -1.6240   10.3130   -6.5240 C   0  0  1  0  0  0  0  0  0  0  0  0
   -0.4630   10.6300   -7.4710 C   0  0  2  0  0  0  0  0  0  0  0  0
   -2.3040   16.4300   -5.1280 C   0  0  0  0  0  0  0  0  0  0  0  0
    0.4560   17.6110   -4.8610 C   0  0  0  0  0  0  0  0  0  0  0  0
   -2.1770    8.8990   -6.6380 C   0  0  0  0  0  0  0  0  0  0  0  0
    0.2490    9.4090   -8.0440 C   0  0  0  0  0  0  0  0  0  0  0  0
   -1.9790   17.8190   -5.7100 C   0  0  0  0  0  0  0  0  0  0  0  0
   -0.4970   18.1940   -5.8990 C   0  0  0  0  0  0  0  0  0  0  0  0
   -2.0800    8.3010   -8.0340 C   0  0  0  0  0  0  0  0  0  0  0  0
   -0.6770    8.3550   -8.6410 C   0  0  0  0  0  0  0  0  0  0  0  0
  2  1  1  1
  2  3  1  0
  2  4  1  0
  2  5  1  0
  4  6  1  0
  5  7  1  0
  5  8  1  0
  6  9  1  0
  6 10  1  0
 11  7  1  6
 12  8  1  1
 11 12  1  0
  9 13  1  1
 10 14  1  1
  9 15  1  0
 10 16  1  0
 15 16  1  0
 11 17  1  0
 12 18  1  0
 15 19  1  1
 16 20  1  1
 17 21  1  0
 18 22  1  0
 21 22  1  0
 19 23  1  0
 20 24  1  0
 23 24  1  0
M  CHG  1   1  -1
M  END
