ucsf190-ucsf380
     RDKit          3D

 30 33  0  0  0  0  0  0  0  0999 V2000
    0.8100   11.2210   -2.5860 O   0  0  0  0  0  0  0  0  0  0  0  0
    1.6030   12.2700   -2.8570 C   0  0  2  0  0  0  0  0  0  0  0  0
    0.9470   13.5030   -2.5220 O   0  0  0  0  0  0  0  0  0  0  0  0
    1.7620   12.5510   -4.3770 C   0  0  0  0  0  0  0  0  0  0  0  0
    0.3100   13.7960   -1.2920 C   0  0  1  0  0  0  0  0  0  0  0  0
    1.1910   13.8990   -4.8930 C   0  0  1  0  0  0  0  0  0  0  0  0
    0.3490   15.1270   -1.1280 O   0  0  0  0  0  0  0  0  0  0  0  0
   -1.2160   13.3240   -1.3610 C   0  0  0  0  0  0  0  0  0  0  0  0
   -0.3250   14.1330   -4.6110 C   0  0  1  0  0  0  0  0  0  0  0  0
    2.0310   14.9830   -4.3720 N   0  0  0  0  0  0  0  0  0  0  0  0
   -0.7620   15.6160   -4.3390 C   0  0  1  0  0  0  0  0  0  0  0  0
    1.5730   16.2140   -5.0030 N   0  0  0  0  0  0  0  0  0  0  0  0
   -1.1830   13.4070   -5.6570 C   0  0  0  0  0  0  0  0  0  0  0  0
   -2.3110   14.4540   -1.1800 C   0  0  0  0  0  0  0  0  0  0  0  0
   -1.4970   12.2360   -2.5170 C   0  0  0  0  0  0  0  0  0  0  0  0
    0.3890   16.6540   -4.2880 C   0  0  1  0  0  0  0  0  0  0  0  0
   -1.9990   16.1450   -5.1060 C   0  0  0  0  0  0  0  0  0  0  0  0
   -2.6830   13.7040   -5.6040 C   0  0  0  0  0  0  0  0  0  0  0  0
   -2.5920   14.7800    0.3080 C   0  0  0  0  0  0  0  0  0  0  0  0
   -3.6280   14.3000   -1.9460 C   0  0  0  0  0  0  0  0  0  0  0  0
   -2.9930   11.9530   -2.8200 C   0  0  0  0  0  0  0  0  0  0  0  0
   -0.8090   12.4440   -3.8640 C   0  0  0  0  0  0  0  0  0  0  0  0
   -0.0020   17.9240   -4.7990 O   0  0  0  0  0  0  0  0  0  0  0  0
   -3.1160   15.1390   -5.3110 C   0  0  0  0  0  0  0  0  0  0  0  0
   -3.7590   15.7390    0.6230 C   0  0  0  0  0  0  0  0  0  0  0  0
   -4.4970   15.5230   -1.8060 C   0  0  0  0  0  0  0  0  0  0  0  0
   -3.2410   10.7800   -3.7820 C   0  0  0  0  0  0  0  0  0  0  0  0
   -0.9820   11.2410   -4.8030 C   0  0  0  0  0  0  0  0  0  0  0  0
   -4.9100   15.7990   -0.3850 C   0  0  0  0  0  0  0  0  0  0  0  0
   -2.4330   10.8710   -5.0720 C   0  0  0  0  0  0  0  0  0  0  0  0
  2  1  1  6
  2  3  1  0
  2  4  1  0
  3  5  1  0
  6  4  1  1
  5  7  1  6
  5  8  1  0
  6  9  1  0
  6 10  1  0
  9 11  1  0
 10 12  1  0
  9 13  1  6
  8 14  1  0
  8 15  1  0
 11 16  1  0
 12 16  1  0
 11 17  1  6
 13 18  1  0
 14 19  1  0
 14 20  1  0
 15 21  1  0
 15 22  1  0
 16 23  1  6
 17 24  1  0
 18 24  1  0
 19 25  1  0
 20 26  1  0
 21 27  1  0
 22 28  1  0
 25 29  1  0
 26 29  1  0
 27 30  1  0
 28 30  1  0
M  CHG  2   1  -1   7  -1
M  END
