ucsf387-ucsf147
     RDKit          3D

 24 26  0  0  0  0  0  0  0  0999 V2000
    1.1510   18.2500   -5.6990 Cl  0  0  0  0  0  0  0  0  0  0  0  0
    0.2450   17.4810   -4.3750 C   0  0  1  0  0  0  0  0  0  0  0  0
   -1.1710   17.3030   -4.9260 C   0  0  0  0  0  0  0  0  0  0  0  0
    0.9360   16.2290   -3.7530 C   0  0  0  0  0  0  0  0  0  0  0  0
    0.6210   14.8720   -4.3760 C   0  0  1  0  0  0  0  0  0  0  0  0
   -1.6080   15.8720   -4.8860 C   0  0  1  0  0  0  0  0  0  0  0  0
   -3.1600   15.6770   -5.7800 Cl  0  0  0  0  0  0  0  0  0  0  0  0
    0.1590   13.7320   -3.4520 C   0  0  2  0  0  0  0  0  0  0  0  0
   -0.4120   15.1010   -5.4120 C   0  0  0  0  0  0  0  0  0  0  0  0
    1.0950   13.1710   -2.4080 C   0  0  0  0  0  0  0  0  0  0  0  0
   -0.4910   12.5750   -4.1650 C   0  0  2  0  0  0  0  0  0  0  0  0
    1.5220   11.9060   -2.8140 O   0  0  0  0  0  0  0  0  0  0  0  0
    0.4950   13.0060   -1.1550 O   0  0  0  0  0  0  0  0  0  0  0  0
    2.1540   14.0590   -2.1600 O   0  0  0  0  0  0  0  0  0  0  0  0
   -1.2110   12.9230   -5.3380 O   0  0  0  0  0  0  0  0  0  0  0  0
   -1.5540   12.0440   -3.2620 C   0  0  0  0  0  0  0  0  0  0  0  0
   -2.3970   13.6240   -4.8440 N   0  0  0  0  0  0  0  0  0  0  0  0
   -2.7240   12.9640   -3.5750 C   0  0  2  0  0  0  0  0  0  0  0  0
   -3.2280   13.8620   -2.4080 C   0  0  0  0  0  0  0  0  0  0  0  0
   -2.2660   14.2430   -1.2700 C   0  0  0  0  0  0  0  0  0  0  0  0
   -4.0350   15.0900   -2.8370 C   0  0  0  0  0  0  0  0  0  0  0  0
   -3.0630   14.6620   -0.0370 C   0  0  0  0  0  0  0  0  0  0  0  0
   -4.9020   15.5250   -1.6590 C   0  0  0  0  0  0  0  0  0  0  0  0
   -4.5610   14.8260   -0.3410 C   0  0  0  0  0  0  0  0  0  0  0  0
  2  1  1  6
  2  3  1  0
  2  4  1  0
  5  4  1  1
  3  6  1  0
  6  7  1  6
  5  8  1  0
  5  9  1  0
  6  9  1  0
  8 10  1  6
  8 11  1  0
 10 12  1  0
 10 13  1  0
 10 14  1  0
 11 15  1  0
 11 16  1  1
 15 17  1  0
 16 18  1  0
 17 18  1  0
 18 19  1  1
 19 20  1  0
 19 21  1  0
 20 22  1  0
 21 23  1  0
 22 24  1  0
 23 24  1  0
M  CHG  2  12  -1  14  -1
M  END
