ucsf258-ucsf392
     RDKit          3D

 13 13  0  0  0  0  0  0  0  0999 V2000
    0.8130   13.4640   -1.3260 O   0  0  0  0  0  0  0  0  0  0  0  0
   -0.2190   13.4350   -2.1310 C   0  0  2  0  0  0  0  0  0  0  0  0
    0.3620   13.8770   -3.3540 O   0  0  0  0  0  0  0  0  0  0  0  0
   -1.3520   14.4380   -1.6820 C   0  0  1  0  0  0  0  0  0  0  0  0
   -2.5640   14.3060   -2.6510 C   0  0  2  0  0  0  0  0  0  0  0  0
   -1.6950   14.2930   -0.2040 N   0  0  0  0  0  0  0  0  0  0  0  0
   -2.2090   14.6310   -4.0080 O   0  0  0  0  0  0  0  0  0  0  0  0
   -0.6100   14.7870    0.6700 C   0  0  0  0  0  0  0  0  0  0  0  0
   -3.7250   15.1980   -2.2700 C   0  0  0  0  0  0  0  0  0  0  0  0
   -3.1100   14.4880    0.1870 C   0  0  1  0  0  0  0  0  0  0  0  0
   -3.2120   15.0040    1.5610 N   0  0  0  0  0  0  0  0  0  0  0  0
   -3.9520   15.3840   -0.7580 C   0  0  2  0  0  0  0  0  0  0  0  0
   -5.4520   15.3140   -0.5100 C   0  0  0  0  0  0  0  0  0  0  0  0
  2  1  1  1
  2  3  1  0
  2  4  1  0
  4  5  1  0
  4  6  1  1
  5  7  1  6
  6  8  1  0
  5  9  1  0
  6 10  1  0
 10 11  1  1
  9 12  1  0
 10 12  1  0
 12 13  1  6
M  CHG  1   1  -1
M  END
