ucsf422-ucsf345
     RDKit          3D

 25 27  0  0  0  0  0  0  0  0999 V2000
    0.4130   11.0480   -2.5200 O   0  0  0  0  0  0  0  0  0  0  0  0
    1.1100   12.1060   -2.8830 C   0  0  2  0  0  0  0  0  0  0  0  0
    0.7330   13.1340   -1.9830 O   0  0  0  0  0  0  0  0  0  0  0  0
    0.7010   12.5610   -4.3040 C   0  0  0  0  0  0  0  0  0  0  0  0
    1.1620   13.9630   -4.7490 C   0  0  2  0  0  0  0  0  0  0  0  0
    1.8840   14.8180   -3.7120 C   0  0  0  0  0  0  0  0  0  0  0  0
    0.0600   14.9180   -5.1850 C   0  0  2  0  0  0  0  0  0  0  0  0
    1.6700   16.2160   -4.1630 N   0  0  0  0  0  0  0  0  0  0  0  0
    0.2430   16.1970   -4.4170 C   0  0  1  0  0  0  0  0  0  0  0  0
   -1.3850   14.5040   -5.1560 C   0  0  0  0  0  0  0  0  0  0  0  0
   -0.3690   17.3450   -5.2140 C   0  0  0  0  0  0  0  0  0  0  0  0
   -2.3640   15.6880   -5.0240 C   0  0  2  0  0  0  0  0  0  0  0  0
   -3.5740   15.2860   -5.6660 O   0  0  0  0  0  0  0  0  0  0  0  0
   -1.8560   17.0670   -5.5240 C   0  0  0  0  0  0  0  0  0  0  0  0
   -4.1490   14.2320   -4.8750 C   0  0  0  0  0  0  0  0  0  0  0  0
   -4.6560   15.0050   -3.6950 C   0  0  0  0  0  0  0  0  0  0  0  0
   -4.4060   14.7290   -2.2310 C   0  0  1  0  0  0  0  0  0  0  0  0
   -5.3770   13.8650   -1.5830 N   0  0  0  0  0  0  0  0  0  0  0  0
   -2.9570   14.5220   -1.7670 C   0  0  0  0  0  0  0  0  0  0  0  0
   -5.2810   14.0660   -0.1100 C   0  0  2  0  0  0  0  0  0  0  0  0
   -2.8070   14.6400   -0.3160 N   0  0  0  0  0  0  0  0  0  0  0  0
   -6.6400   14.6480    0.3510 C   0  0  2  0  0  0  0  0  0  0  0  0
   -4.1010   14.9920    0.3090 C   0  0  0  0  0  0  0  0  0  0  0  0
   -6.8530   14.6820    1.7900 N   0  0  0  0  0  0  0  0  0  0  0  0
   -7.7140   13.9240   -0.2100 O   0  0  0  0  0  0  0  0  0  0  0  0
  2  1  1  1
  2  3  1  0
  2  4  1  0
  5  4  1  1
  5  6  1  0
  5  7  1  0
  6  8  1  0
  7  9  1  0
  8  9  1  0
  7 10  1  1
  9 11  1  6
 10 12  1  0
 12 13  1  6
 11 14  1  0
 12 14  1  0
 13 15  1  0
 15 16  1  0
 17 16  1  6
 17 18  1  0
 17 19  1  0
 18 20  1  0
 19 21  1  0
 20 22  1  0
 20 23  1  6
 21 23  1  0
 22 24  1  1
 22 25  1  0
M  CHG  1   1  -1
M  END
