ucsf364-ucsf333
     RDKit          3D

 23 25  0  0  0  0  0  0  0  0999 V2000
    1.6400   13.7650   -4.2820 C   0  0  0  0  0  0  0  0  0  0  0  0
    1.1700   15.1800   -3.8780 C   0  0  0  0  0  0  0  0  0  0  0  0
   -0.0840   15.4160   -2.9550 C   0  0  1  0  0  0  0  0  0  0  0  0
    0.5420   12.8330   -4.8300 C   0  0  2  0  0  0  0  0  0  0  0  0
    0.0670   11.7470   -3.8590 C   0  0  1  0  0  0  0  0  0  0  0  0
    0.5920   12.2990   -6.2670 C   0  0  1  0  0  0  0  0  0  0  0  0
    1.9090   12.0170   -6.7350 O   0  0  0  0  0  0  0  0  0  0  0  0
    0.2240   12.0500   -2.3590 C   0  0  0  0  0  0  0  0  0  0  0  0
   -1.3660   11.3130   -4.2280 C   0  0  0  0  0  0  0  0  0  0  0  0
   -0.3320   11.1140   -6.5520 C   0  0  0  0  0  0  0  0  0  0  0  0
   -1.3810   14.9470   -3.4800 N   0  0  0  0  0  0  0  0  0  0  0  0
    0.0550   14.9020   -1.2140 S   0  0  0  0  0  0  0  0  0  0  0  0
   -0.7780   12.8770   -1.8860 O   0  0  0  0  0  0  0  0  0  0  0  0
    1.3080   12.6670   -1.9910 O   0  0  0  0  0  0  0  0  0  0  0  0
    0.2780   10.8760   -1.6330 O   0  0  0  0  0  0  0  0  0  0  0  0
   -1.6090   11.1370   -5.7230 C   0  0  0  0  0  0  0  0  0  0  0  0
   -2.3230   14.5000   -2.4240 C   0  0  1  0  0  0  0  0  0  0  0  0
   -1.7220   14.6040   -0.9980 C   0  0  2  0  0  0  0  0  0  0  0  0
   -3.6550   15.2530   -2.5300 C   0  0  0  0  0  0  0  0  0  0  0  0
   -2.4120   15.6650   -0.1440 C   0  0  0  0  0  0  0  0  0  0  0  0
   -4.5420   14.9090   -1.3340 C   0  0  1  0  0  0  0  0  0  0  0  0
   -3.9270   15.4300   -0.0310 C   0  0  0  0  0  0  0  0  0  0  0  0
   -6.2190   15.4880   -1.5250 Cl  0  0  0  0  0  0  0  0  0  0  0  0
  1  2  1  0
  3  2  1  6
  4  1  1  1
  4  5  1  0
  4  6  1  0
  6  7  1  1
  5  8  1  1
  5  9  1  0
  6 10  1  0
  3 11  1  0
  3 12  1  0
  8 13  1  0
  8 14  1  0
  8 15  1  0
  9 16  1  0
 10 16  1  0
 11 17  1  0
 12 18  1  0
 17 18  1  0
 17 19  1  1
 18 20  1  6
 19 21  1  0
 20 22  1  0
 21 22  1  0
 21 23  1  6
M  CHG  1  14  -1
M  END
