ucsf147-ucsf123
     RDKit          3D

 20 21  0  0  0  0  0  0  0  0999 V2000
    0.9290   12.6940   -5.3970 C   0  0  0  0  0  0  0  0  0  0  0  0
    0.1460   13.8470   -4.7730 C   0  0  1  0  0  0  0  0  0  0  0  0
   -0.9230   14.2610   -5.6290 O   0  0  0  0  0  0  0  0  0  0  0  0
   -0.5850   13.5740   -3.4660 C   0  0  1  0  0  0  0  0  0  0  0  0
    0.4220   13.2200   -2.3730 C   0  0  0  0  0  0  0  0  0  0  0  0
   -1.6840   15.2480   -4.8360 N   0  0  0  0  0  0  0  0  0  0  0  0
   -1.3390   14.9140   -3.4040 C   0  0  1  0  0  0  0  0  0  0  0  0
   -0.0960   12.9930   -1.0970 O   0  0  0  0  0  0  0  0  0  0  0  0
    1.4050   14.2050   -2.2190 O   0  0  0  0  0  0  0  0  0  0  0  0
   -1.6470   16.8070   -5.5170 S   0  0  0  0  0  0  0  0  0  0  0  0
    1.0440   11.9910   -2.6460 O   0  0  0  0  0  0  0  0  0  0  0  0
   -2.5080   15.1970   -2.4050 C   0  0  0  0  0  0  0  0  0  0  0  0
   -1.7170   18.0870   -4.5330 N   0  0  0  0  0  0  0  0  0  0  0  0
   -0.2600   17.0700   -6.2500 O   0  0  0  0  0  0  0  0  0  0  0  0
   -2.7430   17.0050   -6.6530 O   0  0  0  0  0  0  0  0  0  0  0  0
   -2.2540   14.5420   -1.0280 C   0  0  0  0  0  0  0  0  0  0  0  0
   -3.9370   14.8800   -2.8690 C   0  0  0  0  0  0  0  0  0  0  0  0
   -3.2220   15.0740    0.0170 C   0  0  0  0  0  0  0  0  0  0  0  0
   -4.9860   15.2940   -1.8320 C   0  0  0  0  0  0  0  0  0  0  0  0
   -4.6670   14.8490   -0.4070 C   0  0  0  0  0  0  0  0  0  0  0  0
  2  1  1  6
  2  3  1  0
  2  4  1  0
  4  5  1  1
  3  6  1  0
  4  7  1  0
  6  7  1  0
  5  8  1  0
  5  9  1  0
  6 10  1  0
  5 11  1  0
  7 12  1  1
 10 13  1  0
 10 14  1  0
 10 15  1  0
 12 16  1  0
 12 17  1  0
 16 18  1  0
 17 19  1  0
 18 20  1  0
 19 20  1  0
M  CHG  2   9  -1  11  -1
M  END
