ucsf013-ucsf340
     RDKit          3D

 27 30  0  0  0  0  0  0  0  0999 V2000
   -3.9000   14.9260    2.2880 N   0  0  0  0  0  0  0  0  0  0  0  0
   -4.8950   15.2970    1.3480 C   0  0  2  0  0  0  0  0  0  0  0  0
   -6.1800   14.8180    1.7820 N   0  0  0  0  0  0  0  0  0  0  0  0
   -4.5240   14.7630    0.0310 C   0  0  1  0  0  0  0  0  0  0  0  0
   -5.5670   15.2390   -0.9750 C   0  0  2  0  0  0  0  0  0  0  0  0
   -6.9170   14.1110    0.7390 C   0  0  0  0  0  0  0  0  0  0  0  0
   -3.1180   15.2880   -0.2080 C   0  0  0  0  0  0  0  0  0  0  0  0
   -6.9060   14.8110   -0.5420 N   0  0  0  0  0  0  0  0  0  0  0  0
   -5.1760   14.6850   -2.3490 C   0  0  0  0  0  0  0  0  0  0  0  0
   -2.8150   15.3610   -1.6580 C   0  0  0  0  0  0  0  0  0  0  0  0
   -3.6680   14.3370   -2.3630 C   0  0  2  0  0  0  0  0  0  0  0  0
   -3.0330   14.0980   -3.7040 C   0  0  0  0  0  0  0  0  0  0  0  0
   -2.7580   15.4080   -4.4140 C   0  0  1  0  0  0  0  0  0  0  0  0
   -1.3570   16.0520   -4.2500 C   0  0  1  0  0  0  0  0  0  0  0  0
   -3.1970   15.2510   -5.8040 C   0  0  0  0  0  0  0  0  0  0  0  0
   -0.0670   15.2540   -4.5490 C   0  0  2  0  0  0  0  0  0  0  0  0
   -1.1970   17.3620   -5.0780 C   0  0  1  0  0  0  0  0  0  0  0  0
   -3.2670   16.5580   -6.4840 C   0  0  0  0  0  0  0  0  0  0  0  0
    0.4050   14.3190   -3.4240 C   0  0  0  0  0  0  0  0  0  0  0  0
    0.1400   17.2760   -5.6550 N   0  0  0  0  0  0  0  0  0  0  0  0
    0.9260   16.3900   -4.8000 C   0  0  0  0  0  0  0  0  0  0  0  0
   -2.2380   17.6500   -6.1670 C   0  0  0  0  0  0  0  0  0  0  0  0
    0.8010   18.5150   -5.9960 C   0  0  0  0  0  0  0  0  0  0  0  0
    0.1480   12.8020   -3.6230 C   0  0  0  0  0  0  0  0  0  0  0  0
    0.2260   11.9980   -2.3050 C   0  0  2  0  0  0  0  0  0  0  0  0
    1.5010   12.3240   -1.8340 O   0  0  0  0  0  0  0  0  0  0  0  0
    0.3320   10.6790   -2.4500 O   0  0  0  0  0  0  0  0  0  0  0  0
  2  1  1  1
  2  3  1  0
  2  4  1  0
  4  5  1  0
  3  6  1  0
  4  7  1  6
  5  8  1  0
  6  8  1  0
  5  9  1  6
  7 10  1  0
  9 11  1  0
 10 11  1  0
 11 12  1  6
 13 12  1  6
 14 13  1  6
 13 15  1  0
 14 16  1  0
 14 17  1  0
 15 18  1  0
 16 19  1  1
 17 20  1  0
 16 21  1  0
 20 21  1  0
 17 22  1  6
 18 22  1  0
 20 23  1  0
 19 24  1  0
 24 25  1  0
 25 26  1  6
 25 27  1  0
M  CHG  1  27  -1
M  END
