ucsf138-ucsf224
     RDKit          3D

 22 23  0  0  0  0  0  0  0  0999 V2000
    0.7920   12.8110   -2.0730 O   0  0  0  0  0  0  0  0  0  0  0  0
    1.2650   12.0480   -3.0220 C   0  0  1  0  0  0  0  0  0  0  0  0
    0.5190   10.8510   -2.8560 O   0  0  0  0  0  0  0  0  0  0  0  0
    1.0560   12.6660   -4.4560 C   0  0  1  0  0  0  0  0  0  0  0  0
    0.2770   11.7000   -5.3390 N   0  0  0  0  0  0  0  0  0  0  0  0
    0.3420   14.0670   -4.3040 C   0  0  2  0  0  0  0  0  0  0  0  0
    0.9270   11.4720   -6.6120 C   0  0  2  0  0  0  0  0  0  0  0  0
   -0.8780   14.2330   -5.2360 C   0  0  0  0  0  0  0  0  0  0  0  0
    1.3120   15.2820   -4.3510 C   0  0  0  0  0  0  0  0  0  0  0  0
    0.6750   12.6210   -7.2810 O   0  0  0  0  0  0  0  0  0  0  0  0
    0.2120   10.4260   -7.3260 N   0  0  0  0  0  0  0  0  0  0  0  0
   -1.5900   15.5980   -5.1370 C   0  0  1  0  0  0  0  0  0  0  0  0
    0.7970   16.4900   -5.1190 C   0  0  0  0  0  0  0  0  0  0  0  0
   -2.9940   15.4400   -4.0350 Cl  0  0  0  0  0  0  0  0  0  0  0  0
    0.7980   10.0870   -8.6450 C   0  0  0  0  0  0  0  0  0  0  0  0
   -0.6330   16.7130   -4.7230 C   0  0  1  0  0  0  0  0  0  0  0  0
   -1.2070   18.3360   -5.2430 Cl  0  0  0  0  0  0  0  0  0  0  0  0
   -0.1170   10.2120   -9.8700 C   0  0  0  0  0  0  0  0  0  0  0  0
    1.3550    8.6490   -8.5570 C   0  0  0  0  0  0  0  0  0  0  0  0
    0.5630    9.6970  -11.1540 C   0  0  0  0  0  0  0  0  0  0  0  0
    2.0180    8.1140   -9.8380 C   0  0  0  0  0  0  0  0  0  0  0  0
    1.1210    8.2740  -11.0480 C   0  0  0  0  0  0  0  0  0  0  0  0
  2  1  1  1
  2  3  1  0
  2  4  1  0
  4  5  1  6
  4  6  1  0
  5  7  1  0
  6  8  1  6
  6  9  1  0
  7 10  1  6
  7 11  1  0
  8 12  1  0
  9 13  1  0
 12 14  1  1
 11 15  1  0
 12 16  1  0
 13 16  1  0
 16 17  1  6
 15 18  1  0
 15 19  1  0
 18 20  1  0
 19 21  1  0
 20 22  1  0
 21 22  1  0
M  CHG  1   1  -1
M  END
