ucsf151-ucsf412
     RDKit          3D

 22 24  0  0  0  0  0  0  0  0999 V2000
    0.7210   12.8300   -2.0790 O   0  0  0  0  0  0  0  0  0  0  0  0
   -0.0160   13.9180   -2.1220 C   0  0  1  0  0  0  0  0  0  0  0  0
    0.8730   14.8810   -2.6640 O   0  0  0  0  0  0  0  0  0  0  0  0
   -1.2730   13.7380   -3.0410 C   0  0  1  0  0  0  0  0  0  0  0  0
   -1.6660   15.0570   -3.7600 C   0  0  2  0  0  0  0  0  0  0  0  0
   -1.1230   12.6530   -4.1470 C   0  0  0  0  0  0  0  0  0  0  0  0
   -3.0290   15.6770   -3.4940 C   0  0  0  0  0  0  0  0  0  0  0  0
   -1.6650   14.9330   -5.2700 C   0  0  2  0  0  0  0  0  0  0  0  0
   -2.3380   12.5310   -4.9960 N   0  0  0  0  0  0  0  0  0  0  0  0
   -2.1870   16.1610   -5.8160 O   0  0  0  0  0  0  0  0  0  0  0  0
   -2.5790   13.7770   -5.7330 C   0  0  0  0  0  0  0  0  0  0  0  0
   -3.9690   15.3550   -2.3220 C   0  0  2  0  0  0  0  0  0  0  0  0
   -3.6170   14.9830   -0.8660 C   0  0  0  0  0  0  0  0  0  0  0  0
   -4.9280   14.3320   -2.8350 C   0  0  0  0  0  0  0  0  0  0  0  0
   -4.9250   15.2870   -0.0740 C   0  0  1  0  0  0  0  0  0  0  0  0
   -6.2440   14.5740   -2.1610 C   0  0  0  0  0  0  0  0  0  0  0  0
   -6.1060   14.4870   -0.6470 C   0  0  2  0  0  0  0  0  0  0  0  0
   -4.8790   15.0860    1.4420 C   0  0  0  0  0  0  0  0  0  0  0  0
   -7.4300   14.9200   -0.0360 C   0  0  1  0  0  0  0  0  0  0  0  0
   -6.2300   14.6140    2.0680 C   0  0  0  0  0  0  0  0  0  0  0  0
   -8.4690   14.0820   -0.4700 O   0  0  0  0  0  0  0  0  0  0  0  0
   -7.4730   14.9020    1.3910 N   0  0  0  0  0  0  0  0  0  0  0  0
  2  1  1  6
  2  3  1  0
  2  4  1  0
  4  5  1  0
  4  6  1  6
  5  7  1  1
  5  8  1  0
  6  9  1  0
  8 10  1  6
  8 11  1  0
  9 11  1  0
 12  7  1  6
 12 13  1  0
 12 14  1  0
 15 13  1  6
 14 16  1  0
 15 17  1  0
 17 16  1  6
 15 18  1  0
 17 19  1  0
 18 20  1  0
 19 21  1  6
 19 22  1  0
 20 22  1  0
M  CHG  1   1  -1
M  END
