ucsf170-ucsf320
     RDKit          3D

 20 22  0  0  0  0  0  0  0  0999 V2000
   -4.3200   15.7030    1.4410 C   0  0  0  0  0  0  0  0  0  0  0  0
   -2.6080   15.1530    1.3100 S   0  0  0  0  0  0  0  0  0  0  0  0
   -2.2810   15.0030   -0.5080 C   0  0  2  0  0  0  0  0  0  0  0  0
   -0.9010   15.5170   -0.8660 C   0  0  0  0  0  0  0  0  0  0  0  0
   -3.3080   15.5700   -1.4920 C   0  0  0  0  0  0  0  0  0  0  0  0
   -0.5090   15.0270   -2.2580 C   0  0  1  0  0  0  0  0  0  0  0  0
   -2.7600   15.9720   -2.8950 C   0  0  0  0  0  0  0  0  0  0  0  0
   -0.4010   13.5410   -2.3910 C   0  0  2  0  0  0  0  0  0  0  0  0
   -1.4960   15.3190   -3.3910 C   0  0  2  0  0  0  0  0  0  0  0  0
   -1.8410   14.0850   -4.0260 O   0  0  0  0  0  0  0  0  0  0  0  0
    0.1370   12.9540   -1.2200 O   0  0  0  0  0  0  0  0  0  0  0  0
    0.4700   13.2000   -3.3220 O   0  0  0  0  0  0  0  0  0  0  0  0
   -1.9140   13.3080   -2.8310 C   0  0  2  0  0  0  0  0  0  0  0  0
   -3.1650   13.9280   -2.0570 C   0  0  2  0  0  0  0  0  0  0  0  0
   -3.7240   13.2400   -0.7880 C   0  0  0  0  0  0  0  0  0  0  0  0
   -4.3900   14.1840   -2.9970 C   0  0  0  0  0  0  0  0  0  0  0  0
   -4.8950   13.9880   -0.1220 C   0  0  0  0  0  0  0  0  0  0  0  0
   -5.5680   14.9550   -2.3680 C   0  0  0  0  0  0  0  0  0  0  0  0
   -6.0480   14.3050   -1.0780 C   0  0  2  0  0  0  0  0  0  0  0  0
   -7.0260   15.1540   -0.4620 O   0  0  0  0  0  0  0  0  0  0  0  0
  1  2  1  0
  3  2  1  1
  3  4  1  0
  3  5  1  0
  6  4  1  1
  5  7  1  0
  6  8  1  0
  6  9  1  0
  9  7  1  1
  9 10  1  0
  8 11  1  1
  8 12  1  0
  8 13  1  0
 13 10  1  6
 13 14  1  0
 14 15  1  1
 14 16  1  0
 15 17  1  0
 16 18  1  0
 17 19  1  0
 18 19  1  0
 19 20  1  1
M  CHG  1  12  -1
M  END
