ucsf424-ucsf135
     RDKit          3D

 14 15  0  0  0  0  0  0  0  0999 V2000
    1.1500   12.1530   -2.1560 O   0  0  0  0  0  0  0  0  0  0  0  0
    0.5260   11.6960   -3.2180 C   0  0  1  0  0  0  0  0  0  0  0  0
   -0.8130   11.9880   -2.8990 O   0  0  0  0  0  0  0  0  0  0  0  0
    0.9590   12.5160   -4.4660 C   0  0  0  0  0  0  0  0  0  0  0  0
    0.2910   12.1520   -5.8120 C   0  0  1  0  0  0  0  0  0  0  0  0
    1.3210   11.6840   -6.7970 N   0  0  0  0  0  0  0  0  0  0  0  0
   -0.8380   11.0910   -5.9390 C   0  0  1  0  0  0  0  0  0  0  0  0
   -2.0490   11.9100   -5.8080 O   0  0  0  0  0  0  0  0  0  0  0  0
    0.7320   10.6390   -7.6380 O   0  0  0  0  0  0  0  0  0  0  0  0
   -0.6690   10.5870   -7.3650 C   0  0  1  0  0  0  0  0  0  0  0  0
   -1.1170    9.9330   -4.9950 C   0  0  0  0  0  0  0  0  0  0  0  0
   -1.1290    9.1550   -7.6230 C   0  0  0  0  0  0  0  0  0  0  0  0
   -2.3410    9.0980   -5.3980 C   0  0  0  0  0  0  0  0  0  0  0  0
   -2.4250    8.8290   -6.9000 C   0  0  0  0  0  0  0  0  0  0  0  0
  2  1  1  1
  2  3  1  0
  2  4  1  0
  5  4  1  1
  5  6  1  0
  5  7  1  0
  7  8  1  6
  6  9  1  0
  7 10  1  0
  9 10  1  0
  7 11  1  0
 10 12  1  1
 11 13  1  0
 12 14  1  0
 13 14  1  0
M  CHG  1   1  -1
M  END
