ucsf224-ucsf380
     RDKit          3D

 27 29  0  0  0  0  0  0  0  0999 V2000
   -1.2530   18.3970   -5.0850 Cl  0  0  0  0  0  0  0  0  0  0  0  0
   -0.4410   16.7940   -5.1110 C   0  0  2  0  0  0  0  0  0  0  0  0
   -1.3840   15.6580   -4.7300 C   0  0  1  0  0  0  0  0  0  0  0  0
    0.7670   16.7510   -4.1850 C   0  0  0  0  0  0  0  0  0  0  0  0
   -2.9670   15.7020   -5.6010 Cl  0  0  0  0  0  0  0  0  0  0  0  0
   -0.6470   14.3390   -4.9630 C   0  0  0  0  0  0  0  0  0  0  0  0
    1.4750   15.3860   -4.2850 C   0  0  0  0  0  0  0  0  0  0  0  0
    0.5110   14.2420   -3.9440 C   0  0  2  0  0  0  0  0  0  0  0  0
    1.0580   12.7660   -3.7430 C   0  0  0  0  0  0  0  0  0  0  0  0
    0.3090   11.9340   -2.5900 C   0  0  1  0  0  0  0  0  0  0  0  0
    0.8030   10.7070   -2.4160 O   0  0  0  0  0  0  0  0  0  0  0  0
    0.4570   12.6570   -1.3750 O   0  0  0  0  0  0  0  0  0  0  0  0
   -0.0120   14.0030   -1.5690 C   0  0  2  0  0  0  0  0  0  0  0  0
    0.2250   14.8220   -0.5710 O   0  0  0  0  0  0  0  0  0  0  0  0
   -1.5910   13.8520   -1.7580 C   0  0  0  0  0  0  0  0  0  0  0  0
   -2.3690   15.1730   -1.3940 C   0  0  0  0  0  0  0  0  0  0  0  0
   -2.1030   13.1630   -3.1060 C   0  0  0  0  0  0  0  0  0  0  0  0
   -2.2910   15.4450    0.1280 C   0  0  0  0  0  0  0  0  0  0  0  0
   -3.7660   15.2770   -2.0870 C   0  0  0  0  0  0  0  0  0  0  0  0
   -2.9820   11.9290   -2.8050 C   0  0  0  0  0  0  0  0  0  0  0  0
   -1.0220   12.8160   -4.1580 C   0  0  0  0  0  0  0  0  0  0  0  0
   -3.6010   15.7450    0.8540 C   0  0  0  0  0  0  0  0  0  0  0  0
   -4.9730   15.6180   -1.2070 C   0  0  0  0  0  0  0  0  0  0  0  0
   -3.3990   11.1640   -4.0640 C   0  0  0  0  0  0  0  0  0  0  0  0
   -1.5100   12.1150   -5.4200 C   0  0  0  0  0  0  0  0  0  0  0  0
   -4.8100   15.1210    0.1980 C   0  0  0  0  0  0  0  0  0  0  0  0
   -2.2690   10.8670   -5.0470 C   0  0  0  0  0  0  0  0  0  0  0  0
  2  1  1  1
  2  3  1  0
  2  4  1  0
  3  5  1  6
  3  6  1  0
  4  7  1  0
  6  8  1  0
  7  8  1  0
  8  9  1  6
  9 10  1  0
 10 11  1  1
 10 12  1  0
 12 13  1  0
 13 14  1  1
 13 15  1  0
 15 16  1  0
 15 17  1  0
 16 18  1  0
 16 19  1  0
 17 20  1  0
 17 21  1  0
 18 22  1  0
 19 23  1  0
 20 24  1  0
 21 25  1  0
 22 26  1  0
 23 26  1  0
 24 27  1  0
 25 27  1  0
M  CHG  2  11  -1  14  -1
M  END
