ucsf260-ucsf404
     RDKit          3D

 28 31  0  0  0  0  0  0  0  0999 V2000
    0.8300   11.0250   -2.7470 O   0  0  0  0  0  0  0  0  0  0  0  0
    0.6280   12.3120   -2.9660 C   0  0  1  0  0  0  0  0  0  0  0  0
    1.2670   13.0260   -1.9020 O   0  0  0  0  0  0  0  0  0  0  0  0
    1.3270   12.7530   -4.2840 C   0  0  0  0  0  0  0  0  0  0  0  0
    0.3710   13.1760   -5.4250 C   0  0  0  0  0  0  0  0  0  0  0  0
    0.3290   13.7270   -1.0810 C   0  0  0  0  0  0  0  0  0  0  0  0
    0.0560   15.1270   -1.6470 C   0  0  0  0  0  0  0  0  0  0  0  0
   -0.6890   12.2600   -5.8950 N   0  0  0  0  0  0  0  0  0  0  0  0
   -1.2390   15.1950   -2.4700 C   0  0  0  0  0  0  0  0  0  0  0  0
   -1.7730   11.9600   -4.9760 C   0  0  0  0  0  0  0  0  0  0  0  0
   -0.2390   10.9610   -6.3370 C   0  0  1  0  0  0  0  0  0  0  0  0
   -2.3230   10.6450   -5.3930 N   0  0  0  0  0  0  0  0  0  0  0  0
   -1.5660   10.2940   -6.6040 C   0  0  2  0  0  0  0  0  0  0  0  0
    0.6480   11.0000   -7.5730 C   0  0  0  0  0  0  0  0  0  0  0  0
   -2.5310   15.3880   -1.6510 C   0  0  1  0  0  0  0  0  0  0  0  0
   -1.4090    8.8100   -6.8880 C   0  0  0  0  0  0  0  0  0  0  0  0
    0.5140    9.7270   -8.4060 C   0  0  0  0  0  0  0  0  0  0  0  0
   -3.8310   15.0910   -2.4870 C   0  0  0  0  0  0  0  0  0  0  0  0
   -2.4380   14.7010   -0.2720 C   0  0  0  0  0  0  0  0  0  0  0  0
   -0.1050    8.5300   -7.6540 C   0  0  0  0  0  0  0  0  0  0  0  0
   -3.7760   14.1440    0.1540 C   0  0  2  0  0  0  0  0  0  0  0  0
   -5.0970   14.7550   -1.6670 C   0  0  2  0  0  0  0  0  0  0  0  0
   -6.6270   15.4400   -2.2810 Cl  0  0  0  0  0  0  0  0  0  0  0  0
   -4.8860   15.0940   -0.2160 C   0  0  1  0  0  0  0  0  0  0  0  0
   -4.0190   13.8060    1.8960 S   0  0  0  0  0  0  0  0  0  0  0  0
   -5.5080   14.7910    1.9880 C   0  0  1  0  0  0  0  0  0  0  0  0
   -6.0410   14.8760    0.6660 N   0  0  0  0  0  0  0  0  0  0  0  0
   -6.5550   14.2140    2.7810 N   0  0  0  0  0  0  0  0  0  0  0  0
  2  1  1  1
  2  3  1  0
  2  4  1  0
  4  5  1  0
  3  6  1  0
  6  7  1  0
  5  8  1  0
  7  9  1  0
  8 10  1  0
  8 11  1  0
 10 12  1  0
 11 13  1  0
 12 13  1  0
 11 14  1  6
 15  9  1  6
 13 16  1  1
 14 17  1  0
 15 18  1  0
 15 19  1  0
 16 20  1  0
 17 20  1  0
 21 19  1  1
 18 22  1  0
 22 23  1  6
 21 24  1  0
 22 24  1  0
 21 25  1  0
 25 26  1  0
 24 27  1  1
 26 27  1  0
 26 28  1  1
M  CHG  1   1  -1
M  END
