ucsf337-ucsf378
     RDKit          3D

 23 24  0  0  0  0  0  0  0  0999 V2000
   -7.4590   14.5660    0.7080 C   0  0  0  0  0  0  0  0  0  0  0  0
   -6.3050   15.0860   -0.1720 C   0  0  2  0  0  0  0  0  0  0  0  0
   -6.1980   14.1750   -1.3270 N   0  0  0  0  0  0  0  0  0  0  0  0
   -4.9760   15.3960    0.5770 C   0  0  1  0  0  0  0  0  0  0  0  0
   -4.9580   14.8580    2.4620 Br  0  0  0  0  0  0  0  0  0  0  0  0
   -3.7550   14.9170   -0.1440 C   0  0  0  0  0  0  0  0  0  0  0  0
   -5.0540   14.3590   -2.2120 C   0  0  1  0  0  0  0  0  0  0  0  0
   -5.6280   14.7440   -3.4800 N   0  0  0  0  0  0  0  0  0  0  0  0
   -3.9460   15.2220   -1.6140 C   0  0  0  0  0  0  0  0  0  0  0  0
   -4.7580   14.5930   -4.6610 C   0  0  0  0  0  0  0  0  0  0  0  0
   -3.3630   15.2240   -4.5030 C   0  0  0  0  0  0  0  0  0  0  0  0
   -2.2870   14.2090   -4.0910 C   0  0  0  0  0  0  0  0  0  0  0  0
   -0.8850   14.7760   -3.7630 C   0  0  1  0  0  0  0  0  0  0  0  0
    0.2250   13.6870   -3.5790 C   0  0  1  0  0  0  0  0  0  0  0  0
   -0.4160   15.8490   -4.7620 C   0  0  0  0  0  0  0  0  0  0  0  0
   -0.1750   12.2050   -3.6360 C   0  0  0  0  0  0  0  0  0  0  0  0
    1.4250   13.9900   -4.4610 C   0  0  2  0  0  0  0  0  0  0  0  0
    0.9480   16.4410   -4.4580 C   0  0  0  0  0  0  0  0  0  0  0  0
    2.8240   12.8910   -4.2430 Cl  0  0  0  0  0  0  0  0  0  0  0  0
    0.5160   11.4620   -2.4820 C   0  0  1  0  0  0  0  0  0  0  0  0
    1.9040   15.3400   -4.0390 C   0  0  0  0  0  0  0  0  0  0  0  0
    0.2210   12.0300   -1.3280 O   0  0  0  0  0  0  0  0  0  0  0  0
    0.0000   10.1600   -2.3730 O   0  0  0  0  0  0  0  0  0  0  0  0
  2  1  1  1
  2  3  1  0
  2  4  1  0
  4  5  1  1
  4  6  1  0
  3  7  1  0
  7  8  1  6
  6  9  1  0
  7  9  1  0
  8 10  1  0
 10 11  1  0
 11 12  1  0
 13 12  1  6
 13 14  1  0
 13 15  1  0
 14 16  1  6
 14 17  1  0
 15 18  1  0
 17 19  1  1
 16 20  1  0
 17 21  1  0
 18 21  1  0
 20 22  1  1
 20 23  1  0
M  CHG  1  22  -1
M  END
