ucsf012-ucsf110
     RDKit          3D

 18 20  0  0  0  0  0  0  0  0999 V2000
   -3.2830   15.1600   -4.1420 C   0  0  0  0  0  0  0  0  0  0  0  0
   -2.7230   14.7690   -2.7720 C   0  0  2  0  0  0  0  0  0  0  0  0
   -3.5350   15.3970   -1.6240 C   0  0  1  0  0  0  0  0  0  0  0  0
   -1.3390   15.2610   -2.6100 N   0  0  0  0  0  0  0  0  0  0  0  0
   -4.6920   14.5050   -1.1670 C   0  0  0  0  0  0  0  0  0  0  0  0
   -0.2840   14.4630   -3.2990 C   0  0  0  0  0  0  0  0  0  0  0  0
   -2.5060   15.6760   -0.5170 C   0  0  2  0  0  0  0  0  0  0  0  0
   -1.1500   15.4090   -1.1590 C   0  0  1  0  0  0  0  0  0  0  0  0
   -2.7630   15.1200    0.8860 C   0  0  1  0  0  0  0  0  0  0  0  0
   -0.4220   14.3390   -0.5370 N   0  0  0  0  0  0  0  0  0  0  0  0
   -0.4190   12.9350   -3.2240 C   0  0  2  0  0  0  0  0  0  0  0  0
   -3.9780   14.4030    1.1440 N   0  0  0  0  0  0  0  0  0  0  0  0
   -1.7000   14.3230    1.4530 N   0  0  0  0  0  0  0  0  0  0  0  0
   -0.3800   14.5410    0.8950 C   0  0  0  0  0  0  0  0  0  0  0  0
    0.7080   12.1300   -2.6130 C   0  0  0  0  0  0  0  0  0  0  0  0
   -0.7450   12.2580   -4.4450 O   0  0  0  0  0  0  0  0  0  0  0  0
   -0.4950   10.8590   -4.2020 C   0  0  0  0  0  0  0  0  0  0  0  0
    0.1230   10.7550   -2.8160 C   0  0  0  0  0  0  0  0  0  0  0  0
  2  1  1  6
  2  3  1  0
  2  4  1  0
  3  5  1  1
  4  6  1  0
  3  7  1  0
  4  8  1  0
  7  8  1  0
  7  9  1  1
  8 10  1  1
 11  6  1  6
  9 12  1  6
  9 13  1  0
 10 14  1  0
 13 14  1  0
 11 15  1  0
 11 16  1  0
 16 17  1  0
 15 18  1  0
 17 18  1  0
M  END
