ucsf030-ucsf339
     RDKit          3D

 24 26  0  0  0  0  0  0  0  0999 V2000
   -3.0360   13.0450   -1.0300 Cl  0  0  0  0  0  0  0  0  0  0  0  0
   -1.6870   13.8090   -0.1000 C   0  0  2  0  0  0  0  0  0  0  0  0
   -1.9950   15.3090    0.1710 C   0  0  1  0  0  0  0  0  0  0  0  0
   -0.2320   13.6320   -0.6750 C   0  0  2  0  0  0  0  0  0  0  0  0
   -3.1070   15.4800    1.1020 N   0  0  0  0  0  0  0  0  0  0  0  0
    0.5000   14.8520   -0.4790 N   0  0  0  0  0  0  0  0  0  0  0  0
   -0.9620   16.0260    0.8660 N   0  0  0  0  0  0  0  0  0  0  0  0
    0.0960   13.1380   -2.0430 N   0  0  0  0  0  0  0  0  0  0  0  0
    0.2750   15.3100    0.8410 C   0  0  0  0  0  0  0  0  0  0  0  0
   -0.3240   14.1010   -3.0600 C   0  0  0  0  0  0  0  0  0  0  0  0
   -0.4240   11.7880   -2.3980 C   0  0  0  0  0  0  0  0  0  0  0  0
   -1.6030   13.5800   -3.7220 C   0  0  2  0  0  0  0  0  0  0  0  0
   -0.3780   11.4930   -3.9150 C   0  0  0  0  0  0  0  0  0  0  0  0
   -1.1540   12.5300   -4.7280 C   0  0  0  0  0  0  0  0  0  0  0  0
   -2.5820   14.7670   -4.0610 C   0  0  2  0  0  0  0  0  0  0  0  0
   -1.7580   16.1230   -4.1380 C   0  0  1  0  0  0  0  0  0  0  0  0
   -3.7100   14.5730   -2.9280 C   0  0  0  0  0  0  0  0  0  0  0  0
   -2.5000   17.1970   -4.3850 O   0  0  0  0  0  0  0  0  0  0  0  0
   -1.2130   16.4760   -2.8910 O   0  0  0  0  0  0  0  0  0  0  0  0
   -3.5720   15.5110   -1.7070 C   0  0  0  0  0  0  0  0  0  0  0  0
   -5.1770   14.3260   -3.3650 C   0  0  0  0  0  0  0  0  0  0  0  0
   -4.6700   15.4070   -0.6280 C   0  0  0  0  0  0  0  0  0  0  0  0
   -6.1210   14.1020   -2.1670 C   0  0  0  0  0  0  0  0  0  0  0  0
   -6.0670   15.2670   -1.1940 C   0  0  0  0  0  0  0  0  0  0  0  0
  2  1  1  6
  2  3  1  0
  2  4  1  0
  3  5  1  1
  4  6  1  0
  3  7  1  0
  4  8  1  6
  6  9  1  0
  7  9  1  0
  8 10  1  0
  8 11  1  0
 12 10  1  6
 11 13  1  0
 12 14  1  0
 13 14  1  0
 12 15  1  0
 15 16  1  0
 15 17  1  1
 16 18  1  1
 16 19  1  0
 17 20  1  0
 17 21  1  0
 20 22  1  0
 21 23  1  0
 22 24  1  0
 23 24  1  0
M  CHG  1  18  -1
M  END
