ucsf039-ucsf278
     RDKit          3D

 27 31  0  0  0  0  0  0  0  0999 V2000
   -4.2400   15.7170    0.9220 N   0  0  0  0  0  0  0  0  0  0  0  0
   -3.6310   14.8400   -0.0530 C   0  0  2  0  0  0  0  0  0  0  0  0
   -2.2130   14.4630    0.3970 C   0  0  1  0  0  0  0  0  0  0  0  0
   -3.6910   15.5810   -1.2860 N   0  0  0  0  0  0  0  0  0  0  0  0
   -2.9220   14.9760   -2.3710 C   0  0  0  0  0  0  0  0  0  0  0  0
   -1.3430   14.0550   -0.7880 C   0  0  1  0  0  0  0  0  0  0  0  0
   -1.4050   15.4800    1.0660 N   0  0  0  0  0  0  0  0  0  0  0  0
   -1.5220   14.8580   -1.9950 N   0  0  0  0  0  0  0  0  0  0  0  0
    0.0090   14.1870   -0.2380 N   0  0  0  0  0  0  0  0  0  0  0  0
   -0.0900   14.9040    1.0150 C   0  0  0  0  0  0  0  0  0  0  0  0
   -0.4050   14.8870   -3.0340 C   0  0  2  0  0  0  0  0  0  0  0  0
   -0.2670   16.3470   -3.7150 C   0  0  1  0  0  0  0  0  0  0  0  0
   -0.6410   13.7970   -4.1490 C   0  0  2  0  0  0  0  0  0  0  0  0
    0.9410   14.4820   -2.3450 C   0  0  0  0  0  0  0  0  0  0  0  0
    1.0580   16.5260   -4.4480 C   0  0  0  0  0  0  0  0  0  0  0  0
   -1.3210   16.8220   -4.6610 N   0  0  0  0  0  0  0  0  0  0  0  0
   -0.9670   12.3580   -3.7070 C   0  0  0  0  0  0  0  0  0  0  0  0
    0.5360   13.6010   -5.1180 C   0  0  2  0  0  0  0  0  0  0  0  0
    2.1630   14.3170   -3.2120 C   0  0  0  0  0  0  0  0  0  0  0  0
   -0.7400   17.7450   -5.6560 C   0  0  2  0  0  0  0  0  0  0  0  0
    0.9200   18.1720   -5.1330 S   0  0  0  0  0  0  0  0  0  0  0  0
   -0.4480   11.4880   -4.8520 C   0  0  2  0  0  0  0  0  0  0  0  0
    0.7620   12.1710   -5.3140 N   0  0  0  0  0  0  0  0  0  0  0  0
    1.8700   14.1900   -4.6810 C   0  0  0  0  0  0  0  0  0  0  0  0
   -1.5840   18.9850   -5.9100 C   0  0  0  0  0  0  0  0  0  0  0  0
   -1.4430   11.2520   -5.9820 C   0  0  0  0  0  0  0  0  0  0  0  0
   -2.4550   10.3470   -5.5430 O   0  0  0  0  0  0  0  0  0  0  0  0
  2  1  1  1
  2  3  1  0
  2  4  1  0
  4  5  1  0
  3  6  1  0
  3  7  1  6
  5  8  1  0
  6  8  1  0
  6  9  1  1
  7 10  1  0
  9 10  1  0
 11  8  1  1
 11 12  1  0
 11 13  1  0
 11 14  1  0
 12 15  1  6
 12 16  1  0
 13 17  1  1
 13 18  1  0
 14 19  1  0
 16 20  1  0
 15 21  1  0
 20 21  1  0
 17 22  1  0
 18 23  1  0
 22 23  1  0
 18 24  1  1
 19 24  1  0
 20 25  1  1
 22 26  1  6
 26 27  1  0
M  END
