ucsf138-ucsf511
     RDKit          3D

 27 30  0  0  0  0  0  0  0  0999 V2000
    1.2000   12.9980   -2.7770 O   0  0  0  0  0  0  0  0  0  0  0  0
    0.3950   12.1340   -3.5460 C   0  0  2  0  0  0  0  0  0  0  0  0
    0.4660   10.7980   -3.0370 O   0  0  0  0  0  0  0  0  0  0  0  0
    0.6750   14.3590   -2.8970 N   0  0  0  0  0  0  0  0  0  0  0  0
    0.8830   12.2370   -5.0080 C   0  0  0  0  0  0  0  0  0  0  0  0
    0.0740   14.6230   -1.5810 C   0  0  0  0  0  0  0  0  0  0  0  0
   -0.1680   14.5630   -4.1220 C   0  0  0  0  0  0  0  0  0  0  0  0
    0.2860   11.1930   -5.8260 N   0  0  0  0  0  0  0  0  0  0  0  0
   -1.3700   14.1420   -1.5140 C   0  0  2  0  0  0  0  0  0  0  0  0
   -1.5870   14.1850   -3.9810 N   0  0  0  0  0  0  0  0  0  0  0  0
    0.5430   11.2610   -7.2280 C   0  0  1  0  0  0  0  0  0  0  0  0
   -2.1130   14.6360   -2.7160 C   0  0  1  0  0  0  0  0  0  0  0  0
   -2.1230   14.6560   -0.4120 O   0  0  0  0  0  0  0  0  0  0  0  0
    1.9060   11.3590   -7.5170 O   0  0  0  0  0  0  0  0  0  0  0  0
   -0.1190   10.0840   -7.7110 N   0  0  0  0  0  0  0  0  0  0  0  0
   -3.4940   14.4200   -0.7760 C   0  0  2  0  0  0  0  0  0  0  0  0
   -3.5350   14.2880   -2.3260 C   0  0  1  0  0  0  0  0  0  0  0  0
    0.3370    9.4530   -8.9480 C   0  0  0  0  0  0  0  0  0  0  0  0
   -4.6080   15.1160   -2.9660 C   0  0  0  0  0  0  0  0  0  0  0  0
   -4.4040   15.4660   -0.1410 C   0  0  0  0  0  0  0  0  0  0  0  0
    0.6390   10.4290  -10.0990 C   0  0  0  0  0  0  0  0  0  0  0  0
    1.5630    8.5830   -8.6800 C   0  0  0  0  0  0  0  0  0  0  0  0
   -5.9050   15.0030   -2.1820 C   0  0  0  0  0  0  0  0  0  0  0  0
   -5.7850   15.6040   -0.7930 C   0  0  0  0  0  0  0  0  0  0  0  0
    0.9150    9.6940  -11.4150 C   0  0  0  0  0  0  0  0  0  0  0  0
    2.2020    8.0540   -9.9710 C   0  0  0  0  0  0  0  0  0  0  0  0
    1.3060    8.2330  -11.1980 C   0  0  0  0  0  0  0  0  0  0  0  0
  1  2  1  0
  2  3  1  1
  1  4  1  0
  2  5  1  0
  4  6  1  0
  4  7  1  0
  5  8  1  0
  9  6  1  6
  7 10  1  0
  8 11  1  0
  9 12  1  0
 12 10  1  6
  9 13  1  0
 11 14  1  1
 11 15  1  0
 13 16  1  0
 12 17  1  0
 16 17  1  0
 15 18  1  0
 17 19  1  6
 16 20  1  6
 18 21  1  0
 18 22  1  0
 19 23  1  0
 20 24  1  0
 23 24  1  0
 21 25  1  0
 22 26  1  0
 25 27  1  0
 26 27  1  0
M  END
