ucsf348-ucsf424
     RDKit          3D

 27 30  0  0  0  0  0  0  0  0999 V2000
   -7.0060   14.7120    2.4560 N   0  0  0  0  0  0  0  0  0  0  0  0
   -6.2100   14.3260    1.3340 C   0  0  2  0  0  0  0  0  0  0  0  0
   -4.9860   15.0220    1.4860 N   0  0  0  0  0  0  0  0  0  0  0  0
   -6.8720   14.8080    0.1720 N   0  0  0  0  0  0  0  0  0  0  0  0
   -6.0680   14.6120   -1.0230 C   0  0  1  0  0  0  0  0  0  0  0  0
   -3.9740   14.5940    0.5430 C   0  0  1  0  0  0  0  0  0  0  0  0
   -6.2660   15.7240   -1.8790 O   0  0  0  0  0  0  0  0  0  0  0  0
   -4.5330   14.3600   -0.8790 C   0  0  2  0  0  0  0  0  0  0  0  0
   -2.7290   15.5020    0.6000 C   0  0  0  0  0  0  0  0  0  0  0  0
   -1.6570   15.2590   -0.4670 C   0  0  0  0  0  0  0  0  0  0  0  0
   -3.7030   15.0880   -1.9280 C   0  0  0  0  0  0  0  0  0  0  0  0
   -2.2460   14.6740   -1.7460 C   0  0  1  0  0  0  0  0  0  0  0  0
   -1.3660   14.8310   -3.0040 C   0  0  0  0  0  0  0  0  0  0  0  0
   -1.2330   13.5560   -3.8580 C   0  0  0  0  0  0  0  0  0  0  0  0
   -0.8100   12.4450   -3.0490 O   0  0  0  0  0  0  0  0  0  0  0  0
    0.4960   11.9450   -3.3480 C   0  0  2  0  0  0  0  0  0  0  0  0
    1.3280   12.4700   -2.4580 O   0  0  0  0  0  0  0  0  0  0  0  0
    0.9070   12.5010   -4.7440 C   0  0  0  0  0  0  0  0  0  0  0  0
    0.2940   11.8440   -5.9990 C   0  0  1  0  0  0  0  0  0  0  0  0
    1.2850   11.5460   -7.0460 N   0  0  0  0  0  0  0  0  0  0  0  0
   -0.4810   10.5330   -5.8430 C   0  0  2  0  0  0  0  0  0  0  0  0
    0.6250   10.6040   -7.9400 O   0  0  0  0  0  0  0  0  0  0  0  0
   -0.1690    9.7490   -7.1180 C   0  0  2  0  0  0  0  0  0  0  0  0
   -1.9800   10.6900   -5.5800 C   0  0  0  0  0  0  0  0  0  0  0  0
   -1.4050    9.3260   -7.8840 C   0  0  0  0  0  0  0  0  0  0  0  0
   -2.6870    9.3410   -5.6700 C   0  0  0  0  0  0  0  0  0  0  0  0
   -2.3990    8.6030   -6.9810 C   0  0  0  0  0  0  0  0  0  0  0  0
  2  1  1  1
  2  3  1  0
  2  4  1  0
  4  5  1  0
  3  6  1  0
  5  7  1  6
  5  8  1  0
  6  8  1  0
  6  9  1  6
  9 10  1  0
  8 11  1  6
 10 12  1  0
 11 12  1  0
 12 13  1  6
 13 14  1  0
 14 15  1  0
 15 16  1  0
 16 17  1  1
 16 18  1  0
 19 18  1  1
 19 20  1  0
 19 21  1  0
 20 22  1  0
 21 23  1  0
 22 23  1  0
 21 24  1  6
 23 25  1  6
 24 26  1  0
 25 27  1  0
 26 27  1  0
M  CHG  1  17  -1
M  END
