ucsf371-ucsf170
     RDKit          3D

 11 11  0  0  0  0  0  0  0  0999 V2000
   -4.6150   14.8760    0.4890 C   0  0  0  0  0  0  0  0  0  0  0  0
   -3.1410   14.7300    1.5450 S   0  0  0  0  0  0  0  0  0  0  0  0
   -4.2440   15.4840   -0.8590 C   0  0  2  0  0  0  0  0  0  0  0  0
   -4.6160   14.7220   -2.0570 N   0  0  0  0  0  0  0  0  0  0  0  0
   -2.4510   15.7790   -0.8810 S   0  0  0  0  0  0  0  0  0  0  0  0
   -3.5610   14.9440   -3.0640 C   0  0  0  0  0  0  0  0  0  0  0  0
   -2.1870   14.8430   -2.4080 C   0  0  1  0  0  0  0  0  0  0  0  0
   -1.0330   15.4200   -3.2450 C   0  0  2  0  0  0  0  0  0  0  0  0
   -0.8450   14.7360   -4.4850 O   0  0  0  0  0  0  0  0  0  0  0  0
    0.1770   15.3840   -2.4630 O   0  0  0  0  0  0  0  0  0  0  0  0
    0.6000   13.9880   -2.3020 O   0  0  0  0  0  0  0  0  0  0  0  0
  1  2  1  0
  3  1  1  1
  3  4  1  0
  3  5  1  0
  4  6  1  0
  5  7  1  0
  7  6  1  6
  7  8  1  0
  8  9  1  6
  8 10  1  0
 10 11  1  0
M  END
