ucsf516-ucsf511
     RDKit          3D

 27 32  0  0  0  0  0  0  0  0999 V2000
    0.0740   15.3870   -2.6530 O   0  0  0  0  0  0  0  0  0  0  0  0
   -0.6230   14.3560   -3.3370 C   0  0  2  0  0  0  0  0  0  0  0  0
    0.4570   13.4050   -3.8120 C   0  0  0  0  0  0  0  0  0  0  0  0
   -1.3870   14.9310   -4.5420 C   0  0  0  0  0  0  0  0  0  0  0  0
   -1.7380   13.6950   -2.4090 C   0  0  2  0  0  0  0  0  0  0  0  0
    1.9260   13.8330   -3.5510 C   0  0  0  0  0  0  0  0  0  0  0  0
    0.8430   12.1330   -2.9920 C   0  0  0  0  0  0  0  0  0  0  0  0
   -3.1640   14.1220   -3.0670 C   0  0  2  0  0  0  0  0  0  0  0  0
   -2.7150   14.1750   -4.5700 C   0  0  0  0  0  0  0  0  0  0  0  0
   -1.5240   14.2720   -0.9410 C   0  0  2  0  0  0  0  0  0  0  0  0
   -1.7360   12.1270   -2.3940 C   0  0  0  0  0  0  0  0  0  0  0  0
    2.1980   12.3560   -3.6890 C   0  0  0  0  0  0  0  0  0  0  0  0
   -0.2690   14.0220   -0.2280 N   0  0  0  0  0  0  0  0  0  0  0  0
   -2.7510   14.1410   -0.0360 C   0  0  1  0  0  0  0  0  0  0  0  0
   -3.8400   15.4950   -2.6940 C   0  0  0  0  0  0  0  0  0  0  0  0
   -4.0800   12.9180   -2.6850 C   0  0  1  0  0  0  0  0  0  0  0  0
   -2.3680   11.5300   -3.5470 O   0  0  0  0  0  0  0  0  0  0  0  0
   -0.1760   14.5560    1.1100 C   0  0  0  0  0  0  0  0  0  0  0  0
   -2.5070   14.5660    1.3760 C   0  0  1  0  0  0  0  0  0  0  0  0
   -3.8900   15.0510   -0.4510 C   0  0  0  0  0  0  0  0  0  0  0  0
   -5.2840   15.5680   -2.1020 C   0  0  0  0  0  0  0  0  0  0  0  0
   -5.5420   13.1960   -2.3100 C   0  0  0  0  0  0  0  0  0  0  0  0
   -3.7760   11.7440   -3.5800 C   0  0  0  0  0  0  0  0  0  0  0  0
   -1.3290   15.3460    1.4320 N   0  0  0  0  0  0  0  0  0  0  0  0
   -3.5570   15.5020    1.7380 N   0  0  0  0  0  0  0  0  0  0  0  0
   -4.6290   15.1460    0.8400 C   0  0  0  0  0  0  0  0  0  0  0  0
   -5.7190   14.3460   -1.3630 C   0  0  0  0  0  0  0  0  0  0  0  0
  2  1  1  1
  2  3  1  0
  2  4  1  0
  2  5  1  0
  3  6  1  0
  3  7  1  0
  5  8  1  0
  4  9  1  0
  8  9  1  6
  5 10  1  0
  5 11  1  1
  6 12  1  0
  7 12  1  0
 10 13  1  1
 10 14  1  0
  8 15  1  0
  8 16  1  0
 11 17  1  0
 13 18  1  0
 14 19  1  0
 14 20  1  6
 15 21  1  0
 16 22  1  6
 16 23  1  0
 17 23  1  0
 18 24  1  0
 19 24  1  6
 19 25  1  0
 20 26  1  0
 25 26  1  0
 21 27  1  0
 22 27  1  0
M  END
