ucsf523-ucsf224
     RDKit          3D

 25 27  0  0  0  0  0  0  0  0999 V2000
    0.0450   13.6430    1.6720 N   0  0  0  0  0  0  0  0  0  0  0  0
   -0.5340   14.6810    0.9390 C   0  0  2  0  0  0  0  0  0  0  0  0
   -1.7810   14.9860    1.5400 N   0  0  0  0  0  0  0  0  0  0  0  0
   -0.6470   14.4180   -0.4380 N   0  0  0  0  0  0  0  0  0  0  0  0
   -1.4050   15.4750   -1.0270 C   0  0  1  0  0  0  0  0  0  0  0  0
   -2.9160   14.6370    0.7310 C   0  0  2  0  0  0  0  0  0  0  0  0
   -1.0810   15.8150   -2.3770 O   0  0  0  0  0  0  0  0  0  0  0  0
   -2.9020   15.3500   -0.6370 C   0  0  2  0  0  0  0  0  0  0  0  0
   -4.0490   15.1130    1.4790 N   0  0  0  0  0  0  0  0  0  0  0  0
   -5.1910   15.1560    0.6040 C   0  0  2  0  0  0  0  0  0  0  0  0
   -3.9060   14.7420   -1.5570 N   0  0  0  0  0  0  0  0  0  0  0  0
   -1.1420   14.9060   -3.5000 C   0  0  2  0  0  0  0  0  0  0  0  0
   -6.3010   14.7390    1.3910 O   0  0  0  0  0  0  0  0  0  0  0  0
   -5.0720   14.3380   -0.7180 C   0  0  0  0  0  0  0  0  0  0  0  0
    0.3200   14.4470   -3.8150 C   0  0  1  0  0  0  0  0  0  0  0  0
   -1.7910   15.9570   -4.4100 C   0  0  2  0  0  0  0  0  0  0  0  0
   -2.8560   15.3550   -5.7150 Cl  0  0  0  0  0  0  0  0  0  0  0  0
    0.5280   12.9310   -4.1050 C   0  0  0  0  0  0  0  0  0  0  0  0
   -0.8170   17.1180   -4.7010 C   0  0  2  0  0  0  0  0  0  0  0  0
    0.9940   15.2900   -4.9080 C   0  0  0  0  0  0  0  0  0  0  0  0
   -1.4370   18.2700   -5.9270 Cl  0  0  0  0  0  0  0  0  0  0  0  0
    1.1550   12.1530   -2.9190 C   0  0  2  0  0  0  0  0  0  0  0  0
    0.6610   16.7840   -4.9440 C   0  0  0  0  0  0  0  0  0  0  0  0
    0.3650   11.1620   -2.5480 O   0  0  0  0  0  0  0  0  0  0  0  0
    1.1510   12.9410   -1.7630 O   0  0  0  0  0  0  0  0  0  0  0  0
  2  1  1  1
  2  3  1  0
  2  4  1  0
  4  5  1  0
  6  3  1  1
  5  7  1  6
  5  8  1  0
  6  8  1  0
  6  9  1  0
  9 10  1  0
  8 11  1  6
 12  7  1  1
 10 13  1  1
 10 14  1  0
 11 14  1  0
 12 15  1  0
 12 16  1  0
 16 17  1  6
 15 18  1  6
 16 19  1  0
 15 20  1  0
 19 21  1  6
 18 22  1  0
 19 23  1  0
 20 23  1  0
 22 24  1  1
 22 25  1  0
M  CHG  1  24  -1
M  END
