ucsf173-ucsf493
     RDKit          3D

 15 16  0  0  0  0  0  0  0  0999 V2000
    1.3230   12.8110   -1.8590 O   0  0  0  0  0  0  0  0  0  0  0  0
    0.1780   12.8010   -2.4880 C   0  0  2  0  0  0  0  0  0  0  0  0
   -0.0000   11.4090   -2.6910 O   0  0  0  0  0  0  0  0  0  0  0  0
    0.2140   13.5510   -3.8690 C   0  0  1  0  0  0  0  0  0  0  0  0
    0.8490   12.6040   -4.9220 C   0  0  0  0  0  0  0  0  0  0  0  0
   -1.2030   13.9530   -4.3760 C   0  0  0  0  0  0  0  0  0  0  0  0
    1.0100   14.8930   -3.8550 C   0  0  0  0  0  0  0  0  0  0  0  0
   -1.2040   15.4780   -4.4410 C   0  0  1  0  0  0  0  0  0  0  0  0
    0.2330   15.7820   -4.8290 C   0  0  1  0  0  0  0  0  0  0  0  0
   -2.2420   16.1020   -5.3650 C   0  0  1  0  0  0  0  0  0  0  0  0
    0.5940   17.2610   -4.8260 C   0  0  0  0  0  0  0  0  0  0  0  0
   -3.5200   16.1460   -4.7710 O   0  0  0  0  0  0  0  0  0  0  0  0
   -1.8220   17.5280   -5.8010 C   0  0  0  0  0  0  0  0  0  0  0  0
   -0.6150   18.1610   -5.0970 C   0  0  0  0  0  0  0  0  0  0  0  0
   -4.3610   15.1640   -5.3790 C   0  0  0  0  0  0  0  0  0  0  0  0
  2  1  1  6
  2  3  1  0
  2  4  1  0
  4  5  1  6
  4  6  1  0
  4  7  1  0
  8  6  1  6
  9  7  1  1
  8  9  1  0
  8 10  1  0
  9 11  1  0
 10 12  1  1
 10 13  1  0
 11 14  1  0
 13 14  1  0
 12 15  1  0
M  CHG  1   1  -1
M  END
