ucsf190-ucsf348
     RDKit          3D

 28 31  0  0  0  0  0  0  0  0999 V2000
    0.6130   10.5440   -2.4280 O   0  0  0  0  0  0  0  0  0  0  0  0
    1.0520   11.8040   -2.4620 C   0  0  2  0  0  0  0  0  0  0  0  0
    0.0960   12.4180   -1.6430 O   0  0  0  0  0  0  0  0  0  0  0  0
    1.1160   12.3470   -3.9140 C   0  0  0  0  0  0  0  0  0  0  0  0
    0.8330   13.8650   -4.0080 C   0  0  2  0  0  0  0  0  0  0  0  0
   -0.1330   14.3350   -5.1110 C   0  0  2  0  0  0  0  0  0  0  0  0
    2.0690   14.7130   -4.0250 N   0  0  0  0  0  0  0  0  0  0  0  0
   -0.5810   15.6860   -4.4930 C   0  0  1  0  0  0  0  0  0  0  0  0
    1.8250   15.9480   -4.7690 N   0  0  0  0  0  0  0  0  0  0  0  0
   -1.2530   13.2860   -5.4460 C   0  0  0  0  0  0  0  0  0  0  0  0
    0.5880   16.6550   -4.4690 C   0  0  1  0  0  0  0  0  0  0  0  0
   -1.9470   16.1460   -4.9120 C   0  0  0  0  0  0  0  0  0  0  0  0
   -2.6940   13.7820   -5.2570 C   0  0  0  0  0  0  0  0  0  0  0  0
    0.4580   17.7110   -5.3940 O   0  0  0  0  0  0  0  0  0  0  0  0
   -2.5740   14.9440   -4.3040 C   0  0  2  0  0  0  0  0  0  0  0  0
   -3.3810   15.0540   -3.0280 C   0  0  0  0  0  0  0  0  0  0  0  0
   -2.9280   14.0740   -1.9210 C   0  0  1  0  0  0  0  0  0  0  0  0
   -2.0770   14.5440   -0.7280 C   0  0  0  0  0  0  0  0  0  0  0  0
   -4.2190   13.5860   -1.3720 C   0  0  0  0  0  0  0  0  0  0  0  0
   -5.0010   14.7710   -0.8720 C   0  0  1  0  0  0  0  0  0  0  0  0
   -2.8710   14.8710    0.5730 C   0  0  0  0  0  0  0  0  0  0  0  0
   -6.4740   14.4060   -0.8200 C   0  0  2  0  0  0  0  0  0  0  0  0
   -4.3570   15.3060    0.4000 C   0  0  2  0  0  0  0  0  0  0  0  0
   -7.0670   14.9670   -1.9720 O   0  0  0  0  0  0  0  0  0  0  0  0
   -7.2040   14.9250    0.2990 N   0  0  0  0  0  0  0  0  0  0  0  0
   -5.1840   15.1180    1.6090 N   0  0  0  0  0  0  0  0  0  0  0  0
   -6.5660   14.7540    1.5610 C   0  0  2  0  0  0  0  0  0  0  0  0
   -6.7780   13.4580    2.0570 N   0  0  0  0  0  0  0  0  0  0  0  0
  2  1  1  6
  2  3  1  0
  2  4  1  0
  5  4  1  6
  5  6  1  0
  5  7  1  0
  6  8  1  0
  7  9  1  0
  6 10  1  1
  8 11  1  0
  9 11  1  0
  8 12  1  6
 10 13  1  0
 11 14  1  6
 12 15  1  0
 13 15  1  0
 15 16  1  6
 17 16  1  6
 17 18  1  0
 17 19  1  0
 20 19  1  1
 18 21  1  0
 20 22  1  0
 20 23  1  0
 23 21  1  1
 22 24  1  6
 22 25  1  0
 23 26  1  0
 25 27  1  0
 26 27  1  0
 27 28  1  6
M  CHG  1   1  -1
M  END
