ucsf151-ucsf135
     RDKit          3D

 21 23  0  0  0  0  0  0  0  0999 V2000
    0.6270   12.8440   -2.1940 O   0  0  0  0  0  0  0  0  0  0  0  0
   -0.1280   13.9140   -2.1570 C   0  0  1  0  0  0  0  0  0  0  0  0
    0.7740   14.9200   -2.5900 O   0  0  0  0  0  0  0  0  0  0  0  0
   -1.3590   13.8730   -3.1180 C   0  0  1  0  0  0  0  0  0  0  0  0
   -1.6480   15.1990   -3.8590 C   0  0  0  0  0  0  0  0  0  0  0  0
   -1.7250   12.5470   -3.8930 C   0  0  1  0  0  0  0  0  0  0  0  0
   -2.1500   14.9710   -5.2640 C   0  0  2  0  0  0  0  0  0  0  0  0
   -2.7950   12.5960   -4.9500 N   0  0  0  0  0  0  0  0  0  0  0  0
   -0.4880   11.3920   -4.4840 S   0  0  2  0  0  0  0  0  0  0  0  0
   -2.5900   16.2060   -5.8540 O   0  0  0  0  0  0  0  0  0  0  0  0
   -0.0620   10.6190   -3.1170 O   0  0  0  0  0  0  0  0  0  0  0  0
   -3.2710   13.9340   -5.2970 C   0  0  0  0  0  0  0  0  0  0  0  0
    0.8920   11.9340   -5.2540 N   0  0  0  0  0  0  0  0  0  0  0  0
   -0.8580    9.9400   -5.4490 C   0  0  2  0  0  0  0  0  0  0  0  0
    0.9220   11.3970   -6.6140 C   0  0  1  0  0  0  0  0  0  0  0  0
   -0.0190   10.1530   -6.7460 C   0  0  2  0  0  0  0  0  0  0  0  0
   -2.3000    9.6360   -5.7700 C   0  0  0  0  0  0  0  0  0  0  0  0
    0.4480   12.3870   -7.4500 O   0  0  0  0  0  0  0  0  0  0  0  0
   -2.4050    8.5530   -6.8550 C   0  0  0  0  0  0  0  0  0  0  0  0
   -0.8600   10.1830   -8.0230 C   0  0  0  0  0  0  0  0  0  0  0  0
   -1.6650    8.8970   -8.1540 C   0  0  0  0  0  0  0  0  0  0  0  0
  2  1  1  6
  2  3  1  0
  2  4  1  0
  4  5  1  6
  4  6  1  0
  5  7  1  0
  6  8  1  6
  6  9  1  0
  7 10  1  1
  9 11  1  1
  7 12  1  0
  8 12  1  0
  9 13  1  0
  9 14  1  0
 13 15  1  0
 14 16  1  0
 15 16  1  0
 14 17  1  6
 15 18  1  6
 17 19  1  0
 16 20  1  6
 19 21  1  0
 20 21  1  0
M  CHG  1   1  -1
M  END
