ucsf336-ucsf264
     RDKit          3D

 19 21  0  0  0  0  0  0  0  0999 V2000
    1.2600   13.7000   -5.0700 O   0  0  0  0  0  0  0  0  0  0  0  0
    0.8630   12.5460   -4.6030 C   0  0  1  0  0  0  0  0  0  0  0  0
    1.7570   12.3680   -3.5090 O   0  0  0  0  0  0  0  0  0  0  0  0
   -0.5950   12.4640   -4.0880 C   0  0  2  0  0  0  0  0  0  0  0  0
    0.8170   11.4630   -5.6330 N   0  0  0  0  0  0  0  0  0  0  0  0
   -0.6850   11.4210   -3.1260 O   0  0  0  0  0  0  0  0  0  0  0  0
   -1.3730   12.1070   -5.2930 N   0  0  0  0  0  0  0  0  0  0  0  0
   -0.5990   10.9830   -5.8040 C   0  0  1  0  0  0  0  0  0  0  0  0
    1.2810   11.8290   -7.0060 N   0  0  0  0  0  0  0  0  0  0  0  0
   -0.6980   10.6990   -7.3260 C   0  0  1  0  0  0  0  0  0  0  0  0
   -1.0890    9.7090   -5.0710 C   0  0  0  0  0  0  0  0  0  0  0  0
    0.7660   10.6730   -7.7410 C   0  0  1  0  0  0  0  0  0  0  0  0
    1.0190   10.3880   -9.2440 C   0  0  0  0  0  0  0  0  0  0  0  0
   -1.2730    9.2960   -7.6700 C   0  0  0  0  0  0  0  0  0  0  0  0
   -2.4950    9.2630   -5.4810 C   0  0  0  0  0  0  0  0  0  0  0  0
    1.6360    9.2150   -9.4730 F   0  0  0  0  0  0  0  0  0  0  0  0
   -0.1610   10.3110   -9.9110 F   0  0  0  0  0  0  0  0  0  0  0  0
    1.6960   11.3310   -9.9170 F   0  0  0  0  0  0  0  0  0  0  0  0
   -2.5750    8.9610   -6.9670 C   0  0  0  0  0  0  0  0  0  0  0  0
  2  1  1  6
  2  3  1  0
  2  4  1  0
  2  5  1  0
  4  6  1  1
  4  7  1  0
  5  8  1  0
  8  7  1  0
  5  9  1  0
  8 10  1  0
  8 11  1  1
  9 12  1  0
 10 12  1  0
 12 13  1  6
 10 14  1  1
 11 15  1  0
 13 16  1  0
 13 17  1  0
 13 18  1  0
 14 19  1  0
 15 19  1  0
M  CHG  1   1  -1
M  END
