ucsf365-ucsf424
     RDKit          3D

 20 22  0  0  0  0  0  0  0  0999 V2000
    0.6520   11.4490   -2.4390 O   0  0  0  0  0  0  0  0  0  0  0  0
    0.8670   12.5030   -3.2100 C   0  0  1  0  0  0  0  0  0  0  0  0
    2.2370   12.4260   -3.4560 O   0  0  0  0  0  0  0  0  0  0  0  0
   -0.0700   12.3840   -4.4780 C   0  0  1  0  0  0  0  0  0  0  0  0
   -0.8560   13.6360   -4.9700 C   0  0  1  0  0  0  0  0  0  0  0  0
    0.1680   11.7990   -5.9410 C   0  0  1  0  0  0  0  0  0  0  0  0
   -2.0680   13.0210   -5.6960 C   0  0  1  0  0  0  0  0  0  0  0  0
   -1.2390   14.8230   -4.0820 C   0  0  0  0  0  0  0  0  0  0  0  0
    1.4320   11.5390   -6.6590 N   0  0  0  0  0  0  0  0  0  0  0  0
   -0.6890   10.5780   -6.2560 C   0  0  1  0  0  0  0  0  0  0  0  0
   -2.2750   11.6670   -5.3300 O   0  0  0  0  0  0  0  0  0  0  0  0
   -3.3620   13.7400   -5.3780 C   0  0  0  0  0  0  0  0  0  0  0  0
   -2.0900   15.8500   -4.8570 C   0  0  0  0  0  0  0  0  0  0  0  0
    1.0940   10.5450   -7.7090 O   0  0  0  0  0  0  0  0  0  0  0  0
    0.0750    9.7130   -7.1730 C   0  0  2  0  0  0  0  0  0  0  0  0
   -1.3370    9.6480   -5.2690 C   0  0  0  0  0  0  0  0  0  0  0  0
   -3.2570   15.2320   -5.6160 C   0  0  0  0  0  0  0  0  0  0  0  0
   -0.9530    9.1410   -8.1350 C   0  0  0  0  0  0  0  0  0  0  0  0
   -2.4850    8.9290   -5.9870 C   0  0  0  0  0  0  0  0  0  0  0  0
   -2.1280    8.4240   -7.4020 C   0  0  0  0  0  0  0  0  0  0  0  0
  2  1  1  1
  2  3  1  0
  4  2  1  6
  4  5  1  0
  4  6  1  0
  5  7  1  0
  5  8  1  1
  6  9  1  1
  6 10  1  0
  7 11  1  1
  7 12  1  0
  8 13  1  0
  9 14  1  0
 10 15  1  0
 14 15  1  0
 10 16  1  1
 12 17  1  0
 13 17  1  0
 15 18  1  6
 16 19  1  0
 18 20  1  0
 19 20  1  0
M  CHG  1   1  -1
M  END
