ucsf345-ucsf274
     RDKit          3D

 27 29  0  0  0  0  0  0  0  0999 V2000
   -6.8420   14.6400    1.5330 N   0  0  0  0  0  0  0  0  0  0  0  0
   -7.0410   14.8660    0.1090 C   0  0  2  0  0  0  0  0  0  0  0  0
   -7.5450   13.6750   -0.4260 O   0  0  0  0  0  0  0  0  0  0  0  0
   -5.7350   15.3270   -0.6140 C   0  0  2  0  0  0  0  0  0  0  0  0
   -5.7050   14.8950   -2.0350 N   0  0  0  0  0  0  0  0  0  0  0  0
   -4.4970   14.9940    0.2820 C   0  0  0  0  0  0  0  0  0  0  0  0
   -4.3690   14.9990   -2.6180 C   0  0  0  0  0  0  0  0  0  0  0  0
   -3.2150   15.1800   -0.4080 N   0  0  0  0  0  0  0  0  0  0  0  0
   -3.3180   14.4210   -1.6650 C   0  0  2  0  0  0  0  0  0  0  0  0
   -1.9470   14.1430   -2.2720 C   0  0  0  0  0  0  0  0  0  0  0  0
   -1.7890   12.6930   -2.6970 C   0  0  0  0  0  0  0  0  0  0  0  0
   -2.1150   12.4730   -4.0580 O   0  0  0  0  0  0  0  0  0  0  0  0
   -1.5520   11.2740   -4.5620 C   0  0  2  0  0  0  0  0  0  0  0  0
   -0.1360   11.5450   -5.1940 C   0  0  2  0  0  0  0  0  0  0  0  0
   -2.5050   10.6160   -5.4720 N   0  0  0  0  0  0  0  0  0  0  0  0
    0.4140   12.9720   -5.0400 C   0  0  0  0  0  0  0  0  0  0  0  0
   -1.8570    9.4370   -6.0560 C   0  0  2  0  0  0  0  0  0  0  0  0
   -0.0430   11.1360   -6.6230 N   0  0  0  0  0  0  0  0  0  0  0  0
    0.7760   13.4290   -3.6050 C   0  0  0  0  0  0  0  0  0  0  0  0
   -0.5270    9.7560   -6.7880 C   0  0  2  0  0  0  0  0  0  0  0  0
   -2.8190    8.6900   -6.9770 C   0  0  0  0  0  0  0  0  0  0  0  0
    1.2490   12.3660   -2.5610 C   0  0  2  0  0  0  0  0  0  0  0  0
   -0.5590    9.4160   -8.2760 C   0  0  0  0  0  0  0  0  0  0  0  0
   -2.1420    7.5170   -7.6810 C   0  0  0  0  0  0  0  0  0  0  0  0
    0.6810   11.1920   -2.7250 O   0  0  0  0  0  0  0  0  0  0  0  0
    0.7310   12.7330   -1.2970 O   0  0  0  0  0  0  0  0  0  0  0  0
   -0.9280    7.9550   -8.4970 C   0  0  0  0  0  0  0  0  0  0  0  0
  2  1  1  1
  2  3  1  0
  2  4  1  0
  4  5  1  0
  4  6  1  1
  5  7  1  0
  6  8  1  0
  7  9  1  0
  8  9  1  0
  9 10  1  6
 10 11  1  0
 11 12  1  0
 13 12  1  6
 13 14  1  0
 13 15  1  0
 14 16  1  6
 15 17  1  0
 14 18  1  0
 16 19  1  0
 17 20  1  0
 18 20  1  0
 17 21  1  6
 19 22  1  0
 20 23  1  6
 21 24  1  0
 22 25  1  6
 22 26  1  0
 23 27  1  0
 24 27  1  0
M  CHG  1  25  -1
M  END
