ucsf190-ucsf340
     RDKit          3D

 21 23  0  0  0  0  0  0  0  0999 V2000
    0.9080   10.7400   -3.1190 O   0  0  0  0  0  0  0  0  0  0  0  0
    2.0500   11.5300   -3.5720 C   0  0  2  0  0  0  0  0  0  0  0  0
    2.1470   12.2610   -2.3420 O   0  0  0  0  0  0  0  0  0  0  0  0
    1.6830   12.4810   -4.5980 C   0  0  0  0  0  0  0  0  0  0  0  0
    1.0210   13.6330   -4.1250 C   0  0  2  0  0  0  0  0  0  0  0  0
   -0.3480   14.0130   -4.4740 C   0  0  2  0  0  0  0  0  0  0  0  0
    1.9200   14.5170   -3.4090 N   0  0  0  0  0  0  0  0  0  0  0  0
    1.5950   14.6520   -2.0780 C   0  0  0  0  0  0  0  0  0  0  0  0
   -0.8890   15.5930   -5.0420 S   0  0  0  0  0  0  0  0  0  0  0  0
    1.7210   15.6770   -4.0520 N   0  0  0  0  0  0  0  0  0  0  0  0
   -1.4480   13.1400   -3.9660 C   0  0  0  0  0  0  0  0  0  0  0  0
    0.5830   16.2730   -3.9970 C   0  0  1  0  0  0  0  0  0  0  0  0
   -1.1290   13.9320   -5.8480 C   0  0  0  0  0  0  0  0  0  0  0  0
   -2.6520   12.7510   -4.7180 C   0  0  0  0  0  0  0  0  0  0  0  0
   -2.4330   15.9980   -4.1810 C   0  0  0  0  0  0  0  0  0  0  0  0
   -1.8960   16.9260   -5.7430 C   0  0  0  0  0  0  0  0  0  0  0  0
    0.7840   17.6140   -4.3210 O   0  0  0  0  0  0  0  0  0  0  0  0
   -2.5610   13.6030   -5.9430 C   0  0  0  0  0  0  0  0  0  0  0  0
   -3.5900   15.3470   -4.5670 C   0  0  0  0  0  0  0  0  0  0  0  0
   -3.1790   16.5970   -6.3700 C   0  0  0  0  0  0  0  0  0  0  0  0
   -4.0950   15.5810   -5.9280 C   0  0  0  0  0  0  0  0  0  0  0  0
  2  1  1  1
  2  3  1  0
  2  4  1  0
  5  4  1  6
  5  6  1  0
  5  7  1  0
  7  8  1  0
  6  9  1  0
  7 10  1  0
  6 11  1  1
  9 12  1  0
 10 12  1  0
  9 13  1  0
 11 14  1  0
  9 15  1  0
  9 16  1  0
 12 17  1  6
 13 18  1  0
 14 18  1  0
 15 19  1  0
 16 20  1  0
 19 21  1  0
 20 21  1  0
M  CHG  1   1  -1
M  END
