ucsf138-ucsf336
     RDKit          3D

 21 22  0  0  0  0  0  0  0  0999 V2000
    1.0930   12.0070   -2.1460 O   0  0  0  0  0  0  0  0  0  0  0  0
    1.0190   11.1980   -3.2080 C   0  0  1  0  0  0  0  0  0  0  0  0
   -0.3390   10.8470   -3.1370 O   0  0  0  0  0  0  0  0  0  0  0  0
    1.2500   11.8600   -4.6810 C   0  0  1  0  0  0  0  0  0  0  0  0
    0.3010   11.3660   -5.7450 N   0  0  0  0  0  0  0  0  0  0  0  0
    1.2860   13.1990   -4.5940 O   0  0  0  0  0  0  0  0  0  0  0  0
    0.7650   11.6330   -7.0640 C   0  0  1  0  0  0  0  0  0  0  0  0
   -0.3710   10.0630   -5.6350 C   0  0  0  0  0  0  0  0  0  0  0  0
    2.1600   11.7830   -7.0750 O   0  0  0  0  0  0  0  0  0  0  0  0
    0.3170   10.5390   -7.9280 N   0  0  0  0  0  0  0  0  0  0  0  0
   -0.1680    9.3040   -6.9720 C   0  0  0  0  0  0  0  0  0  0  0  0
   -1.8310   10.0700   -5.1190 C   0  0  0  0  0  0  0  0  0  0  0  0
    1.2710   10.1920   -8.9770 C   0  0  0  0  0  0  0  0  0  0  0  0
   -1.2620    8.3260   -7.3750 C   0  0  0  0  0  0  0  0  0  0  0  0
   -2.9000    9.1890   -5.7770 C   0  0  0  0  0  0  0  0  0  0  0  0
    0.7460   10.5040  -10.3920 C   0  0  0  0  0  0  0  0  0  0  0  0
    1.6330    8.7020   -8.8490 C   0  0  0  0  0  0  0  0  0  0  0  0
   -2.6500    8.8920   -7.2310 C   0  0  0  0  0  0  0  0  0  0  0  0
    0.2460    9.2830  -11.1800 C   0  0  0  0  0  0  0  0  0  0  0  0
    2.2450    8.1420  -10.1380 C   0  0  0  0  0  0  0  0  0  0  0  0
    1.2940    8.1880  -11.3240 C   0  0  0  0  0  0  0  0  0  0  0  0
  2  1  1  1
  2  3  1  0
  2  4  1  0
  4  5  1  0
  4  6  1  1
  5  7  1  0
  5  8  1  0
  7  9  1  1
  7 10  1  0
  8 11  1  0
  8 12  1  0
 10 13  1  0
 11 14  1  0
 12 15  1  0
 13 16  1  0
 13 17  1  0
 14 18  1  0
 15 18  1  0
 16 19  1  0
 17 20  1  0
 19 21  1  0
 20 21  1  0
M  CHG  2   1  -1   6  -1
M  END
