ucsf385-ucsf357
     RDKit          3D

 18 19  0  0  0  0  0  0  0  0999 V2000
   -2.0570   12.9350   -1.0600 N   0  0  0  0  0  0  0  0  0  0  0  0
   -2.1730   14.3290   -0.6280 C   0  0  1  0  0  0  0  0  0  0  0  0
   -2.6430   14.4030    0.8540 C   0  0  0  0  0  0  0  0  0  0  0  0
   -0.8680   15.1390   -0.8570 C   0  0  2  0  0  0  0  0  0  0  0  0
   -0.4590   15.2260   -2.3280 C   0  0  0  0  0  0  0  0  0  0  0  0
    0.2400   14.5710    0.0260 C   0  0  0  0  0  0  0  0  0  0  0  0
   -1.5870   14.9230    1.6840 N   0  0  0  0  0  0  0  0  0  0  0  0
   -1.4590   15.9520   -3.0540 O   0  0  0  0  0  0  0  0  0  0  0  0
   -0.3210   14.2470    1.4120 C   0  0  0  0  0  0  0  0  0  0  0  0
   -2.8270   15.6350   -2.7230 C   0  0  1  0  0  0  0  0  0  0  0  0
   -3.1960   14.2600   -3.2900 C   0  0  0  0  0  0  0  0  0  0  0  0
   -3.1140   15.7070   -1.2120 C   0  0  0  0  0  0  0  0  0  0  0  0
   -4.5210   13.7650   -2.6980 C   0  0  0  0  0  0  0  0  0  0  0  0
   -4.6010   15.5950   -0.9080 C   0  0  0  0  0  0  0  0  0  0  0  0
   -5.3540   14.9160   -2.0640 C   0  0  2  0  0  0  0  0  0  0  0  0
   -6.7650   14.4450   -1.6290 C   0  0  1  0  0  0  0  0  0  0  0  0
   -6.7910   13.1360   -1.4970 O   0  0  0  0  0  0  0  0  0  0  0  0
   -6.9910   14.8470   -0.2900 O   0  0  0  0  0  0  0  0  0  0  0  0
  2  1  1  1
  2  3  1  0
  2  4  1  0
  4  5  1  6
  4  6  1  0
  3  7  1  0
  5  8  1  0
  6  9  1  0
  7  9  1  0
 10  8  1  1
 10 11  1  0
 10 12  1  0
 11 13  1  0
 12 14  1  0
 15 13  1  1
 14 15  1  0
 15 16  1  0
 16 17  1  1
 16 18  1  0
M  CHG  1  17  -1
M  END
