ucsf147-ucsf028
     RDKit          3D

 22 24  0  0  0  0  0  0  0  0999 V2000
    1.4970   13.5400   -5.4300 C   0  0  0  0  0  0  0  0  0  0  0  0
    0.2850   13.1780   -4.5940 C   0  0  2  0  0  0  0  0  0  0  0  0
   -0.9410   12.8960   -5.4080 N   0  0  0  0  0  0  0  0  0  0  0  0
   -0.1400   14.2140   -3.5260 C   0  0  2  0  0  0  0  0  0  0  0  0
    0.8240   14.2380   -2.2820 C   0  0  1  0  0  0  0  0  0  0  0  0
   -1.0940   11.4290   -5.4050 O   0  0  0  0  0  0  0  0  0  0  0  0
   -2.0400   13.5100   -4.6770 N   0  0  0  0  0  0  0  0  0  0  0  0
   -1.5230   13.5830   -3.2820 C   0  0  2  0  0  0  0  0  0  0  0  0
    1.1810   12.9080   -1.9520 O   0  0  0  0  0  0  0  0  0  0  0  0
    2.0200   14.7660   -2.5430 O   0  0  0  0  0  0  0  0  0  0  0  0
   -0.3820   10.9140   -6.5220 C   0  0  0  0  0  0  0  0  0  0  0  0
   -2.5760   14.1420   -2.2510 C   0  0  1  0  0  0  0  0  0  0  0  0
   -2.1280   14.3430   -0.7740 C   0  0  2  0  0  0  0  0  0  0  0  0
   -3.4880   15.3330   -2.5880 C   0  0  0  0  0  0  0  0  0  0  0  0
   -3.3670   13.8680    0.0070 C   0  0  0  0  0  0  0  0  0  0  0  0
   -4.6990   15.4550   -1.6180 C   0  0  0  0  0  0  0  0  0  0  0  0
   -1.8200   15.7650   -0.3240 C   0  0  0  0  0  0  0  0  0  0  0  0
   -0.8870   13.6930   -0.2830 N   0  0  0  0  0  0  0  0  0  0  0  0
   -4.5840   14.7700   -0.2370 C   0  0  2  0  0  0  0  0  0  0  0  0
   -1.2340   15.5710    1.0110 N   0  0  0  0  0  0  0  0  0  0  0  0
   -0.3150   14.4800    0.7960 C   0  0  0  0  0  0  0  0  0  0  0  0
   -4.6000   15.7380    0.8530 N   0  0  0  0  0  0  0  0  0  0  0  0
  2  1  1  6
  2  3  1  0
  2  4  1  0
  4  5  1  1
  3  6  1  0
  3  7  1  0
  4  8  1  0
  8  7  1  6
  5  9  1  6
  5 10  1  0
  6 11  1  0
  8 12  1  0
 12 13  1  0
 12 14  1  6
 13 15  1  1
 14 16  1  0
 13 17  1  0
 13 18  1  0
 15 19  1  0
 16 19  1  0
 17 20  1  0
 18 21  1  0
 20 21  1  0
 19 22  1  1
M  CHG  1  10  -1
M  END
