ucsf147-ucsf412
     RDKit          3D

 21 23  0  0  0  0  0  0  0  0999 V2000
    1.4450   13.2540   -5.3670 C   0  0  0  0  0  0  0  0  0  0  0  0
    0.0260   12.9190   -4.9450 C   0  0  2  0  0  0  0  0  0  0  0  0
   -0.8650   13.7940   -5.6570 O   0  0  0  0  0  0  0  0  0  0  0  0
   -0.3990   13.0260   -3.4810 C   0  0  1  0  0  0  0  0  0  0  0  0
    0.5800   13.6020   -2.4230 C   0  0  2  0  0  0  0  0  0  0  0  0
   -2.1510   13.8060   -4.9610 N   0  0  0  0  0  0  0  0  0  0  0  0
   -1.8870   13.4690   -3.5320 C   0  0  2  0  0  0  0  0  0  0  0  0
    0.4380   12.9720   -1.1620 O   0  0  0  0  0  0  0  0  0  0  0  0
    0.3020   14.8610   -2.1490 O   0  0  0  0  0  0  0  0  0  0  0  0
   -2.3530   14.6080   -2.5850 C   0  0  2  0  0  0  0  0  0  0  0  0
   -2.1510   14.2550   -1.0920 C   0  0  0  0  0  0  0  0  0  0  0  0
   -3.8170   15.0600   -2.7700 C   0  0  0  0  0  0  0  0  0  0  0  0
   -3.3880   13.6830   -0.4060 C   0  0  0  0  0  0  0  0  0  0  0  0
   -4.3920   15.6690   -1.4920 C   0  0  0  0  0  0  0  0  0  0  0  0
   -4.5700   14.6630   -0.3480 C   0  0  1  0  0  0  0  0  0  0  0  0
   -5.9110   13.9250   -0.5300 C   0  0  0  0  0  0  0  0  0  0  0  0
   -4.5440   15.3460    1.0530 C   0  0  0  0  0  0  0  0  0  0  0  0
   -7.0620   14.7420    0.0300 C   0  0  1  0  0  0  0  0  0  0  0  0
   -5.6300   14.7950    1.9910 C   0  0  0  0  0  0  0  0  0  0  0  0
   -8.3230   14.2790   -0.3850 O   0  0  0  0  0  0  0  0  0  0  0  0
   -7.0020   14.7880    1.4710 N   0  0  0  0  0  0  0  0  0  0  0  0
  2  1  1  1
  2  3  1  0
  2  4  1  0
  4  5  1  1
  3  6  1  0
  4  7  1  0
  7  6  1  6
  5  8  1  1
  5  9  1  0
  7 10  1  0
 10 11  1  1
 10 12  1  0
 11 13  1  0
 12 14  1  0
 15 13  1  1
 14 15  1  0
 15 16  1  0
 15 17  1  0
 16 18  1  0
 17 19  1  0
 18 20  1  1
 18 21  1  0
 19 21  1  0
M  CHG  1   9  -1
M  END
