ucsf262-ucsf584
     RDKit          3D

 26 29  0  0  0  0  0  0  0  0999 V2000
   -3.1950   15.5470   -5.7490 Cl  0  0  0  0  0  0  0  0  0  0  0  0
   -1.9760   16.6790   -5.0840 C   0  0  1  0  0  0  0  0  0  0  0  0
   -0.6610   15.9660   -4.7290 C   0  0  2  0  0  0  0  0  0  0  0  0
   -1.7800   17.8180   -6.1000 C   0  0  0  0  0  0  0  0  0  0  0  0
   -0.5530   15.0240   -3.4920 C   0  0  1  0  0  0  0  0  0  0  0  0
    0.4600   16.9720   -4.4460 C   0  0  1  0  0  0  0  0  0  0  0  0
   -0.6050   18.7180   -5.7970 C   0  0  0  0  0  0  0  0  0  0  0  0
   -1.2470   13.6470   -3.6410 C   0  0  0  0  0  0  0  0  0  0  0  0
    0.9970   15.1040   -3.2140 C   0  0  2  0  0  0  0  0  0  0  0  0
    1.5720   16.1090   -4.1480 N   0  0  0  0  0  0  0  0  0  0  0  0
    0.6960   17.9510   -5.5780 C   0  0  0  0  0  0  0  0  0  0  0  0
    1.9970   13.9200   -3.0080 C   0  0  2  0  0  0  0  0  0  0  0  0
   -2.3790   13.4470   -2.5930 C   0  0  0  0  0  0  0  0  0  0  0  0
    1.4740   12.8230   -2.5370 O   0  0  0  0  0  0  0  0  0  0  0  0
    2.8720   14.2580   -1.9700 O   0  0  0  0  0  0  0  0  0  0  0  0
   -2.8910   14.6820   -1.9230 N   0  0  0  0  0  0  0  0  0  0  0  0
   -2.7440   14.6040   -0.4370 C   0  0  0  0  0  0  0  0  0  0  0  0
   -4.1850   15.1350   -2.5140 C   0  0  0  0  0  0  0  0  0  0  0  0
   -3.9720   15.0220    0.3650 C   0  0  0  0  0  0  0  0  0  0  0  0
   -5.4120   15.2800   -1.5990 C   0  0  0  0  0  0  0  0  0  0  0  0
   -5.2100   14.4620   -0.3270 C   0  0  0  0  0  0  0  0  0  0  0  0
   -6.4470   14.2260    0.5800 C   0  0  0  0  0  0  0  0  0  0  0  0
   -6.4360   14.8580    1.8790 N   0  0  0  0  0  0  0  0  0  0  0  0
   -7.7070   14.6570   -0.0060 N   0  0  0  0  0  0  0  0  0  0  0  0
   -8.6640   14.6700    1.1040 C   0  0  0  0  0  0  0  0  0  0  0  0
   -7.8000   14.6890    2.3590 C   0  0  0  0  0  0  0  0  0  0  0  0
  2  1  1  6
  3  2  1  1
  2  4  1  0
  3  5  1  0
  3  6  1  0
  4  7  1  0
  5  8  1  6
  5  9  1  0
  6 10  1  0
  9 10  1  6
  6 11  1  6
  7 11  1  0
  9 12  1  0
  8 13  1  0
 12 14  1  1
 12 15  1  0
 13 16  1  0
 16 17  1  0
 16 18  1  0
 17 19  1  0
 18 20  1  0
 19 21  1  0
 20 21  1  0
 21 22  1  0
 22 23  1  0
 22 24  1  0
 24 25  1  0
 23 26  1  0
 25 26  1  0
M  CHG  1  14  -1
M  END
