ucsf115-ucsf170
     RDKit          3D

 27 31  0  0  0  0  0  0  0  0999 V2000
   -1.4080   16.2930   -2.7200 N   0  0  0  0  0  0  0  0  0  0  0  0
   -1.2940   15.2390   -1.7570 C   0  0  1  0  0  0  0  0  0  0  0  0
   -0.5890   15.5780   -0.5780 N   0  0  0  0  0  0  0  0  0  0  0  0
   -2.6090   14.5910   -1.7250 N   0  0  0  0  0  0  0  0  0  0  0  0
   -0.3620   14.1940   -2.3600 C   0  0  2  0  0  0  0  0  0  0  0  0
   -0.6030   14.5160    0.3570 C   0  0  0  0  0  0  0  0  0  0  0  0
   -3.8910   15.1330   -1.3800 C   0  0  0  0  0  0  0  0  0  0  0  0
   -2.6180   13.3970   -2.5460 C   0  0  2  0  0  0  0  0  0  0  0  0
    0.1890   14.5740   -3.7530 C   0  0  1  0  0  0  0  0  0  0  0  0
   -1.2020   12.9030   -2.3300 C   0  0  0  0  0  0  0  0  0  0  0  0
   -1.9630   14.1300    0.3830 N   0  0  0  0  0  0  0  0  0  0  0  0
   -3.8600   15.6290   -0.0510 N   0  0  0  0  0  0  0  0  0  0  0  0
    1.7710   14.5730   -3.7710 C   0  0  1  0  0  0  0  0  0  0  0  0
   -0.5540   13.6470   -4.7330 C   0  0  1  0  0  0  0  0  0  0  0  0
   -3.0230   13.5360   -4.0280 C   0  0  0  0  0  0  0  0  0  0  0  0
   -2.5990   15.3580    0.6090 C   0  0  1  0  0  0  0  0  0  0  0  0
   -4.9220   15.1730    0.8180 C   0  0  0  0  0  0  0  0  0  0  0  0
    2.3500   14.6390   -2.4740 O   0  0  0  0  0  0  0  0  0  0  0  0
    2.2110   13.3990   -4.1410 O   0  0  0  0  0  0  0  0  0  0  0  0
   -0.6270   12.2560   -4.0740 C   0  0  1  0  0  0  0  0  0  0  0  0
   -2.0010   14.1150   -5.0040 C   0  0  0  0  0  0  0  0  0  0  0  0
   -2.9650   15.0600    2.2870 S   0  0  0  0  0  0  0  0  0  0  0  0
   -0.6160   11.1700   -5.0080 O   0  0  0  0  0  0  0  0  0  0  0  0
    0.5270   11.8520   -3.1630 C   0  0  0  0  0  0  0  0  0  0  0  0
   -4.5140   15.8480    2.0990 C   0  0  0  0  0  0  0  0  0  0  0  0
    0.0410   10.4730   -2.8220 C   0  0  0  0  0  0  0  0  0  0  0  0
   -0.6080   10.0400   -4.1340 C   0  0  0  0  0  0  0  0  0  0  0  0
  2  1  1  6
  2  3  1  0
  2  4  1  0
  2  5  1  0
  3  6  1  0
  4  7  1  0
  4  8  1  0
  5  9  1  0
  5 10  1  6
  8 10  1  0
  6 11  1  0
  7 12  1  0
  9 13  1  1
  9 14  1  0
  8 15  1  6
 16 11  1  6
 12 16  1  0
 12 17  1  0
 13 18  1  1
 13 19  1  0
 14 20  1  0
 14 21  1  1
 15 21  1  0
 16 22  1  0
 20 23  1  0
 20 24  1  1
 17 25  1  0
 22 25  1  0
 24 26  1  0
 23 27  1  0
 26 27  1  0
M  CHG  1  19  -1
M  END
