ucsf006-ucsf124
     RDKit          3D

 29 32  0  0  0  0  0  0  0  0999 V2000
   -2.4210   14.7770   -3.6290 C   0  0  0  0  0  0  0  0  0  0  0  0
   -1.3220   15.0230   -2.7070 N   0  0  0  0  0  0  0  0  0  0  0  0
    0.0460   15.1640   -3.2890 C   0  0  0  0  0  0  0  0  0  0  0  0
   -1.4160   14.5220   -1.3270 C   0  0  2  0  0  0  0  0  0  0  0  0
    0.3610   14.4280   -4.6080 C   0  0  0  0  0  0  0  0  0  0  0  0
   -2.7240   14.8910   -0.5960 C   0  0  2  0  0  0  0  0  0  0  0  0
   -0.1990   14.9450   -0.5920 N   0  0  0  0  0  0  0  0  0  0  0  0
    0.1620   12.8770   -4.5470 C   0  0  2  0  0  0  0  0  0  0  0  0
   -2.5550   14.6170    0.8770 C   0  0  1  0  0  0  0  0  0  0  0  0
   -0.1750   14.7540    0.8310 C   0  0  0  0  0  0  0  0  0  0  0  0
   -4.0290   14.1980   -0.7690 C   0  0  0  0  0  0  0  0  0  0  0  0
   -0.9340   12.6870   -3.6950 O   0  0  0  0  0  0  0  0  0  0  0  0
    1.2960   12.2110   -3.7980 N   0  0  0  0  0  0  0  0  0  0  0  0
   -1.3900   15.1900    1.4580 N   0  0  0  0  0  0  0  0  0  0  0  0
   -3.7800   15.1770    1.4170 N   0  0  0  0  0  0  0  0  0  0  0  0
   -4.7790   14.9380    0.3500 C   0  0  0  0  0  0  0  0  0  0  0  0
   -0.2910   12.2580   -5.7800 N   0  0  0  0  0  0  0  0  0  0  0  0
    0.7560   11.2280   -2.8800 O   0  0  0  0  0  0  0  0  0  0  0  0
    1.8580   13.1050   -2.8140 O   0  0  0  0  0  0  0  0  0  0  0  0
   -1.3140   11.2770   -5.4780 C   0  0  1  0  0  0  0  0  0  0  0  0
    0.5580   11.3740   -6.4610 C   0  0  2  0  0  0  0  0  0  0  0  0
   -2.4990   11.8350   -4.9490 O   0  0  0  0  0  0  0  0  0  0  0  0
    1.8090   11.9230   -6.8260 O   0  0  0  0  0  0  0  0  0  0  0  0
   -1.6180   10.5980   -6.8270 C   0  0  1  0  0  0  0  0  0  0  0  0
   -0.2830   10.7420   -7.5670 C   0  0  2  0  0  0  0  0  0  0  0  0
   -2.0220    9.1350   -6.6230 C   0  0  0  0  0  0  0  0  0  0  0  0
    0.2060    9.4500   -8.2120 C   0  0  0  0  0  0  0  0  0  0  0  0
   -2.1030    8.3560   -7.9260 C   0  0  0  0  0  0  0  0  0  0  0  0
   -0.8910    8.5870   -8.8370 C   0  0  0  0  0  0  0  0  0  0  0  0
  1  2  1  0
  2  3  1  0
  4  2  1  6
  3  5  1  0
  4  6  1  0
  4  7  1  0
  5  8  1  0
  6  9  1  0
  7 10  1  0
  6 11  1  6
  8 12  1  1
  8 13  1  0
  9 14  1  1
 10 14  1  0
  9 15  1  0
 11 16  1  0
 15 16  1  0
  8 17  1  0
 13 18  1  0
 13 19  1  0
 17 20  1  0
 17 21  1  0
 20 22  1  6
 21 23  1  6
 20 24  1  0
 21 25  1  0
 24 25  1  0
 24 26  1  1
 25 27  1  1
 26 28  1  0
 27 29  1  0
 28 29  1  0
M  CHG  1  18  -1
M  END
