ucsf213-ucsf258
     RDKit          3D

 22 24  0  0  0  0  0  0  0  0999 V2000
    0.5750   10.5620   -2.3750 O   0  0  0  0  0  0  0  0  0  0  0  0
    0.0720   11.7770   -2.5890 C   0  0  1  0  0  0  0  0  0  0  0  0
    0.3020   12.5350   -1.3860 O   0  0  0  0  0  0  0  0  0  0  0  0
    0.8200   12.4810   -3.7960 C   0  0  0  0  0  0  0  0  0  0  0  0
    0.1170   13.9580   -1.5220 C   0  0  1  0  0  0  0  0  0  0  0  0
    0.2900   13.9020   -4.1910 C   0  0  1  0  0  0  0  0  0  0  0  0
    0.5630   14.2840   -2.8240 O   0  0  0  0  0  0  0  0  0  0  0  0
    1.1420   15.0740   -4.6820 C   0  0  0  0  0  0  0  0  0  0  0  0
   -1.1150   14.1000   -5.3130 S   0  0  0  0  0  0  0  0  0  0  0  0
   -1.3640   14.4310   -1.2790 C   0  0  1  0  0  0  0  0  0  0  0  0
    0.2280   16.3230   -4.5770 C   0  0  2  0  0  0  0  0  0  0  0  0
   -1.2310   15.8170   -4.7080 C   0  0  1  0  0  0  0  0  0  0  0  0
   -2.3280   14.6360   -2.4750 C   0  0  1  0  0  0  0  0  0  0  0  0
   -2.0940   13.7730   -0.1750 N   0  0  0  0  0  0  0  0  0  0  0  0
   -2.2670   13.6130   -3.4590 O   0  0  0  0  0  0  0  0  0  0  0  0
    0.6810   17.5030   -5.4690 C   0  0  0  0  0  0  0  0  0  0  0  0
   -2.2290   16.7290   -5.4110 C   0  0  0  0  0  0  0  0  0  0  0  0
   -3.7970   14.8200   -2.0650 C   0  0  0  0  0  0  0  0  0  0  0  0
   -3.0420   14.7010    0.4160 C   0  0  0  0  0  0  0  0  0  0  0  0
   -0.4270   18.2860   -6.1760 C   0  0  0  0  0  0  0  0  0  0  0  0
   -1.7780   18.1770   -5.4980 C   0  0  0  0  0  0  0  0  0  0  0  0
   -4.0130   15.2790   -0.6210 C   0  0  0  0  0  0  0  0  0  0  0  0
  2  1  1  1
  2  3  1  0
  2  4  1  0
  3  5  1  0
  6  4  1  6
  5  7  1  6
  6  8  1  0
  6  9  1  0
  5 10  1  0
 11  8  1  6
  9 12  1  0
 11 12  1  0
 10 13  1  0
 10 14  1  1
 13 15  1  6
 11 16  1  0
 12 17  1  6
 13 18  1  0
 14 19  1  0
 16 20  1  0
 17 21  1  0
 20 21  1  0
 18 22  1  0
 19 22  1  0
M  CHG  1   1  -1
M  END
