ucsf511-ucsf109
     RDKit          3D

 23 27  0  0  0  0  0  0  0  0999 V2000
    0.3310   13.3490   -0.8150 O   0  0  0  0  0  0  0  0  0  0  0  0
   -0.3200   13.4750   -2.0780 C   0  0  2  0  0  0  0  0  0  0  0  0
    0.3950   14.3690   -2.9730 N   0  0  0  0  0  0  0  0  0  0  0  0
   -1.8450   13.7810   -1.9590 C   0  0  2  0  0  0  0  0  0  0  0  0
   -2.4930   14.2720   -3.2800 C   0  0  2  0  0  0  0  0  0  0  0  0
   -0.2480   14.4550   -4.2620 C   0  0  0  0  0  0  0  0  0  0  0  0
   -2.2170   14.6890   -0.8910 O   0  0  0  0  0  0  0  0  0  0  0  0
   -1.5850   14.9940   -4.1610 N   0  0  0  0  0  0  0  0  0  0  0  0
   -3.4930   15.2470   -1.2810 C   0  0  1  0  0  0  0  0  0  0  0  0
   -3.6570   15.1300   -2.7960 C   0  0  2  0  0  0  0  0  0  0  0  0
   -5.0690   14.7310   -3.2540 C   0  0  0  0  0  0  0  0  0  0  0  0
   -4.7740   14.8600   -0.5250 C   0  0  2  0  0  0  0  0  0  0  0  0
   -6.2490   15.2930   -2.4310 C   0  0  0  0  0  0  0  0  0  0  0  0
   -5.8560   15.7800   -1.0670 C   0  0  0  0  0  0  0  0  0  0  0  0
   -4.8060   14.9240    0.9930 C   0  0  2  0  0  0  0  0  0  0  0  0
   -5.2440   13.4430   -0.8780 C   0  0  0  0  0  0  0  0  0  0  0  0
   -3.6120   14.3990    1.6380 N   0  0  0  0  0  0  0  0  0  0  0  0
   -6.0450   14.2680    1.4390 N   0  0  0  0  0  0  0  0  0  0  0  0
   -6.6910   13.3750   -0.6980 N   0  0  0  0  0  0  0  0  0  0  0  0
   -7.0300   14.2700    0.3740 C   0  0  1  0  0  0  0  0  0  0  0  0
   -6.7490   14.7490    2.6190 N   0  0  0  0  0  0  0  0  0  0  0  0
   -8.2260   13.8190    1.0340 N   0  0  0  0  0  0  0  0  0  0  0  0
   -8.1560   14.4690    2.3390 C   0  0  0  0  0  0  0  0  0  0  0  0
  2  1  1  1
  2  3  1  0
  2  4  1  0
  4  5  1  0
  3  6  1  0
  4  7  1  1
  5  8  1  1
  6  8  1  0
  9  7  1  1
  5 10  1  0
  9 10  1  0
 10 11  1  1
  9 12  1  0
 11 13  1  0
 12 14  1  6
 13 14  1  0
 12 15  1  0
 12 16  1  0
 15 17  1  1
 15 18  1  0
 16 19  1  0
 18 20  1  0
 20 19  1  6
 18 21  1  0
 20 22  1  0
 21 23  1  0
 22 23  1  0
M  END
