ucsf213-ucsf348
     RDKit          3D

 27 30  0  0  0  0  0  0  0  0999 V2000
    0.5010   10.8690   -2.4400 O   0  0  0  0  0  0  0  0  0  0  0  0
    1.1810   12.0360   -2.5060 C   0  0  2  0  0  0  0  0  0  0  0  0
    0.5960   12.9280   -1.5580 O   0  0  0  0  0  0  0  0  0  0  0  0
    0.9900   12.6920   -3.9220 C   0  0  0  0  0  0  0  0  0  0  0  0
   -0.6380   12.4990   -1.0600 C   0  0  0  0  0  0  0  0  0  0  0  0
    0.3060   14.0770   -3.8150 C   0  0  1  0  0  0  0  0  0  0  0  0
   -1.7900   12.8980   -1.9020 C   0  0  0  0  0  0  0  0  0  0  0  0
    1.1450   15.3000   -4.2890 C   0  0  0  0  0  0  0  0  0  0  0  0
   -1.2410   14.1910   -4.8060 S   0  0  0  0  0  0  0  0  0  0  0  0
    0.2280   16.2440   -5.0990 C   0  0  1  0  0  0  0  0  0  0  0  0
   -1.1850   15.9780   -4.6420 C   0  0  1  0  0  0  0  0  0  0  0  0
   -2.7580   13.9400   -1.3330 C   0  0  1  0  0  0  0  0  0  0  0  0
    0.5470   17.7400   -5.1050 C   0  0  0  0  0  0  0  0  0  0  0  0
   -2.2780   16.7120   -5.4070 C   0  0  0  0  0  0  0  0  0  0  0  0
   -2.9980   14.1900    0.1730 C   0  0  0  0  0  0  0  0  0  0  0  0
   -2.6710   15.2240   -2.0630 C   0  0  0  0  0  0  0  0  0  0  0  0
   -0.4290   18.4350   -6.0450 C   0  0  0  0  0  0  0  0  0  0  0  0
   -1.9030   18.1750   -5.7030 C   0  0  0  0  0  0  0  0  0  0  0  0
   -4.0890   15.2950    0.3540 C   0  0  1  0  0  0  0  0  0  0  0  0
   -4.1050   15.4560   -2.2940 C   0  0  0  0  0  0  0  0  0  0  0  0
   -4.8700   15.6690   -0.9630 C   0  0  1  0  0  0  0  0  0  0  0  0
   -5.0330   15.0380    1.4410 N   0  0  0  0  0  0  0  0  0  0  0  0
   -6.1450   14.2190    1.1480 C   0  0  1  0  0  0  0  0  0  0  0  0
   -6.3500   15.2520   -1.0240 C   0  0  1  0  0  0  0  0  0  0  0  0
   -6.8770   14.3650    2.3550 N   0  0  0  0  0  0  0  0  0  0  0  0
   -6.5800   14.3240   -2.0500 O   0  0  0  0  0  0  0  0  0  0  0  0
   -7.0120   14.7680    0.1670 N   0  0  0  0  0  0  0  0  0  0  0  0
  2  1  1  6
  2  3  1  0
  2  4  1  0
  3  5  1  0
  6  4  1  6
  5  7  1  0
  6  8  1  0
  6  9  1  0
 10  8  1  1
  9 11  1  0
 10 11  1  0
 12  7  1  1
 10 13  1  0
 11 14  1  6
 12 15  1  0
 12 16  1  0
 13 17  1  0
 14 18  1  0
 17 18  1  0
 19 15  1  6
 16 20  1  0
 19 21  1  0
 21 20  1  6
 19 22  1  0
 22 23  1  0
 21 24  1  0
 23 25  1  1
 24 26  1  6
 23 27  1  0
 24 27  1  0
M  CHG  1   1  -1
M  END
