ucsf012-ucsf170
     RDKit          3D

 21 23  0  0  0  0  0  0  0  0999 V2000
   -3.3370   15.4300   -3.9530 C   0  0  0  0  0  0  0  0  0  0  0  0
   -2.8440   14.6680   -2.7330 C   0  0  2  0  0  0  0  0  0  0  0  0
   -3.6770   14.8140   -1.4090 C   0  0  2  0  0  0  0  0  0  0  0  0
   -1.4230   14.9880   -2.3890 N   0  0  0  0  0  0  0  0  0  0  0  0
   -5.0340   15.5150   -1.4690 C   0  0  0  0  0  0  0  0  0  0  0  0
   -0.4500   14.2050   -3.1360 C   0  0  2  0  0  0  0  0  0  0  0  0
   -2.5830   15.4100   -0.5300 C   0  0  2  0  0  0  0  0  0  0  0  0
   -1.4200   14.6210   -1.0020 C   0  0  2  0  0  0  0  0  0  0  0  0
    0.7780   14.1030   -2.4220 O   0  0  0  0  0  0  0  0  0  0  0  0
   -0.0190   14.7140   -4.2690 O   0  0  0  0  0  0  0  0  0  0  0  0
   -2.5640   15.4220    0.9800 C   0  0  1  0  0  0  0  0  0  0  0  0
   -0.2130   14.9760   -0.3060 N   0  0  0  0  0  0  0  0  0  0  0  0
   -0.9670   12.7420   -3.2610 C   0  0  2  0  0  0  0  0  0  0  0  0
   -3.8360   15.4050    1.7180 N   0  0  0  0  0  0  0  0  0  0  0  0
   -1.6780   14.4040    1.5240 N   0  0  0  0  0  0  0  0  0  0  0  0
   -0.3040   14.4180    1.0160 C   0  0  0  0  0  0  0  0  0  0  0  0
   -0.4830   11.7740   -2.1990 C   0  0  0  0  0  0  0  0  0  0  0  0
   -0.7500   12.1120   -4.5580 O   0  0  0  0  0  0  0  0  0  0  0  0
   -4.8430   14.4890    1.2100 C   0  0  0  0  0  0  0  0  0  0  0  0
   -0.4050   10.7790   -4.2470 C   0  0  0  0  0  0  0  0  0  0  0  0
    0.4200   10.9260   -2.9950 C   0  0  0  0  0  0  0  0  0  0  0  0
  2  1  1  6
  2  3  1  0
  2  4  1  0
  3  5  1  6
  4  6  1  0
  3  7  1  0
  4  8  1  0
  7  8  1  0
  6  9  1  1
  6 10  1  0
  7 11  1  1
  8 12  1  1
  6 13  1  0
 11 14  1  1
 11 15  1  0
 12 16  1  0
 15 16  1  0
 13 17  1  1
 13 18  1  0
 14 19  1  0
 18 20  1  0
 17 21  1  0
 20 21  1  0
M  CHG  1  10  -1
M  END
