ucsf442
     RDKit          3D

 11 12  0  0  0  0  0  0  0  0999 V2000
   -0.2810   14.8360    0.6710 O   0  0  0  0  0  0  0  0  0  0  0  0
   -1.3570   14.9480    0.3490 C   0  0  0  0  0  0  0  0  0  0  0  0
   -1.6980   15.0970   -0.8920 N   0  0  0  0  0  0  0  0  0  0  0  0
   -2.9690   15.2450   -1.2790 C   0  0  0  0  0  0  0  0  0  0  0  0
   -3.2050   15.4180   -2.4030 O   0  0  0  0  0  0  0  0  0  0  0  0
   -3.9550   15.1960   -0.3270 C   0  0  0  0  0  0  0  0  0  0  0  0
   -5.2550   15.2720   -0.2960 N   0  0  0  0  0  0  0  0  0  0  0  0
   -5.7260   15.1290    0.9310 C   0  0  0  0  0  0  0  0  0  0  0  0
   -4.6470   14.9960    1.6990 N   0  0  0  0  0  0  0  0  0  0  0  0
   -3.5470   15.0050    0.9850 C   0  0  0  0  0  0  0  0  0  0  0  0
   -2.2470   14.9050    1.2900 N   0  0  0  0  0  0  0  0  0  0  0  0
  1  2  1  0
  2  3  1  0
  3  4  1  0
  4  5  1  0
  4  6  1  0
  6  7  1  0
  7  8  1  0
  8  9  1  0
  6 10  1  0
  9 10  1  0
  2 11  1  0
 10 11  1  0
M  END
