ucsf353-ucsf242
     RDKit          3D

 13 14  0  0  0  0  0  0  0  0999 V2000
   16.4330    6.5710    9.5980 C   0  0  0  0  0  0  0  0  0  0  0  0
   15.6220    7.7060    9.5860 O   0  0  0  0  0  0  0  0  0  0  0  0
   15.1910    5.0360    9.5900 S   0  0  0  0  0  0  0  0  0  0  0  0
   15.6020    3.1760    9.5560 C   0  0  0  0  0  0  0  0  0  0  0  0
   15.3660    4.4080    8.1050 C   0  0  0  0  0  0  0  0  0  0  0  0
   14.0650    6.3180    9.2570 O   0  0  0  0  0  0  0  0  0  0  0  0
   13.6050    5.1790   10.7720 C   0  0  0  0  0  0  0  0  0  0  0  0
   14.8720    2.3280    8.6250 C   0  0  0  0  0  0  0  0  0  0  0  0
   15.3100    3.9720    6.8450 C   0  0  0  0  0  0  0  0  0  0  0  0
   14.1340    6.5240   11.3440 C   0  0  0  0  0  0  0  0  0  0  0  0
   14.0140    7.1840   10.1370 N   0  0  0  0  0  0  0  0  0  0  0  0
   14.5160    2.5920    7.1580 C   0  0  0  0  0  0  0  0  0  0  0  0
   14.9750    1.6220    6.3260 O   0  0  0  0  0  0  0  0  0  0  0  0
  1  2  1  0
  1  3  1  0
  3  4  1  0
  3  5  1  0
  3  6  1  0
  3  7  1  0
  4  8  1  0
  5  9  1  0
  7 10  1  0
  6 11  1  0
 10 11  1  0
  8 12  1  0
  9 12  1  0
 12 13  1  0
M  END
