ucsf348-ucsf392
     RDKit          3D

 14 15  0  0  0  0  0  0  0  0999 V2000
   -7.0180   13.7720    2.1040 N   0  0  0  0  0  0  0  0  0  0  0  0
   -6.6160   14.5640    1.0010 C   0  0  1  0  0  0  0  0  0  0  0  0
   -5.3170   15.0160    1.3580 N   0  0  0  0  0  0  0  0  0  0  0  0
   -6.5790   13.7410   -0.1540 N   0  0  0  0  0  0  0  0  0  0  0  0
   -5.9390   14.4000   -1.3020 C   0  0  1  0  0  0  0  0  0  0  0  0
   -4.2550   14.7360    0.3770 C   0  0  1  0  0  0  0  0  0  0  0  0
   -6.8970   15.1940   -1.9490 O   0  0  0  0  0  0  0  0  0  0  0  0
   -4.6850   15.2250   -0.9880 C   0  0  1  0  0  0  0  0  0  0  0  0
   -2.9590   15.3830    0.8380 C   0  0  1  0  0  0  0  0  0  0  0  0
   -2.6090   14.7080    2.0630 N   0  0  0  0  0  0  0  0  0  0  0  0
   -1.7900   15.4690   -0.1870 C   0  0  1  0  0  0  0  0  0  0  0  0
   -3.6080   15.1420   -2.0910 C   0  0  0  0  0  0  0  0  0  0  0  0
   -0.4960   14.7530    0.2890 C   0  0  0  0  0  0  0  0  0  0  0  0
   -2.1350   15.1010   -1.6560 C   0  0  0  0  0  0  0  0  0  0  0  0
  2  1  1  1
  2  3  1  0
  2  4  1  0
  4  5  1  0
  6  3  1  1
  5  7  1  1
  5  8  1  0
  6  8  1  0
  6  9  1  0
  9 10  1  1
  9 11  1  0
  8 12  1  6
 11 13  1  1
 11 14  1  0
 12 14  1  0
M  END
