ucsf387-ucsf404
     RDKit          3D

 25 27  0  0  0  0  0  0  0  0999 V2000
    0.9940   18.2190   -4.4870 Cl  0  0  0  0  0  0  0  0  0  0  0  0
    0.5030   16.6500   -5.1300 C   0  0  2  0  0  0  0  0  0  0  0  0
   -1.0330   16.6990   -5.1330 C   0  0  0  0  0  0  0  0  0  0  0  0
    1.2160   15.5430   -4.3280 C   0  0  0  0  0  0  0  0  0  0  0  0
    0.3640   14.3210   -3.9610 C   0  0  2  0  0  0  0  0  0  0  0  0
   -1.7150   15.4150   -4.6460 C   0  0  1  0  0  0  0  0  0  0  0  0
   -3.1250   15.2540   -5.2420 C   0  0  0  0  0  0  0  0  0  0  0  0
    1.1180   12.9910   -3.6780 C   0  0  0  0  0  0  0  0  0  0  0  0
   -0.8370   14.1900   -4.8720 C   0  0  0  0  0  0  0  0  0  0  0  0
    0.3590   12.1340   -2.6410 C   0  0  1  0  0  0  0  0  0  0  0  0
   -3.8450   13.9710   -4.8160 C   0  0  0  0  0  0  0  0  0  0  0  0
    0.7080   10.8640   -2.5460 O   0  0  0  0  0  0  0  0  0  0  0  0
    0.6890   12.6170   -1.3510 O   0  0  0  0  0  0  0  0  0  0  0  0
   -4.6070   14.0580   -3.4790 C   0  0  0  0  0  0  0  0  0  0  0  0
   -4.0400   15.0460   -2.4140 C   0  0  1  0  0  0  0  0  0  0  0  0
   -5.1550   15.5000   -1.4290 C   0  0  1  0  0  0  0  0  0  0  0  0
   -2.7540   14.5820   -1.6910 C   0  0  0  0  0  0  0  0  0  0  0  0
   -6.7750   14.9010   -1.8950 Cl  0  0  0  0  0  0  0  0  0  0  0  0
   -4.9840   15.4980    0.1000 C   0  0  1  0  0  0  0  0  0  0  0  0
   -2.9400   14.1560   -0.2350 C   0  0  0  0  0  0  0  0  0  0  0  0
   -5.9990   14.6880    0.8230 N   0  0  0  0  0  0  0  0  0  0  0  0
   -3.5910   15.2020    0.5960 C   0  0  2  0  0  0  0  0  0  0  0  0
   -5.5140   14.1980    2.0830 C   0  0  1  0  0  0  0  0  0  0  0  0
   -3.8040   14.6560    2.3070 S   0  0  0  0  0  0  0  0  0  0  0  0
   -6.3340   14.7920    3.1020 N   0  0  0  0  0  0  0  0  0  0  0  0
  2  1  1  1
  2  3  1  0
  2  4  1  0
  4  5  1  0
  3  6  1  0
  6  7  1  6
  5  8  1  6
  5  9  1  0
  6  9  1  0
  8 10  1  0
  7 11  1  0
 10 12  1  1
 10 13  1  0
 11 14  1  0
 15 14  1  1
 15 16  1  0
 15 17  1  0
 16 18  1  1
 16 19  1  0
 17 20  1  0
 19 21  1  1
 19 22  1  0
 22 20  1  6
 21 23  1  0
 22 24  1  0
 23 24  1  0
 23 25  1  1
M  CHG  1  12  -1
M  END
