ucsf338-ucsf213
     RDKit          3D

 26 28  0  0  0  0  0  0  0  0999 V2000
   -8.8170   14.1000   -0.0590 O   0  0  0  0  0  0  0  0  0  0  0  0
   -7.5340   14.5810    0.4480 N   0  0  0  0  0  0  0  0  0  0  0  0
   -6.5290   14.4960   -0.6070 C   0  0  1  0  0  0  0  0  0  0  0  0
   -6.7240   15.6010   -1.4720 O   0  0  0  0  0  0  0  0  0  0  0  0
   -5.0470   14.4300   -0.0990 C   0  0  1  0  0  0  0  0  0  0  0  0
   -3.9080   14.6640   -1.1300 C   0  0  1  0  0  0  0  0  0  0  0  0
   -4.7100   15.3030    1.1180 C   0  0  0  0  0  0  0  0  0  0  0  0
   -4.3610   15.2530   -2.3300 O   0  0  0  0  0  0  0  0  0  0  0  0
   -2.7170   15.4940   -0.6010 C   0  0  0  0  0  0  0  0  0  0  0  0
   -3.3830   14.8780    1.7210 C   0  0  0  0  0  0  0  0  0  0  0  0
   -3.5230   14.9870   -3.4440 C   0  0  0  0  0  0  0  0  0  0  0  0
   -2.2300   15.1910    0.8060 C   0  0  0  0  0  0  0  0  0  0  0  0
   -2.1030   15.5920   -3.3530 C   0  0  0  0  0  0  0  0  0  0  0  0
   -1.4370   15.6830   -4.7440 C   0  0  1  0  0  0  0  0  0  0  0  0
    0.0430   16.1500   -4.7700 C   0  0  2  0  0  0  0  0  0  0  0  0
   -1.2410   13.9420   -5.2770 S   0  0  0  0  0  0  0  0  0  0  0  0
   -2.3610   16.5020   -5.6610 C   0  0  0  0  0  0  0  0  0  0  0  0
    0.4560   13.7260   -4.6130 C   0  0  1  0  0  0  0  0  0  0  0  0
    0.8670   15.0880   -4.0220 C   0  0  0  0  0  0  0  0  0  0  0  0
    0.2350   17.6240   -4.4320 C   0  0  0  0  0  0  0  0  0  0  0  0
   -1.7130   17.7950   -6.1580 C   0  0  0  0  0  0  0  0  0  0  0  0
    0.8050   12.3480   -3.9520 C   0  0  0  0  0  0  0  0  0  0  0  0
   -0.8510   18.4800   -5.1020 C   0  0  0  0  0  0  0  0  0  0  0  0
    0.9720   12.0120   -2.4310 C   0  0  2  0  0  0  0  0  0  0  0  0
    0.4740   10.7870   -2.2030 O   0  0  0  0  0  0  0  0  0  0  0  0
    0.1850   12.7300   -1.5200 O   0  0  0  0  0  0  0  0  0  0  0  0
  1  2  1  0
  2  3  1  0
  3  4  1  6
  3  5  1  0
  5  6  1  0
  5  7  1  1
  6  8  1  6
  6  9  1  0
  7 10  1  0
  8 11  1  0
  9 12  1  0
 10 12  1  0
 11 13  1  0
 14 13  1  1
 14 15  1  0
 14 16  1  0
 14 17  1  0
 16 18  1  0
 15 19  1  1
 18 19  1  0
 15 20  1  0
 17 21  1  0
 18 22  1  1
 20 23  1  0
 21 23  1  0
 22 24  1  0
 24 25  1  6
 24 26  1  0
M  CHG  1  25  -1
M  END
