ucsf371-ucsf190
     RDKit          3D

 24 26  0  0  0  0  0  0  0  0999 V2000
   -5.1910   14.7830    0.9660 C   0  0  0  0  0  0  0  0  0  0  0  0
   -4.4680   15.2890   -0.2680 C   0  0  2  0  0  0  0  0  0  0  0  0
   -5.0180   14.7330   -1.5150 N   0  0  0  0  0  0  0  0  0  0  0  0
   -2.7180   14.9040   -0.2160 S   0  0  0  0  0  0  0  0  0  0  0  0
   -3.9550   14.8360   -2.5550 C   0  0  0  0  0  0  0  0  0  0  0  0
   -2.7000   15.4630   -1.9460 C   0  0  2  0  0  0  0  0  0  0  0  0
   -1.4780   15.3530   -2.8540 C   0  0  1  0  0  0  0  0  0  0  0  0
   -1.8110   16.3730   -3.8110 O   0  0  0  0  0  0  0  0  0  0  0  0
   -0.3520   15.6000   -2.1970 O   0  0  0  0  0  0  0  0  0  0  0  0
   -1.6090   15.9990   -5.1360 C   0  0  1  0  0  0  0  0  0  0  0  0
   -0.1700   15.4790   -5.1910 C   0  0  2  0  0  0  0  0  0  0  0  0
   -2.7450   15.0130   -5.5100 C   0  0  0  0  0  0  0  0  0  0  0  0
    0.0570   13.9550   -5.0560 C   0  0  1  0  0  0  0  0  0  0  0  0
    0.7280   16.3010   -4.2630 C   0  0  2  0  0  0  0  0  0  0  0  0
   -2.3630   13.5570   -5.7600 C   0  0  0  0  0  0  0  0  0  0  0  0
    0.8700   17.5940   -4.8580 O   0  0  0  0  0  0  0  0  0  0  0  0
    1.0220   13.7020   -3.8920 C   0  0  1  0  0  0  0  0  0  0  0  0
    2.0960   15.8120   -4.0600 N   0  0  0  0  0  0  0  0  0  0  0  0
   -1.2000   13.0740   -4.9190 C   0  0  0  0  0  0  0  0  0  0  0  0
    1.2350   12.1900   -3.6710 C   0  0  0  0  0  0  0  0  0  0  0  0
    2.2840   14.3680   -4.2260 N   0  0  0  0  0  0  0  0  0  0  0  0
    0.3420   11.5420   -2.5720 C   0  0  1  0  0  0  0  0  0  0  0  0
    0.6560   10.2920   -2.3040 O   0  0  0  0  0  0  0  0  0  0  0  0
    0.5600   12.1890   -1.3390 O   0  0  0  0  0  0  0  0  0  0  0  0
  2  1  1  1
  2  3  1  0
  2  4  1  0
  3  5  1  0
  4  6  1  0
  6  5  1  6
  6  7  1  0
  7  8  1  0
  7  9  1  1
 10  8  1  1
 11 10  1  1
 10 12  1  0
 11 13  1  0
 11 14  1  0
 12 15  1  0
 14 16  1  6
 13 17  1  0
 14 18  1  0
 13 19  1  1
 15 19  1  0
 17 20  1  6
 17 21  1  0
 18 21  1  0
 20 22  1  0
 22 23  1  1
 22 24  1  0
M  CHG  2   9  -1  23  -1
M  END
