ucsf243-ucsf224
     RDKit          3D

 20 22  0  0  0  0  0  0  0  0999 V2000
   -4.2510   15.6280    1.0180 C   0  0  0  0  0  0  0  0  0  0  0  0
   -3.6280   15.2850   -0.3290 C   0  0  2  0  0  0  0  0  0  0  0  0
   -4.5790   14.5170   -1.2450 C   0  0  0  0  0  0  0  0  0  0  0  0
   -2.2970   14.5490   -0.1020 C   0  0  0  0  0  0  0  0  0  0  0  0
   -1.4790   14.5010   -1.4010 C   0  0  1  0  0  0  0  0  0  0  0  0
   -3.7860   13.7600   -2.3120 C   0  0  0  0  0  0  0  0  0  0  0  0
   -0.0980   13.6770   -1.3620 C   0  0  2  0  0  0  0  0  0  0  0  0
   -2.4740   14.4790   -2.5950 C   0  0  2  0  0  0  0  0  0  0  0  0
   -1.9350   14.0550   -3.8050 O   0  0  0  0  0  0  0  0  0  0  0  0
    0.7420   13.7180   -2.6070 N   0  0  0  0  0  0  0  0  0  0  0  0
   -0.4380   12.4460   -1.0190 O   0  0  0  0  0  0  0  0  0  0  0  0
    0.7340   12.3660   -3.3210 C   0  0  0  0  0  0  0  0  0  0  0  0
    0.3860   14.8930   -3.4490 C   0  0  2  0  0  0  0  0  0  0  0  0
   -1.0360   15.0960   -3.9560 C   0  0  1  0  0  0  0  0  0  0  0  0
    0.4020   11.3570   -2.4850 O   0  0  0  0  0  0  0  0  0  0  0  0
   -1.0400   15.5150   -5.3630 C   0  0  0  0  0  0  0  0  0  0  0  0
    1.4490   15.4090   -4.4390 C   0  0  0  0  0  0  0  0  0  0  0  0
   -0.3230   16.8560   -5.5230 C   0  0  2  0  0  0  0  0  0  0  0  0
    1.0760   16.7950   -4.9750 C   0  0  0  0  0  0  0  0  0  0  0  0
   -1.2980   18.2540   -4.9600 Cl  0  0  0  0  0  0  0  0  0  0  0  0
  2  1  1  1
  2  3  1  0
  2  4  1  0
  5  4  1  1
  3  6  1  0
  5  7  1  0
  5  8  1  0
  8  6  1  1
  8  9  1  0
  7 10  1  0
  7 11  1  6
 10 12  1  0
 10 13  1  0
  9 14  1  0
 13 14  1  0
 12 15  1  0
 14 16  1  6
 13 17  1  6
 16 18  1  0
 17 19  1  0
 18 19  1  0
 18 20  1  1
M  CHG  2  11  -1  15  -1
M  END
