ucsf519-ucsf135
     RDKit          3D

 25 28  0  0  0  0  0  0  0  0999 V2000
   -0.2270   16.3090   -4.4250 C   0  0  0  0  0  0  0  0  0  0  0  0
   -0.6270   14.9550   -3.8020 C   0  0  2  0  0  0  0  0  0  0  0  0
    0.2600   13.8120   -4.9040 S   0  0  1  0  0  0  0  0  0  0  0  0
   -2.1770   14.9860   -3.5400 C   0  0  1  0  0  0  0  0  0  0  0  0
    1.8860   13.6380   -4.2920 C   0  0  0  0  0  0  0  0  0  0  0  0
   -2.9090   14.4410   -4.6180 O   0  0  0  0  0  0  0  0  0  0  0  0
   -2.6620   14.4870   -2.2400 N   0  0  0  0  0  0  0  0  0  0  0  0
    0.1770   12.0530   -4.9110 C   0  0  2  0  0  0  0  0  0  0  0  0
    1.7780   12.5130   -3.2720 C   0  0  2  0  0  0  0  0  0  0  0  0
    0.9210   11.5150   -3.8120 O   0  0  0  0  0  0  0  0  0  0  0  0
   -3.8530   15.2060   -1.7660 C   0  0  0  0  0  0  0  0  0  0  0  0
   -1.7620   14.3480   -1.1010 C   0  0  1  0  0  0  0  0  0  0  0  0
    0.5510   11.4800   -6.3150 C   0  0  2  0  0  0  0  0  0  0  0  0
   -1.5340   11.4560   -4.6140 S   0  0  0  0  0  0  0  0  0  0  0  0
    1.2340   12.9510   -2.0490 O   0  0  0  0  0  0  0  0  0  0  0  0
   -0.6090   15.1250   -1.2210 O   0  0  0  0  0  0  0  0  0  0  0  0
    0.6080   12.5330   -7.2620 O   0  0  0  0  0  0  0  0  0  0  0  0
   -3.8550   14.9820   -0.2670 C   0  0  0  0  0  0  0  0  0  0  0  0
   -2.4380   14.8630    0.0820 N   0  0  0  0  0  0  0  0  0  0  0  0
   -1.2150    9.9660   -5.5810 C   0  0  2  0  0  0  0  0  0  0  0  0
   -0.5420   10.5240   -6.8140 C   0  0  2  0  0  0  0  0  0  0  0  0
   -2.4770    9.1650   -5.8770 C   0  0  0  0  0  0  0  0  0  0  0  0
   -0.1430    9.4290   -7.7930 C   0  0  0  0  0  0  0  0  0  0  0  0
   -2.1910    8.1070   -6.9420 C   0  0  0  0  0  0  0  0  0  0  0  0
   -1.3930    8.6180   -8.1510 C   0  0  0  0  0  0  0  0  0  0  0  0
  2  1  1  6
  2  3  1  0
  2  4  1  0
  3  5  1  1
  4  6  1  6
  4  7  1  0
  3  8  1  0
  5  9  1  0
  8 10  1  1
  9 10  1  0
  7 11  1  0
  7 12  1  0
  8 13  1  0
  8 14  1  0
  9 15  1  1
 12 16  1  6
 13 17  1  6
 11 18  1  0
 12 19  1  0
 18 19  1  0
 14 20  1  0
 13 21  1  0
 20 21  1  0
 20 22  1  6
 21 23  1  1
 22 24  1  0
 23 25  1  0
 24 25  1  0
M  END
