ucsf357-ucsf422
     RDKit          3D

 25 27  0  0  0  0  0  0  0  0999 V2000
   -6.2360   14.9970   -2.0480 O   0  0  0  0  0  0  0  0  0  0  0  0
   -5.6500   15.6150   -1.0490 C   0  0  1  0  0  0  0  0  0  0  0  0
   -6.1850   14.9210    0.0620 O   0  0  0  0  0  0  0  0  0  0  0  0
   -4.1140   15.3900   -1.1130 C   0  0  2  0  0  0  0  0  0  0  0  0
   -3.8020   14.3060   -2.1500 C   0  0  0  0  0  0  0  0  0  0  0  0
   -3.3740   15.1820    0.2260 C   0  0  0  0  0  0  0  0  0  0  0  0
   -2.3200   13.9700   -2.2440 C   0  0  1  0  0  0  0  0  0  0  0  0
   -1.8520   15.1310    0.0080 C   0  0  0  0  0  0  0  0  0  0  0  0
   -2.0200   14.0470   -3.6470 O   0  0  0  0  0  0  0  0  0  0  0  0
   -1.4650   15.0070   -1.4640 C   0  0  1  0  0  0  0  0  0  0  0  0
   -0.0610   14.6710   -1.5560 O   0  0  0  0  0  0  0  0  0  0  0  0
   -1.4750   15.3080   -3.9830 C   0  0  1  0  0  0  0  0  0  0  0  0
   -0.3020   15.1270   -4.8900 C   0  0  2  0  0  0  0  0  0  0  0  0
   -2.5030   16.1710   -4.7350 C   0  0  2  0  0  0  0  0  0  0  0  0
   -3.7050   15.1360   -5.9060 Br  0  0  0  0  0  0  0  0  0  0  0  0
    0.7760   14.0210   -4.8810 C   0  0  2  0  0  0  0  0  0  0  0  0
    0.3990   16.4550   -4.6740 C   0  0  1  0  0  0  0  0  0  0  0  0
   -1.8570   17.3620   -5.5370 C   0  0  0  0  0  0  0  0  0  0  0  0
    0.3560   12.6290   -4.3100 C   0  0  0  0  0  0  0  0  0  0  0  0
    1.8860   14.7970   -4.1670 C   0  0  0  0  0  0  0  0  0  0  0  0
    1.8000   16.1370   -4.8190 N   0  0  0  0  0  0  0  0  0  0  0  0
   -0.2850   17.5210   -5.5190 C   0  0  0  0  0  0  0  0  0  0  0  0
    1.1010   12.1420   -3.0310 C   0  0  2  0  0  0  0  0  0  0  0  0
    0.4520   11.0960   -2.5190 O   0  0  0  0  0  0  0  0  0  0  0  0
    0.9610   13.0970   -1.9980 O   0  0  0  0  0  0  0  0  0  0  0  0
  2  1  1  6
  2  3  1  0
  2  4  1  0
  4  5  1  6
  4  6  1  0
  5  7  1  0
  6  8  1  0
  7  9  1  6
  7 10  1  0
  8 10  1  0
 10 11  1  1
 12  9  1  6
 12 13  1  0
 12 14  1  0
 14 15  1  6
 13 16  1  1
 13 17  1  0
 14 18  1  0
 16 19  1  1
 16 20  1  0
 17 21  1  0
 20 21  1  0
 17 22  1  6
 18 22  1  0
 19 23  1  0
 23 24  1  1
 23 25  1  0
M  CHG  2   1  -1  24  -1
M  END
