ucsf345-ucsf422
     RDKit          3D

 25 27  0  0  0  0  0  0  0  0999 V2000
   -6.9290   14.6510    1.7520 N   0  0  0  0  0  0  0  0  0  0  0  0
   -6.8240   14.7010    0.2960 C   0  0  2  0  0  0  0  0  0  0  0  0
   -7.6820   13.7010   -0.2000 O   0  0  0  0  0  0  0  0  0  0  0  0
   -5.4040   14.4960   -0.2980 C   0  0  1  0  0  0  0  0  0  0  0  0
   -5.4310   14.7140   -1.7760 N   0  0  0  0  0  0  0  0  0  0  0  0
   -4.2830   15.2620    0.4490 C   0  0  0  0  0  0  0  0  0  0  0  0
   -4.1420   14.2850   -2.3450 C   0  0  2  0  0  0  0  0  0  0  0  0
   -2.9910   15.1940   -0.2720 N   0  0  0  0  0  0  0  0  0  0  0  0
   -3.0450   14.1150   -1.2660 C   0  0  0  0  0  0  0  0  0  0  0  0
   -3.6060   15.2030   -3.4100 C   0  0  0  0  0  0  0  0  0  0  0  0
   -4.1160   14.8840   -4.7950 C   0  0  0  0  0  0  0  0  0  0  0  0
   -3.6510   15.9560   -5.5850 O   0  0  0  0  0  0  0  0  0  0  0  0
   -2.2360   16.1550   -5.4650 C   0  0  1  0  0  0  0  0  0  0  0  0
   -1.8020   17.2150   -4.4880 C   0  0  0  0  0  0  0  0  0  0  0  0
   -1.5080   14.8240   -5.1490 C   0  0  0  0  0  0  0  0  0  0  0  0
    0.0150   14.9810   -5.2790 C   0  0  2  0  0  0  0  0  0  0  0  0
   -0.3030   17.5180   -4.5340 C   0  0  0  0  0  0  0  0  0  0  0  0
    1.0350   13.9840   -4.7200 C   0  0  2  0  0  0  0  0  0  0  0  0
    0.6020   16.3870   -5.0490 C   0  0  1  0  0  0  0  0  0  0  0  0
    0.5300   12.5810   -4.2900 C   0  0  0  0  0  0  0  0  0  0  0  0
    1.6740   14.8100   -3.6190 C   0  0  0  0  0  0  0  0  0  0  0  0
    1.7000   16.1910   -4.1190 N   0  0  0  0  0  0  0  0  0  0  0  0
    0.3920   12.3470   -2.7670 C   0  0  1  0  0  0  0  0  0  0  0  0
    0.2730   11.0620   -2.4770 O   0  0  0  0  0  0  0  0  0  0  0  0
    1.6360   12.6500   -2.1810 O   0  0  0  0  0  0  0  0  0  0  0  0
  2  1  1  1
  2  3  1  0
  2  4  1  0
  4  5  1  0
  4  6  1  1
  5  7  1  0
  6  8  1  0
  7  9  1  0
  8  9  1  0
  7 10  1  6
 10 11  1  0
 11 12  1  0
 13 12  1  1
 13 14  1  0
 13 15  1  0
 16 15  1  1
 14 17  1  0
 16 18  1  0
 16 19  1  0
 19 17  1  1
 18 20  1  1
 18 21  1  0
 19 22  1  0
 21 22  1  0
 20 23  1  0
 23 24  1  6
 23 25  1  0
M  CHG  1  24  -1
M  END
