ucsf138-ucsf173
     RDKit          3D

 23 25  0  0  0  0  0  0  0  0999 V2000
    1.8570   12.4270   -2.7610 O   0  0  0  0  0  0  0  0  0  0  0  0
    0.7760   12.4860   -3.5140 C   0  0  2  0  0  0  0  0  0  0  0  0
    0.0250   11.3770   -3.0430 O   0  0  0  0  0  0  0  0  0  0  0  0
    1.0700   12.3460   -5.0390 C   0  0  0  0  0  0  0  0  0  0  0  0
    0.0120   13.8160   -3.3700 C   0  0  0  0  0  0  0  0  0  0  0  0
    0.1420   11.3850   -5.6850 N   0  0  0  0  0  0  0  0  0  0  0  0
   -1.2250   14.0210   -4.2950 C   0  0  0  0  0  0  0  0  0  0  0  0
    0.8940   15.0910   -3.5960 C   0  0  0  0  0  0  0  0  0  0  0  0
    0.3680   11.2940   -7.0960 C   0  0  1  0  0  0  0  0  0  0  0  0
   -1.2920   15.5350   -4.3410 C   0  0  1  0  0  0  0  0  0  0  0  0
    0.1500   15.8610   -4.6840 C   0  0  1  0  0  0  0  0  0  0  0  0
    1.6970   11.4530   -7.3800 O   0  0  0  0  0  0  0  0  0  0  0  0
   -0.1880   10.0270   -7.5220 N   0  0  0  0  0  0  0  0  0  0  0  0
   -2.3290   16.2170   -5.2370 C   0  0  0  0  0  0  0  0  0  0  0  0
    0.3990   17.3550   -4.7990 C   0  0  0  0  0  0  0  0  0  0  0  0
    0.2300    9.4620   -8.8190 C   0  0  0  0  0  0  0  0  0  0  0  0
   -1.9840   17.6660   -5.6720 C   0  0  0  0  0  0  0  0  0  0  0  0
   -0.5030   17.9900   -5.8540 C   0  0  0  0  0  0  0  0  0  0  0  0
    0.5380   10.5030   -9.9140 C   0  0  0  0  0  0  0  0  0  0  0  0
    1.4170    8.5160   -8.5930 C   0  0  0  0  0  0  0  0  0  0  0  0
    0.7920    9.8170  -11.2590 C   0  0  0  0  0  0  0  0  0  0  0  0
    2.0910    8.0760   -9.8930 C   0  0  0  0  0  0  0  0  0  0  0  0
    1.1880    8.3420  -11.0970 C   0  0  0  0  0  0  0  0  0  0  0  0
  2  1  1  1
  2  3  1  0
  2  4  1  0
  2  5  1  0
  4  6  1  0
  5  7  1  0
  5  8  1  0
  6  9  1  0
 10  7  1  6
 11  8  1  1
 10 11  1  0
  9 12  1  1
  9 13  1  0
 10 14  1  0
 11 15  1  0
 13 16  1  0
 14 17  1  0
 15 18  1  0
 17 18  1  0
 16 19  1  0
 16 20  1  0
 19 21  1  0
 20 22  1  0
 21 23  1  0
 22 23  1  0
M  CHG  1   1  -1
M  END
