ucsf274-ucsf442
     RDKit          3D

 29 32  0  0  0  0  0  0  0  0999 V2000
    0.6020   11.2740   -2.6330 O   0  0  0  0  0  0  0  0  0  0  0  0
    1.3200   12.3590   -2.8890 C   0  0  2  0  0  0  0  0  0  0  0  0
    1.4200   13.0850   -1.6710 O   0  0  0  0  0  0  0  0  0  0  0  0
    0.5720   13.3590   -3.8140 C   0  0  0  0  0  0  0  0  0  0  0  0
    0.5260   12.9550   -5.2850 C   0  0  0  0  0  0  0  0  0  0  0  0
    0.4700   14.1510   -1.5520 C   0  0  0  0  0  0  0  0  0  0  0  0
    0.6780   14.6770   -0.1600 C   0  0  0  0  0  0  0  0  0  0  0  0
   -0.2620   11.6580   -5.5050 C   0  0  1  0  0  0  0  0  0  0  0  0
   -0.2950   15.5730    0.3140 O   0  0  0  0  0  0  0  0  0  0  0  0
   -1.8010   11.8290   -5.3400 C   0  0  2  0  0  0  0  0  0  0  0  0
    0.1290   11.0410   -6.7800 N   0  0  0  0  0  0  0  0  0  0  0  0
   -2.1550   11.9260   -3.9750 O   0  0  0  0  0  0  0  0  0  0  0  0
   -2.5560   10.6770   -5.8420 N   0  0  0  0  0  0  0  0  0  0  0  0
   -0.4230    9.6860   -6.8630 C   0  0  1  0  0  0  0  0  0  0  0  0
   -1.5150   14.9960    0.0800 C   0  0  1  0  0  0  0  0  0  0  0  0
   -1.6910    9.4860   -5.9800 C   0  0  2  0  0  0  0  0  0  0  0  0
   -0.6270    9.3100   -8.3250 C   0  0  0  0  0  0  0  0  0  0  0  0
   -2.4100   15.3290    1.1310 N   0  0  0  0  0  0  0  0  0  0  0  0
   -1.9990   15.5460   -1.1260 N   0  0  0  0  0  0  0  0  0  0  0  0
   -1.1840    7.9090   -8.4820 C   0  0  0  0  0  0  0  0  0  0  0  0
   -2.5080    8.2120   -6.3210 C   0  0  0  0  0  0  0  0  0  0  0  0
   -3.5870   14.5450    1.0070 C   0  0  2  0  0  0  0  0  0  0  0  0
   -3.1950   14.8930   -1.5440 C   0  0  2  0  0  0  0  0  0  0  0  0
   -4.0140   15.8240   -2.2060 O   0  0  0  0  0  0  0  0  0  0  0  0
   -2.5260    7.7870   -7.7960 C   0  0  0  0  0  0  0  0  0  0  0  0
   -3.9220   14.0870   -0.4340 C   0  0  2  0  0  0  0  0  0  0  0  0
   -4.7320   15.2820    1.4640 N   0  0  0  0  0  0  0  0  0  0  0  0
   -5.3830   14.0030   -0.4200 N   0  0  0  0  0  0  0  0  0  0  0  0
   -5.7460   15.1070    0.4320 C   0  0  0  0  0  0  0  0  0  0  0  0
  2  1  1  1
  2  3  1  0
  2  4  1  0
  4  5  1  0
  3  6  1  0
  6  7  1  0
  8  5  1  6
  7  9  1  0
  8 10  1  0
  8 11  1  0
 10 12  1  1
 10 13  1  0
 11 14  1  0
 15  9  1  1
 13 16  1  0
 14 16  1  0
 14 17  1  6
 15 18  1  0
 15 19  1  0
 17 20  1  0
 16 21  1  6
 22 18  1  6
 19 23  1  0
 23 24  1  1
 20 25  1  0
 21 25  1  0
 22 26  1  0
 23 26  1  0
 22 27  1  0
 26 28  1  6
 27 29  1  0
 28 29  1  0
M  CHG  1   1  -1
M  END
