ucsf412-ucsf403
     RDKit          3D

 26 28  0  0  0  0  0  0  0  0999 V2000
   -7.9760   15.1260   -0.3890 O   0  0  0  0  0  0  0  0  0  0  0  0
   -6.9770   14.4070    0.2870 C   0  0  2  0  0  0  0  0  0  0  0  0
   -7.0450   14.8190    1.6610 N   0  0  0  0  0  0  0  0  0  0  0  0
   -5.6060   14.5510   -0.4150 C   0  0  2  0  0  0  0  0  0  0  0  0
   -4.4360   15.2010    0.3610 C   0  0  1  0  0  0  0  0  0  0  0  0
   -5.8320   14.4930    2.3990 C   0  0  0  0  0  0  0  0  0  0  0  0
   -5.6340   15.2400   -1.7770 C   0  0  0  0  0  0  0  0  0  0  0  0
   -4.5020   15.0590    1.8780 C   0  0  0  0  0  0  0  0  0  0  0  0
   -3.1340   14.6350   -0.2290 C   0  0  0  0  0  0  0  0  0  0  0  0
   -4.2510   15.2100   -2.4470 C   0  0  0  0  0  0  0  0  0  0  0  0
   -3.2740   14.2620   -1.7320 C   0  0  1  0  0  0  0  0  0  0  0  0
   -1.9440   14.1610   -2.5180 C   0  0  0  0  0  0  0  0  0  0  0  0
   -2.0610   13.6840   -3.9860 C   0  0  0  0  0  0  0  0  0  0  0  0
   -1.7780   12.1880   -4.2150 C   0  0  0  0  0  0  0  0  0  0  0  0
   -1.8740   11.7170   -5.7010 C   0  0  1  0  0  0  0  0  0  0  0  0
   -0.5450   11.2440   -6.3800 C   0  0  1  0  0  0  0  0  0  0  0  0
   -2.9640   10.6350   -5.8620 C   0  0  0  0  0  0  0  0  0  0  0  0
    0.5200   11.1620   -5.4430 O   0  0  0  0  0  0  0  0  0  0  0  0
   -2.5340    9.2230   -5.4690 C   0  0  0  0  0  0  0  0  0  0  0  0
   -0.7370    9.8840   -7.1120 C   0  0  1  0  0  0  0  0  0  0  0  0
    0.7720    9.2630   -7.8810 Cl  0  0  0  0  0  0  0  0  0  0  0  0
    0.9510   12.4370   -4.8980 C   0  0  0  0  0  0  0  0  0  0  0  0
   -1.2780    8.7850   -6.2070 C   0  0  0  0  0  0  0  0  0  0  0  0
    1.3180   12.2020   -3.3990 C   0  0  1  0  0  0  0  0  0  0  0  0
    0.8080   13.1400   -2.6510 O   0  0  0  0  0  0  0  0  0  0  0  0
    0.6910   10.9810   -2.9800 O   0  0  0  0  0  0  0  0  0  0  0  0
  2  1  1  6
  2  3  1  0
  2  4  1  0
  4  5  1  0
  3  6  1  0
  4  7  1  6
  5  8  1  1
  6  8  1  0
  5  9  1  0
  7 10  1  0
  9 11  1  0
 10 11  1  0
 11 12  1  6
 12 13  1  0
 13 14  1  0
 15 14  1  1
 15 16  1  0
 15 17  1  0
 16 18  1  1
 17 19  1  0
 16 20  1  0
 20 21  1  1
 18 22  1  0
 19 23  1  0
 20 23  1  0
 22 24  1  0
 24 25  1  1
 24 26  1  0
M  CHG  1  25  -1
M  END
