ucsf170-ucsf278
     RDKit          3D

 24 26  0  0  0  0  0  0  0  0999 V2000
   -5.1310   14.9670    1.2830 C   0  0  0  0  0  0  0  0  0  0  0  0
   -3.3930   15.4430    1.1850 S   0  0  0  0  0  0  0  0  0  0  0  0
   -3.0590   14.8600   -0.5130 C   0  0  2  0  0  0  0  0  0  0  0  0
   -1.7340   15.4750   -0.9510 C   0  0  0  0  0  0  0  0  0  0  0  0
   -4.2120   15.1850   -1.4820 C   0  0  0  0  0  0  0  0  0  0  0  0
   -1.3950   15.0220   -2.3700 C   0  0  2  0  0  0  0  0  0  0  0  0
   -3.8680   14.8680   -2.9350 C   0  0  0  0  0  0  0  0  0  0  0  0
   -0.0350   15.5510   -2.8210 C   0  0  1  0  0  0  0  0  0  0  0  0
   -2.5050   15.4260   -3.3430 C   0  0  2  0  0  0  0  0  0  0  0  0
   -2.1470   14.9570   -4.6480 O   0  0  0  0  0  0  0  0  0  0  0  0
    0.9850   14.9270   -2.0620 O   0  0  0  0  0  0  0  0  0  0  0  0
    0.1170   15.3160   -4.2160 O   0  0  0  0  0  0  0  0  0  0  0  0
    1.2850   14.5920   -4.5740 C   0  0  2  0  0  0  0  0  0  0  0  0
    0.9160   13.1420   -4.6560 C   0  0  1  0  0  0  0  0  0  0  0  0
    2.2420   14.6550   -3.4100 C   0  0  0  0  0  0  0  0  0  0  0  0
   -0.0800   12.9590   -3.5470 C   0  0  1  0  0  0  0  0  0  0  0  0
    0.2440   12.6830   -5.8760 N   0  0  0  0  0  0  0  0  0  0  0  0
    1.7040   14.1050   -2.0710 C   0  0  0  0  0  0  0  0  0  0  0  0
   -0.9850   11.9750   -5.4490 C   0  0  2  0  0  0  0  0  0  0  0  0
   -0.7550   11.6780   -3.9710 C   0  0  0  0  0  0  0  0  0  0  0  0
    0.5870   13.0200   -2.1710 C   0  0  1  0  0  0  0  0  0  0  0  0
   -0.6340   13.2730   -0.8870 Cl  0  0  0  0  0  0  0  0  0  0  0  0
   -1.2440   10.7180   -6.2650 C   0  0  0  0  0  0  0  0  0  0  0  0
   -2.3410   10.0240   -5.6760 O   0  0  0  0  0  0  0  0  0  0  0  0
  1  2  1  0
  3  2  1  1
  3  4  1  0
  3  5  1  0
  6  4  1  1
  5  7  1  0
  6  8  1  0
  6  9  1  0
  7  9  1  0
  9 10  1  6
  8 11  1  1
  8 12  1  0
 13 12  1  1
 13 14  1  0
 13 15  1  0
 14 16  1  0
 14 17  1  6
 15 18  1  0
 17 19  1  0
 16 20  1  6
 19 20  1  0
 16 21  1  0
 18 21  1  0
 21 22  1  1
 19 23  1  6
 23 24  1  0
M  END
