ucsf114-ucsf258
     RDKit          3D

 19 21  0  0  0  0  0  0  0  0999 V2000
    0.8930   18.1100   -5.6030 C   0  0  0  0  0  0  0  0  0  0  0  0
   -0.4620   17.6640   -5.0810 C   0  0  0  0  0  0  0  0  0  0  0  0
   -1.5450   18.6850   -5.4300 C   0  0  0  0  0  0  0  0  0  0  0  0
   -0.7900   16.3860   -5.6570 O   0  0  0  0  0  0  0  0  0  0  0  0
   -0.0660   15.2390   -5.1810 C   0  0  0  0  0  0  0  0  0  0  0  0
    0.0800   15.4080   -3.7130 C   0  0  1  0  0  0  0  0  0  0  0  0
   -0.3880   14.5050   -2.5040 C   0  0  2  0  0  0  0  0  0  0  0  0
    1.3870   15.2180   -3.0160 C   0  0  0  0  0  0  0  0  0  0  0  0
    0.4530   15.5860   -1.8880 N   0  0  0  0  0  0  0  0  0  0  0  0
    0.3730   13.4150   -1.7140 C   0  0  0  0  0  0  0  0  0  0  0  0
   -1.9010   14.3310   -2.1870 C   0  0  1  0  0  0  0  0  0  0  0  0
   -2.2100   13.1330   -2.9190 O   0  0  0  0  0  0  0  0  0  0  0  0
   -2.1300   14.1630   -0.6290 C   0  0  1  0  0  0  0  0  0  0  0  0
    0.4380   14.0670   -0.3950 N   0  0  0  0  0  0  0  0  0  0  0  0
   -3.0760   15.1810   -2.6780 C   0  0  0  0  0  0  0  0  0  0  0  0
   -0.8490   14.0680    0.3020 C   0  0  1  0  0  0  0  0  0  0  0  0
   -3.0890   15.2200   -0.2540 N   0  0  0  0  0  0  0  0  0  0  0  0
   -3.9530   15.3640   -1.4310 C   0  0  0  0  0  0  0  0  0  0  0  0
   -0.8540   15.0970    1.3030 O   0  0  0  0  0  0  0  0  0  0  0  0
  1  2  1  0
  2  3  1  0
  2  4  1  0
  4  5  1  0
  6  5  1  6
  6  7  1  0
  6  8  1  0
  7  9  1  0
  8  9  1  0
  7 10  1  6
  7 11  1  0
 11 12  1  6
 11 13  1  0
 10 14  1  0
 11 15  1  0
 13 16  1  0
 14 16  1  0
 13 17  1  1
 15 18  1  0
 17 18  1  0
 16 19  1  1
M  END
