ucsf371-ucsf411
     RDKit          3D

 24 26  0  0  0  0  0  0  0  0999 V2000
   -4.9570   15.2730    0.8480 C   0  0  0  0  0  0  0  0  0  0  0  0
   -4.1770   14.8690   -0.3810 C   0  0  1  0  0  0  0  0  0  0  0  0
   -4.8760   15.1940   -1.6230 N   0  0  0  0  0  0  0  0  0  0  0  0
   -2.5820   15.7040   -0.4320 S   0  0  0  0  0  0  0  0  0  0  0  0
   -3.8360   15.2300   -2.6580 C   0  0  0  0  0  0  0  0  0  0  0  0
   -2.4760   14.8940   -2.0460 C   0  0  1  0  0  0  0  0  0  0  0  0
   -1.2020   15.0600   -2.8980 C   0  0  2  0  0  0  0  0  0  0  0  0
   -1.0650   13.7340   -3.4180 O   0  0  0  0  0  0  0  0  0  0  0  0
   -0.2020   15.3700   -2.0780 O   0  0  0  0  0  0  0  0  0  0  0  0
   -1.0300   13.6140   -4.8180 C   0  0  2  0  0  0  0  0  0  0  0  0
    0.2290   14.3770   -5.2020 C   0  0  2  0  0  0  0  0  0  0  0  0
   -2.3590   14.1650   -5.3790 C   0  0  0  0  0  0  0  0  0  0  0  0
    1.3050   14.0550   -4.2760 O   0  0  0  0  0  0  0  0  0  0  0  0
    0.0220   15.9210   -5.2950 C   0  0  1  0  0  0  0  0  0  0  0  0
   -2.6260   15.6300   -5.0480 C   0  0  0  0  0  0  0  0  0  0  0  0
    1.5020   12.6410   -3.9120 C   0  0  0  0  0  0  0  0  0  0  0  0
   -1.4390   16.5170   -5.4140 C   0  0  1  0  0  0  0  0  0  0  0  0
    0.8600   16.7720   -4.3660 C   0  0  0  0  0  0  0  0  0  0  0  0
    0.5520   12.0640   -2.7680 C   0  0  1  0  0  0  0  0  0  0  0  0
   -1.4550   17.9150   -4.8760 C   0  0  0  0  0  0  0  0  0  0  0  0
    1.0180   18.1080   -5.0820 C   0  0  0  0  0  0  0  0  0  0  0  0
    0.7120   10.7520   -2.5450 O   0  0  0  0  0  0  0  0  0  0  0  0
    0.8730   12.5560   -1.4750 O   0  0  0  0  0  0  0  0  0  0  0  0
   -0.3290   18.5750   -5.6320 C   0  0  0  0  0  0  0  0  0  0  0  0
  2  1  1  1
  2  3  1  0
  2  4  1  0
  3  5  1  0
  4  6  1  0
  6  5  1  6
  6  7  1  0
  7  8  1  0
  7  9  1  1
 10  8  1  1
 10 11  1  0
 10 12  1  0
 11 13  1  1
 11 14  1  0
 12 15  1  0
 13 16  1  0
 14 17  1  0
 17 15  1  1
 14 18  1  1
 16 19  1  0
 17 20  1  0
 18 21  1  0
 19 22  1  1
 19 23  1  0
 20 24  1  0
 21 24  1  0
M  CHG  2   9  -1  22  -1
M  END
