ucsf114-ucsf124
     RDKit          3D

 30 34  0  0  0  0  0  0  0  0999 V2000
    0.8370   17.9990   -4.3870 C   0  0  0  0  0  0  0  0  0  0  0  0
   -0.1440   17.2540   -5.2750 C   0  0  0  0  0  0  0  0  0  0  0  0
   -1.4780   18.0100   -5.3240 C   0  0  0  0  0  0  0  0  0  0  0  0
   -0.4110   15.9380   -4.7550 O   0  0  0  0  0  0  0  0  0  0  0  0
    0.6870   14.9690   -4.6650 C   0  0  0  0  0  0  0  0  0  0  0  0
    0.3200   13.5570   -3.9220 C   0  0  1  0  0  0  0  0  0  0  0  0
    1.5830   12.8330   -3.1090 C   0  0  2  0  0  0  0  0  0  0  0  0
   -0.3210   13.9150   -2.5660 N   0  0  0  0  0  0  0  0  0  0  0  0
   -0.3030   12.5780   -4.9990 N   0  0  0  0  0  0  0  0  0  0  0  0
    2.2930   14.1200   -2.0510 S   0  0  0  0  0  0  0  0  0  0  0  0
    2.5570   12.2870   -3.7850 O   0  0  0  0  0  0  0  0  0  0  0  0
   -1.7040   13.9520   -2.1610 C   0  0  1  0  0  0  0  0  0  0  0  0
    0.6290   14.6980   -1.7560 C   0  0  2  0  0  0  0  0  0  0  0  0
   -1.2160   11.4680   -4.7140 C   0  0  1  0  0  0  0  0  0  0  0  0
    0.5410   11.8330   -5.9330 C   0  0  2  0  0  0  0  0  0  0  0  0
   -2.4520   11.7990   -4.1340 O   0  0  0  0  0  0  0  0  0  0  0  0
    1.6540   12.4820   -6.5370 O   0  0  0  0  0  0  0  0  0  0  0  0
   -1.9830   14.1110   -0.6290 C   0  0  1  0  0  0  0  0  0  0  0  0
    0.4260   14.8060   -0.2910 N   0  0  0  0  0  0  0  0  0  0  0  0
   -2.4340   15.1790   -2.7140 C   0  0  0  0  0  0  0  0  0  0  0  0
   -1.5410   10.8010   -6.0950 C   0  0  1  0  0  0  0  0  0  0  0  0
   -0.3790   11.1890   -7.0050 C   0  0  2  0  0  0  0  0  0  0  0  0
   -0.7470   14.2060    0.2980 C   0  0  1  0  0  0  0  0  0  0  0  0
   -2.9290   15.2550   -0.4540 N   0  0  0  0  0  0  0  0  0  0  0  0
   -3.5910   15.3120   -1.7500 C   0  0  0  0  0  0  0  0  0  0  0  0
   -1.8010    9.2880   -6.0760 C   0  0  0  0  0  0  0  0  0  0  0  0
    0.1850   10.0230   -7.8660 C   0  0  0  0  0  0  0  0  0  0  0  0
   -1.1160   15.0300    1.4230 O   0  0  0  0  0  0  0  0  0  0  0  0
   -1.9260    8.6420   -7.4540 C   0  0  0  0  0  0  0  0  0  0  0  0
   -0.8390    9.0420   -8.4470 C   0  0  0  0  0  0  0  0  0  0  0  0
  1  2  1  0
  2  3  1  0
  2  4  1  0
  4  5  1  0
  6  5  1  6
  6  7  1  0
  6  8  1  0
  6  9  1  0
  7 10  1  0
  7 11  1  6
  8 12  1  0
  8 13  1  0
 10 13  1  0
  9 14  1  0
  9 15  1  0
 14 16  1  6
 15 17  1  6
 12 18  1  0
 13 19  1  1
 12 20  1  6
 14 21  1  0
 15 22  1  0
 21 22  1  0
 18 23  1  0
 19 23  1  0
 18 24  1  6
 20 25  1  0
 24 25  1  0
 21 26  1  1
 22 27  1  1
 23 28  1  1
 26 29  1  0
 27 30  1  0
 29 30  1  0
M  CHG  1  11  -1
M  END
