ucsf516-ucsf336
     RDKit          3D

 30 34  0  0  0  0  0  0  0  0999 V2000
    1.8820   13.5090   -5.7590 O   0  0  0  0  0  0  0  0  0  0  0  0
    0.8660   13.3050   -4.9760 C   0  0  2  0  0  0  0  0  0  0  0  0
    1.6840   12.8190   -3.8980 O   0  0  0  0  0  0  0  0  0  0  0  0
   -0.0310   12.0820   -5.4250 C   0  0  2  0  0  0  0  0  0  0  0  0
    0.1910   14.5330   -4.3040 C   0  0  2  0  0  0  0  0  0  0  0  0
   -0.3770   11.3000   -4.2770 O   0  0  0  0  0  0  0  0  0  0  0  0
    0.3410   11.1190   -6.4360 N   0  0  0  0  0  0  0  0  0  0  0  0
    0.1270   14.5910   -2.7690 C   0  0  2  0  0  0  0  0  0  0  0  0
   -1.2960   14.7300   -4.7270 C   0  0  0  0  0  0  0  0  0  0  0  0
    0.5680   13.3080   -2.0860 C   0  0  0  0  0  0  0  0  0  0  0  0
   -1.2040   14.9660   -2.3590 N   0  0  0  0  0  0  0  0  0  0  0  0
   -2.1130   14.5890   -3.4410 C   0  0  0  0  0  0  0  0  0  0  0  0
   -0.5670    9.9730   -6.5370 C   0  0  0  0  0  0  0  0  0  0  0  0
    1.4940   12.3050   -2.8480 C   0  0  0  0  0  0  0  0  0  0  0  0
   -0.5250   12.1880   -2.1500 C   0  0  0  0  0  0  0  0  0  0  0  0
   -1.4630   14.4620   -1.0420 C   0  0  1  0  0  0  0  0  0  0  0  0
   -1.0210    9.8450   -7.9920 C   0  0  0  0  0  0  0  0  0  0  0  0
   -1.8020   10.1260   -5.6230 C   0  0  0  0  0  0  0  0  0  0  0  0
    0.5520   11.1530   -2.4430 C   0  0  0  0  0  0  0  0  0  0  0  0
   -0.4650   14.9930   -0.1310 N   0  0  0  0  0  0  0  0  0  0  0  0
   -2.9190   14.3980   -0.5870 C   0  0  1  0  0  0  0  0  0  0  0  0
   -1.8770    8.6100   -8.2500 C   0  0  0  0  0  0  0  0  0  0  0  0
   -2.9580    9.2200   -6.0540 C   0  0  0  0  0  0  0  0  0  0  0  0
   -0.6080   14.4620    1.1710 C   0  0  0  0  0  0  0  0  0  0  0  0
   -3.0400   14.6720    0.9190 C   0  0  1  0  0  0  0  0  0  0  0  0
   -3.9870   15.2550   -1.2580 C   0  0  0  0  0  0  0  0  0  0  0  0
   -2.5390    8.0870   -6.9880 C   0  0  0  0  0  0  0  0  0  0  0  0
   -1.8520   14.9330    1.6980 N   0  0  0  0  0  0  0  0  0  0  0  0
   -3.9160   15.8200    1.0130 N   0  0  0  0  0  0  0  0  0  0  0  0
   -4.8340   15.7340   -0.1080 C   0  0  0  0  0  0  0  0  0  0  0  0
  2  1  1  6
  2  3  1  0
  2  4  1  0
  2  5  1  0
  4  6  1  1
  4  7  1  0
  5  8  1  0
  5  9  1  6
  8 10  1  1
  8 11  1  0
  9 12  1  0
 11 12  1  0
  7 13  1  0
 10 14  1  0
 10 15  1  0
 16 11  1  6
 13 17  1  0
 13 18  1  0
 14 19  1  0
 15 19  1  0
 16 20  1  0
 16 21  1  0
 17 22  1  0
 18 23  1  0
 20 24  1  0
 21 25  1  0
 21 26  1  6
 22 27  1  0
 23 27  1  0
 24 28  1  0
 25 28  1  6
 25 29  1  0
 26 30  1  0
 29 30  1  0
M  CHG  1   1  -1
M  END
