ucsf348-ucsf264
     RDKit          3D

 31 34  0  0  0  0  0  0  0  0999 V2000
   -6.7930   14.7340    2.2520 N   0  0  0  0  0  0  0  0  0  0  0  0
   -6.3680   14.1690    1.0180 C   0  0  2  0  0  0  0  0  0  0  0  0
   -4.9410   14.1500    1.0800 N   0  0  0  0  0  0  0  0  0  0  0  0
   -7.0150   14.9420    0.0010 N   0  0  0  0  0  0  0  0  0  0  0  0
   -6.2840   15.5560   -1.0990 C   0  0  2  0  0  0  0  0  0  0  0  0
   -4.1990   15.2180    0.4340 C   0  0  2  0  0  0  0  0  0  0  0  0
   -6.7410   15.0440   -2.3390 O   0  0  0  0  0  0  0  0  0  0  0  0
   -4.7530   15.4740   -0.9810 C   0  0  1  0  0  0  0  0  0  0  0  0
   -2.6810   14.8900    0.5150 C   0  0  0  0  0  0  0  0  0  0  0  0
   -2.0110   14.3050   -0.7640 C   0  0  2  0  0  0  0  0  0  0  0  0
   -4.1670   14.6240   -2.0840 C   0  0  0  0  0  0  0  0  0  0  0  0
   -0.5050   14.5810   -0.8610 C   0  0  0  0  0  0  0  0  0  0  0  0
   -2.6720   14.6060   -2.1150 C   0  0  0  0  0  0  0  0  0  0  0  0
    0.2530   13.2890   -1.1380 C   0  0  0  0  0  0  0  0  0  0  0  0
    0.8900   13.2780   -2.4240 O   0  0  0  0  0  0  0  0  0  0  0  0
    0.3140   12.3680   -3.3730 C   0  0  2  0  0  0  0  0  0  0  0  0
    0.5840   11.0280   -2.9730 O   0  0  0  0  0  0  0  0  0  0  0  0
    0.9200   12.6570   -4.7780 C   0  0  0  0  0  0  0  0  0  0  0  0
    0.1650   12.0610   -5.9260 N   0  0  0  0  0  0  0  0  0  0  0  0
    1.1030   11.7780   -7.0130 N   0  0  0  0  0  0  0  0  0  0  0  0
   -0.5600   10.7750   -5.6740 C   0  0  2  0  0  0  0  0  0  0  0  0
    0.2880   10.9660   -7.9220 C   0  0  2  0  0  0  0  0  0  0  0  0
   -0.3370    9.9630   -6.9700 C   0  0  2  0  0  0  0  0  0  0  0  0
   -2.0550   10.9140   -5.3550 C   0  0  0  0  0  0  0  0  0  0  0  0
    1.0060   10.2880   -9.0910 C   0  0  0  0  0  0  0  0  0  0  0  0
   -1.6310    9.4130   -7.5730 C   0  0  0  0  0  0  0  0  0  0  0  0
   -2.8700    9.6170   -5.4070 C   0  0  0  0  0  0  0  0  0  0  0  0
    1.7050    9.1940   -8.7090 F   0  0  0  0  0  0  0  0  0  0  0  0
    0.1640    9.9280  -10.0800 F   0  0  0  0  0  0  0  0  0  0  0  0
    1.8610   11.1400   -9.6410 F   0  0  0  0  0  0  0  0  0  0  0  0
   -2.4270    8.6700   -6.5190 C   0  0  0  0  0  0  0  0  0  0  0  0
  2  1  1  1
  2  3  1  0
  2  4  1  0
  4  5  1  0
  3  6  1  0
  5  7  1  6
  5  8  1  0
  6  8  1  0
  6  9  1  6
  9 10  1  0
  8 11  1  6
 10 12  1  6
 10 13  1  0
 11 13  1  0
 12 14  1  0
 14 15  1  0
 15 16  1  0
 16 17  1  1
 16 18  1  0
 18 19  1  0
 19 20  1  0
 19 21  1  0
 20 22  1  0
 21 23  1  0
 22 23  1  0
 21 24  1  6
 22 25  1  6
 23 26  1  6
 24 27  1  0
 25 28  1  0
 25 29  1  0
 25 30  1  0
 26 31  1  0
 27 31  1  0
M  END
