ucsf135-ucsf364
     RDKit          3D

 16 17  0  0  0  0  0  0  0  0999 V2000
    1.9910   12.2930   -6.8390 O   0  0  0  0  0  0  0  0  0  0  0  0
    0.6950   12.4250   -6.3160 C   0  0  2  0  0  0  0  0  0  0  0  0
    0.9160   12.4820   -4.7400 C   0  0  1  0  0  0  0  0  0  0  0  0
   -0.0940   11.1550   -6.8120 C   0  0  1  0  0  0  0  0  0  0  0  0
    2.2640   11.9090   -4.2770 C   0  0  0  0  0  0  0  0  0  0  0  0
    0.5250   13.6900   -3.8050 C   0  0  2  0  0  0  0  0  0  0  0  0
   -0.5170   11.5430   -4.3280 S   0  0  0  0  0  0  0  0  0  0  0  0
   -1.0860   10.6860   -5.7180 C   0  0  1  0  0  0  0  0  0  0  0  0
   -0.8050   11.0540   -8.1580 C   0  0  0  0  0  0  0  0  0  0  0  0
   -1.5120   12.7890   -4.1750 O   0  0  0  0  0  0  0  0  0  0  0  0
   -0.2520   10.5740   -3.0780 O   0  0  0  0  0  0  0  0  0  0  0  0
    1.5630   14.5920   -3.5050 O   0  0  0  0  0  0  0  0  0  0  0  0
    0.3370   13.2190   -2.5740 O   0  0  0  0  0  0  0  0  0  0  0  0
   -2.5040   10.6800   -6.1740 C   0  0  0  0  0  0  0  0  0  0  0  0
   -1.5080    9.6730   -8.2490 C   0  0  0  0  0  0  0  0  0  0  0  0
   -2.5770    9.5070   -7.1570 C   0  0  0  0  0  0  0  0  0  0  0  0
  2  1  1  6
  2  3  1  0
  2  4  1  0
  3  5  1  6
  3  6  1  0
  3  7  1  0
  4  8  1  0
  7  8  1  0
  4  9  1  6
  7 10  1  0
  7 11  1  0
  6 12  1  1
  6 13  1  0
  8 14  1  6
  9 15  1  0
 14 16  1  0
 15 16  1  0
M  CHG  1  13  -1
M  END
