ucsf348-ucsf147
     RDKit          3D

 20 22  0  0  0  0  0  0  0  0999 V2000
   -6.3630   13.4340    1.6930 N   0  0  0  0  0  0  0  0  0  0  0  0
   -6.1560   14.7450    1.2270 C   0  0  1  0  0  0  0  0  0  0  0  0
   -4.7260   14.9290    1.2150 N   0  0  0  0  0  0  0  0  0  0  0  0
   -6.6880   14.7550   -0.1000 N   0  0  0  0  0  0  0  0  0  0  0  0
   -5.8160   15.3300   -1.1310 C   0  0  2  0  0  0  0  0  0  0  0  0
   -4.0130   14.2000    0.1150 C   0  0  1  0  0  0  0  0  0  0  0  0
   -6.5570   15.2520   -2.3340 O   0  0  0  0  0  0  0  0  0  0  0  0
   -4.4980   14.5560   -1.2930 C   0  0  2  0  0  0  0  0  0  0  0  0
   -2.4970   14.3760    0.1960 C   0  0  0  0  0  0  0  0  0  0  0  0
   -1.7790   13.6930   -0.9990 C   0  0  0  0  0  0  0  0  0  0  0  0
   -3.3790   15.1290   -2.2390 C   0  0  0  0  0  0  0  0  0  0  0  0
   -2.1040   14.2190   -2.4480 C   0  0  2  0  0  0  0  0  0  0  0  0
   -2.5340   13.1370   -3.4190 N   0  0  0  0  0  0  0  0  0  0  0  0
   -0.7180   14.6520   -3.1380 C   0  0  1  0  0  0  0  0  0  0  0  0
    0.5990   14.6500   -2.3090 C   0  0  2  0  0  0  0  0  0  0  0  0
   -0.4580   13.5290   -4.1720 C   0  0  1  0  0  0  0  0  0  0  0  0
   -1.7620   13.3110   -4.6720 O   0  0  0  0  0  0  0  0  0  0  0  0
    0.5550   13.8100   -5.2890 C   0  0  0  0  0  0  0  0  0  0  0  0
    0.7890   13.3720   -1.7120 O   0  0  0  0  0  0  0  0  0  0  0  0
    0.4860   15.3990   -1.2510 O   0  0  0  0  0  0  0  0  0  0  0  0
  2  1  1  6
  2  3  1  0
  2  4  1  0
  4  5  1  0
  3  6  1  0
  5  7  1  6
  5  8  1  0
  6  8  1  0
  6  9  1  6
  9 10  1  0
  8 11  1  1
 12 10  1  1
 11 12  1  0
 12 13  1  0
 12 14  1  0
 14 15  1  1
 14 16  1  0
 13 17  1  0
 16 17  1  0
 16 18  1  6
 15 19  1  1
 15 20  1  0
M  CHG  1  20  -1
M  END
