ucsf258-ucsf004
     RDKit          3D

 21 23  0  0  0  0  0  0  0  0999 V2000
    0.4940   15.8820   -2.5420 O   0  0  0  0  0  0  0  0  0  0  0  0
    0.2120   15.1850   -1.4290 C   0  0  2  0  0  0  0  0  0  0  0  0
    1.2940   14.3340   -1.4630 O   0  0  0  0  0  0  0  0  0  0  0  0
   -1.3330   14.2100   -1.5580 S   0  0  0  0  0  0  0  0  0  0  0  0
   -2.9930   15.0790   -2.2750 C   0  0  2  0  0  0  0  0  0  0  0  0
   -2.5000   14.4020   -0.3790 N   0  0  0  0  0  0  0  0  0  0  0  0
   -0.8030   13.6630   -3.2760 N   0  0  0  0  0  0  0  0  0  0  0  0
   -0.9740   13.2530   -0.0440 N   0  0  0  0  0  0  0  0  0  0  0  0
   -2.6860   15.6750   -3.4300 O   0  0  0  0  0  0  0  0  0  0  0  0
   -3.9530   15.6380   -1.3800 C   0  0  0  0  0  0  0  0  0  0  0  0
   -3.6680   13.7280   -0.2840 C   0  0  0  0  0  0  0  0  0  0  0  0
   -1.7680   13.8910   -4.1630 C   0  0  0  0  0  0  0  0  0  0  0  0
    0.3450   14.5270   -3.6910 C   0  0  0  0  0  0  0  0  0  0  0  0
   -0.1700   13.9380    0.8750 C   0  0  0  0  0  0  0  0  0  0  0  0
   -2.2330   14.9880    0.8330 C   0  0  0  0  0  0  0  0  0  0  0  0
   -4.8200   14.5760   -0.7210 C   0  0  0  0  0  0  0  0  0  0  0  0
   -1.4940   12.9410   -5.2730 C   0  0  2  0  0  0  0  0  0  0  0  0
    0.5900   14.2590   -5.1640 C   0  0  0  0  0  0  0  0  0  0  0  0
   -1.1060   14.6960    1.6290 N   0  0  0  0  0  0  0  0  0  0  0  0
   -1.8350   11.6650   -4.9270 F   0  0  0  0  0  0  0  0  0  0  0  0
   -0.0470   12.9800   -5.6180 C   0  0  0  0  0  0  0  0  0  0  0  0
  2  1  1  6
  2  3  1  0
  2  4  1  0
  4  5  1  0
  4  6  1  0
  4  7  1  0
  4  8  1  0
  5  9  1  6
  5 10  1  0
  6 11  1  0
  7 12  1  0
  7 13  1  0
  8 14  1  0
  6 15  1  0
 10 16  1  0
 11 16  1  0
 12 17  1  0
 13 18  1  0
 14 19  1  0
 15 19  1  0
 17 20  1  1
 17 21  1  0
 18 21  1  0
M  CHG  1   1  -1
M  END
