ucsf114-ucsf264
     RDKit          3D

 33 36  0  0  0  0  0  0  0  0999 V2000
    0.8650   18.0150   -4.4510 C   0  0  0  0  0  0  0  0  0  0  0  0
   -0.1860   17.3600   -5.3240 C   0  0  0  0  0  0  0  0  0  0  0  0
   -1.4730   18.1900   -5.3620 C   0  0  0  0  0  0  0  0  0  0  0  0
   -0.4340   16.0350   -4.7970 O   0  0  0  0  0  0  0  0  0  0  0  0
    0.6760   15.0700   -4.8230 C   0  0  0  0  0  0  0  0  0  0  0  0
    0.2610   13.6270   -4.2320 C   0  0  1  0  0  0  0  0  0  0  0  0
    1.5180   12.6160   -3.9800 C   0  0  1  0  0  0  0  0  0  0  0  0
   -0.2280   13.8510   -2.7150 N   0  0  0  0  0  0  0  0  0  0  0  0
   -0.3830   12.6510   -5.3450 N   0  0  0  0  0  0  0  0  0  0  0  0
    1.8710   12.3990   -2.7330 O   0  0  0  0  0  0  0  0  0  0  0  0
    0.9410   11.3490   -4.2220 O   0  0  0  0  0  0  0  0  0  0  0  0
   -1.6470   13.8100   -2.2720 C   0  0  1  0  0  0  0  0  0  0  0  0
    0.7140   14.6100   -1.8240 C   0  0  2  0  0  0  0  0  0  0  0  0
    0.4100   12.5770   -6.6630 N   0  0  0  0  0  0  0  0  0  0  0  0
   -1.0880   11.3440   -5.3080 C   0  0  2  0  0  0  0  0  0  0  0  0
    2.5000   14.2340   -1.8540 S   0  0  0  0  0  0  0  0  0  0  0  0
   -1.9910   13.9930   -0.7470 C   0  0  1  0  0  0  0  0  0  0  0  0
    0.4040   14.7550   -0.3880 N   0  0  0  0  0  0  0  0  0  0  0  0
   -2.6140   14.7880   -2.9650 C   0  0  0  0  0  0  0  0  0  0  0  0
    0.6070   11.1750   -7.1470 C   0  0  1  0  0  0  0  0  0  0  0  0
   -0.4480   10.3840   -6.3680 C   0  0  2  0  0  0  0  0  0  0  0  0
   -2.5950   11.0870   -5.3050 C   0  0  0  0  0  0  0  0  0  0  0  0
    0.7380   10.6300   -8.6340 C   0  0  0  0  0  0  0  0  0  0  0  0
   -0.7790   14.2080    0.2040 C   0  0  1  0  0  0  0  0  0  0  0  0
   -2.9870   15.0940   -0.6250 N   0  0  0  0  0  0  0  0  0  0  0  0
   -3.6680   15.1180   -1.9220 C   0  0  0  0  0  0  0  0  0  0  0  0
   -1.4710    9.7080   -7.2960 C   0  0  0  0  0  0  0  0  0  0  0  0
   -3.0280    9.6180   -5.3270 C   0  0  0  0  0  0  0  0  0  0  0  0
   -1.1440   15.0380    1.3250 O   0  0  0  0  0  0  0  0  0  0  0  0
    1.2520    9.3750   -8.6660 F   0  0  0  0  0  0  0  0  0  0  0  0
   -0.4220   10.5730   -9.3100 F   0  0  0  0  0  0  0  0  0  0  0  0
    1.5350   11.3040   -9.4790 F   0  0  0  0  0  0  0  0  0  0  0  0
   -2.4580    8.8610   -6.5160 C   0  0  0  0  0  0  0  0  0  0  0  0
  1  2  1  0
  2  3  1  0
  2  4  1  0
  4  5  1  0
  6  5  1  6
  6  7  1  0
  6  8  1  0
  6  9  1  0
  7 10  1  1
  7 11  1  0
  8 12  1  0
  8 13  1  0
  9 14  1  0
  9 15  1  0
 13 16  1  1
 12 17  1  0
 13 18  1  0
 12 19  1  6
 14 20  1  0
 15 21  1  0
 20 21  1  0
 15 22  1  6
 20 23  1  6
 17 24  1  0
 18 24  1  0
 17 25  1  6
 19 26  1  0
 25 26  1  0
 21 27  1  6
 22 28  1  0
 24 29  1  1
 23 30  1  0
 23 31  1  0
 23 32  1  0
 27 33  1  0
 28 33  1  0
M  CHG  1  10  -1
M  END
