ucsf224-ucsf124
     RDKit          3D

 23 25  0  0  0  0  0  0  0  0999 V2000
   -1.0700   18.2160   -5.0710 Cl  0  0  0  0  0  0  0  0  0  0  0  0
   -0.3380   16.5800   -5.0970 C   0  0  2  0  0  0  0  0  0  0  0  0
   -1.3770   15.4410   -5.0140 C   0  0  2  0  0  0  0  0  0  0  0  0
    0.7700   16.3910   -4.0490 C   0  0  0  0  0  0  0  0  0  0  0  0
   -3.0950   15.8960   -4.8510 Cl  0  0  0  0  0  0  0  0  0  0  0  0
   -0.9970   14.4590   -3.9600 C   0  0  0  0  0  0  0  0  0  0  0  0
    1.3590   14.9460   -3.9940 C   0  0  0  0  0  0  0  0  0  0  0  0
    0.3260   13.8610   -4.4180 C   0  0  1  0  0  0  0  0  0  0  0  0
    0.3360   12.3550   -3.9210 C   0  0  2  0  0  0  0  0  0  0  0  0
    1.0750   11.9770   -2.5630 C   0  0  2  0  0  0  0  0  0  0  0  0
    0.2250   11.3110   -5.0300 N   0  0  0  0  0  0  0  0  0  0  0  0
    0.6310   10.8040   -2.0990 O   0  0  0  0  0  0  0  0  0  0  0  0
    0.6320   12.7580   -1.4650 O   0  0  0  0  0  0  0  0  0  0  0  0
   -1.1520   10.8780   -5.1660 C   0  0  1  0  0  0  0  0  0  0  0  0
    0.7590   11.5180   -6.3960 C   0  0  2  0  0  0  0  0  0  0  0  0
   -1.9700   12.0190   -5.0890 O   0  0  0  0  0  0  0  0  0  0  0  0
    0.5650   12.8690   -6.6710 O   0  0  0  0  0  0  0  0  0  0  0  0
   -1.3590   10.3170   -6.5530 C   0  0  1  0  0  0  0  0  0  0  0  0
   -0.0870   10.6410   -7.3410 C   0  0  2  0  0  0  0  0  0  0  0  0
   -1.7460    8.8480   -6.5820 C   0  0  0  0  0  0  0  0  0  0  0  0
    0.4650    9.3620   -7.9760 C   0  0  0  0  0  0  0  0  0  0  0  0
   -1.8930    8.3890   -8.0300 C   0  0  0  0  0  0  0  0  0  0  0  0
   -0.6270    8.6960   -8.8340 C   0  0  0  0  0  0  0  0  0  0  0  0
  2  1  1  1
  2  3  1  0
  2  4  1  0
  3  5  1  1
  3  6  1  0
  4  7  1  0
  8  6  1  1
  7  8  1  0
  8  9  1  0
  9 10  1  0
  9 11  1  6
 10 12  1  1
 10 13  1  0
 11 14  1  0
 11 15  1  0
 14 16  1  6
 15 17  1  6
 14 18  1  0
 15 19  1  0
 18 19  1  0
 18 20  1  1
 19 21  1  1
 20 22  1  0
 21 23  1  0
 22 23  1  0
M  CHG  1  12  -1
M  END
