ucsf320-ucsf493
     RDKit          3D

 25 27  0  0  0  0  0  0  0  0999 V2000
   -1.0170   14.6650   -1.6440 O   0  0  0  0  0  0  0  0  0  0  0  0
   -1.9690   15.0280   -2.4830 C   0  0  1  0  0  0  0  0  0  0  0  0
   -1.9920   14.1760   -3.6460 O   0  0  0  0  0  0  0  0  0  0  0  0
   -3.3420   14.7270   -1.8220 C   0  0  1  0  0  0  0  0  0  0  0  0
   -3.4890   15.3300   -0.4140 C   0  0  0  0  0  0  0  0  0  0  0  0
   -4.4850   15.0710   -2.7560 C   0  0  0  0  0  0  0  0  0  0  0  0
   -1.5910   14.7270   -4.8960 C   0  0  1  0  0  0  0  0  0  0  0  0
   -4.8720   15.0930    0.1910 C   0  0  0  0  0  0  0  0  0  0  0  0
   -5.8620   14.8610   -2.1470 C   0  0  0  0  0  0  0  0  0  0  0  0
   -2.4070   15.9700   -5.3700 C   0  0  1  0  0  0  0  0  0  0  0  0
   -0.0750   14.8270   -4.9520 C   0  0  1  0  0  0  0  0  0  0  0  0
   -3.7480   16.0240   -4.9460 O   0  0  0  0  0  0  0  0  0  0  0  0
   -6.0060   15.4630   -0.7580 C   0  0  1  0  0  0  0  0  0  0  0  0
    0.3970   16.2260   -4.6180 C   0  0  2  0  0  0  0  0  0  0  0  0
   -1.7520   17.3480   -5.0880 C   0  0  0  0  0  0  0  0  0  0  0  0
    0.8120   14.0770   -3.9340 C   0  0  1  0  0  0  0  0  0  0  0  0
   -7.2680   15.0660   -0.2080 O   0  0  0  0  0  0  0  0  0  0  0  0
   -4.5760   15.1900   -5.7530 C   0  0  0  0  0  0  0  0  0  0  0  0
    0.9300   12.5340   -4.0000 C   0  0  0  0  0  0  0  0  0  0  0  0
   -0.2540   17.3780   -5.3630 C   0  0  0  0  0  0  0  0  0  0  0  0
    1.7960   16.0480   -4.8620 N   0  0  0  0  0  0  0  0  0  0  0  0
    2.1280   14.7930   -4.1440 C   0  0  0  0  0  0  0  0  0  0  0  0
    0.3350   11.7590   -2.7960 C   0  0  1  0  0  0  0  0  0  0  0  0
    0.6760   10.3960   -2.6620 O   0  0  0  0  0  0  0  0  0  0  0  0
    0.6680   12.2450   -1.6090 O   0  0  0  0  0  0  0  0  0  0  0  0
  2  1  1  1
  2  3  1  0
  2  4  1  0
  4  5  1  1
  4  6  1  0
  7  3  1  1
  5  8  1  0
  6  9  1  0
  7 10  1  0
  7 11  1  0
 10 12  1  1
  8 13  1  0
  9 13  1  0
 11 14  1  0
 10 15  1  0
 11 16  1  1
 13 17  1  1
 12 18  1  0
 16 19  1  6
 14 20  1  6
 15 20  1  0
 14 21  1  0
 16 22  1  0
 21 22  1  0
 19 23  1  0
 23 24  1  1
 23 25  1  0
M  CHG  2   1  -1  25  -1
M  END
