ucsf017-ucsf241
     RDKit          3D

 18 21  0  0  0  0  0  0  0  0999 V2000
   -1.6000   13.2380   -5.6770 C   0  0  0  0  0  0  0  0  0  0  0  0
   -2.3470   14.4190   -5.3770 O   0  0  0  0  0  0  0  0  0  0  0  0
   -2.2430   14.6070   -3.9640 C   0  0  0  0  0  0  0  0  0  0  0  0
   -0.4500   13.1840   -4.6900 C   0  0  1  0  0  0  0  0  0  0  0  0
   -0.8240   14.1740   -3.5730 C   0  0  2  0  0  0  0  0  0  0  0  0
   -0.1840   11.7750   -4.1920 C   0  0  0  0  0  0  0  0  0  0  0  0
    0.7910   11.7580   -3.0250 C   0  0  0  0  0  0  0  0  0  0  0  0
   -0.6410   13.5970   -2.2190 N   0  0  0  0  0  0  0  0  0  0  0  0
    0.6500   12.9450   -2.0800 C   0  0  0  0  0  0  0  0  0  0  0  0
   -1.0260   14.4680   -1.1130 C   0  0  2  0  0  0  0  0  0  0  0  0
   -0.0770   14.0610   -0.0740 N   0  0  0  0  0  0  0  0  0  0  0  0
   -2.4540   14.4340   -0.5710 C   0  0  1  0  0  0  0  0  0  0  0  0
   -0.2100   14.7500    1.1840 C   0  0  0  0  0  0  0  0  0  0  0  0
   -2.4360   15.3110    0.6430 C   0  0  2  0  0  0  0  0  0  0  0  0
   -3.6070   15.0730   -1.3250 C   0  0  0  0  0  0  0  0  0  0  0  0
   -1.5790   14.7740    1.6350 N   0  0  0  0  0  0  0  0  0  0  0  0
   -3.8170   15.3040    1.0550 N   0  0  0  0  0  0  0  0  0  0  0  0
   -4.5860   15.4060   -0.1910 C   0  0  0  0  0  0  0  0  0  0  0  0
  1  2  1  0
  2  3  1  0
  4  1  1  6
  5  3  1  6
  4  5  1  0
  4  6  1  0
  6  7  1  0
  5  8  1  0
  7  9  1  0
  8  9  1  0
 10  8  1  6
 10 11  1  0
 10 12  1  0
 11 13  1  0
 12 14  1  0
 12 15  1  6
 13 16  1  0
 14 16  1  1
 14 17  1  0
 15 18  1  0
 17 18  1  0
M  END
