ucsf013-ucsf172
     RDKit          3D

 18 19  0  0  0  0  0  0  0  0999 V2000
   -5.6350   15.1200    1.9000 N   0  0  0  0  0  0  0  0  0  0  0  0
   -7.2140   14.6160    1.9950 S   0  0  0  0  0  0  0  0  0  0  0  0
   -8.2220   15.2740    3.2570 C   0  0  0  0  0  0  0  0  0  0  0  0
   -4.7780   14.4050    1.0220 C   0  0  2  0  0  0  0  0  0  0  0  0
   -7.1670   13.0600    2.3450 O   0  0  0  0  0  0  0  0  0  0  0  0
   -8.0940   14.8150    0.6600 O   0  0  0  0  0  0  0  0  0  0  0  0
   -4.4430   15.2210   -0.2290 C   0  0  2  0  0  0  0  0  0  0  0  0
   -5.5160   13.2100    0.7250 N   0  0  0  0  0  0  0  0  0  0  0  0
   -5.7000   15.4320   -1.1080 C   0  0  2  0  0  0  0  0  0  0  0  0
   -6.6450   13.4560   -0.1550 C   0  0  0  0  0  0  0  0  0  0  0  0
   -3.1350   14.6410   -0.8340 C   0  0  0  0  0  0  0  0  0  0  0  0
   -6.8730   14.8540   -0.4710 N   0  0  0  0  0  0  0  0  0  0  0  0
   -5.5340   14.9670   -2.5370 C   0  0  0  0  0  0  0  0  0  0  0  0
   -3.1590   14.2560   -2.3300 C   0  0  2  0  0  0  0  0  0  0  0  0
   -1.7470   14.0390   -2.9870 C   0  0  2  0  0  0  0  0  0  0  0  0
   -4.1390   15.1640   -3.0530 C   0  0  0  0  0  0  0  0  0  0  0  0
   -0.6410   14.5170   -2.2580 O   0  0  0  0  0  0  0  0  0  0  0  0
   -1.6580   14.7360   -4.0960 O   0  0  0  0  0  0  0  0  0  0  0  0
  1  2  1  0
  2  3  1  0
  4  1  1  1
  2  5  1  0
  2  6  1  0
  4  7  1  0
  4  8  1  0
  7  9  1  0
  8 10  1  0
  7 11  1  6
  9 12  1  0
 10 12  1  0
  9 13  1  6
 14 11  1  1
 14 15  1  0
 13 16  1  0
 14 16  1  0
 15 17  1  1
 15 18  1  0
M  CHG  1  18  -1
M  END
