ucsf260-ucsf345
     RDKit          3D

 26 28  0  0  0  0  0  0  0  0999 V2000
    0.8490   11.0620   -2.7720 O   0  0  0  0  0  0  0  0  0  0  0  0
    0.7860   12.3780   -2.9060 C   0  0  1  0  0  0  0  0  0  0  0  0
    1.5020   12.9810   -1.8270 O   0  0  0  0  0  0  0  0  0  0  0  0
    1.5150   12.8460   -4.1950 C   0  0  0  0  0  0  0  0  0  0  0  0
    0.6100   12.9380   -5.4310 C   0  0  0  0  0  0  0  0  0  0  0  0
    1.0890   14.3250   -1.5870 C   0  0  0  0  0  0  0  0  0  0  0  0
   -0.3540   14.3290   -1.0850 C   0  0  0  0  0  0  0  0  0  0  0  0
   -0.2410   11.7590   -5.6090 N   0  0  0  0  0  0  0  0  0  0  0  0
   -1.4890   14.4420   -2.1350 C   0  0  0  0  0  0  0  0  0  0  0  0
   -1.5560   11.8690   -5.0260 C   0  0  0  0  0  0  0  0  0  0  0  0
   -0.4920   11.3360   -6.9770 C   0  0  2  0  0  0  0  0  0  0  0  0
   -2.1910   10.6040   -5.4060 N   0  0  0  0  0  0  0  0  0  0  0  0
   -1.5850   10.2770   -6.7240 C   0  0  2  0  0  0  0  0  0  0  0  0
    0.7400   10.8850   -7.8060 C   0  0  0  0  0  0  0  0  0  0  0  0
   -2.9410   14.4500   -1.6090 C   0  0  2  0  0  0  0  0  0  0  0  0
   -1.1200    8.8350   -6.7620 C   0  0  0  0  0  0  0  0  0  0  0  0
    0.8180    9.4160   -8.2360 C   0  0  0  0  0  0  0  0  0  0  0  0
   -4.0080   15.0650   -2.5500 C   0  0  0  0  0  0  0  0  0  0  0  0
   -2.9520   14.9520   -0.2190 N   0  0  0  0  0  0  0  0  0  0  0  0
   -0.4510    8.5960   -8.0980 C   0  0  0  0  0  0  0  0  0  0  0  0
   -5.4020   14.8980   -2.0590 N   0  0  0  0  0  0  0  0  0  0  0  0
   -4.3160   15.2750    0.2260 C   0  0  0  0  0  0  0  0  0  0  0  0
   -5.4070   14.5660   -0.6030 C   0  0  1  0  0  0  0  0  0  0  0  0
   -6.8270   14.8060   -0.0150 C   0  0  2  0  0  0  0  0  0  0  0  0
   -6.9000   14.7270    1.4360 N   0  0  0  0  0  0  0  0  0  0  0  0
   -7.7470   13.8560   -0.5090 O   0  0  0  0  0  0  0  0  0  0  0  0
  2  1  1  1
  2  3  1  0
  2  4  1  0
  4  5  1  0
  3  6  1  0
  6  7  1  0
  5  8  1  0
  7  9  1  0
  8 10  1  0
  8 11  1  0
 10 12  1  0
 11 13  1  0
 12 13  1  0
 11 14  1  1
 15  9  1  6
 13 16  1  1
 14 17  1  0
 15 18  1  0
 15 19  1  0
 16 20  1  0
 17 20  1  0
 18 21  1  0
 19 22  1  0
 21 23  1  0
 23 22  1  1
 23 24  1  0
 24 25  1  1
 24 26  1  0
M  CHG  1   1  -1
M  END
