ucsf520-ucsf006
     RDKit          3D

 22 24  0  0  0  0  0  0  0  0999 V2000
   -4.4800   15.4740    1.3460 N   0  0  0  0  0  0  0  0  0  0  0  0
   -3.6870   14.8460    0.2990 C   0  0  2  0  0  0  0  0  0  0  0  0
   -2.2060   15.2070    0.3880 C   0  0  2  0  0  0  0  0  0  0  0  0
   -4.2270   15.3130   -0.9560 N   0  0  0  0  0  0  0  0  0  0  0  0
   -3.4450   14.8660   -2.1140 C   0  0  0  0  0  0  0  0  0  0  0  0
   -1.5250   14.5540   -0.8030 C   0  0  1  0  0  0  0  0  0  0  0  0
   -1.4360   14.7640    1.5500 N   0  0  0  0  0  0  0  0  0  0  0  0
   -2.0240   15.2420   -1.9750 N   0  0  0  0  0  0  0  0  0  0  0  0
   -0.1450   14.7900   -0.4290 N   0  0  0  0  0  0  0  0  0  0  0  0
   -0.1060   14.5480    0.9990 C   0  0  0  0  0  0  0  0  0  0  0  0
   -1.2520   15.1350   -3.2670 C   0  0  2  0  0  0  0  0  0  0  0  0
   -2.2220   14.5700   -4.3310 C   0  0  0  0  0  0  0  0  0  0  0  0
   -0.0020   14.1940   -3.2280 C   0  0  0  0  0  0  0  0  0  0  0  0
   -0.6490   16.4950   -3.7680 C   0  0  2  0  0  0  0  0  0  0  0  0
    0.7770   14.1200   -4.5650 C   0  0  0  0  0  0  0  0  0  0  0  0
   -1.6110   17.4010   -4.3860 O   0  0  0  0  0  0  0  0  0  0  0  0
    0.4970   16.3510   -4.7750 C   0  0  0  0  0  0  0  0  0  0  0  0
    1.1710   12.7030   -4.9710 C   0  0  2  0  0  0  0  0  0  0  0  0
    0.5150   17.6880   -5.4380 C   0  0  0  0  0  0  0  0  0  0  0  0
   -0.9560   18.0300   -5.4940 C   0  0  0  0  0  0  0  0  0  0  0  0
    0.0180   12.0070   -5.4040 O   0  0  0  0  0  0  0  0  0  0  0  0
    1.5470   12.0460   -3.9020 O   0  0  0  0  0  0  0  0  0  0  0  0
  2  1  1  1
  2  3  1  0
  2  4  1  0
  4  5  1  0
  3  6  1  0
  3  7  1  1
  5  8  1  0
  6  8  1  0
  6  9  1  1
  7 10  1  0
  9 10  1  0
  8 11  1  0
 11 12  1  6
 11 13  1  0
 11 14  1  0
 13 15  1  0
 14 16  1  0
 14 17  1  6
 15 18  1  0
 17 19  1  0
 16 20  1  0
 19 20  1  0
 18 21  1  1
 18 22  1  0
M  CHG  1  22  -1
M  END
