ucsf004-ucsf243
     RDKit          3D

 26 29  0  0  0  0  0  0  0  0999 V2000
   -2.2190   11.5390   -4.6500 F   0  0  0  0  0  0  0  0  0  0  0  0
   -1.2200   11.9850   -3.8310 C   0  0  1  0  0  0  0  0  0  0  0  0
   -0.3620   12.9370   -4.6300 C   0  0  0  0  0  0  0  0  0  0  0  0
   -1.8560   12.6460   -2.5880 C   0  0  0  0  0  0  0  0  0  0  0  0
   -1.0040   13.6140   -1.8220 N   0  0  0  0  0  0  0  0  0  0  0  0
    0.6980   13.5670   -3.7320 C   0  0  0  0  0  0  0  0  0  0  0  0
    0.4200   13.4410   -2.2130 C   0  0  0  0  0  0  0  0  0  0  0  0
   -1.1340   13.4500   -0.3470 C   0  0  1  0  0  0  0  0  0  0  0  0
    0.0270   13.9820    0.2950 N   0  0  0  0  0  0  0  0  0  0  0  0
   -2.3780   13.8570    0.5010 C   0  0  1  0  0  0  0  0  0  0  0  0
    0.0830   15.4000    0.2710 C   0  0  0  0  0  0  0  0  0  0  0  0
   -2.3520   15.2810    0.9250 C   0  0  1  0  0  0  0  0  0  0  0  0
   -3.8300   13.6030    0.1370 C   0  0  0  0  0  0  0  0  0  0  0  0
   -1.1600   16.0560    0.6580 N   0  0  0  0  0  0  0  0  0  0  0  0
   -3.4610   15.9230    0.2400 N   0  0  0  0  0  0  0  0  0  0  0  0
   -4.0720   14.8830   -0.6140 C   0  0  1  0  0  0  0  0  0  0  0  0
   -3.4330   14.7850   -1.9810 C   0  0  2  0  0  0  0  0  0  0  0  0
   -2.2120   15.6590   -2.0720 C   0  0  0  0  0  0  0  0  0  0  0  0
   -4.3630   15.0050   -3.1700 C   0  0  0  0  0  0  0  0  0  0  0  0
   -1.4400   15.3920   -3.3680 C   0  0  2  0  0  0  0  0  0  0  0  0
   -3.6650   15.1620   -4.5490 C   0  0  0  0  0  0  0  0  0  0  0  0
   -0.0420   16.0600   -3.2820 C   0  0  1  0  0  0  0  0  0  0  0  0
   -2.2770   15.8270   -4.5700 C   0  0  1  0  0  0  0  0  0  0  0  0
   -2.3770   17.2720   -4.6390 O   0  0  0  0  0  0  0  0  0  0  0  0
    0.1040   16.9800   -4.3430 O   0  0  0  0  0  0  0  0  0  0  0  0
   -0.0060   16.8330   -2.2350 O   0  0  0  0  0  0  0  0  0  0  0  0
  2  1  1  6
  2  3  1  0
  2  4  1  0
  4  5  1  0
  3  6  1  0
  5  7  1  0
  6  7  1  0
  8  5  1  6
  8  9  1  0
  8 10  1  0
  9 11  1  0
 10 12  1  0
 10 13  1  6
 11 14  1  0
 12 14  1  6
 12 15  1  0
 16 13  1  1
 15 16  1  0
 16 17  1  0
 17 18  1  1
 17 19  1  0
 20 18  1  1
 19 21  1  0
 20 22  1  0
 20 23  1  0
 21 23  1  0
 23 24  1  1
 22 25  1  6
 22 26  1  0
M  CHG  1  26  -1
M  END
