ucsf320-ucsf424
     RDKit          3D

 25 27  0  0  0  0  0  0  0  0999 V2000
   -0.8650   14.7940   -1.6560 O   0  0  0  0  0  0  0  0  0  0  0  0
   -1.8190   15.1010   -2.5110 C   0  0  1  0  0  0  0  0  0  0  0  0
   -1.6390   14.3550   -3.7390 O   0  0  0  0  0  0  0  0  0  0  0  0
   -3.1850   14.6430   -1.8890 C   0  0  1  0  0  0  0  0  0  0  0  0
   -0.5410   14.7900   -4.5630 C   0  0  0  0  0  0  0  0  0  0  0  0
   -3.3610   15.2000   -0.4630 C   0  0  0  0  0  0  0  0  0  0  0  0
   -4.3710   14.9930   -2.8130 C   0  0  0  0  0  0  0  0  0  0  0  0
    0.7860   14.0810   -4.2380 C   0  0  0  0  0  0  0  0  0  0  0  0
   -4.7620   14.9660    0.1010 C   0  0  0  0  0  0  0  0  0  0  0  0
   -5.7740   14.8760   -2.2170 C   0  0  0  0  0  0  0  0  0  0  0  0
    0.9160   12.5280   -4.5230 C   0  0  1  0  0  0  0  0  0  0  0  0
   -5.8820   15.4430   -0.8180 C   0  0  1  0  0  0  0  0  0  0  0  0
   -7.1420   15.0620   -0.2500 O   0  0  0  0  0  0  0  0  0  0  0  0
    0.4130   11.6380   -3.3090 C   0  0  1  0  0  0  0  0  0  0  0  0
    0.3080   12.1510   -5.9220 C   0  0  1  0  0  0  0  0  0  0  0  0
    1.0090   11.9740   -2.1790 O   0  0  0  0  0  0  0  0  0  0  0  0
   -0.9390   11.8850   -3.0140 O   0  0  0  0  0  0  0  0  0  0  0  0
    1.3580   11.7130   -6.8650 N   0  0  0  0  0  0  0  0  0  0  0  0
   -0.8660   11.1500   -6.1510 C   0  0  1  0  0  0  0  0  0  0  0  0
    0.9330   10.4970   -7.5310 O   0  0  0  0  0  0  0  0  0  0  0  0
   -0.4820   10.4750   -7.4660 C   0  0  1  0  0  0  0  0  0  0  0  0
   -1.2740   10.1070   -5.0940 C   0  0  0  0  0  0  0  0  0  0  0  0
   -0.9640    9.0350   -7.6170 C   0  0  0  0  0  0  0  0  0  0  0  0
   -2.4330    9.2130   -5.5350 C   0  0  0  0  0  0  0  0  0  0  0  0
   -2.3360    8.7920   -6.9990 C   0  0  0  0  0  0  0  0  0  0  0  0
  2  1  1  1
  2  3  1  0
  2  4  1  0
  3  5  1  0
  4  6  1  1
  4  7  1  0
  5  8  1  0
  6  9  1  0
  7 10  1  0
 11  8  1  1
  9 12  1  0
 10 12  1  0
 12 13  1  1
 11 14  1  0
 11 15  1  0
 14 16  1  1
 14 17  1  0
 15 18  1  6
 15 19  1  0
 18 20  1  0
 19 21  1  0
 20 21  1  0
 19 22  1  1
 21 23  1  1
 22 24  1  0
 23 25  1  0
 24 25  1  0
M  CHG  2   1  -1  16  -1
M  END
