ucsf392-ucsf135
     RDKit          3D

 23 25  0  0  0  0  0  0  0  0999 V2000
   -4.7910   15.6190   -1.0000 C   0  0  0  0  0  0  0  0  0  0  0  0
   -3.7320   14.6360   -0.5070 C   0  0  1  0  0  0  0  0  0  0  0  0
   -2.5140   14.4070   -1.4310 C   0  0  1  0  0  0  0  0  0  0  0  0
   -3.3460   14.8280    0.9660 C   0  0  2  0  0  0  0  0  0  0  0  0
   -4.3290   15.5020    1.7760 N   0  0  0  0  0  0  0  0  0  0  0  0
   -2.7230   14.5400   -2.9590 C   0  0  0  0  0  0  0  0  0  0  0  0
   -2.1870   15.6390    1.1590 N   0  0  0  0  0  0  0  0  0  0  0  0
   -1.3570   15.2340   -1.0410 N   0  0  0  0  0  0  0  0  0  0  0  0
   -1.6950   13.7950   -3.8250 C   0  0  0  0  0  0  0  0  0  0  0  0
   -1.0280   15.3640    0.3640 C   0  0  2  0  0  0  0  0  0  0  0  0
   -0.1620   14.2500    0.9420 C   0  0  0  0  0  0  0  0  0  0  0  0
   -1.8890   12.3760   -3.8120 O   0  0  0  0  0  0  0  0  0  0  0  0
   -0.7750   11.3860   -4.4040 S   0  0  2  0  0  0  0  0  0  0  0  0
   -0.3950   10.2600   -3.3420 O   0  0  0  0  0  0  0  0  0  0  0  0
    0.5480   12.0610   -5.1250 N   0  0  0  0  0  0  0  0  0  0  0  0
   -1.5470   10.5770   -5.8020 C   0  0  1  0  0  0  0  0  0  0  0  0
    0.4920   11.7830   -6.5530 C   0  0  2  0  0  0  0  0  0  0  0  0
   -0.3230   10.4600   -6.7250 C   0  0  2  0  0  0  0  0  0  0  0  0
   -2.1660    9.2160   -5.5890 C   0  0  0  0  0  0  0  0  0  0  0  0
    1.7800   11.7100   -7.0600 O   0  0  0  0  0  0  0  0  0  0  0  0
   -1.9740    8.3170   -6.8230 C   0  0  0  0  0  0  0  0  0  0  0  0
   -0.6950   10.0960   -8.1620 C   0  0  0  0  0  0  0  0  0  0  0  0
   -1.8110    9.0540   -8.1660 C   0  0  0  0  0  0  0  0  0  0  0  0
  2  1  1  6
  2  3  1  0
  2  4  1  0
  4  5  1  1
  3  6  1  6
  4  7  1  0
  3  8  1  0
  6  9  1  0
  7 10  1  0
  8 10  1  0
 10 11  1  1
  9 12  1  0
 13 12  1  0
 13 14  1  1
 13 15  1  0
 13 16  1  0
 15 17  1  0
 16 18  1  0
 17 18  1  0
 16 19  1  1
 17 20  1  1
 19 21  1  0
 18 22  1  6
 21 23  1  0
 22 23  1  0
M  END
