ucsf387-ucsf403
     RDKit          3D

 22 23  0  0  0  0  0  0  0  0999 V2000
    0.9760   18.0380   -5.1650 Cl  0  0  0  0  0  0  0  0  0  0  0  0
    0.1180   16.6560   -4.4310 C   0  0  1  0  0  0  0  0  0  0  0  0
   -1.3110   16.7310   -5.0120 C   0  0  0  0  0  0  0  0  0  0  0  0
    0.8870   15.2870   -4.5910 C   0  0  0  0  0  0  0  0  0  0  0  0
   -0.0600   14.0530   -4.7690 C   0  0  0  0  0  0  0  0  0  0  0  0
   -1.9960   15.3790   -5.0650 C   0  0  2  0  0  0  0  0  0  0  0  0
   -3.7260   15.3860   -4.7570 Cl  0  0  0  0  0  0  0  0  0  0  0  0
    0.2110   12.6310   -4.1870 C   0  0  2  0  0  0  0  0  0  0  0  0
   -1.3360   14.4830   -4.1040 C   0  0  0  0  0  0  0  0  0  0  0  0
    0.8770   12.6110   -2.7780 C   0  0  1  0  0  0  0  0  0  0  0  0
    0.5190   11.6030   -5.2080 O   0  0  0  0  0  0  0  0  0  0  0  0
    0.3540   11.4950   -2.0410 O   0  0  0  0  0  0  0  0  0  0  0  0
    2.2790   12.5290   -2.7920 O   0  0  0  0  0  0  0  0  0  0  0  0
   -0.5170   10.5560   -5.2820 C   0  0  1  0  0  0  0  0  0  0  0  0
    0.6630   10.3260   -2.8670 O   0  0  0  0  0  0  0  0  0  0  0  0
   -1.9240   11.1330   -4.9740 C   0  0  1  0  0  0  0  0  0  0  0  0
   -0.4450    9.5040   -6.4790 C   0  0  2  0  0  0  0  0  0  0  0  0
    0.5930    9.9710   -7.8580 Cl  0  0  0  0  0  0  0  0  0  0  0  0
   -2.3030   12.6590   -5.8310 Cl  0  0  0  0  0  0  0  0  0  0  0  0
   -3.0320   10.1290   -5.2170 C   0  0  0  0  0  0  0  0  0  0  0  0
   -1.7290    8.8430   -6.9780 C   0  0  0  0  0  0  0  0  0  0  0  0
   -3.0070    9.6050   -6.6410 C   0  0  0  0  0  0  0  0  0  0  0  0
  2  1  1  6
  2  3  1  0
  2  4  1  0
  4  5  1  0
  3  6  1  0
  6  7  1  1
  5  8  1  0
  5  9  1  0
  6  9  1  0
  8 10  1  0
  8 11  1  6
 10 12  1  0
 10 13  1  6
 14 11  1  6
 12 15  1  0
 14 16  1  0
 14 17  1  0
 17 18  1  6
 16 19  1  6
 16 20  1  0
 17 21  1  0
 20 22  1  0
 21 22  1  0
M  END
