ucsf169-ucsf190
     RDKit          3D

 16 17  0  0  0  0  0  0  0  0999 V2000
    1.1040   18.3170   -5.7320 C   0  0  0  0  0  0  0  0  0  0  0  0
   -0.0120   17.4570   -5.8290 O   0  0  0  0  0  0  0  0  0  0  0  0
   -0.4190   16.9310   -4.5690 C   0  0  1  0  0  0  0  0  0  0  0  0
   -1.9030   16.5330   -4.6400 C   0  0  1  0  0  0  0  0  0  0  0  0
    0.4900   15.8650   -3.9890 C   0  0  1  0  0  0  0  0  0  0  0  0
   -2.5960   17.6220   -5.2040 O   0  0  0  0  0  0  0  0  0  0  0  0
   -2.2260   15.1880   -5.2670 C   0  0  0  0  0  0  0  0  0  0  0  0
   -0.0660   14.4360   -4.0320 C   0  0  1  0  0  0  0  0  0  0  0  0
    1.7600   15.7890   -4.6820 N   0  0  0  0  0  0  0  0  0  0  0  0
   -1.0690   14.1790   -5.1760 C   0  0  0  0  0  0  0  0  0  0  0  0
    1.2130   13.5740   -4.1910 C   0  0  1  0  0  0  0  0  0  0  0  0
    2.3170   14.5360   -4.2450 N   0  0  0  0  0  0  0  0  0  0  0  0
    1.4380   12.6090   -3.0020 C   0  0  0  0  0  0  0  0  0  0  0  0
    0.1760   11.9720   -2.4010 C   0  0  2  0  0  0  0  0  0  0  0  0
    0.0710   12.5200   -1.1080 O   0  0  0  0  0  0  0  0  0  0  0  0
    0.3600   10.6870   -2.1370 O   0  0  0  0  0  0  0  0  0  0  0  0
  1  2  1  0
  3  2  1  6
  3  4  1  0
  3  5  1  0
  4  6  1  6
  4  7  1  0
  5  8  1  0
  5  9  1  6
  7 10  1  0
  8 10  1  6
  8 11  1  0
  9 12  1  0
 11 12  1  0
 11 13  1  1
 13 14  1  0
 14 15  1  1
 14 16  1  0
M  CHG  1  16  -1
M  END
