ucsf378-ucsf264
     RDKit          3D

 26 28  0  0  0  0  0  0  0  0999 V2000
   -2.3930   14.7480   -3.0780 Cl  0  0  0  0  0  0  0  0  0  0  0  0
   -1.0690   14.7570   -4.2760 C   0  0  2  0  0  0  0  0  0  0  0  0
    0.1650   13.8890   -3.9750 C   0  0  0  0  0  0  0  0  0  0  0  0
   -0.6800   16.1980   -4.6710 C   0  0  0  0  0  0  0  0  0  0  0  0
    0.0020   12.3810   -3.9040 C   0  0  2  0  0  0  0  0  0  0  0  0
    1.3280   14.4700   -3.2360 C   0  0  1  0  0  0  0  0  0  0  0  0
    0.6650   16.7300   -4.1630 C   0  0  0  0  0  0  0  0  0  0  0  0
    2.7550   13.3490   -3.3000 Cl  0  0  0  0  0  0  0  0  0  0  0  0
    0.6720   11.6060   -2.6980 C   0  0  1  0  0  0  0  0  0  0  0  0
    0.8160   12.2640   -5.1930 C   0  0  0  0  0  0  0  0  0  0  0  0
    1.7310   15.6640   -4.0330 C   0  0  0  0  0  0  0  0  0  0  0  0
    0.4280   12.1770   -1.5290 O   0  0  0  0  0  0  0  0  0  0  0  0
    0.1480   10.3020   -2.5200 O   0  0  0  0  0  0  0  0  0  0  0  0
    0.5180   11.1780   -6.0720 N   0  0  0  0  0  0  0  0  0  0  0  0
    1.3150   11.3020   -7.2750 N   0  0  0  0  0  0  0  0  0  0  0  0
   -0.8220   10.9620   -6.5350 C   0  0  1  0  0  0  0  0  0  0  0  0
    0.9110   10.0920   -7.9980 C   0  0  1  0  0  0  0  0  0  0  0  0
   -0.4380    9.7410   -7.3500 C   0  0  2  0  0  0  0  0  0  0  0  0
   -1.8800   10.6180   -5.4840 C   0  0  0  0  0  0  0  0  0  0  0  0
    1.0420   10.1000   -9.5210 C   0  0  0  0  0  0  0  0  0  0  0  0
   -1.6250    9.2260   -8.1160 C   0  0  0  0  0  0  0  0  0  0  0  0
   -3.0180    9.7450   -6.0540 C   0  0  0  0  0  0  0  0  0  0  0  0
    1.7630    9.0400   -9.9270 F   0  0  0  0  0  0  0  0  0  0  0  0
   -0.1510   10.0690  -10.1420 F   0  0  0  0  0  0  0  0  0  0  0  0
    1.6610   11.2020   -9.9790 F   0  0  0  0  0  0  0  0  0  0  0  0
   -2.5780    8.6730   -7.0590 C   0  0  0  0  0  0  0  0  0  0  0  0
  2  1  1  1
  2  3  1  0
  2  4  1  0
  3  5  1  0
  3  6  1  0
  4  7  1  0
  6  8  1  6
  5  9  1  0
  5 10  1  6
  6 11  1  0
  7 11  1  0
  9 12  1  1
  9 13  1  0
 10 14  1  0
 14 15  1  0
 14 16  1  0
 15 17  1  0
 16 18  1  0
 17 18  1  0
 16 19  1  1
 17 20  1  6
 18 21  1  6
 19 22  1  0
 20 23  1  0
 20 24  1  0
 20 25  1  0
 21 26  1  0
 22 26  1  0
M  CHG  1  12  -1
M  END
