ucsf523-ucsf258
     RDKit          3D

 16 17  0  0  0  0  0  0  0  0999 V2000
    0.4170   14.9420    0.9300 N   0  0  0  0  0  0  0  0  0  0  0  0
   -0.5930   14.0650    0.4220 C   0  0  1  0  0  0  0  0  0  0  0  0
   -1.6870   14.3780    1.2810 N   0  0  0  0  0  0  0  0  0  0  0  0
   -0.7530   14.3870   -1.0050 N   0  0  0  0  0  0  0  0  0  0  0  0
   -1.3150   13.3000   -1.8440 O   0  0  0  0  0  0  0  0  0  0  0  0
   -1.5810   15.5750   -1.2990 C   0  0  1  0  0  0  0  0  0  0  0  0
   -2.9210   14.3210    0.5850 C   0  0  2  0  0  0  0  0  0  0  0  0
   -0.5270   15.5900   -2.3820 N   0  0  0  0  0  0  0  0  0  0  0  0
   -2.7970   14.6120   -0.9590 C   0  0  1  0  0  0  0  0  0  0  0  0
   -3.8420   15.1530    1.3550 N   0  0  0  0  0  0  0  0  0  0  0  0
    0.6900   15.0090   -1.8840 O   0  0  0  0  0  0  0  0  0  0  0  0
   -0.8630   14.6090   -3.3970 O   0  0  0  0  0  0  0  0  0  0  0  0
   -5.0810   15.3160    0.6490 C   0  0  2  0  0  0  0  0  0  0  0  0
   -4.0860   15.0920   -1.5760 N   0  0  0  0  0  0  0  0  0  0  0  0
   -6.1250   14.9180    1.5200 O   0  0  0  0  0  0  0  0  0  0  0  0
   -5.1910   14.6500   -0.7290 C   0  0  0  0  0  0  0  0  0  0  0  0
  2  1  1  1
  2  3  1  0
  2  4  1  0
  4  5  1  0
  4  6  1  0
  7  3  1  1
  6  8  1  6
  6  9  1  0
  7  9  1  0
  7 10  1  0
  8 11  1  0
  8 12  1  0
 10 13  1  0
  9 14  1  1
 13 15  1  1
 13 16  1  0
 14 16  1  0
M  CHG  1  11  -1
M  END
