ucsf172-ucsf039
     RDKit          3D

 24 26  0  0  0  0  0  0  0  0999 V2000
   -8.1650   14.8490    2.3730 C   0  0  0  0  0  0  0  0  0  0  0  0
   -6.9490   14.4310    1.1790 S   0  0  0  0  0  0  0  0  0  0  0  0
   -6.8060   12.8540    1.3350 O   0  0  0  0  0  0  0  0  0  0  0  0
   -7.6710   14.6910   -0.2240 O   0  0  0  0  0  0  0  0  0  0  0  0
   -5.4780   15.1460    1.3660 N   0  0  0  0  0  0  0  0  0  0  0  0
   -4.5100   15.5670    0.3360 C   0  0  1  0  0  0  0  0  0  0  0  0
   -3.1710   14.8970    0.6570 C   0  0  0  0  0  0  0  0  0  0  0  0
   -5.0050   15.3540   -1.0900 C   0  0  0  0  0  0  0  0  0  0  0  0
   -1.9990   14.9950   -0.3820 C   0  0  2  0  0  0  0  0  0  0  0  0
   -4.0120   14.5920   -1.9640 C   0  0  0  0  0  0  0  0  0  0  0  0
   -2.5370   15.0560   -1.8760 C   0  0  2  0  0  0  0  0  0  0  0  0
   -1.2450   13.8130    0.0260 N   0  0  0  0  0  0  0  0  0  0  0  0
   -0.9130   16.0260   -0.0290 C   0  0  0  0  0  0  0  0  0  0  0  0
   -1.7110   14.3530   -3.0270 C   0  0  2  0  0  0  0  0  0  0  0  0
    0.3350   15.2530    0.1400 N   0  0  0  0  0  0  0  0  0  0  0  0
   -0.2290   14.2180    0.9240 C   0  0  0  0  0  0  0  0  0  0  0  0
   -0.3710   14.8650   -3.0390 O   0  0  0  0  0  0  0  0  0  0  0  0
   -2.2480   14.7000   -4.1880 O   0  0  0  0  0  0  0  0  0  0  0  0
   -0.2080   16.1760   -3.6110 C   0  0  1  0  0  0  0  0  0  0  0  0
    1.0780   16.2310   -4.4250 C   0  0  0  0  0  0  0  0  0  0  0  0
   -1.2640   16.5720   -4.5580 N   0  0  0  0  0  0  0  0  0  0  0  0
   -0.8350   17.8930   -5.0360 C   0  0  1  0  0  0  0  0  0  0  0  0
    0.9400   17.7780   -5.3710 S   0  0  0  0  0  0  0  0  0  0  0  0
   -1.5790   18.3210   -6.2940 C   0  0  0  0  0  0  0  0  0  0  0  0
  1  2  1  0
  2  3  1  0
  2  4  1  0
  2  5  1  0
  6  5  1  1
  6  7  1  0
  6  8  1  0
  9  7  1  1
  8 10  1  0
  9 11  1  0
 11 10  1  1
  9 12  1  0
  9 13  1  0
 11 14  1  0
 13 15  1  0
 12 16  1  0
 15 16  1  0
 14 17  1  0
 14 18  1  6
 19 17  1  6
 19 20  1  0
 19 21  1  0
 21 22  1  0
 20 23  1  0
 22 23  1  0
 22 24  1  6
M  CHG  1  18  -1
M  END
