ucsf173-ucsf114
     RDKit          3D

 28 31  0  0  0  0  0  0  0  0999 V2000
    0.2060   11.3930   -2.6170 O   0  0  0  0  0  0  0  0  0  0  0  0
    0.4410   13.4420   -3.0710 S   0  0  0  0  0  0  0  0  0  0  0  0
    1.9700   12.0650   -3.5310 O   0  0  0  0  0  0  0  0  0  0  0  0
    1.7680   14.6340   -3.1600 C   0  0  0  0  0  0  0  0  0  0  0  0
   -0.5400   13.2360   -4.4800 C   0  0  1  0  0  0  0  0  0  0  0  0
   -0.5590   13.7930   -1.6940 N   0  0  0  0  0  0  0  0  0  0  0  0
    1.5020   15.5290   -4.2260 O   0  0  0  0  0  0  0  0  0  0  0  0
   -2.0190   13.7010   -4.2690 C   0  0  0  0  0  0  0  0  0  0  0  0
   -0.3770   14.0620   -5.6150 C   0  0  0  0  0  0  0  0  0  0  0  0
   -1.7710   14.5330   -1.7580 C   0  0  2  0  0  0  0  0  0  0  0  0
    0.1120   14.0900   -0.5350 C   0  0  1  0  0  0  0  0  0  0  0  0
    0.6660   16.5410   -3.8150 C   0  0  0  0  0  0  0  0  0  0  0  0
    1.8280   14.4200   -1.1710 S   0  0  0  0  0  0  0  0  0  0  0  0
   -1.9180   15.1890   -4.5260 C   0  0  1  0  0  0  0  0  0  0  0  0
   -0.4870   15.3530   -4.7870 C   0  0  2  0  0  0  0  0  0  0  0  0
   -2.5170   14.8330   -0.4300 C   0  0  2  0  0  0  0  0  0  0  0  0
   -0.3580   15.0920    0.2780 N   0  0  0  0  0  0  0  0  0  0  0  0
   -2.9650   14.2890   -2.6290 C   0  0  0  0  0  0  0  0  0  0  0  0
    1.0560   17.9240   -4.2490 C   0  0  0  0  0  0  0  0  0  0  0  0
   -0.7320   16.3660   -4.3990 C   0  0  0  0  0  0  0  0  0  0  0  0
   -2.7860   15.7870   -5.5790 C   0  0  0  0  0  0  0  0  0  0  0  0
    0.0220   16.5970   -5.4940 C   0  0  0  0  0  0  0  0  0  0  0  0
   -1.6410   14.6420    0.7440 C   0  0  1  0  0  0  0  0  0  0  0  0
   -3.5360   13.8270   -0.4340 N   0  0  0  0  0  0  0  0  0  0  0  0
   -4.1350   13.9650   -1.7150 C   0  0  0  0  0  0  0  0  0  0  0  0
   -2.0920   15.2070    1.8870 O   0  0  0  0  0  0  0  0  0  0  0  0
   -2.4050   17.1990   -5.8660 C   0  0  0  0  0  0  0  0  0  0  0  0
   -0.9830   17.5940   -6.1060 C   0  0  0  0  0  0  0  0  0  0  0  0
  1  2  1  0
  2  3  1  0
  2  4  1  0
  5  2  1  1
  2  6  1  0
  4  7  1  0
  5  8  1  0
  5  9  1  0
  6 10  1  0
  6 11  1  0
  7 12  1  0
 11 13  1  6
 14  8  1  6
 15  9  1  6
 14 15  1  0
 10 16  1  0
 11 17  1  0
 10 18  1  6
 12 19  1  0
 12 20  1  0
 14 21  1  0
 15 22  1  0
 16 23  1  0
 17 23  1  0
 16 24  1  1
 18 25  1  0
 24 25  1  0
 23 26  1  1
 21 27  1  0
 22 28  1  0
 27 28  1  0
M  CHG  1   1  -1
M  END
