ucsf278-ucsf247
     RDKit          3D

 25 27  0  0  0  0  0  0  0  0999 V2000
   -1.5670   14.7770   -2.0310 N   0  0  0  0  0  0  0  0  0  0  0  0
   -1.5000   13.4280   -1.4860 C   0  0  0  0  0  0  0  0  0  0  0  0
   -0.1130   12.7170   -1.7500 C   0  0  2  0  0  0  0  0  0  0  0  0
   -2.9360   14.8990   -2.5660 C   0  0  2  0  0  0  0  0  0  0  0  0
   -0.3900   14.6030   -2.8870 C   0  0  1  0  0  0  0  0  0  0  0  0
   -3.0500   15.7320   -3.7100 O   0  0  0  0  0  0  0  0  0  0  0  0
   -0.3710   13.3360   -3.8140 C   0  0  1  0  0  0  0  0  0  0  0  0
    0.3920   15.7540   -3.4990 C   0  0  0  0  0  0  0  0  0  0  0  0
   -3.9430   15.3150   -1.4440 C   0  0  1  0  0  0  0  0  0  0  0  0
    0.4460   12.6630   -0.6060 O   0  0  0  0  0  0  0  0  0  0  0  0
    0.8760   13.4960   -2.4150 O   0  0  0  0  0  0  0  0  0  0  0  0
   -1.3710   13.0260   -4.8900 C   0  0  0  0  0  0  0  0  0  0  0  0
    0.9690   12.9840   -4.5240 C   0  0  1  0  0  0  0  0  0  0  0  0
    1.7920   15.2000   -3.6580 C   0  0  0  0  0  0  0  0  0  0  0  0
   -5.2510   14.5180   -1.4140 C   0  0  0  0  0  0  0  0  0  0  0  0
   -3.3480   15.3720   -0.0120 C   0  0  0  0  0  0  0  0  0  0  0  0
   -0.7260   11.7420   -5.3850 C   0  0  2  0  0  0  0  0  0  0  0  0
    0.6140   12.2270   -5.7430 N   0  0  0  0  0  0  0  0  0  0  0  0
    1.8570   14.1670   -4.7640 C   0  0  0  0  0  0  0  0  0  0  0  0
   -6.1310   15.0200   -0.2970 C   0  0  1  0  0  0  0  0  0  0  0  0
   -4.0110   14.4780    1.0190 C   0  0  0  0  0  0  0  0  0  0  0  0
   -1.4540   11.0370   -6.5270 C   0  0  0  0  0  0  0  0  0  0  0  0
   -7.4770   14.5640   -0.3820 O   0  0  0  0  0  0  0  0  0  0  0  0
   -5.5320   14.6520    1.0620 C   0  0  0  0  0  0  0  0  0  0  0  0
   -2.4730   10.2040   -5.9750 O   0  0  0  0  0  0  0  0  0  0  0  0
  1  2  1  0
  2  3  1  0
  1  4  1  0
  5  1  1  6
  4  6  1  6
  5  7  1  0
  5  8  1  0
  4  9  1  0
  3 10  1  1
  3 11  1  0
  7 12  1  6
  7 13  1  0
  8 14  1  0
  9 15  1  1
  9 16  1  0
 12 17  1  0
 13 18  1  0
 17 18  1  0
 13 19  1  6
 14 19  1  0
 15 20  1  0
 16 21  1  0
 17 22  1  6
 20 23  1  6
 20 24  1  0
 21 24  1  0
 22 25  1  0
M  CHG  1  10  -1
M  END
