ucsf412-ucsf017
     RDKit          3D

 25 29  0  0  0  0  0  0  0  0999 V2000
   -7.5620   13.8600   -0.8030 O   0  0  0  0  0  0  0  0  0  0  0  0
   -6.8730   14.8840   -0.1470 C   0  0  1  0  0  0  0  0  0  0  0  0
   -6.9860   14.6020    1.2650 N   0  0  0  0  0  0  0  0  0  0  0  0
   -5.4840   15.1720   -0.7830 C   0  0  1  0  0  0  0  0  0  0  0  0
   -4.2540   14.7780    0.1100 C   0  0  1  0  0  0  0  0  0  0  0  0
   -5.8340   13.9790    1.8970 C   0  0  0  0  0  0  0  0  0  0  0  0
   -5.3910   14.6690   -2.2190 C   0  0  0  0  0  0  0  0  0  0  0  0
   -4.6140   13.6150    1.0310 C   0  0  0  0  0  0  0  0  0  0  0  0
   -2.7740   15.0400   -0.5580 C   0  0  1  0  0  0  0  0  0  0  0  0
   -4.0150   14.9320   -2.7750 C   0  0  0  0  0  0  0  0  0  0  0  0
   -3.2240   15.7870   -1.8000 C   0  0  0  0  0  0  0  0  0  0  0  0
   -2.1530   15.9180    0.5140 C   0  0  0  0  0  0  0  0  0  0  0  0
   -1.4400   14.1500   -0.8980 C   0  0  2  0  0  0  0  0  0  0  0  0
   -1.0500   13.2560   -2.0000 N   0  0  0  0  0  0  0  0  0  0  0  0
   -0.8120   13.5010    0.2550 N   0  0  0  0  0  0  0  0  0  0  0  0
   -1.6900   15.0950    1.6230 N   0  0  0  0  0  0  0  0  0  0  0  0
   -1.6630   13.4790   -3.3290 C   0  0  1  0  0  0  0  0  0  0  0  0
    0.2520   12.6520   -2.0730 C   0  0  0  0  0  0  0  0  0  0  0  0
   -0.4640   14.4330    1.2830 C   0  0  0  0  0  0  0  0  0  0  0  0
   -1.5310   14.8620   -3.9590 C   0  0  0  0  0  0  0  0  0  0  0  0
   -1.2550   12.5240   -4.4850 C   0  0  1  0  0  0  0  0  0  0  0  0
    0.1660   11.3360   -2.7960 C   0  0  0  0  0  0  0  0  0  0  0  0
   -1.0490   13.4670   -5.6630 C   0  0  0  0  0  0  0  0  0  0  0  0
   -1.7950   14.6430   -5.3490 O   0  0  0  0  0  0  0  0  0  0  0  0
   -0.0140   11.6450   -4.2630 C   0  0  0  0  0  0  0  0  0  0  0  0
  2  1  1  6
  2  3  1  0
  2  4  1  0
  4  5  1  0
  3  6  1  0
  4  7  1  6
  5  8  1  6
  6  8  1  0
  5  9  1  0
  7 10  1  0
  9 11  1  6
 10 11  1  0
  9 12  1  0
  9 13  1  0
 13 14  1  6
 13 15  1  0
 12 16  1  0
 14 17  1  0
 14 18  1  0
 15 19  1  0
 16 19  1  0
 17 20  1  6
 17 21  1  0
 18 22  1  0
 21 23  1  6
 20 24  1  0
 23 24  1  0
 21 25  1  0
 22 25  1  0
M  END
