ucsf411-ucsf320
     RDKit          3D

 25 27  0  0  0  0  0  0  0  0999 V2000
    0.7360   10.9880   -2.7140 O   0  0  0  0  0  0  0  0  0  0  0  0
    0.6550   12.3000   -2.7390 C   0  0  1  0  0  0  0  0  0  0  0  0
    0.7540   12.7070   -1.3680 O   0  0  0  0  0  0  0  0  0  0  0  0
    1.8420   12.9440   -3.5620 C   0  0  0  0  0  0  0  0  0  0  0  0
    1.3620   13.6800   -4.7360 O   0  0  0  0  0  0  0  0  0  0  0  0
    0.2100   14.4830   -4.4200 C   0  0  1  0  0  0  0  0  0  0  0  0
    0.0390   15.7790   -5.2420 C   0  0  1  0  0  0  0  0  0  0  0  0
   -1.0260   13.6770   -4.6310 C   0  0  0  0  0  0  0  0  0  0  0  0
   -1.4310   16.4300   -5.3420 C   0  0  1  0  0  0  0  0  0  0  0  0
   -1.9850   14.5870   -3.9590 C   0  0  2  0  0  0  0  0  0  0  0  0
    1.1810   16.7370   -5.0020 C   0  0  0  0  0  0  0  0  0  0  0  0
   -2.7460   13.8830   -3.0500 O   0  0  0  0  0  0  0  0  0  0  0  0
   -2.6060   15.5370   -4.9280 C   0  0  0  0  0  0  0  0  0  0  0  0
   -1.4820   17.8270   -4.8070 C   0  0  0  0  0  0  0  0  0  0  0  0
    0.8930   18.2330   -5.0720 C   0  0  0  0  0  0  0  0  0  0  0  0
   -2.4130   14.3770   -1.7430 C   0  0  1  0  0  0  0  0  0  0  0  0
   -0.4740   18.5730   -5.6160 C   0  0  0  0  0  0  0  0  0  0  0  0
   -1.2130   14.9300   -1.7360 O   0  0  0  0  0  0  0  0  0  0  0  0
   -3.4870   15.4270   -1.5600 C   0  0  2  0  0  0  0  0  0  0  0  0
   -3.8740   15.4170   -0.0620 C   0  0  0  0  0  0  0  0  0  0  0  0
   -4.5670   15.0410   -2.6250 C   0  0  0  0  0  0  0  0  0  0  0  0
   -5.2210   14.7970    0.1710 C   0  0  0  0  0  0  0  0  0  0  0  0
   -6.0230   15.0240   -2.2070 C   0  0  0  0  0  0  0  0  0  0  0  0
   -6.2110   15.4460   -0.7730 C   0  0  1  0  0  0  0  0  0  0  0  0
   -7.5470   15.1430   -0.3680 O   0  0  0  0  0  0  0  0  0  0  0  0
  2  1  1  1
  2  3  1  0
  2  4  1  0
  4  5  1  0
  6  5  1  6
  6  7  1  0
  6  8  1  0
  7  9  1  0
  8 10  1  0
  7 11  1  1
 10 12  1  6
  9 13  1  1
 10 13  1  0
  9 14  1  0
 11 15  1  0
 12 16  1  0
 14 17  1  0
 15 17  1  0
 16 18  1  6
 16 19  1  0
 19 20  1  1
 19 21  1  0
 20 22  1  0
 21 23  1  0
 22 24  1  0
 23 24  1  0
 24 25  1  1
M  CHG  2   1  -1  18  -1
M  END
