ucsf138-ucsf030
     RDKit          3D

 31 34  0  0  0  0  0  0  0  0999 V2000
    1.6840   12.1720   -2.2940 O   0  0  0  0  0  0  0  0  0  0  0  0
    0.6890   11.7700   -3.0550 C   0  0  2  0  0  0  0  0  0  0  0  0
    0.5240   10.3890   -2.7160 O   0  0  0  0  0  0  0  0  0  0  0  0
    0.9920   12.0930   -4.5610 C   0  0  0  0  0  0  0  0  0  0  0  0
   -0.5310   12.5410   -2.6260 C   0  0  1  0  0  0  0  0  0  0  0  0
    0.2010   11.2800   -5.5120 N   0  0  0  0  0  0  0  0  0  0  0  0
   -1.2710   13.7020   -3.4360 C   0  0  1  0  0  0  0  0  0  0  0  0
   -1.8650   11.7160   -2.6870 C   0  0  0  0  0  0  0  0  0  0  0  0
    0.4780   11.5330   -6.8900 C   0  0  1  0  0  0  0  0  0  0  0  0
   -0.5700   14.3310   -4.6420 C   0  0  0  0  0  0  0  0  0  0  0  0
   -2.3560   12.6280   -3.8230 C   0  0  0  0  0  0  0  0  0  0  0  0
   -1.8240   14.7480   -2.5860 N   0  0  0  0  0  0  0  0  0  0  0  0
    1.8390   11.7690   -6.9760 O   0  0  0  0  0  0  0  0  0  0  0  0
    0.0970   10.3300   -7.5910 N   0  0  0  0  0  0  0  0  0  0  0  0
   -1.9190   14.3300   -1.1780 C   0  0  2  0  0  0  0  0  0  0  0  0
   -3.0110   15.2990   -3.2310 C   0  0  0  0  0  0  0  0  0  0  0  0
   -1.1380   15.7310   -4.8030 C   0  0  0  0  0  0  0  0  0  0  0  0
    0.8190    9.9420   -8.8060 C   0  0  0  0  0  0  0  0  0  0  0  0
   -3.2310   14.3340   -0.3510 C   0  0  2  0  0  0  0  0  0  0  0  0
   -0.6930   14.8270   -0.5370 N   0  0  0  0  0  0  0  0  0  0  0  0
   -2.6640   15.7360   -4.6490 C   0  0  0  0  0  0  0  0  0  0  0  0
   -4.4970   15.4910   -0.9230 Cl  0  0  0  0  0  0  0  0  0  0  0  0
    0.0140   10.2020  -10.0990 C   0  0  0  0  0  0  0  0  0  0  0  0
    1.4430    8.5350   -8.7290 C   0  0  0  0  0  0  0  0  0  0  0  0
   -2.9290   14.5510    1.1560 C   0  0  2  0  0  0  0  0  0  0  0  0
   -0.5190   14.4860    0.8390 C   0  0  0  0  0  0  0  0  0  0  0  0
   -3.8500   15.4480    1.8270 N   0  0  0  0  0  0  0  0  0  0  0  0
    0.6740    9.6820  -11.3770 C   0  0  0  0  0  0  0  0  0  0  0  0
    2.1420    8.1170  -10.0170 C   0  0  0  0  0  0  0  0  0  0  0  0
   -1.6180   14.9890    1.5990 N   0  0  0  0  0  0  0  0  0  0  0  0
    1.2310    8.2670  -11.2260 C   0  0  0  0  0  0  0  0  0  0  0  0
  2  1  1  1
  2  3  1  0
  2  4  1  0
  2  5  1  0
  4  6  1  0
  5  7  1  0
  5  8  1  6
  6  9  1  0
  7 10  1  6
  7 11  1  0
  8 11  1  0
  7 12  1  0
  9 13  1  1
  9 14  1  0
 15 12  1  6
 12 16  1  0
 10 17  1  0
 14 18  1  0
 15 19  1  0
 15 20  1  0
 16 21  1  0
 17 21  1  0
 19 22  1  6
 18 23  1  0
 18 24  1  0
 19 25  1  0
 20 26  1  0
 25 27  1  6
 23 28  1  0
 24 29  1  0
 25 30  1  0
 26 30  1  0
 28 31  1  0
 29 31  1  0
M  CHG  1   1  -1
M  END
