ucsf378-ucsf005
     RDKit          3D

 23 25  0  0  0  0  0  0  0  0999 V2000
   -2.0670   14.2880   -3.5310 C   0  0  0  0  0  0  0  0  0  0  0  0
   -0.5800   14.5910   -3.7520 C   0  0  1  0  0  0  0  0  0  0  0  0
    0.1740   13.4090   -4.4320 C   0  0  2  0  0  0  0  0  0  0  0  0
   -2.6270   15.1080   -2.4520 N   0  0  0  0  0  0  0  0  0  0  0  0
   -0.4380   15.9340   -4.5050 C   0  0  0  0  0  0  0  0  0  0  0  0
   -4.0860   15.0170   -2.5290 C   0  0  0  0  0  0  0  0  0  0  0  0
   -2.3900   14.5610   -1.1260 C   0  0  2  0  0  0  0  0  0  0  0  0
   -0.1080   11.9770   -3.8340 C   0  0  0  0  0  0  0  0  0  0  0  0
    1.6620   13.7840   -4.6040 C   0  0  2  0  0  0  0  0  0  0  0  0
    1.0160   16.2740   -4.6910 C   0  0  0  0  0  0  0  0  0  0  0  0
   -4.6200   15.3280   -1.2030 N   0  0  0  0  0  0  0  0  0  0  0  0
   -3.4130   15.3770   -0.3730 C   0  0  1  0  0  0  0  0  0  0  0  0
   -1.0960   14.8270   -0.5430 N   0  0  0  0  0  0  0  0  0  0  0  0
    2.8990   12.7530   -3.8380 Cl  0  0  0  0  0  0  0  0  0  0  0  0
    0.5320   11.5510   -2.4810 C   0  0  1  0  0  0  0  0  0  0  0  0
    1.8800   15.1930   -4.0710 C   0  0  0  0  0  0  0  0  0  0  0  0
   -3.4050   14.7830    1.0250 C   0  0  2  0  0  0  0  0  0  0  0  0
   -1.0200   14.3100    0.7850 C   0  0  1  0  0  0  0  0  0  0  0  0
   -0.1780   11.9080   -1.4310 O   0  0  0  0  0  0  0  0  0  0  0  0
    0.3930   10.1500   -2.3980 O   0  0  0  0  0  0  0  0  0  0  0  0
   -4.2720   15.5510    1.8960 N   0  0  0  0  0  0  0  0  0  0  0  0
    0.1480   14.9190    1.2800 N   0  0  0  0  0  0  0  0  0  0  0  0
   -2.0830   14.7790    1.6410 N   0  0  0  0  0  0  0  0  0  0  0  0
  2  1  1  6
  2  3  1  0
  1  4  1  0
  2  5  1  0
  4  6  1  0
  4  7  1  0
  3  8  1  1
  3  9  1  0
  5 10  1  0
  6 11  1  0
  7 12  1  0
 12 11  1  6
  7 13  1  1
  9 14  1  1
  8 15  1  0
  9 16  1  0
 10 16  1  0
 12 17  1  0
 13 18  1  0
 15 19  1  1
 15 20  1  0
 17 21  1  1
 18 22  1  1
 17 23  1  0
 18 23  1  0
M  CHG  1  19  -1
M  END
