ucsf387-ucsf110
     RDKit          3D

 23 25  0  0  0  0  0  0  0  0999 V2000
    1.2480   18.4360   -5.9720 Cl  0  0  0  0  0  0  0  0  0  0  0  0
    0.4920   17.1440   -5.0190 C   0  0  1  0  0  0  0  0  0  0  0  0
   -0.9600   17.0840   -5.4980 C   0  0  0  0  0  0  0  0  0  0  0  0
    1.2100   15.7490   -5.0350 C   0  0  0  0  0  0  0  0  0  0  0  0
    0.6260   14.8910   -3.9270 C   0  0  2  0  0  0  0  0  0  0  0  0
   -1.4470   15.7330   -5.0730 C   0  0  2  0  0  0  0  0  0  0  0  0
   -3.2390   15.6130   -5.0230 Cl  0  0  0  0  0  0  0  0  0  0  0  0
    0.5510   13.3440   -4.1480 C   0  0  0  0  0  0  0  0  0  0  0  0
   -0.6890   15.6660   -3.7750 C   0  0  1  0  0  0  0  0  0  0  0  0
    0.4290   12.5400   -2.8160 C   0  0  1  0  0  0  0  0  0  0  0  0
   -1.4850   15.6000   -2.5220 C   0  0  0  0  0  0  0  0  0  0  0  0
    0.4970   11.2410   -3.0230 O   0  0  0  0  0  0  0  0  0  0  0  0
    1.5850   12.7480   -2.0490 O   0  0  0  0  0  0  0  0  0  0  0  0
   -1.8440   14.2760   -2.1980 N   0  0  0  0  0  0  0  0  0  0  0  0
   -3.2680   14.0710   -2.4360 C   0  0  0  0  0  0  0  0  0  0  0  0
   -1.6680   14.1190   -0.7870 C   0  0  2  0  0  0  0  0  0  0  0  0
   -3.9290   14.7630   -1.2530 C   0  0  0  0  0  0  0  0  0  0  0  0
   -2.7470   15.0520   -0.3360 C   0  0  1  0  0  0  0  0  0  0  0  0
   -0.3800   14.5070   -0.2500 N   0  0  0  0  0  0  0  0  0  0  0  0
   -2.8280   14.7580    1.1140 C   0  0  2  0  0  0  0  0  0  0  0  0
   -0.3730   14.5230    1.1900 C   0  0  0  0  0  0  0  0  0  0  0  0
   -3.8490   15.5280    1.7850 N   0  0  0  0  0  0  0  0  0  0  0  0
   -1.5840   15.1370    1.7090 N   0  0  0  0  0  0  0  0  0  0  0  0
  2  1  1  6
  2  3  1  0
  2  4  1  0
  4  5  1  0
  3  6  1  0
  6  7  1  1
  5  8  1  6
  5  9  1  0
  6  9  1  0
  8 10  1  0
  9 11  1  1
 10 12  1  6
 10 13  1  0
 11 14  1  0
 14 15  1  0
 14 16  1  0
 15 17  1  0
 16 18  1  0
 18 17  1  6
 16 19  1  1
 18 20  1  0
 19 21  1  0
 20 22  1  1
 20 23  1  0
 21 23  1  0
M  CHG  1  12  -1
M  END
