ucsf385-ucsf367
     RDKit          3D

 22 23  0  0  0  0  0  0  0  0999 V2000
   -3.5150   14.9910   -1.4040 N   0  0  0  0  0  0  0  0  0  0  0  0
   -2.5680   14.2830   -0.5200 C   0  0  2  0  0  0  0  0  0  0  0  0
   -2.6660   14.9120    0.8900 C   0  0  0  0  0  0  0  0  0  0  0  0
   -1.0840   14.2560   -1.0220 C   0  0  1  0  0  0  0  0  0  0  0  0
   -0.8800   14.9900   -2.3930 C   0  0  1  0  0  0  0  0  0  0  0  0
   -0.1140   14.7510    0.0830 C   0  0  0  0  0  0  0  0  0  0  0  0
   -1.8020   14.2720    1.8670 N   0  0  0  0  0  0  0  0  0  0  0  0
    0.0110   14.2890   -3.2370 O   0  0  0  0  0  0  0  0  0  0  0  0
   -2.0610   15.1410   -2.9770 O   0  0  0  0  0  0  0  0  0  0  0  0
   -0.4170   14.1270    1.4300 C   0  0  0  0  0  0  0  0  0  0  0  0
    1.3290   14.2800   -2.7090 C   0  0  0  0  0  0  0  0  0  0  0  0
    1.5350   12.9840   -2.1900 O   0  0  0  0  0  0  0  0  0  0  0  0
    1.4040   11.9860   -3.1950 C   0  0  1  0  0  0  0  0  0  0  0  0
    0.7150   10.9410   -2.7330 O   0  0  0  0  0  0  0  0  0  0  0  0
    0.7780   12.4920   -4.5550 C   0  0  0  0  0  0  0  0  0  0  0  0
    0.6990   11.6250   -5.7040 O   0  0  0  0  0  0  0  0  0  0  0  0
   -0.5000   10.9470   -6.0790 C   0  0  0  0  0  0  0  0  0  0  0  0
   -0.4020    9.4600   -6.4660 C   0  0  0  0  0  0  0  0  0  0  0  0
   -1.7220   11.3180   -5.2280 C   0  0  0  0  0  0  0  0  0  0  0  0
   -1.6720    8.8900   -7.0740 C   0  0  0  0  0  0  0  0  0  0  0  0
   -2.6900   10.1450   -5.0990 C   0  0  0  0  0  0  0  0  0  0  0  0
   -2.9380    9.4200   -6.4170 C   0  0  0  0  0  0  0  0  0  0  0  0
  2  1  1  6
  2  3  1  0
  2  4  1  0
  4  5  1  0
  4  6  1  1
  3  7  1  0
  5  8  1  0
  5  9  1  6
  6 10  1  0
  7 10  1  0
  8 11  1  0
 11 12  1  0
 12 13  1  0
 13 14  1  1
 13 15  1  0
 15 16  1  0
 16 17  1  0
 17 18  1  0
 17 19  1  0
 18 20  1  0
 19 21  1  0
 20 22  1  0
 21 22  1  0
M  CHG  2   9  -1  14  -1
M  END
