ucsf170-ucsf584
     RDKit          3D

 16 17  0  0  0  0  0  0  0  0999 V2000
   -5.0030   15.0790    1.8580 C   0  0  0  0  0  0  0  0  0  0  0  0
   -3.5890   15.9800    1.2320 S   0  0  0  0  0  0  0  0  0  0  0  0
   -3.4690   15.2880   -0.4700 C   0  0  1  0  0  0  0  0  0  0  0  0
   -2.1420   14.4670   -0.5780 C   0  0  0  0  0  0  0  0  0  0  0  0
   -4.7920   14.5730   -0.9610 C   0  0  0  0  0  0  0  0  0  0  0  0
   -1.8910   13.9410   -2.0040 C   0  0  2  0  0  0  0  0  0  0  0  0
   -4.4170   14.2010   -2.4650 C   0  0  0  0  0  0  0  0  0  0  0  0
   -5.2350   13.4510   -0.0420 N   0  0  0  0  0  0  0  0  0  0  0  0
   -6.0320   15.4430   -0.9320 N   0  0  0  0  0  0  0  0  0  0  0  0
   -0.4160   13.8420   -2.5660 C   0  0  2  0  0  0  0  0  0  0  0  0
   -2.9550   14.5900   -2.9070 C   0  0  2  0  0  0  0  0  0  0  0  0
   -7.1700   14.7230   -0.3120 C   0  0  0  0  0  0  0  0  0  0  0  0
   -6.5060   13.7960    0.6560 C   0  0  0  0  0  0  0  0  0  0  0  0
   -2.6990   14.2620   -4.2990 O   0  0  0  0  0  0  0  0  0  0  0  0
    0.5310   14.0780   -1.5410 O   0  0  0  0  0  0  0  0  0  0  0  0
   -0.0980   14.7650   -3.4340 O   0  0  0  0  0  0  0  0  0  0  0  0
  1  2  1  0
  3  2  1  1
  3  4  1  0
  3  5  1  0
  6  4  1  1
  5  7  1  0
  5  8  1  0
  5  9  1  0
  6 10  1  0
  6 11  1  0
  7 11  1  0
  9 12  1  0
  8 13  1  0
 12 13  1  0
 11 14  1  6
 10 15  1  1
 10 16  1  0
M  CHG  1  16  -1
M  END
