ucsf170-ucsf340
     RDKit          3D

 24 26  0  0  0  0  0  0  0  0999 V2000
   -4.8310   15.2300    1.3870 C   0  0  0  0  0  0  0  0  0  0  0  0
   -3.1570   14.5870    1.2180 S   0  0  0  0  0  0  0  0  0  0  0  0
   -2.9170   14.8850   -0.5850 C   0  0  1  0  0  0  0  0  0  0  0  0
   -1.5190   14.5130   -1.1510 C   0  0  0  0  0  0  0  0  0  0  0  0
   -4.0970   14.4000   -1.4150 C   0  0  0  0  0  0  0  0  0  0  0  0
   -1.4550   13.7430   -2.5120 C   0  0  2  0  0  0  0  0  0  0  0  0
   -3.8260   14.7400   -2.8660 C   0  0  0  0  0  0  0  0  0  0  0  0
   -0.1070   13.9500   -3.3290 C   0  0  1  0  0  0  0  0  0  0  0  0
   -2.7430   13.7840   -3.3630 C   0  0  1  0  0  0  0  0  0  0  0  0
   -2.4190   14.1030   -4.7320 O   0  0  0  0  0  0  0  0  0  0  0  0
    0.9050   13.9530   -2.3410 O   0  0  0  0  0  0  0  0  0  0  0  0
    0.0120   12.9220   -4.1250 O   0  0  0  0  0  0  0  0  0  0  0  0
    0.0280   15.2090   -4.2360 C   0  0  2  0  0  0  0  0  0  0  0  0
    1.1690   12.6350   -1.8620 C   0  0  0  0  0  0  0  0  0  0  0  0
    0.7140   16.5160   -3.7840 C   0  0  0  0  0  0  0  0  0  0  0  0
   -1.0780   15.6650   -5.1550 C   0  0  2  0  0  0  0  0  0  0  0  0
    0.5260   11.7160   -2.6130 O   0  0  0  0  0  0  0  0  0  0  0  0
    0.1540   17.6410   -4.6220 N   0  0  0  0  0  0  0  0  0  0  0  0
   -0.3910   16.9170   -5.7190 C   0  0  2  0  0  0  0  0  0  0  0  0
   -2.5140   15.9370   -4.7740 C   0  0  0  0  0  0  0  0  0  0  0  0
    1.1890   18.4070   -5.2790 C   0  0  0  0  0  0  0  0  0  0  0  0
   -3.1550   16.4640   -6.0340 C   0  0  0  0  0  0  0  0  0  0  0  0
   -1.1460   17.9310   -6.5750 C   0  0  0  0  0  0  0  0  0  0  0  0
   -2.6110   17.8670   -6.3440 C   0  0  0  0  0  0  0  0  0  0  0  0
  1  2  1  0
  3  2  1  1
  3  4  1  0
  3  5  1  0
  6  4  1  1
  5  7  1  0
  6  8  1  0
  6  9  1  0
  7  9  1  0
  9 10  1  6
  8 11  1  0
  8 12  1  6
  8 13  1  0
 11 14  1  0
 13 15  1  1
 13 16  1  0
 14 17  1  0
 15 18  1  0
 16 19  1  0
 18 19  1  0
 16 20  1  1
 18 21  1  0
 20 22  1  0
 19 23  1  1
 22 24  1  0
 23 24  1  0
M  CHG  2  12  -1  17  -1
M  END
