ucsf336-ucsf241
     RDKit          3D

 22 24  0  0  0  0  0  0  0  0999 V2000
    2.3710   12.6610   -3.5790 O   0  0  0  0  0  0  0  0  0  0  0  0
    1.2290   13.2360   -3.8560 C   0  0  2  0  0  0  0  0  0  0  0  0
    0.9290   14.1650   -2.7740 O   0  0  0  0  0  0  0  0  0  0  0  0
    0.0560   12.1430   -4.0310 C   0  0  2  0  0  0  0  0  0  0  0  0
    0.3210   11.0290   -3.1760 O   0  0  0  0  0  0  0  0  0  0  0  0
   -0.0370   11.7180   -5.4110 N   0  0  0  0  0  0  0  0  0  0  0  0
    1.0800   13.6910   -1.4410 C   0  0  0  0  0  0  0  0  0  0  0  0
   -0.6780   10.5050   -5.8440 C   0  0  0  0  0  0  0  0  0  0  0  0
   -0.2430   13.8940   -0.6690 C   0  0  2  0  0  0  0  0  0  0  0  0
   -0.4550   10.1140   -7.3150 C   0  0  0  0  0  0  0  0  0  0  0  0
   -2.1330   10.3470   -5.3940 C   0  0  0  0  0  0  0  0  0  0  0  0
   -1.2060   14.8240   -1.4070 C   0  0  0  0  0  0  0  0  0  0  0  0
   -0.1060   14.2870    0.8350 C   0  0  0  0  0  0  0  0  0  0  0  0
   -1.1460    8.8230   -7.7350 C   0  0  0  0  0  0  0  0  0  0  0  0
   -2.8230    9.0680   -5.8480 C   0  0  0  0  0  0  0  0  0  0  0  0
   -2.5150   14.6140   -0.6790 C   0  0  2  0  0  0  0  0  0  0  0  0
   -1.4100   14.4410    1.5280 N   0  0  0  0  0  0  0  0  0  0  0  0
   -2.6150    8.8000   -7.3350 C   0  0  0  0  0  0  0  0  0  0  0  0
   -3.7230   15.3950   -1.1330 C   0  0  0  0  0  0  0  0  0  0  0  0
   -2.3400   15.1510    0.7140 C   0  0  2  0  0  0  0  0  0  0  0  0
   -4.5210   15.5430    0.1680 C   0  0  0  0  0  0  0  0  0  0  0  0
   -3.6750   14.9800    1.2260 N   0  0  0  0  0  0  0  0  0  0  0  0
  2  1  1  1
  2  3  1  0
  2  4  1  0
  4  5  1  1
  4  6  1  0
  3  7  1  0
  6  8  1  0
  9  7  1  6
  8 10  1  0
  8 11  1  0
  9 12  1  0
  9 13  1  0
 10 14  1  0
 11 15  1  0
 16 12  1  6
 13 17  1  0
 14 18  1  0
 15 18  1  0
 16 19  1  0
 16 20  1  0
 20 17  1  1
 19 21  1  0
 20 22  1  0
 21 22  1  0
M  CHG  1   1  -1
M  END
