ucsf411-ucsf392
     RDKit          3D

 26 28  0  0  0  0  0  0  0  0999 V2000
    0.5680   10.5400   -2.3780 O   0  0  0  0  0  0  0  0  0  0  0  0
    0.3030   11.8340   -2.6070 C   0  0  1  0  0  0  0  0  0  0  0  0
    0.6320   12.5180   -1.3820 O   0  0  0  0  0  0  0  0  0  0  0  0
    1.2340   12.4160   -3.7530 C   0  0  0  0  0  0  0  0  0  0  0  0
    1.0330   13.8340   -4.0200 O   0  0  0  0  0  0  0  0  0  0  0  0
    1.3640   13.7190   -1.6360 C   0  0  0  0  0  0  0  0  0  0  0  0
    0.9420   14.8090   -0.6720 C   0  0  0  0  0  0  0  0  0  0  0  0
    0.0410   14.1570   -5.0060 C   0  0  2  0  0  0  0  0  0  0  0  0
    0.0670   14.4400    0.5300 C   0  0  0  0  0  0  0  0  0  0  0  0
   -0.1100   15.7020   -5.1360 C   0  0  1  0  0  0  0  0  0  0  0  0
   -1.3050   13.5320   -4.6450 C   0  0  0  0  0  0  0  0  0  0  0  0
   -1.5450   16.2600   -4.9670 C   0  0  2  0  0  0  0  0  0  0  0  0
   -2.4090   13.9410   -5.6120 C   0  0  0  0  0  0  0  0  0  0  0  0
    0.8430   16.5170   -4.2630 C   0  0  0  0  0  0  0  0  0  0  0  0
   -1.4130   14.3150    0.2040 C   0  0  1  0  0  0  0  0  0  0  0  0
   -2.7020   15.4300   -5.5440 C   0  0  0  0  0  0  0  0  0  0  0  0
   -1.5920   17.6890   -5.5270 C   0  0  0  0  0  0  0  0  0  0  0  0
    0.7200   18.0220   -4.5440 C   0  0  0  0  0  0  0  0  0  0  0  0
   -2.1950   15.1310    1.0930 N   0  0  0  0  0  0  0  0  0  0  0  0
   -1.6240   14.8210   -1.1230 N   0  0  0  0  0  0  0  0  0  0  0  0
   -0.2000   18.2930   -5.7240 C   0  0  0  0  0  0  0  0  0  0  0  0
   -3.5620   14.7330    0.9510 C   0  0  1  0  0  0  0  0  0  0  0  0
   -3.0090   14.8540   -1.5840 C   0  0  0  0  0  0  0  0  0  0  0  0
   -4.2290   15.6000    1.8850 N   0  0  0  0  0  0  0  0  0  0  0  0
   -4.0860   14.7230   -0.5060 C   0  0  2  0  0  0  0  0  0  0  0  0
   -5.2310   15.6880   -0.7630 C   0  0  0  0  0  0  0  0  0  0  0  0
  2  1  1  1
  2  3  1  0
  2  4  1  0
  4  5  1  0
  3  6  1  0
  6  7  1  0
  8  5  1  1
  7  9  1  0
  8 10  1  0
  8 11  1  0
 10 12  1  0
 11 13  1  0
 10 14  1  1
 15  9  1  1
 12 16  1  6
 13 16  1  0
 12 17  1  0
 14 18  1  0
 15 19  1  0
 15 20  1  0
 17 21  1  0
 18 21  1  0
 19 22  1  0
 20 23  1  0
 22 24  1  1
 22 25  1  0
 23 25  1  0
 25 26  1  1
M  CHG  1   1  -1
M  END
