ucsf522
     RDKit          3D

 20 22  0  0  0  0  0  0  0  0999 V2000
   -4.4800   15.4240    1.3790 N   0  0  0  0  0  0  0  0  0  0  0  0
   -3.6300   15.2490    0.2210 C   0  0  0  0  0  0  0  0  0  0  0  0
   -4.1630   15.3270   -0.9950 N   0  0  0  0  0  0  0  0  0  0  0  0
   -3.4390   15.1770   -2.0820 C   0  0  0  0  0  0  0  0  0  0  0  0
   -2.1600   14.9680   -2.0090 N   0  0  0  0  0  0  0  0  0  0  0  0
   -1.5350   14.8720   -0.8120 C   0  0  0  0  0  0  0  0  0  0  0  0
   -0.2590   14.6800   -0.5370 N   0  0  0  0  0  0  0  0  0  0  0  0
    0.7790   14.4690   -1.6240 C   0  0  0  0  0  0  0  0  0  0  0  0
    2.2870   14.5490   -1.3180 C   0  0  0  0  0  0  0  0  0  0  0  0
    3.1920   14.1380   -2.5800 C   0  0  0  0  0  0  0  0  0  0  0  0
    2.7710   12.8280   -3.4260 C   0  0  1  0  0  0  0  0  0  0  0  0
    2.3960   13.3330   -4.8000 C   0  0  0  0  0  0  0  0  0  0  0  0
    3.5890   13.5890   -5.3180 C   0  0  2  0  0  0  0  0  0  0  0  0
    4.4370   12.2710   -4.9380 O   0  0  0  0  0  0  0  0  0  0  0  0
    4.0350   11.9470   -3.7390 C   0  0  0  0  0  0  0  0  0  0  0  0
   -0.1690   14.6830    0.8090 C   0  0  0  0  0  0  0  0  0  0  0  0
   -1.3810   14.9080    1.3350 N   0  0  0  0  0  0  0  0  0  0  0  0
   -2.2600   15.0280    0.3400 C   0  0  0  0  0  0  0  0  0  0  0  0
    3.5290   13.6880   -6.2800 H   0  0  0  0  0  0  0  0  0  0  0  0
    3.4690   14.9270   -6.8550 R   0  0  0  0  0  0  0  0  0  0  0  0
  1  2  1  0
  2  3  1  0
  3  4  1  0
  4  5  1  0
  5  6  1  0
  6  7  1  0
  7  8  1  0
  8  9  1  0
  9 10  1  0
 11 10  1  1
 11 12  1  0
 12 13  1  0
 13 14  1  0
 11 15  1  0
 14 15  1  0
  7 16  1  0
 16 17  1  0
  2 18  1  0
  6 18  1  0
 17 18  1  0
 13 19  1  6
 13 20  1  0
M  END
