ucsf519-ucsf584
     RDKit          3D

 19 20  0  0  0  0  0  0  0  0999 V2000
   -0.3670   16.0390   -4.3930 C   0  0  0  0  0  0  0  0  0  0  0  0
   -1.0450   14.7650   -3.8550 C   0  0  2  0  0  0  0  0  0  0  0  0
   -0.6510   13.3390   -4.9710 S   0  0  0  0  0  0  0  0  0  0  0  0
   -2.5600   15.0400   -3.4300 C   0  0  1  0  0  0  0  0  0  0  0  0
    0.5710   12.2380   -4.1230 C   0  0  0  0  0  0  0  0  0  0  0  0
   -3.4550   14.7250   -4.4850 O   0  0  0  0  0  0  0  0  0  0  0  0
   -3.2070   14.5970   -2.1560 N   0  0  0  0  0  0  0  0  0  0  0  0
    0.3680   11.7780   -2.6490 C   0  0  2  0  0  0  0  0  0  0  0  0
   -4.2640   15.4260   -1.5220 C   0  0  0  0  0  0  0  0  0  0  0  0
   -2.4920   14.1120   -1.0030 C   0  0  1  0  0  0  0  0  0  0  0  0
    1.4360   12.3530   -1.9300 O   0  0  0  0  0  0  0  0  0  0  0  0
    0.5520   10.4760   -2.4430 O   0  0  0  0  0  0  0  0  0  0  0  0
   -1.3740   14.8670   -0.6210 O   0  0  0  0  0  0  0  0  0  0  0  0
   -4.7260   14.6050   -0.2600 C   0  0  0  0  0  0  0  0  0  0  0  0
   -3.4750   13.9170    0.0750 N   0  0  0  0  0  0  0  0  0  0  0  0
   -5.2070   15.3070    0.9540 N   0  0  0  0  0  0  0  0  0  0  0  0
   -5.8750   13.7170   -0.5540 N   0  0  0  0  0  0  0  0  0  0  0  0
   -7.0590   14.1970    0.1960 C   0  0  0  0  0  0  0  0  0  0  0  0
   -6.3960   14.5780    1.4730 C   0  0  0  0  0  0  0  0  0  0  0  0
  2  1  1  6
  2  3  1  0
  2  4  1  0
  3  5  1  0
  4  6  1  6
  4  7  1  0
  5  8  1  0
  7  9  1  0
  7 10  1  0
  8 11  1  1
  8 12  1  0
 10 13  1  1
  9 14  1  0
 10 15  1  0
 14 15  1  0
 14 16  1  0
 14 17  1  0
 17 18  1  0
 16 19  1  0
 18 19  1  0
M  CHG  1  12  -1
M  END
