ucsf264-ucsf123
     RDKit          3D

 28 30  0  0  0  0  0  0  0  0999 V2000
   -0.0240   12.7010   -2.4340 N   0  0  0  0  0  0  0  0  0  0  0  0
    0.8570   12.0020   -3.3680 C   0  0  1  0  0  0  0  0  0  0  0  0
    0.3460   10.6630   -3.4290 O   0  0  0  0  0  0  0  0  0  0  0  0
    0.6970   12.8870   -1.1700 O   0  0  0  0  0  0  0  0  0  0  0  0
   -0.5040   14.0200   -2.8930 C   0  0  1  0  0  0  0  0  0  0  0  0
    0.9620   12.5860   -4.8250 C   0  0  0  0  0  0  0  0  0  0  0  0
    0.6510   15.0110   -3.2250 C   0  0  0  0  0  0  0  0  0  0  0  0
   -1.5020   13.7460   -4.0600 C   0  0  0  0  0  0  0  0  0  0  0  0
    0.2940   11.8870   -5.9440 N   0  0  0  0  0  0  0  0  0  0  0  0
    0.2680   16.2080   -4.1110 C   0  0  0  0  0  0  0  0  0  0  0  0
   -1.4110   14.7240   -5.2140 C   0  0  0  0  0  0  0  0  0  0  0  0
    1.1670   11.7050   -7.0830 N   0  0  0  0  0  0  0  0  0  0  0  0
   -0.5430   10.6860   -5.7650 C   0  0  2  0  0  0  0  0  0  0  0  0
   -1.1620   16.1030   -4.6470 C   0  0  2  0  0  0  0  0  0  0  0  0
   -1.5730   17.4720   -5.7140 S   0  0  0  0  0  0  0  0  0  0  0  0
    0.2990   10.9760   -8.0260 C   0  0  2  0  0  0  0  0  0  0  0  0
   -0.3590    9.9540   -7.1110 C   0  0  2  0  0  0  0  0  0  0  0  0
   -2.0330   10.8680   -5.4250 C   0  0  0  0  0  0  0  0  0  0  0  0
    0.9150   10.3260   -9.2770 C   0  0  0  0  0  0  0  0  0  0  0  0
   -1.9970   18.9080   -5.0660 N   0  0  0  0  0  0  0  0  0  0  0  0
   -0.2800   17.7090   -6.6000 O   0  0  0  0  0  0  0  0  0  0  0  0
   -2.7130   16.9650   -6.7010 O   0  0  0  0  0  0  0  0  0  0  0  0
   -1.6340    9.3590   -7.7010 C   0  0  0  0  0  0  0  0  0  0  0  0
   -2.8350    9.5590   -5.5110 C   0  0  0  0  0  0  0  0  0  0  0  0
    1.5940    9.1940   -8.9720 F   0  0  0  0  0  0  0  0  0  0  0  0
   -0.0410    9.9760  -10.1560 F   0  0  0  0  0  0  0  0  0  0  0  0
    1.7250   11.1450   -9.9560 F   0  0  0  0  0  0  0  0  0  0  0  0
   -2.4030    8.6140   -6.6310 C   0  0  0  0  0  0  0  0  0  0  0  0
  1  2  1  0
  2  3  1  6
  1  4  1  0
  5  1  1  6
  2  6  1  0
  5  7  1  0
  5  8  1  0
  6  9  1  0
  7 10  1  0
  8 11  1  0
  9 12  1  0
  9 13  1  0
 10 14  1  0
 11 14  1  0
 14 15  1  6
 12 16  1  0
 13 17  1  0
 16 17  1  0
 13 18  1  6
 16 19  1  6
 15 20  1  0
 15 21  1  0
 15 22  1  0
 17 23  1  6
 18 24  1  0
 19 25  1  0
 19 26  1  0
 19 27  1  0
 23 28  1  0
 24 28  1  0
M  END
