ucsf345-ucsf241
     RDKit          3D

 14 15  0  0  0  0  0  0  0  0999 V2000
   -6.6470   14.6700    1.5540 N   0  0  0  0  0  0  0  0  0  0  0  0
   -6.7460   14.7520    0.1100 C   0  0  2  0  0  0  0  0  0  0  0  0
   -7.4080   13.5960   -0.3280 O   0  0  0  0  0  0  0  0  0  0  0  0
   -5.3700   14.9860   -0.6260 C   0  0  2  0  0  0  0  0  0  0  0  0
   -5.4810   14.8680   -2.0860 N   0  0  0  0  0  0  0  0  0  0  0  0
   -4.1290   14.2060   -0.0850 C   0  0  0  0  0  0  0  0  0  0  0  0
   -4.1830   14.8960   -2.7340 C   0  0  0  0  0  0  0  0  0  0  0  0
   -2.7640   14.7710   -0.5890 C   0  0  2  0  0  0  0  0  0  0  0  0
   -3.0860   15.5370   -1.8820 C   0  0  0  0  0  0  0  0  0  0  0  0
   -1.6280   13.7480   -0.9100 C   0  0  0  0  0  0  0  0  0  0  0  0
   -2.2340   15.6940    0.5220 C   0  0  0  0  0  0  0  0  0  0  0  0
   -0.2420   14.2110   -0.4370 C   0  0  0  0  0  0  0  0  0  0  0  0
   -1.5530   14.9110    1.5390 N   0  0  0  0  0  0  0  0  0  0  0  0
   -0.2480   14.4910    1.0610 C   0  0  0  0  0  0  0  0  0  0  0  0
  2  1  1  1
  2  3  1  0
  2  4  1  0
  4  5  1  0
  4  6  1  1
  5  7  1  0
  8  6  1  1
  7  9  1  0
  8  9  1  0
  8 10  1  0
  8 11  1  0
 10 12  1  0
 11 13  1  0
 12 14  1  0
 13 14  1  0
M  END
