ucsf523-ucsf396
     RDKit          3D

 21 23  0  0  0  0  0  0  0  0999 V2000
    0.6340   13.4870   -0.7710 N   0  0  0  0  0  0  0  0  0  0  0  0
   -0.4430   14.4110   -0.7610 C   0  0  2  0  0  0  0  0  0  0  0  0
   -1.4670   13.8920    0.0680 N   0  0  0  0  0  0  0  0  0  0  0  0
   -0.7790   14.6480   -2.1300 N   0  0  0  0  0  0  0  0  0  0  0  0
   -2.1680   14.5630   -2.5920 C   0  0  1  0  0  0  0  0  0  0  0  0
   -2.7060   14.5980   -0.1060 C   0  0  1  0  0  0  0  0  0  0  0  0
   -2.3650   13.3620   -3.3530 O   0  0  0  0  0  0  0  0  0  0  0  0
   -3.2900   14.5840   -1.5300 C   0  0  1  0  0  0  0  0  0  0  0  0
   -3.7260   14.1560    0.8250 N   0  0  0  0  0  0  0  0  0  0  0  0
   -2.4680   12.1820   -2.5540 C   0  0  1  0  0  0  0  0  0  0  0  0
   -4.7370   15.2190    0.8040 C   0  0  2  0  0  0  0  0  0  0  0  0
   -4.2180   15.7190   -1.6720 N   0  0  0  0  0  0  0  0  0  0  0  0
   -5.8190   14.8030    1.6090 O   0  0  0  0  0  0  0  0  0  0  0  0
   -2.0000   12.4790   -1.2600 O   0  0  0  0  0  0  0  0  0  0  0  0
   -5.2600   15.5700   -0.6410 C   0  0  0  0  0  0  0  0  0  0  0  0
   -3.9320   11.6770   -2.4910 C   0  0  2  0  0  0  0  0  0  0  0  0
   -4.7700   12.0680   -3.7160 C   0  0  0  0  0  0  0  0  0  0  0  0
   -4.6820   12.1330   -1.2190 C   0  0  0  0  0  0  0  0  0  0  0  0
   -6.1570   11.5560   -3.6480 N   0  0  0  0  0  0  0  0  0  0  0  0
   -6.0830   11.5400   -1.1450 C   0  0  0  0  0  0  0  0  0  0  0  0
   -6.8740   11.8700   -2.4040 C   0  0  0  0  0  0  0  0  0  0  0  0
  2  1  1  6
  2  3  1  0
  2  4  1  0
  4  5  1  0
  6  3  1  6
  5  7  1  1
  5  8  1  0
  6  8  1  0
  6  9  1  0
  7 10  1  0
  9 11  1  0
  8 12  1  6
 11 13  1  1
 10 14  1  1
 11 15  1  0
 12 15  1  0
 10 16  1  0
 16 17  1  6
 16 18  1  0
 17 19  1  0
 18 20  1  0
 19 21  1  0
 20 21  1  0
M  END
