ucsf520-ucsf404
     RDKit          3D

 22 25  0  0  0  0  0  0  0  0999 V2000
   -5.1780   16.2160   -0.1280 N   0  0  0  0  0  0  0  0  0  0  0  0
   -3.7840   15.2130    0.4140 S   0  0  0  0  0  0  0  0  0  0  0  0
   -1.8780   15.1240    0.4290 C   0  0  2  0  0  0  0  0  0  0  0  0
   -3.5590   15.3850   -1.1740 N   0  0  0  0  0  0  0  0  0  0  0  0
   -4.4760   13.6290    1.0680 C   0  0  0  0  0  0  0  0  0  0  0  0
   -4.3790   15.2170    2.3980 S   0  0  0  0  0  0  0  0  0  0  0  0
   -5.0500   15.5400   -1.9750 Cl  0  0  0  0  0  0  0  0  0  0  0  0
   -2.9280   14.4070   -1.7750 C   0  0  0  0  0  0  0  0  0  0  0  0
   -1.0160   14.8300   -0.7960 C   0  0  2  0  0  0  0  0  0  0  0  0
   -1.4420   14.1130    1.2100 N   0  0  0  0  0  0  0  0  0  0  0  0
   -5.7790   14.2620    2.4960 C   0  0  2  0  0  0  0  0  0  0  0  0
   -5.8740   13.8990    1.1230 N   0  0  0  0  0  0  0  0  0  0  0  0
   -6.9770   14.8470    3.0500 N   0  0  0  0  0  0  0  0  0  0  0  0
   -1.5910   14.7860   -2.0400 N   0  0  0  0  0  0  0  0  0  0  0  0
    0.0250   13.8750   -0.4240 N   0  0  0  0  0  0  0  0  0  0  0  0
   -0.0850   14.0050    1.0180 C   0  0  0  0  0  0  0  0  0  0  0  0
   -0.9230   14.3230   -3.1680 C   0  0  0  0  0  0  0  0  0  0  0  0
   -0.5060   15.1860   -4.3130 C   0  0  1  0  0  0  0  0  0  0  0  0
   -1.3530   16.3450   -4.2290 O   0  0  0  0  0  0  0  0  0  0  0  0
    0.8380   15.7610   -4.3340 C   0  0  0  0  0  0  0  0  0  0  0  0
    0.7090   17.0160   -5.1680 C   0  0  0  0  0  0  0  0  0  0  0  0
   -0.7740   17.3090   -5.0720 C   0  0  0  0  0  0  0  0  0  0  0  0
  1  2  1  0
  2  3  1  0
  2  4  1  0
  2  5  1  0
  2  6  1  0
  4  7  1  0
  4  8  1  0
  3  9  1  0
  3 10  1  1
  6 11  1  0
  5 12  1  0
 11 12  1  0
 11 13  1  6
  8 14  1  0
  9 14  1  0
  9 15  1  1
 10 16  1  0
 15 16  1  0
 14 17  1  0
 18 17  1  1
 18 19  1  0
 18 20  1  0
 20 21  1  0
 19 22  1  0
 21 22  1  0
M  END
