ucsf511-ucsf387
     RDKit          3D

 25 28  0  0  0  0  0  0  0  0999 V2000
    0.1140   12.5270   -0.8030 O   0  0  0  0  0  0  0  0  0  0  0  0
    0.2370   12.0150   -2.1380 C   0  0  2  0  0  0  0  0  0  0  0  0
    0.5190   10.7150   -1.9980 O   0  0  0  0  0  0  0  0  0  0  0  0
   -0.3410   13.8620   -0.5260 C   0  0  2  0  0  0  0  0  0  0  0  0
    1.4440   12.7810   -2.8000 C   0  0  0  0  0  0  0  0  0  0  0  0
   -1.8410   14.1700   -0.6210 C   0  0  1  0  0  0  0  0  0  0  0  0
    0.3260   14.8590   -1.4030 N   0  0  0  0  0  0  0  0  0  0  0  0
   -2.2750   13.9190   -2.0450 C   0  0  2  0  0  0  0  0  0  0  0  0
   -0.2520   15.0210   -2.7380 C   0  0  0  0  0  0  0  0  0  0  0  0
   -2.8240   13.6040    0.2320 O   0  0  0  0  0  0  0  0  0  0  0  0
    1.0770   13.5460   -4.1070 C   0  0  1  0  0  0  0  0  0  0  0  0
   -1.7270   14.9890   -2.8530 N   0  0  0  0  0  0  0  0  0  0  0  0
   -4.0330   13.9860   -0.4280 C   0  0  2  0  0  0  0  0  0  0  0  0
   -3.7850   13.8400   -1.9410 C   0  0  1  0  0  0  0  0  0  0  0  0
   -0.4240   13.3050   -4.4340 C   0  0  0  0  0  0  0  0  0  0  0  0
    1.5190   15.0490   -4.0720 C   0  0  0  0  0  0  0  0  0  0  0  0
   -4.5870   14.8480   -2.7580 C   0  0  0  0  0  0  0  0  0  0  0  0
   -4.5030   15.3890   -0.0920 C   0  0  0  0  0  0  0  0  0  0  0  0
   -1.0560   14.2950   -5.3890 C   0  0  1  0  0  0  0  0  0  0  0  0
    0.6990   16.0530   -4.9210 C   0  0  2  0  0  0  0  0  0  0  0  0
    0.8450   17.7630   -4.3960 Cl  0  0  0  0  0  0  0  0  0  0  0  0
   -2.8200   14.0450   -5.5610 Cl  0  0  0  0  0  0  0  0  0  0  0  0
   -5.9710   15.0790   -2.1410 C   0  0  0  0  0  0  0  0  0  0  0  0
   -5.8560   15.6750   -0.7490 C   0  0  0  0  0  0  0  0  0  0  0  0
   -0.7890   15.7630   -5.0380 C   0  0  0  0  0  0  0  0  0  0  0  0
  1  2  1  0
  2  3  1  1
  4  1  1  6
  2  5  1  0
  4  6  1  0
  4  7  1  0
  6  8  1  0
  7  9  1  0
  6 10  1  1
 11  5  1  1
  8 12  1  6
  9 12  1  0
 10 13  1  0
  8 14  1  0
 13 14  1  0
 11 15  1  0
 11 16  1  0
 14 17  1  6
 13 18  1  6
 15 19  1  0
 16 20  1  0
 20 21  1  1
 19 22  1  1
 17 23  1  0
 18 24  1  0
 23 24  1  0
 19 25  1  0
 20 25  1  0
M  CHG  1   3  -1
M  END
