ucsf403-ucsf348
     RDKit          3D

 27 29  0  0  0  0  0  0  0  0999 V2000
    0.8150    9.1240   -7.9490 Cl  0  0  0  0  0  0  0  0  0  0  0  0
   -0.7090    9.7480   -7.1840 C   0  0  2  0  0  0  0  0  0  0  0  0
   -0.5400   11.0900   -6.4190 C   0  0  2  0  0  0  0  0  0  0  0  0
   -1.2900    8.6190   -6.3230 C   0  0  0  0  0  0  0  0  0  0  0  0
    0.7770   11.2750   -5.8900 O   0  0  0  0  0  0  0  0  0  0  0  0
   -1.5760   11.2040   -5.2720 C   0  0  1  0  0  0  0  0  0  0  0  0
   -2.6920    8.9310   -5.8330 C   0  0  0  0  0  0  0  0  0  0  0  0
   -1.8940   12.6910   -4.9780 C   0  0  0  0  0  0  0  0  0  0  0  0
    1.0200   12.4020   -5.0230 C   0  0  0  0  0  0  0  0  0  0  0  0
   -2.8790   10.4270   -5.5820 C   0  0  0  0  0  0  0  0  0  0  0  0
    0.7050   12.1330   -3.5110 C   0  0  2  0  0  0  0  0  0  0  0  0
   -2.6850   12.9450   -3.6930 C   0  0  0  0  0  0  0  0  0  0  0  0
    1.7590   12.3460   -2.7500 O   0  0  0  0  0  0  0  0  0  0  0  0
    0.4910   10.7540   -3.2690 O   0  0  0  0  0  0  0  0  0  0  0  0
   -1.7780   13.3720   -2.5380 C   0  0  0  0  0  0  0  0  0  0  0  0
   -2.3990   14.4970   -1.7040 C   0  0  2  0  0  0  0  0  0  0  0  0
   -1.8110   14.4890   -0.2740 C   0  0  0  0  0  0  0  0  0  0  0  0
   -3.9300   14.3790   -1.7390 C   0  0  0  0  0  0  0  0  0  0  0  0
   -4.5820   15.4560   -0.9050 C   0  0  1  0  0  0  0  0  0  0  0  0
   -2.8750   14.5090    0.8230 C   0  0  0  0  0  0  0  0  0  0  0  0
   -6.1250   15.5200   -1.0480 C   0  0  1  0  0  0  0  0  0  0  0  0
   -4.0350   15.4840    0.5460 C   0  0  2  0  0  0  0  0  0  0  0  0
   -6.5610   15.0720   -2.3340 O   0  0  0  0  0  0  0  0  0  0  0  0
   -6.8960   14.8280   -0.0020 N   0  0  0  0  0  0  0  0  0  0  0  0
   -5.0700   15.2490    1.5240 N   0  0  0  0  0  0  0  0  0  0  0  0
   -6.1220   14.4020    1.1260 C   0  0  1  0  0  0  0  0  0  0  0  0
   -7.0000   14.4860    2.2510 N   0  0  0  0  0  0  0  0  0  0  0  0
  2  1  1  1
  2  3  1  0
  2  4  1  0
  3  5  1  1
  3  6  1  0
  4  7  1  0
  6  8  1  6
  5  9  1  0
  6 10  1  0
  7 10  1  0
  9 11  1  0
  8 12  1  0
 11 13  1  1
 11 14  1  0
 12 15  1  0
 16 15  1  6
 16 17  1  0
 16 18  1  0
 19 18  1  1
 17 20  1  0
 19 21  1  0
 19 22  1  0
 22 20  1  6
 21 23  1  6
 21 24  1  0
 22 25  1  0
 24 26  1  0
 25 26  1  0
 26 27  1  1
M  CHG  1  13  -1
M  END
