ucsf170-ucsf264
     RDKit          3D

 27 29  0  0  0  0  0  0  0  0999 V2000
   -4.5780   15.2980    1.1840 C   0  0  0  0  0  0  0  0  0  0  0  0
   -2.8210   14.9080    0.9590 S   0  0  0  0  0  0  0  0  0  0  0  0
   -2.5780   15.3770   -0.8160 C   0  0  1  0  0  0  0  0  0  0  0  0
   -1.2970   14.7510   -1.4000 C   0  0  0  0  0  0  0  0  0  0  0  0
   -3.7950   15.0880   -1.6990 C   0  0  0  0  0  0  0  0  0  0  0  0
   -1.4870   13.8630   -2.6790 C   0  0  2  0  0  0  0  0  0  0  0  0
   -3.5430   15.2900   -3.1960 C   0  0  0  0  0  0  0  0  0  0  0  0
   -0.2050   13.0980   -3.1680 C   0  0  2  0  0  0  0  0  0  0  0  0
   -2.3980   14.4660   -3.7590 C   0  0  1  0  0  0  0  0  0  0  0  0
   -1.6660   15.1800   -4.7440 O   0  0  0  0  0  0  0  0  0  0  0  0
    0.8200   13.3680   -2.1930 O   0  0  0  0  0  0  0  0  0  0  0  0
    0.4420   13.0940   -4.5290 N   0  0  0  0  0  0  0  0  0  0  0  0
    1.7830   12.7470   -4.1960 C   0  0  0  0  0  0  0  0  0  0  0  0
   -0.0860   12.3500   -5.7000 N   0  0  0  0  0  0  0  0  0  0  0  0
    1.7500   11.7340   -3.2180 O   0  0  0  0  0  0  0  0  0  0  0  0
    0.8970   12.1840   -6.8010 N   0  0  0  0  0  0  0  0  0  0  0  0
   -0.7910   11.0510   -5.5860 C   0  0  2  0  0  0  0  0  0  0  0  0
    0.8450   10.8020   -7.4010 C   0  0  1  0  0  0  0  0  0  0  0  0
   -0.3060   10.1000   -6.6910 C   0  0  2  0  0  0  0  0  0  0  0  0
   -2.2880   10.9200   -5.3140 C   0  0  0  0  0  0  0  0  0  0  0  0
    0.8750   10.4790   -8.9320 C   0  0  0  0  0  0  0  0  0  0  0  0
   -1.4420    9.6110   -7.5910 C   0  0  0  0  0  0  0  0  0  0  0  0
   -2.8160    9.4780   -5.4650 C   0  0  0  0  0  0  0  0  0  0  0  0
    1.3820    9.2370   -9.1170 F   0  0  0  0  0  0  0  0  0  0  0  0
   -0.3390   10.4820   -9.5130 F   0  0  0  0  0  0  0  0  0  0  0  0
    1.6170   11.2790   -9.7020 F   0  0  0  0  0  0  0  0  0  0  0  0
   -2.4800    8.8190   -6.7990 C   0  0  0  0  0  0  0  0  0  0  0  0
  1  2  1  0
  3  2  1  1
  3  4  1  0
  3  5  1  0
  6  4  1  1
  5  7  1  0
  6  8  1  0
  6  9  1  0
  7  9  1  0
  9 10  1  6
  8 11  1  1
  8 12  1  0
 12 13  1  0
 12 14  1  0
 13 15  1  0
 14 16  1  0
 14 17  1  0
 16 18  1  0
 17 19  1  0
 18 19  1  0
 17 20  1  6
 18 21  1  6
 19 22  1  6
 20 23  1  0
 21 24  1  0
 21 25  1  0
 21 26  1  0
 22 27  1  0
 23 27  1  0
M  END
