ucsf170-ucsf169
     RDKit          3D

 22 23  0  0  0  0  0  0  0  0999 V2000
   -4.7240   15.2280    1.4180 C   0  0  0  0  0  0  0  0  0  0  0  0
   -2.9490   14.9100    1.2900 S   0  0  0  0  0  0  0  0  0  0  0  0
   -2.7230   15.5560   -0.4180 C   0  0  1  0  0  0  0  0  0  0  0  0
   -1.3860   15.0830   -0.9960 C   0  0  0  0  0  0  0  0  0  0  0  0
   -3.9390   15.1800   -1.2640 C   0  0  0  0  0  0  0  0  0  0  0  0
   -1.4730   13.8440   -1.9180 C   0  0  2  0  0  0  0  0  0  0  0  0
   -3.6090   15.1120   -2.7380 C   0  0  0  0  0  0  0  0  0  0  0  0
   -0.0600   13.3570   -2.3870 C   0  0  2  0  0  0  0  0  0  0  0  0
   -2.5380   14.0710   -3.0240 C   0  0  1  0  0  0  0  0  0  0  0  0
   -1.9500   14.3710   -4.2720 O   0  0  0  0  0  0  0  0  0  0  0  0
    0.6940   13.1010   -1.2260 O   0  0  0  0  0  0  0  0  0  0  0  0
    0.5790   14.2900   -3.2600 O   0  0  0  0  0  0  0  0  0  0  0  0
   -0.1200   12.1540   -2.9210 O   0  0  0  0  0  0  0  0  0  0  0  0
    0.2150   14.5060   -4.6380 C   0  0  1  0  0  0  0  0  0  0  0  0
   -1.2640   14.3500   -5.0610 C   0  0  0  0  0  0  0  0  0  0  0  0
    0.6640   15.9350   -4.9360 C   0  0  0  0  0  0  0  0  0  0  0  0
   -0.1520   17.0150   -4.2180 C   0  0  1  0  0  0  0  0  0  0  0  0
   -2.1470   15.6330   -5.0730 C   0  0  0  0  0  0  0  0  0  0  0  0
    0.0050   18.3000   -4.8780 O   0  0  0  0  0  0  0  0  0  0  0  0
   -1.6640   16.7870   -4.2050 C   0  0  2  0  0  0  0  0  0  0  0  0
    1.1990   18.4190   -5.6340 C   0  0  0  0  0  0  0  0  0  0  0  0
   -2.2560   18.0040   -4.6860 O   0  0  0  0  0  0  0  0  0  0  0  0
  1  2  1  0
  3  2  1  1
  3  4  1  0
  3  5  1  0
  6  4  1  6
  5  7  1  0
  6  8  1  0
  6  9  1  0
  7  9  1  0
  9 10  1  6
  8 11  1  1
  8 12  1  0
  8 13  1  0
 14 12  1  1
 14 15  1  0
 14 16  1  0
 16 17  1  0
 15 18  1  0
 17 19  1  6
 17 20  1  0
 18 20  1  0
 19 21  1  0
 20 22  1  6
M  CHG  1  13  -1
M  END
