ucsf404-ucsf523
     RDKit          3D

 18 20  0  0  0  0  0  0  0  0999 V2000
   -6.9520   15.0660   -2.5430 Cl  0  0  0  0  0  0  0  0  0  0  0  0
   -5.4210   14.5760   -1.7640 C   0  0  2  0  0  0  0  0  0  0  0  0
   -5.3560   15.2100   -0.3870 C   0  0  1  0  0  0  0  0  0  0  0  0
   -4.2090   14.8900   -2.6470 C   0  0  0  0  0  0  0  0  0  0  0  0
   -6.4840   14.7720    0.4740 N   0  0  0  0  0  0  0  0  0  0  0  0
   -4.0420   14.8990    0.3360 C   0  0  1  0  0  0  0  0  0  0  0  0
   -3.0690   15.5870   -1.9160 C   0  0  0  0  0  0  0  0  0  0  0  0
   -5.9090   14.5370    1.7600 C   0  0  2  0  0  0  0  0  0  0  0  0
   -4.4890   13.5190    1.4310 S   0  0  0  0  0  0  0  0  0  0  0  0
   -2.7570   15.0010   -0.5430 C   0  0  2  0  0  0  0  0  0  0  0  0
   -6.9460   13.9420    2.5320 N   0  0  0  0  0  0  0  0  0  0  0  0
   -1.7690   13.8490   -0.8010 C   0  0  1  0  0  0  0  0  0  0  0  0
   -1.9820   15.9190    0.3300 C   0  0  0  0  0  0  0  0  0  0  0  0
   -1.7600   13.5720   -2.1860 O   0  0  0  0  0  0  0  0  0  0  0  0
   -0.3870   14.1820   -0.4760 N   0  0  0  0  0  0  0  0  0  0  0  0
   -1.4100   15.1330    1.3740 N   0  0  0  0  0  0  0  0  0  0  0  0
   -0.2120   14.6800    0.8470 C   0  0  1  0  0  0  0  0  0  0  0  0
    0.1080   13.5650    1.6050 N   0  0  0  0  0  0  0  0  0  0  0  0
  2  1  1  6
  2  3  1  0
  2  4  1  0
  3  5  1  1
  3  6  1  0
  4  7  1  0
  5  8  1  0
  6  9  1  6
  8  9  1  0
  6 10  1  0
 10  7  1  6
  8 11  1  1
 10 12  1  0
 10 13  1  0
 12 14  1  6
 12 15  1  0
 13 16  1  0
 15 17  1  0
 16 17  1  0
 17 18  1  1
M  END
