ucsf523-ucsf520
     RDKit          3D

 18 20  0  0  0  0  0  0  0  0999 V2000
    0.1180   13.6120    1.3170 N   0  0  0  0  0  0  0  0  0  0  0  0
   -0.6320   14.6460    0.7510 C   0  0  2  0  0  0  0  0  0  0  0  0
   -1.8530   14.4600    1.4290 N   0  0  0  0  0  0  0  0  0  0  0  0
   -0.7490   14.2920   -0.6190 N   0  0  0  0  0  0  0  0  0  0  0  0
   -1.5050   15.3280   -1.2910 C   0  0  1  0  0  0  0  0  0  0  0  0
   -3.0240   15.0580    0.8310 C   0  0  1  0  0  0  0  0  0  0  0  0
   -1.6020   15.1630   -2.7240 O   0  0  0  0  0  0  0  0  0  0  0  0
   -2.9160   15.5500   -0.6620 C   0  0  2  0  0  0  0  0  0  0  0  0
   -4.0310   14.0360    1.0480 N   0  0  0  0  0  0  0  0  0  0  0  0
   -5.3290   14.4290    0.5390 C   0  0  1  0  0  0  0  0  0  0  0  0
   -4.0510   15.1160   -1.5190 N   0  0  0  0  0  0  0  0  0  0  0  0
   -0.8250   16.1630   -3.4010 C   0  0  2  0  0  0  0  0  0  0  0  0
   -6.0060   15.0390    1.6130 O   0  0  0  0  0  0  0  0  0  0  0  0
   -5.2890   15.3200   -0.7380 C   0  0  0  0  0  0  0  0  0  0  0  0
   -1.6260   17.0980   -4.1520 O   0  0  0  0  0  0  0  0  0  0  0  0
    0.1080   15.5590   -4.4370 C   0  0  0  0  0  0  0  0  0  0  0  0
    0.5460   16.8360   -5.1140 C   0  0  0  0  0  0  0  0  0  0  0  0
   -0.7650   17.6030   -5.1930 C   0  0  0  0  0  0  0  0  0  0  0  0
  2  1  1  1
  2  3  1  0
  2  4  1  0
  4  5  1  0
  6  3  1  6
  5  7  1  6
  5  8  1  0
  6  8  1  0
  6  9  1  0
  9 10  1  0
  8 11  1  6
 12  7  1  6
 10 13  1  1
 10 14  1  0
 11 14  1  0
 12 15  1  0
 12 16  1  0
 16 17  1  0
 15 18  1  0
 17 18  1  0
M  END
