ucsf017-ucsf520
     RDKit          3D

 24 28  0  0  0  0  0  0  0  0999 V2000
   -2.4600   15.6130   -2.9470 C   0  0  0  0  0  0  0  0  0  0  0  0
   -1.1600   16.3300   -3.4350 C   0  0  2  0  0  0  0  0  0  0  0  0
   -1.5950   17.5120   -4.1490 O   0  0  0  0  0  0  0  0  0  0  0  0
   -2.6940   15.6000   -1.4160 C   0  0  2  0  0  0  0  0  0  0  0  0
   -2.0910   14.3800   -0.8290 C   0  0  2  0  0  0  0  0  0  0  0  0
   -4.0810   15.4400   -0.7730 C   0  0  0  0  0  0  0  0  0  0  0  0
   -0.1950   15.6350   -4.4100 C   0  0  0  0  0  0  0  0  0  0  0  0
   -2.4720   14.5250    0.6390 C   0  0  2  0  0  0  0  0  0  0  0  0
   -0.5890   14.3090   -1.0010 C   0  0  2  0  0  0  0  0  0  0  0  0
   -3.7370   15.2560    0.6610 N   0  0  0  0  0  0  0  0  0  0  0  0
    0.5050   16.8170   -5.0190 C   0  0  0  0  0  0  0  0  0  0  0  0
   -0.6540   17.7670   -5.2070 C   0  0  0  0  0  0  0  0  0  0  0  0
   -0.1750   13.6840   -2.2570 N   0  0  0  0  0  0  0  0  0  0  0  0
    0.0660   13.7410    0.1710 N   0  0  0  0  0  0  0  0  0  0  0  0
   -1.4570   15.2000    1.3670 N   0  0  0  0  0  0  0  0  0  0  0  0
   -1.1670   13.4200   -3.3040 C   0  0  1  0  0  0  0  0  0  0  0  0
    0.7560   12.5780   -2.1600 C   0  0  0  0  0  0  0  0  0  0  0  0
   -0.2010   14.4770    1.3800 C   0  0  0  0  0  0  0  0  0  0  0  0
   -2.2310   14.3910   -3.8350 C   0  0  0  0  0  0  0  0  0  0  0  0
   -0.4930   12.9300   -4.5670 C   0  0  2  0  0  0  0  0  0  0  0  0
    0.2080   11.3070   -2.8060 C   0  0  0  0  0  0  0  0  0  0  0  0
   -1.5910   13.0080   -5.6070 C   0  0  0  0  0  0  0  0  0  0  0  0
   -2.4230   14.1150   -5.2420 O   0  0  0  0  0  0  0  0  0  0  0  0
   -0.0200   11.5110   -4.3050 C   0  0  0  0  0  0  0  0  0  0  0  0
  2  1  1  6
  2  3  1  0
  4  1  1  6
  5  4  1  6
  4  6  1  0
  2  7  1  0
  5  8  1  0
  5  9  1  0
  6 10  1  0
  8 10  1  6
  7 11  1  0
  3 12  1  0
 11 12  1  0
  9 13  1  6
  9 14  1  0
  8 15  1  0
 13 16  1  0
 13 17  1  0
 14 18  1  0
 15 18  1  0
 16 19  1  6
 16 20  1  0
 17 21  1  0
 20 22  1  6
 19 23  1  0
 22 23  1  0
 20 24  1  0
 21 24  1  0
M  END
