ucsf135-ucsf138
     RDKit          3D

 24 27  0  0  0  0  0  0  0  0999 V2000
   -0.0150   12.2130   -7.4340 O   0  0  0  0  0  0  0  0  0  0  0  0
    0.8610   11.3020   -6.9280 C   0  0  2  0  0  0  0  0  0  0  0  0
    1.9540   11.8460   -6.1970 N   0  0  0  0  0  0  0  0  0  0  0  0
   -0.9300   12.3990   -6.3780 C   0  0  2  0  0  0  0  0  0  0  0  0
    1.2190   10.1900   -7.7980 N   0  0  0  0  0  0  0  0  0  0  0  0
   -1.3750   11.7190   -4.7170 S   0  0  2  0  0  0  0  0  0  0  0  0
   -1.5640   11.0250   -6.6770 C   0  0  2  0  0  0  0  0  0  0  0  0
   -1.9430   12.9010   -3.8010 O   0  0  0  0  0  0  0  0  0  0  0  0
   -0.1180   10.9900   -4.0100 O   0  0  0  0  0  0  0  0  0  0  0  0
    1.6600   12.5660   -4.9450 C   0  0  0  0  0  0  0  0  0  0  0  0
   -2.7670   10.6100   -5.0330 C   0  0  1  0  0  0  0  0  0  0  0  0
   -1.3010   10.2530   -7.9570 C   0  0  0  0  0  0  0  0  0  0  0  0
    1.2160   10.0920   -9.2600 C   0  0  0  0  0  0  0  0  0  0  0  0
   -3.0310   11.2090   -6.3610 C   0  0  0  0  0  0  0  0  0  0  0  0
    1.1400   11.6740   -3.7400 C   0  0  1  0  0  0  0  0  0  0  0  0
   -2.4820    9.1130   -5.2340 C   0  0  0  0  0  0  0  0  0  0  0  0
   -1.7120    8.7860   -7.8440 C   0  0  0  0  0  0  0  0  0  0  0  0
   -0.0700   10.1960  -10.0830 C   0  0  0  0  0  0  0  0  0  0  0  0
    1.7090    8.6590   -9.4550 C   0  0  0  0  0  0  0  0  0  0  0  0
    0.9980   12.4200   -2.6490 O   0  0  0  0  0  0  0  0  0  0  0  0
   -2.6240    8.4390   -6.6360 C   0  0  0  0  0  0  0  0  0  0  0  0
    0.1730    9.8360  -11.5630 C   0  0  0  0  0  0  0  0  0  0  0  0
    2.1210    8.3920  -10.8730 C   0  0  0  0  0  0  0  0  0  0  0  0
    0.9130    8.5120  -11.7810 C   0  0  0  0  0  0  0  0  0  0  0  0
  1  2  1  0
  2  3  1  0
  4  1  1  1
  2  5  1  6
  4  6  1  0
  4  7  1  0
  6  8  1  1
  6  9  1  0
  3 10  1  0
  6 11  1  0
  7 12  1  6
  5 13  1  0
  7 14  1  0
 11 14  1  0
  9 15  1  0
 10 15  1  0
 11 16  1  6
 12 17  1  0
 13 18  1  0
 13 19  1  0
 15 20  1  1
 16 21  1  0
 17 21  1  0
 18 22  1  0
 19 23  1  0
 22 24  1  0
 23 24  1  0
M  CHG  1  20  -1
M  END
