ucsf333-ucsf493
     RDKit          3D

 26 29  0  0  0  0  0  0  0  0999 V2000
   -6.4560   15.3010   -1.7890 Cl  0  0  0  0  0  0  0  0  0  0  0  0
   -4.8240   14.8480   -1.1920 C   0  0  1  0  0  0  0  0  0  0  0  0
   -3.7950   15.0450   -2.3290 C   0  0  0  0  0  0  0  0  0  0  0  0
   -4.5730   15.6100    0.1160 C   0  0  0  0  0  0  0  0  0  0  0  0
   -2.3760   15.2760   -1.8080 C   0  0  2  0  0  0  0  0  0  0  0  0
   -3.1520   15.5200    0.6330 C   0  0  0  0  0  0  0  0  0  0  0  0
   -1.3500   14.5150   -2.5360 N   0  0  0  0  0  0  0  0  0  0  0  0
   -2.2500   14.8190   -0.3620 C   0  0  2  0  0  0  0  0  0  0  0  0
   -0.3500   14.0220   -1.5490 C   0  0  2  0  0  0  0  0  0  0  0  0
   -0.4940   15.1140   -0.1080 S   0  0  0  0  0  0  0  0  0  0  0  0
    1.1070   13.9530   -1.9810 C   0  0  0  0  0  0  0  0  0  0  0  0
    1.2480   13.0900   -3.2220 C   0  0  1  0  0  0  0  0  0  0  0  0
    0.6030   11.6710   -3.0010 C   0  0  1  0  0  0  0  0  0  0  0  0
    0.8920   14.2210   -4.2330 C   0  0  2  0  0  0  0  0  0  0  0  0
    0.7500   11.2250   -1.7490 O   0  0  0  0  0  0  0  0  0  0  0  0
   -0.7910   11.6910   -3.1080 O   0  0  0  0  0  0  0  0  0  0  0  0
   -0.3070   15.1970   -4.1940 C   0  0  2  0  0  0  0  0  0  0  0  0
    1.1220   14.2620   -5.6620 C   0  0  0  0  0  0  0  0  0  0  0  0
   -1.6130   14.9620   -4.9750 C   0  0  0  0  0  0  0  0  0  0  0  0
    0.4780   16.3930   -4.7150 C   0  0  1  0  0  0  0  0  0  0  0  0
    1.3200   15.7730   -5.7360 N   0  0  0  0  0  0  0  0  0  0  0  0
   -2.3850   16.2260   -5.4060 C   0  0  1  0  0  0  0  0  0  0  0  0
   -0.3120   17.5630   -5.3060 C   0  0  0  0  0  0  0  0  0  0  0  0
   -3.7070   16.0360   -4.9330 O   0  0  0  0  0  0  0  0  0  0  0  0
   -1.7510   17.4970   -4.8600 C   0  0  0  0  0  0  0  0  0  0  0  0
   -4.4360   15.1670   -5.7950 C   0  0  0  0  0  0  0  0  0  0  0  0
  2  1  1  6
  2  3  1  0
  2  4  1  0
  5  3  1  6
  4  6  1  0
  5  7  1  0
  5  8  1  0
  8  6  1  1
  7  9  1  0
  8 10  1  0
  9 10  1  0
  9 11  1  6
 12 11  1  1
 12 13  1  0
 12 14  1  0
 13 15  1  1
 13 16  1  0
 14 17  1  0
 14 18  1  6
 17 19  1  6
 17 20  1  0
 18 21  1  0
 20 21  1  0
 19 22  1  0
 20 23  1  6
 22 24  1  1
 22 25  1  0
 23 25  1  0
 24 26  1  0
M  CHG  1  15  -1
M  END
