ucsf248-ucsf387
     RDKit          3D

 27 29  0  0  0  0  0  0  0  0999 V2000
   -8.5100   12.7050    2.7340 N   0  0  0  0  0  0  0  0  0  0  0  0
   -8.5730   14.2320    2.1210 S   0  0  0  0  0  0  0  0  0  0  0  0
   -8.2980   15.3240    3.2620 O   0  0  0  0  0  0  0  0  0  0  0  0
  -10.0090   14.5740    1.4910 O   0  0  0  0  0  0  0  0  0  0  0  0
   -7.4330   14.7380    0.8150 C   0  0  1  0  0  0  0  0  0  0  0  0
   -6.0870   14.8830    1.3880 N   0  0  0  0  0  0  0  0  0  0  0  0
   -7.3510   13.8280   -0.2870 N   0  0  0  0  0  0  0  0  0  0  0  0
   -5.0840   14.3140    0.4960 C   0  0  1  0  0  0  0  0  0  0  0  0
   -5.9400   13.7820   -0.6510 C   0  0  2  0  0  0  0  0  0  0  0  0
   -3.9290   15.2990    0.1560 C   0  0  0  0  0  0  0  0  0  0  0  0
   -5.5800   14.4250   -1.9560 C   0  0  0  0  0  0  0  0  0  0  0  0
   -3.3410   15.2160   -1.2640 C   0  0  0  0  0  0  0  0  0  0  0  0
   -4.0910   14.2030   -2.1000 C   0  0  2  0  0  0  0  0  0  0  0  0
   -3.6180   13.9570   -3.5350 C   0  0  0  0  0  0  0  0  0  0  0  0
   -4.0460   15.0490   -4.4840 C   0  0  0  0  0  0  0  0  0  0  0  0
   -2.9850   15.3970   -5.5040 C   0  0  0  0  0  0  0  0  0  0  0  0
   -1.6310   15.4670   -4.8180 C   0  0  1  0  0  0  0  0  0  0  0  0
   -0.7710   14.2300   -5.0160 C   0  0  0  0  0  0  0  0  0  0  0  0
   -0.8750   16.7280   -5.1970 C   0  0  0  0  0  0  0  0  0  0  0  0
    0.3080   14.2900   -3.9520 C   0  0  1  0  0  0  0  0  0  0  0  0
    0.6450   16.6480   -5.0400 C   0  0  1  0  0  0  0  0  0  0  0  0
    1.0530   18.1840   -4.2680 Cl  0  0  0  0  0  0  0  0  0  0  0  0
    0.9010   12.8890   -3.5740 C   0  0  0  0  0  0  0  0  0  0  0  0
    1.2560   15.4530   -4.2580 C   0  0  0  0  0  0  0  0  0  0  0  0
    0.1630   12.0310   -2.4900 C   0  0  1  0  0  0  0  0  0  0  0  0
    0.5560   10.7720   -2.3780 O   0  0  0  0  0  0  0  0  0  0  0  0
    0.4350   12.5530   -1.2100 O   0  0  0  0  0  0  0  0  0  0  0  0
  1  2  1  0
  2  3  1  0
  2  4  1  0
  5  2  1  1
  5  6  1  0
  5  7  1  0
  6  8  1  0
  7  9  1  0
  8  9  1  0
  8 10  1  6
  9 11  1  6
 10 12  1  0
 11 13  1  0
 12 13  1  0
 13 14  1  6
 14 15  1  0
 15 16  1  0
 17 16  1  6
 17 18  1  0
 17 19  1  0
 18 20  1  0
 19 21  1  0
 21 22  1  1
 20 23  1  6
 20 24  1  0
 21 24  1  0
 23 25  1  0
 25 26  1  1
 25 27  1  0
M  CHG  1  26  -1
M  END
