ucsf516-ucsf303
     RDKit          3D

 27 31  0  0  0  0  0  0  0  0999 V2000
   -3.2580   13.8070   -3.2800 O   0  0  0  0  0  0  0  0  0  0  0  0
   -4.4120   14.3340   -2.2960 S   0  0  0  0  0  0  0  0  0  0  0  0
   -5.2050   15.3960   -3.1320 O   0  0  0  0  0  0  0  0  0  0  0  0
   -5.4390   13.1600   -1.8550 N   0  0  0  0  0  0  0  0  0  0  0  0
   -3.6400   15.2970   -1.0690 C   0  0  2  0  0  0  0  0  0  0  0  0
   -2.4370   14.5530   -0.5670 C   0  0  2  0  0  0  0  0  0  0  0  0
   -4.5170   15.5210    0.1490 C   0  0  0  0  0  0  0  0  0  0  0  0
   -5.2910   11.7880   -2.2320 C   0  0  2  0  0  0  0  0  0  0  0  0
   -2.4670   14.7570    0.9260 C   0  0  2  0  0  0  0  0  0  0  0  0
   -1.1580   15.1270   -1.1890 C   0  0  2  0  0  0  0  0  0  0  0  0
   -3.6120   15.5760    1.2970 N   0  0  0  0  0  0  0  0  0  0  0  0
   -5.8040   10.8720   -1.2290 N   0  0  0  0  0  0  0  0  0  0  0  0
   -3.5340   11.4150   -2.3160 S   0  0  0  0  0  0  0  0  0  0  0  0
   -1.1610   14.8750   -2.6440 N   0  0  0  0  0  0  0  0  0  0  0  0
   -0.0270   14.5230   -0.5260 N   0  0  0  0  0  0  0  0  0  0  0  0
   -1.2640   15.3440    1.3850 N   0  0  0  0  0  0  0  0  0  0  0  0
   -3.8900    9.6740   -2.0420 C   0  0  0  0  0  0  0  0  0  0  0  0
   -5.2590    9.5320   -1.4980 N   0  0  0  0  0  0  0  0  0  0  0  0
    0.0310   14.4950   -3.4500 C   0  0  1  0  0  0  0  0  0  0  0  0
   -2.0270   15.6850   -3.5140 C   0  0  0  0  0  0  0  0  0  0  0  0
   -0.0260   14.7850    0.9050 C   0  0  0  0  0  0  0  0  0  0  0  0
    0.2310   13.0020   -3.6120 C   0  0  0  0  0  0  0  0  0  0  0  0
   -0.1970   15.0860   -4.8430 C   0  0  0  0  0  0  0  0  0  0  0  0
   -1.7030   15.1940   -4.9100 C   0  0  0  0  0  0  0  0  0  0  0  0
    1.5060   12.3290   -3.0570 C   0  0  0  0  0  0  0  0  0  0  0  0
   -0.5320   12.1160   -2.6010 C   0  0  0  0  0  0  0  0  0  0  0  0
    0.5750   11.1040   -2.8340 C   0  0  0  0  0  0  0  0  0  0  0  0
  2  1  1  0
  2  3  1  0
  2  4  1  0
  5  2  1  6
  6  5  1  6
  5  7  1  0
  8  4  1  1
  6  9  1  0
  6 10  1  0
  7 11  1  0
  9 11  1  6
  8 12  1  0
  8 13  1  0
 10 14  1  6
 10 15  1  0
  9 16  1  0
 13 17  1  0
 12 18  1  0
 17 18  1  0
 14 19  1  0
 14 20  1  0
 15 21  1  0
 16 21  1  0
 19 22  1  6
 19 23  1  0
 20 24  1  0
 23 24  1  0
 22 25  1  0
 22 26  1  0
 25 27  1  0
 26 27  1  0
M  END
