ucsf030-ucsf224
     RDKit          3D

 23 25  0  0  0  0  0  0  0  0999 V2000
   -4.5150   15.5280   -0.9940 Cl  0  0  0  0  0  0  0  0  0  0  0  0
   -3.0100   14.7310   -0.4100 C   0  0  2  0  0  0  0  0  0  0  0  0
   -3.0400   14.5140    1.0850 C   0  0  2  0  0  0  0  0  0  0  0  0
   -1.7250   15.5260   -0.6850 C   0  0  1  0  0  0  0  0  0  0  0  0
   -4.0220   15.3470    1.7650 N   0  0  0  0  0  0  0  0  0  0  0  0
   -0.5440   14.7600   -0.2780 N   0  0  0  0  0  0  0  0  0  0  0  0
   -1.7970   14.8460    1.7400 N   0  0  0  0  0  0  0  0  0  0  0  0
   -1.6600   15.8310   -2.0970 N   0  0  0  0  0  0  0  0  0  0  0  0
   -0.5500   14.3960    1.1170 C   0  0  0  0  0  0  0  0  0  0  0  0
   -0.2930   16.1380   -2.4500 C   0  0  0  0  0  0  0  0  0  0  0  0
   -2.2390   14.7090   -2.8680 C   0  0  0  0  0  0  0  0  0  0  0  0
    0.3590   14.9210   -3.1400 C   0  0  0  0  0  0  0  0  0  0  0  0
   -1.8320   14.6040   -4.3360 C   0  0  1  0  0  0  0  0  0  0  0  0
   -2.9200   15.6070   -5.3590 Cl  0  0  0  0  0  0  0  0  0  0  0  0
    1.9330   14.8850   -3.1900 C   0  0  0  0  0  0  0  0  0  0  0  0
    0.5070   13.7620   -2.0520 C   0  0  0  0  0  0  0  0  0  0  0  0
   -0.3020   14.7660   -4.5440 C   0  0  1  0  0  0  0  0  0  0  0  0
   -0.0870   16.4350   -5.3250 Cl  0  0  0  0  0  0  0  0  0  0  0  0
    0.5490   13.6050   -5.1830 C   0  0  0  0  0  0  0  0  0  0  0  0
    1.9410   14.2720   -1.7740 C   0  0  0  0  0  0  0  0  0  0  0  0
    0.8600   12.3200   -4.3480 C   0  0  2  0  0  0  0  0  0  0  0  0
   -0.2300   11.8400   -3.7770 O   0  0  0  0  0  0  0  0  0  0  0  0
    1.6380   12.5800   -3.1960 O   0  0  0  0  0  0  0  0  0  0  0  0
  2  1  1  1
  2  3  1  0
  2  4  1  0
  3  5  1  1
  4  6  1  0
  3  7  1  0
  4  8  1  6
  6  9  1  0
  7  9  1  0
  8 10  1  0
  8 11  1  0
 12 10  1  0
 11 13  1  0
 13 14  1  6
 12 15  1  0
 12 16  1  0
 12 17  1  0
 13 17  1  0
 17 18  1  0
 17 19  1  6
 15 20  1  0
 16 20  1  0
 19 21  1  0
 21 22  1  1
 21 23  1  0
M  CHG  1  22  -1
M  END
