ucsf241-ucsf520
     RDKit          3D

 15 17  0  0  0  0  0  0  0  0999 V2000
   -2.6560   15.2900   -3.1700 C   0  0  0  0  0  0  0  0  0  0  0  0
   -1.3650   16.0870   -3.5240 C   0  0  2  0  0  0  0  0  0  0  0  0
   -1.7160   17.3070   -4.2040 O   0  0  0  0  0  0  0  0  0  0  0  0
   -2.9450   14.9630   -1.6750 C   0  0  2  0  0  0  0  0  0  0  0  0
   -4.1950   15.3560   -0.8390 C   0  0  0  0  0  0  0  0  0  0  0  0
   -1.8520   15.3690   -0.7370 C   0  0  1  0  0  0  0  0  0  0  0  0
   -0.3780   15.4010   -4.4730 C   0  0  0  0  0  0  0  0  0  0  0  0
   -2.4020   14.6650    0.4690 C   0  0  2  0  0  0  0  0  0  0  0  0
   -3.7360   15.2090    0.5770 N   0  0  0  0  0  0  0  0  0  0  0  0
   -0.4400   14.9640   -1.0750 C   0  0  0  0  0  0  0  0  0  0  0  0
    0.4320   16.5750   -4.9750 C   0  0  0  0  0  0  0  0  0  0  0  0
   -0.6080   17.6790   -5.0460 C   0  0  0  0  0  0  0  0  0  0  0  0
    0.0610   13.9290   -0.1120 C   0  0  0  0  0  0  0  0  0  0  0  0
   -1.5810   14.7450    1.6320 N   0  0  0  0  0  0  0  0  0  0  0  0
   -0.2140   14.3080    1.3430 C   0  0  0  0  0  0  0  0  0  0  0  0
  2  1  1  6
  2  3  1  0
  4  1  1  6
  4  5  1  0
  4  6  1  0
  2  7  1  0
  6  8  1  0
  5  9  1  0
  8  9  1  1
  6 10  1  6
  7 11  1  0
  3 12  1  0
 11 12  1  0
 10 13  1  0
  8 14  1  0
 13 15  1  0
 14 15  1  0
M  END
