ucsf345-ucsf264
     RDKit          3D

 29 31  0  0  0  0  0  0  0  0999 V2000
   -6.7540   14.6960    1.5150 N   0  0  0  0  0  0  0  0  0  0  0  0
   -6.9530   14.8530    0.0830 C   0  0  2  0  0  0  0  0  0  0  0  0
   -7.5310   13.6660   -0.3610 O   0  0  0  0  0  0  0  0  0  0  0  0
   -5.6460   15.2010   -0.7050 C   0  0  2  0  0  0  0  0  0  0  0  0
   -5.6280   14.4280   -1.9800 N   0  0  0  0  0  0  0  0  0  0  0  0
   -4.3860   15.0350    0.1880 C   0  0  0  0  0  0  0  0  0  0  0  0
   -4.3740   14.5670   -2.7450 C   0  0  0  0  0  0  0  0  0  0  0  0
   -3.1990   14.5260   -0.5190 N   0  0  0  0  0  0  0  0  0  0  0  0
   -3.1540   14.9920   -1.9120 C   0  0  1  0  0  0  0  0  0  0  0  0
   -1.7970   14.5810   -2.5380 C   0  0  0  0  0  0  0  0  0  0  0  0
   -0.5690   14.6440   -1.6090 C   0  0  0  0  0  0  0  0  0  0  0  0
    0.0600   13.2820   -1.3020 C   0  0  0  0  0  0  0  0  0  0  0  0
    0.9600   12.8790   -2.3360 O   0  0  0  0  0  0  0  0  0  0  0  0
    0.3390   12.1430   -3.3780 C   0  0  2  0  0  0  0  0  0  0  0  0
    0.4970   10.7610   -3.1030 O   0  0  0  0  0  0  0  0  0  0  0  0
    0.9190   12.5370   -4.7680 C   0  0  0  0  0  0  0  0  0  0  0  0
    0.1700   12.0160   -5.9500 N   0  0  0  0  0  0  0  0  0  0  0  0
    1.0710   11.8040   -7.0760 N   0  0  0  0  0  0  0  0  0  0  0  0
   -0.5510   10.7340   -5.7720 C   0  0  2  0  0  0  0  0  0  0  0  0
    0.2670   11.0070   -8.0200 C   0  0  2  0  0  0  0  0  0  0  0  0
   -0.3620    9.9800   -7.0980 C   0  0  2  0  0  0  0  0  0  0  0  0
   -2.0370   10.9500   -5.4550 C   0  0  0  0  0  0  0  0  0  0  0  0
    0.9210   10.3360   -9.2430 C   0  0  0  0  0  0  0  0  0  0  0  0
   -1.6330    9.3560   -7.6700 C   0  0  0  0  0  0  0  0  0  0  0  0
   -2.8320    9.6350   -5.4710 C   0  0  0  0  0  0  0  0  0  0  0  0
    1.5900    9.2060   -8.9180 F   0  0  0  0  0  0  0  0  0  0  0  0
   -0.0250    9.9760  -10.1340 F   0  0  0  0  0  0  0  0  0  0  0  0
    1.7300   11.1560   -9.9320 F   0  0  0  0  0  0  0  0  0  0  0  0
   -2.4130    8.6540   -6.5700 C   0  0  0  0  0  0  0  0  0  0  0  0
  2  1  1  1
  2  3  1  0
  2  4  1  0
  4  5  1  0
  4  6  1  1
  5  7  1  0
  6  8  1  0
  7  9  1  0
  8  9  1  0
  9 10  1  6
 10 11  1  0
 11 12  1  0
 12 13  1  0
 13 14  1  0
 14 15  1  1
 14 16  1  0
 16 17  1  0
 17 18  1  0
 17 19  1  0
 18 20  1  0
 19 21  1  0
 20 21  1  0
 19 22  1  6
 20 23  1  6
 21 24  1  6
 22 25  1  0
 23 26  1  0
 23 27  1  0
 23 28  1  0
 24 29  1  0
 25 29  1  0
M  END
