ucsf340-ucsf404
     RDKit          3D

 28 31  0  0  0  0  0  0  0  0999 V2000
    0.6610   18.5260   -6.1930 C   0  0  0  0  0  0  0  0  0  0  0  0
    0.0240   17.2850   -5.7700 N   0  0  0  0  0  0  0  0  0  0  0  0
    0.8130   16.5860   -4.7340 C   0  0  0  0  0  0  0  0  0  0  0  0
   -1.3080   17.5120   -5.2030 C   0  0  2  0  0  0  0  0  0  0  0  0
   -0.1800   15.9300   -3.7620 C   0  0  1  0  0  0  0  0  0  0  0  0
   -1.5560   16.3320   -4.2670 C   0  0  2  0  0  0  0  0  0  0  0  0
   -2.3360   17.7530   -6.3280 C   0  0  0  0  0  0  0  0  0  0  0  0
   -0.2310   14.3900   -3.5410 C   0  0  1  0  0  0  0  0  0  0  0  0
   -2.2190   15.1460   -4.9520 C   0  0  0  0  0  0  0  0  0  0  0  0
   -3.4180   16.6620   -6.5740 C   0  0  0  0  0  0  0  0  0  0  0  0
    1.0690   13.5820   -3.6100 C   0  0  0  0  0  0  0  0  0  0  0  0
   -0.8510   14.1410   -2.1500 C   0  0  0  0  0  0  0  0  0  0  0  0
   -3.5350   15.5460   -5.5450 C   0  0  0  0  0  0  0  0  0  0  0  0
    1.1950   12.5350   -2.4910 C   0  0  2  0  0  0  0  0  0  0  0  0
   -1.9310   13.0710   -2.0940 C   0  0  0  0  0  0  0  0  0  0  0  0
    2.5530   12.4010   -2.2770 O   0  0  0  0  0  0  0  0  0  0  0  0
    0.7650   11.3250   -2.7960 O   0  0  0  0  0  0  0  0  0  0  0  0
   -3.1970   13.6280   -1.4570 C   0  0  2  0  0  0  0  0  0  0  0  0
   -3.8270   14.7500   -2.2940 C   0  0  0  0  0  0  0  0  0  0  0  0
   -2.8490   14.0880   -0.0450 C   0  0  0  0  0  0  0  0  0  0  0  0
   -3.6320   15.2950    0.4370 C   0  0  1  0  0  0  0  0  0  0  0  0
   -5.0790   15.3410   -1.6640 C   0  0  1  0  0  0  0  0  0  0  0  0
   -6.5990   14.5580   -2.1900 Cl  0  0  0  0  0  0  0  0  0  0  0  0
   -5.0250   15.5290   -0.1550 C   0  0  1  0  0  0  0  0  0  0  0  0
   -4.0120   15.1600    2.1920 S   0  0  0  0  0  0  0  0  0  0  0  0
   -5.5850   14.3670    1.8750 C   0  0  2  0  0  0  0  0  0  0  0  0
   -6.0300   14.7160    0.5620 N   0  0  0  0  0  0  0  0  0  0  0  0
   -6.5880   14.8820    2.7510 N   0  0  0  0  0  0  0  0  0  0  0  0
  1  2  1  0
  2  3  1  0
  2  4  1  0
  5  3  1  6
  4  6  1  0
  5  6  1  0
  4  7  1  6
  5  8  1  0
  6  9  1  6
  7 10  1  0
  8 11  1  1
  8 12  1  0
  9 13  1  0
 10 13  1  0
 11 14  1  0
 12 15  1  0
 14 16  1  6
 14 17  1  0
 18 15  1  6
 18 19  1  0
 18 20  1  0
 21 20  1  6
 19 22  1  0
 22 23  1  1
 21 24  1  0
 22 24  1  0
 21 25  1  0
 25 26  1  0
 24 27  1  1
 26 27  1  0
 26 28  1  1
M  CHG  1  17  -1
M  END
