ucsf147-ucsf320
     RDKit          3D

 18 20  0  0  0  0  0  0  0  0999 V2000
    1.3000   13.2540   -5.3670 C   0  0  0  0  0  0  0  0  0  0  0  0
   -0.0580   13.2490   -4.6900 C   0  0  2  0  0  0  0  0  0  0  0  0
   -1.0670   13.3950   -5.7040 O   0  0  0  0  0  0  0  0  0  0  0  0
   -0.2830   14.4130   -3.7200 C   0  0  2  0  0  0  0  0  0  0  0  0
   -0.0290   14.1410   -2.2340 C   0  0  1  0  0  0  0  0  0  0  0  0
   -2.2520   13.9730   -5.0640 N   0  0  0  0  0  0  0  0  0  0  0  0
   -1.7150   14.9180   -4.0650 C   0  0  1  0  0  0  0  0  0  0  0  0
    0.9140   13.1260   -1.9770 O   0  0  0  0  0  0  0  0  0  0  0  0
    0.5130   15.1820   -1.6310 O   0  0  0  0  0  0  0  0  0  0  0  0
   -1.4070   13.7690   -1.6430 C   0  0  2  0  0  0  0  0  0  0  0  0
   -2.7780   15.3070   -2.9600 C   0  0  2  0  0  0  0  0  0  0  0  0
   -2.0040   12.8570   -2.5660 O   0  0  0  0  0  0  0  0  0  0  0  0
   -2.3400   14.9580   -1.5090 C   0  0  1  0  0  0  0  0  0  0  0  0
   -4.1790   14.7770   -3.2880 C   0  0  0  0  0  0  0  0  0  0  0  0
   -3.4740   14.7830   -0.4580 C   0  0  0  0  0  0  0  0  0  0  0  0
   -5.2670   15.0770   -2.2600 C   0  0  0  0  0  0  0  0  0  0  0  0
   -4.8070   15.4310   -0.8590 C   0  0  1  0  0  0  0  0  0  0  0  0
   -5.8920   15.0650    0.0040 O   0  0  0  0  0  0  0  0  0  0  0  0
  2  1  1  6
  2  3  1  0
  4  2  1  6
  4  5  1  0
  3  6  1  0
  4  7  1  0
  7  6  1  1
  5  8  1  6
  5  9  1  0
  5 10  1  0
  7 11  1  0
 10 12  1  6
 10 13  1  0
 11 13  1  0
 11 14  1  6
 13 15  1  1
 14 16  1  0
 15 17  1  0
 16 17  1  0
 17 18  1  1
M  CHG  1   9  -1
M  END
