ucsf380-ucsf487
     RDKit          3D

 22 24  0  0  0  0  0  0  0  0999 V2000
    1.0080   14.7300   -1.9810 O   0  0  0  0  0  0  0  0  0  0  0  0
    0.0320   14.0930   -1.3620 C   0  0  2  0  0  0  0  0  0  0  0  0
    0.5360   12.7660   -1.3280 O   0  0  0  0  0  0  0  0  0  0  0  0
   -1.2850   14.1190   -2.2240 C   0  0  2  0  0  0  0  0  0  0  0  0
   -2.5840   14.2490   -1.3630 C   0  0  1  0  0  0  0  0  0  0  0  0
   -1.3830   12.8890   -3.2010 C   0  0  0  0  0  0  0  0  0  0  0  0
   -2.3610   14.4560    0.1360 C   0  0  0  0  0  0  0  0  0  0  0  0
   -3.6330   15.2290   -1.9460 C   0  0  0  0  0  0  0  0  0  0  0  0
   -2.6870   12.0670   -3.0890 C   0  0  0  0  0  0  0  0  0  0  0  0
   -1.0320   13.2850   -4.6500 C   0  0  0  0  0  0  0  0  0  0  0  0
   -3.6410   14.1820    0.8940 C   0  0  0  0  0  0  0  0  0  0  0  0
   -4.5100   15.7510   -0.8100 C   0  0  0  0  0  0  0  0  0  0  0  0
   -3.0120   11.2720   -4.3430 C   0  0  0  0  0  0  0  0  0  0  0  0
   -0.8850   12.0710   -5.5580 C   0  0  0  0  0  0  0  0  0  0  0  0
   -4.9050   14.6040    0.1180 C   0  0  2  0  0  0  0  0  0  0  0  0
   -1.7590   10.8900   -5.1270 C   0  0  0  0  0  0  0  0  0  0  0  0
   -6.0020   14.9340    1.1010 C   0  0  0  0  0  0  0  0  0  0  0  0
   -5.5910   13.5300   -0.7540 C   0  0  0  0  0  0  0  0  0  0  0  0
   -6.7670   13.7330    1.5730 C   0  0  1  0  0  0  0  0  0  0  0  0
   -7.0620   13.7380   -0.8630 N   0  0  0  0  0  0  0  0  0  0  0  0
   -7.4120   14.0340    2.8580 N   0  0  0  0  0  0  0  0  0  0  0  0
   -7.7350   13.4640    0.4240 C   0  0  0  0  0  0  0  0  0  0  0  0
  2  1  1  6
  2  3  1  0
  2  4  1  0
  4  5  1  0
  4  6  1  1
  5  7  1  1
  5  8  1  0
  6  9  1  0
  6 10  1  0
  7 11  1  0
  8 12  1  0
  9 13  1  0
 10 14  1  0
 15 11  1  1
 12 15  1  0
 13 16  1  0
 14 16  1  0
 15 17  1  0
 15 18  1  0
 17 19  1  0
 18 20  1  0
 19 21  1  1
 19 22  1  0
 20 22  1  0
M  CHG  1   1  -1
M  END
