ucsf516-ucsf262
     RDKit          3D

 30 35  0  0  0  0  0  0  0  0999 V2000
   -3.0860   15.7330   -5.8570 Cl  0  0  0  0  0  0  0  0  0  0  0  0
   -1.5770   16.5200   -5.1310 C   0  0  1  0  0  0  0  0  0  0  0  0
   -0.4070   15.6980   -4.9180 C   0  0  2  0  0  0  0  0  0  0  0  0
   -1.4700   17.7590   -5.8760 C   0  0  0  0  0  0  0  0  0  0  0  0
   -0.4760   14.4070   -3.5610 S   0  0  0  0  0  0  0  0  0  0  0  0
    0.7070   16.5710   -4.8670 C   0  0  2  0  0  0  0  0  0  0  0  0
   -0.3760   18.6530   -5.4580 C   0  0  0  0  0  0  0  0  0  0  0  0
    0.5400   12.7440   -3.4970 C   0  0  0  0  0  0  0  0  0  0  0  0
   -1.8030   13.4390   -4.0990 C   0  0  0  0  0  0  0  0  0  0  0  0
   -1.9750   14.6840   -2.4820 N   0  0  0  0  0  0  0  0  0  0  0  0
    1.0910   15.2800   -3.3400 C   0  0  1  0  0  0  0  0  0  0  0  0
    1.0170   16.6340   -3.5810 N   0  0  0  0  0  0  0  0  0  0  0  0
    0.8730   17.8110   -5.6560 C   0  0  0  0  0  0  0  0  0  0  0  0
    1.8490   14.6990   -2.1840 C   0  0  2  0  0  0  0  0  0  0  0  0
    0.6770   12.0770   -4.7620 C   0  0  0  0  0  0  0  0  0  0  0  0
    0.1820   11.7060   -2.7420 C   0  0  0  0  0  0  0  0  0  0  0  0
   -3.0220   15.0650   -3.3150 C   0  0  0  0  0  0  0  0  0  0  0  0
   -2.9490   14.2290   -4.4850 C   0  0  0  0  0  0  0  0  0  0  0  0
   -1.8540   14.9580   -1.2130 C   0  0  2  0  0  0  0  0  0  0  0  0
    3.1980   14.5120   -2.5840 O   0  0  0  0  0  0  0  0  0  0  0  0
    1.5150   13.5240   -1.6330 O   0  0  0  0  0  0  0  0  0  0  0  0
   -0.1000   10.9660   -4.0510 C   0  0  0  0  0  0  0  0  0  0  0  0
   -0.7230   14.1370   -0.6680 N   0  0  0  0  0  0  0  0  0  0  0  0
   -2.9600   14.5250   -0.3720 C   0  0  1  0  0  0  0  0  0  0  0  0
   -0.3090   14.6070    0.6130 C   0  0  0  0  0  0  0  0  0  0  0  0
   -2.5690   14.7610    1.0970 C   0  0  1  0  0  0  0  0  0  0  0  0
   -4.2650   15.1520   -0.3950 C   0  0  0  0  0  0  0  0  0  0  0  0
   -1.3450   15.5610    1.0270 N   0  0  0  0  0  0  0  0  0  0  0  0
   -3.5890   15.6170    1.6310 N   0  0  0  0  0  0  0  0  0  0  0  0
   -4.7630   14.9920    1.0120 C   0  0  0  0  0  0  0  0  0  0  0  0
  2  1  1  6
  2  3  1  0
  2  4  1  0
  3  5  1  1
  3  6  1  0
  4  7  1  0
  5  8  1  0
  5  9  1  0
  5 10  1  0
  5 11  1  0
  6 12  1  0
 11 12  1  1
  6 13  1  1
  7 13  1  0
 11 14  1  0
  8 15  1  0
  8 16  1  0
 10 17  1  0
  9 18  1  0
 17 18  1  0
 19 10  1  6
 14 20  1  6
 14 21  1  0
 15 22  1  0
 16 22  1  0
 19 23  1  0
 19 24  1  0
 23 25  1  0
 24 26  1  0
 24 27  1  6
 25 28  1  0
 26 28  1  6
 26 29  1  0
 27 30  1  0
 29 30  1  0
M  CHG  1  20  -1
M  END
