ucsf364-ucsf365
     RDKit          3D

 19 20  0  0  0  0  0  0  0  0999 V2000
    0.9740   13.8560   -4.7030 C   0  0  0  0  0  0  0  0  0  0  0  0
    1.0350   12.3590   -4.7040 C   0  0  2  0  0  0  0  0  0  0  0  0
    0.7540   11.9170   -6.1570 C   0  0  1  0  0  0  0  0  0  0  0  0
   -0.4110   14.2080   -5.2810 C   0  0  1  0  0  0  0  0  0  0  0  0
   -0.0430   11.9160   -3.6850 C   0  0  2  0  0  0  0  0  0  0  0  0
   -1.6180   13.2590   -4.9850 C   0  0  2  0  0  0  0  0  0  0  0  0
   -0.7890   15.6470   -4.9420 C   0  0  0  0  0  0  0  0  0  0  0  0
    1.9470   11.7520   -6.8920 O   0  0  0  0  0  0  0  0  0  0  0  0
    0.3590   12.2220   -2.2560 C   0  0  0  0  0  0  0  0  0  0  0  0
   -1.3790   11.8960   -5.3010 O   0  0  0  0  0  0  0  0  0  0  0  0
   -0.4960   10.4660   -3.8350 C   0  0  0  0  0  0  0  0  0  0  0  0
   -0.1430   10.6910   -6.4190 C   0  0  0  0  0  0  0  0  0  0  0  0
   -2.8680   13.5920   -5.7990 C   0  0  0  0  0  0  0  0  0  0  0  0
   -2.3090   15.8570   -4.8250 C   0  0  0  0  0  0  0  0  0  0  0  0
   -0.3570   13.3070   -1.7330 O   0  0  0  0  0  0  0  0  0  0  0  0
    1.6790   12.6210   -2.1090 O   0  0  0  0  0  0  0  0  0  0  0  0
    0.1110   11.0920   -1.4600 O   0  0  0  0  0  0  0  0  0  0  0  0
   -0.9020   10.0450   -5.2460 C   0  0  0  0  0  0  0  0  0  0  0  0
   -3.1970   15.0700   -5.7950 C   0  0  0  0  0  0  0  0  0  0  0  0
  2  1  1  6
  2  3  1  0
  4  1  1  1
  2  5  1  0
  4  6  1  0
  4  7  1  0
  3  8  1  1
  5  9  1  1
  6 10  1  6
  5 11  1  0
  3 12  1  0
  6 13  1  0
  7 14  1  0
  9 15  1  0
  9 16  1  0
  9 17  1  0
 11 18  1  0
 12 18  1  0
 13 19  1  0
 14 19  1  0
M  CHG  2  16  -1  17  -1
M  END
