ucsf392-ucsf013
     RDKit          3D

 19 21  0  0  0  0  0  0  0  0999 V2000
   -4.5150   15.8040   -1.3860 C   0  0  0  0  0  0  0  0  0  0  0  0
   -3.3500   15.0890   -0.7350 C   0  0  1  0  0  0  0  0  0  0  0  0
   -2.0200   15.4230   -1.3480 C   0  0  0  0  0  0  0  0  0  0  0  0
   -3.2210   15.3040    0.7580 C   0  0  1  0  0  0  0  0  0  0  0  0
   -4.4810   15.0650    1.4260 N   0  0  0  0  0  0  0  0  0  0  0  0
   -2.1660   14.4480    1.2770 N   0  0  0  0  0  0  0  0  0  0  0  0
   -1.1810   14.3090   -0.9710 N   0  0  0  0  0  0  0  0  0  0  0  0
   -0.9480   14.3030    0.4600 C   0  0  1  0  0  0  0  0  0  0  0  0
   -5.6560   14.7940    0.6150 C   0  0  1  0  0  0  0  0  0  0  0  0
    0.1600   15.2670    0.8080 C   0  0  0  0  0  0  0  0  0  0  0  0
   -5.6890   13.5330   -0.2910 C   0  0  1  0  0  0  0  0  0  0  0  0
   -6.7150   14.6330    1.5930 N   0  0  0  0  0  0  0  0  0  0  0  0
   -6.8900   13.7700   -1.2050 C   0  0  1  0  0  0  0  0  0  0  0  0
   -7.9640   14.2600    0.9760 C   0  0  0  0  0  0  0  0  0  0  0  0
   -4.3670   13.1350   -1.0150 C   0  0  0  0  0  0  0  0  0  0  0  0
   -7.9390   14.5010   -0.4640 N   0  0  0  0  0  0  0  0  0  0  0  0
   -6.5340   14.5460   -2.4790 C   0  0  0  0  0  0  0  0  0  0  0  0
   -4.1420   13.5750   -2.4860 C   0  0  0  0  0  0  0  0  0  0  0  0
   -5.3820   13.9550   -3.2890 C   0  0  0  0  0  0  0  0  0  0  0  0
  2  1  1  6
  2  3  1  0
  2  4  1  0
  4  5  1  1
  4  6  1  0
  3  7  1  0
  6  8  1  0
  7  8  1  0
  9  5  1  1
  8 10  1  6
  9 11  1  0
  9 12  1  0
 11 13  1  0
 12 14  1  0
 11 15  1  6
 13 16  1  0
 14 16  1  0
 13 17  1  6
 15 18  1  0
 17 19  1  0
 18 19  1  0
M  END
