ucsf371-ucsf338
     RDKit          3D

 20 21  0  0  0  0  0  0  0  0999 V2000
   -9.4540   14.3160    0.1870 O   0  0  0  0  0  0  0  0  0  0  0  0
   -8.0030   14.3330    0.3650 N   0  0  0  0  0  0  0  0  0  0  0  0
   -7.4090   13.9670   -0.9150 C   0  0  1  0  0  0  0  0  0  0  0  0
   -7.4020   15.1360   -1.6760 O   0  0  0  0  0  0  0  0  0  0  0  0
   -6.0400   13.2800   -0.7850 C   0  0  0  0  0  0  0  0  0  0  0  0
   -4.7970   14.0650   -0.2460 C   0  0  1  0  0  0  0  0  0  0  0  0
   -3.7630   14.3160   -1.3840 C   0  0  2  0  0  0  0  0  0  0  0  0
   -4.8660   15.5680   -0.1740 C   0  0  2  0  0  0  0  0  0  0  0  0
   -4.2900   13.5220    1.1200 C   0  0  0  0  0  0  0  0  0  0  0  0
   -5.3450   16.0630   -1.4340 O   0  0  0  0  0  0  0  0  0  0  0  0
   -4.1680   14.0780   -2.7350 N   0  0  0  0  0  0  0  0  0  0  0  0
   -2.0040   13.9760   -1.2930 S   0  0  0  0  0  0  0  0  0  0  0  0
   -3.4820   16.1650    0.1430 C   0  0  0  0  0  0  0  0  0  0  0  0
   -3.3310   14.4590    1.8220 C   0  0  0  0  0  0  0  0  0  0  0  0
   -3.1920   14.8910   -3.4860 C   0  0  0  0  0  0  0  0  0  0  0  0
   -1.9850   15.2800   -2.5890 C   0  0  2  0  0  0  0  0  0  0  0  0
   -2.5410   15.2450    0.8480 C   0  0  0  0  0  0  0  0  0  0  0  0
   -0.6500   15.4030   -3.3480 C   0  0  2  0  0  0  0  0  0  0  0  0
   -0.8020   14.8450   -4.6440 O   0  0  0  0  0  0  0  0  0  0  0  0
    0.2150   14.5800   -2.8060 O   0  0  0  0  0  0  0  0  0  0  0  0
  1  2  1  0
  2  3  1  0
  3  4  1  6
  3  5  1  0
  6  5  1  6
  6  7  1  0
  6  8  1  0
  6  9  1  0
  8 10  1  6
  7 11  1  6
  7 12  1  0
  8 13  1  0
  9 14  1  0
 11 15  1  0
 12 16  1  0
 16 15  1  6
 13 17  1  0
 14 17  1  0
 16 18  1  0
 18 19  1  6
 18 20  1  0
M  CHG  1  20  -1
M  END
