ucsf017-ucsf115
     RDKit          3D

 18 21  0  0  0  0  0  0  0  0999 V2000
   -1.0440   12.1050   -2.3080 C   0  0  0  0  0  0  0  0  0  0  0  0
   -1.8550   12.8860   -1.3950 N   0  0  0  0  0  0  0  0  0  0  0  0
   -1.1780   14.1370   -1.2390 C   0  0  2  0  0  0  0  0  0  0  0  0
   -0.8790   13.1260   -3.3610 C   0  0  2  0  0  0  0  0  0  0  0  0
   -0.1420   12.7900   -4.6270 C   0  0  0  0  0  0  0  0  0  0  0  0
   -0.5690   14.3600   -2.5970 N   0  0  0  0  0  0  0  0  0  0  0  0
   -0.6340   13.6880   -5.7270 C   0  0  0  0  0  0  0  0  0  0  0  0
   -1.0850   15.4620   -3.4150 C   0  0  0  0  0  0  0  0  0  0  0  0
   -0.1870   13.8620   -0.2050 N   0  0  0  0  0  0  0  0  0  0  0  0
   -2.2330   15.1580   -0.7930 C   0  0  2  0  0  0  0  0  0  0  0  0
   -1.9390   14.2550   -5.5140 O   0  0  0  0  0  0  0  0  0  0  0  0
   -2.2490   14.9870   -4.3100 C   0  0  0  0  0  0  0  0  0  0  0  0
   -0.1690   14.6290    1.0500 C   0  0  0  0  0  0  0  0  0  0  0  0
   -2.5390   14.7850    0.6130 C   0  0  1  0  0  0  0  0  0  0  0  0
   -3.6480   15.1900   -1.3790 C   0  0  0  0  0  0  0  0  0  0  0  0
   -1.4840   15.0290    1.5150 N   0  0  0  0  0  0  0  0  0  0  0  0
   -3.6430   15.6340    0.9830 N   0  0  0  0  0  0  0  0  0  0  0  0
   -4.5340   15.5420   -0.1760 C   0  0  0  0  0  0  0  0  0  0  0  0
  1  2  1  0
  3  2  1  6
  4  1  1  1
  4  5  1  0
  3  6  1  0
  4  6  1  0
  5  7  1  0
  6  8  1  0
  3  9  1  0
  3 10  1  0
  7 11  1  0
  8 12  1  0
 11 12  1  0
  9 13  1  0
 10 14  1  0
 10 15  1  6
 13 16  1  0
 14 16  1  1
 14 17  1  0
 15 18  1  0
 17 18  1  0
M  END
