ucsf340-ucsf338
     RDKit          3D

 27 29  0  0  0  0  0  0  0  0999 V2000
    0.8620   18.4500   -5.6180 C   0  0  0  0  0  0  0  0  0  0  0  0
   -0.0930   17.7480   -4.7770 N   0  0  0  0  0  0  0  0  0  0  0  0
    0.5960   16.9390   -3.7710 C   0  0  0  0  0  0  0  0  0  0  0  0
   -0.8340   16.8400   -5.6040 C   0  0  1  0  0  0  0  0  0  0  0  0
    0.5100   15.4540   -4.1670 C   0  0  2  0  0  0  0  0  0  0  0  0
   -0.7870   15.4500   -4.9490 C   0  0  1  0  0  0  0  0  0  0  0  0
   -2.1970   17.3830   -5.9940 C   0  0  0  0  0  0  0  0  0  0  0  0
    0.7740   14.4000   -3.0700 C   0  0  0  0  0  0  0  0  0  0  0  0
   -2.1290   14.8670   -4.4620 C   0  0  1  0  0  0  0  0  0  0  0  0
   -3.3510   16.4180   -5.7240 C   0  0  0  0  0  0  0  0  0  0  0  0
    0.7300   12.8870   -3.4280 C   0  0  0  0  0  0  0  0  0  0  0  0
   -2.6510   15.4950   -3.1420 C   0  0  0  0  0  0  0  0  0  0  0  0
   -3.0870   14.9530   -5.6210 C   0  0  0  0  0  0  0  0  0  0  0  0
    0.0510   11.9740   -2.3600 C   0  0  2  0  0  0  0  0  0  0  0  0
   -3.9070   14.9520   -2.6180 O   0  0  0  0  0  0  0  0  0  0  0  0
    0.4680   12.4150   -1.0980 O   0  0  0  0  0  0  0  0  0  0  0  0
    0.4690   10.7090   -2.3590 O   0  0  0  0  0  0  0  0  0  0  0  0
   -3.7550   14.5380   -1.2470 C   0  0  2  0  0  0  0  0  0  0  0  0
   -5.0160   14.3650   -0.3130 C   0  0  2  0  0  0  0  0  0  0  0  0
   -2.6530   15.4410   -0.6400 C   0  0  0  0  0  0  0  0  0  0  0  0
   -6.4850   14.3770   -0.8440 C   0  0  1  0  0  0  0  0  0  0  0  0
   -2.3170   15.1580    0.8140 C   0  0  0  0  0  0  0  0  0  0  0  0
   -4.8270   15.3040    0.8770 C   0  0  0  0  0  0  0  0  0  0  0  0
   -7.4990   14.6460    0.1800 N   0  0  0  0  0  0  0  0  0  0  0  0
   -6.6510   15.3290   -1.8690 O   0  0  0  0  0  0  0  0  0  0  0  0
   -3.5720   14.9540    1.6450 C   0  0  0  0  0  0  0  0  0  0  0  0
   -8.7880   14.1280   -0.2580 O   0  0  0  0  0  0  0  0  0  0  0  0
  1  2  1  0
  2  3  1  0
  2  4  1  0
  3  5  1  0
  4  6  1  0
  6  5  1  1
  4  7  1  1
  5  8  1  1
  6  9  1  0
  7 10  1  0
  8 11  1  0
  9 12  1  1
  9 13  1  0
 10 13  1  0
 11 14  1  0
 12 15  1  0
 14 16  1  1
 14 17  1  0
 18 15  1  6
 18 19  1  0
 18 20  1  0
 19 21  1  0
 20 22  1  0
 19 23  1  1
 21 24  1  0
 21 25  1  6
 22 26  1  0
 23 26  1  0
 24 27  1  0
M  CHG  1  17  -1
M  END
