ucsf013-ucsf224
     RDKit          3D

 24 26  0  0  0  0  0  0  0  0999 V2000
   -3.8020   14.4460    1.9570 N   0  0  0  0  0  0  0  0  0  0  0  0
   -4.7860   15.2740    1.3180 C   0  0  2  0  0  0  0  0  0  0  0  0
   -6.0770   14.8060    1.7250 N   0  0  0  0  0  0  0  0  0  0  0  0
   -4.6130   15.3550   -0.2040 C   0  0  2  0  0  0  0  0  0  0  0  0
   -5.8950   15.3690   -1.0730 C   0  0  2  0  0  0  0  0  0  0  0  0
   -6.7950   14.0020    0.7560 C   0  0  0  0  0  0  0  0  0  0  0  0
   -3.5400   14.3730   -0.6780 C   0  0  0  0  0  0  0  0  0  0  0  0
   -7.0670   14.7090   -0.4840 N   0  0  0  0  0  0  0  0  0  0  0  0
   -5.5720   14.8390   -2.4740 C   0  0  0  0  0  0  0  0  0  0  0  0
   -3.0330   14.7030   -2.0660 C   0  0  0  0  0  0  0  0  0  0  0  0
   -4.1560   15.1710   -2.9980 C   0  0  1  0  0  0  0  0  0  0  0  0
   -3.9090   14.7470   -4.4600 C   0  0  0  0  0  0  0  0  0  0  0  0
   -2.8500   15.6210   -5.1560 C   0  0  0  0  0  0  0  0  0  0  0  0
   -1.4550   15.5080   -4.4750 C   0  0  1  0  0  0  0  0  0  0  0  0
   -0.7050   14.2290   -4.9630 C   0  0  0  0  0  0  0  0  0  0  0  0
   -0.6260   16.8280   -4.5030 C   0  0  2  0  0  0  0  0  0  0  0  0
   -1.2980   18.0840   -5.5910 Cl  0  0  0  0  0  0  0  0  0  0  0  0
    0.8280   14.1650   -4.8030 C   0  0  2  0  0  0  0  0  0  0  0  0
    0.8740   16.6670   -4.7060 C   0  0  0  0  0  0  0  0  0  0  0  0
    1.3730   12.8180   -4.2100 C   0  0  0  0  0  0  0  0  0  0  0  0
    1.3570   15.3860   -4.0430 C   0  0  0  0  0  0  0  0  0  0  0  0
    1.2330   12.4040   -2.7130 C   0  0  2  0  0  0  0  0  0  0  0  0
    0.4820   11.3270   -2.5420 O   0  0  0  0  0  0  0  0  0  0  0  0
    0.5640   13.3680   -1.9450 O   0  0  0  0  0  0  0  0  0  0  0  0
  2  1  1  6
  2  3  1  0
  2  4  1  0
  4  5  1  0
  3  6  1  0
  4  7  1  6
  5  8  1  0
  6  8  1  0
  5  9  1  6
  7 10  1  0
  9 11  1  0
 10 11  1  0
 11 12  1  6
 12 13  1  0
 14 13  1  6
 14 15  1  0
 14 16  1  0
 16 17  1  6
 15 18  1  0
 16 19  1  0
 18 20  1  1
 18 21  1  0
 19 21  1  0
 20 22  1  0
 22 23  1  6
 22 24  1  0
M  CHG  1  23  -1
M  END
