ucsf303-ucsf424
     RDKit          3D

 30 33  0  0  0  0  0  0  0  0999 V2000
   -2.8300   14.2450   -3.2490 O   0  0  0  0  0  0  0  0  0  0  0  0
   -4.0510   14.5350   -2.2540 S   0  0  0  0  0  0  0  0  0  0  0  0
   -4.5120   16.0100   -2.5000 O   0  0  0  0  0  0  0  0  0  0  0  0
   -5.2510   13.4790   -2.4440 N   0  0  0  0  0  0  0  0  0  0  0  0
   -3.4440   14.4980   -0.6250 C   0  0  0  0  0  0  0  0  0  0  0  0
   -4.7670   12.1670   -2.2950 C   0  0  1  0  0  0  0  0  0  0  0  0
   -1.9280   14.4690   -0.4320 C   0  0  0  0  0  0  0  0  0  0  0  0
   -4.1310   15.6160    0.1180 C   0  0  0  0  0  0  0  0  0  0  0  0
   -5.7420   11.1640   -1.8860 N   0  0  0  0  0  0  0  0  0  0  0  0
   -4.2650   11.6960   -3.9090 S   0  0  0  0  0  0  0  0  0  0  0  0
   -1.6480   14.7370    1.0340 C   0  0  0  0  0  0  0  0  0  0  0  0
   -4.0870   15.3360    1.5710 C   0  0  0  0  0  0  0  0  0  0  0  0
   -3.9300   10.1260   -3.1420 C   0  0  2  0  0  0  0  0  0  0  0  0
   -5.0120    9.8760   -2.1290 N   0  0  0  0  0  0  0  0  0  0  0  0
   -2.9090   14.4200    1.8300 C   0  0  0  0  0  0  0  0  0  0  0  0
   -2.5110   10.1220   -2.6030 C   0  0  0  0  0  0  0  0  0  0  0  0
   -1.7150   11.4310   -2.5440 C   0  0  0  0  0  0  0  0  0  0  0  0
   -0.3430   11.0890   -2.8410 O   0  0  0  0  0  0  0  0  0  0  0  0
    0.5670   12.0740   -3.4020 C   0  0  2  0  0  0  0  0  0  0  0  0
    0.9420   12.8830   -2.4290 O   0  0  0  0  0  0  0  0  0  0  0  0
   -0.1670   12.8790   -4.5260 C   0  0  0  0  0  0  0  0  0  0  0  0
   -0.0900   12.3160   -5.9730 C   0  0  1  0  0  0  0  0  0  0  0  0
    1.2080   11.7100   -6.3330 N   0  0  0  0  0  0  0  0  0  0  0  0
   -1.0800   11.2030   -6.3320 C   0  0  1  0  0  0  0  0  0  0  0  0
    0.9750   10.7090   -7.3840 O   0  0  0  0  0  0  0  0  0  0  0  0
   -0.4380   10.5260   -7.5260 C   0  0  1  0  0  0  0  0  0  0  0  0
   -1.5140   10.2260   -5.2610 C   0  0  0  0  0  0  0  0  0  0  0  0
   -0.7330    9.0300   -7.5890 C   0  0  0  0  0  0  0  0  0  0  0  0
   -2.4650    9.1390   -5.7550 C   0  0  0  0  0  0  0  0  0  0  0  0
   -2.1690    8.7120   -7.1940 C   0  0  0  0  0  0  0  0  0  0  0  0
  2  1  1  0
  2  3  1  0
  2  4  1  0
  2  5  1  0
  6  4  1  6
  5  7  1  0
  5  8  1  0
  6  9  1  0
  6 10  1  0
  7 11  1  0
  8 12  1  0
 10 13  1  0
  9 14  1  0
 13 14  1  0
 11 15  1  0
 12 15  1  0
 13 16  1  1
 16 17  1  0
 17 18  1  0
 18 19  1  0
 19 20  1  1
 19 21  1  0
 22 21  1  1
 22 23  1  0
 22 24  1  0
 23 25  1  0
 24 26  1  0
 25 26  1  0
 24 27  1  1
 26 28  1  1
 27 29  1  0
 28 30  1  0
 29 30  1  0
M  CHG  1  20  -1
M  END
