ucsf170-ucsf392
     RDKit          3D

 20 21  0  0  0  0  0  0  0  0999 V2000
   -4.2900   13.7180    1.4410 C   0  0  0  0  0  0  0  0  0  0  0  0
   -4.4930   12.9730   -0.2100 S   0  0  0  0  0  0  0  0  0  0  0  0
   -3.2340   13.8660   -1.2270 C   0  0  1  0  0  0  0  0  0  0  0  0
   -3.3930   14.9610    1.5040 C   0  0  2  0  0  0  0  0  0  0  0  0
   -3.6600   15.9700    0.3910 C   0  0  2  0  0  0  0  0  0  0  0  0
   -1.9680   14.6620    1.7220 N   0  0  0  0  0  0  0  0  0  0  0  0
   -5.0030   15.7780   -0.3280 C   0  0  0  0  0  0  0  0  0  0  0  0
   -2.0990   12.9590   -1.7510 C   0  0  0  0  0  0  0  0  0  0  0  0
   -3.9520   14.6430   -2.3550 C   0  0  0  0  0  0  0  0  0  0  0  0
   -1.0970   14.4040    0.6040 C   0  0  2  0  0  0  0  0  0  0  0  0
   -2.4550   15.9440   -0.5720 C   0  0  0  0  0  0  0  0  0  0  0  0
    0.1090   15.3110    0.6970 C   0  0  0  0  0  0  0  0  0  0  0  0
   -1.2870   13.4300   -2.9980 C   0  0  2  0  0  0  0  0  0  0  0  0
   -3.0210   15.2890   -3.3750 C   0  0  0  0  0  0  0  0  0  0  0  0
   -1.7670   14.6720   -0.6390 N   0  0  0  0  0  0  0  0  0  0  0  0
    0.1280   13.9770   -2.6210 C   0  0  1  0  0  0  0  0  0  0  0  0
   -2.1040   14.2690   -4.0280 C   0  0  1  0  0  0  0  0  0  0  0  0
   -1.2320   14.9860   -4.9220 O   0  0  0  0  0  0  0  0  0  0  0  0
    0.6900   13.2130   -1.5710 O   0  0  0  0  0  0  0  0  0  0  0  0
    0.9860   13.7470   -3.5850 O   0  0  0  0  0  0  0  0  0  0  0  0
  1  2  1  0
  3  2  1  6
  4  1  1  6
  4  5  1  0
  4  6  1  0
  5  7  1  6
  3  8  1  0
  3  9  1  0
  6 10  1  0
  5 11  1  0
 10 12  1  1
 13  8  1  1
  9 14  1  0
 10 15  1  0
 11 15  1  0
 13 16  1  0
 13 17  1  0
 14 17  1  0
 17 18  1  6
 16 19  1  1
 16 20  1  0
M  CHG  1  20  -1
M  END
