ucsf411-ucsf135
     RDKit          3D

 26 29  0  0  0  0  0  0  0  0999 V2000
    1.1340   11.6600   -3.8010 O   0  0  0  0  0  0  0  0  0  0  0  0
    0.6890   12.6020   -2.8330 C   0  0  1  0  0  0  0  0  0  0  0  0
    0.9730   12.2620   -1.4900 O   0  0  0  0  0  0  0  0  0  0  0  0
    0.1370   11.7510   -4.8570 N   0  0  0  0  0  0  0  0  0  0  0  0
    1.3570   13.9060   -3.2390 C   0  0  0  0  0  0  0  0  0  0  0  0
    0.6290   11.4230   -6.2300 C   0  0  2  0  0  0  0  0  0  0  0  0
   -1.1050   10.7490   -4.3480 S   0  0  1  0  0  0  0  0  0  0  0  0
    1.3420   14.0760   -4.6540 O   0  0  0  0  0  0  0  0  0  0  0  0
    0.1670   12.4400   -7.0940 O   0  0  0  0  0  0  0  0  0  0  0  0
   -2.4440   11.5570   -4.7370 O   0  0  0  0  0  0  0  0  0  0  0  0
   -0.9890    9.5190   -5.6090 C   0  0  2  0  0  0  0  0  0  0  0  0
   -0.0580   10.1030   -6.7250 C   0  0  1  0  0  0  0  0  0  0  0  0
    0.0900   14.4570   -5.2350 C   0  0  2  0  0  0  0  0  0  0  0  0
   -2.3860    9.1440   -6.0600 C   0  0  0  0  0  0  0  0  0  0  0  0
   -0.8400   10.2460   -8.0290 C   0  0  0  0  0  0  0  0  0  0  0  0
   -0.0970   15.9710   -5.2540 C   0  0  1  0  0  0  0  0  0  0  0  0
   -1.1040   13.8500   -4.5240 C   0  0  0  0  0  0  0  0  0  0  0  0
   -2.3390    8.2800   -7.3040 C   0  0  0  0  0  0  0  0  0  0  0  0
   -1.5000    8.9170   -8.4180 C   0  0  0  0  0  0  0  0  0  0  0  0
   -1.5480   16.4840   -5.0740 C   0  0  2  0  0  0  0  0  0  0  0  0
   -2.3730   14.0940   -5.3390 C   0  0  0  0  0  0  0  0  0  0  0  0
    0.7800   16.7380   -4.2930 C   0  0  0  0  0  0  0  0  0  0  0  0
   -2.6900   15.5770   -5.5350 C   0  0  0  0  0  0  0  0  0  0  0  0
   -1.6130   17.8950   -5.6540 C   0  0  0  0  0  0  0  0  0  0  0  0
    0.7070   18.2160   -4.6350 C   0  0  0  0  0  0  0  0  0  0  0  0
   -0.2070   18.4870   -5.8310 C   0  0  0  0  0  0  0  0  0  0  0  0
  1  2  1  0
  2  3  1  1
  1  4  1  0
  2  5  1  0
  4  6  1  0
  4  7  1  0
  5  8  1  0
  6  9  1  6
  7 10  1  6
  7 11  1  0
  6 12  1  0
 11 12  1  0
 13  8  1  1
 11 14  1  6
 12 15  1  6
 13 16  1  0
 13 17  1  0
 14 18  1  0
 15 19  1  0
 18 19  1  0
 16 20  1  0
 17 21  1  0
 16 22  1  1
 20 23  1  6
 21 23  1  0
 20 24  1  0
 22 25  1  0
 24 26  1  0
 25 26  1  0
M  END
