ucsf303-ucsf387
     RDKit          3D

 28 30  0  0  0  0  0  0  0  0999 V2000
   -2.7990   13.3130   -2.7950 O   0  0  0  0  0  0  0  0  0  0  0  0
   -4.0930   13.9780   -2.1220 S   0  0  1  0  0  0  0  0  0  0  0  0
   -4.2570   15.2190   -3.0440 O   0  0  0  0  0  0  0  0  0  0  0  0
   -5.3180   12.9500   -2.2090 N   0  0  0  0  0  0  0  0  0  0  0  0
   -3.5070   14.3590   -0.5280 C   0  0  0  0  0  0  0  0  0  0  0  0
   -4.1540   14.9370   -4.4130 C   0  0  0  0  0  0  0  0  0  0  0  0
   -5.2090   11.6350   -2.6640 C   0  0  2  0  0  0  0  0  0  0  0  0
   -1.9920   14.4110   -0.3450 C   0  0  0  0  0  0  0  0  0  0  0  0
   -4.2950   15.5070    0.0560 C   0  0  0  0  0  0  0  0  0  0  0  0
   -3.1980   15.9440   -4.9470 C   0  0  0  0  0  0  0  0  0  0  0  0
   -5.8820   10.7720   -1.7100 N   0  0  0  0  0  0  0  0  0  0  0  0
   -3.5160   11.0550   -2.6350 S   0  0  0  0  0  0  0  0  0  0  0  0
   -1.7210   14.7110    1.1180 C   0  0  0  0  0  0  0  0  0  0  0  0
   -4.1450   15.5240    1.5400 C   0  0  0  0  0  0  0  0  0  0  0  0
   -4.1620    9.3890   -2.6890 C   0  0  0  0  0  0  0  0  0  0  0  0
   -5.5200    9.4020   -2.1170 N   0  0  0  0  0  0  0  0  0  0  0  0
   -3.0230   14.5790    1.9190 C   0  0  0  0  0  0  0  0  0  0  0  0
   -1.7450   15.5380   -5.1150 C   0  0  2  0  0  0  0  0  0  0  0  0
   -1.0800   14.6560   -4.0630 C   0  0  0  0  0  0  0  0  0  0  0  0
   -0.9800   16.8440   -5.2640 C   0  0  0  0  0  0  0  0  0  0  0  0
    0.3760   14.3400   -4.4990 C   0  0  2  0  0  0  0  0  0  0  0  0
    0.3600   16.9090   -4.5700 C   0  0  2  0  0  0  0  0  0  0  0  0
    1.1210   18.3150   -5.3580 Cl  0  0  0  0  0  0  0  0  0  0  0  0
    1.1110   13.3010   -3.5760 C   0  0  0  0  0  0  0  0  0  0  0  0
    1.1940   15.6420   -4.7000 C   0  0  0  0  0  0  0  0  0  0  0  0
    0.2540   12.4440   -2.5940 C   0  0  1  0  0  0  0  0  0  0  0  0
    0.5430   11.1640   -2.6320 O   0  0  0  0  0  0  0  0  0  0  0  0
    0.5930   12.7710   -1.2620 O   0  0  0  0  0  0  0  0  0  0  0  0
  2  1  1  6
  2  3  1  0
  2  4  1  0
  2  5  1  0
  3  6  1  0
  7  4  1  1
  5  8  1  0
  5  9  1  0
  6 10  1  0
  7 11  1  0
  7 12  1  0
  8 13  1  0
  9 14  1  0
 12 15  1  0
 11 16  1  0
 15 16  1  0
 13 17  1  0
 14 17  1  0
 18 10  1  1
 18 19  1  0
 18 20  1  0
 19 21  1  0
 20 22  1  0
 22 23  1  6
 21 24  1  1
 21 25  1  0
 22 25  1  0
 24 26  1  0
 26 27  1  6
 26 28  1  0
M  CHG  1  27  -1
M  END
