ucsf138-ucsf169
     RDKit          3D

 23 24  0  0  0  0  0  0  0  0999 V2000
    1.9730   12.3930   -3.0030 O   0  0  0  0  0  0  0  0  0  0  0  0
    0.6580   12.3920   -2.9570 C   0  0  2  0  0  0  0  0  0  0  0  0
    0.4360   11.0520   -2.5400 O   0  0  0  0  0  0  0  0  0  0  0  0
    0.0000   12.5850   -4.3870 C   0  0  2  0  0  0  0  0  0  0  0  0
    0.2580   11.4260   -5.3410 N   0  0  0  0  0  0  0  0  0  0  0  0
   -0.3410   14.0720   -4.9070 C   0  0  1  0  0  0  0  0  0  0  0  0
    0.8460   11.5120   -6.6570 C   0  0  2  0  0  0  0  0  0  0  0  0
   -1.8180   14.3420   -4.5110 C   0  0  0  0  0  0  0  0  0  0  0  0
    0.5250   15.2940   -4.4330 C   0  0  0  0  0  0  0  0  0  0  0  0
    1.0940   12.7880   -7.0060 O   0  0  0  0  0  0  0  0  0  0  0  0
    0.0900   10.7170   -7.6180 N   0  0  0  0  0  0  0  0  0  0  0  0
   -0.2740   16.6000   -4.1000 C   0  0  1  0  0  0  0  0  0  0  0  0
   -2.4320   15.6600   -5.0050 C   0  0  0  0  0  0  0  0  0  0  0  0
    0.4860   17.8260   -4.1450 O   0  0  0  0  0  0  0  0  0  0  0  0
    0.8280   10.1950   -8.7840 C   0  0  0  0  0  0  0  0  0  0  0  0
   -1.4560   16.8240   -5.0500 C   0  0  1  0  0  0  0  0  0  0  0  0
    1.0210   18.1220   -5.4300 C   0  0  0  0  0  0  0  0  0  0  0  0
   -2.1290   18.0660   -4.7490 O   0  0  0  0  0  0  0  0  0  0  0  0
   -0.0880   10.2150  -10.0270 C   0  0  0  0  0  0  0  0  0  0  0  0
    1.3510    8.7540   -8.5890 C   0  0  0  0  0  0  0  0  0  0  0  0
    0.5780    9.6260  -11.2790 C   0  0  0  0  0  0  0  0  0  0  0  0
    2.0360    8.1590   -9.8280 C   0  0  0  0  0  0  0  0  0  0  0  0
    1.1160    8.2170  -11.0410 C   0  0  0  0  0  0  0  0  0  0  0  0
  2  1  1  6
  2  3  1  0
  2  4  1  0
  4  5  1  6
  4  6  1  0
  5  7  1  0
  6  8  1  1
  6  9  1  0
  7 10  1  6
  7 11  1  0
  9 12  1  0
  8 13  1  0
 12 14  1  6
 11 15  1  0
 12 16  1  0
 13 16  1  0
 14 17  1  0
 16 18  1  1
 15 19  1  0
 15 20  1  0
 19 21  1  0
 20 22  1  0
 21 23  1  0
 22 23  1  0
M  CHG  1   1  -1
M  END
