ucsf422-ucsf387
     RDKit          3D

 15 16  0  0  0  0  0  0  0  0999 V2000
    0.3740   11.0370   -2.6560 O   0  0  0  0  0  0  0  0  0  0  0  0
    0.4560   12.3240   -2.9180 C   0  0  1  0  0  0  0  0  0  0  0  0
    1.5770   12.6930   -2.1560 O   0  0  0  0  0  0  0  0  0  0  0  0
    0.7600   12.5380   -4.4150 C   0  0  0  0  0  0  0  0  0  0  0  0
    1.1810   13.9680   -4.7980 C   0  0  2  0  0  0  0  0  0  0  0  0
    1.9140   14.7440   -3.7160 C   0  0  0  0  0  0  0  0  0  0  0  0
    0.0780   14.9570   -5.1980 C   0  0  2  0  0  0  0  0  0  0  0  0
    1.6340   16.1460   -4.0340 N   0  0  0  0  0  0  0  0  0  0  0  0
    0.2010   16.1160   -4.2460 C   0  0  1  0  0  0  0  0  0  0  0  0
   -1.3440   14.4610   -5.2990 C   0  0  0  0  0  0  0  0  0  0  0  0
   -0.4670   17.3710   -4.8020 C   0  0  1  0  0  0  0  0  0  0  0  0
   -2.3570   15.5800   -5.4800 C   0  0  1  0  0  0  0  0  0  0  0  0
   -3.7960   15.1200   -4.2520 Br  0  0  0  0  0  0  0  0  0  0  0  0
    0.6130   18.2150   -5.9550 Cl  0  0  0  0  0  0  0  0  0  0  0  0
   -1.8720   17.0680   -5.3970 C   0  0  0  0  0  0  0  0  0  0  0  0
  2  1  1  6
  2  3  1  0
  2  4  1  0
  5  4  1  1
  5  6  1  0
  5  7  1  0
  6  8  1  0
  7  9  1  0
  9  8  1  6
  7 10  1  1
  9 11  1  0
 10 12  1  0
 12 13  1  1
 11 14  1  6
 11 15  1  0
 12 15  1  0
M  CHG  1   1  -1
M  END
