ucsf039-ucsf516
     RDKit          3D

 25 29  0  0  0  0  0  0  0  0999 V2000
   -4.3840   15.3030    1.0680 N   0  0  0  0  0  0  0  0  0  0  0  0
   -3.4790   15.3710   -0.0620 C   0  0  1  0  0  0  0  0  0  0  0  0
   -2.3200   14.3560    0.0020 C   0  0  1  0  0  0  0  0  0  0  0  0
   -4.3520   15.1020   -1.1630 N   0  0  0  0  0  0  0  0  0  0  0  0
   -3.6470   15.3490   -2.3980 C   0  0  0  0  0  0  0  0  0  0  0  0
   -1.8090   13.9400   -1.4300 C   0  0  1  0  0  0  0  0  0  0  0  0
   -1.1430   14.8140    0.7980 N   0  0  0  0  0  0  0  0  0  0  0  0
   -2.5890   14.3930   -2.6170 N   0  0  0  0  0  0  0  0  0  0  0  0
   -0.4610   14.6740   -1.4790 C   0  0  1  0  0  0  0  0  0  0  0  0
    0.0260   14.5330   -0.0340 C   0  0  0  0  0  0  0  0  0  0  0  0
   -1.8460   14.6040   -3.9020 C   0  0  0  0  0  0  0  0  0  0  0  0
    0.2770   14.0430   -2.7110 C   0  0  2  0  0  0  0  0  0  0  0  0
   -0.6720   16.1210   -1.8880 C   0  0  0  0  0  0  0  0  0  0  0  0
   -1.1370   15.9480   -4.3560 C   0  0  1  0  0  0  0  0  0  0  0  0
    1.2140   12.9120   -2.3850 C   0  0  0  0  0  0  0  0  0  0  0  0
    1.0450   15.2030   -3.3210 C   0  0  0  0  0  0  0  0  0  0  0  0
    0.0600   16.3510   -3.2000 C   0  0  0  0  0  0  0  0  0  0  0  0
    0.2770   15.8390   -4.9670 C   0  0  0  0  0  0  0  0  0  0  0  0
   -1.8900   16.7990   -5.2910 N   0  0  0  0  0  0  0  0  0  0  0  0
    2.4650   12.7820   -3.3030 C   0  0  0  0  0  0  0  0  0  0  0  0
    0.7340   11.5160   -2.8790 C   0  0  0  0  0  0  0  0  0  0  0  0
   -1.0930   18.0190   -5.4390 C   0  0  1  0  0  0  0  0  0  0  0  0
    0.6490   17.5260   -5.5360 S   0  0  0  0  0  0  0  0  0  0  0  0
    1.8730   11.5160   -3.9140 C   0  0  0  0  0  0  0  0  0  0  0  0
   -1.5120   18.7770   -6.6840 C   0  0  0  0  0  0  0  0  0  0  0  0
  2  1  1  1
  2  3  1  0
  2  4  1  0
  4  5  1  0
  3  6  1  0
  3  7  1  1
  5  8  1  0
  6  8  1  6
  6  9  1  0
  7 10  1  0
  9 10  1  1
  8 11  1  0
  9 12  1  0
  9 13  1  0
 14 11  1  6
 12 15  1  1
 12 16  1  0
 13 17  1  0
 16 17  1  0
 14 18  1  0
 14 19  1  0
 15 20  1  0
 15 21  1  0
 19 22  1  0
 18 23  1  0
 22 23  1  0
 20 24  1  0
 21 24  1  0
 22 25  1  6
M  END
