ucsf278-ucsf365
     RDKit          3D

 22 24  0  0  0  0  0  0  0  0999 V2000
   -0.9600   14.5320   -0.9520 Cl  0  0  0  0  0  0  0  0  0  0  0  0
    0.3080   14.7490   -2.2030 C   0  0  2  0  0  0  0  0  0  0  0  0
   -0.0340   14.1070   -3.5520 C   0  0  2  0  0  0  0  0  0  0  0  0
    1.6350   14.2350   -1.6720 C   0  0  0  0  0  0  0  0  0  0  0  0
    0.1180   12.5920   -3.6390 C   0  0  0  0  0  0  0  0  0  0  0  0
    0.9500   14.4940   -4.6190 C   0  0  2  0  0  0  0  0  0  0  0  0
    2.5630   13.6800   -2.7560 C   0  0  0  0  0  0  0  0  0  0  0  0
    0.3290   12.2760   -5.1230 C   0  0  2  0  0  0  0  0  0  0  0  0
    0.6190   13.6030   -5.7340 N   0  0  0  0  0  0  0  0  0  0  0  0
    2.3770   14.2970   -4.1480 C   0  0  0  0  0  0  0  0  0  0  0  0
   -0.9020   11.6350   -5.7900 C   0  0  1  0  0  0  0  0  0  0  0  0
   -0.8350   10.2020   -5.6130 O   0  0  0  0  0  0  0  0  0  0  0  0
   -2.2500   12.1660   -5.2490 C   0  0  1  0  0  0  0  0  0  0  0  0
   -2.4930   12.0240   -3.7000 C   0  0  1  0  0  0  0  0  0  0  0  0
   -2.4700   13.6060   -5.7630 C   0  0  0  0  0  0  0  0  0  0  0  0
   -1.5990   10.9410   -2.9560 C   0  0  0  0  0  0  0  0  0  0  0  0
   -3.6440   14.2950   -5.0790 C   0  0  0  0  0  0  0  0  0  0  0  0
   -2.4670   13.4180   -3.0030 C   0  0  0  0  0  0  0  0  0  0  0  0
   -0.2470   11.3580   -2.2930 C   0  0  2  0  0  0  0  0  0  0  0  0
   -3.3930   14.4890   -3.5960 C   0  0  0  0  0  0  0  0  0  0  0  0
    0.4190   10.3220   -1.8350 O   0  0  0  0  0  0  0  0  0  0  0  0
   -0.4380   12.1180   -1.1280 O   0  0  0  0  0  0  0  0  0  0  0  0
  2  1  1  1
  2  3  1  0
  2  4  1  0
  3  5  1  1
  3  6  1  0
  4  7  1  0
  8  5  1  1
  6  9  1  0
  8  9  1  0
  6 10  1  1
  7 10  1  0
  8 11  1  0
 11 12  1  1
 11 13  1  0
 13 14  1  0
 13 15  1  1
 14 16  1  1
 15 17  1  0
 14 18  1  0
 16 19  1  0
 17 20  1  0
 18 20  1  0
 19 21  1  1
 19 22  1  0
M  CHG  1  21  -1
M  END
