ucsf213-ucsf006
     RDKit          3D

 28 31  0  0  0  0  0  0  0  0999 V2000
    0.8540   11.4210   -2.6340 O   0  0  0  0  0  0  0  0  0  0  0  0
    1.6900   12.3920   -3.0070 C   0  0  2  0  0  0  0  0  0  0  0  0
    1.3600   13.3660   -2.0450 O   0  0  0  0  0  0  0  0  0  0  0  0
    1.3880   12.8840   -4.4800 C   0  0  1  0  0  0  0  0  0  0  0  0
    0.1180   12.3020   -5.0700 C   0  0  2  0  0  0  0  0  0  0  0  0
    1.0380   14.3630   -4.8010 C   0  0  2  0  0  0  0  0  0  0  0  0
   -1.0700   13.1100   -4.5600 C   0  0  0  0  0  0  0  0  0  0  0  0
   -0.0870   10.9230   -4.7590 O   0  0  0  0  0  0  0  0  0  0  0  0
    1.2140   15.5600   -3.8470 C   0  0  0  0  0  0  0  0  0  0  0  0
   -0.7370   14.4440   -5.2700 S   0  0  0  0  0  0  0  0  0  0  0  0
   -0.7710   13.7230   -3.1700 C   0  0  0  0  0  0  0  0  0  0  0  0
    0.1080   16.6280   -4.1100 C   0  0  2  0  0  0  0  0  0  0  0  0
   -0.7180   16.2140   -5.2850 C   0  0  2  0  0  0  0  0  0  0  0  0
   -1.8950   14.3490   -2.4220 N   0  0  0  0  0  0  0  0  0  0  0  0
    0.5080   18.0540   -4.4600 C   0  0  0  0  0  0  0  0  0  0  0  0
   -2.0800   16.8930   -5.3860 C   0  0  0  0  0  0  0  0  0  0  0  0
   -2.7100   15.1320   -3.3530 C   0  0  0  0  0  0  0  0  0  0  0  0
   -0.2330   18.4960   -5.7520 C   0  0  0  0  0  0  0  0  0  0  0  0
   -1.7600   18.3320   -5.7120 C   0  0  0  0  0  0  0  0  0  0  0  0
   -1.4310   15.1380   -1.2800 C   0  0  1  0  0  0  0  0  0  0  0  0
   -2.5940   15.5600   -0.3950 C   0  0  2  0  0  0  0  0  0  0  0  0
   -0.4790   14.3280   -0.5160 N   0  0  0  0  0  0  0  0  0  0  0  0
   -2.4820   14.7890    0.8690 C   0  0  1  0  0  0  0  0  0  0  0  0
   -0.1400   14.7630    0.8240 C   0  0  0  0  0  0  0  0  0  0  0  0
   -4.0360   15.2530   -0.7840 C   0  0  0  0  0  0  0  0  0  0  0  0
   -1.3080   15.1670    1.5490 N   0  0  0  0  0  0  0  0  0  0  0  0
   -3.6400   15.2800    1.5740 N   0  0  0  0  0  0  0  0  0  0  0  0
   -4.6880   15.0150    0.5780 C   0  0  0  0  0  0  0  0  0  0  0  0
  2  1  1  1
  2  3  1  0
  4  2  1  1
  4  5  1  0
  4  6  1  0
  5  7  1  0
  5  8  1  1
  6  9  1  1
  6 10  1  0
  7 11  1  0
 12  9  1  6
 10 13  1  0
 12 13  1  0
 11 14  1  0
 12 15  1  0
 13 16  1  1
 14 17  1  0
 15 18  1  0
 16 19  1  0
 18 19  1  0
 20 14  1  6
 20 21  1  0
 20 22  1  0
 21 23  1  0
 22 24  1  0
 21 25  1  6
 23 26  1  1
 24 26  1  0
 23 27  1  0
 25 28  1  0
 27 28  1  0
M  CHG  1   1  -1
M  END
