ucsf365-ucsf151
     RDKit          3D

 13 13  0  0  0  0  0  0  0  0999 V2000
    0.2320   11.7590   -1.8700 O   0  0  0  0  0  0  0  0  0  0  0  0
    0.8470   12.7380   -2.5180 C   0  0  0  0  0  0  0  0  0  0  0  0
    2.1860   12.5290   -2.2940 O   0  0  0  0  0  0  0  0  0  0  0  0
    0.5270   12.8250   -4.0050 C   0  0  0  0  0  0  0  0  0  0  0  0
    0.4540   13.9290   -1.8840 O   0  0  0  0  0  0  0  0  0  0  0  0
   -0.9050   13.3740   -4.2320 C   0  0  2  0  0  0  0  0  0  0  0  0
   -1.8770   12.4000   -4.9120 C   0  0  2  0  0  0  0  0  0  0  0  0
   -0.8540   14.7440   -4.9350 C   0  0  0  0  0  0  0  0  0  0  0  0
   -1.2060   11.2050   -5.3120 O   0  0  0  0  0  0  0  0  0  0  0  0
   -2.5730   13.0140   -6.1210 C   0  0  0  0  0  0  0  0  0  0  0  0
   -2.2610   15.3350   -5.1300 C   0  0  1  0  0  0  0  0  0  0  0  0
   -2.2580   16.5730   -5.8450 O   0  0  0  0  0  0  0  0  0  0  0  0
   -3.2140   14.3680   -5.8240 C   0  0  0  0  0  0  0  0  0  0  0  0
  2  1  1  0
  2  3  1  0
  2  4  1  0
  2  5  1  0
  6  4  1  6
  6  7  1  0
  6  8  1  0
  7  9  1  6
  7 10  1  0
  8 11  1  0
 11 12  1  6
 10 13  1  0
 11 13  1  0
M  CHG  1   1  -1
M  END
