ucsf493-ucsf337
     RDKit          3D

 25 27  0  0  0  0  0  0  0  0999 V2000
   -4.6440   15.3340   -6.2780 C   0  0  0  0  0  0  0  0  0  0  0  0
   -3.9270   15.5740   -5.0260 N   0  0  0  0  0  0  0  0  0  0  0  0
   -4.1930   14.3830   -4.2160 C   0  0  0  0  0  0  0  0  0  0  0  0
   -2.4880   15.8040   -5.3040 C   0  0  2  0  0  0  0  0  0  0  0  0
   -5.5550   14.5170   -3.6860 N   0  0  0  0  0  0  0  0  0  0  0  0
   -1.6510   14.5190   -5.1290 C   0  0  0  0  0  0  0  0  0  0  0  0
   -1.8900   17.0700   -4.6090 C   0  0  0  0  0  0  0  0  0  0  0  0
   -0.3360   14.8050   -4.4370 C   0  0  2  0  0  0  0  0  0  0  0  0
   -0.3920   17.3270   -4.8220 C   0  0  0  0  0  0  0  0  0  0  0  0
   -5.5230   15.1300   -2.3860 C   0  0  2  0  0  0  0  0  0  0  0  0
    0.3530   16.0210   -5.0360 C   0  0  1  0  0  0  0  0  0  0  0  0
    0.7870   13.7730   -4.5710 C   0  0  2  0  0  0  0  0  0  0  0  0
   -4.0860   15.3530   -1.9740 C   0  0  0  0  0  0  0  0  0  0  0  0
   -6.2980   14.2590   -1.5010 N   0  0  0  0  0  0  0  0  0  0  0  0
    0.6330   12.3000   -4.0920 C   0  0  0  0  0  0  0  0  0  0  0  0
    1.7100   15.9760   -4.4990 N   0  0  0  0  0  0  0  0  0  0  0  0
    1.9770   14.5710   -4.0780 C   0  0  0  0  0  0  0  0  0  0  0  0
   -5.9240   14.1080   -0.0680 C   0  0  2  0  0  0  0  0  0  0  0  0
   -4.0810   15.8000   -0.5710 C   0  0  0  0  0  0  0  0  0  0  0  0
    0.0510   11.7770   -2.7290 C   0  0  1  0  0  0  0  0  0  0  0  0
   -7.1210   14.5810    0.7700 C   0  0  0  0  0  0  0  0  0  0  0  0
   -4.5320   14.7020    0.3170 C   0  0  1  0  0  0  0  0  0  0  0  0
    0.4260   10.4200   -2.5570 O   0  0  0  0  0  0  0  0  0  0  0  0
    0.5430   12.3130   -1.6270 O   0  0  0  0  0  0  0  0  0  0  0  0
   -4.3980   15.6920    1.9740 Br  0  0  0  0  0  0  0  0  0  0  0  0
  1  2  1  0
  2  3  1  0
  4  2  1  1
  3  5  1  0
  4  6  1  0
  4  7  1  0
  8  6  1  6
  7  9  1  0
 10  5  1  6
  8 11  1  0
 11  9  1  1
  8 12  1  0
 10 13  1  0
 10 14  1  0
 12 15  1  1
 11 16  1  0
 12 17  1  0
 16 17  1  0
 14 18  1  0
 13 19  1  0
 15 20  1  0
 18 21  1  1
 18 22  1  0
 19 22  1  0
 20 23  1  1
 20 24  1  0
 22 25  1  1
M  CHG  1  24  -1
M  END
