ucsf258-ucsf520
     RDKit          3D

 19 21  0  0  0  0  0  0  0  0999 V2000
    0.8450   13.2910   -2.1810 O   0  0  0  0  0  0  0  0  0  0  0  0
   -0.1690   13.7060   -2.9370 C   0  0  2  0  0  0  0  0  0  0  0  0
    0.3200   14.4730   -4.0440 O   0  0  0  0  0  0  0  0  0  0  0  0
   -1.2220   14.4900   -1.9930 C   0  0  1  0  0  0  0  0  0  0  0  0
   -2.5760   15.0020   -2.6540 C   0  0  1  0  0  0  0  0  0  0  0  0
   -1.4210   14.0970   -0.6080 N   0  0  0  0  0  0  0  0  0  0  0  0
    0.0680   15.8630   -3.9850 C   0  0  2  0  0  0  0  0  0  0  0  0
   -2.9050   14.3020   -3.8650 O   0  0  0  0  0  0  0  0  0  0  0  0
   -3.8610   15.0460   -1.7690 C   0  0  0  0  0  0  0  0  0  0  0  0
   -2.1730   15.0570    0.1090 C   0  0  1  0  0  0  0  0  0  0  0  0
   -0.1570   13.9160    0.0650 N   0  0  0  0  0  0  0  0  0  0  0  0
   -1.4170   16.1240   -4.1190 C   0  0  0  0  0  0  0  0  0  0  0  0
    0.5100   16.6780   -5.1640 C   0  0  0  0  0  0  0  0  0  0  0  0
   -3.6580   14.9540   -0.2420 C   0  0  1  0  0  0  0  0  0  0  0  0
   -1.7060   14.9820    1.4740 N   0  0  0  0  0  0  0  0  0  0  0  0
   -0.2980   14.6120    1.3210 C   0  0  0  0  0  0  0  0  0  0  0  0
   -1.5730   17.5310   -4.3920 O   0  0  0  0  0  0  0  0  0  0  0  0
   -0.3050   17.9310   -4.9420 C   0  0  0  0  0  0  0  0  0  0  0  0
   -4.4750   15.9210    0.5330 N   0  0  0  0  0  0  0  0  0  0  0  0
  2  1  1  1
  2  3  1  0
  2  4  1  0
  4  5  1  0
  4  6  1  1
  7  3  1  6
  5  8  1  6
  5  9  1  0
  6 10  1  0
  6 11  1  0
  7 12  1  0
  7 13  1  0
  9 14  1  0
 10 14  1  0
 10 15  1  1
 11 16  1  0
 15 16  1  0
 12 17  1  0
 13 18  1  0
 17 18  1  0
 14 19  1  1
M  CHG  1   1  -1
M  END
