ucsf169-ucsf520
     RDKit          3D

 24 26  0  0  0  0  0  0  0  0999 V2000
    1.3540   18.4680   -5.7720 C   0  0  0  0  0  0  0  0  0  0  0  0
   -0.0080   18.2200   -5.6240 O   0  0  0  0  0  0  0  0  0  0  0  0
   -0.2570   17.1670   -4.6980 C   0  0  1  0  0  0  0  0  0  0  0  0
   -1.7800   16.9220   -4.7300 C   0  0  1  0  0  0  0  0  0  0  0  0
    0.6230   15.9190   -5.0400 C   0  0  0  0  0  0  0  0  0  0  0  0
   -2.4220   17.7160   -5.7300 O   0  0  0  0  0  0  0  0  0  0  0  0
   -2.0970   15.4620   -4.8380 C   0  0  0  0  0  0  0  0  0  0  0  0
    0.2830   14.7680   -4.0940 C   0  0  2  0  0  0  0  0  0  0  0  0
    0.8740   13.3510   -4.2810 C   0  0  0  0  0  0  0  0  0  0  0  0
   -1.2070   14.8250   -3.7860 C   0  0  2  0  0  0  0  0  0  0  0  0
    0.6650   12.5730   -2.9430 C   0  0  2  0  0  0  0  0  0  0  0  0
   -1.9170   13.8070   -2.9390 C   0  0  0  0  0  0  0  0  0  0  0  0
    1.8630   12.6200   -2.2150 O   0  0  0  0  0  0  0  0  0  0  0  0
    0.5050   11.2820   -3.1300 O   0  0  0  0  0  0  0  0  0  0  0  0
   -2.4580   14.5240   -1.8120 N   0  0  0  0  0  0  0  0  0  0  0  0
   -3.8950   14.3080   -1.7040 C   0  0  0  0  0  0  0  0  0  0  0  0
   -1.7820   14.2180   -0.5650 C   0  0  2  0  0  0  0  0  0  0  0  0
   -4.4440   15.1700   -0.6730 N   0  0  0  0  0  0  0  0  0  0  0  0
   -2.2990   15.1700    0.4830 C   0  0  1  0  0  0  0  0  0  0  0  0
   -0.3740   14.5770   -0.4740 N   0  0  0  0  0  0  0  0  0  0  0  0
   -3.7960   14.9200    0.5920 C   0  0  1  0  0  0  0  0  0  0  0  0
   -1.4310   14.8480    1.6140 N   0  0  0  0  0  0  0  0  0  0  0  0
   -0.1450   14.5930    0.9620 C   0  0  0  0  0  0  0  0  0  0  0  0
   -4.4840   15.6630    1.6180 N   0  0  0  0  0  0  0  0  0  0  0  0
  1  2  1  0
  3  2  1  6
  3  4  1  0
  3  5  1  0
  4  6  1  6
  4  7  1  0
  5  8  1  0
  8  9  1  6
  7 10  1  0
  8 10  1  0
  9 11  1  0
 10 12  1  6
 11 13  1  1
 11 14  1  0
 12 15  1  0
 15 16  1  0
 15 17  1  0
 16 18  1  0
 17 19  1  0
 17 20  1  6
 18 21  1  0
 19 21  1  0
 19 22  1  1
 20 23  1  0
 22 23  1  0
 21 24  1  1
M  CHG  1  14  -1
M  END
