ucsf303-ucsf016
     RDKit          3D

 26 30  0  0  0  0  0  0  0  0999 V2000
   -2.9010   13.5050   -3.3390 O   0  0  0  0  0  0  0  0  0  0  0  0
   -4.0860   14.1070   -2.4560 S   0  0  0  0  0  0  0  0  0  0  0  0
   -4.5010   15.5320   -3.0190 O   0  0  0  0  0  0  0  0  0  0  0  0
   -5.3460   13.0820   -2.4270 N   0  0  0  0  0  0  0  0  0  0  0  0
   -3.4170   14.3490   -0.8830 C   0  0  1  0  0  0  0  0  0  0  0  0
   -5.1030   11.8690   -1.7230 C   0  0  1  0  0  0  0  0  0  0  0  0
   -1.9310   13.9860   -0.6210 C   0  0  2  0  0  0  0  0  0  0  0  0
   -4.0710   15.5470   -0.2550 C   0  0  0  0  0  0  0  0  0  0  0  0
   -6.1310   10.8840   -2.0800 N   0  0  0  0  0  0  0  0  0  0  0  0
   -3.5010   11.2600   -2.2740 S   0  0  0  0  0  0  0  0  0  0  0  0
   -1.5800   14.2580    0.8570 C   0  0  2  0  0  0  0  0  0  0  0  0
   -3.6480   15.7610    1.1600 C   0  0  0  0  0  0  0  0  0  0  0  0
   -0.6260   14.4150   -1.3670 C   0  0  1  0  0  0  0  0  0  0  0  0
   -4.1760    9.6690   -2.7380 C   0  0  0  0  0  0  0  0  0  0  0  0
   -5.5070    9.5580   -2.1360 N   0  0  0  0  0  0  0  0  0  0  0  0
   -2.8390   14.5930    1.6720 C   0  0  0  0  0  0  0  0  0  0  0  0
   -0.4870   14.7660   -2.7940 N   0  0  0  0  0  0  0  0  0  0  0  0
    0.1460   15.2660   -0.4820 N   0  0  0  0  0  0  0  0  0  0  0  0
   -0.4520   15.2770    0.8470 C   0  0  0  0  0  0  0  0  0  0  0  0
    0.6070   14.1480   -3.5500 C   0  0  0  0  0  0  0  0  0  0  0  0
   -1.6160   15.2740   -3.6310 C   0  0  0  0  0  0  0  0  0  0  0  0
   -1.9500   14.5030   -4.9050 C   0  0  0  0  0  0  0  0  0  0  0  0
    0.1340   13.1520   -4.5890 C   0  0  0  0  0  0  0  0  0  0  0  0
   -3.2850   13.7810   -5.0850 C   0  0  0  0  0  0  0  0  0  0  0  0
   -3.0670   15.0810   -5.7760 C   0  0  0  0  0  0  0  0  0  0  0  0
   -0.7360   13.8910   -5.5740 C   0  0  0  0  0  0  0  0  0  0  0  0
  2  1  1  0
  2  3  1  0
  2  4  1  0
  5  2  1  6
  6  4  1  6
  7  5  1  6
  5  8  1  0
  6  9  1  0
  6 10  1  0
  7 11  1  0
  8 12  1  0
  7 13  1  0
 10 14  1  0
  9 15  1  0
 14 15  1  0
 11 16  1  1
 12 16  1  0
 13 17  1  6
 13 18  1  0
 11 19  1  0
 18 19  1  0
 17 20  1  0
 17 21  1  0
 22 21  1  0
 20 23  1  0
 22 24  1  0
 22 25  1  0
 24 25  1  0
 22 26  1  0
 23 26  1  0
M  END
