ucsf172-ucsf005
     RDKit          3D

 18 19  0  0  0  0  0  0  0  0999 V2000
   -8.0680   14.9440    2.5210 C   0  0  0  0  0  0  0  0  0  0  0  0
   -6.9800   14.3990    1.2560 S   0  0  0  0  0  0  0  0  0  0  0  0
   -6.9760   12.8160    1.4300 O   0  0  0  0  0  0  0  0  0  0  0  0
   -7.7580   14.6810   -0.1170 O   0  0  0  0  0  0  0  0  0  0  0  0
   -5.4280   14.9370    1.2180 N   0  0  0  0  0  0  0  0  0  0  0  0
   -4.5510   14.5610    0.0890 C   0  0  2  0  0  0  0  0  0  0  0  0
   -3.1260   14.1050    0.4950 C   0  0  1  0  0  0  0  0  0  0  0  0
   -4.4230   15.6870   -0.9130 C   0  0  0  0  0  0  0  0  0  0  0  0
   -2.2530   13.8440   -0.7450 C   0  0  1  0  0  0  0  0  0  0  0  0
   -3.8540   15.2420   -2.2560 C   0  0  0  0  0  0  0  0  0  0  0  0
   -2.3300   15.0420    1.3340 N   0  0  0  0  0  0  0  0  0  0  0  0
   -2.8920   14.0370   -2.1550 C   0  0  1  0  0  0  0  0  0  0  0  0
   -0.9790   15.0170    0.8300 C   0  0  2  0  0  0  0  0  0  0  0  0
   -1.0760   14.7000   -0.5390 N   0  0  0  0  0  0  0  0  0  0  0  0
   -1.8140   14.0950   -3.2820 C   0  0  2  0  0  0  0  0  0  0  0  0
   -0.2910   13.9580    1.4960 N   0  0  0  0  0  0  0  0  0  0  0  0
   -0.5360   14.3200   -2.7160 O   0  0  0  0  0  0  0  0  0  0  0  0
   -1.9760   15.1590   -4.0460 O   0  0  0  0  0  0  0  0  0  0  0  0
  1  2  1  0
  2  3  1  0
  2  4  1  0
  2  5  1  0
  6  5  1  1
  6  7  1  0
  6  8  1  0
  7  9  1  0
  8 10  1  0
  7 11  1  1
  9 12  1  0
 12 10  1  1
 11 13  1  0
  9 14  1  1
 13 14  1  0
 12 15  1  0
 13 16  1  1
 15 17  1  1
 15 18  1  0
M  CHG  1  18  -1
M  END
