ucsf012-ucsf004
     RDKit          3D

 28 32  0  0  0  0  0  0  0  0999 V2000
   -3.8170   14.6920   -4.6440 C   0  0  0  0  0  0  0  0  0  0  0  0
   -3.5530   13.5640   -3.7000 C   0  0  2  0  0  0  0  0  0  0  0  0
   -3.9840   14.0060   -2.2660 C   0  0  1  0  0  0  0  0  0  0  0  0
   -2.2090   13.1480   -3.4520 N   0  0  0  0  0  0  0  0  0  0  0  0
   -5.4440   13.6920   -2.1150 C   0  0  0  0  0  0  0  0  0  0  0  0
   -1.3410   13.0590   -4.4780 C   0  0  0  0  0  0  0  0  0  0  0  0
   -3.0040   13.5030   -1.3980 C   0  0  1  0  0  0  0  0  0  0  0  0
   -1.9590   13.9610   -2.3240 C   0  0  1  0  0  0  0  0  0  0  0  0
   -3.0190   13.9590    0.3540 S   0  0  0  0  0  0  0  0  0  0  0  0
   -0.7930   14.8270   -2.2360 C   0  0  2  0  0  0  0  0  0  0  0  0
   -0.0210   12.4200   -4.1840 C   0  0  1  0  0  0  0  0  0  0  0  0
   -4.6830   13.2700    0.7380 N   0  0  0  0  0  0  0  0  0  0  0  0
   -2.3930   15.1300   -0.8690 N   0  0  0  0  0  0  0  0  0  0  0  0
   -1.0830   15.3890   -0.8510 C   0  0  0  0  0  0  0  0  0  0  0  0
    0.3160   11.9810   -2.8040 C   0  0  0  0  0  0  0  0  0  0  0  0
    0.0090   11.2090   -4.9420 O   0  0  0  0  0  0  0  0  0  0  0  0
   -1.0300   15.9740   -3.2170 C   0  0  0  0  0  0  0  0  0  0  0  0
    0.6070   14.4390   -2.3890 C   0  0  0  0  0  0  0  0  0  0  0  0
   -3.6160   15.0570    1.5090 N   0  0  0  0  0  0  0  0  0  0  0  0
   -1.8000   14.7060    1.4410 C   0  0  0  0  0  0  0  0  0  0  0  0
   -0.6110   10.2860   -4.1280 C   0  0  0  0  0  0  0  0  0  0  0  0
   -0.1490   10.5380   -2.7410 C   0  0  0  0  0  0  0  0  0  0  0  0
   -0.8890   15.5490   -4.6360 C   0  0  2  0  0  0  0  0  0  0  0  0
    1.3130   14.8630   -3.6230 C   0  0  0  0  0  0  0  0  0  0  0  0
   -1.8350   15.9610    0.7210 C   0  0  0  0  0  0  0  0  0  0  0  0
   -3.2620   16.2440    0.8740 C   0  0  0  0  0  0  0  0  0  0  0  0
   -1.6310   14.4660   -5.0370 F   0  0  0  0  0  0  0  0  0  0  0  0
    0.5810   15.1130   -4.9110 C   0  0  0  0  0  0  0  0  0  0  0  0
  2  1  1  6
  2  3  1  0
  2  4  1  0
  3  5  1  1
  4  6  1  0
  3  7  1  0
  8  4  1  1
  7  8  1  0
  7  9  1  1
  8 10  1  0
 11  6  1  1
  9 12  1  0
  9 13  1  0
 10 14  1  1
 13 14  1  0
 11 15  1  0
 11 16  1  0
 10 17  1  0
 10 18  1  0
  9 19  1  0
  9 20  1  0
 16 21  1  0
 15 22  1  0
 21 22  1  0
 17 23  1  0
 18 24  1  0
 20 25  1  0
 19 26  1  0
 25 26  1  0
 23 27  1  1
 23 28  1  0
 24 28  1  0
M  END
