ucsf262-ucsf017
     RDKit          3D

 30 35  0  0  0  0  0  0  0  0999 V2000
   -3.1310   16.0500   -4.3220 Cl  0  0  0  0  0  0  0  0  0  0  0  0
   -1.6650   16.3560   -5.3000 C   0  0  2  0  0  0  0  0  0  0  0  0
   -0.3880   16.1440   -4.4800 C   0  0  1  0  0  0  0  0  0  0  0  0
   -1.7270   17.7070   -6.0180 C   0  0  0  0  0  0  0  0  0  0  0  0
    0.0950   14.7060   -4.3960 C   0  0  1  0  0  0  0  0  0  0  0  0
    0.8320   16.7530   -5.0770 C   0  0  2  0  0  0  0  0  0  0  0  0
   -0.7450   18.7230   -5.4600 C   0  0  0  0  0  0  0  0  0  0  0  0
    1.5680   14.8740   -3.9480 C   0  0  1  0  0  0  0  0  0  0  0  0
    1.7580   16.3320   -4.0640 N   0  0  0  0  0  0  0  0  0  0  0  0
    0.7060   18.2360   -5.3050 C   0  0  0  0  0  0  0  0  0  0  0  0
   -0.8030   13.6700   -3.6110 C   0  0  1  0  0  0  0  0  0  0  0  0
    1.9240   14.4590   -2.4730 C   0  0  0  0  0  0  0  0  0  0  0  0
   -2.3100   13.9510   -3.7230 C   0  0  0  0  0  0  0  0  0  0  0  0
   -0.7190   12.4630   -4.5610 C   0  0  2  0  0  0  0  0  0  0  0  0
   -0.4000   13.2790   -2.2320 N   0  0  0  0  0  0  0  0  0  0  0  0
    3.2340   14.4480   -2.3290 O   0  0  0  0  0  0  0  0  0  0  0  0
   -1.7540   12.7880   -5.6320 C   0  0  0  0  0  0  0  0  0  0  0  0
   -2.6510   13.7760   -5.1070 O   0  0  0  0  0  0  0  0  0  0  0  0
   -1.0010   11.1010   -3.9120 C   0  0  0  0  0  0  0  0  0  0  0  0
    0.5400   12.1800   -2.2350 C   0  0  0  0  0  0  0  0  0  0  0  0
   -0.9460   13.6900   -0.9070 C   0  0  1  0  0  0  0  0  0  0  0  0
   -0.1430   10.9010   -2.6770 C   0  0  0  0  0  0  0  0  0  0  0  0
   -0.1250   14.6350   -0.2050 N   0  0  0  0  0  0  0  0  0  0  0  0
   -2.4190   14.0390   -0.5740 C   0  0  1  0  0  0  0  0  0  0  0  0
   -0.1680   14.3110    1.1980 C   0  0  0  0  0  0  0  0  0  0  0  0
   -2.4370   14.8160    0.7310 C   0  0  2  0  0  0  0  0  0  0  0  0
   -3.4590   14.8650   -1.3180 C   0  0  0  0  0  0  0  0  0  0  0  0
   -1.5470   14.3020    1.7080 N   0  0  0  0  0  0  0  0  0  0  0  0
   -3.8290   14.6980    1.0680 N   0  0  0  0  0  0  0  0  0  0  0  0
   -4.4380   15.2230   -0.1690 C   0  0  0  0  0  0  0  0  0  0  0  0
  2  1  1  1
  3  2  1  6
  2  4  1  0
  3  5  1  0
  3  6  1  0
  4  7  1  0
  5  8  1  1
  6  9  1  0
  8  9  1  0
  6 10  1  1
  7 10  1  0
  5 11  1  0
  8 12  1  1
 11 13  1  1
 11 14  1  0
 11 15  1  0
 12 16  1  0
 14 17  1  6
 13 18  1  0
 17 18  1  0
 14 19  1  0
 15 20  1  0
 21 15  1  6
 19 22  1  0
 20 22  1  0
 21 23  1  0
 21 24  1  0
 23 25  1  0
 24 26  1  0
 24 27  1  6
 25 28  1  0
 26 28  1  1
 26 29  1  0
 27 30  1  0
 29 30  1  0
M  CHG  1  16  -1
M  END
