ucsf378-ucsf006
     RDKit          3D

 25 28  0  0  0  0  0  0  0  0999 V2000
   -1.8070   15.1420   -3.4360 C   0  0  0  0  0  0  0  0  0  0  0  0
   -1.2000   15.2280   -2.1420 N   0  0  0  0  0  0  0  0  0  0  0  0
    0.2220   14.8470   -2.2290 C   0  0  0  0  0  0  0  0  0  0  0  0
   -0.5310   14.9160   -4.1680 C   0  0  1  0  0  0  0  0  0  0  0  0
    0.2770   13.6800   -3.9250 C   0  0  2  0  0  0  0  0  0  0  0  0
   -0.1650   15.6330   -5.3960 C   0  0  0  0  0  0  0  0  0  0  0  0
   -1.7470   14.4310   -1.1100 C   0  0  2  0  0  0  0  0  0  0  0  0
   -0.2890   12.4400   -3.3260 C   0  0  1  0  0  0  0  0  0  0  0  0
    0.5570   13.3310   -2.3560 C   0  0  0  0  0  0  0  0  0  0  0  0
    1.7280   13.7930   -4.2170 C   0  0  1  0  0  0  0  0  0  0  0  0
    1.1610   16.2570   -5.1070 C   0  0  0  0  0  0  0  0  0  0  0  0
   -2.7810   15.2130   -0.3940 C   0  0  2  0  0  0  0  0  0  0  0  0
   -0.6690   13.9540   -0.2330 N   0  0  0  0  0  0  0  0  0  0  0  0
    2.2660   12.7930   -5.5790 Cl  0  0  0  0  0  0  0  0  0  0  0  0
    0.2560   11.3200   -2.3900 C   0  0  1  0  0  0  0  0  0  0  0  0
    0.3150   11.7980   -4.5040 O   0  0  0  0  0  0  0  0  0  0  0  0
    2.0360   15.2980   -4.2710 C   0  0  0  0  0  0  0  0  0  0  0  0
   -2.6980   14.7990    1.0200 C   0  0  1  0  0  0  0  0  0  0  0  0
   -0.3480   14.6600    0.9850 C   0  0  0  0  0  0  0  0  0  0  0  0
   -4.2020   14.8660   -0.6890 C   0  0  0  0  0  0  0  0  0  0  0  0
   -0.3030   11.5120   -1.2260 O   0  0  0  0  0  0  0  0  0  0  0  0
   -0.2170   10.0350   -2.6360 O   0  0  0  0  0  0  0  0  0  0  0  0
   -1.4940   15.2630    1.6150 N   0  0  0  0  0  0  0  0  0  0  0  0
   -3.8510   15.4240    1.5940 N   0  0  0  0  0  0  0  0  0  0  0  0
   -4.8370   15.5320    0.5030 C   0  0  0  0  0  0  0  0  0  0  0  0
  1  2  1  0
  2  3  1  0
  4  1  1  6
  4  5  1  0
  4  6  1  0
  7  2  1  6
  5  8  1  0
  3  9  1  0
  8  9  1  0
  5 10  1  1
  6 11  1  0
  7 12  1  0
  7 13  1  0
 10 14  1  6
  8 15  1  0
  8 16  1  1
 10 17  1  0
 11 17  1  0
 12 18  1  0
 13 19  1  0
 12 20  1  6
 15 21  1  1
 15 22  1  0
 18 23  1  1
 19 23  1  0
 18 24  1  0
 20 25  1  0
 24 25  1  0
M  CHG  1  21  -1
M  END
