ucsf260-ucsf339
     RDKit          3D

 28 31  0  0  0  0  0  0  0  0999 V2000
    0.7710   10.5920   -2.5000 O   0  0  0  0  0  0  0  0  0  0  0  0
    0.3750   11.8090   -2.9180 C   0  0  1  0  0  0  0  0  0  0  0  0
    0.8000   12.8540   -2.0280 O   0  0  0  0  0  0  0  0  0  0  0  0
    1.0470   12.2290   -4.2820 C   0  0  0  0  0  0  0  0  0  0  0  0
    0.2010   13.0680   -5.2520 C   0  0  0  0  0  0  0  0  0  0  0  0
    0.8100   14.1100   -2.7370 C   0  0  2  0  0  0  0  0  0  0  0  0
    1.7980   14.8650   -2.2760 O   0  0  0  0  0  0  0  0  0  0  0  0
   -0.7530   12.2970   -6.0590 N   0  0  0  0  0  0  0  0  0  0  0  0
   -0.5810   14.8540   -2.6260 C   0  0  2  0  0  0  0  0  0  0  0  0
   -2.0220   12.0550   -5.4070 C   0  0  0  0  0  0  0  0  0  0  0  0
   -0.3030   11.0620   -6.6350 C   0  0  1  0  0  0  0  0  0  0  0  0
   -1.3920   14.5190   -1.3540 C   0  0  0  0  0  0  0  0  0  0  0  0
   -1.4980   14.7080   -3.8580 C   0  0  0  0  0  0  0  0  0  0  0  0
   -2.2950   10.6010   -5.5460 N   0  0  0  0  0  0  0  0  0  0  0  0
   -1.5990   10.2820   -6.7950 C   0  0  2  0  0  0  0  0  0  0  0  0
    0.5870   10.9680   -7.8670 C   0  0  0  0  0  0  0  0  0  0  0  0
   -2.9160   14.2980   -1.6220 C   0  0  2  0  0  0  0  0  0  0  0  0
   -2.7160   15.5620   -3.8250 N   0  0  0  0  0  0  0  0  0  0  0  0
   -1.2830    8.8160   -7.0050 C   0  0  0  0  0  0  0  0  0  0  0  0
    0.7880    9.5170   -8.3340 C   0  0  0  0  0  0  0  0  0  0  0  0
   -3.4970   15.3310   -2.6100 C   0  0  0  0  0  0  0  0  0  0  0  0
   -3.7590   14.1820   -0.3040 C   0  0  0  0  0  0  0  0  0  0  0  0
   -0.4870    8.6600   -8.3030 C   0  0  0  0  0  0  0  0  0  0  0  0
   -3.6640   15.3970    0.6300 C   0  0  0  0  0  0  0  0  0  0  0  0
   -5.2460   13.8920   -0.6140 C   0  0  0  0  0  0  0  0  0  0  0  0
   -4.3370   15.1330    1.9770 C   0  0  0  0  0  0  0  0  0  0  0  0
   -6.2230   14.1970    0.5270 C   0  0  0  0  0  0  0  0  0  0  0  0
   -5.5680   14.2270    1.9030 C   0  0  0  0  0  0  0  0  0  0  0  0
  2  1  1  1
  2  3  1  0
  2  4  1  0
  4  5  1  0
  3  6  1  0
  6  7  1  1
  5  8  1  0
  6  9  1  0
  8 10  1  0
  8 11  1  0
  9 12  1  1
  9 13  1  0
 10 14  1  0
 11 15  1  0
 14 15  1  0
 11 16  1  6
 12 17  1  0
 13 18  1  0
 15 19  1  1
 16 20  1  0
 17 21  1  0
 18 21  1  0
 17 22  1  1
 19 23  1  0
 20 23  1  0
 22 24  1  0
 22 25  1  0
 24 26  1  0
 25 27  1  0
 26 28  1  0
 27 28  1  0
M  CHG  2   1  -1   7  -1
M  END
