ucsf519-ucsf115
     RDKit          3D

 24 26  0  0  0  0  0  0  0  0999 V2000
    0.4180   15.2000   -3.3200 C   0  0  0  0  0  0  0  0  0  0  0  0
   -0.7750   14.3160   -3.8040 C   0  0  2  0  0  0  0  0  0  0  0  0
   -0.2150   13.9500   -5.5510 S   0  0  0  0  0  0  0  0  0  0  0  0
   -2.0780   15.1750   -3.4960 C   0  0  1  0  0  0  0  0  0  0  0  0
   -0.8840   12.9240   -3.1140 C   0  0  1  0  0  0  0  0  0  0  0  0
    1.3090   12.9510   -5.1750 C   0  0  0  0  0  0  0  0  0  0  0  0
   -3.0240   14.9800   -4.5610 O   0  0  0  0  0  0  0  0  0  0  0  0
   -2.6250   14.8150   -2.1820 N   0  0  0  0  0  0  0  0  0  0  0  0
   -0.9920   11.8700   -4.0810 O   0  0  0  0  0  0  0  0  0  0  0  0
    0.1710   12.4410   -2.1180 C   0  0  0  0  0  0  0  0  0  0  0  0
    1.2820   12.4840   -3.6840 C   0  0  2  0  0  0  0  0  0  0  0  0
   -4.0240   15.2480   -1.9920 C   0  0  0  0  0  0  0  0  0  0  0  0
   -1.9200   15.1730   -0.9550 C   0  0  1  0  0  0  0  0  0  0  0  0
   -0.0460   10.9430   -2.1520 C   0  0  0  0  0  0  0  0  0  0  0  0
   -0.7740   10.6270   -3.4360 C   0  0  0  0  0  0  0  0  0  0  0  0
    2.5880   12.3950   -3.1230 O   0  0  0  0  0  0  0  0  0  0  0  0
    0.7850   11.2750   -3.6490 O   0  0  0  0  0  0  0  0  0  0  0  0
   -0.9380   16.1390   -1.1200 O   0  0  0  0  0  0  0  0  0  0  0  0
   -4.2130   15.4850   -0.4990 C   0  0  0  0  0  0  0  0  0  0  0  0
   -2.8710   15.5180    0.0690 N   0  0  0  0  0  0  0  0  0  0  0  0
   -1.2070   14.0260   -0.5400 N   0  0  0  0  0  0  0  0  0  0  0  0
   -0.4600   14.3230    0.6380 C   0  0  0  0  0  0  0  0  0  0  0  0
   -2.7610   14.6410    1.2000 C   0  0  0  0  0  0  0  0  0  0  0  0
   -1.4110   14.5330    1.6960 N   0  0  0  0  0  0  0  0  0  0  0  0
  2  1  1  1
  2  3  1  0
  2  4  1  0
  2  5  1  0
  3  6  1  0
  4  7  1  6
  4  8  1  0
  5  9  1  0
  5 10  1  6
  6 11  1  0
  8 12  1  0
  8 13  1  0
 10 14  1  0
  9 15  1  0
 14 15  1  0
 11 16  1  6
 11 17  1  0
 13 18  1  6
 12 19  1  0
 13 20  1  0
 19 20  1  0
 13 21  1  0
 21 22  1  0
 20 23  1  0
 22 24  1  0
 23 24  1  0
M  CHG  1  17  -1
M  END
