ucsf511-ucsf030
     RDKit          3D

 27 28  0  0  0  0  0  0  0  0999 V2000
    2.5390   14.5330   -1.6920 O   0  0  0  0  0  0  0  0  0  0  0  0
    1.1550   14.6570   -2.0100 C   0  0  0  0  0  0  0  0  0  0  0  0
    0.9200   14.4220   -3.4380 N   0  0  0  0  0  0  0  0  0  0  0  0
    0.2150   15.5640   -4.0450 C   0  0  0  0  0  0  0  0  0  0  0  0
    0.0820   13.2260   -3.6610 C   0  0  0  0  0  0  0  0  0  0  0  0
   -1.0090   15.0290   -4.6570 N   0  0  0  0  0  0  0  0  0  0  0  0
    0.4160   11.9720   -2.8440 C   0  0  0  0  0  0  0  0  0  0  0  0
   -0.1690   12.8070   -5.1220 C   0  0  0  0  0  0  0  0  0  0  0  0
   -2.2480   15.8160   -4.5370 C   0  0  0  0  0  0  0  0  0  0  0  0
   -0.6390   10.8990   -3.1220 C   0  0  0  0  0  0  0  0  0  0  0  0
   -1.5080   12.0900   -5.2180 C   0  0  0  0  0  0  0  0  0  0  0  0
   -3.1630   15.3240   -3.3970 C   0  0  0  0  0  0  0  0  0  0  0  0
   -1.8680   11.4220   -3.8870 C   0  0  0  0  0  0  0  0  0  0  0  0
   -4.4170   14.6020   -3.9070 C   0  0  0  0  0  0  0  0  0  0  0  0
   -5.6720   14.5770   -2.9880 C   0  0  0  0  0  0  0  0  0  0  0  0
   -5.5610   15.1480   -1.5630 C   0  0  0  0  0  0  0  0  0  0  0  0
   -5.4410   14.0620   -0.4650 C   0  0  0  0  0  0  0  0  0  0  0  0
   -4.5100   12.9020   -0.8620 C   0  0  0  0  0  0  0  0  0  0  0  0
   -3.2780   12.8280   -0.1350 O   0  0  0  0  0  0  0  0  0  0  0  0
   -2.2070   13.4780   -0.8030 C   0  0  1  0  0  0  0  0  0  0  0  0
   -2.4170   14.9290   -0.5050 C   0  0  1  0  0  0  0  0  0  0  0  0
   -0.8900   13.0940   -0.2870 N   0  0  0  0  0  0  0  0  0  0  0  0
   -3.9790   15.5500   -1.1050 Cl  0  0  0  0  0  0  0  0  0  0  0  0
   -2.3380   15.1940    1.0040 C   0  0  1  0  0  0  0  0  0  0  0  0
   -0.4840   13.8060    0.9110 C   0  0  0  0  0  0  0  0  0  0  0  0
   -3.6070   15.4380    1.6780 N   0  0  0  0  0  0  0  0  0  0  0  0
   -1.6590   14.1420    1.6670 N   0  0  0  0  0  0  0  0  0  0  0  0
  1  2  1  0
  2  3  1  0
  3  4  1  0
  3  5  1  0
  4  6  1  0
  5  7  1  0
  5  8  1  0
  6  9  1  0
  7 10  1  0
  8 11  1  0
  9 12  1  0
 10 13  1  0
 11 13  1  0
 12 14  1  0
 14 15  1  0
 15 16  1  0
 16 17  1  0
 17 18  1  0
 18 19  1  0
 20 19  1  1
 20 21  1  0
 20 22  1  0
 21 23  1  1
 21 24  1  0
 22 25  1  0
 24 26  1  1
 24 27  1  0
 25 27  1  0
M  END
