ucsf516-ucsf138
     RDKit          3D

 33 37  0  0  0  0  0  0  0  0999 V2000
   -0.2920   11.3750   -2.4270 O   0  0  0  0  0  0  0  0  0  0  0  0
    0.2430   11.2970   -3.6400 C   0  0  1  0  0  0  0  0  0  0  0  0
    0.0240    9.9210   -3.8450 O   0  0  0  0  0  0  0  0  0  0  0  0
   -0.4940   12.1080   -4.7840 C   0  0  2  0  0  0  0  0  0  0  0  0
   -0.7780   11.3220   -6.0370 N   0  0  0  0  0  0  0  0  0  0  0  0
    0.1880   13.4380   -5.2160 C   0  0  0  0  0  0  0  0  0  0  0  0
    0.3430   10.9900   -6.8960 C   0  0  2  0  0  0  0  0  0  0  0  0
   -0.4880   14.7650   -4.8190 C   0  0  2  0  0  0  0  0  0  0  0  0
    1.4230   11.8830   -6.7600 O   0  0  0  0  0  0  0  0  0  0  0  0
   -0.1180   11.0770   -8.2500 N   0  0  0  0  0  0  0  0  0  0  0  0
   -0.2010   15.1880   -3.3630 C   0  0  2  0  0  0  0  0  0  0  0  0
   -2.0100   14.7470   -4.8980 C   0  0  0  0  0  0  0  0  0  0  0  0
    0.9840   14.4970   -2.6880 C   0  0  0  0  0  0  0  0  0  0  0  0
   -1.4430   14.9220   -2.5880 N   0  0  0  0  0  0  0  0  0  0  0  0
   -2.4740   14.4220   -3.4880 C   0  0  0  0  0  0  0  0  0  0  0  0
    0.7140   10.4230   -9.2590 C   0  0  0  0  0  0  0  0  0  0  0  0
    2.2960   14.1580   -3.4390 C   0  0  0  0  0  0  0  0  0  0  0  0
    0.8800   13.0200   -2.2400 C   0  0  0  0  0  0  0  0  0  0  0  0
   -1.3590   14.2780   -1.2670 C   0  0  1  0  0  0  0  0  0  0  0  0
   -0.0450   10.2720  -10.5830 C   0  0  0  0  0  0  0  0  0  0  0  0
    1.1640    9.0330   -8.7320 C   0  0  0  0  0  0  0  0  0  0  0  0
    2.1460   12.6870   -3.0680 C   0  0  0  0  0  0  0  0  0  0  0  0
   -0.2460   14.8330   -0.4970 N   0  0  0  0  0  0  0  0  0  0  0  0
   -2.7320   14.2500   -0.5440 C   0  0  1  0  0  0  0  0  0  0  0  0
    0.7640    9.4780  -11.6020 C   0  0  0  0  0  0  0  0  0  0  0  0
    1.9140    8.2030   -9.7730 C   0  0  0  0  0  0  0  0  0  0  0  0
   -0.2970   14.7000    0.9270 C   0  0  0  0  0  0  0  0  0  0  0  0
   -2.6440   14.5310    0.9580 C   0  0  1  0  0  0  0  0  0  0  0  0
   -3.8250   15.1890   -1.0500 C   0  0  0  0  0  0  0  0  0  0  0  0
    1.1330    8.0970  -11.0780 C   0  0  0  0  0  0  0  0  0  0  0  0
   -1.5110   15.2920    1.3930 N   0  0  0  0  0  0  0  0  0  0  0  0
   -3.8180   15.3000    1.3410 N   0  0  0  0  0  0  0  0  0  0  0  0
   -4.6810   15.4700    0.1740 C   0  0  0  0  0  0  0  0  0  0  0  0
  2  1  1  1
  2  3  1  0
  2  4  1  0
  4  5  1  0
  4  6  1  6
  5  7  1  0
  8  6  1  1
  7  9  1  6
  7 10  1  0
  8 11  1  0
  8 12  1  0
 11 13  1  1
 11 14  1  0
 12 15  1  0
 14 15  1  0
 10 16  1  0
 13 17  1  0
 13 18  1  0
 19 14  1  6
 16 20  1  0
 16 21  1  0
 17 22  1  0
 18 22  1  0
 19 23  1  0
 19 24  1  0
 20 25  1  0
 21 26  1  0
 23 27  1  0
 24 28  1  0
 24 29  1  6
 25 30  1  0
 26 30  1  0
 27 31  1  0
 28 31  1  6
 28 32  1  0
 29 33  1  0
 32 33  1  0
M  CHG  1   1  -1
M  END
