ucsf013-ucsf012
     RDKit          3D

 28 32  0  0  0  0  0  0  0  0999 V2000
   -3.9150   14.0980    1.5430 N   0  0  0  0  0  0  0  0  0  0  0  0
   -5.2180   14.6080    1.1330 C   0  0  2  0  0  0  0  0  0  0  0  0
   -6.1840   13.6840    1.7130 N   0  0  0  0  0  0  0  0  0  0  0  0
   -2.7390   14.4410    0.7450 C   0  0  2  0  0  0  0  0  0  0  0  0
   -5.4330   14.5900   -0.3790 C   0  0  1  0  0  0  0  0  0  0  0  0
   -2.4100   13.9430   -0.6680 C   0  0  1  0  0  0  0  0  0  0  0  0
   -1.6190   14.2790    1.6490 N   0  0  0  0  0  0  0  0  0  0  0  0
   -6.8980   14.7960   -0.7220 C   0  0  2  0  0  0  0  0  0  0  0  0
   -7.5680   14.0060    1.4490 C   0  0  0  0  0  0  0  0  0  0  0  0
   -4.7010   15.6300   -1.1840 C   0  0  0  0  0  0  0  0  0  0  0  0
   -3.2600   14.3310   -1.8600 C   0  0  1  0  0  0  0  0  0  0  0  0
   -1.0270   14.3120   -1.0970 C   0  0  2  0  0  0  0  0  0  0  0  0
   -0.2590   14.3050    1.1250 C   0  0  0  0  0  0  0  0  0  0  0  0
   -3.9370   15.6660   -1.6710 C   0  0  0  0  0  0  0  0  0  0  0  0
   -7.7960   13.9000    0.0160 N   0  0  0  0  0  0  0  0  0  0  0  0
   -7.1190   14.7280   -2.2480 C   0  0  0  0  0  0  0  0  0  0  0  0
   -4.5810   15.1210   -2.6280 C   0  0  0  0  0  0  0  0  0  0  0  0
   -2.2630   14.4230   -3.0290 C   0  0  1  0  0  0  0  0  0  0  0  0
   -1.0010   13.8820   -2.4890 N   0  0  0  0  0  0  0  0  0  0  0  0
   -0.1100   13.6990   -0.1910 N   0  0  0  0  0  0  0  0  0  0  0  0
   -2.7750   13.6830   -4.2670 C   0  0  0  0  0  0  0  0  0  0  0  0
    0.1300   14.3470   -3.3030 C   0  0  0  0  0  0  0  0  0  0  0  0
   -5.8690   14.4690   -3.1230 C   0  0  0  0  0  0  0  0  0  0  0  0
    0.8910   13.1850   -3.9370 C   0  0  1  0  0  0  0  0  0  0  0  0
    1.4950   12.3270   -2.8470 C   0  0  0  0  0  0  0  0  0  0  0  0
    0.0040   12.3090   -4.6750 O   0  0  0  0  0  0  0  0  0  0  0  0
   -0.3040   11.1580   -3.8710 C   0  0  0  0  0  0  0  0  0  0  0  0
    0.3870   11.3350   -2.5430 C   0  0  0  0  0  0  0  0  0  0  0  0
  2  1  1  6
  2  3  1  0
  4  1  1  1
  2  5  1  0
  6  4  1  1
  4  7  1  0
  5  8  1  0
  3  9  1  0
  5 10  1  6
  6 11  1  0
  6 12  1  0
  7 13  1  0
 11 14  1  1
  8 15  1  0
  9 15  1  0
  8 16  1  6
 10 17  1  0
 11 18  1  0
 12 19  1  0
 18 19  1  0
 12 20  1  1
 13 20  1  0
 18 21  1  6
 19 22  1  0
 16 23  1  0
 17 23  1  0
 24 22  1  1
 24 25  1  0
 24 26  1  0
 26 27  1  0
 25 28  1  0
 27 28  1  0
M  END
