ucsf109-ucsf260
     RDKit          3D

 30 34  0  0  0  0  0  0  0  0999 V2000
   -4.1510   15.5090    2.0760 N   0  0  0  0  0  0  0  0  0  0  0  0
   -4.7500   14.6720    1.0590 C   0  0  2  0  0  0  0  0  0  0  0  0
   -4.2380   15.1330   -0.2930 C   0  0  2  0  0  0  0  0  0  0  0  0
   -6.1750   14.8770    1.1080 N   0  0  0  0  0  0  0  0  0  0  0  0
   -6.8280   13.9900    0.1810 C   0  0  2  0  0  0  0  0  0  0  0  0
   -5.3120   15.1470   -1.3950 C   0  0  2  0  0  0  0  0  0  0  0  0
   -3.1650   14.1890   -0.8100 C   0  0  0  0  0  0  0  0  0  0  0  0
   -6.8330   14.5280    2.3570 N   0  0  0  0  0  0  0  0  0  0  0  0
   -6.5250   14.3210   -1.1870 N   0  0  0  0  0  0  0  0  0  0  0  0
   -4.5140   14.9120   -2.6970 C   0  0  0  0  0  0  0  0  0  0  0  0
   -3.0960   14.4360   -2.3090 C   0  0  1  0  0  0  0  0  0  0  0  0
   -8.2060   14.3190    0.4570 N   0  0  0  0  0  0  0  0  0  0  0  0
   -8.2280   14.4980    1.9160 C   0  0  0  0  0  0  0  0  0  0  0  0
   -1.9100   15.3500   -2.6710 C   0  0  0  0  0  0  0  0  0  0  0  0
   -0.6650   15.1750   -1.7560 C   0  0  0  0  0  0  0  0  0  0  0  0
    0.5990   14.6400   -2.4570 C   0  0  0  0  0  0  0  0  0  0  0  0
    0.8680   13.2900   -2.0610 O   0  0  0  0  0  0  0  0  0  0  0  0
    0.5190   12.3410   -3.0780 C   0  0  2  0  0  0  0  0  0  0  0  0
    0.8900   11.1360   -2.6780 O   0  0  0  0  0  0  0  0  0  0  0  0
    1.3410   12.7590   -4.3450 C   0  0  0  0  0  0  0  0  0  0  0  0
    0.5320   13.0430   -5.6370 C   0  0  0  0  0  0  0  0  0  0  0  0
   -0.7090   12.2830   -5.9150 N   0  0  0  0  0  0  0  0  0  0  0  0
   -1.5020   11.7660   -4.7930 C   0  0  0  0  0  0  0  0  0  0  0  0
   -0.6600   11.2150   -6.9290 C   0  0  2  0  0  0  0  0  0  0  0  0
   -2.1890   10.5760   -5.3180 N   0  0  0  0  0  0  0  0  0  0  0  0
   -1.1070   10.0260   -6.1170 C   0  0  1  0  0  0  0  0  0  0  0  0
    0.6580   10.9050   -7.6300 C   0  0  0  0  0  0  0  0  0  0  0  0
   -1.4540    8.8880   -7.0510 C   0  0  0  0  0  0  0  0  0  0  0  0
    0.7070    9.5270   -8.3350 C   0  0  0  0  0  0  0  0  0  0  0  0
   -0.1910    8.4110   -7.7810 C   0  0  0  0  0  0  0  0  0  0  0  0
  2  1  1  1
  2  3  1  0
  2  4  1  0
  4  5  1  0
  3  6  1  0
  3  7  1  6
  4  8  1  0
  5  9  1  6
  6  9  1  0
  6 10  1  6
  7 11  1  0
 10 11  1  0
  5 12  1  0
  8 13  1  0
 12 13  1  0
 11 14  1  1
 14 15  1  0
 15 16  1  0
 16 17  1  0
 17 18  1  0
 18 19  1  1
 18 20  1  0
 20 21  1  0
 21 22  1  0
 22 23  1  0
 22 24  1  0
 23 25  1  0
 24 26  1  0
 25 26  1  0
 24 27  1  1
 26 28  1  6
 27 29  1  0
 28 30  1  0
 29 30  1  0
M  CHG  1  19  -1
M  END
