ucsf017-ucsf013
     RDKit          3D

 28 33  0  0  0  0  0  0  0  0999 V2000
   -5.1280   15.3280    1.9980 N   0  0  0  0  0  0  0  0  0  0  0  0
   -5.6460   14.3530    1.0970 C   0  0  1  0  0  0  0  0  0  0  0  0
   -7.0670   14.5450    1.2830 N   0  0  0  0  0  0  0  0  0  0  0  0
   -5.2550   14.6510   -0.3510 C   0  0  1  0  0  0  0  0  0  0  0  0
   -3.7530   14.8500   -0.7440 C   0  0  2  0  0  0  0  0  0  0  0  0
   -6.0670   13.7520   -1.2340 C   0  0  1  0  0  0  0  0  0  0  0  0
   -7.8610   13.7810    0.3440 C   0  0  0  0  0  0  0  0  0  0  0  0
   -2.5140   14.1060   -0.1610 C   0  0  2  0  0  0  0  0  0  0  0  0
   -3.5930   16.0910    0.1200 C   0  0  0  0  0  0  0  0  0  0  0  0
   -7.4730   14.0910   -1.0170 N   0  0  0  0  0  0  0  0  0  0  0  0
   -5.6770   13.9170   -2.7000 C   0  0  0  0  0  0  0  0  0  0  0  0
   -3.5690   15.2470   -2.2050 C   0  0  0  0  0  0  0  0  0  0  0  0
   -2.0300   15.0720    0.8710 C   0  0  1  0  0  0  0  0  0  0  0  0
   -1.1510   13.6210   -0.7190 C   0  0  1  0  0  0  0  0  0  0  0  0
   -3.2000   15.6060    1.4060 N   0  0  0  0  0  0  0  0  0  0  0  0
   -4.8770   15.1700   -2.9530 C   0  0  0  0  0  0  0  0  0  0  0  0
   -0.8430   13.2130   -2.0830 N   0  0  0  0  0  0  0  0  0  0  0  0
   -0.0730   14.4320   -0.1750 N   0  0  0  0  0  0  0  0  0  0  0  0
   -1.2720   14.4470    1.8290 N   0  0  0  0  0  0  0  0  0  0  0  0
   -0.9300   14.0610   -3.2910 C   0  0  2  0  0  0  0  0  0  0  0  0
    0.5190   12.7160   -2.0350 C   0  0  0  0  0  0  0  0  0  0  0  0
    0.0090   14.2840    1.2630 C   0  0  0  0  0  0  0  0  0  0  0  0
   -2.3240   14.2720   -3.8880 C   0  0  0  0  0  0  0  0  0  0  0  0
   -0.1820   13.3630   -4.4400 C   0  0  2  0  0  0  0  0  0  0  0  0
    0.6990   11.6110   -3.0510 C   0  0  0  0  0  0  0  0  0  0  0  0
   -0.9070   13.8340   -5.6450 C   0  0  0  0  0  0  0  0  0  0  0  0
   -2.2790   13.9970   -5.2950 O   0  0  0  0  0  0  0  0  0  0  0  0
   -0.1780   11.8540   -4.2570 C   0  0  0  0  0  0  0  0  0  0  0  0
  2  1  1  1
  2  3  1  0
  4  2  1  1
  4  5  1  0
  4  6  1  0
  3  7  1  0
  5  8  1  0
  5  9  1  1
  6 10  1  0
  7 10  1  0
  6 11  1  6
  5 12  1  0
  8 13  1  0
  8 14  1  6
  9 15  1  0
 13 15  1  1
 11 16  1  0
 12 16  1  0
 14 17  1  6
 14 18  1  0
 13 19  1  0
 17 20  1  0
 17 21  1  0
 18 22  1  0
 19 22  1  0
 20 23  1  6
 20 24  1  0
 21 25  1  0
 24 26  1  6
 23 27  1  0
 26 27  1  0
 24 28  1  0
 25 28  1  0
M  END
