ucsf519-ucsf028
     RDKit          3D

 26 28  0  0  0  0  0  0  0  0999 V2000
    0.4730   15.2150   -3.1390 C   0  0  0  0  0  0  0  0  0  0  0  0
   -0.7730   14.5330   -3.7500 C   0  0  2  0  0  0  0  0  0  0  0  0
   -0.0650   13.9250   -5.3940 S   0  0  0  0  0  0  0  0  0  0  0  0
   -2.1080   15.3560   -3.4180 C   0  0  1  0  0  0  0  0  0  0  0  0
   -1.1490   13.1180   -3.1540 C   0  0  1  0  0  0  0  0  0  0  0  0
    1.3930   12.9310   -4.7780 C   0  0  0  0  0  0  0  0  0  0  0  0
   -3.1470   15.0140   -4.3380 O   0  0  0  0  0  0  0  0  0  0  0  0
   -2.4480   15.1180   -2.0100 N   0  0  0  0  0  0  0  0  0  0  0  0
   -1.7330   12.2220   -4.2460 C   0  0  0  0  0  0  0  0  0  0  0  0
   -0.1370   12.3020   -2.5290 O   0  0  0  0  0  0  0  0  0  0  0  0
    1.5640   12.6340   -3.2490 C   0  0  2  0  0  0  0  0  0  0  0  0
   -3.8420   15.2390   -1.4540 C   0  0  0  0  0  0  0  0  0  0  0  0
   -1.5600   15.1570   -0.8800 C   0  0  1  0  0  0  0  0  0  0  0  0
   -0.2990   10.9380   -3.0790 N   0  0  0  0  0  0  0  0  0  0  0  0
   -0.6080   11.2550   -4.4480 C   0  0  1  0  0  0  0  0  0  0  0  0
    2.9390   12.5740   -2.9360 O   0  0  0  0  0  0  0  0  0  0  0  0
    1.1960   11.4250   -2.8990 O   0  0  0  0  0  0  0  0  0  0  0  0
   -0.6150   16.1560   -1.1340 O   0  0  0  0  0  0  0  0  0  0  0  0
   -1.0360   10.1710   -5.2530 O   0  0  0  0  0  0  0  0  0  0  0  0
   -3.6600   14.8070    0.0400 C   0  0  1  0  0  0  0  0  0  0  0  0
   -2.3830   15.4410    0.2960 N   0  0  0  0  0  0  0  0  0  0  0  0
   -0.7670   14.0600   -0.4410 N   0  0  0  0  0  0  0  0  0  0  0  0
   -4.6030   15.3600    1.0080 N   0  0  0  0  0  0  0  0  0  0  0  0
   -0.6090   10.3580   -6.5960 C   0  0  0  0  0  0  0  0  0  0  0  0
   -1.5940   15.1100    1.4790 N   0  0  0  0  0  0  0  0  0  0  0  0
   -0.3750   14.5180    0.8950 C   0  0  0  0  0  0  0  0  0  0  0  0
  2  1  1  1
  2  3  1  0
  2  4  1  0
  2  5  1  0
  3  6  1  0
  4  7  1  6
  4  8  1  0
  5  9  1  6
  5 10  1  0
  6 11  1  0
  8 12  1  0
  8 13  1  0
 10 14  1  0
  9 15  1  0
 14 15  1  0
 11 16  1  6
 11 17  1  0
 13 18  1  6
 15 19  1  6
 12 20  1  0
 13 21  1  0
 20 21  1  0
 13 22  1  0
 20 23  1  1
 19 24  1  0
 21 25  1  0
 22 26  1  0
 25 26  1  0
M  CHG  1  17  -1
M  END
