ucsf109-ucsf338
     RDKit          3D

 18 20  0  0  0  0  0  0  0  0999 V2000
   -4.0850   15.3270    1.8740 N   0  0  0  0  0  0  0  0  0  0  0  0
   -5.0700   14.3680    1.3900 C   0  0  2  0  0  0  0  0  0  0  0  0
   -4.9430   14.2530   -0.1240 C   0  0  1  0  0  0  0  0  0  0  0  0
   -6.3800   14.8890    1.8290 N   0  0  0  0  0  0  0  0  0  0  0  0
   -7.5460   14.7020    0.9950 C   0  0  1  0  0  0  0  0  0  0  0  0
   -5.9660   15.1880   -0.7010 C   0  0  2  0  0  0  0  0  0  0  0  0
   -3.6660   14.7300   -0.8390 C   0  0  0  0  0  0  0  0  0  0  0  0
   -6.9340   14.5010    3.1120 N   0  0  0  0  0  0  0  0  0  0  0  0
   -7.2840   14.6410   -0.4090 N   0  0  0  0  0  0  0  0  0  0  0  0
   -5.6880   15.1740   -2.1750 C   0  0  1  0  0  0  0  0  0  0  0  0
   -4.1630   14.9460   -2.2820 C   0  0  2  0  0  0  0  0  0  0  0  0
   -8.0400   13.4050    1.3690 N   0  0  0  0  0  0  0  0  0  0  0  0
   -7.6100   13.2610    2.7580 C   0  0  0  0  0  0  0  0  0  0  0  0
   -6.6450   14.2100   -2.8600 C   0  0  2  0  0  0  0  0  0  0  0  0
   -3.9380   13.7780   -3.0580 O   0  0  0  0  0  0  0  0  0  0  0  0
   -8.0340   14.5550   -2.5110 N   0  0  0  0  0  0  0  0  0  0  0  0
   -6.4290   12.8730   -2.4630 O   0  0  0  0  0  0  0  0  0  0  0  0
   -8.5110   13.6250   -1.4810 O   0  0  0  0  0  0  0  0  0  0  0  0
  2  1  1  6
  2  3  1  0
  2  4  1  0
  4  5  1  0
  3  6  1  0
  3  7  1  1
  4  8  1  0
  5  9  1  6
  6  9  1  6
  6 10  1  0
  7 11  1  0
 10 11  1  0
  5 12  1  0
  8 13  1  0
 12 13  1  0
 10 14  1  6
 11 15  1  6
 14 16  1  0
 14 17  1  1
 16 18  1  0
M  END
