ucsf333-ucsf247
     RDKit          3D

 18 19  0  0  0  0  0  0  0  0999 V2000
   -6.4280   15.0230   -1.5110 Cl  0  0  0  0  0  0  0  0  0  0  0  0
   -4.7340   15.5480   -1.2480 C   0  0  2  0  0  0  0  0  0  0  0  0
   -3.8390   15.3150   -2.5110 C   0  0  1  0  0  0  0  0  0  0  0  0
   -4.1840   15.0430    0.1010 C   0  0  0  0  0  0  0  0  0  0  0  0
   -2.3640   15.5880   -2.1900 C   0  0  2  0  0  0  0  0  0  0  0  0
   -2.6660   15.1440    0.2760 C   0  0  0  0  0  0  0  0  0  0  0  0
   -3.9640   14.0270   -3.0890 O   0  0  0  0  0  0  0  0  0  0  0  0
   -1.4240   15.4100   -3.3120 N   0  0  0  0  0  0  0  0  0  0  0  0
   -1.9150   14.7510   -0.9910 C   0  0  2  0  0  0  0  0  0  0  0  0
   -0.0440   15.4870   -2.7660 C   0  0  1  0  0  0  0  0  0  0  0  0
   -0.1270   15.0000   -0.9890 S   0  0  0  0  0  0  0  0  0  0  0  0
    0.9280   14.6240   -3.5970 C   0  0  0  0  0  0  0  0  0  0  0  0
    0.4370   13.1740   -3.8140 C   0  0  1  0  0  0  0  0  0  0  0  0
    0.8070   12.2790   -2.5790 C   0  0  2  0  0  0  0  0  0  0  0  0
   -1.0690   13.1480   -4.1590 C   0  0  0  0  0  0  0  0  0  0  0  0
    2.0800   12.3720   -2.3250 O   0  0  0  0  0  0  0  0  0  0  0  0
    0.5140   10.9120   -2.8600 O   0  0  0  0  0  0  0  0  0  0  0  0
   -1.9510   13.2920   -2.9930 N   0  0  0  0  0  0  0  0  0  0  0  0
  2  1  1  6
  2  3  1  0
  2  4  1  0
  3  5  1  0
  4  6  1  0
  3  7  1  1
  5  8  1  6
  5  9  1  0
  9  6  1  1
  8 10  1  0
  9 11  1  0
 10 11  1  0
 10 12  1  6
 13 12  1  1
 13 14  1  0
 13 15  1  0
 14 16  1  6
 14 17  1  0
 15 18  1  0
M  CHG  1  16  -1
M  END
