ucsf114-ucsf422
     RDKit          3D

 30 33  0  0  0  0  0  0  0  0999 V2000
    1.1180   18.7220   -5.7970 C   0  0  0  0  0  0  0  0  0  0  0  0
   -0.3140   18.4780   -5.3150 C   0  0  0  0  0  0  0  0  0  0  0  0
   -1.3550   19.4450   -5.8750 C   0  0  0  0  0  0  0  0  0  0  0  0
   -0.6390   17.0710   -5.6800 C   0  0  1  0  0  0  0  0  0  0  0  0
    0.4550   15.9900   -5.4530 C   0  0  1  0  0  0  0  0  0  0  0  0
   -2.0750   16.7060   -5.2900 C   0  0  0  0  0  0  0  0  0  0  0  0
    1.1980   16.1280   -4.2390 N   0  0  0  0  0  0  0  0  0  0  0  0
    0.0240   14.4900   -5.5160 C   0  0  1  0  0  0  0  0  0  0  0  0
   -2.4670   15.2500   -5.1390 C   0  0  1  0  0  0  0  0  0  0  0  0
    0.1650   16.0690   -3.2910 C   0  0  0  0  0  0  0  0  0  0  0  0
   -4.1620   15.0170   -6.1060 Br  0  0  0  0  0  0  0  0  0  0  0  0
    0.7030   13.8990   -4.2880 C   0  0  2  0  0  0  0  0  0  0  0  0
    1.8820   14.8440   -4.0860 C   0  0  0  0  0  0  0  0  0  0  0  0
   -1.4790   14.1530   -5.5300 C   0  0  0  0  0  0  0  0  0  0  0  0
   -0.3420   14.6330   -3.1450 C   0  0  0  0  0  0  0  0  0  0  0  0
    1.0410   12.3970   -4.2490 C   0  0  0  0  0  0  0  0  0  0  0  0
    0.4940   11.8130   -2.9260 C   0  0  1  0  0  0  0  0  0  0  0  0
   -0.5880   14.2750   -1.7970 N   0  0  0  0  0  0  0  0  0  0  0  0
    0.4840   10.4890   -2.8390 O   0  0  0  0  0  0  0  0  0  0  0  0
    1.4450   12.1380   -1.9680 O   0  0  0  0  0  0  0  0  0  0  0  0
   -1.5090   15.3210   -1.3360 C   0  0  2  0  0  0  0  0  0  0  0  0
    0.5940   14.0180   -0.9640 C   0  0  1  0  0  0  0  0  0  0  0  0
    2.2730   14.3260   -1.5870 S   0  0  0  0  0  0  0  0  0  0  0  0
   -1.9520   15.2110    0.1080 C   0  0  2  0  0  0  0  0  0  0  0  0
    0.4550   14.8590    0.1710 N   0  0  0  0  0  0  0  0  0  0  0  0
   -2.7910   15.3060   -2.1640 C   0  0  0  0  0  0  0  0  0  0  0  0
   -0.7810   14.4820    0.7860 C   0  0  1  0  0  0  0  0  0  0  0  0
   -3.2840   14.5840    0.0670 N   0  0  0  0  0  0  0  0  0  0  0  0
   -3.9060   15.1150   -1.1580 C   0  0  0  0  0  0  0  0  0  0  0  0
   -0.6210   14.6170    2.1600 O   0  0  0  0  0  0  0  0  0  0  0  0
  1  2  1  0
  2  3  1  0
  4  2  1  1
  4  5  1  0
  4  6  1  0
  5  7  1  1
  5  8  1  0
  6  9  1  0
  7 10  1  0
  9 11  1  6
  8 12  1  0
  7 13  1  0
 12 13  1  0
  8 14  1  1
  9 14  1  0
 10 15  1  0
 12 16  1  6
 16 17  1  0
 15 18  1  0
 17 19  1  6
 17 20  1  0
 18 21  1  0
 18 22  1  0
 22 23  1  6
 21 24  1  0
 22 25  1  0
 21 26  1  6
 24 27  1  0
 25 27  1  0
 24 28  1  6
 26 29  1  0
 28 29  1  0
 27 30  1  1
M  CHG  1  19  -1
M  END
