ucsf424-ucsf520
     RDKit          3D

 30 34  0  0  0  0  0  0  0  0999 V2000
    1.8880   12.2050   -2.9580 O   0  0  0  0  0  0  0  0  0  0  0  0
    0.6780   12.4830   -3.3560 C   0  0  2  0  0  0  0  0  0  0  0  0
   -0.1080   11.3550   -3.0110 O   0  0  0  0  0  0  0  0  0  0  0  0
    0.5750   12.6980   -4.8860 C   0  0  0  0  0  0  0  0  0  0  0  0
    0.1120   13.6790   -2.6040 C   0  0  0  0  0  0  0  0  0  0  0  0
   -1.1310   14.4640   -3.1540 C   0  0  1  0  0  0  0  0  0  0  0  0
    0.3360   11.4700   -5.7640 C   0  0  2  0  0  0  0  0  0  0  0  0
    1.2730   11.4820   -6.9400 N   0  0  0  0  0  0  0  0  0  0  0  0
   -0.9610   11.0990   -6.4090 C   0  0  1  0  0  0  0  0  0  0  0  0
   -1.9290   15.0350   -2.0200 N   0  0  0  0  0  0  0  0  0  0  0  0
   -0.9280   15.4610   -4.3400 C   0  0  1  0  0  0  0  0  0  0  0  0
    0.7380   10.4780   -7.8620 O   0  0  0  0  0  0  0  0  0  0  0  0
   -0.3890    9.9370   -7.1920 C   0  0  2  0  0  0  0  0  0  0  0  0
   -2.1170   10.5740   -5.5430 C   0  0  0  0  0  0  0  0  0  0  0  0
   -3.3770   14.9060   -2.2310 C   0  0  0  0  0  0  0  0  0  0  0  0
   -1.5160   14.5030   -0.7410 C   0  0  2  0  0  0  0  0  0  0  0  0
   -1.4170   16.7980   -4.0190 O   0  0  0  0  0  0  0  0  0  0  0  0
    0.5460   15.7140   -4.7060 C   0  0  0  0  0  0  0  0  0  0  0  0
   -1.4200    9.2920   -8.0930 C   0  0  0  0  0  0  0  0  0  0  0  0
   -2.4410    9.0860   -5.7760 C   0  0  0  0  0  0  0  0  0  0  0  0
   -4.2080   15.2300   -1.0700 N   0  0  0  0  0  0  0  0  0  0  0  0
   -2.2310   15.1890    0.3930 C   0  0  1  0  0  0  0  0  0  0  0  0
   -0.1560   14.8490   -0.3660 N   0  0  0  0  0  0  0  0  0  0  0  0
    0.4800   17.0590   -5.3840 C   0  0  0  0  0  0  0  0  0  0  0  0
   -0.5190   17.7830   -4.5320 C   0  0  0  0  0  0  0  0  0  0  0  0
   -2.5560    8.7000   -7.2520 C   0  0  0  0  0  0  0  0  0  0  0  0
   -3.7030   14.8150    0.2240 C   0  0  1  0  0  0  0  0  0  0  0  0
   -1.4780   14.7520    1.5670 N   0  0  0  0  0  0  0  0  0  0  0  0
   -0.1310   14.5430    1.0490 C   0  0  0  0  0  0  0  0  0  0  0  0
   -4.5580   15.4230    1.2310 N   0  0  0  0  0  0  0  0  0  0  0  0
  2  1  1  6
  2  3  1  0
  2  4  1  0
  2  5  1  0
  6  5  1  1
  7  4  1  6
  7  8  1  0
  7  9  1  0
  6 10  1  0
  6 11  1  0
  8 12  1  0
  9 13  1  0
 12 13  1  0
  9 14  1  1
 10 15  1  0
 10 16  1  0
 11 17  1  0
 11 18  1  1
 13 19  1  6
 14 20  1  0
 15 21  1  0
 16 22  1  0
 16 23  1  1
 18 24  1  0
 17 25  1  0
 24 25  1  0
 19 26  1  0
 20 26  1  0
 21 27  1  0
 22 27  1  0
 22 28  1  1
 23 29  1  0
 28 29  1  0
 27 30  1  1
M  CHG  1   1  -1
M  END
