ucsf135-ucsf190
     RDKit          3D

 26 29  0  0  0  0  0  0  0  0999 V2000
    0.5020   11.8940   -8.0360 O   0  0  0  0  0  0  0  0  0  0  0  0
    0.8530   11.0740   -6.9780 C   0  0  1  0  0  0  0  0  0  0  0  0
    0.6120   11.7780   -5.7380 N   0  0  0  0  0  0  0  0  0  0  0  0
    0.0460    9.7280   -7.0150 C   0  0  1  0  0  0  0  0  0  0  0  0
   -0.5200   10.9790   -4.8310 S   0  0  2  0  0  0  0  0  0  0  0  0
   -0.6630    9.4330   -5.6580 C   0  0  1  0  0  0  0  0  0  0  0  0
   -0.9580    9.7430   -8.1610 C   0  0  0  0  0  0  0  0  0  0  0  0
   -1.9760   11.6140   -4.9640 O   0  0  0  0  0  0  0  0  0  0  0  0
    0.0020   10.8020   -3.3400 O   0  0  0  0  0  0  0  0  0  0  0  0
   -2.1010    8.9590   -5.7440 C   0  0  0  0  0  0  0  0  0  0  0  0
   -1.7100    8.4280   -8.2360 C   0  0  0  0  0  0  0  0  0  0  0  0
    0.4540   12.0350   -2.8250 C   0  0  1  0  0  0  0  0  0  0  0  0
   -2.4940    8.1240   -6.9600 C   0  0  0  0  0  0  0  0  0  0  0  0
    1.0560   11.9050   -1.5700 O   0  0  0  0  0  0  0  0  0  0  0  0
    1.3950   12.7380   -3.7940 C   0  0  0  0  0  0  0  0  0  0  0  0
    0.9880   14.2090   -3.9790 C   0  0  2  0  0  0  0  0  0  0  0  0
   -0.0680   14.4660   -5.1230 C   0  0  2  0  0  0  0  0  0  0  0  0
    2.1590   15.0850   -4.0960 N   0  0  0  0  0  0  0  0  0  0  0  0
   -0.6480   15.8710   -4.9630 C   0  0  2  0  0  0  0  0  0  0  0  0
    1.7030   16.3470   -4.5940 N   0  0  0  0  0  0  0  0  0  0  0  0
   -1.1560   13.3870   -5.2050 C   0  0  0  0  0  0  0  0  0  0  0  0
    0.3620   16.6700   -4.1490 C   0  0  1  0  0  0  0  0  0  0  0  0
   -2.0710   15.8770   -4.3900 C   0  0  0  0  0  0  0  0  0  0  0  0
   -2.5730   13.7600   -5.6790 C   0  0  0  0  0  0  0  0  0  0  0  0
    0.1580   18.0410   -4.3900 O   0  0  0  0  0  0  0  0  0  0  0  0
   -3.0780   15.1120   -5.2290 C   0  0  0  0  0  0  0  0  0  0  0  0
  2  1  1  6
  2  3  1  0
  2  4  1  0
  3  5  1  0
  4  6  1  0
  5  6  1  0
  4  7  1  6
  5  8  1  1
  5  9  1  0
  6 10  1  6
  7 11  1  0
  9 12  1  0
 10 13  1  0
 11 13  1  0
 12 14  1  1
 12 15  1  0
 16 15  1  6
 16 17  1  0
 16 18  1  0
 17 19  1  0
 18 20  1  0
 17 21  1  1
 19 22  1  0
 20 22  1  0
 19 23  1  1
 21 24  1  0
 22 25  1  6
 23 26  1  0
 24 26  1  0
M  END
