ucsf013-ucsf258
     RDKit          3D

 15 16  0  0  0  0  0  0  0  0999 V2000
   -3.9740   14.3100    1.9250 N   0  0  0  0  0  0  0  0  0  0  0  0
   -4.9120   15.0930    1.1800 C   0  0  2  0  0  0  0  0  0  0  0  0
   -6.1920   14.4350    1.4410 N   0  0  0  0  0  0  0  0  0  0  0  0
   -4.4750   15.2180   -0.2670 C   0  0  2  0  0  0  0  0  0  0  0  0
   -5.4830   14.5700   -1.1870 C   0  0  1  0  0  0  0  0  0  0  0  0
   -7.2920   14.5540    0.5000 C   0  0  0  0  0  0  0  0  0  0  0  0
   -3.0580   14.6700   -0.4930 C   0  0  0  0  0  0  0  0  0  0  0  0
   -6.8630   14.9390   -0.8320 N   0  0  0  0  0  0  0  0  0  0  0  0
   -5.0860   14.9780   -2.6010 C   0  0  0  0  0  0  0  0  0  0  0  0
   -2.5880   14.7470   -1.9740 C   0  0  1  0  0  0  0  0  0  0  0  0
   -1.1330   14.1520   -2.3100 C   0  0  2  0  0  0  0  0  0  0  0  0
   -3.7210   14.3870   -2.9760 C   0  0  2  0  0  0  0  0  0  0  0  0
   -0.3330   14.0840   -1.2580 O   0  0  0  0  0  0  0  0  0  0  0  0
   -0.4480   14.9730   -3.2520 O   0  0  0  0  0  0  0  0  0  0  0  0
   -3.3170   14.8140   -4.2810 O   0  0  0  0  0  0  0  0  0  0  0  0
  2  1  1  1
  2  3  1  0
  2  4  1  0
  4  5  1  0
  3  6  1  0
  4  7  1  1
  5  8  1  0
  6  8  1  0
  5  9  1  6
 10  7  1  1
 10 11  1  0
  9 12  1  0
 10 12  1  0
 11 13  1  1
 11 14  1  0
 12 15  1  6
M  CHG  1  13  -1
M  END
