ucsf392-ucsf365
     RDKit          3D

 22 23  0  0  0  0  0  0  0  0999 V2000
   -5.2770   15.6200   -0.7390 C   0  0  0  0  0  0  0  0  0  0  0  0
   -3.9730   14.8660   -0.5030 C   0  0  1  0  0  0  0  0  0  0  0  0
   -2.9000   15.3420   -1.4940 C   0  0  0  0  0  0  0  0  0  0  0  0
   -3.5310   14.8250    0.9860 C   0  0  2  0  0  0  0  0  0  0  0  0
   -4.3200   15.6500    1.8630 N   0  0  0  0  0  0  0  0  0  0  0  0
   -2.1810   15.2470    1.2520 N   0  0  0  0  0  0  0  0  0  0  0  0
   -1.5730   15.5030   -0.9360 N   0  0  0  0  0  0  0  0  0  0  0  0
   -1.3690   14.6810    0.2220 C   0  0  1  0  0  0  0  0  0  0  0  0
    0.1110   14.6130    0.5210 C   0  0  0  0  0  0  0  0  0  0  0  0
    0.7700   14.1760   -0.8020 C   0  0  0  0  0  0  0  0  0  0  0  0
   -0.0020   13.0050   -1.4170 C   0  0  0  0  0  0  0  0  0  0  0  0
    0.8080   12.0150   -2.0520 O   0  0  0  0  0  0  0  0  0  0  0  0
    1.5420   12.5300   -3.1600 C   0  0  2  0  0  0  0  0  0  0  0  0
    1.6400   13.7950   -2.9740 O   0  0  0  0  0  0  0  0  0  0  0  0
    0.6840   12.4160   -4.4500 C   0  0  0  0  0  0  0  0  0  0  0  0
   -0.6560   13.2070   -4.3590 C   0  0  2  0  0  0  0  0  0  0  0  0
   -1.8390   12.4150   -4.9300 C   0  0  2  0  0  0  0  0  0  0  0  0
   -0.5670   14.6190   -4.9970 C   0  0  0  0  0  0  0  0  0  0  0  0
   -1.4760   11.1000   -5.3440 O   0  0  0  0  0  0  0  0  0  0  0  0
   -2.5860   13.1280   -6.0580 C   0  0  0  0  0  0  0  0  0  0  0  0
   -1.9050   15.3760   -5.0800 C   0  0  0  0  0  0  0  0  0  0  0  0
   -3.0220   14.5520   -5.7060 C   0  0  0  0  0  0  0  0  0  0  0  0
  2  1  1  1
  2  3  1  0
  2  4  1  0
  4  5  1  1
  4  6  1  0
  3  7  1  0
  6  8  1  0
  7  8  1  0
  8  9  1  1
  9 10  1  0
 10 11  1  0
 11 12  1  0
 12 13  1  0
 13 14  1  1
 13 15  1  0
 16 15  1  6
 16 17  1  0
 16 18  1  0
 17 19  1  6
 17 20  1  0
 18 21  1  0
 20 22  1  0
 21 22  1  0
M  CHG  1  14  -1
M  END
