ucsf336-ucsf170
     RDKit          3D

 21 22  0  0  0  0  0  0  0  0999 V2000
    0.8520   13.9310   -3.8570 O   0  0  0  0  0  0  0  0  0  0  0  0
    0.1060   13.1300   -3.1140 C   0  0  2  0  0  0  0  0  0  0  0  0
    1.0270   12.9460   -2.0280 O   0  0  0  0  0  0  0  0  0  0  0  0
   -0.1090   11.7140   -3.7980 C   0  0  2  0  0  0  0  0  0  0  0  0
   -1.2270   13.7750   -2.5340 C   0  0  1  0  0  0  0  0  0  0  0  0
    0.3970   10.6770   -2.9630 O   0  0  0  0  0  0  0  0  0  0  0  0
    0.1300   11.4540   -5.2070 N   0  0  0  0  0  0  0  0  0  0  0  0
   -1.3150   14.4890   -1.1520 C   0  0  0  0  0  0  0  0  0  0  0  0
   -2.2100   14.3810   -3.5780 C   0  0  2  0  0  0  0  0  0  0  0  0
   -1.6650   15.4140   -4.3950 O   0  0  0  0  0  0  0  0  0  0  0  0
   -0.6750   10.3900   -5.8020 C   0  0  0  0  0  0  0  0  0  0  0  0
   -2.7570   14.8440   -0.7040 C   0  0  2  0  0  0  0  0  0  0  0  0
   -3.5590   14.8370   -3.0230 C   0  0  0  0  0  0  0  0  0  0  0  0
   -3.0730   14.4400    1.0680 S   0  0  0  0  0  0  0  0  0  0  0  0
   -0.4400   10.2070   -7.3140 C   0  0  0  0  0  0  0  0  0  0  0  0
   -2.1540   10.3190   -5.4390 C   0  0  0  0  0  0  0  0  0  0  0  0
   -3.7980   14.2620   -1.6320 C   0  0  0  0  0  0  0  0  0  0  0  0
   -4.6550   15.2930    1.2650 C   0  0  0  0  0  0  0  0  0  0  0  0
   -1.0900    8.9330   -7.8560 C   0  0  0  0  0  0  0  0  0  0  0  0
   -2.7900    9.0360   -5.9660 C   0  0  0  0  0  0  0  0  0  0  0  0
   -2.5550    8.8000   -7.4590 C   0  0  0  0  0  0  0  0  0  0  0  0
  2  1  1  6
  2  3  1  0
  2  4  1  0
  2  5  1  0
  4  6  1  1
  4  7  1  0
  5  8  1  1
  5  9  1  0
  9 10  1  1
  7 11  1  0
  8 12  1  0
  9 13  1  0
 12 14  1  1
 11 15  1  0
 11 16  1  0
 12 17  1  0
 13 17  1  0
 14 18  1  0
 15 19  1  0
 16 20  1  0
 19 21  1  0
 20 21  1  0
M  CHG  1   1  -1
M  END
