ucsf387-ucsf247
     RDKit          3D

 21 23  0  0  0  0  0  0  0  0999 V2000
    0.9570   18.1610   -4.3160 Cl  0  0  0  0  0  0  0  0  0  0  0  0
    0.3370   16.9350   -5.4420 C   0  0  2  0  0  0  0  0  0  0  0  0
   -1.1480   16.7860   -5.1760 C   0  0  0  0  0  0  0  0  0  0  0  0
    0.9980   15.5870   -5.1390 C   0  0  0  0  0  0  0  0  0  0  0  0
    0.1810   14.9640   -4.0120 C   0  0  1  0  0  0  0  0  0  0  0  0
   -1.1940   15.7290   -4.0890 C   0  0  2  0  0  0  0  0  0  0  0  0
   -2.5640   15.1880   -3.6670 C   0  0  0  0  0  0  0  0  0  0  0  0
    0.4510   13.4280   -3.8510 C   0  0  0  0  0  0  0  0  0  0  0  0
   -0.0670   12.6430   -2.6240 C   0  0  1  0  0  0  0  0  0  0  0  0
   -2.6810   15.2710   -2.1370 C   0  0  2  0  0  0  0  0  0  0  0  0
   -0.0420   11.3270   -2.7230 O   0  0  0  0  0  0  0  0  0  0  0  0
    0.8380   12.7840   -1.5300 O   0  0  0  0  0  0  0  0  0  0  0  0
   -1.3850   13.2420   -2.0790 C   0  0  0  0  0  0  0  0  0  0  0  0
   -1.4350   14.6640   -1.7090 N   0  0  0  0  0  0  0  0  0  0  0  0
   -3.8020   14.5240   -1.3500 C   0  0  2  0  0  0  0  0  0  0  0  0
   -5.2680   14.9740   -1.6310 C   0  0  0  0  0  0  0  0  0  0  0  0
   -3.4000   14.5550    0.1530 C   0  0  0  0  0  0  0  0  0  0  0  0
   -6.2700   15.0730   -0.4750 C   0  0  1  0  0  0  0  0  0  0  0  0
   -4.2960   15.3870    1.0320 C   0  0  0  0  0  0  0  0  0  0  0  0
   -7.3930   14.2240   -0.6470 O   0  0  0  0  0  0  0  0  0  0  0  0
   -5.6840   14.8060    0.9110 C   0  0  0  0  0  0  0  0  0  0  0  0
  2  1  1  1
  2  3  1  0
  2  4  1  0
  5  4  1  6
  6  3  1  6
  5  6  1  0
  6  7  1  0
  5  8  1  0
  8  9  1  0
 10  7  1  6
  9 11  1  6
  9 12  1  0
  9 13  1  0
 10 14  1  0
 13 14  1  0
 10 15  1  0
 15 16  1  1
 15 17  1  0
 16 18  1  0
 17 19  1  0
 18 20  1  6
 18 21  1  0
 19 21  1  0
M  CHG  1  11  -1
M  END
