ucsf371-ucsf422
     RDKit          3D

 23 25  0  0  0  0  0  0  0  0999 V2000
   -5.3840   15.0540    0.7070 C   0  0  0  0  0  0  0  0  0  0  0  0
   -4.4250   14.7680   -0.4150 C   0  0  1  0  0  0  0  0  0  0  0  0
   -4.7860   15.3220   -1.7220 N   0  0  0  0  0  0  0  0  0  0  0  0
   -2.7660   15.3270   -0.0430 S   0  0  0  0  0  0  0  0  0  0  0  0
   -3.5310   15.2910   -2.4940 C   0  0  0  0  0  0  0  0  0  0  0  0
   -2.4820   14.5600   -1.6500 C   0  0  1  0  0  0  0  0  0  0  0  0
   -1.0240   14.3710   -2.1600 C   0  0  2  0  0  0  0  0  0  0  0  0
   -0.2360   14.2340   -1.1030 O   0  0  0  0  0  0  0  0  0  0  0  0
   -0.5210   15.5750   -2.8960 C   0  0  0  0  0  0  0  0  0  0  0  0
   -0.3190   15.3560   -4.3920 C   0  0  2  0  0  0  0  0  0  0  0  0
    0.7260   14.2810   -4.8430 C   0  0  2  0  0  0  0  0  0  0  0  0
    0.2880   16.6720   -4.8510 C   0  0  1  0  0  0  0  0  0  0  0  0
   -1.6720   14.9450   -4.9870 C   0  0  0  0  0  0  0  0  0  0  0  0
    0.6610   12.7600   -4.5200 C   0  0  0  0  0  0  0  0  0  0  0  0
    1.9040   15.0680   -4.3890 C   0  0  0  0  0  0  0  0  0  0  0  0
    1.6590   16.2740   -5.2430 N   0  0  0  0  0  0  0  0  0  0  0  0
   -0.5180   17.5440   -5.8080 C   0  0  0  0  0  0  0  0  0  0  0  0
   -2.6330   16.0570   -5.2480 C   0  0  2  0  0  0  0  0  0  0  0  0
    1.2310   12.2780   -3.1520 C   0  0  2  0  0  0  0  0  0  0  0  0
   -4.1510   15.3240   -6.2240 Br  0  0  0  0  0  0  0  0  0  0  0  0
   -2.0500   17.3700   -5.7990 C   0  0  0  0  0  0  0  0  0  0  0  0
    0.5320   11.2440   -2.7100 O   0  0  0  0  0  0  0  0  0  0  0  0
    0.9510   13.2120   -2.1350 O   0  0  0  0  0  0  0  0  0  0  0  0
  2  1  1  1
  2  3  1  0
  2  4  1  0
  3  5  1  0
  4  6  1  0
  6  5  1  6
  6  7  1  0
  7  8  1  1
  7  9  1  0
 10  9  1  1
 10 11  1  0
 10 12  1  0
 10 13  1  0
 11 14  1  1
 11 15  1  0
 12 16  1  0
 15 16  1  0
 12 17  1  6
 13 18  1  0
 14 19  1  0
 18 20  1  6
 17 21  1  0
 18 21  1  0
 19 22  1  1
 19 23  1  0
M  CHG  2   8  -1  22  -1
M  END
