ucsf387-ucsf013
     RDKit          3D

 24 26  0  0  0  0  0  0  0  0999 V2000
    0.9980   18.1360   -4.3070 Cl  0  0  0  0  0  0  0  0  0  0  0  0
    0.5340   16.5990   -5.0490 C   0  0  2  0  0  0  0  0  0  0  0  0
   -1.0000   16.6900   -5.1370 C   0  0  0  0  0  0  0  0  0  0  0  0
    1.1810   15.4140   -4.2960 C   0  0  0  0  0  0  0  0  0  0  0  0
    0.2080   14.2930   -3.8630 C   0  0  2  0  0  0  0  0  0  0  0  0
   -1.7890   15.4490   -4.7110 C   0  0  1  0  0  0  0  0  0  0  0  0
   -3.2030   15.4070   -5.3200 C   0  0  0  0  0  0  0  0  0  0  0  0
    0.8430   12.8870   -3.6000 C   0  0  0  0  0  0  0  0  0  0  0  0
   -0.9600   14.1850   -4.8440 C   0  0  0  0  0  0  0  0  0  0  0  0
    0.1050   12.0540   -2.4920 C   0  0  1  0  0  0  0  0  0  0  0  0
   -4.2960   14.5330   -4.6640 C   0  0  0  0  0  0  0  0  0  0  0  0
    0.5210   10.7960   -2.4260 O   0  0  0  0  0  0  0  0  0  0  0  0
    0.4520   12.6230   -1.2310 O   0  0  0  0  0  0  0  0  0  0  0  0
   -4.4430   14.4530   -3.1160 C   0  0  2  0  0  0  0  0  0  0  0  0
   -5.8330   14.9140   -2.6470 C   0  0  0  0  0  0  0  0  0  0  0  0
   -3.3700   15.1690   -2.2960 C   0  0  0  0  0  0  0  0  0  0  0  0
   -6.1410   14.3730   -1.2690 C   0  0  1  0  0  0  0  0  0  0  0  0
   -3.7700   15.3020   -0.8240 C   0  0  0  0  0  0  0  0  0  0  0  0
   -4.8890   14.3380   -0.3800 C   0  0  1  0  0  0  0  0  0  0  0  0
   -7.2770   15.0020   -0.6240 N   0  0  0  0  0  0  0  0  0  0  0  0
   -5.1500   14.4030    1.1360 C   0  0  1  0  0  0  0  0  0  0  0  0
   -7.5760   14.3770    0.6250 C   0  0  0  0  0  0  0  0  0  0  0  0
   -4.3680   15.3540    1.8830 N   0  0  0  0  0  0  0  0  0  0  0  0
   -6.5210   14.6450    1.5690 N   0  0  0  0  0  0  0  0  0  0  0  0
  2  1  1  1
  2  3  1  0
  2  4  1  0
  4  5  1  0
  3  6  1  0
  6  7  1  6
  5  8  1  6
  5  9  1  0
  6  9  1  0
  8 10  1  0
  7 11  1  0
 10 12  1  1
 10 13  1  0
 14 11  1  6
 14 15  1  0
 14 16  1  0
 17 15  1  6
 16 18  1  0
 17 19  1  0
 19 18  1  6
 17 20  1  0
 19 21  1  0
 20 22  1  0
 21 23  1  6
 21 24  1  0
 22 24  1  0
M  CHG  1  12  -1
M  END
