ucsf365-ucsf371
     RDKit          3D

 19 20  0  0  0  0  0  0  0  0999 V2000
    0.5770   10.7190   -2.2980 O   0  0  0  0  0  0  0  0  0  0  0  0
    0.5670   12.0470   -2.4610 C   0  0  1  0  0  0  0  0  0  0  0  0
    1.8440   12.4480   -2.0370 O   0  0  0  0  0  0  0  0  0  0  0  0
    0.4950   12.4680   -3.9500 C   0  0  0  0  0  0  0  0  0  0  0  0
   -0.9590   12.6720   -4.4350 C   0  0  2  0  0  0  0  0  0  0  0  0
   -1.2990   12.2380   -5.8540 C   0  0  1  0  0  0  0  0  0  0  0  0
   -1.6070   14.0380   -4.1250 C   0  0  2  0  0  0  0  0  0  0  0  0
   -1.3850   10.8080   -5.8660 O   0  0  0  0  0  0  0  0  0  0  0  0
   -2.6780   12.7360   -6.3550 C   0  0  0  0  0  0  0  0  0  0  0  0
   -1.8500   14.8650   -5.3470 C   0  0  0  0  0  0  0  0  0  0  0  0
   -1.3440   14.8350   -2.8420 C   0  0  2  0  0  0  0  0  0  0  0  0
   -2.9530   14.2330   -6.1730 C   0  0  0  0  0  0  0  0  0  0  0  0
   -0.1140   14.6900   -2.3570 O   0  0  0  0  0  0  0  0  0  0  0  0
   -2.5070   14.4860   -1.8960 C   0  0  2  0  0  0  0  0  0  0  0  0
   -3.8110   15.0690   -2.4750 C   0  0  0  0  0  0  0  0  0  0  0  0
   -2.6230   14.8730   -0.1100 S   0  0  0  0  0  0  0  0  0  0  0  0
   -4.3570   15.3510   -0.2560 C   0  0  1  0  0  0  0  0  0  0  0  0
   -4.8920   14.8060   -1.5070 N   0  0  0  0  0  0  0  0  0  0  0  0
   -5.1440   14.8350    0.9270 C   0  0  0  0  0  0  0  0  0  0  0  0
  2  1  1  6
  2  3  1  0
  2  4  1  0
  5  4  1  6
  5  6  1  0
  5  7  1  0
  6  8  1  1
  6  9  1  0
  7 10  1  6
  7 11  1  0
  9 12  1  0
 10 12  1  0
 11 13  1  1
 11 14  1  0
 14 15  1  6
 14 16  1  0
 16 17  1  0
 15 18  1  0
 17 18  1  0
 17 19  1  1
M  CHG  2   1  -1  13  -1
M  END
