ucsf172-ucsf264
     RDKit          3D

 32 34  0  0  0  0  0  0  0  0999 V2000
   -8.2550   14.9810    2.5050 C   0  0  0  0  0  0  0  0  0  0  0  0
   -7.1200   14.3790    1.3140 S   0  0  0  0  0  0  0  0  0  0  0  0
   -6.8020   12.8980    1.8120 O   0  0  0  0  0  0  0  0  0  0  0  0
   -7.9360   14.2740   -0.0580 O   0  0  0  0  0  0  0  0  0  0  0  0
   -5.6730   15.0870    1.1100 N   0  0  0  0  0  0  0  0  0  0  0  0
   -4.7390   14.6860    0.0970 C   0  0  2  0  0  0  0  0  0  0  0  0
   -3.4090   15.2810    0.5090 C   0  0  0  0  0  0  0  0  0  0  0  0
   -5.1580   15.0900   -1.3200 C   0  0  0  0  0  0  0  0  0  0  0  0
   -2.3560   14.7590   -0.4220 C   0  0  0  0  0  0  0  0  0  0  0  0
   -4.1720   14.5330   -2.3220 C   0  0  0  0  0  0  0  0  0  0  0  0
   -2.7560   14.9680   -1.9270 C   0  0  2  0  0  0  0  0  0  0  0  0
   -1.6040   14.6860   -2.9490 C   0  0  1  0  0  0  0  0  0  0  0  0
   -0.7880   13.7240   -2.2730 O   0  0  0  0  0  0  0  0  0  0  0  0
   -2.0960   14.2000   -4.0720 O   0  0  0  0  0  0  0  0  0  0  0  0
    0.5900   14.0360   -2.1010 C   0  0  0  0  0  0  0  0  0  0  0  0
    1.3590   12.9300   -2.5630 O   0  0  0  0  0  0  0  0  0  0  0  0
    0.5060   12.1660   -3.3980 C   0  0  2  0  0  0  0  0  0  0  0  0
    0.7450   10.7760   -3.2550 O   0  0  0  0  0  0  0  0  0  0  0  0
    0.6700   12.5970   -4.8820 C   0  0  0  0  0  0  0  0  0  0  0  0
    0.6150   11.5080   -5.8840 N   0  0  0  0  0  0  0  0  0  0  0  0
    1.0530   11.8620   -7.2280 N   0  0  0  0  0  0  0  0  0  0  0  0
   -0.6760   10.8510   -6.0890 C   0  0  1  0  0  0  0  0  0  0  0  0
    0.2720   11.0800   -8.2110 C   0  0  2  0  0  0  0  0  0  0  0  0
   -0.4300   10.0580   -7.3450 C   0  0  2  0  0  0  0  0  0  0  0  0
   -1.2710    9.9250   -5.0460 C   0  0  0  0  0  0  0  0  0  0  0  0
    0.9400   10.3870   -9.4030 C   0  0  0  0  0  0  0  0  0  0  0  0
   -1.7030    9.4340   -7.9080 C   0  0  0  0  0  0  0  0  0  0  0  0
   -2.6130    9.3540   -5.5200 C   0  0  0  0  0  0  0  0  0  0  0  0
    1.6040    9.2640   -9.0390 F   0  0  0  0  0  0  0  0  0  0  0  0
    0.0330   10.0250  -10.3250 F   0  0  0  0  0  0  0  0  0  0  0  0
    1.7840   11.2020  -10.0520 F   0  0  0  0  0  0  0  0  0  0  0  0
   -2.4830    8.6270   -6.8540 C   0  0  0  0  0  0  0  0  0  0  0  0
  1  2  1  0
  2  3  1  0
  2  4  1  0
  2  5  1  0
  6  5  1  1
  6  7  1  0
  6  8  1  0
  7  9  1  0
  8 10  1  0
 11  9  1  1
 10 11  1  0
 11 12  1  0
 12 13  1  0
 12 14  1  6
 13 15  1  0
 15 16  1  0
 16 17  1  0
 17 18  1  6
 17 19  1  0
 19 20  1  0
 20 21  1  0
 20 22  1  0
 21 23  1  0
 22 24  1  0
 23 24  1  0
 22 25  1  1
 23 26  1  6
 24 27  1  6
 25 28  1  0
 26 29  1  0
 26 30  1  0
 26 31  1  0
 27 32  1  0
 28 32  1  0
M  CHG  1  14  -1
M  END
