ucsf339-ucsf147
     RDKit          3D

 20 22  0  0  0  0  0  0  0  0999 V2000
    1.1850   15.0140   -2.6220 O   0  0  0  0  0  0  0  0  0  0  0  0
    0.6720   13.8140   -2.4240 C   0  0  1  0  0  0  0  0  0  0  0  0
    1.0280   13.5880   -1.0780 O   0  0  0  0  0  0  0  0  0  0  0  0
   -0.8990   13.7540   -2.5310 C   0  0  1  0  0  0  0  0  0  0  0  0
   -1.7030   14.3690   -1.3800 C   0  0  0  0  0  0  0  0  0  0  0  0
   -1.5230   14.0780   -3.9290 C   0  0  1  0  0  0  0  0  0  0  0  0
   -3.1980   14.1860   -1.6450 C   0  0  2  0  0  0  0  0  0  0  0  0
   -2.9520   14.4470   -4.0580 N   0  0  0  0  0  0  0  0  0  0  0  0
   -0.8690   15.1740   -4.6740 N   0  0  0  0  0  0  0  0  0  0  0  0
   -1.1630   12.9100   -4.8090 C   0  0  0  0  0  0  0  0  0  0  0  0
   -3.5960   14.9870   -2.8740 C   0  0  0  0  0  0  0  0  0  0  0  0
   -4.1000   14.3470   -0.4110 C   0  0  0  0  0  0  0  0  0  0  0  0
    0.2390   13.2900   -5.1610 C   0  0  2  0  0  0  0  0  0  0  0  0
   -0.0310   14.5570   -5.7040 O   0  0  0  0  0  0  0  0  0  0  0  0
    0.9720   12.4140   -6.1470 C   0  0  0  0  0  0  0  0  0  0  0  0
   -3.7580   15.5200    0.4940 C   0  0  0  0  0  0  0  0  0  0  0  0
   -5.5750   14.4680   -0.7590 C   0  0  0  0  0  0  0  0  0  0  0  0
   -4.3790   15.3250    1.8470 C   0  0  0  0  0  0  0  0  0  0  0  0
   -6.4210   14.3960    0.5050 C   0  0  0  0  0  0  0  0  0  0  0  0
   -5.6360   14.4440    1.8210 C   0  0  0  0  0  0  0  0  0  0  0  0
  2  1  1  1
  2  3  1  0
  2  4  1  0
  4  5  1  1
  4  6  1  0
  5  7  1  0
  6  8  1  0
  6  9  1  0
  6 10  1  6
  7 11  1  0
  8 11  1  0
  7 12  1  1
 10 13  1  0
  9 14  1  0
 13 14  1  0
 13 15  1  6
 12 16  1  0
 12 17  1  0
 16 18  1  0
 17 19  1  0
 18 20  1  0
 19 20  1  0
M  CHG  1   1  -1
M  END
