ucsf380-ucsf243
     RDKit          3D

 18 19  0  0  0  0  0  0  0  0999 V2000
    0.7210   15.2120   -1.2690 O   0  0  0  0  0  0  0  0  0  0  0  0
    0.2490   14.1190   -1.7850 C   0  0  0  0  0  0  0  0  0  0  0  0
    0.4430   13.0940   -0.8430 O   0  0  0  0  0  0  0  0  0  0  0  0
   -1.1850   14.1950   -2.3880 C   0  0  2  0  0  0  0  0  0  0  0  0
    1.1740   13.9820   -2.8200 O   0  0  0  0  0  0  0  0  0  0  0  0
   -2.4000   14.0790   -1.3410 C   0  0  1  0  0  0  0  0  0  0  0  0
   -1.4970   13.1600   -3.5610 C   0  0  0  0  0  0  0  0  0  0  0  0
   -2.2600   14.7080    0.0940 C   0  0  0  0  0  0  0  0  0  0  0  0
   -3.7090   14.4090   -2.1110 C   0  0  2  0  0  0  0  0  0  0  0  0
   -2.4240   11.9960   -3.0840 C   0  0  0  0  0  0  0  0  0  0  0  0
   -0.3660   12.5800   -4.4160 C   0  0  0  0  0  0  0  0  0  0  0  0
   -3.4120   14.6070   -3.5080 O   0  0  0  0  0  0  0  0  0  0  0  0
   -3.4640   15.4360    0.7190 C   0  0  0  0  0  0  0  0  0  0  0  0
   -4.3870   15.6520   -1.6400 C   0  0  0  0  0  0  0  0  0  0  0  0
   -2.6620   10.8810   -4.0990 C   0  0  0  0  0  0  0  0  0  0  0  0
   -0.8150   11.7060   -5.5820 C   0  0  0  0  0  0  0  0  0  0  0  0
   -4.6880   15.5990   -0.1650 C   0  0  0  0  0  0  0  0  0  0  0  0
   -2.2800   11.2990   -5.5070 C   0  0  0  0  0  0  0  0  0  0  0  0
  2  1  1  0
  2  3  1  0
  4  2  1  1
  2  5  1  0
  4  6  1  0
  4  7  1  0
  6  8  1  1
  6  9  1  0
  7 10  1  0
  7 11  1  0
  9 12  1  6
  8 13  1  0
  9 14  1  0
 10 15  1  0
 11 16  1  0
 13 17  1  0
 14 17  1  0
 15 18  1  0
 16 18  1  0
M  CHG  1   1  -1
M  END
