ucsf247-ucsf338
     RDKit          3D

 17 17  0  0  0  0  0  0  0  0999 V2000
    0.7850   13.2520   -1.8930 O   0  0  0  0  0  0  0  0  0  0  0  0
    0.6400   13.6580   -3.1380 C   0  0  2  0  0  0  0  0  0  0  0  0
    1.7880   14.4670   -3.3280 O   0  0  0  0  0  0  0  0  0  0  0  0
   -0.6180   14.5570   -3.2990 C   0  0  0  0  0  0  0  0  0  0  0  0
   -1.8070   14.2180   -2.5010 N   0  0  0  0  0  0  0  0  0  0  0  0
   -2.9600   15.0430   -2.6880 C   0  0  1  0  0  0  0  0  0  0  0  0
   -3.8090   14.4350   -3.6360 O   0  0  0  0  0  0  0  0  0  0  0  0
   -3.7410   15.2350   -1.3690 C   0  0  1  0  0  0  0  0  0  0  0  0
   -5.2180   14.8560   -1.4840 C   0  0  0  0  0  0  0  0  0  0  0  0
   -3.0150   14.5950   -0.1590 C   0  0  0  0  0  0  0  0  0  0  0  0
   -5.9020   14.5840   -0.1490 C   0  0  2  0  0  0  0  0  0  0  0  0
   -3.7730   14.5850    1.1570 C   0  0  0  0  0  0  0  0  0  0  0  0
   -7.3150   15.0180   -0.1690 N   0  0  0  0  0  0  0  0  0  0  0  0
   -5.1180   15.2430    0.9870 C   0  0  0  0  0  0  0  0  0  0  0  0
   -8.0960   14.1580    0.6220 N   0  0  0  0  0  0  0  0  0  0  0  0
   -7.7360   14.9080   -1.5490 O   0  0  0  0  0  0  0  0  0  0  0  0
   -9.4030   14.0880    0.0120 O   0  0  0  0  0  0  0  0  0  0  0  0
  2  1  1  1
  2  3  1  0
  2  4  1  0
  4  5  1  0
  5  6  1  0
  6  7  1  6
  6  8  1  0
  8  9  1  6
  8 10  1  0
  9 11  1  0
 10 12  1  0
 11 13  1  6
 11 14  1  0
 12 14  1  0
 13 15  1  0
 13 16  1  0
 15 17  1  0
M  CHG  1   1  -1
M  END
