ucsf493-ucsf005
     RDKit          3D

 27 30  0  0  0  0  0  0  0  0999 V2000
   -4.4540   15.2110   -5.6650 C   0  0  0  0  0  0  0  0  0  0  0  0
   -3.6640   16.1180   -4.8900 O   0  0  0  0  0  0  0  0  0  0  0  0
   -2.3440   16.1260   -5.3680 C   0  0  2  0  0  0  0  0  0  0  0  0
   -1.6530   14.8630   -4.7880 C   0  0  2  0  0  0  0  0  0  0  0  0
   -1.6390   17.4420   -5.0150 C   0  0  0  0  0  0  0  0  0  0  0  0
   -2.4150   14.2720   -3.6000 C   0  0  0  0  0  0  0  0  0  0  0  0
   -0.2040   14.9640   -4.3450 C   0  0  2  0  0  0  0  0  0  0  0  0
   -0.1410   17.3840   -5.2970 C   0  0  0  0  0  0  0  0  0  0  0  0
    0.5080   16.3290   -4.4170 C   0  0  2  0  0  0  0  0  0  0  0  0
    0.7770   13.9640   -4.9580 C   0  0  2  0  0  0  0  0  0  0  0  0
   -2.7370   15.1060   -2.4370 N   0  0  0  0  0  0  0  0  0  0  0  0
    0.5760   12.4730   -4.6130 C   0  0  0  0  0  0  0  0  0  0  0  0
    1.8310   15.9700   -4.8700 N   0  0  0  0  0  0  0  0  0  0  0  0
    2.0050   14.5940   -4.3750 C   0  0  0  0  0  0  0  0  0  0  0  0
   -4.2060   15.1290   -2.4430 C   0  0  0  0  0  0  0  0  0  0  0  0
   -2.4460   14.5680   -1.1190 C   0  0  2  0  0  0  0  0  0  0  0  0
    0.3670   12.1250   -3.1110 C   0  0  1  0  0  0  0  0  0  0  0  0
   -4.7020   15.1460   -1.0800 N   0  0  0  0  0  0  0  0  0  0  0  0
   -3.4700   15.3190   -0.3180 C   0  0  1  0  0  0  0  0  0  0  0  0
   -1.1600   14.9170   -0.5490 N   0  0  0  0  0  0  0  0  0  0  0  0
    0.4270   10.7240   -2.9400 O   0  0  0  0  0  0  0  0  0  0  0  0
    1.4120   12.4920   -2.4130 O   0  0  0  0  0  0  0  0  0  0  0  0
   -3.4570   14.7520    1.0880 C   0  0  2  0  0  0  0  0  0  0  0  0
   -1.0700   14.2710    0.7320 C   0  0  1  0  0  0  0  0  0  0  0  0
   -4.2530   15.5770    1.9890 N   0  0  0  0  0  0  0  0  0  0  0  0
    0.0740   14.8170    1.3410 N   0  0  0  0  0  0  0  0  0  0  0  0
   -2.1300   14.6740    1.6440 N   0  0  0  0  0  0  0  0  0  0  0  0
  1  2  1  0
  3  2  1  1
  3  4  1  0
  3  5  1  0
  4  6  1  1
  4  7  1  0
  5  8  1  0
  7  9  1  0
  9  8  1  6
  7 10  1  6
  6 11  1  0
 10 12  1  1
  9 13  1  0
 10 14  1  0
 13 14  1  0
 11 15  1  0
 11 16  1  0
 12 17  1  0
 15 18  1  0
 16 19  1  0
 19 18  1  6
 16 20  1  1
 17 21  1  6
 17 22  1  0
 19 23  1  0
 20 24  1  0
 23 25  1  1
 24 26  1  1
 23 27  1  0
 24 27  1  0
M  CHG  1  22  -1
M  END
