ucsf017-ucsf248
     RDKit          3D

 26 30  0  0  0  0  0  0  0  0999 V2000
   -8.3690   12.7830    2.7620 N   0  0  0  0  0  0  0  0  0  0  0  0
   -7.9730   14.1990    2.0150 S   0  0  0  0  0  0  0  0  0  0  0  0
   -7.2360   15.1400    3.0820 O   0  0  0  0  0  0  0  0  0  0  0  0
   -9.2930   14.9620    1.5260 O   0  0  0  0  0  0  0  0  0  0  0  0
   -6.8530   14.0850    0.5500 C   0  0  2  0  0  0  0  0  0  0  0  0
   -5.4180   13.9570    0.8530 N   0  0  0  0  0  0  0  0  0  0  0  0
   -7.0450   15.2030   -0.3670 N   0  0  0  0  0  0  0  0  0  0  0  0
   -4.6520   14.8860    0.0080 C   0  0  1  0  0  0  0  0  0  0  0  0
   -5.7020   15.6720   -0.7880 C   0  0  0  0  0  0  0  0  0  0  0  0
   -3.7580   15.6470    0.8790 N   0  0  0  0  0  0  0  0  0  0  0  0
   -3.7240   14.1580   -0.9960 C   0  0  0  0  0  0  0  0  0  0  0  0
   -2.3710   15.3790    0.5070 C   0  0  2  0  0  0  0  0  0  0  0  0
   -2.3980   14.1100   -0.2730 C   0  0  2  0  0  0  0  0  0  0  0  0
   -1.5830   15.1420    1.6510 N   0  0  0  0  0  0  0  0  0  0  0  0
   -1.0180   13.7470   -0.9010 C   0  0  1  0  0  0  0  0  0  0  0  0
   -0.4670   13.8740   -2.2400 N   0  0  0  0  0  0  0  0  0  0  0  0
   -0.0430   14.4710   -0.0790 N   0  0  0  0  0  0  0  0  0  0  0  0
   -0.3680   14.4230    1.3350 C   0  0  0  0  0  0  0  0  0  0  0  0
   -1.3060   13.6920   -3.3980 C   0  0  1  0  0  0  0  0  0  0  0  0
    0.6960   12.9930   -2.3390 C   0  0  0  0  0  0  0  0  0  0  0  0
   -1.9750   14.9040   -4.0450 C   0  0  0  0  0  0  0  0  0  0  0  0
   -0.5550   13.1150   -4.5820 C   0  0  2  0  0  0  0  0  0  0  0  0
    0.2680   11.6010   -2.8100 C   0  0  0  0  0  0  0  0  0  0  0  0
   -1.6220   13.2340   -5.6500 C   0  0  0  0  0  0  0  0  0  0  0  0
   -2.3290   14.4640   -5.3820 O   0  0  0  0  0  0  0  0  0  0  0  0
   -0.1430   11.6730   -4.2750 C   0  0  0  0  0  0  0  0  0  0  0  0
  1  2  1  0
  2  3  1  0
  2  4  1  0
  5  2  1  1
  5  6  1  0
  5  7  1  0
  8  6  1  0
  7  9  1  0
  8  9  1  6
  8 10  1  0
  8 11  1  0
 12 10  1  1
 13 11  1  6
 12 13  1  0
 12 14  1  0
 13 15  1  0
 15 16  1  6
 15 17  1  0
 14 18  1  0
 17 18  1  0
 16 19  1  0
 16 20  1  0
 19 21  1  6
 19 22  1  0
 20 23  1  0
 22 24  1  6
 21 25  1  0
 24 25  1  0
 22 26  1  0
 23 26  1  0
M  END
