ucsf338-ucsf147
     RDKit          3D

 19 20  0  0  0  0  0  0  0  0999 V2000
   -8.4610   14.2620   -0.2510 O   0  0  0  0  0  0  0  0  0  0  0  0
   -7.1470   14.6360    0.2610 N   0  0  0  0  0  0  0  0  0  0  0  0
   -6.2990   15.0990   -0.8510 C   0  0  2  0  0  0  0  0  0  0  0  0
   -6.8560   14.5340   -2.0270 O   0  0  0  0  0  0  0  0  0  0  0  0
   -4.7760   14.7520   -0.7380 C   0  0  1  0  0  0  0  0  0  0  0  0
   -3.8160   14.8760   -1.9950 C   0  0  1  0  0  0  0  0  0  0  0  0
   -4.0980   15.2850    0.5220 C   0  0  0  0  0  0  0  0  0  0  0  0
   -3.7520   16.2150   -2.4450 O   0  0  0  0  0  0  0  0  0  0  0  0
   -2.3680   14.1530   -1.9200 C   0  0  1  0  0  0  0  0  0  0  0  0
   -2.6850   14.7560    0.7060 C   0  0  0  0  0  0  0  0  0  0  0  0
   -2.1680   13.7970   -0.4060 C   0  0  0  0  0  0  0  0  0  0  0  0
   -2.6160   12.9220   -2.8150 N   0  0  0  0  0  0  0  0  0  0  0  0
   -0.9610   14.5310   -2.6640 C   0  0  1  0  0  0  0  0  0  0  0  0
    0.3710   14.6590   -1.8630 C   0  0  2  0  0  0  0  0  0  0  0  0
   -0.7230   13.5000   -3.7960 C   0  0  1  0  0  0  0  0  0  0  0  0
   -2.0550   13.2040   -4.1600 O   0  0  0  0  0  0  0  0  0  0  0  0
    0.1470   13.8910   -4.9980 C   0  0  0  0  0  0  0  0  0  0  0  0
    0.6770   13.4170   -1.2200 O   0  0  0  0  0  0  0  0  0  0  0  0
    0.3030   15.4640   -0.8550 O   0  0  0  0  0  0  0  0  0  0  0  0
  1  2  1  0
  2  3  1  0
  3  4  1  6
  3  5  1  0
  5  6  1  0
  5  7  1  1
  6  8  1  1
  6  9  1  0
  7 10  1  0
  9 11  1  1
 10 11  1  0
  9 12  1  0
  9 13  1  0
 13 14  1  1
 13 15  1  0
 12 16  1  0
 15 16  1  0
 15 17  1  6
 14 18  1  1
 14 19  1  0
M  CHG  1  19  -1
M  END
