ucsf412-ucsf115
     RDKit          3D

 23 26  0  0  0  0  0  0  0  0999 V2000
   -8.0390   15.6050   -0.6610 O   0  0  0  0  0  0  0  0  0  0  0  0
   -7.1760   14.6830   -0.0470 C   0  0  2  0  0  0  0  0  0  0  0  0
   -7.1980   14.9450    1.3420 N   0  0  0  0  0  0  0  0  0  0  0  0
   -5.7910   14.6540   -0.7470 C   0  0  2  0  0  0  0  0  0  0  0  0
   -4.4860   15.2770   -0.1090 C   0  0  1  0  0  0  0  0  0  0  0  0
   -5.9080   14.7680    1.9530 C   0  0  0  0  0  0  0  0  0  0  0  0
   -5.8280   15.1380   -2.1780 C   0  0  0  0  0  0  0  0  0  0  0  0
   -4.6240   15.4340    1.4040 C   0  0  0  0  0  0  0  0  0  0  0  0
   -3.2690   14.4090   -0.6300 C   0  0  2  0  0  0  0  0  0  0  0  0
   -4.5650   14.6290   -2.8220 C   0  0  0  0  0  0  0  0  0  0  0  0
   -3.8880   13.6570   -1.8500 C   0  0  0  0  0  0  0  0  0  0  0  0
   -2.8840   13.5820    0.5460 C   0  0  0  0  0  0  0  0  0  0  0  0
   -1.8110   14.7440   -1.0920 C   0  0  2  0  0  0  0  0  0  0  0  0
   -1.5410   15.0840   -2.4990 N   0  0  0  0  0  0  0  0  0  0  0  0
   -0.7490   13.9170   -0.5780 N   0  0  0  0  0  0  0  0  0  0  0  0
   -1.8750   14.2190    1.4130 N   0  0  0  0  0  0  0  0  0  0  0  0
   -1.6550   14.0960   -3.5860 C   0  0  0  0  0  0  0  0  0  0  0  0
   -0.5650   14.1940    0.8170 C   0  0  0  0  0  0  0  0  0  0  0  0
   -1.2430   12.7260   -3.0450 C   0  0  1  0  0  0  0  0  0  0  0  0
   -1.0930   11.8000   -4.1290 O   0  0  0  0  0  0  0  0  0  0  0  0
    0.1000   12.7540   -2.3520 C   0  0  0  0  0  0  0  0  0  0  0  0
    0.6660   11.4010   -2.6270 C   0  0  0  0  0  0  0  0  0  0  0  0
   -0.3140   10.7500   -3.5830 C   0  0  0  0  0  0  0  0  0  0  0  0
  2  1  1  6
  2  3  1  0
  2  4  1  0
  4  5  1  0
  3  6  1  0
  4  7  1  6
  5  8  1  1
  6  8  1  0
  5  9  1  0
  7 10  1  0
  9 11  1  6
 10 11  1  0
  9 12  1  0
  9 13  1  0
 13 14  1  6
 13 15  1  0
 12 16  1  0
 14 17  1  0
 15 18  1  0
 16 18  1  0
 19 17  1  6
 19 20  1  0
 19 21  1  0
 21 22  1  0
 20 23  1  0
 22 23  1  0
M  END
