ucsf017-ucsf523
     RDKit          3D

 20 23  0  0  0  0  0  0  0  0999 V2000
   -5.6240   14.5240    0.9600 O   0  0  0  0  0  0  0  0  0  0  0  0
   -4.5940   15.3160    0.3820 C   0  0  1  0  0  0  0  0  0  0  0  0
   -3.6260   15.4890    1.4370 N   0  0  0  0  0  0  0  0  0  0  0  0
   -3.9100   14.6360   -0.8280 C   0  0  0  0  0  0  0  0  0  0  0  0
   -2.3350   15.2780    0.8250 C   0  0  2  0  0  0  0  0  0  0  0  0
   -2.4890   14.3700   -0.3390 C   0  0  2  0  0  0  0  0  0  0  0  0
   -1.4240   14.6660    1.7030 N   0  0  0  0  0  0  0  0  0  0  0  0
   -1.2140   14.5950   -1.1750 C   0  0  2  0  0  0  0  0  0  0  0  0
   -1.5140   15.7490   -1.9380 O   0  0  0  0  0  0  0  0  0  0  0  0
   -0.8200   13.5910   -2.1560 N   0  0  0  0  0  0  0  0  0  0  0  0
   -0.0880   14.9490   -0.3150 N   0  0  0  0  0  0  0  0  0  0  0  0
   -0.1470   14.4590    1.0580 C   0  0  0  0  0  0  0  0  0  0  0  0
   -0.9270   14.0780   -3.5380 C   0  0  2  0  0  0  0  0  0  0  0  0
    0.4940   12.9800   -1.9330 C   0  0  0  0  0  0  0  0  0  0  0  0
   -2.3050   14.4530   -4.0790 C   0  0  0  0  0  0  0  0  0  0  0  0
   -0.3660   13.0920   -4.5700 C   0  0  2  0  0  0  0  0  0  0  0  0
    0.6990   11.7250   -2.7820 C   0  0  0  0  0  0  0  0  0  0  0  0
   -1.3800   13.1110   -5.6990 C   0  0  0  0  0  0  0  0  0  0  0  0
   -2.2570   14.2230   -5.4910 O   0  0  0  0  0  0  0  0  0  0  0  0
   -0.2360   11.6860   -3.9740 C   0  0  0  0  0  0  0  0  0  0  0  0
  2  1  1  1
  2  3  1  0
  2  4  1  0
  5  3  1  1
  6  4  1  6
  5  6  1  0
  5  7  1  0
  6  8  1  0
  8  9  1  6
  8 10  1  0
  8 11  1  0
  7 12  1  0
 11 12  1  0
 10 13  1  0
 10 14  1  0
 13 15  1  6
 13 16  1  0
 14 17  1  0
 16 18  1  6
 15 19  1  0
 18 19  1  0
 16 20  1  0
 17 20  1  0
M  END
