ucsf320-ucsf584
     RDKit          3D

 14 15  0  0  0  0  0  0  0  0999 V2000
   -1.1560   13.7610   -2.2860 O   0  0  0  0  0  0  0  0  0  0  0  0
   -2.0300   14.8310   -2.2410 C   0  0  1  0  0  0  0  0  0  0  0  0
   -2.1360   15.3440   -3.5050 O   0  0  0  0  0  0  0  0  0  0  0  0
   -3.3930   14.4390   -1.6100 C   0  0  0  0  0  0  0  0  0  0  0  0
   -3.8460   15.0260   -0.3650 C   0  0  0  0  0  0  0  0  0  0  0  0
   -4.5540   14.7270   -2.3630 C   0  0  0  0  0  0  0  0  0  0  0  0
   -5.0950   15.7230   -0.2200 C   0  0  0  0  0  0  0  0  0  0  0  0
   -5.7440   14.1220   -1.7520 C   0  0  0  0  0  0  0  0  0  0  0  0
   -6.7060   14.8980   -0.5680 S   0  0  0  0  0  0  0  0  0  0  0  0
   -7.9700   15.4840   -2.0790 O   0  0  0  0  0  0  0  0  0  0  0  0
   -7.5340   13.4910    0.1120 N   0  0  0  0  0  0  0  0  0  0  0  0
   -7.8070   15.0210    0.8830 N   0  0  0  0  0  0  0  0  0  0  0  0
   -7.1670   14.5150    1.9680 C   0  0  0  0  0  0  0  0  0  0  0  0
   -7.0830   13.1870    1.3680 C   0  0  0  0  0  0  0  0  0  0  0  0
  2  1  1  6
  2  3  1  0
  2  4  1  0
  4  5  1  0
  4  6  1  0
  5  7  1  0
  6  8  1  0
  7  9  1  0
  8  9  1  0
  9 10  1  0
  9 11  1  0
  9 12  1  0
 12 13  1  0
 11 14  1  0
 13 14  1  0
M  CHG  1   1  -1
M  END
