ucsf264-ucsf380
     RDKit          3D

 32 35  0  0  0  0  0  0  0  0999 V2000
    1.0520   12.9570   -2.3330 O   0  0  0  0  0  0  0  0  0  0  0  0
    0.4030   12.1480   -3.3170 C   0  0  2  0  0  0  0  0  0  0  0  0
    0.5600   10.7940   -2.9160 O   0  0  0  0  0  0  0  0  0  0  0  0
    0.2180   13.9250   -1.6150 C   0  0  1  0  0  0  0  0  0  0  0  0
    0.9420   12.4510   -4.7500 C   0  0  0  0  0  0  0  0  0  0  0  0
    0.4200   15.1220   -2.1280 O   0  0  0  0  0  0  0  0  0  0  0  0
   -1.3020   13.4680   -1.7540 C   0  0  0  0  0  0  0  0  0  0  0  0
    0.2870   11.8190   -5.9300 N   0  0  0  0  0  0  0  0  0  0  0  0
   -2.4370   14.3570   -1.0970 C   0  0  0  0  0  0  0  0  0  0  0  0
   -1.6650   12.8310   -3.1330 C   0  0  0  0  0  0  0  0  0  0  0  0
    1.1480   11.7050   -7.0900 N   0  0  0  0  0  0  0  0  0  0  0  0
   -0.4690   10.5610   -5.8790 C   0  0  2  0  0  0  0  0  0  0  0  0
   -2.1930   15.1920    0.1380 C   0  0  0  0  0  0  0  0  0  0  0  0
   -3.2330   15.2080   -2.0920 C   0  0  0  0  0  0  0  0  0  0  0  0
   -3.0400   12.1530   -3.0700 C   0  0  0  0  0  0  0  0  0  0  0  0
   -1.4700   13.7420   -4.3650 C   0  0  0  0  0  0  0  0  0  0  0  0
    0.2780   11.1050   -8.1150 C   0  0  2  0  0  0  0  0  0  0  0  0
   -0.8920   10.4720   -7.3420 C   0  0  1  0  0  0  0  0  0  0  0  0
   -1.6850   10.3280   -4.9750 C   0  0  0  0  0  0  0  0  0  0  0  0
   -3.5300   15.6770    0.7440 C   0  0  0  0  0  0  0  0  0  0  0  0
   -4.6640   15.3410   -1.6130 C   0  0  0  0  0  0  0  0  0  0  0  0
   -3.6110   11.7900   -4.4390 C   0  0  0  0  0  0  0  0  0  0  0  0
   -1.8930   13.1580   -5.7120 C   0  0  0  0  0  0  0  0  0  0  0  0
    0.9110   10.2220   -9.2000 C   0  0  0  0  0  0  0  0  0  0  0  0
   -1.2770    9.0560   -7.7510 C   0  0  0  0  0  0  0  0  0  0  0  0
   -2.6800    9.3530   -5.6400 C   0  0  0  0  0  0  0  0  0  0  0  0
   -4.7830   15.7600   -0.1570 C   0  0  0  0  0  0  0  0  0  0  0  0
   -2.6040   11.8280   -5.5840 C   0  0  0  0  0  0  0  0  0  0  0  0
    1.5510    9.1220   -8.7530 F   0  0  0  0  0  0  0  0  0  0  0  0
   -0.0390    9.8070  -10.0620 F   0  0  0  0  0  0  0  0  0  0  0  0
    1.7440   10.9340   -9.9820 F   0  0  0  0  0  0  0  0  0  0  0  0
   -2.0380    8.3610   -6.6230 C   0  0  0  0  0  0  0  0  0  0  0  0
  1  2  1  0
  2  3  1  1
  1  4  1  0
  2  5  1  0
  4  6  1  6
  4  7  1  0
  5  8  1  0
  7  9  1  0
  7 10  1  0
  8 11  1  0
  8 12  1  0
  9 13  1  0
  9 14  1  0
 10 15  1  0
 10 16  1  0
 11 17  1  0
 12 18  1  0
 17 18  1  0
 12 19  1  1
 13 20  1  0
 14 21  1  0
 15 22  1  0
 16 23  1  0
 17 24  1  1
 18 25  1  6
 19 26  1  0
 20 27  1  0
 21 27  1  0
 22 28  1  0
 23 28  1  0
 24 29  1  0
 24 30  1  0
 24 31  1  0
 25 32  1  0
 26 32  1  0
M  CHG  1   6  -1
M  END
