ucsf404-ucsf424
     RDKit          3D

 26 29  0  0  0  0  0  0  0  0999 V2000
   -6.6160   15.6020   -1.7680 Cl  0  0  0  0  0  0  0  0  0  0  0  0
   -5.1660   14.6050   -1.4550 C   0  0  2  0  0  0  0  0  0  0  0  0
   -5.0790   14.1790    0.0450 C   0  0  2  0  0  0  0  0  0  0  0  0
   -3.8980   15.2460   -2.0340 C   0  0  0  0  0  0  0  0  0  0  0  0
   -5.8000   15.0900    0.9370 N   0  0  0  0  0  0  0  0  0  0  0  0
   -3.6550   13.9230    0.6050 C   0  0  2  0  0  0  0  0  0  0  0  0
   -2.7050   14.3390   -1.7290 C   0  0  1  0  0  0  0  0  0  0  0  0
   -1.4220   14.5080   -2.5560 C   0  0  0  0  0  0  0  0  0  0  0  0
   -5.3230   15.0000    2.2850 C   0  0  2  0  0  0  0  0  0  0  0  0
   -3.5990   14.6100    2.2680 S   0  0  0  0  0  0  0  0  0  0  0  0
   -2.4470   14.3280   -0.2320 C   0  0  0  0  0  0  0  0  0  0  0  0
   -6.1060   14.0010    2.9480 N   0  0  0  0  0  0  0  0  0  0  0  0
   -0.3390   13.5290   -2.1000 C   0  0  0  0  0  0  0  0  0  0  0  0
   -0.5550   12.2420   -2.6820 O   0  0  0  0  0  0  0  0  0  0  0  0
    0.6130   11.7990   -3.3710 C   0  0  2  0  0  0  0  0  0  0  0  0
    1.6400   12.1390   -2.6160 O   0  0  0  0  0  0  0  0  0  0  0  0
    0.6460   12.6510   -4.6740 C   0  0  0  0  0  0  0  0  0  0  0  0
    0.2130   12.0890   -6.0460 C   0  0  1  0  0  0  0  0  0  0  0  0
    1.3200   11.6280   -6.8850 N   0  0  0  0  0  0  0  0  0  0  0  0
   -0.9460   11.0990   -6.2240 C   0  0  1  0  0  0  0  0  0  0  0  0
    0.8860   10.4180   -7.5650 O   0  0  0  0  0  0  0  0  0  0  0  0
   -0.5340   10.3580   -7.4920 C   0  0  1  0  0  0  0  0  0  0  0  0
   -1.3230   10.1080   -5.1320 C   0  0  0  0  0  0  0  0  0  0  0  0
   -0.9560    8.8900   -7.5450 C   0  0  0  0  0  0  0  0  0  0  0  0
   -2.4960    9.2240   -5.5790 C   0  0  0  0  0  0  0  0  0  0  0  0
   -2.3640    8.7020   -7.0100 C   0  0  0  0  0  0  0  0  0  0  0  0
  2  1  1  1
  2  3  1  0
  2  4  1  0
  3  5  1  1
  3  6  1  0
  4  7  1  0
  7  8  1  6
  5  9  1  0
  6 10  1  0
  9 10  1  0
  6 11  1  6
  7 11  1  0
  9 12  1  1
  8 13  1  0
 13 14  1  0
 14 15  1  0
 15 16  1  1
 15 17  1  0
 18 17  1  1
 18 19  1  0
 18 20  1  0
 19 21  1  0
 20 22  1  0
 21 22  1  0
 20 23  1  1
 22 24  1  1
 23 25  1  0
 24 26  1  0
 25 26  1  0
M  CHG  1  16  -1
M  END
