ucsf520-ucsf365
     RDKit          3D

 27 30  0  0  0  0  0  0  0  0999 V2000
   -4.4060   15.5230    1.2130 N   0  0  0  0  0  0  0  0  0  0  0  0
   -3.7120   14.8400    0.1220 C   0  0  2  0  0  0  0  0  0  0  0  0
   -2.2430   14.4270    0.4240 C   0  0  1  0  0  0  0  0  0  0  0  0
   -3.8840   15.6290   -1.0810 N   0  0  0  0  0  0  0  0  0  0  0  0
   -3.2100   15.0860   -2.2620 C   0  0  0  0  0  0  0  0  0  0  0  0
   -1.4230   14.1440   -0.8370 C   0  0  1  0  0  0  0  0  0  0  0  0
   -1.4430   15.4440    1.1150 N   0  0  0  0  0  0  0  0  0  0  0  0
   -1.8050   14.9190   -1.9870 N   0  0  0  0  0  0  0  0  0  0  0  0
   -0.0380   14.3700   -0.4190 N   0  0  0  0  0  0  0  0  0  0  0  0
   -0.1030   14.9070    0.9300 C   0  0  0  0  0  0  0  0  0  0  0  0
   -0.7460   15.1510   -3.0130 C   0  0  2  0  0  0  0  0  0  0  0  0
   -0.3530   16.6040   -3.3100 C   0  0  2  0  0  0  0  0  0  0  0  0
   -1.0510   14.4530   -4.3910 C   0  0  1  0  0  0  0  0  0  0  0  0
   -1.3790   17.3310   -4.0640 O   0  0  0  0  0  0  0  0  0  0  0  0
    0.9120   16.7350   -4.1490 C   0  0  0  0  0  0  0  0  0  0  0  0
   -0.9170   12.9030   -4.3270 C   0  0  2  0  0  0  0  0  0  0  0  0
   -2.3760   14.9820   -4.9960 C   0  0  0  0  0  0  0  0  0  0  0  0
    0.5530   12.5060   -3.9770 C   0  0  0  0  0  0  0  0  0  0  0  0
    0.3870   16.8420   -5.5400 C   0  0  0  0  0  0  0  0  0  0  0  0
   -0.8410   17.6950   -5.3340 C   0  0  0  0  0  0  0  0  0  0  0  0
   -1.3950   12.2250   -5.6180 C   0  0  1  0  0  0  0  0  0  0  0  0
   -3.3580   13.8850   -5.3340 C   0  0  0  0  0  0  0  0  0  0  0  0
    0.8860   11.8040   -2.6180 C   0  0  2  0  0  0  0  0  0  0  0  0
   -1.5130   10.8260   -5.4050 O   0  0  0  0  0  0  0  0  0  0  0  0
   -2.7380   12.7480   -6.1320 C   0  0  0  0  0  0  0  0  0  0  0  0
    0.2670   10.6330   -2.4710 O   0  0  0  0  0  0  0  0  0  0  0  0
    0.3630   12.5110   -1.5200 O   0  0  0  0  0  0  0  0  0  0  0  0
  2  1  1  1
  2  3  1  0
  2  4  1  0
  4  5  1  0
  3  6  1  0
  3  7  1  6
  5  8  1  0
  6  8  1  0
  6  9  1  1
  7 10  1  0
  9 10  1  0
 11  8  1  1
 11 12  1  0
 11 13  1  0
 12 14  1  0
 12 15  1  6
 13 16  1  0
 13 17  1  1
 16 18  1  6
 15 19  1  0
 14 20  1  0
 19 20  1  0
 16 21  1  0
 17 22  1  0
 18 23  1  0
 21 24  1  1
 21 25  1  0
 22 25  1  0
 23 26  1  6
 23 27  1  0
M  CHG  1  26  -1
M  END
