ucsf151-ucsf110
     RDKit          3D

 20 22  0  0  0  0  0  0  0  0999 V2000
    0.1890   13.0570   -2.2690 O   0  0  0  0  0  0  0  0  0  0  0  0
   -0.1580   14.2040   -2.8380 C   0  0  1  0  0  0  0  0  0  0  0  0
    1.0680   14.7830   -3.1970 O   0  0  0  0  0  0  0  0  0  0  0  0
   -1.1020   13.9600   -4.0210 C   0  0  1  0  0  0  0  0  0  0  0  0
   -0.9280   15.0770   -2.0100 N   0  0  0  0  0  0  0  0  0  0  0  0
   -1.2580   15.1860   -4.8950 C   0  0  0  0  0  0  0  0  0  0  0  0
   -1.1130   12.6960   -4.8690 C   0  0  0  0  0  0  0  0  0  0  0  0
   -2.1870   15.5740   -2.6300 C   0  0  0  0  0  0  0  0  0  0  0  0
   -1.3840   14.4530   -0.8310 C   0  0  2  0  0  0  0  0  0  0  0  0
   -2.6880   15.1150   -5.4210 C   0  0  1  0  0  0  0  0  0  0  0  0
   -2.4520   12.5210   -5.5060 N   0  0  0  0  0  0  0  0  0  0  0  0
   -3.2780   15.4730   -1.5640 C   0  0  0  0  0  0  0  0  0  0  0  0
   -2.3780   15.4850   -0.3740 C   0  0  1  0  0  0  0  0  0  0  0  0
   -0.2360   14.3840   -0.0020 N   0  0  0  0  0  0  0  0  0  0  0  0
   -2.9410   16.2230   -6.2920 O   0  0  0  0  0  0  0  0  0  0  0  0
   -2.9920   13.7630   -6.1310 C   0  0  0  0  0  0  0  0  0  0  0  0
   -2.9170   15.2130    0.9950 C   0  0  1  0  0  0  0  0  0  0  0  0
   -0.5310   14.9260    1.2540 C   0  0  0  0  0  0  0  0  0  0  0  0
   -4.1300   14.4600    1.1600 N   0  0  0  0  0  0  0  0  0  0  0  0
   -1.8740   14.6030    1.7540 N   0  0  0  0  0  0  0  0  0  0  0  0
  2  1  1  1
  2  3  1  0
  2  4  1  0
  2  5  1  0
  4  6  1  6
  4  7  1  0
  5  8  1  0
  5  9  1  0
  6 10  1  0
  7 11  1  0
  8 12  1  0
  9 13  1  0
 13 12  1  6
  9 14  1  1
 10 15  1  6
 10 16  1  0
 11 16  1  0
 13 17  1  0
 14 18  1  0
 17 19  1  6
 17 20  1  0
 18 20  1  0
M  CHG  1   1  -1
M  END
