ucsf345-ucsf147
     RDKit          3D

 17 18  0  0  0  0  0  0  0  0999 V2000
   -6.1600   14.8350    1.2140 N   0  0  0  0  0  0  0  0  0  0  0  0
   -6.3310   14.9650   -0.2350 C   0  0  2  0  0  0  0  0  0  0  0  0
   -7.0230   13.8160   -0.6350 O   0  0  0  0  0  0  0  0  0  0  0  0
   -4.9830   15.2450   -1.0120 C   0  0  2  0  0  0  0  0  0  0  0  0
   -5.0480   14.9620   -2.4690 N   0  0  0  0  0  0  0  0  0  0  0  0
   -3.7280   14.5580   -0.3990 C   0  0  0  0  0  0  0  0  0  0  0  0
   -3.6790   15.2530   -3.0430 C   0  0  0  0  0  0  0  0  0  0  0  0
   -2.9380   13.6680   -1.3280 N   0  0  0  0  0  0  0  0  0  0  0  0
   -2.5320   14.2170   -2.6670 C   0  0  1  0  0  0  0  0  0  0  0  0
   -2.6760   13.0590   -3.6070 N   0  0  0  0  0  0  0  0  0  0  0  0
   -1.0110   14.5740   -3.0140 C   0  0  1  0  0  0  0  0  0  0  0  0
    0.0860   14.3590   -1.9320 C   0  0  1  0  0  0  0  0  0  0  0  0
   -0.7100   14.1120   -4.4530 C   0  0  2  0  0  0  0  0  0  0  0  0
   -1.8170   13.2680   -4.8030 O   0  0  0  0  0  0  0  0  0  0  0  0
    0.6040   13.3940   -4.7960 C   0  0  0  0  0  0  0  0  0  0  0  0
    0.6390   13.0660   -1.9030 O   0  0  0  0  0  0  0  0  0  0  0  0
    1.1500   15.0780   -2.2090 O   0  0  0  0  0  0  0  0  0  0  0  0
  2  1  1  1
  2  3  1  0
  2  4  1  0
  4  5  1  0
  4  6  1  1
  5  7  1  0
  6  8  1  0
  9  7  1  6
  9  8  1  0
  9 10  1  0
  9 11  1  0
 11 12  1  1
 11 13  1  0
 10 14  1  0
 13 14  1  0
 13 15  1  1
 12 16  1  6
 12 17  1  0
M  CHG  1  17  -1
M  END
