ucsf403-ucsf348
     RDKit          3D

 27 29  0  0  0  0  0  0  0  0999 V2000
    0.8130    9.1220   -7.9500 Cl  0  0  0  0  0  0  0  0  0  0  0  0
   -0.7080    9.7490   -7.1830 C   0  0  2  0  0  0  0  0  0  0  0  0
   -0.5400   11.0890   -6.4180 C   0  0  2  0  0  0  0  0  0  0  0  0
   -1.2900    8.6180   -6.3220 C   0  0  0  0  0  0  0  0  0  0  0  0
    0.7780   11.2750   -5.8900 O   0  0  0  0  0  0  0  0  0  0  0  0
   -1.5750   11.2040   -5.2720 C   0  0  1  0  0  0  0  0  0  0  0  0
   -2.6920    8.9300   -5.8340 C   0  0  0  0  0  0  0  0  0  0  0  0
   -1.8940   12.6900   -4.9770 C   0  0  0  0  0  0  0  0  0  0  0  0
    1.0200   12.4010   -5.0240 C   0  0  0  0  0  0  0  0  0  0  0  0
   -2.8790   10.4260   -5.5820 C   0  0  0  0  0  0  0  0  0  0  0  0
    0.7050   12.1330   -3.5100 C   0  0  2  0  0  0  0  0  0  0  0  0
   -2.6850   12.9450   -3.6930 C   0  0  0  0  0  0  0  0  0  0  0  0
    1.7600   12.3450   -2.7490 O   0  0  0  0  0  0  0  0  0  0  0  0
    0.4900   10.7540   -3.2680 O   0  0  0  0  0  0  0  0  0  0  0  0
   -1.7790   13.3730   -2.5390 C   0  0  0  0  0  0  0  0  0  0  0  0
   -2.3980   14.4980   -1.7030 C   0  0  2  0  0  0  0  0  0  0  0  0
   -1.8110   14.4900   -0.2770 C   0  0  0  0  0  0  0  0  0  0  0  0
   -3.9320   14.3790   -1.7400 C   0  0  0  0  0  0  0  0  0  0  0  0
   -4.5810   15.4560   -0.9040 C   0  0  1  0  0  0  0  0  0  0  0  0
   -2.8730   14.5100    0.8230 C   0  0  0  0  0  0  0  0  0  0  0  0
   -6.1250   15.5200   -1.0480 C   0  0  1  0  0  0  0  0  0  0  0  0
   -4.0370   15.4860    0.5450 C   0  0  2  0  0  0  0  0  0  0  0  0
   -6.5610   15.0730   -2.3340 O   0  0  0  0  0  0  0  0  0  0  0  0
   -6.8950   14.8280   -0.0020 N   0  0  0  0  0  0  0  0  0  0  0  0
   -5.0690   15.2500    1.5240 N   0  0  0  0  0  0  0  0  0  0  0  0
   -6.1220   14.4020    1.1260 C   0  0  1  0  0  0  0  0  0  0  0  0
   -6.9990   14.4870    2.2510 N   0  0  0  0  0  0  0  0  0  0  0  0
  2  1  1  1
  2  3  1  0
  2  4  1  0
  3  5  1  1
  3  6  1  0
  4  7  1  0
  6  8  1  6
  5  9  1  0
  6 10  1  0
  7 10  1  0
  9 11  1  0
  8 12  1  0
 11 13  1  1
 11 14  1  0
 12 15  1  0
 16 15  1  6
 16 17  1  0
 16 18  1  0
 19 18  1  1
 17 20  1  0
 19 21  1  0
 19 22  1  0
 22 20  1  6
 21 23  1  6
 21 24  1  0
 22 25  1  0
 24 26  1  0
 25 26  1  0
 26 27  1  1
M  CHG  1  13  -1
M  END
