ucsf110-ucsf348
     RDKit          3D

 18 20  0  0  0  0  0  0  0  0999 V2000
   -1.0000   15.0620   -3.4710 C   0  0  0  0  0  0  0  0  0  0  0  0
   -1.8210   14.6350   -2.3450 N   0  0  0  0  0  0  0  0  0  0  0  0
   -3.2860   14.7100   -2.5290 C   0  0  0  0  0  0  0  0  0  0  0  0
   -1.5160   15.3710   -1.1430 C   0  0  1  0  0  0  0  0  0  0  0  0
   -3.9620   14.8470   -1.1260 C   0  0  1  0  0  0  0  0  0  0  0  0
   -2.8030   15.4760   -0.2960 C   0  0  1  0  0  0  0  0  0  0  0  0
   -0.3840   14.7770   -0.4680 N   0  0  0  0  0  0  0  0  0  0  0  0
   -2.6200   14.7910    1.0570 C   0  0  2  0  0  0  0  0  0  0  0  0
   -0.2760   15.3160    0.8500 C   0  0  0  0  0  0  0  0  0  0  0  0
   -5.3910   15.5080   -1.1190 C   0  0  1  0  0  0  0  0  0  0  0  0
   -4.2780   13.5150   -0.4010 C   0  0  0  0  0  0  0  0  0  0  0  0
   -3.5430   15.4030    1.9910 N   0  0  0  0  0  0  0  0  0  0  0  0
   -6.0400   15.2470   -2.3500 O   0  0  0  0  0  0  0  0  0  0  0  0
   -1.3540   14.8690    1.6690 N   0  0  0  0  0  0  0  0  0  0  0  0
   -6.3870   14.9960   -0.1690 N   0  0  0  0  0  0  0  0  0  0  0  0
   -4.8980   13.6770    0.9420 N   0  0  0  0  0  0  0  0  0  0  0  0
   -5.8070   14.7440    1.0930 C   0  0  2  0  0  0  0  0  0  0  0  0
   -6.8560   14.2730    1.9510 N   0  0  0  0  0  0  0  0  0  0  0  0
  1  2  1  0
  2  3  1  0
  2  4  1  0
  5  3  1  6
  4  6  1  0
  5  6  1  0
  4  7  1  1
  6  8  1  1
  7  9  1  0
  5 10  1  0
  5 11  1  0
  8 12  1  1
 10 13  1  6
  8 14  1  0
  9 14  1  0
 10 15  1  0
 11 16  1  0
 15 17  1  0
 16 17  1  0
 17 18  1  1
M  END
