ucsf516-ucsf109
     RDKit          3D

 30 36  0  0  0  0  0  0  0  0999 V2000
    0.5230   11.1030   -2.9270 C   0  0  0  0  0  0  0  0  0  0  0  0
   -0.4480   12.1670   -2.4210 C   0  0  0  0  0  0  0  0  0  0  0  0
    0.2890   13.1030   -3.4090 C   0  0  0  0  0  0  0  0  0  0  0  0
    1.5440   12.2620   -3.1250 C   0  0  0  0  0  0  0  0  0  0  0  0
    0.2520   14.6140   -3.2770 C   0  0  1  0  0  0  0  0  0  0  0  0
   -0.0230   15.1180   -4.7020 C   0  0  0  0  0  0  0  0  0  0  0  0
   -0.9080   15.1960   -2.6030 N   0  0  0  0  0  0  0  0  0  0  0  0
   -2.0430   14.8200   -3.4550 C   0  0  0  0  0  0  0  0  0  0  0  0
   -1.5060   14.8550   -4.8770 C   0  0  0  0  0  0  0  0  0  0  0  0
   -1.1360   15.1090   -1.1460 C   0  0  2  0  0  0  0  0  0  0  0  0
   -0.1330   14.2820   -0.5390 N   0  0  0  0  0  0  0  0  0  0  0  0
   -2.5330   14.7040   -0.6720 C   0  0  1  0  0  0  0  0  0  0  0  0
   -0.1180   14.3400    0.9050 C   0  0  0  0  0  0  0  0  0  0  0  0
   -2.5840   14.2760    0.7960 C   0  0  1  0  0  0  0  0  0  0  0  0
   -3.3670   15.9360   -0.6220 C   0  0  0  0  0  0  0  0  0  0  0  0
   -1.3890   14.7160    1.4960 N   0  0  0  0  0  0  0  0  0  0  0  0
   -3.7550   14.9980    1.3140 N   0  0  0  0  0  0  0  0  0  0  0  0
   -3.2830   16.2410    0.8570 C   0  0  0  0  0  0  0  0  0  0  0  0
   -5.0250   14.9110    0.6030 C   0  0  2  0  0  0  0  0  0  0  0  0
   -6.1280   14.0710    1.0880 N   0  0  0  0  0  0  0  0  0  0  0  0
   -4.9480   15.0790   -0.9220 C   0  0  2  0  0  0  0  0  0  0  0  0
   -7.2930   14.3160    0.2820 C   0  0  1  0  0  0  0  0  0  0  0  0
   -6.2140   14.8320   -1.7240 C   0  0  2  0  0  0  0  0  0  0  0  0
   -3.8790   14.2830   -1.6610 C   0  0  0  0  0  0  0  0  0  0  0  0
   -6.6910   14.5940    2.3840 N   0  0  0  0  0  0  0  0  0  0  0  0
   -7.1930   13.9680   -1.0890 N   0  0  0  0  0  0  0  0  0  0  0  0
   -5.7490   14.3690   -3.1050 C   0  0  0  0  0  0  0  0  0  0  0  0
   -4.2460   14.5260   -3.1040 C   0  0  0  0  0  0  0  0  0  0  0  0
   -8.3820   13.7320    0.9980 N   0  0  0  0  0  0  0  0  0  0  0  0
   -8.0980   14.1590    2.3640 C   0  0  0  0  0  0  0  0  0  0  0  0
  1  2  1  0
  2  3  1  0
  1  4  1  0
  3  4  1  0
  5  3  1  6
  5  6  1  0
  5  7  1  0
  7  8  1  0
  6  9  1  0
  8  9  1  0
 10  7  1  6
 10 11  1  0
 10 12  1  0
 11 13  1  0
 12 14  1  0
 12 15  1  1
 13 16  1  0
 14 16  1  1
 14 17  1  0
 15 18  1  0
 17 18  1  0
 19 17  1  6
 19 20  1  0
 19 21  1  0
 20 22  1  0
 21 23  1  0
 21 24  1  6
 20 25  1  0
 22 26  1  6
 23 26  1  0
 23 27  1  6
 24 28  1  0
 27 28  1  0
 22 29  1  0
 25 30  1  0
 29 30  1  0
M  END
