ucsf224
     RDKit          3D

 12 12  0  0  0  0  0  0  0  0999 V2000
   -1.3420   18.3830   -5.1440 Cl  0  0  0  0  0  0  0  0  0  0  0  0
   -3.0670   15.7320   -5.3620 Cl  0  0  0  0  0  0  0  0  0  0  0  0
    0.1730   11.2560   -2.8880 O   0  0  0  0  0  0  0  0  0  0  0  0
    0.8200   12.3360   -2.8790 C   0  0  0  0  0  0  0  0  0  0  0  0
    1.1000   12.8940   -1.7860 O   0  0  0  0  0  0  0  0  0  0  0  0
    1.2640   12.9700   -4.1950 C   0  0  0  0  0  0  0  0  0  0  0  0
    0.6100   14.3290   -4.4330 C   0  0  0  0  0  0  0  0  0  0  0  0
    1.3640   15.4880   -4.3380 C   0  0  0  0  0  0  0  0  0  0  0  0
    0.7700   16.7200   -4.5540 C   0  0  0  0  0  0  0  0  0  0  0  0
   -0.5770   16.7950   -4.8650 C   0  0  0  0  0  0  0  0  0  0  0  0
   -1.3300   15.6360   -4.9610 C   0  0  0  0  0  0  0  0  0  0  0  0
   -0.7370   14.4040   -4.7440 C   0  0  0  0  0  0  0  0  0  0  0  0
  3  4  1  0
  4  5  1  0
  4  6  1  0
  6  7  1  0
  7  8  1  0
  8  9  1  0
  1 10  1  0
  9 10  1  0
  2 11  1  0
 10 11  1  0
  7 12  1  0
 11 12  1  0
M  CHG  1   3  -1
M  END
