ucsf365-ucsf028
     RDKit          3D

 28 31  0  0  0  0  0  0  0  0999 V2000
    1.7790   12.2870   -2.4670 O   0  0  0  0  0  0  0  0  0  0  0  0
    1.6420   13.5240   -2.9240 C   0  0  1  0  0  0  0  0  0  0  0  0
    2.9940   13.9560   -2.8690 O   0  0  0  0  0  0  0  0  0  0  0  0
    1.0840   13.4940   -4.3980 C   0  0  0  0  0  0  0  0  0  0  0  0
   -0.4470   13.8910   -4.4780 C   0  0  2  0  0  0  0  0  0  0  0  0
   -1.5390   12.8940   -5.1360 C   0  0  2  0  0  0  0  0  0  0  0  0
   -0.5650   15.3380   -5.0010 C   0  0  0  0  0  0  0  0  0  0  0  0
   -1.0960   11.5090   -5.4540 N   0  0  0  0  0  0  0  0  0  0  0  0
   -2.4990   13.5420   -6.1690 C   0  0  0  0  0  0  0  0  0  0  0  0
   -2.0010   15.8630   -5.1080 C   0  0  0  0  0  0  0  0  0  0  0  0
   -0.1100   11.4990   -6.5500 C   0  0  0  0  0  0  0  0  0  0  0  0
   -3.0000   14.9400   -5.8040 C   0  0  0  0  0  0  0  0  0  0  0  0
   -0.7010   10.8000   -4.2530 C   0  0  1  0  0  0  0  0  0  0  0  0
    0.1890   11.7000   -3.4480 C   0  0  0  0  0  0  0  0  0  0  0  0
   -1.8010   10.5460   -3.3060 N   0  0  0  0  0  0  0  0  0  0  0  0
   -0.7100   12.4310   -2.4550 C   0  0  2  0  0  0  0  0  0  0  0  0
   -1.5850   11.3720   -2.1040 O   0  0  0  0  0  0  0  0  0  0  0  0
   -1.5390   13.6750   -2.9240 C   0  0  0  0  0  0  0  0  0  0  0  0
   -2.0640   14.5380   -1.8520 N   0  0  0  0  0  0  0  0  0  0  0  0
   -3.5160   14.6150   -1.9360 C   0  0  0  0  0  0  0  0  0  0  0  0
   -1.5830   14.1230   -0.5670 C   0  0  2  0  0  0  0  0  0  0  0  0
   -4.0430   15.5880   -0.9810 N   0  0  0  0  0  0  0  0  0  0  0  0
   -2.4320   14.4910    0.6640 C   0  0  2  0  0  0  0  0  0  0  0  0
   -0.2540   14.6760   -0.3100 N   0  0  0  0  0  0  0  0  0  0  0  0
   -3.6280   15.4330    0.3930 C   0  0  2  0  0  0  0  0  0  0  0  0
   -1.4400   15.0380    1.5890 N   0  0  0  0  0  0  0  0  0  0  0  0
   -0.1490   14.6200    1.1100 C   0  0  0  0  0  0  0  0  0  0  0  0
   -4.8910   15.0160    1.0170 N   0  0  0  0  0  0  0  0  0  0  0  0
  2  1  1  6
  2  3  1  0
  2  4  1  0
  5  4  1  6
  5  6  1  0
  5  7  1  0
  6  8  1  6
  6  9  1  0
  7 10  1  0
  8 11  1  0
  9 12  1  0
 10 12  1  0
 13  8  1  6
 13 14  1  0
 13 15  1  0
 14 16  1  0
 15 17  1  0
 16 17  1  0
 16 18  1  6
 18 19  1  0
 19 20  1  0
 19 21  1  0
 20 22  1  0
 21 23  1  0
 21 24  1  1
 22 25  1  0
 23 25  1  0
 23 26  1  1
 24 27  1  0
 26 27  1  0
 25 28  1  1
M  CHG  1   1  -1
M  END
