ucsf320-ucsf442
     RDKit          3D

 15 16  0  0  0  0  0  0  0  0999 V2000
   -1.8300   12.3430   -1.4060 O   0  0  0  0  0  0  0  0  0  0  0  0
   -2.0460   13.4140   -2.1050 C   0  0  1  0  0  0  0  0  0  0  0  0
   -2.6010   13.0110   -3.3360 O   0  0  0  0  0  0  0  0  0  0  0  0
   -2.9460   14.5040   -1.3800 C   0  0  2  0  0  0  0  0  0  0  0  0
   -3.7380   14.4890   -0.0230 C   0  0  1  0  0  0  0  0  0  0  0  0
   -3.8100   15.3110   -2.4160 C   0  0  0  0  0  0  0  0  0  0  0  0
   -1.7680   15.1700   -0.8740 N   0  0  0  0  0  0  0  0  0  0  0  0
   -5.1700   14.0430   -0.0760 C   0  0  0  0  0  0  0  0  0  0  0  0
   -5.3160   14.9600   -2.3790 C   0  0  0  0  0  0  0  0  0  0  0  0
   -0.9580   14.4520    0.0740 C   0  0  1  0  0  0  0  0  0  0  0  0
   -3.0340   14.2120    1.2900 C   0  0  0  0  0  0  0  0  0  0  0  0
    0.2000   15.2210    0.2750 O   0  0  0  0  0  0  0  0  0  0  0  0
   -5.8740   15.0480   -0.9610 C   0  0  1  0  0  0  0  0  0  0  0  0
   -1.6130   14.5320    1.3460 N   0  0  0  0  0  0  0  0  0  0  0  0
   -7.2860   14.8560   -0.9130 O   0  0  0  0  0  0  0  0  0  0  0  0
  2  1  1  1
  2  3  1  0
  2  4  1  0
  4  5  1  0
  4  6  1  6
  4  7  1  0
  5  8  1  6
  6  9  1  0
  7 10  1  0
  5 11  1  0
 10 12  1  1
  8 13  1  0
  9 13  1  0
 10 14  1  0
 11 14  1  0
 13 15  1  6
M  CHG  1   1  -1
M  END
