ucsf348-ucsf278
     RDKit          3D

 24 27  0  0  0  0  0  0  0  0999 V2000
   -6.8230   13.6410    2.1350 N   0  0  0  0  0  0  0  0  0  0  0  0
   -6.1920   14.6500    1.3910 C   0  0  1  0  0  0  0  0  0  0  0  0
   -4.8710   14.1790    1.1650 N   0  0  0  0  0  0  0  0  0  0  0  0
   -6.9140   14.7430    0.1640 N   0  0  0  0  0  0  0  0  0  0  0  0
   -6.0310   14.6420   -0.9750 C   0  0  1  0  0  0  0  0  0  0  0  0
   -4.0760   15.2160    0.4920 C   0  0  2  0  0  0  0  0  0  0  0  0
   -6.7630   15.0160   -2.1210 O   0  0  0  0  0  0  0  0  0  0  0  0
   -4.7580   15.4960   -0.8870 C   0  0  1  0  0  0  0  0  0  0  0  0
   -2.5700   14.8510    0.5070 C   0  0  0  0  0  0  0  0  0  0  0  0
   -2.1170   14.2820   -0.8340 C   0  0  2  0  0  0  0  0  0  0  0  0
   -3.9150   15.2950   -2.1690 C   0  0  0  0  0  0  0  0  0  0  0  0
   -0.7270   13.6390   -0.9100 C   0  0  0  0  0  0  0  0  0  0  0  0
   -2.4230   15.2550   -1.9530 C   0  0  0  0  0  0  0  0  0  0  0  0
    0.2600   13.8980   -2.0870 C   0  0  1  0  0  0  0  0  0  0  0  0
    0.2130   12.9670   -3.3360 C   0  0  1  0  0  0  0  0  0  0  0  0
    0.4130   15.3210   -2.6220 C   0  0  0  0  0  0  0  0  0  0  0  0
   -0.9870   12.1270   -3.7290 C   0  0  0  0  0  0  0  0  0  0  0  0
    0.4020   13.6790   -4.6660 C   0  0  2  0  0  0  0  0  0  0  0  0
    1.6390   15.4810   -3.5290 C   0  0  0  0  0  0  0  0  0  0  0  0
   -0.5030   11.5700   -5.0770 C   0  0  2  0  0  0  0  0  0  0  0  0
    0.3580   12.6200   -5.6710 N   0  0  0  0  0  0  0  0  0  0  0  0
    1.5960   14.5920   -4.7380 C   0  0  0  0  0  0  0  0  0  0  0  0
   -1.6210   11.1780   -6.0410 C   0  0  0  0  0  0  0  0  0  0  0  0
   -2.5000   10.2620   -5.4000 O   0  0  0  0  0  0  0  0  0  0  0  0
  2  1  1  1
  2  3  1  0
  2  4  1  0
  4  5  1  0
  3  6  1  0
  5  7  1  6
  5  8  1  0
  6  8  1  0
  6  9  1  6
  9 10  1  0
  8 11  1  6
 10 12  1  1
 10 13  1  0
 11 13  1  0
 14 12  1  6
 14 15  1  0
 14 16  1  0
 15 17  1  6
 15 18  1  0
 16 19  1  0
 17 20  1  0
 18 21  1  0
 20 21  1  0
 18 22  1  1
 19 22  1  0
 20 23  1  6
 23 24  1  0
M  END
