ucsf138-ucsf110
     RDKit          3D

 27 29  0  0  0  0  0  0  0  0999 V2000
    0.8890   12.8050   -2.3310 O   0  0  0  0  0  0  0  0  0  0  0  0
    1.2810   11.9830   -3.2790 C   0  0  1  0  0  0  0  0  0  0  0  0
    0.4940   10.8370   -2.9890 O   0  0  0  0  0  0  0  0  0  0  0  0
    0.9720   12.5310   -4.7410 C   0  0  1  0  0  0  0  0  0  0  0  0
    0.1850   11.5030   -5.4940 N   0  0  0  0  0  0  0  0  0  0  0  0
    0.4170   13.9810   -4.8030 C   0  0  0  0  0  0  0  0  0  0  0  0
    0.4620   11.5310   -6.8960 C   0  0  1  0  0  0  0  0  0  0  0  0
    0.9030   15.0200   -3.7830 C   0  0  0  0  0  0  0  0  0  0  0  0
    1.8090   11.7640   -7.0870 O   0  0  0  0  0  0  0  0  0  0  0  0
    0.1960   10.2190   -7.4770 N   0  0  0  0  0  0  0  0  0  0  0  0
   -0.1900   15.7880   -3.0250 C   0  0  0  0  0  0  0  0  0  0  0  0
    0.8590    9.9770   -8.7800 C   0  0  0  0  0  0  0  0  0  0  0  0
   -1.2930   14.9710   -2.5180 N   0  0  0  0  0  0  0  0  0  0  0  0
   -0.0720   10.1330   -9.9890 C   0  0  0  0  0  0  0  0  0  0  0  0
    1.4850    8.5540   -8.7970 C   0  0  0  0  0  0  0  0  0  0  0  0
   -2.6590   15.3050   -2.9460 C   0  0  0  0  0  0  0  0  0  0  0  0
   -1.2990   14.6030   -1.1060 C   0  0  2  0  0  0  0  0  0  0  0  0
    0.5380    9.6650  -11.3210 C   0  0  0  0  0  0  0  0  0  0  0  0
    2.1100    8.1130  -10.1200 C   0  0  0  0  0  0  0  0  0  0  0  0
   -3.5330   15.1030   -1.7050 C   0  0  0  0  0  0  0  0  0  0  0  0
   -2.5230   15.3130   -0.5910 C   0  0  1  0  0  0  0  0  0  0  0  0
   -0.1850   15.0800   -0.3210 N   0  0  0  0  0  0  0  0  0  0  0  0
    1.1580    8.2680  -11.2830 C   0  0  0  0  0  0  0  0  0  0  0  0
   -2.7540   14.7690    0.7960 C   0  0  2  0  0  0  0  0  0  0  0  0
   -0.3390   14.5880    1.0330 C   0  0  0  0  0  0  0  0  0  0  0  0
   -3.8670   15.3680    1.4980 N   0  0  0  0  0  0  0  0  0  0  0  0
   -1.6030   15.0410    1.6130 N   0  0  0  0  0  0  0  0  0  0  0  0
  2  1  1  1
  2  3  1  0
  2  4  1  0
  4  5  1  0
  4  6  1  1
  5  7  1  0
  6  8  1  0
  7  9  1  1
  7 10  1  0
  8 11  1  0
 10 12  1  0
 11 13  1  0
 12 14  1  0
 12 15  1  0
 13 16  1  0
 13 17  1  0
 14 18  1  0
 15 19  1  0
 16 20  1  0
 17 21  1  0
 21 20  1  6
 17 22  1  1
 18 23  1  0
 19 23  1  0
 21 24  1  0
 22 25  1  0
 24 26  1  1
 24 27  1  0
 25 27  1  0
M  CHG  1   1  -1
M  END
