ucsf371-ucsf404
     RDKit          3D

 15 16  0  0  0  0  0  0  0  0999 V2000
   -6.7080   15.1190   -0.5730 C   0  0  0  0  0  0  0  0  0  0  0  0
   -4.8460   15.3390   -0.6160 S   0  0  0  0  0  0  0  0  0  0  0  0
   -4.2210   15.7590   -2.3690 N   0  0  0  0  0  0  0  0  0  0  0  0
   -3.9900   14.0680   -2.0040 S   0  0  0  0  0  0  0  0  0  0  0  0
   -4.5380   13.9820    0.3150 N   0  0  0  0  0  0  0  0  0  0  0  0
   -3.6460   16.0250    0.7130 C   0  0  0  0  0  0  0  0  0  0  0  0
   -5.0310   14.7710   -3.3200 Cl  0  0  0  0  0  0  0  0  0  0  0  0
   -2.8160   15.9270   -2.2400 C   0  0  0  0  0  0  0  0  0  0  0  0
   -2.3880   14.6130   -2.1300 C   0  0  2  0  0  0  0  0  0  0  0  0
   -4.9630   14.0650    1.5570 C   0  0  1  0  0  0  0  0  0  0  0  0
   -3.3430   14.7460    1.9720 S   0  0  0  0  0  0  0  0  0  0  0  0
   -1.2980   14.1750   -3.0560 C   0  0  1  0  0  0  0  0  0  0  0  0
   -6.0550   14.7630    2.1050 N   0  0  0  0  0  0  0  0  0  0  0  0
   -1.5110   14.7410   -4.3380 O   0  0  0  0  0  0  0  0  0  0  0  0
   -0.1020   14.8240   -2.6460 O   0  0  0  0  0  0  0  0  0  0  0  0
  1  2  1  0
  2  3  1  0
  2  4  1  0
  2  5  1  0
  2  6  1  0
  3  7  1  0
  3  8  1  0
  4  9  1  0
  9  8  1  6
  5 10  1  0
  6 11  1  0
 10 11  1  0
  9 12  1  0
 10 13  1  6
 12 14  1  6
 12 15  1  0
M  CHG  1  15  -1
M  END
