ucsf442-ucsf380
     RDKit          3D

 21 23  0  0  0  0  0  0  0  0999 V2000
   -0.3380   15.4950    0.8820 O   0  0  0  0  0  0  0  0  0  0  0  0
   -1.4610   14.7500    0.4940 C   0  0  2  0  0  0  0  0  0  0  0  0
   -1.7190   14.8010   -0.9310 N   0  0  0  0  0  0  0  0  0  0  0  0
   -2.5650   15.3500    1.1920 N   0  0  0  0  0  0  0  0  0  0  0  0
   -1.0140   13.7360   -1.6910 C   0  0  2  0  0  0  0  0  0  0  0  0
   -3.7110   14.5030    1.0650 C   0  0  2  0  0  0  0  0  0  0  0  0
   -3.1370   15.0840   -1.2650 C   0  0  1  0  0  0  0  0  0  0  0  0
   -3.4910   14.9220   -2.6300 O   0  0  0  0  0  0  0  0  0  0  0  0
    0.5670   13.8310   -1.6440 C   0  0  2  0  0  0  0  0  0  0  0  0
   -4.1180   14.2910   -0.4020 C   0  0  2  0  0  0  0  0  0  0  0  0
   -4.8440   15.2070    1.6510 N   0  0  0  0  0  0  0  0  0  0  0  0
   -1.6460   13.2370   -3.0580 C   0  0  0  0  0  0  0  0  0  0  0  0
    1.0240   14.8490   -2.3420 O   0  0  0  0  0  0  0  0  0  0  0  0
    1.2130   12.7310   -2.2250 O   0  0  0  0  0  0  0  0  0  0  0  0
   -5.5390   14.7370   -0.4700 N   0  0  0  0  0  0  0  0  0  0  0  0
   -5.9350   14.6190    0.9140 C   0  0  0  0  0  0  0  0  0  0  0  0
   -2.6140   12.0440   -2.9080 C   0  0  0  0  0  0  0  0  0  0  0  0
   -0.5400   12.9010   -4.0980 C   0  0  0  0  0  0  0  0  0  0  0  0
   -3.1240   11.4850   -4.2390 C   0  0  0  0  0  0  0  0  0  0  0  0
   -1.1020   12.3840   -5.4200 C   0  0  0  0  0  0  0  0  0  0  0  0
   -1.9910   11.1690   -5.2070 C   0  0  0  0  0  0  0  0  0  0  0  0
  2  1  1  6
  2  3  1  0
  2  4  1  0
  3  5  1  0
  6  4  1  6
  3  7  1  0
  7  8  1  6
  5  9  1  0
  6 10  1  0
  7 10  1  0
  6 11  1  0
  5 12  1  6
  9 13  1  6
  9 14  1  0
 10 15  1  1
 11 16  1  0
 15 16  1  0
 12 17  1  0
 12 18  1  0
 17 19  1  0
 18 20  1  0
 19 21  1  0
 20 21  1  0
M  CHG  1  13  -1
M  END
