ucsf013-ucsf005
     RDKit          3D

 17 19  0  0  0  0  0  0  0  0999 V2000
   -4.2600   14.4830    1.0560 N   0  0  0  0  0  0  0  0  0  0  0  0
   -5.4240   15.0520    0.4810 C   0  0  2  0  0  0  0  0  0  0  0  0
   -6.4620   14.7270    1.4750 N   0  0  0  0  0  0  0  0  0  0  0  0
   -3.0530   15.1600    0.7140 C   0  0  2  0  0  0  0  0  0  0  0  0
   -5.9570   14.4860   -0.8480 C   0  0  1  0  0  0  0  0  0  0  0  0
   -2.7890   15.5100   -0.7980 C   0  0  2  0  0  0  0  0  0  0  0  0
   -1.9970   14.4650    1.4230 N   0  0  0  0  0  0  0  0  0  0  0  0
   -7.4110   14.4280   -0.6540 N   0  0  0  0  0  0  0  0  0  0  0  0
   -7.6290   14.2360    0.7560 C   0  0  0  0  0  0  0  0  0  0  0  0
   -5.6520   15.2550   -2.1270 C   0  0  0  0  0  0  0  0  0  0  0  0
   -3.1820   14.5490   -1.9400 C   0  0  2  0  0  0  0  0  0  0  0  0
   -0.6920   14.7450    0.9520 C   0  0  1  0  0  0  0  0  0  0  0  0
   -1.2960   15.7750   -0.9760 C   0  0  0  0  0  0  0  0  0  0  0  0
   -1.9790   14.3290   -2.8950 C   0  0  0  0  0  0  0  0  0  0  0  0
    0.0590   13.6930    1.4960 N   0  0  0  0  0  0  0  0  0  0  0  0
   -4.3200   15.0600   -2.8460 C   0  0  0  0  0  0  0  0  0  0  0  0
   -0.5670   14.6650   -0.4440 N   0  0  0  0  0  0  0  0  0  0  0  0
  2  1  1  1
  2  3  1  0
  4  1  1  6
  2  5  1  0
  4  6  1  0
  4  7  1  0
  5  8  1  0
  3  9  1  0
  8  9  1  0
  5 10  1  6
  6 11  1  0
  7 12  1  0
  6 13  1  1
 11 14  1  6
 12 15  1  1
 10 16  1  0
 11 16  1  0
 12 17  1  0
 13 17  1  0
M  END
