ucsf278-ucsf333
     RDKit          3D

 27 30  0  0  0  0  0  0  0  0999 V2000
    2.2420   12.5500   -3.0580 Cl  0  0  0  0  0  0  0  0  0  0  0  0
    2.1180   13.5510   -4.5140 C   0  0  1  0  0  0  0  0  0  0  0  0
    0.9310   13.3260   -5.4780 C   0  0  1  0  0  0  0  0  0  0  0  0
    2.1430   14.9660   -3.9400 C   0  0  0  0  0  0  0  0  0  0  0  0
    0.5880   11.9900   -6.1350 C   0  0  0  0  0  0  0  0  0  0  0  0
   -0.3560   13.5540   -4.7770 C   0  0  2  0  0  0  0  0  0  0  0  0
    0.8040   15.6380   -4.0470 C   0  0  0  0  0  0  0  0  0  0  0  0
   -0.9540   12.0100   -6.2160 C   0  0  1  0  0  0  0  0  0  0  0  0
   -1.3300   13.3540   -5.7880 N   0  0  0  0  0  0  0  0  0  0  0  0
   -0.2580   14.5890   -3.6720 C   0  0  2  0  0  0  0  0  0  0  0  0
   -1.5670   11.5220   -7.5290 C   0  0  0  0  0  0  0  0  0  0  0  0
    0.1070   13.9780   -2.2870 C   0  0  2  0  0  0  0  0  0  0  0  0
   -2.4070   10.3980   -7.3170 O   0  0  0  0  0  0  0  0  0  0  0  0
    0.8050   12.5980   -2.3990 C   0  0  0  0  0  0  0  0  0  0  0  0
   -1.0060   13.9460   -1.2730 C   0  0  2  0  0  0  0  0  0  0  0  0
   -0.0130   11.3150   -2.2230 C   0  0  2  0  0  0  0  0  0  0  0  0
   -2.2280   14.2610   -1.9920 N   0  0  0  0  0  0  0  0  0  0  0  0
   -1.0270   14.8330    0.2760 S   0  0  0  0  0  0  0  0  0  0  0  0
    0.4910   10.6190   -1.2560 O   0  0  0  0  0  0  0  0  0  0  0  0
    0.2450   10.4510   -3.3100 O   0  0  0  0  0  0  0  0  0  0  0  0
   -3.3200   14.2360   -1.0700 C   0  0  1  0  0  0  0  0  0  0  0  0
   -2.7890   14.4260    0.3850 C   0  0  2  0  0  0  0  0  0  0  0  0
   -4.2890   15.3160   -1.5560 C   0  0  0  0  0  0  0  0  0  0  0  0
   -3.6270   15.3920    1.1940 C   0  0  0  0  0  0  0  0  0  0  0  0
   -5.3880   15.6520   -0.5480 C   0  0  2  0  0  0  0  0  0  0  0  0
   -5.0780   15.1070    0.8560 C   0  0  0  0  0  0  0  0  0  0  0  0
   -6.9450   15.0140   -1.1810 Cl  0  0  0  0  0  0  0  0  0  0  0  0
  2  1  1  1
  2  3  1  0
  2  4  1  0
  3  5  1  1
  3  6  1  0
  4  7  1  0
  5  8  1  0
  6  9  1  6
  8  9  1  0
  6 10  1  0
 10  7  1  6
  8 11  1  6
 10 12  1  0
 11 13  1  0
 12 14  1  6
 12 15  1  0
 14 16  1  0
 15 17  1  6
 15 18  1  0
 16 19  1  1
 16 20  1  0
 17 21  1  0
 18 22  1  0
 21 22  1  0
 21 23  1  6
 22 24  1  6
 23 25  1  0
 24 26  1  0
 25 26  1  0
 25 27  1  6
M  CHG  1  19  -1
M  END
