ucsf487-ucsf396
     RDKit          3D

 14 15  0  0  0  0  0  0  0  0999 V2000
   -6.9470   13.4190    2.4780 N   0  0  0  0  0  0  0  0  0  0  0  0
   -6.6690   14.5340    1.5730 C   0  0  2  0  0  0  0  0  0  0  0  0
   -7.7830   14.5950    0.4830 C   0  0  0  0  0  0  0  0  0  0  0  0
   -5.2300   14.4940    0.9160 C   0  0  2  0  0  0  0  0  0  0  0  0
   -4.0570   15.1910    1.6600 C   0  0  2  0  0  0  0  0  0  0  0  0
   -5.1650   15.3390   -0.3610 C   0  0  2  0  0  0  0  0  0  0  0  0
   -7.3370   14.2230   -0.8580 N   0  0  0  0  0  0  0  0  0  0  0  0
   -3.3800   16.0650    0.7590 N   0  0  0  0  0  0  0  0  0  0  0  0
   -3.0060   14.3320    2.0230 O   0  0  0  0  0  0  0  0  0  0  0  0
   -6.2930   15.1030   -1.3790 C   0  0  2  0  0  0  0  0  0  0  0  0
   -3.7190   15.4320   -0.8680 C   0  0  0  0  0  0  0  0  0  0  0  0
   -5.7950   14.5720   -2.7380 C   0  0  0  0  0  0  0  0  0  0  0  0
   -3.3920   14.5260   -1.9810 C   0  0  0  0  0  0  0  0  0  0  0  0
   -4.3280   14.8210   -3.1050 C   0  0  0  0  0  0  0  0  0  0  0  0
  2  1  1  6
  2  3  1  0
  2  4  1  0
  4  5  1  1
  4  6  1  0
  3  7  1  0
  5  8  1  6
  5  9  1  0
  6 10  1  0
  7 10  1  0
  6 11  1  6
 10 12  1  6
 11 13  1  0
 12 14  1  0
 13 14  1  0
M  END
