ucsf364-ucsf030
     RDKit          3D

 28 31  0  0  0  0  0  0  0  0999 V2000
    2.3510   12.9910   -4.7250 C   0  0  0  0  0  0  0  0  0  0  0  0
    0.8550   12.7530   -5.0310 C   0  0  1  0  0  0  0  0  0  0  0  0
    0.6020   12.1220   -6.3930 C   0  0  1  0  0  0  0  0  0  0  0  0
    0.1330   11.9430   -3.9010 C   0  0  1  0  0  0  0  0  0  0  0  0
    1.8070   11.7190   -7.0070 O   0  0  0  0  0  0  0  0  0  0  0  0
    0.4110   12.5400   -2.5020 C   0  0  1  0  0  0  0  0  0  0  0  0
   -1.3700   11.7170   -4.1990 C   0  0  0  0  0  0  0  0  0  0  0  0
   -0.3790   10.9590   -6.3870 C   0  0  0  0  0  0  0  0  0  0  0  0
   -0.4110   11.9140   -1.5490 O   0  0  0  0  0  0  0  0  0  0  0  0
    1.6100   12.2970   -2.0570 O   0  0  0  0  0  0  0  0  0  0  0  0
   -1.6470   11.2780   -5.6280 C   0  0  0  0  0  0  0  0  0  0  0  0
    0.0540   13.9670   -2.2280 C   0  0  2  0  0  0  0  0  0  0  0  0
   -0.3440   15.1880   -3.1570 C   0  0  0  0  0  0  0  0  0  0  0  0
    1.0180   15.0100   -1.7160 C   0  0  0  0  0  0  0  0  0  0  0  0
    0.7630   15.6170   -4.1770 C   0  0  0  0  0  0  0  0  0  0  0  0
   -0.2480   15.7910   -1.7890 N   0  0  0  0  0  0  0  0  0  0  0  0
   -1.7740   15.2370   -3.7210 C   0  0  0  0  0  0  0  0  0  0  0  0
   -1.0580   15.0960   -0.7950 C   0  0  2  0  0  0  0  0  0  0  0  0
    0.4240   16.9830   -4.7740 C   0  0  0  0  0  0  0  0  0  0  0  0
   -1.7000   15.6570   -5.1600 C   0  0  0  0  0  0  0  0  0  0  0  0
   -2.4990   15.5640   -0.5540 C   0  0  1  0  0  0  0  0  0  0  0  0
   -0.3230   15.2260    0.4620 N   0  0  0  0  0  0  0  0  0  0  0  0
   -1.0200   17.0180   -5.2830 C   0  0  0  0  0  0  0  0  0  0  0  0
   -3.7280   14.6670   -1.5520 Cl  0  0  0  0  0  0  0  0  0  0  0  0
   -2.7430   15.4060    0.9590 C   0  0  1  0  0  0  0  0  0  0  0  0
   -0.6900   14.1950    1.3720 C   0  0  0  0  0  0  0  0  0  0  0  0
   -4.1430   15.3190    1.3570 N   0  0  0  0  0  0  0  0  0  0  0  0
   -2.1280   14.2430    1.5730 N   0  0  0  0  0  0  0  0  0  0  0  0
  2  1  1  1
  2  3  1  0
  2  4  1  0
  3  5  1  1
  4  6  1  0
  4  7  1  6
  3  8  1  0
  6  9  1  1
  6 10  1  0
  7 11  1  0
  8 11  1  0
  6 12  1  0
 12 13  1  0
 12 14  1  6
 13 15  1  0
 13 16  1  0
 14 16  1  0
 13 17  1  0
 18 16  1  6
 15 19  1  0
 17 20  1  0
 18 21  1  0
 18 22  1  0
 19 23  1  0
 20 23  1  0
 21 24  1  6
 21 25  1  0
 22 26  1  0
 25 27  1  6
 25 28  1  0
 26 28  1  0
M  CHG  1  10  -1
M  END
