ucsf110-ucsf404
     RDKit          3D

 17 19  0  0  0  0  0  0  0  0999 V2000
   -0.4620   15.1730   -2.9240 C   0  0  0  0  0  0  0  0  0  0  0  0
   -1.7010   15.3940   -2.2760 N   0  0  0  0  0  0  0  0  0  0  0  0
   -2.8160   14.7350   -2.7380 C   0  0  0  0  0  0  0  0  0  0  0  0
   -1.7330   15.4230   -0.8700 C   0  0  1  0  0  0  0  0  0  0  0  0
   -3.6970   15.4500   -1.8230 C   0  0  2  0  0  0  0  0  0  0  0  0
   -3.1920   15.0530   -0.0300 S   0  0  0  0  0  0  0  0  0  0  0  0
   -0.4810   15.0410   -0.5570 N   0  0  0  0  0  0  0  0  0  0  0  0
   -5.2990   15.2150   -2.2290 Cl  0  0  0  0  0  0  0  0  0  0  0  0
   -1.8600   14.3210    0.9260 C   0  0  2  0  0  0  0  0  0  0  0  0
    0.0380   15.6070    0.6110 C   0  0  0  0  0  0  0  0  0  0  0  0
   -4.5430   13.8620    0.2460 C   0  0  0  0  0  0  0  0  0  0  0  0
   -4.5170   15.8730    1.2370 S   0  0  0  0  0  0  0  0  0  0  0  0
   -2.8410   13.8820    1.8630 N   0  0  0  0  0  0  0  0  0  0  0  0
   -0.7920   14.8750    1.4920 N   0  0  0  0  0  0  0  0  0  0  0  0
   -5.6120   14.6240    1.7070 C   0  0  2  0  0  0  0  0  0  0  0  0
   -5.8840   14.3840    0.4000 N   0  0  0  0  0  0  0  0  0  0  0  0
   -6.6980   14.9280    2.6200 N   0  0  0  0  0  0  0  0  0  0  0  0
  1  2  1  0
  2  3  1  0
  2  4  1  0
  3  5  1  0
  4  6  1  0
  5  6  1  0
  4  7  1  1
  5  8  1  1
  6  9  1  0
  7 10  1  0
  6 11  1  0
  6 12  1  0
  9 13  1  1
  9 14  1  0
 10 14  1  0
 12 15  1  0
 11 16  1  0
 15 16  1  0
 15 17  1  1
M  END
