ucsf392-ucsf264
     RDKit          3D

 28 30  0  0  0  0  0  0  0  0999 V2000
   -5.4660   15.2190   -0.7200 C   0  0  0  0  0  0  0  0  0  0  0  0
   -3.9780   15.4900   -0.5860 C   0  0  2  0  0  0  0  0  0  0  0  0
   -3.1400   14.4780   -1.3210 C   0  0  0  0  0  0  0  0  0  0  0  0
   -3.5100   15.7160    0.8700 C   0  0  1  0  0  0  0  0  0  0  0  0
   -4.5500   15.5300    1.8510 N   0  0  0  0  0  0  0  0  0  0  0  0
   -2.3200   14.9900    1.3100 N   0  0  0  0  0  0  0  0  0  0  0  0
   -1.7770   14.8010   -1.0100 N   0  0  0  0  0  0  0  0  0  0  0  0
   -1.4810   14.3310    0.3080 C   0  0  1  0  0  0  0  0  0  0  0  0
    0.0070   14.5660    0.5370 C   0  0  0  0  0  0  0  0  0  0  0  0
    0.7830   14.4380   -0.7930 C   0  0  0  0  0  0  0  0  0  0  0  0
    0.0850   13.5790   -1.8380 C   0  0  0  0  0  0  0  0  0  0  0  0
    0.9920   12.6960   -2.4960 O   0  0  0  0  0  0  0  0  0  0  0  0
    0.3210   11.9990   -3.5390 C   0  0  2  0  0  0  0  0  0  0  0  0
    0.5550   10.6170   -3.2990 O   0  0  0  0  0  0  0  0  0  0  0  0
    0.8560   12.4570   -4.9300 C   0  0  0  0  0  0  0  0  0  0  0  0
   -0.0280   12.2200   -6.1060 N   0  0  0  0  0  0  0  0  0  0  0  0
    0.7190   12.0550   -7.3550 N   0  0  0  0  0  0  0  0  0  0  0  0
   -1.0050   11.1210   -6.1860 C   0  0  1  0  0  0  0  0  0  0  0  0
    0.8270   10.6210   -7.7080 C   0  0  1  0  0  0  0  0  0  0  0  0
   -0.3420    9.9900   -6.9490 C   0  0  2  0  0  0  0  0  0  0  0  0
   -1.7740   10.5350   -5.0070 C   0  0  0  0  0  0  0  0  0  0  0  0
    0.9610   10.2750   -9.2040 C   0  0  0  0  0  0  0  0  0  0  0  0
   -1.4300    9.1780   -7.6360 C   0  0  0  0  0  0  0  0  0  0  0  0
   -2.8660    9.5690   -5.5180 C   0  0  0  0  0  0  0  0  0  0  0  0
    1.6210    9.0950   -9.3420 F   0  0  0  0  0  0  0  0  0  0  0  0
   -0.2140   10.1510   -9.8410 F   0  0  0  0  0  0  0  0  0  0  0  0
    1.6610   11.1860   -9.9000 F   0  0  0  0  0  0  0  0  0  0  0  0
   -2.3920    8.5760   -6.5950 C   0  0  0  0  0  0  0  0  0  0  0  0
  2  1  1  1
  2  3  1  0
  2  4  1  0
  4  5  1  1
  4  6  1  0
  3  7  1  0
  6  8  1  0
  7  8  1  0
  8  9  1  1
  9 10  1  0
 10 11  1  0
 11 12  1  0
 12 13  1  0
 13 14  1  1
 13 15  1  0
 15 16  1  0
 16 17  1  0
 16 18  1  0
 17 19  1  0
 18 20  1  0
 19 20  1  0
 18 21  1  1
 19 22  1  6
 20 23  1  6
 21 24  1  0
 22 25  1  0
 22 26  1  0
 22 27  1  0
 23 28  1  0
 24 28  1  0
M  END
