ucsf241-ucsf005
     RDKit          3D

 11 12  0  0  0  0  0  0  0  0999 V2000
   -3.2190   15.2070   -3.1100 C   0  0  0  0  0  0  0  0  0  0  0  0
   -3.1890   14.8770   -1.6160 C   0  0  2  0  0  0  0  0  0  0  0  0
   -4.3240   15.4790   -0.7650 C   0  0  0  0  0  0  0  0  0  0  0  0
   -1.9470   15.4500   -0.9750 C   0  0  1  0  0  0  0  0  0  0  0  0
   -2.3070   15.5820    0.4720 C   0  0  1  0  0  0  0  0  0  0  0  0
   -3.7390   15.8670    0.5240 N   0  0  0  0  0  0  0  0  0  0  0  0
   -0.6380   14.7230   -1.2370 C   0  0  0  0  0  0  0  0  0  0  0  0
    0.1720   14.5550    0.0500 C   0  0  0  0  0  0  0  0  0  0  0  0
   -2.1000   14.3420    1.1000 N   0  0  0  0  0  0  0  0  0  0  0  0
   -2.9140   14.4270    2.2850 N   0  0  0  0  0  0  0  0  0  0  0  0
   -0.6520   14.1560    1.2900 C   0  0  0  0  0  0  0  0  0  0  0  0
  2  1  1  6
  2  3  1  0
  2  4  1  0
  4  5  1  0
  3  6  1  0
  5  6  1  6
  4  7  1  1
  7  8  1  0
  5  9  1  0
  9 10  1  0
  8 11  1  0
  9 11  1  0
M  END
