ucsf213-ucsf487
     RDKit          3D

 26 29  0  0  0  0  0  0  0  0999 V2000
    0.4400   10.7910   -2.3310 O   0  0  0  0  0  0  0  0  0  0  0  0
    0.2290   12.0930   -2.5780 C   0  0  1  0  0  0  0  0  0  0  0  0
    0.5390   12.6160   -1.2990 O   0  0  0  0  0  0  0  0  0  0  0  0
    1.2620   12.6540   -3.6250 C   0  0  0  0  0  0  0  0  0  0  0  0
    0.8220   13.7770   -4.6230 C   0  0  2  0  0  0  0  0  0  0  0  0
    1.1700   15.2040   -4.1340 C   0  0  0  0  0  0  0  0  0  0  0  0
   -0.9530   13.8950   -5.1470 S   0  0  0  0  0  0  0  0  0  0  0  0
    0.2890   16.1430   -4.9590 C   0  0  1  0  0  0  0  0  0  0  0  0
   -1.1390   15.6660   -4.7340 C   0  0  2  0  0  0  0  0  0  0  0  0
   -1.6030   15.6590   -3.2840 C   0  0  0  0  0  0  0  0  0  0  0  0
    0.4040   17.6460   -4.7710 C   0  0  0  0  0  0  0  0  0  0  0  0
   -2.2590   16.4740   -5.4640 C   0  0  0  0  0  0  0  0  0  0  0  0
   -2.8260   14.7600   -3.0520 C   0  0  0  0  0  0  0  0  0  0  0  0
   -0.4490   18.3300   -5.8340 C   0  0  0  0  0  0  0  0  0  0  0  0
   -1.9250   17.9430   -5.8170 C   0  0  0  0  0  0  0  0  0  0  0  0
   -3.7760   15.3750   -2.0260 C   0  0  1  0  0  0  0  0  0  0  0  0
   -5.1810   14.6850   -2.0730 C   0  0  0  0  0  0  0  0  0  0  0  0
   -2.9720   15.4390   -0.7100 C   0  0  0  0  0  0  0  0  0  0  0  0
   -5.8650   14.4550   -0.7220 C   0  0  1  0  0  0  0  0  0  0  0  0
   -3.6120   14.6900    0.4090 C   0  0  0  0  0  0  0  0  0  0  0  0
   -5.0810   15.0390    0.4500 C   0  0  2  0  0  0  0  0  0  0  0  0
   -7.2470   14.9550   -0.7120 N   0  0  0  0  0  0  0  0  0  0  0  0
   -5.6860   14.5870    1.7700 C   0  0  0  0  0  0  0  0  0  0  0  0
   -7.9720   14.6320    0.5290 C   0  0  0  0  0  0  0  0  0  0  0  0
   -7.1200   14.0350    1.6760 C   0  0  2  0  0  0  0  0  0  0  0  0
   -7.7410   14.1870    2.9870 N   0  0  0  0  0  0  0  0  0  0  0  0
  2  1  1  1
  2  3  1  0
  2  4  1  0
  5  4  1  1
  5  6  1  0
  5  7  1  0
  8  6  1  1
  7  9  1  0
  8  9  1  0
  9 10  1  1
  8 11  1  0
  9 12  1  0
 10 13  1  0
 11 14  1  0
 12 15  1  0
 14 15  1  0
 16 13  1  6
 16 17  1  0
 16 18  1  0
 19 17  1  6
 18 20  1  0
 19 21  1  0
 21 20  1  6
 19 22  1  0
 21 23  1  0
 22 24  1  0
 23 25  1  0
 24 25  1  0
 25 26  1  1
M  CHG  1   1  -1
M  END
