ucsf213-ucsf333
     RDKit          3D

 24 27  0  0  0  0  0  0  0  0999 V2000
   -0.6990   11.4940   -2.7500 O   0  0  0  0  0  0  0  0  0  0  0  0
    0.5350   11.8340   -2.5200 C   0  0  2  0  0  0  0  0  0  0  0  0
    0.3950   12.3430   -1.2060 O   0  0  0  0  0  0  0  0  0  0  0  0
    1.1020   13.0000   -3.3990 C   0  0  2  0  0  0  0  0  0  0  0  0
    1.4050   14.2910   -2.6060 C   0  0  0  0  0  0  0  0  0  0  0  0
    0.2320   13.4800   -4.5790 C   0  0  2  0  0  0  0  0  0  0  0  0
    0.9080   14.7180   -5.1850 C   0  0  0  0  0  0  0  0  0  0  0  0
   -1.5080   13.9470   -4.2270 S   0  0  0  0  0  0  0  0  0  0  0  0
    0.1590   15.0590   -2.1280 C   0  0  1  0  0  0  0  0  0  0  0  0
   -0.0100   15.9290   -5.2790 C   0  0  1  0  0  0  0  0  0  0  0  0
   -1.4840   15.5020   -5.1360 C   0  0  2  0  0  0  0  0  0  0  0  0
   -1.1280   14.6620   -2.6890 N   0  0  0  0  0  0  0  0  0  0  0  0
   -0.1390   14.8030   -0.3650 S   0  0  0  0  0  0  0  0  0  0  0  0
    0.3380   17.1360   -4.4300 C   0  0  0  0  0  0  0  0  0  0  0  0
   -2.3400   16.6520   -4.6470 C   0  0  0  0  0  0  0  0  0  0  0  0
   -2.1850   15.4230   -2.0190 C   0  0  2  0  0  0  0  0  0  0  0  0
   -1.7890   15.5510   -0.5250 C   0  0  1  0  0  0  0  0  0  0  0  0
   -0.5030   18.3110   -4.8870 C   0  0  0  0  0  0  0  0  0  0  0  0
   -1.8840   17.9140   -5.3800 C   0  0  0  0  0  0  0  0  0  0  0  0
   -3.6500   15.0480   -2.3610 C   0  0  0  0  0  0  0  0  0  0  0  0
   -2.7720   14.9630    0.4740 C   0  0  0  0  0  0  0  0  0  0  0  0
   -4.6260   14.8010   -1.2040 C   0  0  1  0  0  0  0  0  0  0  0  0
   -4.1940   15.3550    0.1540 C   0  0  0  0  0  0  0  0  0  0  0  0
   -6.2500   15.4580   -1.6190 Cl  0  0  0  0  0  0  0  0  0  0  0  0
  2  1  1  6
  2  3  1  0
  2  4  1  0
  4  5  1  1
  4  6  1  0
  6  7  1  1
  6  8  1  0
  9  5  1  6
 10  7  1  1
  8 11  1  0
 10 11  1  0
  9 12  1  0
  9 13  1  0
 10 14  1  0
 11 15  1  1
 12 16  1  0
 13 17  1  0
 16 17  1  0
 14 18  1  0
 15 19  1  0
 18 19  1  0
 16 20  1  1
 17 21  1  1
 20 22  1  0
 21 23  1  0
 22 23  1  0
 22 24  1  6
M  CHG  1   1  -1
M  END
