ucsf487-ucsf039
     RDKit          3D

 26 30  0  0  0  0  0  0  0  0999 V2000
   -7.4380   13.5730    3.0770 N   0  0  0  0  0  0  0  0  0  0  0  0
   -6.9570   14.4290    1.9950 C   0  0  2  0  0  0  0  0  0  0  0  0
   -7.8990   14.3000    0.7940 C   0  0  0  0  0  0  0  0  0  0  0  0
   -5.4630   14.1280    1.7050 C   0  0  0  0  0  0  0  0  0  0  0  0
   -4.9620   13.9920    0.2280 C   0  0  1  0  0  0  0  0  0  0  0  0
   -7.2920   14.8400   -0.3910 N   0  0  0  0  0  0  0  0  0  0  0  0
   -6.1650   14.0060   -0.7830 C   0  0  1  0  0  0  0  0  0  0  0  0
   -3.6510   14.8180   -0.1310 C   0  0  2  0  0  0  0  0  0  0  0  0
   -3.8590   16.1320    0.5420 N   0  0  0  0  0  0  0  0  0  0  0  0
   -5.8900   14.3750   -2.2390 C   0  0  0  0  0  0  0  0  0  0  0  0
   -3.5670   15.0070   -1.6470 C   0  0  1  0  0  0  0  0  0  0  0  0
   -2.2150   14.3590    0.2960 C   0  0  1  0  0  0  0  0  0  0  0  0
   -4.8300   15.3930   -2.3460 C   0  0  0  0  0  0  0  0  0  0  0  0
   -2.3890   15.8560   -2.0290 C   0  0  0  0  0  0  0  0  0  0  0  0
   -1.2190   14.1190   -0.9120 C   0  0  1  0  0  0  0  0  0  0  0  0
   -1.4080   15.2650    1.0760 N   0  0  0  0  0  0  0  0  0  0  0  0
   -1.1430   15.1470   -1.9770 N   0  0  0  0  0  0  0  0  0  0  0  0
    0.0970   14.1170   -0.2600 N   0  0  0  0  0  0  0  0  0  0  0  0
   -0.0730   14.7580    1.0330 C   0  0  0  0  0  0  0  0  0  0  0  0
   -0.7390   14.6250   -3.3070 C   0  0  0  0  0  0  0  0  0  0  0  0
   -0.3320   15.6600   -4.4130 C   0  0  2  0  0  0  0  0  0  0  0  0
    0.8440   16.5350   -4.0070 C   0  0  0  0  0  0  0  0  0  0  0  0
   -1.4310   16.5530   -4.8830 N   0  0  0  0  0  0  0  0  0  0  0  0
   -0.8940   17.8960   -5.1820 C   0  0  1  0  0  0  0  0  0  0  0  0
    0.8920   17.7600   -5.3260 S   0  0  0  0  0  0  0  0  0  0  0  0
   -1.4880   18.4710   -6.4550 C   0  0  0  0  0  0  0  0  0  0  0  0
  2  1  1  1
  2  3  1  0
  2  4  1  0
  5  4  1  1
  3  6  1  0
  5  7  1  0
  6  7  1  0
  5  8  1  0
  8  9  1  1
  7 10  1  6
  8 11  1  0
  8 12  1  0
 10 13  1  0
 11 13  1  1
 11 14  1  0
 12 15  1  0
 12 16  1  1
 14 17  1  0
 15 17  1  0
 15 18  1  1
 16 19  1  0
 18 19  1  0
 17 20  1  0
 21 20  1  1
 21 22  1  0
 21 23  1  0
 23 24  1  0
 22 25  1  0
 24 25  1  0
 24 26  1  6
M  END
