ucsf151-ucsf303
     RDKit          3D

 25 27  0  0  0  0  0  0  0  0999 V2000
    0.8300   12.8470   -2.3480 O   0  0  0  0  0  0  0  0  0  0  0  0
    0.0400   13.8980   -2.3840 C   0  0  1  0  0  0  0  0  0  0  0  0
    0.9070   14.8700   -2.9530 O   0  0  0  0  0  0  0  0  0  0  0  0
   -1.2270   13.6540   -3.2920 C   0  0  1  0  0  0  0  0  0  0  0  0
   -1.8380   14.9630   -3.8650 C   0  0  2  0  0  0  0  0  0  0  0  0
   -0.9670   12.6230   -4.4170 C   0  0  0  0  0  0  0  0  0  0  0  0
   -2.7790   15.5000   -2.9370 O   0  0  0  0  0  0  0  0  0  0  0  0
   -2.7610   14.8330   -5.1000 C   0  0  1  0  0  0  0  0  0  0  0  0
   -2.1850   12.3720   -5.1870 N   0  0  0  0  0  0  0  0  0  0  0  0
   -2.6500   16.0200   -5.9050 O   0  0  0  0  0  0  0  0  0  0  0  0
   -4.0260   14.7250   -2.2710 S   0  0  1  0  0  0  0  0  0  0  0  0
   -2.5580   13.5650   -5.9350 C   0  0  0  0  0  0  0  0  0  0  0  0
   -5.2180   15.7660   -2.2320 O   0  0  0  0  0  0  0  0  0  0  0  0
   -4.5810   13.2860   -2.8730 N   0  0  0  0  0  0  0  0  0  0  0  0
   -3.6010   14.5880   -0.5690 C   0  0  0  0  0  0  0  0  0  0  0  0
   -4.6180   12.1480   -1.9850 C   0  0  1  0  0  0  0  0  0  0  0  0
   -2.0980   14.4140   -0.3410 C   0  0  0  0  0  0  0  0  0  0  0  0
   -4.2180   15.6910    0.2770 C   0  0  0  0  0  0  0  0  0  0  0  0
   -5.7690   11.2870   -2.2430 N   0  0  0  0  0  0  0  0  0  0  0  0
   -3.1380   11.1900   -2.4000 S   0  0  0  0  0  0  0  0  0  0  0  0
   -1.7920   14.6280    1.1230 C   0  0  0  0  0  0  0  0  0  0  0  0
   -4.2370   15.2630    1.7000 C   0  0  0  0  0  0  0  0  0  0  0  0
   -4.0510    9.6400   -2.3890 C   0  0  0  0  0  0  0  0  0  0  0  0
   -5.4170    9.8830   -1.9190 N   0  0  0  0  0  0  0  0  0  0  0  0
   -3.0520   14.3550    1.9510 C   0  0  0  0  0  0  0  0  0  0  0  0
  2  1  1  6
  2  3  1  0
  2  4  1  0
  4  5  1  0
  4  6  1  6
  5  7  1  1
  5  8  1  0
  6  9  1  0
  8 10  1  6
 11  7  1  0
  8 12  1  0
  9 12  1  0
 11 13  1  1
 11 14  1  0
 11 15  1  0
 16 14  1  6
 15 17  1  0
 15 18  1  0
 16 19  1  0
 16 20  1  0
 17 21  1  0
 18 22  1  0
 20 23  1  0
 19 24  1  0
 23 24  1  0
 21 25  1  0
 22 25  1  0
M  CHG  1   1  -1
M  END
