ucsf365-ucsf340
     RDKit          3D

 22 24  0  0  0  0  0  0  0  0999 V2000
   -0.0350   11.5500   -1.7470 O   0  0  0  0  0  0  0  0  0  0  0  0
    0.7780   12.0680   -2.6490 C   0  0  2  0  0  0  0  0  0  0  0  0
    1.8980   12.6000   -1.9720 O   0  0  0  0  0  0  0  0  0  0  0  0
    0.1710   13.2540   -3.4730 C   0  0  1  0  0  0  0  0  0  0  0  0
    0.9470   14.6200   -3.4920 C   0  0  0  0  0  0  0  0  0  0  0  0
   -0.4230   12.8070   -4.8460 C   0  0  1  0  0  0  0  0  0  0  0  0
   -1.4630   11.6850   -4.9940 C   0  0  1  0  0  0  0  0  0  0  0  0
   -0.8460   13.9150   -5.7410 C   0  0  0  0  0  0  0  0  0  0  0  0
    0.2680   15.9910   -3.7440 C   0  0  1  0  0  0  0  0  0  0  0  0
   -1.1010   10.4690   -4.3620 O   0  0  0  0  0  0  0  0  0  0  0  0
   -2.8920   12.0480   -4.6330 C   0  0  0  0  0  0  0  0  0  0  0  0
   -2.3130   13.9180   -6.2120 C   0  0  0  0  0  0  0  0  0  0  0  0
    1.0540   17.0400   -4.5210 C   0  0  0  0  0  0  0  0  0  0  0  0
   -0.9490   15.9390   -4.6750 C   0  0  2  0  0  0  0  0  0  0  0  0
   -3.3580   13.3180   -5.2980 C   0  0  0  0  0  0  0  0  0  0  0  0
    0.0780   17.9830   -5.0910 N   0  0  0  0  0  0  0  0  0  0  0  0
   -1.2520   17.4110   -4.9790 C   0  0  1  0  0  0  0  0  0  0  0  0
   -2.1450   15.1900   -4.1180 C   0  0  0  0  0  0  0  0  0  0  0  0
    0.4920   18.5530   -6.3540 C   0  0  0  0  0  0  0  0  0  0  0  0
   -3.4170   15.7090   -4.7270 C   0  0  0  0  0  0  0  0  0  0  0  0
   -2.2210   17.5560   -6.1340 C   0  0  0  0  0  0  0  0  0  0  0  0
   -3.2620   16.4150   -6.0910 C   0  0  0  0  0  0  0  0  0  0  0  0
  2  1  1  1
  2  3  1  0
  2  4  1  0
  4  5  1  6
  4  6  1  0
  6  7  1  0
  6  8  1  1
  9  5  1  6
  7 10  1  1
  7 11  1  0
  8 12  1  0
  9 13  1  0
  9 14  1  0
 11 15  1  0
 12 15  1  0
 13 16  1  0
 14 17  1  0
 16 17  1  0
 14 18  1  1
 16 19  1  0
 18 20  1  0
 17 21  1  6
 20 22  1  0
 21 22  1  0
M  CHG  1   1  -1
M  END
