ucsf109-ucsf516
     RDKit          3D

 30 36  0  0  0  0  0  0  0  0999 V2000
   -4.1560   13.2420    1.8910 N   0  0  0  0  0  0  0  0  0  0  0  0
   -5.1960   14.0270    1.2880 C   0  0  1  0  0  0  0  0  0  0  0  0
   -4.9000   14.5280   -0.1170 C   0  0  2  0  0  0  0  0  0  0  0  0
   -6.4210   13.2590    1.3030 N   0  0  0  0  0  0  0  0  0  0  0  0
   -7.4270   13.5350    0.2700 C   0  0  2  0  0  0  0  0  0  0  0  0
   -5.5100   13.7330   -1.2520 C   0  0  1  0  0  0  0  0  0  0  0  0
   -3.7280   15.3260   -0.5750 C   0  0  2  0  0  0  0  0  0  0  0  0
   -7.1630   13.3610    2.5430 N   0  0  0  0  0  0  0  0  0  0  0  0
   -6.9590   13.8020   -1.0900 N   0  0  0  0  0  0  0  0  0  0  0  0
   -4.8690   14.3490   -2.4930 C   0  0  0  0  0  0  0  0  0  0  0  0
   -4.3880   15.7040   -1.9290 C   0  0  0  0  0  0  0  0  0  0  0  0
   -8.1230   14.6650    0.8120 N   0  0  0  0  0  0  0  0  0  0  0  0
   -8.0200   14.5200    2.2670 C   0  0  0  0  0  0  0  0  0  0  0  0
   -2.2210   15.4680   -0.3940 C   0  0  1  0  0  0  0  0  0  0  0  0
   -3.9350   16.2250    0.6180 C   0  0  0  0  0  0  0  0  0  0  0  0
   -2.0070   15.2720    1.0870 C   0  0  1  0  0  0  0  0  0  0  0  0
   -1.0200   14.9570   -1.2840 C   0  0  2  0  0  0  0  0  0  0  0  0
   -3.3180   15.4080    1.6580 N   0  0  0  0  0  0  0  0  0  0  0  0
   -1.2410   14.4420   -2.6800 N   0  0  0  0  0  0  0  0  0  0  0  0
   -0.2160   13.9700   -0.5230 N   0  0  0  0  0  0  0  0  0  0  0  0
   -1.4240   14.0730    1.4760 N   0  0  0  0  0  0  0  0  0  0  0  0
    0.0110   14.4260   -3.4810 C   0  0  1  0  0  0  0  0  0  0  0  0
   -2.1030   15.2520   -3.5890 C   0  0  0  0  0  0  0  0  0  0  0  0
   -0.1270   14.1270    0.9170 C   0  0  0  0  0  0  0  0  0  0  0  0
    0.9620   13.3740   -2.9950 C   0  0  0  0  0  0  0  0  0  0  0  0
   -0.3760   14.3760   -4.9640 C   0  0  0  0  0  0  0  0  0  0  0  0
   -1.8810   14.6060   -4.9490 C   0  0  0  0  0  0  0  0  0  0  0  0
    1.6230   12.4610   -4.0510 C   0  0  0  0  0  0  0  0  0  0  0  0
    0.3570   12.0540   -2.4200 C   0  0  0  0  0  0  0  0  0  0  0  0
    0.3620   11.5660   -3.8710 C   0  0  0  0  0  0  0  0  0  0  0  0
  2  1  1  6
  3  2  1  1
  2  4  1  0
  4  5  1  0
  3  6  1  0
  3  7  1  0
  4  8  1  0
  5  9  1  6
  6  9  1  0
  6 10  1  6
  7 11  1  6
 10 11  1  0
  5 12  1  0
  8 13  1  0
 12 13  1  0
  7 14  1  0
  7 15  1  0
 14 16  1  0
 14 17  1  6
 15 18  1  0
 16 18  1  1
 17 19  1  6
 17 20  1  0
 16 21  1  0
 19 22  1  0
 19 23  1  0
 20 24  1  0
 21 24  1  0
 22 25  1  1
 22 26  1  0
 23 27  1  0
 26 27  1  0
 25 28  1  0
 25 29  1  0
 28 30  1  0
 29 30  1  0
M  END
