ucsf110-ucsf519
     RDKit          3D

 18 19  0  0  0  0  0  0  0  0999 V2000
   -0.2990   14.9870   -3.5790 C   0  0  2  0  0  0  0  0  0  0  0  0
    0.0330   16.2620   -4.3700 C   0  0  0  0  0  0  0  0  0  0  0  0
   -0.5780   13.4740   -4.5970 S   0  0  0  0  0  0  0  0  0  0  0  0
   -1.3480   15.2810   -2.5700 N   0  0  0  0  0  0  0  0  0  0  0  0
    1.0030   12.5470   -4.4580 C   0  0  0  0  0  0  0  0  0  0  0  0
   -2.6930   14.9020   -2.9540 C   0  0  1  0  0  0  0  0  0  0  0  0
   -1.2730   14.6900   -1.2530 C   0  0  2  0  0  0  0  0  0  0  0  0
    1.3190   12.0110   -3.0350 C   0  0  1  0  0  0  0  0  0  0  0  0
   -3.5410   15.1220   -1.6830 C   0  0  0  0  0  0  0  0  0  0  0  0
   -2.4760   15.3190   -0.6040 C   0  0  1  0  0  0  0  0  0  0  0  0
   -0.0620   15.1180   -0.5860 N   0  0  0  0  0  0  0  0  0  0  0  0
   -3.1270   15.7170   -4.0180 O   0  0  0  0  0  0  0  0  0  0  0  0
    0.8850   12.8990   -2.0420 O   0  0  0  0  0  0  0  0  0  0  0  0
    0.5840   10.9410   -2.7540 O   0  0  0  0  0  0  0  0  0  0  0  0
   -2.6510   14.6730    0.7510 C   0  0  2  0  0  0  0  0  0  0  0  0
   -0.3340   15.4450    0.7990 C   0  0  0  0  0  0  0  0  0  0  0  0
   -3.5570   15.3800    1.6290 N   0  0  0  0  0  0  0  0  0  0  0  0
   -1.3590   14.5800    1.4040 N   0  0  0  0  0  0  0  0  0  0  0  0
  1  2  1  6
  1  3  1  0
  1  4  1  0
  3  5  1  0
  4  6  1  0
  4  7  1  0
  5  8  1  0
  6  9  1  0
  7 10  1  0
 10  9  1  6
  7 11  1  1
  6 12  1  6
  8 13  1  1
  8 14  1  0
 10 15  1  0
 11 16  1  0
 15 17  1  1
 15 18  1  0
 16 18  1  0
M  CHG  1  14  -1
M  END
