ucsf260-ucsf147
     RDKit          3D

 27 31  0  0  0  0  0  0  0  0999 V2000
    0.9210   10.9960   -2.8150 O   0  0  0  0  0  0  0  0  0  0  0  0
    0.5250   12.2380   -3.0060 C   0  0  1  0  0  0  0  0  0  0  0  0
    1.0760   13.0760   -2.0010 O   0  0  0  0  0  0  0  0  0  0  0  0
    0.9680   12.8470   -4.3670 C   0  0  1  0  0  0  0  0  0  0  0  0
    0.6090   12.0470   -5.5890 C   0  0  0  0  0  0  0  0  0  0  0  0
    0.2960   14.3000   -1.8810 C   0  0  1  0  0  0  0  0  0  0  0  0
    0.3780   14.2210   -4.4830 C   0  0  1  0  0  0  0  0  0  0  0  0
    1.1200   15.2400   -1.4860 O   0  0  0  0  0  0  0  0  0  0  0  0
   -0.4670   11.0810   -5.4110 N   0  0  0  0  0  0  0  0  0  0  0  0
   -0.6290   14.3120   -5.5060 O   0  0  0  0  0  0  0  0  0  0  0  0
   -0.2660   14.7860   -3.2400 C   0  0  1  0  0  0  0  0  0  0  0  0
   -1.7820   11.6660   -5.5650 C   0  0  0  0  0  0  0  0  0  0  0  0
   -0.3530   10.0520   -6.3910 C   0  0  1  0  0  0  0  0  0  0  0  0
   -1.8950   14.0150   -4.8250 N   0  0  0  0  0  0  0  0  0  0  0  0
   -1.7800   14.8160   -3.5790 C   0  0  1  0  0  0  0  0  0  0  0  0
   -2.6450   10.6470   -6.1910 N   0  0  0  0  0  0  0  0  0  0  0  0
   -1.7600    9.5600   -6.5950 C   0  0  1  0  0  0  0  0  0  0  0  0
    0.3440   10.6030   -7.6370 C   0  0  0  0  0  0  0  0  0  0  0  0
   -2.8410   14.3360   -2.5540 C   0  0  0  0  0  0  0  0  0  0  0  0
   -1.9650    9.0870   -8.0210 C   0  0  0  0  0  0  0  0  0  0  0  0
    0.4630    9.5050   -8.6760 C   0  0  0  0  0  0  0  0  0  0  0  0
   -2.3350   14.3400   -1.0960 C   0  0  0  0  0  0  0  0  0  0  0  0
   -4.0950   15.2240   -2.7510 C   0  0  0  0  0  0  0  0  0  0  0  0
   -0.6670    8.4760   -8.5570 C   0  0  0  0  0  0  0  0  0  0  0  0
   -3.4400   14.3620   -0.0380 C   0  0  0  0  0  0  0  0  0  0  0  0
   -5.1190   15.2950   -1.6190 C   0  0  0  0  0  0  0  0  0  0  0  0
   -4.4810   15.4360   -0.2580 C   0  0  0  0  0  0  0  0  0  0  0  0
  2  1  1  1
  2  3  1  0
  2  4  1  0
  4  5  1  6
  3  6  1  0
  4  7  1  0
  6  8  1  6
  5  9  1  0
  7 10  1  6
 11  6  1  1
  7 11  1  0
  9 12  1  0
  9 13  1  0
 10 14  1  0
 11 15  1  0
 14 15  1  0
 12 16  1  0
 13 17  1  0
 16 17  1  0
 13 18  1  6
 15 19  1  1
 17 20  1  6
 18 21  1  0
 19 22  1  0
 19 23  1  0
 20 24  1  0
 21 24  1  0
 22 25  1  0
 23 26  1  0
 25 27  1  0
 26 27  1  0
M  CHG  2   1  -1   8  -1
M  END
