ucsf243-ucsf424
     RDKit          3D

 25 27  0  0  0  0  0  0  0  0999 V2000
   -4.0980   15.6180    0.9040 C   0  0  0  0  0  0  0  0  0  0  0  0
   -3.6000   14.9070   -0.3590 C   0  0  1  0  0  0  0  0  0  0  0  0
   -4.4100   15.3680   -1.5810 C   0  0  0  0  0  0  0  0  0  0  0  0
   -2.0760   15.0650   -0.4970 C   0  0  0  0  0  0  0  0  0  0  0  0
   -1.6110   15.3740   -1.9270 C   0  0  1  0  0  0  0  0  0  0  0  0
   -3.9200   14.7920   -2.9090 C   0  0  0  0  0  0  0  0  0  0  0  0
   -0.0490   15.2040   -2.0260 C   0  0  2  0  0  0  0  0  0  0  0  0
   -2.4070   14.5400   -2.9530 C   0  0  1  0  0  0  0  0  0  0  0  0
   -1.9530   14.8380   -4.2830 O   0  0  0  0  0  0  0  0  0  0  0  0
    0.3210   14.3080   -3.0910 O   0  0  0  0  0  0  0  0  0  0  0  0
    0.3500   14.6640   -0.8900 O   0  0  0  0  0  0  0  0  0  0  0  0
    1.5920   13.7020   -2.8020 C   0  0  0  0  0  0  0  0  0  0  0  0
    1.4340   12.2950   -2.6160 O   0  0  0  0  0  0  0  0  0  0  0  0
    0.4510   11.7800   -3.5000 C   0  0  1  0  0  0  0  0  0  0  0  0
   -0.8210   11.9080   -2.9030 O   0  0  0  0  0  0  0  0  0  0  0  0
    0.4750   12.6180   -4.7910 C   0  0  0  0  0  0  0  0  0  0  0  0
    0.0560   11.8550   -6.0480 C   0  0  1  0  0  0  0  0  0  0  0  0
    1.1910   11.5680   -6.9190 N   0  0  0  0  0  0  0  0  0  0  0  0
   -0.5590   10.4820   -5.7990 C   0  0  2  0  0  0  0  0  0  0  0  0
    0.7300   10.4910   -7.7890 O   0  0  0  0  0  0  0  0  0  0  0  0
   -0.1980    9.6890   -7.0460 C   0  0  2  0  0  0  0  0  0  0  0  0
   -2.0580   10.4910   -5.5200 C   0  0  0  0  0  0  0  0  0  0  0  0
   -1.3790    9.3030   -7.9290 C   0  0  0  0  0  0  0  0  0  0  0  0
   -2.7310    9.1410   -5.7780 C   0  0  0  0  0  0  0  0  0  0  0  0
   -2.4430    8.5370   -7.1510 C   0  0  0  0  0  0  0  0  0  0  0  0
  2  1  1  1
  2  3  1  0
  2  4  1  0
  5  4  1  1
  3  6  1  0
  5  7  1  0
  5  8  1  0
  6  8  1  0
  8  9  1  6
  7 10  1  0
  7 11  1  1
 10 12  1  0
 12 13  1  0
 13 14  1  0
 14 15  1  1
 14 16  1  0
 17 16  1  1
 17 18  1  0
 17 19  1  0
 18 20  1  0
 19 21  1  0
 20 21  1  0
 19 22  1  6
 21 23  1  6
 22 24  1  0
 23 25  1  0
 24 25  1  0
M  CHG  1  11  -1
M  END
