ucsf584-ucsf411
     RDKit          3D

 27 30  0  0  0  0  0  0  0  0999 V2000
    0.5800   10.4940   -2.2880 O   0  0  0  0  0  0  0  0  0  0  0  0
    0.2980   11.7560   -2.5950 C   0  0  1  0  0  0  0  0  0  0  0  0
    0.5440   12.4000   -1.3550 O   0  0  0  0  0  0  0  0  0  0  0  0
    1.2710   12.3600   -3.6730 C   0  0  0  0  0  0  0  0  0  0  0  0
    1.1980   13.7740   -3.9080 O   0  0  0  0  0  0  0  0  0  0  0  0
    0.4440   14.2440   -5.0360 C   0  0  2  0  0  0  0  0  0  0  0  0
    0.0480   15.6910   -4.6840 C   0  0  2  0  0  0  0  0  0  0  0  0
   -0.7560   13.2990   -5.2770 C   0  0  0  0  0  0  0  0  0  0  0  0
   -1.3930   16.0380   -5.0300 C   0  0  1  0  0  0  0  0  0  0  0  0
   -2.1250   13.7760   -4.7640 C   0  0  0  0  0  0  0  0  0  0  0  0
    1.1050   16.6890   -5.0940 C   0  0  0  0  0  0  0  0  0  0  0  0
   -2.0710   15.1270   -4.0450 C   0  0  2  0  0  0  0  0  0  0  0  0
   -1.7150   17.5410   -5.1970 C   0  0  0  0  0  0  0  0  0  0  0  0
    0.7070   18.1520   -5.1420 C   0  0  0  0  0  0  0  0  0  0  0  0
   -3.4060   15.5350   -3.5060 C   0  0  0  0  0  0  0  0  0  0  0  0
   -0.6060   18.3470   -5.8650 C   0  0  0  0  0  0  0  0  0  0  0  0
   -3.9090   14.6380   -2.4880 N   0  0  0  0  0  0  0  0  0  0  0  0
   -3.2760   14.7310   -1.1350 C   0  0  0  0  0  0  0  0  0  0  0  0
   -5.3610   14.5800   -2.6550 C   0  0  0  0  0  0  0  0  0  0  0  0
   -4.2520   15.0280    0.0260 C   0  0  0  0  0  0  0  0  0  0  0  0
   -6.1340   15.1410   -1.5030 C   0  0  0  0  0  0  0  0  0  0  0  0
   -5.6180   14.4250   -0.2900 C   0  0  0  0  0  0  0  0  0  0  0  0
   -6.6490   14.1710    0.8190 C   0  0  0  0  0  0  0  0  0  0  0  0
   -6.5240   14.8840    2.0550 N   0  0  0  0  0  0  0  0  0  0  0  0
   -7.9950   14.4580    0.3180 N   0  0  0  0  0  0  0  0  0  0  0  0
   -8.7690   14.8940    1.4830 C   0  0  0  0  0  0  0  0  0  0  0  0
   -7.8280   14.7780    2.6690 C   0  0  0  0  0  0  0  0  0  0  0  0
  2  1  1  1
  2  3  1  0
  2  4  1  0
  4  5  1  0
  6  5  1  1
  6  7  1  0
  6  8  1  0
  7  9  1  0
  8 10  1  0
  7 11  1  6
  9 12  1  0
 10 12  1  0
  9 13  1  1
 11 14  1  0
 12 15  1  6
 13 16  1  0
 14 16  1  0
 15 17  1  0
 17 18  1  0
 17 19  1  0
 18 20  1  0
 19 21  1  0
 20 22  1  0
 21 22  1  0
 22 23  1  0
 23 24  1  0
 23 25  1  0
 25 26  1  0
 24 27  1  0
 26 27  1  0
M  CHG  1   1  -1
M  END
