ucsf365-ucsf519
     RDKit          3D

 22 23  0  0  0  0  0  0  0  0999 V2000
   -0.0090   11.0290   -1.6680 O   0  0  0  0  0  0  0  0  0  0  0  0
    0.4660   11.6080   -2.7840 C   0  0  2  0  0  0  0  0  0  0  0  0
    1.5990   12.2860   -2.2610 O   0  0  0  0  0  0  0  0  0  0  0  0
   -0.5280   12.6830   -3.3630 C   0  0  1  0  0  0  0  0  0  0  0  0
    0.2440   13.9000   -4.5450 S   0  0  0  0  0  0  0  0  0  0  0  0
   -1.8310   12.2090   -4.0700 C   0  0  2  0  0  0  0  0  0  0  0  0
   -0.5810   15.4010   -3.8470 C   0  0  1  0  0  0  0  0  0  0  0  0
   -1.6770   11.3820   -5.3640 C   0  0  2  0  0  0  0  0  0  0  0  0
   -2.8770   13.3360   -4.2960 C   0  0  0  0  0  0  0  0  0  0  0  0
   -0.5150   10.5660   -5.3190 O   0  0  0  0  0  0  0  0  0  0  0  0
   -0.3470   16.5170   -4.8700 C   0  0  0  0  0  0  0  0  0  0  0  0
   -2.1190   15.3230   -3.4320 C   0  0  1  0  0  0  0  0  0  0  0  0
   -1.6250   12.2470   -6.6340 C   0  0  0  0  0  0  0  0  0  0  0  0
   -2.7180   14.1680   -5.5850 C   0  0  0  0  0  0  0  0  0  0  0  0
   -2.9240   14.5120   -4.2550 O   0  0  0  0  0  0  0  0  0  0  0  0
   -2.7890   13.2260   -6.7470 C   0  0  0  0  0  0  0  0  0  0  0  0
   -2.5770   15.2020   -2.0400 N   0  0  0  0  0  0  0  0  0  0  0  0
   -3.9910   15.0380   -1.7610 C   0  0  0  0  0  0  0  0  0  0  0  0
   -1.8860   14.4590   -1.0280 C   0  0  1  0  0  0  0  0  0  0  0  0
   -0.5770   14.9350   -0.8690 O   0  0  0  0  0  0  0  0  0  0  0  0
   -3.9900   15.1370   -0.2390 C   0  0  0  0  0  0  0  0  0  0  0  0
   -2.6060   14.8110    0.1890 N   0  0  0  0  0  0  0  0  0  0  0  0
  2  1  1  1
  2  3  1  0
  2  4  1  0
  4  5  1  6
  4  6  1  0
  5  7  1  0
  6  8  1  0
  6  9  1  6
  8 10  1  1
  7 11  1  6
  7 12  1  0
  8 13  1  0
  9 14  1  0
 12 15  1  6
 13 16  1  0
 14 16  1  0
 12 17  1  0
 17 18  1  0
 17 19  1  0
 19 20  1  1
 18 21  1  0
 19 22  1  0
 21 22  1  0
M  CHG  1   1  -1
M  END
