ucsf224-ucsf404
     RDKit          3D

 25 27  0  0  0  0  0  0  0  0999 V2000
   -1.0850   18.2130   -5.8320 Cl  0  0  0  0  0  0  0  0  0  0  0  0
   -0.5050   16.8930   -4.7650 C   0  0  1  0  0  0  0  0  0  0  0  0
   -1.5020   15.7250   -4.6320 C   0  0  1  0  0  0  0  0  0  0  0  0
    0.8890   16.4110   -5.1030 C   0  0  0  0  0  0  0  0  0  0  0  0
   -2.8180   15.9810   -5.3870 C   0  0  0  0  0  0  0  0  0  0  0  0
   -0.8200   14.3780   -4.9140 C   0  0  0  0  0  0  0  0  0  0  0  0
    1.4100   15.2920   -4.1800 C   0  0  0  0  0  0  0  0  0  0  0  0
   -3.8940   14.9120   -5.2560 C   0  0  0  0  0  0  0  0  0  0  0  0
    0.3420   14.2060   -3.9390 C   0  0  2  0  0  0  0  0  0  0  0  0
    0.8650   12.7480   -3.8080 C   0  0  0  0  0  0  0  0  0  0  0  0
   -3.9310   14.1330   -3.9380 C   0  0  0  0  0  0  0  0  0  0  0  0
    1.0640   12.0560   -2.4300 C   0  0  2  0  0  0  0  0  0  0  0  0
   -3.8660   14.9500   -2.6140 C   0  0  1  0  0  0  0  0  0  0  0  0
    0.5000   10.8530   -2.3890 O   0  0  0  0  0  0  0  0  0  0  0  0
    0.5350   12.7970   -1.3440 O   0  0  0  0  0  0  0  0  0  0  0  0
   -5.1120   14.6460   -1.7480 C   0  0  2  0  0  0  0  0  0  0  0  0
   -2.5950   14.6500   -1.7980 C   0  0  0  0  0  0  0  0  0  0  0  0
   -6.6370   14.9740   -2.6560 Cl  0  0  0  0  0  0  0  0  0  0  0  0
   -5.2090   15.4260   -0.4440 C   0  0  1  0  0  0  0  0  0  0  0  0
   -2.7880   14.5680   -0.2780 C   0  0  0  0  0  0  0  0  0  0  0  0
   -6.2460   14.8300    0.4210 N   0  0  0  0  0  0  0  0  0  0  0  0
   -3.8500   15.5200    0.2520 C   0  0  2  0  0  0  0  0  0  0  0  0
   -5.7290   14.4200    1.6790 C   0  0  1  0  0  0  0  0  0  0  0  0
   -4.1450   15.1780    1.9840 S   0  0  0  0  0  0  0  0  0  0  0  0
   -6.6750   14.8750    2.6560 N   0  0  0  0  0  0  0  0  0  0  0  0
  2  1  1  6
  2  3  1  0
  2  4  1  0
  3  5  1  6
  3  6  1  0
  4  7  1  0
  5  8  1  0
  6  9  1  0
  7  9  1  0
  9 10  1  6
  8 11  1  0
 10 12  1  0
 13 11  1  6
 12 14  1  6
 12 15  1  0
 13 16  1  0
 13 17  1  0
 16 18  1  6
 16 19  1  0
 17 20  1  0
 19 21  1  1
 19 22  1  0
 22 20  1  6
 21 23  1  0
 22 24  1  0
 23 24  1  0
 23 25  1  1
M  CHG  1  14  -1
M  END
