ucsf387-ucsf404
     RDKit          3D

 25 27  0  0  0  0  0  0  0  0999 V2000
    0.9950   18.2200   -4.4890 Cl  0  0  0  0  0  0  0  0  0  0  0  0
    0.5030   16.6530   -5.1320 C   0  0  2  0  0  0  0  0  0  0  0  0
   -1.0310   16.7000   -5.1320 C   0  0  0  0  0  0  0  0  0  0  0  0
    1.2180   15.5410   -4.3290 C   0  0  0  0  0  0  0  0  0  0  0  0
    0.3660   14.3220   -3.9620 C   0  0  2  0  0  0  0  0  0  0  0  0
   -1.7150   15.4170   -4.6470 C   0  0  1  0  0  0  0  0  0  0  0  0
   -3.1230   15.2550   -5.2430 C   0  0  0  0  0  0  0  0  0  0  0  0
    1.1190   12.9920   -3.6800 C   0  0  0  0  0  0  0  0  0  0  0  0
   -0.8340   14.1880   -4.8730 C   0  0  0  0  0  0  0  0  0  0  0  0
    0.3610   12.1340   -2.6410 C   0  0  1  0  0  0  0  0  0  0  0  0
   -3.8460   13.9700   -4.8170 C   0  0  0  0  0  0  0  0  0  0  0  0
    0.7080   10.8640   -2.5450 O   0  0  0  0  0  0  0  0  0  0  0  0
    0.6900   12.6170   -1.3520 O   0  0  0  0  0  0  0  0  0  0  0  0
   -4.6040   14.0570   -3.4800 C   0  0  0  0  0  0  0  0  0  0  0  0
   -4.0390   15.0430   -2.4170 C   0  0  1  0  0  0  0  0  0  0  0  0
   -5.1510   15.5010   -1.4310 C   0  0  1  0  0  0  0  0  0  0  0  0
   -2.7520   14.5820   -1.6910 C   0  0  0  0  0  0  0  0  0  0  0  0
   -6.7740   14.9040   -1.8990 Cl  0  0  0  0  0  0  0  0  0  0  0  0
   -4.9830   15.4980    0.0980 C   0  0  1  0  0  0  0  0  0  0  0  0
   -2.9390   14.1540   -0.2390 C   0  0  0  0  0  0  0  0  0  0  0  0
   -6.0010   14.6900    0.8200 N   0  0  0  0  0  0  0  0  0  0  0  0
   -3.5890   15.2000    0.5950 C   0  0  2  0  0  0  0  0  0  0  0  0
   -5.5160   14.1980    2.0830 C   0  0  1  0  0  0  0  0  0  0  0  0
   -3.8040   14.6510    2.3060 S   0  0  0  0  0  0  0  0  0  0  0  0
   -6.3310   14.7930    3.1030 N   0  0  0  0  0  0  0  0  0  0  0  0
  2  1  1  1
  2  3  1  0
  2  4  1  0
  4  5  1  0
  3  6  1  0
  6  7  1  6
  5  8  1  6
  5  9  1  0
  6  9  1  0
  8 10  1  0
  7 11  1  0
 10 12  1  1
 10 13  1  0
 11 14  1  0
 15 14  1  1
 15 16  1  0
 15 17  1  0
 16 18  1  1
 16 19  1  0
 17 20  1  0
 19 21  1  1
 19 22  1  0
 22 20  1  6
 21 23  1  0
 22 24  1  0
 23 24  1  0
 23 25  1  1
M  CHG  1  12  -1
M  END
