ucsf169-ucsf365
     RDKit          3D

 20 21  0  0  0  0  0  0  0  0999 V2000
    1.1130   18.3560   -5.4670 C   0  0  0  0  0  0  0  0  0  0  0  0
    0.6220   18.2470   -4.1390 O   0  0  0  0  0  0  0  0  0  0  0  0
    0.0000   16.9730   -3.9190 C   0  0  1  0  0  0  0  0  0  0  0  0
   -1.0600   16.9070   -5.0180 C   0  0  2  0  0  0  0  0  0  0  0  0
    1.0270   15.8070   -3.9870 C   0  0  0  0  0  0  0  0  0  0  0  0
   -2.0990   17.9040   -4.8520 O   0  0  0  0  0  0  0  0  0  0  0  0
   -1.6130   15.5110   -5.1400 C   0  0  0  0  0  0  0  0  0  0  0  0
    0.4660   14.4010   -4.2810 C   0  0  1  0  0  0  0  0  0  0  0  0
   -0.1690   13.5500   -3.1480 C   0  0  2  0  0  0  0  0  0  0  0  0
   -0.4920   14.4860   -5.4140 C   0  0  0  0  0  0  0  0  0  0  0  0
    0.6380   12.2410   -2.7790 C   0  0  1  0  0  0  0  0  0  0  0  0
   -1.6800   13.2870   -3.5530 C   0  0  2  0  0  0  0  0  0  0  0  0
    1.7270   12.6000   -1.9890 O   0  0  0  0  0  0  0  0  0  0  0  0
   -0.0250   11.4880   -1.8970 O   0  0  0  0  0  0  0  0  0  0  0  0
   -2.0160   12.2890   -4.7090 C   0  0  2  0  0  0  0  0  0  0  0  0
   -2.3780   14.6530   -3.8210 C   0  0  0  0  0  0  0  0  0  0  0  0
   -1.0900   11.2180   -4.8400 O   0  0  0  0  0  0  0  0  0  0  0  0
   -2.2970   12.9060   -6.0810 C   0  0  0  0  0  0  0  0  0  0  0  0
   -3.5240   14.7620   -4.8460 C   0  0  0  0  0  0  0  0  0  0  0  0
   -3.4120   13.9410   -6.1090 C   0  0  0  0  0  0  0  0  0  0  0  0
  1  2  1  0
  3  2  1  6
  3  4  1  0
  3  5  1  0
  4  6  1  1
  4  7  1  0
  8  5  1  1
  8  9  1  0
  7 10  1  0
  8 10  1  0
  9 11  1  6
  9 12  1  0
 11 13  1  1
 11 14  1  0
 12 15  1  0
 12 16  1  6
 15 17  1  6
 15 18  1  0
 16 19  1  0
 18 20  1  0
 19 20  1  0
M  CHG  1  14  -1
M  END
