ucsf012-ucsf123
     RDKit          3D

 30 33  0  0  0  0  0  0  0  0999 V2000
   -3.5890   14.1940   -3.4600 C   0  0  0  0  0  0  0  0  0  0  0  0
   -3.0590   15.1680   -2.4200 C   0  0  1  0  0  0  0  0  0  0  0  0
   -3.8400   15.3230   -1.0930 C   0  0  1  0  0  0  0  0  0  0  0  0
   -1.6350   14.9700   -1.9830 N   0  0  0  0  0  0  0  0  0  0  0  0
   -5.3440   15.1060   -1.1890 C   0  0  0  0  0  0  0  0  0  0  0  0
   -0.7350   14.2040   -2.7530 C   0  0  0  0  0  0  0  0  0  0  0  0
   -3.0640   14.3760   -0.1730 C   0  0  1  0  0  0  0  0  0  0  0  0
   -1.6410   14.3770   -0.7130 C   0  0  2  0  0  0  0  0  0  0  0  0
   -3.0130   14.5480    1.3230 C   0  0  2  0  0  0  0  0  0  0  0  0
   -0.4770   14.7200    0.0530 N   0  0  0  0  0  0  0  0  0  0  0  0
   -1.1860   12.7400   -3.1560 C   0  0  2  0  0  0  0  0  0  0  0  0
    0.6050   14.8880   -3.1640 C   0  0  2  0  0  0  0  0  0  0  0  0
   -4.0650   15.3890    1.8150 N   0  0  0  0  0  0  0  0  0  0  0  0
   -1.7880   15.1200    1.7760 N   0  0  0  0  0  0  0  0  0  0  0  0
   -0.6150   14.3950    1.4090 C   0  0  0  0  0  0  0  0  0  0  0  0
   -0.5870   11.6820   -2.2260 C   0  0  0  0  0  0  0  0  0  0  0  0
   -1.0610   12.2170   -4.4820 O   0  0  0  0  0  0  0  0  0  0  0  0
    0.3410   16.1640   -3.9610 C   0  0  0  0  0  0  0  0  0  0  0  0
    1.3490   13.9730   -4.0320 C   0  0  1  0  0  0  0  0  0  0  0  0
    2.1770   12.9410   -3.2960 C   0  0  0  0  0  0  0  0  0  0  0  0
   -0.5320   10.8920   -4.3840 C   0  0  0  0  0  0  0  0  0  0  0  0
    0.3010   10.9170   -3.1380 C   0  0  0  0  0  0  0  0  0  0  0  0
   -0.9210   15.8810   -4.7260 C   0  0  1  0  0  0  0  0  0  0  0  0
    0.2120   13.4430   -4.8910 C   0  0  0  0  0  0  0  0  0  0  0  0
   -1.4520   17.3120   -5.6880 S   0  0  0  0  0  0  0  0  0  0  0  0
    1.6740   12.7660   -1.9740 O   0  0  0  0  0  0  0  0  0  0  0  0
   -0.5870   14.5920   -5.5140 C   0  0  0  0  0  0  0  0  0  0  0  0
   -1.8660   18.7140   -4.9570 N   0  0  0  0  0  0  0  0  0  0  0  0
   -0.2290   17.6470   -6.6440 O   0  0  0  0  0  0  0  0  0  0  0  0
   -2.6560   16.8670   -6.6380 O   0  0  0  0  0  0  0  0  0  0  0  0
  2  1  1  1
  2  3  1  0
  2  4  1  0
  3  5  1  6
  4  6  1  0
  3  7  1  0
  4  8  1  0
  7  8  1  0
  7  9  1  1
  8 10  1  1
 11  6  1  6
 12  6  1  6
  9 13  1  6
  9 14  1  0
 10 15  1  0
 14 15  1  0
 11 16  1  0
 11 17  1  0
 12 18  1  0
 12 19  1  0
 19 20  1  1
 17 21  1  0
 16 22  1  0
 21 22  1  0
 18 23  1  0
 19 24  1  0
 23 25  1  6
 20 26  1  0
 23 27  1  0
 24 27  1  0
 25 28  1  0
 25 29  1  0
 25 30  1  0
M  END
