ucsf005-ucsf403
     RDKit          3D

 26 28  0  0  0  0  0  0  0  0999 V2000
   -0.6270   14.7020   -3.0900 C   0  0  0  0  0  0  0  0  0  0  0  0
   -1.9050   14.9400   -2.4480 N   0  0  0  0  0  0  0  0  0  0  0  0
   -2.9080   13.9310   -2.7370 C   0  0  2  0  0  0  0  0  0  0  0  0
   -1.9060   14.5600   -1.0660 C   0  0  2  0  0  0  0  0  0  0  0  0
   -3.2410   13.6130   -4.2220 C   0  0  0  0  0  0  0  0  0  0  0  0
   -4.0340   14.3980   -1.8630 N   0  0  0  0  0  0  0  0  0  0  0  0
   -3.3050   14.9660   -0.6780 C   0  0  1  0  0  0  0  0  0  0  0  0
   -0.8180   14.9150   -0.2120 N   0  0  0  0  0  0  0  0  0  0  0  0
   -2.0900   12.9370   -5.0600 C   0  0  0  0  0  0  0  0  0  0  0  0
   -3.5110   14.4440    0.7680 C   0  0  2  0  0  0  0  0  0  0  0  0
   -1.0720   14.2040    0.9790 C   0  0  1  0  0  0  0  0  0  0  0  0
   -4.4740   15.2390    1.5130 N   0  0  0  0  0  0  0  0  0  0  0  0
   -0.0200   14.3390    1.9290 N   0  0  0  0  0  0  0  0  0  0  0  0
   -2.3180   14.5700    1.5950 N   0  0  0  0  0  0  0  0  0  0  0  0
   -1.9650   11.3700   -5.0140 C   0  0  2  0  0  0  0  0  0  0  0  0
   -0.5520   10.7100   -5.3300 C   0  0  2  0  0  0  0  0  0  0  0  0
   -3.0980   10.7640   -5.8610 C   0  0  0  0  0  0  0  0  0  0  0  0
    0.3840   11.6810   -5.8320 O   0  0  0  0  0  0  0  0  0  0  0  0
   -3.0820    9.2480   -5.8880 C   0  0  0  0  0  0  0  0  0  0  0  0
   -0.5710    9.4440   -6.2870 C   0  0  2  0  0  0  0  0  0  0  0  0
    0.4400    9.6350   -7.7630 Cl  0  0  0  0  0  0  0  0  0  0  0  0
    0.8480   12.7090   -4.9120 C   0  0  0  0  0  0  0  0  0  0  0  0
   -1.8940    8.7620   -6.6660 C   0  0  0  0  0  0  0  0  0  0  0  0
    1.3970   12.1940   -3.5400 C   0  0  1  0  0  0  0  0  0  0  0  0
    1.0980   12.9740   -2.5320 O   0  0  0  0  0  0  0  0  0  0  0  0
    0.6970   11.0320   -3.1230 O   0  0  0  0  0  0  0  0  0  0  0  0
  1  2  1  0
  2  3  1  0
  2  4  1  0
  3  5  1  6
  3  6  1  0
  4  7  1  0
  7  6  1  6
  4  8  1  1
  5  9  1  0
  7 10  1  0
  8 11  1  0
 10 12  1  1
 11 13  1  1
 10 14  1  0
 11 14  1  0
 15  9  1  6
 15 16  1  0
 15 17  1  0
 16 18  1  6
 17 19  1  0
 16 20  1  0
 20 21  1  6
 18 22  1  0
 19 23  1  0
 20 23  1  0
 22 24  1  0
 24 25  1  1
 24 26  1  0
M  CHG  1  25  -1
M  END
