ucsf016-ucsf147
     RDKit          3D

 21 24  0  0  0  0  0  0  0  0999 V2000
    1.4620   13.1180   -5.2060 C   0  0  0  0  0  0  0  0  0  0  0  0
    0.3780   14.0860   -4.7050 C   0  0  1  0  0  0  0  0  0  0  0  0
   -0.9730   13.6780   -5.2810 C   0  0  0  0  0  0  0  0  0  0  0  0
    0.2090   14.0830   -3.1510 C   0  0  1  0  0  0  0  0  0  0  0  0
    1.5030   13.9510   -2.2390 C   0  0  1  0  0  0  0  0  0  0  0  0
   -2.1060   14.5320   -4.7220 C   0  0  0  0  0  0  0  0  0  0  0  0
   -0.7660   15.0790   -2.6360 N   0  0  0  0  0  0  0  0  0  0  0  0
    1.9890   12.6350   -2.3370 O   0  0  0  0  0  0  0  0  0  0  0  0
    2.5220   14.6990   -2.6170 O   0  0  0  0  0  0  0  0  0  0  0  0
   -3.4800   13.8850   -4.6940 C   0  0  0  0  0  0  0  0  0  0  0  0
   -3.1980   14.9650   -5.6900 C   0  0  0  0  0  0  0  0  0  0  0  0
   -1.7730   15.5520   -3.6140 C   0  0  0  0  0  0  0  0  0  0  0  0
   -1.0910   14.6370   -1.2750 C   0  0  1  0  0  0  0  0  0  0  0  0
   -0.1900   15.2690   -0.3090 N   0  0  0  0  0  0  0  0  0  0  0  0
   -2.5180   14.6560   -0.7320 C   0  0  1  0  0  0  0  0  0  0  0  0
   -0.1880   14.6540    0.9840 C   0  0  0  0  0  0  0  0  0  0  0  0
   -2.4370   15.3120    0.6110 C   0  0  2  0  0  0  0  0  0  0  0  0
   -3.6890   15.3880   -1.3510 C   0  0  0  0  0  0  0  0  0  0  0  0
   -1.5200   14.7010    1.5330 N   0  0  0  0  0  0  0  0  0  0  0  0
   -3.8140   15.2310    1.0430 N   0  0  0  0  0  0  0  0  0  0  0  0
   -4.6250   15.5240   -0.1490 C   0  0  0  0  0  0  0  0  0  0  0  0
  2  1  1  1
  2  3  1  0
  2  4  1  0
  4  5  1  0
  6  3  1  0
  4  7  1  1
  5  8  1  6
  5  9  1  0
  6 10  1  0
  6 11  1  0
 10 11  1  0
  6 12  1  0
  7 12  1  0
 13  7  1  6
 13 14  1  0
 13 15  1  0
 14 16  1  0
 15 17  1  0
 15 18  1  6
 16 19  1  0
 17 19  1  1
 17 20  1  0
 18 21  1  0
 20 21  1  0
M  CHG  1   9  -1
M  END
