ucsf365-ucsf422
     RDKit          3D

 21 23  0  0  0  0  0  0  0  0999 V2000
    0.3730   11.0810   -2.2770 O   0  0  0  0  0  0  0  0  0  0  0  0
    0.9270   11.9790   -3.0750 C   0  0  2  0  0  0  0  0  0  0  0  0
    2.0040   12.4430   -2.3020 O   0  0  0  0  0  0  0  0  0  0  0  0
   -0.0000   13.2040   -3.3220 C   0  0  2  0  0  0  0  0  0  0  0  0
   -1.0590   12.9740   -4.4500 C   0  0  2  0  0  0  0  0  0  0  0  0
    0.7120   14.5670   -3.4860 C   0  0  1  0  0  0  0  0  0  0  0  0
   -1.3880   11.6380   -5.0820 C   0  0  1  0  0  0  0  0  0  0  0  0
   -1.0430   13.9980   -5.5600 C   0  0  0  0  0  0  0  0  0  0  0  0
    1.8830   14.7410   -4.4230 C   0  0  0  0  0  0  0  0  0  0  0  0
   -0.2290   15.7000   -3.9170 C   0  0  1  0  0  0  0  0  0  0  0  0
   -1.2030   10.5110   -4.2360 O   0  0  0  0  0  0  0  0  0  0  0  0
   -2.8760   11.7170   -5.4740 C   0  0  0  0  0  0  0  0  0  0  0  0
   -2.4430   14.0790   -6.1730 C   0  0  0  0  0  0  0  0  0  0  0  0
    1.7490   16.1030   -4.9810 N   0  0  0  0  0  0  0  0  0  0  0  0
    0.3310   16.1740   -5.2080 C   0  0  2  0  0  0  0  0  0  0  0  0
   -1.7210   15.3670   -4.1020 C   0  0  0  0  0  0  0  0  0  0  0  0
   -3.4230   13.1510   -5.4930 C   0  0  0  0  0  0  0  0  0  0  0  0
   -0.2490   17.5220   -5.5590 C   0  0  0  0  0  0  0  0  0  0  0  0
   -2.5360   16.4070   -4.8460 C   0  0  2  0  0  0  0  0  0  0  0  0
   -3.8560   15.5400   -6.0250 Br  0  0  0  0  0  0  0  0  0  0  0  0
   -1.7920   17.5230   -5.6120 C   0  0  0  0  0  0  0  0  0  0  0  0
  2  1  1  1
  2  3  1  0
  4  2  1  6
  4  5  1  0
  4  6  1  0
  5  7  1  0
  5  8  1  6
  6  9  1  6
  6 10  1  0
  7 11  1  1
  7 12  1  0
  8 13  1  0
  9 14  1  0
 10 15  1  0
 14 15  1  0
 10 16  1  6
 12 17  1  0
 13 17  1  0
 15 18  1  1
 16 19  1  0
 19 20  1  6
 18 21  1  0
 19 21  1  0
M  CHG  1   1  -1
M  END
