ucsf411-ucsf357
     RDKit          3D

 26 28  0  0  0  0  0  0  0  0999 V2000
    0.7620   10.7760   -2.5430 O   0  0  0  0  0  0  0  0  0  0  0  0
    0.5130   12.0800   -2.6870 C   0  0  1  0  0  0  0  0  0  0  0  0
    0.7670   12.5500   -1.3750 O   0  0  0  0  0  0  0  0  0  0  0  0
    1.4400   12.8260   -3.7110 C   0  0  0  0  0  0  0  0  0  0  0  0
    0.6750   13.5810   -4.7070 O   0  0  0  0  0  0  0  0  0  0  0  0
    0.0390   14.8060   -4.2440 C   0  0  1  0  0  0  0  0  0  0  0  0
    0.0060   15.8860   -5.3110 C   0  0  1  0  0  0  0  0  0  0  0  0
   -1.4280   14.6250   -3.9250 C   0  0  2  0  0  0  0  0  0  0  0  0
   -1.5970   13.8070   -2.8480 O   0  0  0  0  0  0  0  0  0  0  0  0
   -1.4030   16.5790   -5.5610 C   0  0  1  0  0  0  0  0  0  0  0  0
   -2.2770   14.3040   -5.1260 C   0  0  0  0  0  0  0  0  0  0  0  0
    1.1650   16.8370   -5.1220 C   0  0  0  0  0  0  0  0  0  0  0  0
   -2.6650   15.6880   -5.5730 C   0  0  0  0  0  0  0  0  0  0  0  0
   -1.5050   17.8810   -4.8680 C   0  0  0  0  0  0  0  0  0  0  0  0
    0.8640   18.3280   -5.0250 C   0  0  0  0  0  0  0  0  0  0  0  0
   -2.2960   14.4890   -1.8240 C   0  0  2  0  0  0  0  0  0  0  0  0
   -0.4900   18.6850   -5.6020 C   0  0  0  0  0  0  0  0  0  0  0  0
   -3.4460   15.3420   -2.2310 C   0  0  0  0  0  0  0  0  0  0  0  0
   -1.3330   15.3070   -1.0240 C   0  0  2  0  0  0  0  0  0  0  0  0
   -0.0560   14.6440   -0.9700 O   0  0  0  0  0  0  0  0  0  0  0  0
   -4.3000   15.5390   -0.9730 C   0  0  1  0  0  0  0  0  0  0  0  0
   -1.9440   15.4420    0.3550 C   0  0  0  0  0  0  0  0  0  0  0  0
   -5.5410   14.6160   -0.9520 C   0  0  2  0  0  0  0  0  0  0  0  0
   -3.4920   15.5500    0.3700 C   0  0  0  0  0  0  0  0  0  0  0  0
   -6.2960   14.8050   -2.0050 O   0  0  0  0  0  0  0  0  0  0  0  0
   -6.3980   15.0180    0.0950 O   0  0  0  0  0  0  0  0  0  0  0  0
  2  1  1  1
  2  3  1  0
  2  4  1  0
  4  5  1  0
  6  5  1  6
  6  7  1  0
  6  8  1  0
  8  9  1  1
  7 10  1  0
  8 11  1  0
  7 12  1  1
 10 13  1  1
 11 13  1  0
 10 14  1  0
 12 15  1  0
 16  9  1  6
 14 17  1  0
 15 17  1  0
 16 18  1  0
 16 19  1  0
 19 20  1  1
 21 18  1  6
 19 22  1  0
 21 23  1  0
 21 24  1  0
 22 24  1  0
 23 25  1  6
 23 26  1  0
M  CHG  2   1  -1  25  -1
M  END
