ucsf338-ucsf404
     RDKit          3D

 16 17  0  0  0  0  0  0  0  0999 V2000
   -9.4550   14.0710   -0.2560 O   0  0  0  0  0  0  0  0  0  0  0  0
   -8.2850   14.5500    0.0370 N   0  0  0  0  0  0  0  0  0  0  0  0
   -7.3050   14.6130   -0.9630 C   0  0  1  0  0  0  0  0  0  0  0  0
   -7.5230   15.8730   -1.5910 O   0  0  0  0  0  0  0  0  0  0  0  0
   -5.5540   14.5800   -0.2580 S   0  0  0  0  0  0  0  0  0  0  0  0
   -5.2980   16.2700   -0.7000 C   0  0  0  0  0  0  0  0  0  0  0  0
   -5.1410   14.4950    1.6300 C   0  0  2  0  0  0  0  0  0  0  0  0
   -4.8940   13.3720   -1.5250 C   0  0  0  0  0  0  0  0  0  0  0  0
   -3.8690   14.1350   -0.0960 C   0  0  1  0  0  0  0  0  0  0  0  0
   -4.3420   16.2220   -1.6900 O   0  0  0  0  0  0  0  0  0  0  0  0
   -6.0590   15.0470    2.4460 N   0  0  0  0  0  0  0  0  0  0  0  0
   -2.9390   14.5360   -1.0760 C   0  0  0  0  0  0  0  0  0  0  0  0
   -3.1490   14.7600    1.0690 C   0  0  0  0  0  0  0  0  0  0  0  0
   -4.0390   15.4910    1.8240 C   0  0  0  0  0  0  0  0  0  0  0  0
   -4.4910   14.1760   -2.7180 C   0  0  0  0  0  0  0  0  0  0  0  0
   -2.9870   14.5180   -2.5100 C   0  0  0  0  0  0  0  0  0  0  0  0
  1  2  1  0
  2  3  1  0
  3  4  1  1
  3  5  1  0
  5  6  1  0
  5  7  1  0
  5  8  1  0
  5  9  1  0
  6 10  1  0
  7 11  1  1
  9 12  1  6
  9 13  1  0
  7 14  1  0
 13 14  1  0
  8 15  1  0
 12 16  1  0
 15 16  1  0
M  END
