ucsf424-ucsf371
     RDKit          3D

 23 25  0  0  0  0  0  0  0  0999 V2000
    1.2660   12.5860   -2.3990 O   0  0  0  0  0  0  0  0  0  0  0  0
    0.5930   12.0110   -3.3750 C   0  0  1  0  0  0  0  0  0  0  0  0
   -0.7370   12.1350   -2.9110 O   0  0  0  0  0  0  0  0  0  0  0  0
    0.7670   12.6640   -4.8050 C   0  0  2  0  0  0  0  0  0  0  0  0
    0.3520   14.1640   -4.9390 C   0  0  0  0  0  0  0  0  0  0  0  0
    0.4690   11.6520   -5.9560 C   0  0  2  0  0  0  0  0  0  0  0  0
   -0.8970   14.4840   -4.2840 O   0  0  0  0  0  0  0  0  0  0  0  0
    0.0860   12.0740   -7.2950 N   0  0  0  0  0  0  0  0  0  0  0  0
   -0.4440   10.4270   -5.8200 C   0  0  2  0  0  0  0  0  0  0  0  0
   -0.7500   14.8950   -2.9030 C   0  0  1  0  0  0  0  0  0  0  0  0
    0.3200   10.8370   -8.0330 O   0  0  0  0  0  0  0  0  0  0  0  0
   -0.1920    9.7910   -7.1950 C   0  0  2  0  0  0  0  0  0  0  0  0
   -1.9430   10.5980   -5.5520 C   0  0  0  0  0  0  0  0  0  0  0  0
   -0.4890   16.1840   -2.8320 O   0  0  0  0  0  0  0  0  0  0  0  0
   -1.4050    9.1660   -7.8680 C   0  0  0  0  0  0  0  0  0  0  0  0
   -2.7520    9.3110   -5.6980 C   0  0  0  0  0  0  0  0  0  0  0  0
   -2.1210   14.6220   -2.2060 C   0  0  2  0  0  0  0  0  0  0  0  0
   -2.3160    8.4490   -6.8760 C   0  0  0  0  0  0  0  0  0  0  0  0
   -3.3590   15.1530   -2.9620 C   0  0  0  0  0  0  0  0  0  0  0  0
   -2.3790   15.4170   -0.5750 S   0  0  0  0  0  0  0  0  0  0  0  0
   -4.0610   14.8130   -0.6970 C   0  0  2  0  0  0  0  0  0  0  0  0
   -4.5500   15.1580   -2.0400 N   0  0  0  0  0  0  0  0  0  0  0  0
   -4.9320   15.4090    0.3850 C   0  0  0  0  0  0  0  0  0  0  0  0
  2  1  1  1
  2  3  1  0
  2  4  1  0
  4  5  1  1
  4  6  1  0
  5  7  1  0
  6  8  1  6
  6  9  1  0
  7 10  1  0
  8 11  1  0
  9 12  1  0
 11 12  1  0
  9 13  1  6
 10 14  1  6
 12 15  1  6
 13 16  1  0
 10 17  1  0
 15 18  1  0
 16 18  1  0
 17 19  1  6
 17 20  1  0
 20 21  1  0
 19 22  1  0
 21 22  1  0
 21 23  1  1
M  CHG  2   1  -1  14  -1
M  END
