ucsf247-ucsf173
     RDKit          3D

 24 26  0  0  0  0  0  0  0  0999 V2000
   -0.9740   12.1440   -3.2290 O   0  0  0  0  0  0  0  0  0  0  0  0
    0.1950   13.7300   -2.6200 S   0  0  0  0  0  0  0  0  0  0  0  0
    1.4060   14.6140   -1.9400 O   0  0  0  0  0  0  0  0  0  0  0  0
   -0.9350   13.8850   -1.2610 C   0  0  0  0  0  0  0  0  0  0  0  0
    0.7100   11.6730   -2.4990 O   0  0  0  0  0  0  0  0  0  0  0  0
    0.7870   14.0630   -4.2280 C   0  0  0  0  0  0  0  0  0  0  0  0
   -2.2870   13.6860   -1.7110 N   0  0  0  0  0  0  0  0  0  0  0  0
   -0.2040   14.2410   -5.2320 C   0  0  0  0  0  0  0  0  0  0  0  0
    1.5080   15.3880   -4.2670 C   0  0  0  0  0  0  0  0  0  0  0  0
   -3.1360   14.7390   -1.8580 C   0  0  1  0  0  0  0  0  0  0  0  0
   -0.4100   15.6860   -5.2860 C   0  0  2  0  0  0  0  0  0  0  0  0
    0.4030   16.2810   -4.1720 C   0  0  2  0  0  0  0  0  0  0  0  0
   -3.8100   14.6200   -3.1530 O   0  0  0  0  0  0  0  0  0  0  0  0
   -4.1560   14.9820   -0.8760 C   0  0  2  0  0  0  0  0  0  0  0  0
   -1.7980   16.2020   -5.1450 C   0  0  0  0  0  0  0  0  0  0  0  0
    0.6980   17.6780   -4.7110 C   0  0  0  0  0  0  0  0  0  0  0  0
   -5.4910   15.5460   -1.2320 C   0  0  0  0  0  0  0  0  0  0  0  0
   -3.7410   15.7060    0.3720 C   0  0  0  0  0  0  0  0  0  0  0  0
   -1.7360   17.5980   -5.6470 C   0  0  0  0  0  0  0  0  0  0  0  0
   -0.5740   18.3970   -5.1480 C   0  0  0  0  0  0  0  0  0  0  0  0
   -6.4650   14.9570   -0.1960 C   0  0  1  0  0  0  0  0  0  0  0  0
   -4.4720   15.0110    1.4800 C   0  0  0  0  0  0  0  0  0  0  0  0
   -7.0310   13.8210   -0.7930 O   0  0  0  0  0  0  0  0  0  0  0  0
   -5.8630   14.5380    1.1120 C   0  0  0  0  0  0  0  0  0  0  0  0
  1  2  1  0
  2  3  1  0
  2  4  1  0
  2  5  1  0
  2  6  1  0
  4  7  1  0
  6  8  1  0
  6  9  1  0
  7 10  1  0
 11  8  1  1
 12  9  1  6
 11 12  1  0
 10 13  1  6
 10 14  1  0
 11 15  1  0
 12 16  1  0
 14 17  1  6
 14 18  1  0
 15 19  1  0
 16 20  1  0
 19 20  1  0
 17 21  1  0
 18 22  1  0
 21 23  1  6
 21 24  1  0
 22 24  1  0
M  CHG  1   1  -1
M  END
