ucsf262-ucsf412
     RDKit          3D

 26 29  0  0  0  0  0  0  0  0999 V2000
   -3.1050   15.9990   -4.5610 Cl  0  0  0  0  0  0  0  0  0  0  0  0
   -1.7390   16.7700   -5.4050 C   0  0  2  0  0  0  0  0  0  0  0  0
   -0.4490   16.1390   -4.8920 C   0  0  2  0  0  0  0  0  0  0  0  0
   -1.6510   18.2940   -5.3690 C   0  0  0  0  0  0  0  0  0  0  0  0
   -0.3070   15.5060   -3.5220 C   0  0  1  0  0  0  0  0  0  0  0  0
    0.6300   17.1650   -4.5990 C   0  0  1  0  0  0  0  0  0  0  0  0
   -0.4740   18.7260   -6.2470 C   0  0  0  0  0  0  0  0  0  0  0  0
   -1.2150   14.4360   -2.9730 C   0  0  0  0  0  0  0  0  0  0  0  0
    1.1420   15.0320   -3.6540 C   0  0  1  0  0  0  0  0  0  0  0  0
    1.7360   16.2840   -4.2050 N   0  0  0  0  0  0  0  0  0  0  0  0
    0.8540   18.1110   -5.7700 C   0  0  0  0  0  0  0  0  0  0  0  0
    1.7920   14.5060   -2.3330 C   0  0  2  0  0  0  0  0  0  0  0  0
   -1.5060   14.8250   -1.5360 C   0  0  0  0  0  0  0  0  0  0  0  0
    3.1050   14.4290   -2.4520 O   0  0  0  0  0  0  0  0  0  0  0  0
    1.4400   13.1480   -2.1160 O   0  0  0  0  0  0  0  0  0  0  0  0
   -2.9680   14.7120   -1.0970 C   0  0  1  0  0  0  0  0  0  0  0  0
   -3.1520   15.5640    0.1210 C   0  0  0  0  0  0  0  0  0  0  0  0
   -3.9640   15.0790   -2.1880 C   0  0  0  0  0  0  0  0  0  0  0  0
   -4.5490   15.4600    0.6890 C   0  0  1  0  0  0  0  0  0  0  0  0
   -5.3690   14.7610   -1.7200 C   0  0  0  0  0  0  0  0  0  0  0  0
   -5.6910   15.4060   -0.3620 C   0  0  1  0  0  0  0  0  0  0  0  0
   -4.6540   14.4090    1.7920 C   0  0  0  0  0  0  0  0  0  0  0  0
   -7.0170   14.8800    0.2610 C   0  0  1  0  0  0  0  0  0  0  0  0
   -5.9620   14.4860    2.5470 C   0  0  0  0  0  0  0  0  0  0  0  0
   -7.4270   13.6890   -0.3550 O   0  0  0  0  0  0  0  0  0  0  0  0
   -7.1480   14.6890    1.7080 N   0  0  0  0  0  0  0  0  0  0  0  0
  2  1  1  1
  3  2  1  1
  2  4  1  0
  3  5  1  0
  3  6  1  0
  4  7  1  0
  5  8  1  6
  5  9  1  0
  6 10  1  0
  9 10  1  1
  6 11  1  6
  7 11  1  0
  9 12  1  0
  8 13  1  0
 12 14  1  6
 12 15  1  0
 16 13  1  6
 16 17  1  0
 16 18  1  0
 19 17  1  6
 18 20  1  0
 19 21  1  0
 21 20  1  6
 19 22  1  0
 21 23  1  0
 22 24  1  0
 23 25  1  6
 23 26  1  0
 24 26  1  0
M  CHG  1  14  -1
M  END
