ucsf016-ucsf169
     RDKit          3D

 23 26  0  0  0  0  0  0  0  0999 V2000
    0.5370   17.6760   -4.4600 C   0  0  0  0  0  0  0  0  0  0  0  0
   -0.5160   16.8220   -4.9250 O   0  0  0  0  0  0  0  0  0  0  0  0
   -1.2910   16.0340   -3.9570 C   0  0  1  0  0  0  0  0  0  0  0  0
   -2.3900   16.8770   -3.6210 O   0  0  0  0  0  0  0  0  0  0  0  0
   -1.8670   14.8000   -4.7050 C   0  0  0  0  0  0  0  0  0  0  0  0
   -0.4580   15.6130   -2.7930 N   0  0  0  0  0  0  0  0  0  0  0  0
   -3.3000   14.3440   -4.4300 C   0  0  0  0  0  0  0  0  0  0  0  0
   -2.9870   15.0130   -5.7280 C   0  0  0  0  0  0  0  0  0  0  0  0
   -0.8700   13.6630   -5.0020 C   0  0  0  0  0  0  0  0  0  0  0  0
    0.7190   14.9550   -3.3970 C   0  0  0  0  0  0  0  0  0  0  0  0
   -0.9370   14.8450   -1.5800 C   0  0  1  0  0  0  0  0  0  0  0  0
    0.4390   13.6390   -4.1620 C   0  0  1  0  0  0  0  0  0  0  0  0
   -0.0830   15.3410   -0.4710 N   0  0  0  0  0  0  0  0  0  0  0  0
   -2.3410   14.7610   -0.9230 C   0  0  1  0  0  0  0  0  0  0  0  0
   -0.1590   14.6160    0.7980 C   0  0  0  0  0  0  0  0  0  0  0  0
   -2.3010   15.4180    0.4210 C   0  0  2  0  0  0  0  0  0  0  0  0
   -3.5570   15.4430   -1.5060 C   0  0  0  0  0  0  0  0  0  0  0  0
    0.6990   12.3580   -3.2990 C   0  0  1  0  0  0  0  0  0  0  0  0
   -1.4970   14.6840    1.3440 N   0  0  0  0  0  0  0  0  0  0  0  0
   -3.6630   15.3540    0.9210 N   0  0  0  0  0  0  0  0  0  0  0  0
   -4.4990   15.4750   -0.2910 C   0  0  0  0  0  0  0  0  0  0  0  0
    1.1890   12.7650   -2.0380 O   0  0  0  0  0  0  0  0  0  0  0  0
   -0.3590   11.6680   -2.9400 O   0  0  0  0  0  0  0  0  0  0  0  0
  1  2  1  0
  3  2  1  0
  3  4  1  1
  3  5  1  0
  3  6  1  0
  5  7  1  0
  5  8  1  0
  7  8  1  0
  5  9  1  0
  6 10  1  0
 11  6  1  6
 12  9  1  1
 10 12  1  0
 11 13  1  0
 11 14  1  0
 13 15  1  0
 14 16  1  0
 14 17  1  6
 12 18  1  0
 15 19  1  0
 16 19  1  1
 16 20  1  0
 17 21  1  0
 20 21  1  0
 18 22  1  1
 18 23  1  0
M  CHG  1  23  -1
M  END
