ucsf169-ucsf135
     RDKit          3D

 24 26  0  0  0  0  0  0  0  0999 V2000
    1.3560   18.6380   -5.6750 C   0  0  0  0  0  0  0  0  0  0  0  0
    0.1340   18.3630   -5.0410 O   0  0  0  0  0  0  0  0  0  0  0  0
   -0.3180   17.1090   -5.5070 C   0  0  2  0  0  0  0  0  0  0  0  0
   -1.6220   16.8170   -4.8280 C   0  0  1  0  0  0  0  0  0  0  0  0
    0.6590   16.0380   -5.0820 C   0  0  0  0  0  0  0  0  0  0  0  0
   -2.4090   17.9980   -4.8390 O   0  0  0  0  0  0  0  0  0  0  0  0
   -2.3380   15.5710   -5.2710 C   0  0  0  0  0  0  0  0  0  0  0  0
   -0.0590   14.9310   -4.3140 C   0  0  2  0  0  0  0  0  0  0  0  0
    0.9510   13.8240   -4.0650 C   0  0  0  0  0  0  0  0  0  0  0  0
   -1.3470   14.4270   -5.0350 C   0  0  0  0  0  0  0  0  0  0  0  0
    0.4910   12.7710   -3.0890 C   0  0  2  0  0  0  0  0  0  0  0  0
    0.9690   13.0760   -1.7840 O   0  0  0  0  0  0  0  0  0  0  0  0
    1.0600   11.5860   -3.5690 O   0  0  0  0  0  0  0  0  0  0  0  0
    0.2900   11.0360   -4.6840 N   0  0  0  0  0  0  0  0  0  0  0  0
    0.3640   11.6840   -6.0270 C   0  0  1  0  0  0  0  0  0  0  0  0
   -1.3260   10.8090   -4.2850 S   0  0  1  0  0  0  0  0  0  0  0  0
    1.6450   11.7640   -6.6410 O   0  0  0  0  0  0  0  0  0  0  0  0
   -2.0360   12.2410   -4.1420 O   0  0  0  0  0  0  0  0  0  0  0  0
   -1.8040   10.3540   -5.9220 C   0  0  1  0  0  0  0  0  0  0  0  0
   -0.6850   10.8910   -6.8830 C   0  0  2  0  0  0  0  0  0  0  0  0
   -2.0170    8.8640   -5.9850 C   0  0  0  0  0  0  0  0  0  0  0  0
   -0.1460    9.7710   -7.8100 C   0  0  0  0  0  0  0  0  0  0  0  0
   -2.2310    8.3310   -7.3900 C   0  0  0  0  0  0  0  0  0  0  0  0
   -1.2200    8.8590   -8.4060 C   0  0  0  0  0  0  0  0  0  0  0  0
  1  2  1  0
  3  2  1  1
  3  4  1  0
  3  5  1  0
  4  6  1  6
  4  7  1  0
  5  8  1  0
  8  9  1  6
  7 10  1  0
  8 10  1  0
  9 11  1  0
 11 12  1  1
 11 13  1  0
 13 14  1  0
 14 15  1  0
 14 16  1  0
 15 17  1  6
 16 18  1  6
 16 19  1  0
 15 20  1  0
 19 20  1  0
 19 21  1  1
 20 22  1  1
 21 23  1  0
 22 24  1  0
 23 24  1  0
M  END
