ucsf278-ucsf241
     RDKit          3D

 22 25  0  0  0  0  0  0  0  0999 V2000
   -1.0460   12.6700   -1.7880 Cl  0  0  0  0  0  0  0  0  0  0  0  0
    0.5850   12.8950   -2.4650 C   0  0  1  0  0  0  0  0  0  0  0  0
    0.4840   12.4550   -3.8960 C   0  0  1  0  0  0  0  0  0  0  0  0
    1.0030   14.3580   -2.4140 C   0  0  2  0  0  0  0  0  0  0  0  0
   -0.1700   15.1950   -2.0050 C   0  0  0  0  0  0  0  0  0  0  0  0
   -0.6710   11.5810   -4.2780 C   0  0  0  0  0  0  0  0  0  0  0  0
    0.3330   13.5970   -4.8710 C   0  0  2  0  0  0  0  0  0  0  0  0
    1.9460   14.9060   -3.4960 C   0  0  0  0  0  0  0  0  0  0  0  0
   -0.4350   11.5490   -5.7720 C   0  0  2  0  0  0  0  0  0  0  0  0
    0.0080   12.9230   -6.1410 N   0  0  0  0  0  0  0  0  0  0  0  0
    1.6100   14.3780   -4.8820 C   0  0  0  0  0  0  0  0  0  0  0  0
   -0.8720   14.8870   -0.6750 C   0  0  1  0  0  0  0  0  0  0  0  0
   -1.6610   11.0990   -6.5530 C   0  0  0  0  0  0  0  0  0  0  0  0
   -2.3480   14.4030   -0.4980 C   0  0  2  0  0  0  0  0  0  0  0  0
    0.0160   13.9530    0.0910 C   0  0  0  0  0  0  0  0  0  0  0  0
   -2.5090   10.3490   -5.6840 O   0  0  0  0  0  0  0  0  0  0  0  0
   -3.5240   15.1870   -1.1090 C   0  0  0  0  0  0  0  0  0  0  0  0
   -2.6180   14.4450    0.9960 C   0  0  2  0  0  0  0  0  0  0  0  0
   -0.2750   14.1510    1.5590 C   0  0  0  0  0  0  0  0  0  0  0  0
   -4.5130   15.4010    0.0350 C   0  0  0  0  0  0  0  0  0  0  0  0
   -3.7380   15.3070    1.2650 N   0  0  0  0  0  0  0  0  0  0  0  0
   -1.4920   14.9130    1.7290 N   0  0  0  0  0  0  0  0  0  0  0  0
  2  1  1  6
  2  3  1  0
  2  4  1  0
  4  5  1  6
  3  6  1  1
  3  7  1  0
  4  8  1  0
  6  9  1  0
  7 10  1  0
  9 10  1  0
  7 11  1  6
  8 11  1  0
 12  5  1  6
  9 13  1  6
 12 14  1  0
 12 15  1  0
 13 16  1  0
 14 17  1  6
 14 18  1  0
 15 19  1  0
 17 20  1  0
 18 21  1  6
 20 21  1  0
 18 22  1  0
 19 22  1  0
M  END
