ucsf337-ucsf380
     RDKit          3D

 19 20  0  0  0  0  0  0  0  0999 V2000
   -7.4140   14.6440    0.5650 C   0  0  0  0  0  0  0  0  0  0  0  0
   -6.1530   14.2840   -0.2400 C   0  0  1  0  0  0  0  0  0  0  0  0
   -5.8990   15.3540   -1.2170 N   0  0  0  0  0  0  0  0  0  0  0  0
   -4.9290   14.0110    0.6360 C   0  0  2  0  0  0  0  0  0  0  0  0
   -4.4030   15.4930    1.7920 Br  0  0  0  0  0  0  0  0  0  0  0  0
   -3.7030   13.6780   -0.1930 C   0  0  0  0  0  0  0  0  0  0  0  0
   -4.6570   15.2130   -2.0110 C   0  0  2  0  0  0  0  0  0  0  0  0
   -5.0380   14.4420   -3.1780 N   0  0  0  0  0  0  0  0  0  0  0  0
   -3.3620   14.7610   -1.2360 C   0  0  2  0  0  0  0  0  0  0  0  0
   -2.0050   14.3880   -2.0680 C   0  0  1  0  0  0  0  0  0  0  0  0
   -0.6430   14.1660   -1.2520 C   0  0  2  0  0  0  0  0  0  0  0  0
   -2.1140   13.3210   -3.2400 C   0  0  0  0  0  0  0  0  0  0  0  0
    0.3420   14.8960   -1.7370 O   0  0  0  0  0  0  0  0  0  0  0  0
   -0.1100   12.8400   -1.3570 O   0  0  0  0  0  0  0  0  0  0  0  0
   -2.6670   11.9440   -2.8210 C   0  0  0  0  0  0  0  0  0  0  0  0
   -0.8710   13.1510   -4.1310 C   0  0  0  0  0  0  0  0  0  0  0  0
   -3.0030   11.0580   -4.0230 C   0  0  0  0  0  0  0  0  0  0  0  0
   -1.1710   12.2640   -5.3450 C   0  0  0  0  0  0  0  0  0  0  0  0
   -1.8330   10.9280   -4.9980 C   0  0  0  0  0  0  0  0  0  0  0  0
  2  1  1  1
  2  3  1  0
  2  4  1  0
  4  5  1  6
  4  6  1  0
  3  7  1  0
  7  8  1  6
  9  6  1  6
  7  9  1  0
  9 10  1  0
 10 11  1  0
 10 12  1  1
 11 13  1  6
 11 14  1  0
 12 15  1  0
 12 16  1  0
 15 17  1  0
 16 18  1  0
 17 19  1  0
 18 19  1  0
M  CHG  1  13  -1
M  END
