ucsf135-ucsf378
     RDKit          3D

 22 24  0  0  0  0  0  0  0  0999 V2000
    1.6430   11.3750   -7.5530 O   0  0  0  0  0  0  0  0  0  0  0  0
    0.4890   11.5910   -6.8590 C   0  0  2  0  0  0  0  0  0  0  0  0
    0.8550   11.7690   -5.4840 N   0  0  0  0  0  0  0  0  0  0  0  0
   -0.4260   10.3570   -6.8760 C   0  0  1  0  0  0  0  0  0  0  0  0
   -0.5330   11.4880   -4.6360 S   0  0  2  0  0  0  0  0  0  0  0  0
   -1.5100   10.5710   -5.8270 C   0  0  2  0  0  0  0  0  0  0  0  0
   -0.9830    9.8660   -8.1870 C   0  0  0  0  0  0  0  0  0  0  0  0
   -1.0930   12.9370   -4.3760 O   0  0  0  0  0  0  0  0  0  0  0  0
   -0.4910   10.6140   -3.3030 O   0  0  0  0  0  0  0  0  0  0  0  0
   -2.1510    9.2420   -5.4850 C   0  0  0  0  0  0  0  0  0  0  0  0
   -1.7980    8.5800   -7.9880 C   0  0  0  0  0  0  0  0  0  0  0  0
    0.4220   11.0090   -2.2730 C   0  0  0  0  0  0  0  0  0  0  0  0
   -2.6850    8.5170   -6.7270 C   0  0  0  0  0  0  0  0  0  0  0  0
   -0.3350   13.7920   -3.4720 C   0  0  1  0  0  0  0  0  0  0  0  0
   -0.1670   11.7270   -1.3330 O   0  0  0  0  0  0  0  0  0  0  0  0
    1.1900   14.1290   -3.7090 C   0  0  1  0  0  0  0  0  0  0  0  0
   -1.1980   15.0280   -3.5160 C   0  0  2  0  0  0  0  0  0  0  0  0
   -2.9020   14.5770   -3.8050 Cl  0  0  0  0  0  0  0  0  0  0  0  0
    2.3750   12.8200   -4.0110 Cl  0  0  0  0  0  0  0  0  0  0  0  0
    1.5120   15.2050   -4.7150 C   0  0  0  0  0  0  0  0  0  0  0  0
   -0.7720   16.0820   -4.5490 C   0  0  0  0  0  0  0  0  0  0  0  0
    0.6930   16.4450   -4.5230 C   0  0  0  0  0  0  0  0  0  0  0  0
  2  1  1  6
  2  3  1  0
  2  4  1  0
  3  5  1  0
  4  6  1  0
  5  6  1  0
  4  7  1  6
  5  8  1  1
  5  9  1  0
  6 10  1  1
  7 11  1  0
  9 12  1  0
 10 13  1  0
 11 13  1  0
 14  8  1  6
 12 15  1  0
 14 16  1  0
 14 17  1  0
 17 18  1  6
 16 19  1  6
 16 20  1  0
 17 21  1  0
 20 22  1  0
 21 22  1  0
M  CHG  1  15  -1
M  END
