ucsf172-ucsf213
     RDKit          3D

 27 29  0  0  0  0  0  0  0  0999 V2000
   -8.2330   14.9780    2.4330 C   0  0  0  0  0  0  0  0  0  0  0  0
   -7.0700   14.3350    1.2840 S   0  0  0  0  0  0  0  0  0  0  0  0
   -6.7700   12.8690    1.8200 O   0  0  0  0  0  0  0  0  0  0  0  0
   -7.8970   14.2440   -0.0830 O   0  0  0  0  0  0  0  0  0  0  0  0
   -5.6650   15.1050    1.1160 N   0  0  0  0  0  0  0  0  0  0  0  0
   -4.6820   14.8080    0.1150 C   0  0  2  0  0  0  0  0  0  0  0  0
   -3.3150   15.1470    0.6980 C   0  0  0  0  0  0  0  0  0  0  0  0
   -4.9610   15.5380   -1.1940 C   0  0  0  0  0  0  0  0  0  0  0  0
   -2.2080   14.6590   -0.2000 C   0  0  0  0  0  0  0  0  0  0  0  0
   -3.8120   15.3730   -2.1850 C   0  0  0  0  0  0  0  0  0  0  0  0
   -2.6510   14.5020   -1.6730 C   0  0  1  0  0  0  0  0  0  0  0  0
   -1.4330   14.5740   -2.6050 C   0  0  1  0  0  0  0  0  0  0  0  0
   -1.3920   13.3650   -3.3110 O   0  0  0  0  0  0  0  0  0  0  0  0
   -1.6030   15.6640   -3.4890 O   0  0  0  0  0  0  0  0  0  0  0  0
   -1.2070   15.6170   -4.8540 C   0  0  1  0  0  0  0  0  0  0  0  0
    0.2430   16.1400   -5.0510 C   0  0  2  0  0  0  0  0  0  0  0  0
   -0.8640   13.9190   -5.3740 S   0  0  0  0  0  0  0  0  0  0  0  0
   -2.2980   16.4710   -5.5670 C   0  0  0  0  0  0  0  0  0  0  0  0
    0.3910   13.9280   -4.0130 C   0  0  2  0  0  0  0  0  0  0  0  0
    1.1920   15.2190   -4.2630 C   0  0  0  0  0  0  0  0  0  0  0  0
    0.3640   17.6400   -4.8440 C   0  0  0  0  0  0  0  0  0  0  0  0
   -1.9430   17.9560   -5.8620 C   0  0  0  0  0  0  0  0  0  0  0  0
    1.1560   12.6040   -3.7190 C   0  0  0  0  0  0  0  0  0  0  0  0
   -0.4670   18.3250   -5.9260 C   0  0  0  0  0  0  0  0  0  0  0  0
    0.4360   11.8130   -2.5900 C   0  0  1  0  0  0  0  0  0  0  0  0
    0.7420   10.5400   -2.4340 O   0  0  0  0  0  0  0  0  0  0  0  0
    0.7210   12.3870   -1.3370 O   0  0  0  0  0  0  0  0  0  0  0  0
  1  2  1  0
  2  3  1  0
  2  4  1  0
  2  5  1  0
  6  5  1  1
  6  7  1  0
  6  8  1  0
  7  9  1  0
  8 10  1  0
 11  9  1  1
 10 11  1  0
 11 12  1  0
 12 13  1  6
 12 14  1  0
 15 14  1  1
 15 16  1  0
 15 17  1  0
 15 18  1  0
 17 19  1  0
 16 20  1  1
 19 20  1  0
 16 21  1  0
 18 22  1  0
 19 23  1  6
 21 24  1  0
 22 24  1  0
 23 25  1  0
 25 26  1  1
 25 27  1  0
M  CHG  1  26  -1
M  END
