ucsf333-ucsf151
     RDKit          3D

 23 25  0  0  0  0  0  0  0  0999 V2000
   -6.1610   15.4590   -1.6800 Cl  0  0  0  0  0  0  0  0  0  0  0  0
   -4.6530   14.7290   -1.0690 C   0  0  1  0  0  0  0  0  0  0  0  0
   -3.4870   14.7960   -2.0800 C   0  0  0  0  0  0  0  0  0  0  0  0
   -4.2770   15.3350    0.2850 C   0  0  0  0  0  0  0  0  0  0  0  0
   -2.3460   15.6730   -1.5240 C   0  0  2  0  0  0  0  0  0  0  0  0
   -2.9170   14.7910    0.7670 C   0  0  0  0  0  0  0  0  0  0  0  0
   -1.1910   15.8660   -2.3870 N   0  0  0  0  0  0  0  0  0  0  0  0
   -1.7970   15.2160   -0.1720 C   0  0  1  0  0  0  0  0  0  0  0  0
   -0.1130   14.8840   -2.1240 C   0  0  1  0  0  0  0  0  0  0  0  0
   -0.5600   13.9900   -0.5820 S   0  0  0  0  0  0  0  0  0  0  0  0
    0.1770   14.1680   -3.4810 C   0  0  2  0  0  0  0  0  0  0  0  0
    0.8310   12.7450   -3.5210 C   0  0  0  0  0  0  0  0  0  0  0  0
    1.1040   15.0200   -4.1700 O   0  0  0  0  0  0  0  0  0  0  0  0
   -1.1860   14.1820   -4.2090 C   0  0  1  0  0  0  0  0  0  0  0  0
    1.0270   11.8980   -2.2560 C   0  0  1  0  0  0  0  0  0  0  0  0
   -1.4370   15.5150   -4.9140 C   0  0  0  0  0  0  0  0  0  0  0  0
   -1.5500   12.9880   -5.0880 C   0  0  0  0  0  0  0  0  0  0  0  0
    0.1940   12.1570   -1.2920 O   0  0  0  0  0  0  0  0  0  0  0  0
    0.6390   10.5430   -2.4760 O   0  0  0  0  0  0  0  0  0  0  0  0
   -2.8160   15.6290   -5.5410 C   0  0  1  0  0  0  0  0  0  0  0  0
   -2.8950   13.0170   -5.6620 N   0  0  0  0  0  0  0  0  0  0  0  0
   -2.8290   16.7740   -6.4280 O   0  0  0  0  0  0  0  0  0  0  0  0
   -3.2920   14.3180   -6.2300 C   0  0  0  0  0  0  0  0  0  0  0  0
  2  1  1  6
  2  3  1  0
  2  4  1  0
  5  3  1  6
  4  6  1  0
  5  7  1  0
  5  8  1  0
  8  6  1  1
  9  7  1  6
  8 10  1  0
  9 10  1  0
  9 11  1  0
 11 12  1  0
 11 13  1  6
 11 14  1  0
 12 15  1  0
 14 16  1  6
 14 17  1  0
 15 18  1  1
 15 19  1  0
 16 20  1  0
 17 21  1  0
 20 22  1  6
 20 23  1  0
 21 23  1  0
M  CHG  1  18  -1
M  END
