ucsf169-ucsf243
     RDKit          3D

 22 23  0  0  0  0  0  0  0  0999 V2000
    1.1360   18.3470   -5.6760 C   0  0  0  0  0  0  0  0  0  0  0  0
    0.4010   18.2920   -4.4680 O   0  0  0  0  0  0  0  0  0  0  0  0
   -0.2220   17.0310   -4.2460 C   0  0  1  0  0  0  0  0  0  0  0  0
   -1.4430   17.0190   -5.1740 C   0  0  2  0  0  0  0  0  0  0  0  0
    0.6530   15.7940   -4.4500 C   0  0  0  0  0  0  0  0  0  0  0  0
   -2.2390   18.1860   -4.9070 O   0  0  0  0  0  0  0  0  0  0  0  0
   -2.2640   15.7420   -5.0730 C   0  0  0  0  0  0  0  0  0  0  0  0
   -0.1380   14.5190   -4.1670 C   0  0  2  0  0  0  0  0  0  0  0  0
    0.7340   13.2250   -4.1850 C   0  0  0  0  0  0  0  0  0  0  0  0
   -1.3910   14.4610   -5.0620 C   0  0  0  0  0  0  0  0  0  0  0  0
    0.9780   12.5070   -2.8080 C   0  0  1  0  0  0  0  0  0  0  0  0
    0.7090   13.4390   -1.7290 O   0  0  0  0  0  0  0  0  0  0  0  0
    0.1410   11.4850   -2.6570 O   0  0  0  0  0  0  0  0  0  0  0  0
   -0.2720   14.4590   -1.9620 C   0  0  0  0  0  0  0  0  0  0  0  0
   -1.7000   13.9770   -1.6040 C   0  0  1  0  0  0  0  0  0  0  0  0
   -2.1940   14.5380   -0.2520 C   0  0  0  0  0  0  0  0  0  0  0  0
   -2.7840   14.0570   -2.7100 C   0  0  2  0  0  0  0  0  0  0  0  0
   -2.2770   13.8290   -4.0050 O   0  0  0  0  0  0  0  0  0  0  0  0
   -3.2430   15.6540   -0.2950 C   0  0  2  0  0  0  0  0  0  0  0  0
   -3.6880   15.2770   -2.7040 C   0  0  0  0  0  0  0  0  0  0  0  0
   -3.8950   15.8290    1.0750 C   0  0  0  0  0  0  0  0  0  0  0  0
   -4.3240   15.4240   -1.3490 C   0  0  0  0  0  0  0  0  0  0  0  0
  1  2  1  0
  3  2  1  6
  3  4  1  0
  3  5  1  0
  4  6  1  1
  4  7  1  0
  5  8  1  0
  8  9  1  6
  7 10  1  0
  8 10  1  0
  9 11  1  0
 11 12  1  0
 11 13  1  1
 12 14  1  0
 15 14  1  6
 15 16  1  0
 15 17  1  0
 17 18  1  6
 16 19  1  0
 17 20  1  0
 19 21  1  1
 19 22  1  0
 20 22  1  0
M  CHG  1  13  -1
M  END
