ucsf262-ucsf124
     RDKit          3D

 26 29  0  0  0  0  0  0  0  0999 V2000
   -3.2620   15.9450   -5.9080 Cl  0  0  0  0  0  0  0  0  0  0  0  0
   -1.9710   16.9040   -5.1530 C   0  0  1  0  0  0  0  0  0  0  0  0
   -0.8080   15.9980   -4.9930 C   0  0  2  0  0  0  0  0  0  0  0  0
   -1.7270   18.1630   -6.0020 C   0  0  0  0  0  0  0  0  0  0  0  0
   -0.9640   15.0990   -3.8350 C   0  0  0  0  0  0  0  0  0  0  0  0
    0.5240   16.5440   -4.8010 C   0  0  2  0  0  0  0  0  0  0  0  0
   -0.2590   18.5030   -6.0270 C   0  0  0  0  0  0  0  0  0  0  0  0
    0.3670   14.6330   -3.8590 C   0  0  1  0  0  0  0  0  0  0  0  0
    1.0870   15.9220   -3.5960 N   0  0  0  0  0  0  0  0  0  0  0  0
    0.5340   18.0020   -4.8710 C   0  0  0  0  0  0  0  0  0  0  0  0
    0.8550   13.2410   -3.1000 S   0  0  0  0  0  0  0  0  0  0  0  0
    2.9690   14.0370   -3.3350 O   0  0  0  0  0  0  0  0  0  0  0  0
    0.4340   13.6140   -1.3590 O   0  0  0  0  0  0  0  0  0  0  0  0
    2.7040   12.9290   -1.9370 O   0  0  0  0  0  0  0  0  0  0  0  0
    0.7920   11.9530   -4.3570 C   0  0  0  0  0  0  0  0  0  0  0  0
    0.1320   11.8470   -5.5530 N   0  0  0  0  0  0  0  0  0  0  0  0
   -1.1770   11.3250   -5.4760 C   0  0  2  0  0  0  0  0  0  0  0  0
    0.7190   11.3500   -6.7100 C   0  0  2  0  0  0  0  0  0  0  0  0
   -1.6400   11.3580   -4.1600 O   0  0  0  0  0  0  0  0  0  0  0  0
    0.5910   12.1560   -7.7750 O   0  0  0  0  0  0  0  0  0  0  0  0
   -1.0940    9.9080   -6.0220 C   0  0  2  0  0  0  0  0  0  0  0  0
    0.0180   10.0400   -7.0000 C   0  0  1  0  0  0  0  0  0  0  0  0
   -2.3750    9.4360   -6.6510 C   0  0  0  0  0  0  0  0  0  0  0  0
   -0.3510    9.8260   -8.4150 C   0  0  0  0  0  0  0  0  0  0  0  0
   -2.2030    8.3330   -7.6470 C   0  0  0  0  0  0  0  0  0  0  0  0
   -1.1630    8.6040   -8.6800 C   0  0  0  0  0  0  0  0  0  0  0  0
  2  1  1  6
  2  3  1  0
  2  4  1  0
  3  5  1  1
  3  6  1  0
  4  7  1  0
  5  8  1  0
  6  9  1  0
  8  9  1  0
  6 10  1  1
  7 10  1  0
  8 11  1  1
 11 12  1  0
 11 13  1  0
 11 14  1  0
 11 15  1  0
 15 16  1  0
 16 17  1  0
 16 18  1  0
 17 19  1  1
 18 20  1  6
 17 21  1  0
 18 22  1  0
 21 22  1  0
 21 23  1  6
 22 24  1  6
 23 25  1  0
 24 26  1  0
 25 26  1  0
M  CHG  2  12  -1  14  -1
M  END
