ucsf124-ucsf004
     RDKit          3D

 30 34  0  0  0  0  0  0  0  0999 V2000
    0.7780   10.6210   -2.5670 O   0  0  0  0  0  0  0  0  0  0  0  0
    0.6360   11.9250   -2.8150 C   0  0  1  0  0  0  0  0  0  0  0  0
    1.5740   12.4970   -1.9330 O   0  0  0  0  0  0  0  0  0  0  0  0
    1.0860   12.3230   -4.2670 C   0  0  0  0  0  0  0  0  0  0  0  0
    0.2390   11.9170   -5.4210 N   0  0  0  0  0  0  0  0  0  0  0  0
   -0.9330   11.1430   -5.0020 C   0  0  1  0  0  0  0  0  0  0  0  0
    0.8820   11.2040   -6.5220 C   0  0  2  0  0  0  0  0  0  0  0  0
   -2.0860   11.9930   -4.9290 O   0  0  0  0  0  0  0  0  0  0  0  0
    1.6310   12.0420   -7.3300 O   0  0  0  0  0  0  0  0  0  0  0  0
   -1.0510   10.0410   -6.0920 C   0  0  2  0  0  0  0  0  0  0  0  0
   -0.2970   10.6210   -7.2600 C   0  0  2  0  0  0  0  0  0  0  0  0
   -2.4200    9.5440   -6.5160 C   0  0  0  0  0  0  0  0  0  0  0  0
    0.0020    9.5740   -8.3390 C   0  0  0  0  0  0  0  0  0  0  0  0
   -1.8380   13.4370   -4.9630 C   0  0  1  0  0  0  0  0  0  0  0  0
   -2.2470    8.4730   -7.6040 C   0  0  0  0  0  0  0  0  0  0  0  0
   -1.2810    8.8400   -8.7520 C   0  0  0  0  0  0  0  0  0  0  0  0
   -2.2280   14.1250   -3.6230 C   0  0  0  0  0  0  0  0  0  0  0  0
   -0.3660   13.7260   -5.3030 C   0  0  0  0  0  0  0  0  0  0  0  0
   -1.1060   14.2310   -2.6910 N   0  0  0  0  0  0  0  0  0  0  0  0
    0.0970   15.0590   -4.7230 C   0  0  0  0  0  0  0  0  0  0  0  0
    0.0470   15.0140   -3.1900 C   0  0  0  0  0  0  0  0  0  0  0  0
   -1.3010   14.0780   -1.2500 C   0  0  1  0  0  0  0  0  0  0  0  0
   -0.2120   14.8480   -0.6380 N   0  0  0  0  0  0  0  0  0  0  0  0
   -2.6480   14.3490   -0.5620 C   0  0  1  0  0  0  0  0  0  0  0  0
   -0.1230   14.6650    0.7810 C   0  0  0  0  0  0  0  0  0  0  0  0
   -2.5600   14.6620    0.9280 C   0  0  1  0  0  0  0  0  0  0  0  0
   -3.7540   15.2050   -1.1460 C   0  0  0  0  0  0  0  0  0  0  0  0
   -1.3090   15.2040    1.3950 N   0  0  0  0  0  0  0  0  0  0  0  0
   -3.5920   15.6590    1.1670 N   0  0  0  0  0  0  0  0  0  0  0  0
   -4.5740   15.5340    0.0830 C   0  0  0  0  0  0  0  0  0  0  0  0
  2  1  1  6
  2  3  1  0
  2  4  1  0
  4  5  1  0
  5  6  1  0
  5  7  1  0
  6  8  1  6
  7  9  1  6
  6 10  1  0
  7 11  1  0
 10 11  1  0
 10 12  1  6
 11 13  1  6
 14  8  1  1
 12 15  1  0
 13 16  1  0
 15 16  1  0
 14 17  1  0
 14 18  1  0
 17 19  1  0
 18 20  1  0
 19 21  1  0
 20 21  1  0
 22 19  1  6
 22 23  1  0
 22 24  1  0
 23 25  1  0
 24 26  1  0
 24 27  1  6
 25 28  1  0
 26 28  1  6
 26 29  1  0
 27 30  1  0
 29 30  1  0
M  CHG  1   1  -1
M  END
