ucsf173-ucsf248
     RDKit          3D

 26 29  0  0  0  0  0  0  0  0999 V2000
    0.2200   12.5340   -1.1750 O   0  0  0  0  0  0  0  0  0  0  0  0
    0.6150   12.7230   -2.4230 C   0  0  1  0  0  0  0  0  0  0  0  0
   -0.2080   11.7990   -3.1090 O   0  0  0  0  0  0  0  0  0  0  0  0
    0.3200   14.1800   -2.9480 C   0  0  2  0  0  0  0  0  0  0  0  0
   -1.1880   14.5070   -3.2280 C   0  0  1  0  0  0  0  0  0  0  0  0
    1.1270   14.7560   -4.1320 C   0  0  0  0  0  0  0  0  0  0  0  0
   -1.7590   15.2700   -1.9820 C   0  0  0  0  0  0  0  0  0  0  0  0
   -1.2150   15.2800   -4.5860 C   0  0  2  0  0  0  0  0  0  0  0  0
    0.2190   15.7780   -4.8270 C   0  0  1  0  0  0  0  0  0  0  0  0
   -2.3010   16.3510   -4.8080 C   0  0  0  0  0  0  0  0  0  0  0  0
    0.4320   17.2200   -4.3890 C   0  0  0  0  0  0  0  0  0  0  0  0
   -3.1440   14.7570   -1.4990 C   0  0  1  0  0  0  0  0  0  0  0  0
   -1.8010   17.5430   -5.6340 C   0  0  0  0  0  0  0  0  0  0  0  0
   -0.5390   18.1790   -5.0650 C   0  0  0  0  0  0  0  0  0  0  0  0
   -3.5910   15.1870   -0.0690 C   0  0  0  0  0  0  0  0  0  0  0  0
   -4.1670   15.1100   -2.6080 C   0  0  0  0  0  0  0  0  0  0  0  0
   -5.0030   14.6700    0.1580 C   0  0  1  0  0  0  0  0  0  0  0  0
   -5.6430   14.9490   -2.2420 C   0  0  0  0  0  0  0  0  0  0  0  0
   -5.7010   14.8170    1.4280 N   0  0  0  0  0  0  0  0  0  0  0  0
   -5.9600   15.3230   -0.8070 C   0  0  1  0  0  0  0  0  0  0  0  0
   -6.9810   14.2650    0.9940 C   0  0  2  0  0  0  0  0  0  0  0  0
   -7.2810   14.8870   -0.2980 N   0  0  0  0  0  0  0  0  0  0  0  0
   -8.3520   14.3460    2.1890 S   0  0  0  0  0  0  0  0  0  0  0  0
   -8.6760   12.9660    3.0280 N   0  0  0  0  0  0  0  0  0  0  0  0
   -8.0740   15.5710    3.1690 O   0  0  0  0  0  0  0  0  0  0  0  0
   -9.6380   14.7510    1.3130 O   0  0  0  0  0  0  0  0  0  0  0  0
  2  1  1  1
  2  3  1  0
  2  4  1  0
  4  5  1  0
  4  6  1  6
  5  7  1  1
  5  8  1  0
  9  6  1  1
  8  9  1  0
  8 10  1  1
  9 11  1  0
 12  7  1  6
 10 13  1  0
 11 14  1  0
 13 14  1  0
 12 15  1  0
 12 16  1  0
 17 15  1  1
 16 18  1  0
 17 19  1  0
 17 20  1  0
 20 18  1  6
 19 21  1  0
 20 22  1  0
 21 22  1  0
 21 23  1  1
 23 24  1  0
 23 25  1  0
 23 26  1  0
M  CHG  1   1  -1
M  END
