ucsf012-ucsf274
     RDKit          3D

 33 37  0  0  0  0  0  0  0  0999 V2000
   -3.2370   14.8600   -4.2250 C   0  0  0  0  0  0  0  0  0  0  0  0
   -2.5450   15.3810   -2.9640 C   0  0  1  0  0  0  0  0  0  0  0  0
   -3.3090   14.9240   -1.7010 C   0  0  2  0  0  0  0  0  0  0  0  0
   -1.1420   14.9530   -2.6980 N   0  0  0  0  0  0  0  0  0  0  0  0
   -4.7470   15.4410   -1.5740 C   0  0  0  0  0  0  0  0  0  0  0  0
   -0.4080   13.7720   -3.4510 C   0  0  2  0  0  0  0  0  0  0  0  0
   -2.3860   15.5080   -0.6650 C   0  0  2  0  0  0  0  0  0  0  0  0
   -0.9870   15.1790   -1.2260 C   0  0  1  0  0  0  0  0  0  0  0  0
    1.1420   13.4610   -2.9760 C   0  0  2  0  0  0  0  0  0  0  0  0
   -0.4620   13.7130   -5.0690 C   0  0  0  0  0  0  0  0  0  0  0  0
   -2.6720   15.1260    0.8000 C   0  0  1  0  0  0  0  0  0  0  0  0
   -0.4700   14.0330   -0.5030 N   0  0  0  0  0  0  0  0  0  0  0  0
   -1.2160   12.4560   -3.0560 C   0  0  2  0  0  0  0  0  0  0  0  0
   -3.8700   14.3280    1.0020 N   0  0  0  0  0  0  0  0  0  0  0  0
    1.7080   12.3890   -3.5180 O   0  0  0  0  0  0  0  0  0  0  0  0
    1.2250   13.0700   -1.6190 O   0  0  0  0  0  0  0  0  0  0  0  0
   -1.6180   14.4110    1.5110 N   0  0  0  0  0  0  0  0  0  0  0  0
   -0.3050   14.3930    0.8810 C   0  0  0  0  0  0  0  0  0  0  0  0
   -0.6740   11.6100   -1.9470 C   0  0  0  0  0  0  0  0  0  0  0  0
   -1.3400   11.4870   -4.0940 O   0  0  0  0  0  0  0  0  0  0  0  0
   -1.0620   12.5330   -5.9330 C   0  0  2  0  0  0  0  0  0  0  0  0
   -0.1810   10.6700   -4.0170 C   0  0  0  0  0  0  0  0  0  0  0  0
    0.3920   10.8370   -2.6400 C   0  0  0  0  0  0  0  0  0  0  0  0
   -2.3410   11.8430   -5.3010 C   0  0  1  0  0  0  0  0  0  0  0  0
   -0.1170   11.5000   -6.4880 N   0  0  0  0  0  0  0  0  0  0  0  0
   -3.3360   12.8070   -5.0270 O   0  0  0  0  0  0  0  0  0  0  0  0
   -2.9780   10.8100   -6.0990 N   0  0  0  0  0  0  0  0  0  0  0  0
   -0.5610   10.0760   -6.5850 C   0  0  1  0  0  0  0  0  0  0  0  0
   -2.0390    9.7050   -6.2610 C   0  0  2  0  0  0  0  0  0  0  0  0
   -0.1240    9.5250   -7.9500 C   0  0  0  0  0  0  0  0  0  0  0  0
   -0.3570    8.0170   -8.0680 C   0  0  0  0  0  0  0  0  0  0  0  0
   -2.6510    8.6890   -7.2310 C   0  0  0  0  0  0  0  0  0  0  0  0
   -1.6940    7.5360   -7.4990 C   0  0  0  0  0  0  0  0  0  0  0  0
  2  1  1  6
  2  3  1  0
  2  4  1  0
  3  5  1  6
  4  6  1  0
  3  7  1  0
  4  8  1  0
  7  8  1  0
  6  9  1  0
  6 10  1  6
  7 11  1  1
  8 12  1  1
  6 13  1  0
 11 14  1  6
  9 15  1  6
  9 16  1  0
 11 17  1  0
 12 18  1  0
 17 18  1  0
 13 19  1  1
 13 20  1  0
 21 10  1  1
 20 22  1  0
 19 23  1  0
 22 23  1  0
 21 24  1  0
 21 25  1  0
 24 26  1  6
 24 27  1  0
 25 28  1  0
 27 29  1  0
 28 29  1  0
 28 30  1  6
 30 31  1  0
 29 32  1  6
 31 33  1  0
 32 33  1  0
M  CHG  1  15  -1
M  END
