ucsf224-ucsf487
     RDKit          3D

 25 27  0  0  0  0  0  0  0  0999 V2000
   -1.0630   18.1190   -5.9820 Cl  0  0  0  0  0  0  0  0  0  0  0  0
   -0.4910   16.8680   -4.8350 C   0  0  1  0  0  0  0  0  0  0  0  0
   -1.3960   15.6230   -4.7220 C   0  0  1  0  0  0  0  0  0  0  0  0
    0.9760   16.4980   -5.0120 C   0  0  0  0  0  0  0  0  0  0  0  0
   -2.7400   15.6980   -5.4480 C   0  0  0  0  0  0  0  0  0  0  0  0
   -0.6190   14.3450   -5.0240 C   0  0  0  0  0  0  0  0  0  0  0  0
    1.4930   15.3150   -4.1500 C   0  0  0  0  0  0  0  0  0  0  0  0
   -3.8780   15.2410   -4.5590 C   0  0  0  0  0  0  0  0  0  0  0  0
    0.4430   14.2010   -3.9520 C   0  0  2  0  0  0  0  0  0  0  0  0
    0.9720   12.7500   -3.7480 C   0  0  0  0  0  0  0  0  0  0  0  0
   -3.5900   14.0530   -3.6660 C   0  0  0  0  0  0  0  0  0  0  0  0
    0.9860   12.0310   -2.3650 C   0  0  2  0  0  0  0  0  0  0  0  0
   -4.1340   14.2510   -2.2450 C   0  0  2  0  0  0  0  0  0  0  0  0
    0.4210   10.8250   -2.3640 O   0  0  0  0  0  0  0  0  0  0  0  0
    0.2470   12.6890   -1.3670 O   0  0  0  0  0  0  0  0  0  0  0  0
   -5.5820   14.7260   -2.2100 C   0  0  0  0  0  0  0  0  0  0  0  0
   -3.3470   15.2390   -1.4150 C   0  0  0  0  0  0  0  0  0  0  0  0
   -6.1850   14.3230   -0.8700 C   0  0  1  0  0  0  0  0  0  0  0  0
   -3.9820   15.3910   -0.0290 C   0  0  0  0  0  0  0  0  0  0  0  0
   -5.1210   14.3790    0.2390 C   0  0  1  0  0  0  0  0  0  0  0  0
   -7.4000   15.0650   -0.6000 N   0  0  0  0  0  0  0  0  0  0  0  0
   -5.6810   14.5200    1.6650 C   0  0  0  0  0  0  0  0  0  0  0  0
   -8.0670   14.5870    0.6000 C   0  0  0  0  0  0  0  0  0  0  0  0
   -7.2160   14.5930    1.8840 C   0  0  1  0  0  0  0  0  0  0  0  0
   -7.6670   13.5590    2.8130 N   0  0  0  0  0  0  0  0  0  0  0  0
  2  1  1  6
  2  3  1  0
  2  4  1  0
  3  5  1  6
  3  6  1  0
  4  7  1  0
  5  8  1  0
  6  9  1  0
  7  9  1  0
  9 10  1  6
  8 11  1  0
 10 12  1  0
 13 11  1  6
 12 14  1  6
 12 15  1  0
 13 16  1  0
 13 17  1  0
 18 16  1  6
 17 19  1  0
 18 20  1  0
 20 19  1  6
 18 21  1  0
 20 22  1  0
 21 23  1  0
 22 24  1  0
 23 24  1  0
 24 25  1  1
M  CHG  1  14  -1
M  END
