ucsf110-ucsf147
     RDKit          3D

 18 20  0  0  0  0  0  0  0  0999 V2000
    0.6560   14.8420   -2.3450 C   0  0  1  0  0  0  0  0  0  0  0  0
    1.0680   13.5030   -2.1580 O   0  0  0  0  0  0  0  0  0  0  0  0
    1.1100   15.2180   -3.4890 O   0  0  0  0  0  0  0  0  0  0  0  0
   -0.7860   14.9680   -2.2420 N   0  0  0  0  0  0  0  0  0  0  0  0
   -1.7240   14.1380   -3.0280 C   0  0  1  0  0  0  0  0  0  0  0  0
   -1.0830   14.5280   -0.9170 C   0  0  2  0  0  0  0  0  0  0  0  0
   -2.9440   13.9300   -2.0090 C   0  0  0  0  0  0  0  0  0  0  0  0
   -2.5560   14.7570   -0.7830 C   0  0  1  0  0  0  0  0  0  0  0  0
   -0.3000   15.1570    0.1110 N   0  0  0  0  0  0  0  0  0  0  0  0
   -2.2330   14.5550   -4.3540 N   0  0  0  0  0  0  0  0  0  0  0  0
   -1.0520   12.8180   -3.4330 C   0  0  0  0  0  0  0  0  0  0  0  0
   -2.9220   14.3250    0.6490 C   0  0  2  0  0  0  0  0  0  0  0  0
   -0.5460   14.4070    1.2890 C   0  0  0  0  0  0  0  0  0  0  0  0
   -0.5530   13.0350   -4.8740 C   0  0  1  0  0  0  0  0  0  0  0  0
   -1.1770   14.2450   -5.3200 O   0  0  0  0  0  0  0  0  0  0  0  0
   -4.0870   15.0180    1.1680 N   0  0  0  0  0  0  0  0  0  0  0  0
    0.9610   13.1390   -5.0490 C   0  0  0  0  0  0  0  0  0  0  0  0
   -1.9250   14.6310    1.6750 N   0  0  0  0  0  0  0  0  0  0  0  0
  1  2  1  6
  1  3  1  0
  1  4  1  0
  5  4  1  0
  4  6  1  0
  5  7  1  1
  6  8  1  0
  8  7  1  6
  6  9  1  1
  5 10  1  0
  5 11  1  0
  8 12  1  0
  9 13  1  0
 11 14  1  0
 10 15  1  0
 14 15  1  0
 12 16  1  1
 14 17  1  1
 12 18  1  0
 13 18  1  0
M  CHG  1   3  -1
M  END
