ucsf147-ucsf274
     RDKit          3D

 28 31  0  0  0  0  0  0  0  0999 V2000
    0.8360   12.7240   -5.2760 C   0  0  0  0  0  0  0  0  0  0  0  0
    0.0620   14.0180   -4.9950 C   0  0  1  0  0  0  0  0  0  0  0  0
   -1.2130   13.9310   -5.6810 O   0  0  0  0  0  0  0  0  0  0  0  0
   -0.0640   11.4720   -5.4470 C   0  0  1  0  0  0  0  0  0  0  0  0
   -0.2590   14.4080   -3.5500 C   0  0  2  0  0  0  0  0  0  0  0  0
   -1.5220   11.4410   -4.8400 C   0  0  1  0  0  0  0  0  0  0  0  0
   -0.1360   11.0930   -6.8750 N   0  0  0  0  0  0  0  0  0  0  0  0
    0.8570   14.1560   -2.4840 C   0  0  2  0  0  0  0  0  0  0  0  0
   -2.1950   12.6630   -5.0340 O   0  0  0  0  0  0  0  0  0  0  0  0
   -2.2640   14.3300   -4.7330 N   0  0  0  0  0  0  0  0  0  0  0  0
   -1.7000   13.9550   -3.3920 C   0  0  2  0  0  0  0  0  0  0  0  0
   -2.4310   10.4380   -5.4300 N   0  0  0  0  0  0  0  0  0  0  0  0
   -0.5190    9.6830   -6.9380 C   0  0  1  0  0  0  0  0  0  0  0  0
    0.4500   12.9720   -1.7470 O   0  0  0  0  0  0  0  0  0  0  0  0
    0.9450   15.1890   -1.6720 O   0  0  0  0  0  0  0  0  0  0  0  0
   -2.5680   14.6020   -2.2830 C   0  0  0  0  0  0  0  0  0  0  0  0
   -1.7250    9.2940   -6.0280 C   0  0  2  0  0  0  0  0  0  0  0  0
   -0.7340    9.3360   -8.4050 C   0  0  0  0  0  0  0  0  0  0  0  0
    0.6780   11.7230   -2.4320 C   0  0  0  0  0  0  0  0  0  0  0  0
   -2.7630   13.7160   -1.0390 C   0  0  0  0  0  0  0  0  0  0  0  0
   -3.9190   15.1010   -2.8560 C   0  0  0  0  0  0  0  0  0  0  0  0
   -1.0110    7.8550   -8.5930 C   0  0  0  0  0  0  0  0  0  0  0  0
   -2.7180    8.4330   -6.8060 C   0  0  0  0  0  0  0  0  0  0  0  0
    0.3770   10.7410   -1.5800 O   0  0  0  0  0  0  0  0  0  0  0  0
   -3.4700   14.4370    0.1000 C   0  0  0  0  0  0  0  0  0  0  0  0
   -5.0140   15.2210   -1.8020 C   0  0  0  0  0  0  0  0  0  0  0  0
   -2.0420    7.3200   -7.5990 C   0  0  0  0  0  0  0  0  0  0  0  0
   -4.4380   15.4920   -0.4130 C   0  0  0  0  0  0  0  0  0  0  0  0
  2  1  1  1
  2  3  1  0
  4  1  1  6
  2  5  1  0
  4  6  1  0
  4  7  1  0
  5  8  1  1
  6  9  1  6
  3 10  1  0
  5 11  1  0
 10 11  1  0
  6 12  1  0
  7 13  1  0
  8 14  1  0
  8 15  1  1
 11 16  1  1
 12 17  1  0
 13 17  1  0
 13 18  1  6
 14 19  1  0
 16 20  1  0
 16 21  1  0
 18 22  1  0
 17 23  1  6
 19 24  1  0
 20 25  1  0
 21 26  1  0
 22 27  1  0
 23 27  1  0
 25 28  1  0
 26 28  1  0
M  CHG  2  15  -1  24  -1
M  END
