ucsf004-ucsf147
     RDKit          3D

 20 22  0  0  0  0  0  0  0  0999 V2000
   -2.0350   12.1650   -4.5870 F   0  0  0  0  0  0  0  0  0  0  0  0
   -1.5640   13.4290   -4.8030 C   0  0  2  0  0  0  0  0  0  0  0  0
   -0.0480   13.4210   -4.8370 C   0  0  1  0  0  0  0  0  0  0  0  0
   -2.0420   14.3630   -3.6500 C   0  0  0  0  0  0  0  0  0  0  0  0
    0.6320   12.7660   -6.0300 C   0  0  0  0  0  0  0  0  0  0  0  0
   -1.0380   14.8170   -2.6290 N   0  0  0  0  0  0  0  0  0  0  0  0
    0.3710   14.8610   -4.6310 C   0  0  0  0  0  0  0  0  0  0  0  0
    0.3630   15.0910   -3.1140 C   0  0  2  0  0  0  0  0  0  0  0  0
   -1.1890   14.2730   -1.2660 C   0  0  1  0  0  0  0  0  0  0  0  0
    1.5870   14.2080   -2.6200 C   0  0  2  0  0  0  0  0  0  0  0  0
   -0.1620   14.8630   -0.3850 N   0  0  0  0  0  0  0  0  0  0  0  0
   -2.5600   14.4710   -0.6050 C   0  0  1  0  0  0  0  0  0  0  0  0
    1.1520   13.0950   -1.8520 O   0  0  0  0  0  0  0  0  0  0  0  0
    2.3990   14.8700   -1.8240 O   0  0  0  0  0  0  0  0  0  0  0  0
   -0.2170   14.4030    0.9960 C   0  0  0  0  0  0  0  0  0  0  0  0
   -2.3490   15.3210    0.5920 C   0  0  2  0  0  0  0  0  0  0  0  0
   -3.6590   15.2850   -1.2620 C   0  0  0  0  0  0  0  0  0  0  0  0
   -1.5030   14.7430    1.5830 N   0  0  0  0  0  0  0  0  0  0  0  0
   -3.6780   15.5240    1.1480 N   0  0  0  0  0  0  0  0  0  0  0  0
   -4.5480   15.5550   -0.0430 C   0  0  0  0  0  0  0  0  0  0  0  0
  2  1  1  1
  2  3  1  0
  2  4  1  0
  3  5  1  6
  4  6  1  0
  3  7  1  0
  6  8  1  0
  8  7  1  6
  9  6  1  6
  8 10  1  0
  9 11  1  0
  9 12  1  0
 10 13  1  1
 10 14  1  0
 11 15  1  0
 12 16  1  0
 12 17  1  6
 15 18  1  0
 16 18  1  1
 16 19  1  0
 17 20  1  0
 19 20  1  0
M  CHG  1  14  -1
M  END
