ucsf378-ucsf248
     RDKit          3D

 28 30  0  0  0  0  0  0  0  0999 V2000
   -2.2950   14.0340   -4.8420 Cl  0  0  0  0  0  0  0  0  0  0  0  0
   -0.9050   14.6720   -3.9090 C   0  0  1  0  0  0  0  0  0  0  0  0
    0.1840   13.6100   -3.5090 C   0  0  1  0  0  0  0  0  0  0  0  0
   -0.4460   15.9860   -4.5740 C   0  0  0  0  0  0  0  0  0  0  0  0
   -0.1240   12.1220   -3.7140 C   0  0  0  0  0  0  0  0  0  0  0  0
    1.6650   13.9200   -3.7510 C   0  0  1  0  0  0  0  0  0  0  0  0
    0.9360   15.8860   -5.1540 C   0  0  0  0  0  0  0  0  0  0  0  0
    2.4780   12.8760   -4.9350 Cl  0  0  0  0  0  0  0  0  0  0  0  0
   -0.3430   11.4100   -2.3740 C   0  0  2  0  0  0  0  0  0  0  0  0
    1.8780   15.3540   -4.1090 C   0  0  0  0  0  0  0  0  0  0  0  0
    0.3550   12.0690   -1.3070 O   0  0  0  0  0  0  0  0  0  0  0  0
    0.1410   10.0980   -2.4570 O   0  0  0  0  0  0  0  0  0  0  0  0
    0.2890   13.4930   -1.1730 C   0  0  0  0  0  0  0  0  0  0  0  0
   -0.7490   13.9570   -0.1550 C   0  0  0  0  0  0  0  0  0  0  0  0
   -2.1900   13.8840   -0.6790 C   0  0  0  0  0  0  0  0  0  0  0  0
   -2.9790   15.2100   -0.8030 C   0  0  2  0  0  0  0  0  0  0  0  0
   -3.7900   15.4990    0.4680 C   0  0  0  0  0  0  0  0  0  0  0  0
   -3.8260   15.1850   -2.1160 C   0  0  0  0  0  0  0  0  0  0  0  0
   -5.0360   14.6450    0.4740 C   0  0  1  0  0  0  0  0  0  0  0  0
   -5.2290   14.5500   -2.0460 C   0  0  0  0  0  0  0  0  0  0  0  0
   -5.9710   14.9650    1.5350 N   0  0  0  0  0  0  0  0  0  0  0  0
   -5.9080   14.8790   -0.7310 C   0  0  1  0  0  0  0  0  0  0  0  0
   -7.3100   14.6880    0.9700 C   0  0  1  0  0  0  0  0  0  0  0  0
   -7.0710   14.0530   -0.3380 N   0  0  0  0  0  0  0  0  0  0  0  0
   -8.4830   13.9710    2.1330 S   0  0  0  0  0  0  0  0  0  0  0  0
   -8.3180   12.4110    2.6330 N   0  0  0  0  0  0  0  0  0  0  0  0
   -8.3170   14.9740    3.3750 O   0  0  0  0  0  0  0  0  0  0  0  0
   -9.9350   14.2640    1.5340 O   0  0  0  0  0  0  0  0  0  0  0  0
  2  1  1  6
  2  3  1  0
  2  4  1  0
  3  5  1  6
  3  6  1  0
  4  7  1  0
  6  8  1  6
  5  9  1  0
  6 10  1  0
  7 10  1  0
  9 11  1  0
  9 12  1  6
 11 13  1  0
 13 14  1  0
 14 15  1  0
 16 15  1  1
 16 17  1  0
 16 18  1  0
 19 17  1  6
 18 20  1  0
 19 21  1  0
 19 22  1  0
 22 20  1  6
 21 23  1  0
 22 24  1  0
 23 24  1  0
 23 25  1  1
 25 26  1  0
 25 27  1  0
 25 28  1  0
M  END
