ucsf115-ucsf151
     RDKit          3D

 25 28  0  0  0  0  0  0  0  0999 V2000
   -2.5230   13.1000   -2.9300 C   0  0  0  0  0  0  0  0  0  0  0  0
   -2.2500   14.4600   -2.5760 N   0  0  0  0  0  0  0  0  0  0  0  0
   -1.9950   14.7470   -1.1950 C   0  0  2  0  0  0  0  0  0  0  0  0
   -1.2750   12.4030   -3.4310 C   0  0  2  0  0  0  0  0  0  0  0  0
   -1.5630   11.0510   -3.8340 O   0  0  0  0  0  0  0  0  0  0  0  0
   -0.2710   12.2010   -2.3040 C   0  0  0  0  0  0  0  0  0  0  0  0
   -0.7800   13.0990   -4.7320 C   0  0  2  0  0  0  0  0  0  0  0  0
    0.5610   11.0880   -2.8010 C   0  0  0  0  0  0  0  0  0  0  0  0
   -0.2600   10.4970   -3.9340 C   0  0  0  0  0  0  0  0  0  0  0  0
   -1.2120   13.7100   -0.5240 N   0  0  0  0  0  0  0  0  0  0  0  0
   -3.2660   15.1000   -0.4170 C   0  0  2  0  0  0  0  0  0  0  0  0
   -0.0860   14.4430   -4.5060 C   0  0  2  0  0  0  0  0  0  0  0  0
   -1.8030   13.1340   -5.8190 N   0  0  0  0  0  0  0  0  0  0  0  0
   -0.7390   14.1790    0.7780 C   0  0  0  0  0  0  0  0  0  0  0  0
   -3.0810   14.4630    0.9240 C   0  0  1  0  0  0  0  0  0  0  0  0
   -4.5800   14.5590   -0.7570 N   0  0  0  0  0  0  0  0  0  0  0  0
    0.5860   14.5500   -3.1350 C   0  0  0  0  0  0  0  0  0  0  0  0
   -1.0050   15.6650   -4.7680 C   0  0  0  0  0  0  0  0  0  0  0  0
   -2.9110   14.0610   -5.5760 C   0  0  0  0  0  0  0  0  0  0  0  0
   -1.8190   14.8150    1.5090 N   0  0  0  0  0  0  0  0  0  0  0  0
   -4.2400   15.0120    1.5530 N   0  0  0  0  0  0  0  0  0  0  0  0
   -5.2530   14.6690    0.5430 C   0  0  0  0  0  0  0  0  0  0  0  0
    0.8000   15.9080   -2.8350 O   0  0  0  0  0  0  0  0  0  0  0  0
   -2.4990   15.4530   -5.0580 C   0  0  2  0  0  0  0  0  0  0  0  0
   -2.8960   16.4310   -6.0240 O   0  0  0  0  0  0  0  0  0  0  0  0
  1  2  1  0
  3  2  1  6
  4  1  1  1
  4  5  1  0
  4  6  1  0
  4  7  1  0
  6  8  1  0
  5  9  1  0
  8  9  1  0
  3 10  1  0
  3 11  1  0
  7 12  1  0
  7 13  1  6
 10 14  1  0
 11 15  1  0
 11 16  1  6
 12 17  1  1
 12 18  1  0
 13 19  1  0
 14 20  1  0
 15 20  1  1
 15 21  1  0
 16 22  1  0
 21 22  1  0
 17 23  1  0
 18 24  1  0
 19 24  1  0
 24 25  1  6
M  END
