ucsf213-ucsf173
     RDKit          3D

 13 14  0  0  0  0  0  0  0  0999 V2000
    0.4070   10.7530   -2.3140 O   0  0  0  0  0  0  0  0  0  0  0  0
    1.0230   11.9410   -2.3490 C   0  0  2  0  0  0  0  0  0  0  0  0
    0.3000   12.6240   -1.3550 O   0  0  0  0  0  0  0  0  0  0  0  0
    0.9110   12.6020   -3.7590 C   0  0  0  0  0  0  0  0  0  0  0  0
    0.1620   13.9470   -3.7690 C   0  0  1  0  0  0  0  0  0  0  0  0
    1.0440   15.1740   -4.1690 C   0  0  0  0  0  0  0  0  0  0  0  0
   -1.2750   14.0420   -4.9120 S   0  0  0  0  0  0  0  0  0  0  0  0
    0.2160   16.0960   -5.0770 C   0  0  1  0  0  0  0  0  0  0  0  0
   -1.2180   15.8180   -4.6880 C   0  0  1  0  0  0  0  0  0  0  0  0
    0.5470   17.5870   -5.0980 C   0  0  0  0  0  0  0  0  0  0  0  0
   -2.2830   16.6720   -5.3720 C   0  0  0  0  0  0  0  0  0  0  0  0
   -0.4220   18.3120   -6.0250 C   0  0  0  0  0  0  0  0  0  0  0  0
   -1.8780   18.1320   -5.6150 C   0  0  0  0  0  0  0  0  0  0  0  0
  2  1  1  6
  2  3  1  0
  2  4  1  0
  5  4  1  6
  5  6  1  0
  5  7  1  0
  8  6  1  1
  7  9  1  0
  8  9  1  0
  8 10  1  0
  9 11  1  6
 10 12  1  0
 11 13  1  0
 12 13  1  0
M  CHG  1   1  -1
M  END
