ucsf243-ucsf135
     RDKit          3D

 24 26  0  0  0  0  0  0  0  0999 V2000
   -3.7520   14.6950    0.8760 C   0  0  0  0  0  0  0  0  0  0  0  0
   -3.4110   15.5490   -0.3400 C   0  0  2  0  0  0  0  0  0  0  0  0
   -4.3610   15.2910   -1.5170 C   0  0  0  0  0  0  0  0  0  0  0  0
   -1.9380   15.4070   -0.7550 C   0  0  0  0  0  0  0  0  0  0  0  0
   -1.6240   14.2260   -1.7100 C   0  0  2  0  0  0  0  0  0  0  0  0
   -3.6400   15.3240   -2.8640 C   0  0  0  0  0  0  0  0  0  0  0  0
   -0.0910   14.1190   -2.0030 C   0  0  1  0  0  0  0  0  0  0  0  0
   -2.5430   14.2630   -2.9810 C   0  0  1  0  0  0  0  0  0  0  0  0
   -1.9090   14.4840   -4.2490 O   0  0  0  0  0  0  0  0  0  0  0  0
    0.1910   14.6930   -3.2640 O   0  0  0  0  0  0  0  0  0  0  0  0
    0.6130   14.9260   -1.2290 O   0  0  0  0  0  0  0  0  0  0  0  0
   -1.9040   13.3480   -5.1170 C   0  0  0  0  0  0  0  0  0  0  0  0
   -1.8540   12.1220   -4.3840 O   0  0  0  0  0  0  0  0  0  0  0  0
   -0.5490   11.1900   -4.4280 S   0  0  2  0  0  0  0  0  0  0  0  0
   -0.1930   10.4900   -3.0370 O   0  0  0  0  0  0  0  0  0  0  0  0
    0.7700   11.8740   -5.1700 N   0  0  0  0  0  0  0  0  0  0  0  0
   -0.8560    9.8230   -5.5100 C   0  0  2  0  0  0  0  0  0  0  0  0
    0.8720   11.4220   -6.5540 C   0  0  1  0  0  0  0  0  0  0  0  0
   -0.0240   10.1670   -6.7840 C   0  0  2  0  0  0  0  0  0  0  0  0
   -2.2870    9.4760   -5.8550 C   0  0  0  0  0  0  0  0  0  0  0  0
    0.4270   12.4470   -7.3580 O   0  0  0  0  0  0  0  0  0  0  0  0
   -2.3590    8.4090   -6.9600 C   0  0  0  0  0  0  0  0  0  0  0  0
   -0.8850   10.1730   -8.0410 C   0  0  0  0  0  0  0  0  0  0  0  0
   -1.6100    8.8290   -8.2230 C   0  0  0  0  0  0  0  0  0  0  0  0
  2  1  1  1
  2  3  1  0
  2  4  1  0
  5  4  1  6
  3  6  1  0
  5  7  1  0
  5  8  1  0
  6  8  1  0
  8  9  1  6
  7 10  1  6
  7 11  1  0
  9 12  1  0
 12 13  1  0
 14 13  1  0
 14 15  1  1
 14 16  1  0
 14 17  1  0
 16 18  1  0
 17 19  1  0
 18 19  1  0
 17 20  1  6
 18 21  1  6
 20 22  1  0
 19 23  1  6
 22 24  1  0
 23 24  1  0
M  CHG  1  11  -1
M  END
