ucsf115-ucsf392
     RDKit          3D

 19 21  0  0  0  0  0  0  0  0999 V2000
   -1.6850   13.9080   -3.7700 C   0  0  0  0  0  0  0  0  0  0  0  0
   -1.6130   14.9770   -2.8130 N   0  0  0  0  0  0  0  0  0  0  0  0
   -2.0490   14.6850   -1.4480 C   0  0  2  0  0  0  0  0  0  0  0  0
   -1.2540   12.6710   -3.0020 C   0  0  1  0  0  0  0  0  0  0  0  0
   -1.5040   11.5550   -3.8490 O   0  0  0  0  0  0  0  0  0  0  0  0
    0.2260   12.6930   -2.6590 C   0  0  0  0  0  0  0  0  0  0  0  0
    0.6170   11.2600   -2.8130 C   0  0  0  0  0  0  0  0  0  0  0  0
   -0.3340   10.7760   -3.8730 C   0  0  0  0  0  0  0  0  0  0  0  0
   -1.1940   13.8250   -0.7010 N   0  0  0  0  0  0  0  0  0  0  0  0
   -3.5030   14.8020   -0.9330 C   0  0  2  0  0  0  0  0  0  0  0  0
   -4.4130   15.6560   -1.8140 C   0  0  0  0  0  0  0  0  0  0  0  0
   -1.0600   14.2750    0.6940 C   0  0  1  0  0  0  0  0  0  0  0  0
   -3.3800   15.4040    0.4470 C   0  0  2  0  0  0  0  0  0  0  0  0
   -4.2570   13.5890   -0.6660 N   0  0  0  0  0  0  0  0  0  0  0  0
    0.1600   15.1840    0.7050 C   0  0  0  0  0  0  0  0  0  0  0  0
   -2.2510   14.9840    1.2760 N   0  0  0  0  0  0  0  0  0  0  0  0
   -4.6070   14.9980    1.1260 N   0  0  0  0  0  0  0  0  0  0  0  0
   -5.2670   14.0590    0.2470 C   0  0  0  0  0  0  0  0  0  0  0  0
   -2.9130   14.2210    2.2860 N   0  0  0  0  0  0  0  0  0  0  0  0
  1  2  1  0
  3  2  1  6
  4  1  1  6
  4  5  1  0
  4  6  1  0
  6  7  1  0
  5  8  1  0
  7  8  1  0
  3  9  1  0
  3 10  1  0
 10 11  1  6
  9 12  1  0
 10 13  1  0
 10 14  1  0
 12 15  1  6
 12 16  1  0
 13 16  1  0
 13 17  1  1
 14 18  1  0
 17 18  1  0
 16 19  1  0
M  END
