ucsf190-ucsf172
     RDKit          3D

 29 31  0  0  0  0  0  0  0  0999 V2000
    0.7610   10.7180   -2.7550 O   0  0  0  0  0  0  0  0  0  0  0  0
    0.7710   12.0070   -3.0450 C   0  0  1  0  0  0  0  0  0  0  0  0
    1.4830   12.5400   -1.9490 O   0  0  0  0  0  0  0  0  0  0  0  0
    1.5860   12.3760   -4.3130 C   0  0  0  0  0  0  0  0  0  0  0  0
    1.3400   13.7830   -4.8870 C   0  0  1  0  0  0  0  0  0  0  0  0
   -0.1660   14.1410   -4.8520 C   0  0  1  0  0  0  0  0  0  0  0  0
    2.0730   14.7520   -4.0100 N   0  0  0  0  0  0  0  0  0  0  0  0
   -0.4320   15.6610   -5.1050 C   0  0  2  0  0  0  0  0  0  0  0  0
    1.7860   16.1060   -4.4220 N   0  0  0  0  0  0  0  0  0  0  0  0
   -1.0720   13.2180   -5.7030 C   0  0  0  0  0  0  0  0  0  0  0  0
    0.4230   16.4740   -4.1450 C   0  0  1  0  0  0  0  0  0  0  0  0
   -1.9450   16.0080   -5.1030 C   0  0  0  0  0  0  0  0  0  0  0  0
   -2.5230   13.7020   -5.7480 C   0  0  0  0  0  0  0  0  0  0  0  0
    0.2930   17.8550   -4.4280 O   0  0  0  0  0  0  0  0  0  0  0  0
   -2.6450   14.7470   -4.6740 C   0  0  1  0  0  0  0  0  0  0  0  0
   -1.7730   14.1960   -3.7190 O   0  0  0  0  0  0  0  0  0  0  0  0
   -2.2300   13.5940   -2.5590 C   0  0  1  0  0  0  0  0  0  0  0  0
   -1.1560   12.9820   -1.8810 O   0  0  0  0  0  0  0  0  0  0  0  0
   -2.6760   14.7440   -1.7100 C   0  0  2  0  0  0  0  0  0  0  0  0
   -2.3320   14.4640   -0.2380 C   0  0  0  0  0  0  0  0  0  0  0  0
   -4.1240   15.1710   -2.0780 C   0  0  0  0  0  0  0  0  0  0  0  0
   -3.3220   15.0270    0.7550 C   0  0  0  0  0  0  0  0  0  0  0  0
   -5.0570   15.5290   -0.9290 C   0  0  0  0  0  0  0  0  0  0  0  0
   -4.7540   14.7390    0.3310 C   0  0  2  0  0  0  0  0  0  0  0  0
   -5.6810   15.0190    1.4100 N   0  0  0  0  0  0  0  0  0  0  0  0
   -7.1990   14.4010    1.3420 S   0  0  0  0  0  0  0  0  0  0  0  0
   -8.3500   14.9530    2.5410 C   0  0  0  0  0  0  0  0  0  0  0  0
   -7.1460   12.8240    1.5470 O   0  0  0  0  0  0  0  0  0  0  0  0
   -7.9270   14.6470   -0.0630 O   0  0  0  0  0  0  0  0  0  0  0  0
  2  1  1  1
  2  3  1  0
  2  4  1  0
  5  4  1  1
  5  6  1  0
  5  7  1  0
  6  8  1  0
  7  9  1  0
  6 10  1  6
  8 11  1  0
  9 11  1  0
  8 12  1  1
 10 13  1  0
 11 14  1  6
 12 15  1  0
 13 15  1  0
 15 16  1  1
 16 17  1  0
 17 18  1  1
 17 19  1  0
 19 20  1  1
 19 21  1  0
 20 22  1  0
 21 23  1  0
 22 24  1  0
 23 24  1  0
 24 25  1  1
 25 26  1  0
 26 27  1  0
 26 28  1  0
 26 29  1  0
M  CHG  1   1  -1
M  END
