ucsf337-ucsf523
     RDKit          3D

 16 17  0  0  0  0  0  0  0  0999 V2000
   -7.1990   14.4620    0.9660 C   0  0  0  0  0  0  0  0  0  0  0  0
   -6.0980   14.0930   -0.0470 C   0  0  1  0  0  0  0  0  0  0  0  0
   -6.4740   14.6630   -1.3550 N   0  0  0  0  0  0  0  0  0  0  0  0
   -4.5940   14.3230    0.3950 C   0  0  2  0  0  0  0  0  0  0  0  0
   -4.5390   15.4030    2.0070 Br  0  0  0  0  0  0  0  0  0  0  0  0
   -3.5350   14.9600   -0.5710 C   0  0  2  0  0  0  0  0  0  0  0  0
   -5.3580   14.6460   -2.2270 C   0  0  1  0  0  0  0  0  0  0  0  0
   -5.8940   14.9020   -3.5430 N   0  0  0  0  0  0  0  0  0  0  0  0
   -4.3350   15.6390   -1.7160 C   0  0  0  0  0  0  0  0  0  0  0  0
   -2.4370   14.0210   -1.2060 C   0  0  1  0  0  0  0  0  0  0  0  0
   -2.7010   15.9800    0.1970 C   0  0  0  0  0  0  0  0  0  0  0  0
   -1.8770   14.6820   -2.3300 O   0  0  0  0  0  0  0  0  0  0  0  0
   -1.2760   13.6840   -0.3860 N   0  0  0  0  0  0  0  0  0  0  0  0
   -1.8460   15.3240    1.1790 N   0  0  0  0  0  0  0  0  0  0  0  0
   -0.7890   14.6940    0.4910 C   0  0  1  0  0  0  0  0  0  0  0  0
   -0.0970   13.9940    1.5080 N   0  0  0  0  0  0  0  0  0  0  0  0
  2  1  1  1
  2  3  1  0
  2  4  1  0
  4  5  1  1
  4  6  1  0
  3  7  1  0
  7  8  1  6
  6  9  1  6
  7  9  1  0
  6 10  1  0
  6 11  1  0
 10 12  1  6
 10 13  1  0
 11 14  1  0
 13 15  1  0
 14 15  1  0
 15 16  1  1
M  END
