ucsf172-ucsf378
     RDKit          3D

 25 26  0  0  0  0  0  0  0  0999 V2000
   -8.2140   14.9240    2.3060 C   0  0  0  0  0  0  0  0  0  0  0  0
   -6.8690   14.4270    1.2970 S   0  0  0  0  0  0  0  0  0  0  0  0
   -6.6230   12.9290    1.7720 O   0  0  0  0  0  0  0  0  0  0  0  0
   -7.4750   14.3790   -0.1850 O   0  0  0  0  0  0  0  0  0  0  0  0
   -5.4500   15.2500    1.3840 N   0  0  0  0  0  0  0  0  0  0  0  0
   -4.4290   15.4410    0.3620 C   0  0  1  0  0  0  0  0  0  0  0  0
   -3.2110   14.5840    0.7020 C   0  0  0  0  0  0  0  0  0  0  0  0
   -4.9980   15.1940   -1.0560 C   0  0  0  0  0  0  0  0  0  0  0  0
   -2.7400   13.7270   -0.4480 C   0  0  0  0  0  0  0  0  0  0  0  0
   -3.9660   15.1040   -2.1840 C   0  0  0  0  0  0  0  0  0  0  0  0
   -2.6060   14.5710   -1.7050 C   0  0  2  0  0  0  0  0  0  0  0  0
   -1.8060   13.8100   -2.7470 C   0  0  2  0  0  0  0  0  0  0  0  0
   -0.4290   13.9670   -2.4720 O   0  0  0  0  0  0  0  0  0  0  0  0
   -2.0490   14.3120   -4.0380 O   0  0  0  0  0  0  0  0  0  0  0  0
   -0.8540   14.4370   -4.7890 C   0  0  2  0  0  0  0  0  0  0  0  0
    0.2600   13.3560   -4.4860 C   0  0  2  0  0  0  0  0  0  0  0  0
   -0.4800   15.9240   -4.7100 C   0  0  0  0  0  0  0  0  0  0  0  0
   -0.2000   12.0060   -3.8280 C   0  0  0  0  0  0  0  0  0  0  0  0
    1.5500   13.8960   -3.8390 C   0  0  1  0  0  0  0  0  0  0  0  0
    0.6690   16.2130   -3.7800 C   0  0  0  0  0  0  0  0  0  0  0  0
    2.9480   12.9030   -4.3690 Cl  0  0  0  0  0  0  0  0  0  0  0  0
    0.4890   11.5150   -2.5170 C   0  0  1  0  0  0  0  0  0  0  0  0
    1.8320   15.3500   -4.1500 C   0  0  0  0  0  0  0  0  0  0  0  0
   -0.1340   11.9180   -1.4220 O   0  0  0  0  0  0  0  0  0  0  0  0
    0.3310   10.1210   -2.4240 O   0  0  0  0  0  0  0  0  0  0  0  0
  1  2  1  0
  2  3  1  0
  2  4  1  0
  2  5  1  0
  6  5  1  1
  6  7  1  0
  6  8  1  0
  7  9  1  0
  8 10  1  0
 11  9  1  1
 10 11  1  0
 11 12  1  0
 12 13  1  1
 12 14  1  0
 15 14  1  1
 15 16  1  0
 15 17  1  0
 16 18  1  1
 16 19  1  0
 17 20  1  0
 19 21  1  6
 18 22  1  0
 19 23  1  0
 20 23  1  0
 22 24  1  1
 22 25  1  0
M  CHG  1  24  -1
M  END
