ucsf124-ucsf385
     RDKit          3D

 24 26  0  0  0  0  0  0  0  0999 V2000
    1.0040   11.3230   -2.4240 O   0  0  0  0  0  0  0  0  0  0  0  0
    0.2600   12.2440   -3.0010 C   0  0  1  0  0  0  0  0  0  0  0  0
    0.3370   13.5240   -2.3220 O   0  0  0  0  0  0  0  0  0  0  0  0
    0.7830   12.4730   -4.4720 C   0  0  0  0  0  0  0  0  0  0  0  0
   -0.9720   14.1430   -2.2210 C   0  0  2  0  0  0  0  0  0  0  0  0
    0.0670   11.7360   -5.5230 N   0  0  0  0  0  0  0  0  0  0  0  0
   -1.1760   14.8400   -3.3330 O   0  0  0  0  0  0  0  0  0  0  0  0
   -0.9910   10.8250   -5.1410 C   0  0  1  0  0  0  0  0  0  0  0  0
    0.7400   11.2810   -6.7280 C   0  0  2  0  0  0  0  0  0  0  0  0
   -1.0460   15.0920   -0.9840 C   0  0  1  0  0  0  0  0  0  0  0  0
   -2.0590   11.4830   -4.5100 O   0  0  0  0  0  0  0  0  0  0  0  0
    0.5530   12.1570   -7.7730 O   0  0  0  0  0  0  0  0  0  0  0  0
   -1.3760   10.2340   -6.4930 C   0  0  1  0  0  0  0  0  0  0  0  0
    0.0070    9.9750   -7.0730 C   0  0  1  0  0  0  0  0  0  0  0  0
   -2.4890   15.2940   -0.4440 C   0  0  1  0  0  0  0  0  0  0  0  0
    0.0320   14.8490    0.1090 C   0  0  0  0  0  0  0  0  0  0  0  0
   -3.5460   15.0400   -1.4500 N   0  0  0  0  0  0  0  0  0  0  0  0
   -2.2890    9.0180   -6.5490 C   0  0  0  0  0  0  0  0  0  0  0  0
   -0.0340    9.5520   -8.5380 C   0  0  0  0  0  0  0  0  0  0  0  0
   -0.4420   14.0940    1.3430 C   0  0  0  0  0  0  0  0  0  0  0  0
   -2.7420   14.4080    0.7910 C   0  0  0  0  0  0  0  0  0  0  0  0
   -1.8450    7.9860   -7.6000 C   0  0  0  0  0  0  0  0  0  0  0  0
   -1.2000    8.5970   -8.8430 C   0  0  0  0  0  0  0  0  0  0  0  0
   -1.7360   14.5520    1.8270 N   0  0  0  0  0  0  0  0  0  0  0  0
  2  1  1  1
  2  3  1  0
  2  4  1  0
  3  5  1  0
  4  6  1  0
  5  7  1  6
  6  8  1  0
  6  9  1  0
  5 10  1  0
  8 11  1  6
  9 12  1  6
  8 13  1  0
  9 14  1  0
 13 14  1  0
 10 15  1  0
 10 16  1  1
 15 17  1  6
 13 18  1  1
 14 19  1  6
 16 20  1  0
 15 21  1  0
 18 22  1  0
 19 23  1  0
 22 23  1  0
 20 24  1  0
 21 24  1  0
M  CHG  2   1  -1   7  -1
M  END
