ucsf260-ucsf380
     RDKit          3D

 29 32  0  0  0  0  0  0  0  0999 V2000
    0.9050   11.0420   -2.6550 O   0  0  0  0  0  0  0  0  0  0  0  0
    0.7400   12.3190   -2.9910 C   0  0  1  0  0  0  0  0  0  0  0  0
    1.1280   13.1460   -1.8800 O   0  0  0  0  0  0  0  0  0  0  0  0
    1.6640   12.6930   -4.1940 C   0  0  0  0  0  0  0  0  0  0  0  0
    1.0440   12.5110   -5.6040 C   0  0  0  0  0  0  0  0  0  0  0  0
    0.1890   14.1770   -1.4530 C   0  0  1  0  0  0  0  0  0  0  0  0
    0.3790   15.2790   -2.1630 O   0  0  0  0  0  0  0  0  0  0  0  0
   -1.2990   13.6080   -1.6430 C   0  0  0  0  0  0  0  0  0  0  0  0
   -0.3080   11.8450   -5.7090 N   0  0  0  0  0  0  0  0  0  0  0  0
   -0.7180   10.9530   -4.6160 C   0  0  0  0  0  0  0  0  0  0  0  0
   -0.5270   11.0280   -6.9240 C   0  0  2  0  0  0  0  0  0  0  0  0
   -2.4440   14.4430   -0.9600 C   0  0  0  0  0  0  0  0  0  0  0  0
   -1.6710   12.8900   -2.9900 C   0  0  0  0  0  0  0  0  0  0  0  0
   -1.7030   10.0320   -5.2090 N   0  0  0  0  0  0  0  0  0  0  0  0
   -0.9180    9.6760   -6.3670 C   0  0  1  0  0  0  0  0  0  0  0  0
    0.6950   10.8710   -7.8260 C   0  0  0  0  0  0  0  0  0  0  0  0
   -2.1660   15.1980    0.3300 C   0  0  0  0  0  0  0  0  0  0  0  0
   -3.2930   15.3170   -1.9100 C   0  0  0  0  0  0  0  0  0  0  0  0
   -3.0520   12.2400   -2.9160 C   0  0  0  0  0  0  0  0  0  0  0  0
   -1.5030   13.6820   -4.2990 C   0  0  0  0  0  0  0  0  0  0  0  0
   -1.5370    8.8190   -7.4330 C   0  0  0  0  0  0  0  0  0  0  0  0
    0.7470    9.4510   -8.4000 C   0  0  0  0  0  0  0  0  0  0  0  0
   -3.4950   15.6800    0.9260 C   0  0  0  0  0  0  0  0  0  0  0  0
   -4.6810   15.5560   -1.3160 C   0  0  0  0  0  0  0  0  0  0  0  0
   -3.3260   11.3350   -4.1080 C   0  0  0  0  0  0  0  0  0  0  0  0
   -1.9180   12.9580   -5.5900 C   0  0  0  0  0  0  0  0  0  0  0  0
   -0.6500    8.8590   -8.6790 C   0  0  0  0  0  0  0  0  0  0  0  0
   -4.7180   15.1910    0.1550 C   0  0  0  0  0  0  0  0  0  0  0  0
   -3.0920   11.9760   -5.4780 C   0  0  0  0  0  0  0  0  0  0  0  0
  2  1  1  1
  2  3  1  0
  2  4  1  0
  4  5  1  0
  3  6  1  0
  6  7  1  6
  6  8  1  0
  5  9  1  0
  9 10  1  0
  9 11  1  0
  8 12  1  0
  8 13  1  0
 10 14  1  0
 11 15  1  0
 14 15  1  0
 11 16  1  1
 12 17  1  0
 12 18  1  0
 13 19  1  0
 13 20  1  0
 15 21  1  6
 16 22  1  0
 17 23  1  0
 18 24  1  0
 19 25  1  0
 20 26  1  0
 21 27  1  0
 22 27  1  0
 23 28  1  0
 24 28  1  0
 25 29  1  0
 26 29  1  0
M  CHG  2   1  -1   7  -1
M  END
