ucsf016-ucsf030
     RDKit          3D

 24 27  0  0  0  0  0  0  0  0999 V2000
   -3.4930   16.1860    0.4820 Cl  0  0  0  0  0  0  0  0  0  0  0  0
   -2.7690   15.1730   -0.7980 C   0  0  2  0  0  0  0  0  0  0  0  0
   -2.6810   13.8740   -0.0320 C   0  0  1  0  0  0  0  0  0  0  0  0
   -1.3230   15.5190   -1.3160 C   0  0  2  0  0  0  0  0  0  0  0  0
   -3.8980   14.8450   -1.7440 C   0  0  0  0  0  0  0  0  0  0  0  0
   -0.8970   15.4230   -2.7430 N   0  0  0  0  0  0  0  0  0  0  0  0
   -0.3130   14.8040   -0.5350 N   0  0  0  0  0  0  0  0  0  0  0  0
   -1.9120   14.0250    1.1920 N   0  0  0  0  0  0  0  0  0  0  0  0
   -4.1040   13.5560    0.2610 N   0  0  0  0  0  0  0  0  0  0  0  0
   -4.9000   14.2840   -0.7480 C   0  0  0  0  0  0  0  0  0  0  0  0
   -2.7560   14.8140    2.0930 N   0  0  0  0  0  0  0  0  0  0  0  0
    0.4490   15.8080   -3.1170 C   0  0  0  0  0  0  0  0  0  0  0  0
   -1.8920   15.8420   -3.7300 C   0  0  0  0  0  0  0  0  0  0  0  0
   -0.6430   14.7250    0.8880 C   0  0  0  0  0  0  0  0  0  0  0  0
   -2.0660   14.8760   -4.9060 C   0  0  0  0  0  0  0  0  0  0  0  0
   -3.2380   15.1020   -5.8600 C   0  0  0  0  0  0  0  0  0  0  0  0
   -3.3280   14.0130   -4.8610 C   0  0  0  0  0  0  0  0  0  0  0  0
   -0.8040   14.1730   -5.4630 C   0  0  0  0  0  0  0  0  0  0  0  0
    0.0540   13.2140   -4.6120 C   0  0  0  0  0  0  0  0  0  0  0  0
   -0.2700   11.7540   -4.9370 C   0  0  0  0  0  0  0  0  0  0  0  0
   -0.0830   13.3910   -3.1120 C   0  0  0  0  0  0  0  0  0  0  0  0
   -1.6080   11.2780   -4.3660 C   0  0  0  0  0  0  0  0  0  0  0  0
   -1.4990   13.1370   -2.6360 C   0  0  0  0  0  0  0  0  0  0  0  0
   -1.9090   11.7080   -2.9240 C   0  0  0  0  0  0  0  0  0  0  0  0
  2  1  1  1
  2  3  1  0
  2  4  1  0
  2  5  1  0
  4  6  1  6
  4  7  1  0
  3  8  1  0
  3  9  1  1
  5 10  1  0
  9 10  1  0
  8 11  1  0
  6 12  1  0
  6 13  1  0
  7 14  1  0
  8 14  1  0
 15 13  1  0
 15 16  1  0
 15 17  1  0
 16 17  1  0
 15 18  1  0
 18 19  1  0
 19 20  1  0
 19 21  1  0
 20 22  1  0
 21 23  1  0
 22 24  1  0
 23 24  1  0
M  END
