ucsf264-ucsf411
     RDKit          3D

 28 31  0  0  0  0  0  0  0  0999 V2000
    0.4660   12.2900   -1.7610 O   0  0  0  0  0  0  0  0  0  0  0  0
    0.9130   11.7340   -2.8880 C   0  0  1  0  0  0  0  0  0  0  0  0
    0.5510   10.3680   -2.6760 O   0  0  0  0  0  0  0  0  0  0  0  0
    0.3060   12.3740   -4.2420 C   0  0  1  0  0  0  0  0  0  0  0  0
    0.8000   13.7110   -4.4760 O   0  0  0  0  0  0  0  0  0  0  0  0
    0.1450   11.6420   -5.5870 N   0  0  0  0  0  0  0  0  0  0  0  0
    1.1260   11.6940   -6.7340 N   0  0  0  0  0  0  0  0  0  0  0  0
   -0.6470   10.4240   -5.6690 C   0  0  2  0  0  0  0  0  0  0  0  0
   -0.2520   14.3780   -5.1540 C   0  0  2  0  0  0  0  0  0  0  0  0
    0.3190   11.0220   -7.8110 C   0  0  2  0  0  0  0  0  0  0  0  0
   -0.3200    9.8630   -7.0530 C   0  0  2  0  0  0  0  0  0  0  0  0
   -2.1390   10.7180   -5.6190 C   0  0  0  0  0  0  0  0  0  0  0  0
   -0.3580   15.8310   -4.6840 C   0  0  2  0  0  0  0  0  0  0  0  0
   -1.5560   13.6710   -4.8410 C   0  0  0  0  0  0  0  0  0  0  0  0
    0.9290   10.4330   -9.1030 C   0  0  0  0  0  0  0  0  0  0  0  0
   -1.5150    9.2430   -7.7840 C   0  0  0  0  0  0  0  0  0  0  0  0
   -2.9290    9.4180   -5.7070 C   0  0  0  0  0  0  0  0  0  0  0  0
   -1.7040   16.5140   -5.0920 C   0  0  2  0  0  0  0  0  0  0  0  0
   -2.6750   14.1540   -5.7220 C   0  0  0  0  0  0  0  0  0  0  0  0
    0.9000   16.6260   -5.0640 C   0  0  0  0  0  0  0  0  0  0  0  0
    1.6190    9.2880   -8.8770 F   0  0  0  0  0  0  0  0  0  0  0  0
   -0.0460   10.0870   -9.9700 F   0  0  0  0  0  0  0  0  0  0  0  0
    1.6950   11.2590   -9.8270 F   0  0  0  0  0  0  0  0  0  0  0  0
   -2.4200    8.4990   -6.8100 C   0  0  0  0  0  0  0  0  0  0  0  0
   -2.8670   15.6630   -5.6520 C   0  0  0  0  0  0  0  0  0  0  0  0
   -1.4800   17.7310   -5.9790 C   0  0  0  0  0  0  0  0  0  0  0  0
    0.7850   18.1480   -4.9880 C   0  0  0  0  0  0  0  0  0  0  0  0
   -0.5960   18.7200   -5.2980 C   0  0  0  0  0  0  0  0  0  0  0  0
  2  1  1  1
  2  3  1  0
  2  4  1  0
  4  5  1  6
  4  6  1  0
  6  7  1  0
  6  8  1  0
  9  5  1  1
  7 10  1  0
  8 11  1  0
 10 11  1  0
  8 12  1  6
  9 13  1  0
  9 14  1  0
 10 15  1  6
 11 16  1  6
 12 17  1  0
 13 18  1  0
 14 19  1  0
 13 20  1  6
 15 21  1  0
 15 22  1  0
 15 23  1  0
 16 24  1  0
 17 24  1  0
 18 25  1  6
 19 25  1  0
 18 26  1  0
 20 27  1  0
 26 28  1  0
 27 28  1  0
M  CHG  1   1  -1
M  END
