ucsf442-ucsf274
     RDKit          3D

 29 32  0  0  0  0  0  0  0  0999 V2000
   -0.4400   15.6610    0.5570 O   0  0  0  0  0  0  0  0  0  0  0  0
   -1.3150   14.5720    0.4840 C   0  0  2  0  0  0  0  0  0  0  0  0
   -1.8150   14.5200   -0.8900 N   0  0  0  0  0  0  0  0  0  0  0  0
   -2.3900   14.7890    1.4210 N   0  0  0  0  0  0  0  0  0  0  0  0
   -3.6470   14.5730    0.7890 C   0  0  2  0  0  0  0  0  0  0  0  0
   -2.7640   15.5950   -1.2310 C   0  0  1  0  0  0  0  0  0  0  0  0
   -3.1760   15.5240   -2.5960 O   0  0  0  0  0  0  0  0  0  0  0  0
   -3.9480   15.5930   -0.2390 C   0  0  1  0  0  0  0  0  0  0  0  0
   -4.8040   14.7050    1.5950 N   0  0  0  0  0  0  0  0  0  0  0  0
   -2.3020   14.7820   -3.4470 C   0  0  0  0  0  0  0  0  0  0  0  0
   -5.3110   15.1900   -0.6480 N   0  0  0  0  0  0  0  0  0  0  0  0
   -5.8640   14.6190    0.6040 C   0  0  0  0  0  0  0  0  0  0  0  0
   -2.7450   13.3170   -3.5160 C   0  0  0  0  0  0  0  0  0  0  0  0
   -2.3160   12.7400   -4.7530 O   0  0  0  0  0  0  0  0  0  0  0  0
   -1.6440   11.4900   -4.6220 C   0  0  2  0  0  0  0  0  0  0  0  0
   -0.2020   11.5130   -5.2770 C   0  0  2  0  0  0  0  0  0  0  0  0
   -2.5010   10.4310   -5.1970 N   0  0  0  0  0  0  0  0  0  0  0  0
    0.6260   12.7440   -4.8830 C   0  0  0  0  0  0  0  0  0  0  0  0
   -1.6950    9.5210   -6.0260 C   0  0  2  0  0  0  0  0  0  0  0  0
   -0.1450   11.3540   -6.7590 N   0  0  0  0  0  0  0  0  0  0  0  0
    0.4370   13.0690   -3.3940 C   0  0  0  0  0  0  0  0  0  0  0  0
   -0.9480   10.2030   -7.1930 C   0  0  1  0  0  0  0  0  0  0  0  0
   -2.5930    8.3740   -6.5230 C   0  0  0  0  0  0  0  0  0  0  0  0
    1.0290   12.0600   -2.3850 C   0  0  2  0  0  0  0  0  0  0  0  0
   -0.0540    9.2190   -7.9610 C   0  0  0  0  0  0  0  0  0  0  0  0
   -2.1730    7.8150   -7.8800 C   0  0  0  0  0  0  0  0  0  0  0  0
    0.4790   10.8430   -2.3980 O   0  0  0  0  0  0  0  0  0  0  0  0
    0.6080   12.5310   -1.1280 O   0  0  0  0  0  0  0  0  0  0  0  0
   -0.6640    7.8160   -8.0810 C   0  0  0  0  0  0  0  0  0  0  0  0
  2  1  1  6
  2  3  1  0
  2  4  1  0
  5  4  1  1
  3  6  1  0
  6  7  1  6
  5  8  1  0
  6  8  1  0
  5  9  1  0
  7 10  1  0
  8 11  1  6
  9 12  1  0
 11 12  1  0
 10 13  1  0
 13 14  1  0
 15 14  1  6
 15 16  1  0
 15 17  1  0
 16 18  1  6
 17 19  1  0
 16 20  1  0
 18 21  1  0
 19 22  1  0
 20 22  1  0
 19 23  1  6
 21 24  1  0
 22 25  1  1
 23 26  1  0
 24 27  1  6
 24 28  1  0
 25 29  1  0
 26 29  1  0
M  CHG  1  27  -1
M  END
