ucsf516-ucsf030
     RDKit          3D

 25 29  0  0  0  0  0  0  0  0999 V2000
   -3.6240   13.4470   -1.5580 Cl  0  0  0  0  0  0  0  0  0  0  0  0
   -2.8010   14.7970   -0.6650 C   0  0  1  0  0  0  0  0  0  0  0  0
   -2.8160   14.6180    0.8310 C   0  0  2  0  0  0  0  0  0  0  0  0
   -1.3190   15.0300   -1.1500 C   0  0  1  0  0  0  0  0  0  0  0  0
   -3.9090   15.8000   -0.4920 C   0  0  0  0  0  0  0  0  0  0  0  0
   -3.2340   15.7840    1.4900 N   0  0  0  0  0  0  0  0  0  0  0  0
   -0.8450   15.5600   -2.4320 N   0  0  0  0  0  0  0  0  0  0  0  0
   -0.4120   15.4070   -0.0750 N   0  0  0  0  0  0  0  0  0  0  0  0
   -1.6760   14.1990    1.5730 N   0  0  0  0  0  0  0  0  0  0  0  0
   -4.0480   13.9540    1.0380 N   0  0  0  0  0  0  0  0  0  0  0  0
   -4.8900   14.9790    0.3740 C   0  0  0  0  0  0  0  0  0  0  0  0
    0.3390   14.9830   -3.0680 C   0  0  1  0  0  0  0  0  0  0  0  0
   -1.9290   15.6840   -3.4060 C   0  0  0  0  0  0  0  0  0  0  0  0
   -0.3640   14.4660    1.0100 C   0  0  0  0  0  0  0  0  0  0  0  0
    0.3980   13.4650   -2.8060 C   0  0  2  0  0  0  0  0  0  0  0  0
    0.1980   15.3730   -4.5420 C   0  0  0  0  0  0  0  0  0  0  0  0
   -1.2770   15.6710   -4.7790 C   0  0  0  0  0  0  0  0  0  0  0  0
    1.6190   12.6200   -3.2910 C   0  0  0  0  0  0  0  0  0  0  0  0
   -0.4490   12.3760   -3.5400 C   0  0  0  0  0  0  0  0  0  0  0  0
    0.6590   11.4150   -3.1570 C   0  0  0  0  0  0  0  0  0  0  0  0
   -1.8090   11.9420   -3.0320 C   0  0  0  0  0  0  0  0  0  0  0  0
   -0.3910   12.6460   -5.0690 C   0  0  0  0  0  0  0  0  0  0  0  0
   -2.9090   12.5450   -3.8820 C   0  0  0  0  0  0  0  0  0  0  0  0
   -1.3540   13.7540   -5.4620 C   0  0  0  0  0  0  0  0  0  0  0  0
   -2.4830   13.8940   -4.4400 C   0  0  0  0  0  0  0  0  0  0  0  0
  2  1  1  6
  2  3  1  0
  2  4  1  0
  2  5  1  0
  3  6  1  1
  4  7  1  6
  4  8  1  0
  3  9  1  0
  3 10  1  0
  5 11  1  0
 10 11  1  0
  7 12  1  0
  7 13  1  0
  8 14  1  0
  9 14  1  0
 12 15  1  0
 12 16  1  6
 13 17  1  0
 16 17  1  0
 15 18  1  6
 15 19  1  0
 18 20  1  0
 19 20  1  0
 19 21  1  0
 19 22  1  0
 21 23  1  0
 22 24  1  0
 23 25  1  0
 24 25  1  0
M  END
