ucsf248-ucsf241
     RDKit          3D

 18 20  0  0  0  0  0  0  0  0999 V2000
   -8.6710   12.7470    2.7530 N   0  0  0  0  0  0  0  0  0  0  0  0
   -8.4430   14.2750    2.1730 S   0  0  0  0  0  0  0  0  0  0  0  0
   -8.4720   15.3580    3.3460 O   0  0  0  0  0  0  0  0  0  0  0  0
   -9.6110   14.6730    1.1490 O   0  0  0  0  0  0  0  0  0  0  0  0
   -6.9030   14.6010    1.3020 C   0  0  1  0  0  0  0  0  0  0  0  0
   -5.9440   13.5000    1.3080 N   0  0  0  0  0  0  0  0  0  0  0  0
   -7.0300   14.9730   -0.1120 N   0  0  0  0  0  0  0  0  0  0  0  0
   -5.1330   13.7480    0.1040 C   0  0  1  0  0  0  0  0  0  0  0  0
   -5.6050   15.0830   -0.3680 C   0  0  1  0  0  0  0  0  0  0  0  0
   -3.6240   13.7020    0.1830 C   0  0  0  0  0  0  0  0  0  0  0  0
   -5.1960   15.2630   -1.8050 C   0  0  0  0  0  0  0  0  0  0  0  0
   -2.8300   14.7430   -0.6610 C   0  0  2  0  0  0  0  0  0  0  0  0
   -3.6560   15.3250   -1.8840 C   0  0  0  0  0  0  0  0  0  0  0  0
   -1.5300   14.0580   -1.1980 C   0  0  0  0  0  0  0  0  0  0  0  0
   -2.2940   15.7810    0.3270 C   0  0  0  0  0  0  0  0  0  0  0  0
   -0.2270   14.5880   -0.5750 C   0  0  0  0  0  0  0  0  0  0  0  0
   -1.5580   15.1260    1.4080 N   0  0  0  0  0  0  0  0  0  0  0  0
   -0.2770   14.6170    0.9440 C   0  0  0  0  0  0  0  0  0  0  0  0
  1  2  1  0
  2  3  1  0
  2  4  1  0
  5  2  1  6
  5  6  1  0
  5  7  1  0
  6  8  1  0
  7  9  1  0
  8  9  1  0
  8 10  1  1
  9 11  1  6
 12 10  1  1
 11 13  1  0
 12 13  1  0
 12 14  1  0
 12 15  1  0
 14 16  1  0
 15 17  1  0
 16 18  1  0
 17 18  1  0
M  END
