ucsf523-ucsf365
     RDKit          3D

 25 27  0  0  0  0  0  0  0  0999 V2000
    0.1540   14.1660    2.0500 N   0  0  0  0  0  0  0  0  0  0  0  0
   -0.7690   14.1310    0.9890 C   0  0  1  0  0  0  0  0  0  0  0  0
   -1.9840   14.3750    1.6280 N   0  0  0  0  0  0  0  0  0  0  0  0
   -0.4490   15.2210    0.1950 N   0  0  0  0  0  0  0  0  0  0  0  0
   -1.4630   15.4690   -0.8170 C   0  0  1  0  0  0  0  0  0  0  0  0
   -3.1020   14.2170    0.7590 C   0  0  2  0  0  0  0  0  0  0  0  0
   -0.7620   15.1410   -1.9870 O   0  0  0  0  0  0  0  0  0  0  0  0
   -2.8200   14.6540   -0.7180 C   0  0  1  0  0  0  0  0  0  0  0  0
   -4.1510   14.9240    1.4330 N   0  0  0  0  0  0  0  0  0  0  0  0
   -1.2420   15.7040   -3.1690 C   0  0  0  0  0  0  0  0  0  0  0  0
   -5.3200   14.6050    0.6960 C   0  0  1  0  0  0  0  0  0  0  0  0
   -3.9710   15.4030   -1.3730 N   0  0  0  0  0  0  0  0  0  0  0  0
   -6.3730   14.9500    1.5630 O   0  0  0  0  0  0  0  0  0  0  0  0
   -5.2910   15.3380   -0.6710 C   0  0  0  0  0  0  0  0  0  0  0  0
   -1.9100   14.6550   -4.0220 C   0  0  2  0  0  0  0  0  0  0  0  0
   -1.3350   13.2120   -3.9330 C   0  0  2  0  0  0  0  0  0  0  0  0
   -1.9870   15.1240   -5.4210 C   0  0  0  0  0  0  0  0  0  0  0  0
    0.2140   12.9990   -3.9110 C   0  0  0  0  0  0  0  0  0  0  0  0
   -2.0300   12.2400   -4.9310 C   0  0  2  0  0  0  0  0  0  0  0  0
   -3.0250   14.2810   -6.1320 C   0  0  0  0  0  0  0  0  0  0  0  0
    0.6950   12.3970   -2.5750 C   0  0  1  0  0  0  0  0  0  0  0  0
   -1.1980   11.1320   -5.2490 O   0  0  0  0  0  0  0  0  0  0  0  0
   -2.5490   12.8480   -6.2380 C   0  0  0  0  0  0  0  0  0  0  0  0
    0.4680   11.0880   -2.4560 O   0  0  0  0  0  0  0  0  0  0  0  0
    2.0860   12.4910   -2.5300 O   0  0  0  0  0  0  0  0  0  0  0  0
  2  1  1  1
  2  3  1  0
  2  4  1  0
  4  5  1  0
  6  3  1  1
  5  7  1  6
  5  8  1  0
  6  8  1  0
  6  9  1  0
  7 10  1  0
  9 11  1  0
  8 12  1  1
 11 13  1  1
 11 14  1  0
 12 14  1  0
 15 10  1  1
 15 16  1  0
 15 17  1  0
 16 18  1  6
 16 19  1  0
 17 20  1  0
 18 21  1  0
 19 22  1  6
 19 23  1  0
 20 23  1  0
 21 24  1  6
 21 25  1  0
M  CHG  1  24  -1
M  END
