ucsf123-ucsf004
     RDKit          3D

 22 24  0  0  0  0  0  0  0  0999 V2000
   -1.5470   18.6680   -4.5200 N   0  0  0  0  0  0  0  0  0  0  0  0
   -1.4510   17.1380   -5.8340 S   0  0  0  0  0  0  0  0  0  0  0  0
   -0.0380   17.7370   -6.4440 O   0  0  0  0  0  0  0  0  0  0  0  0
   -2.5520   17.4140   -6.5740 O   0  0  0  0  0  0  0  0  0  0  0  0
   -1.0350   15.8470   -4.9600 C   0  0  1  0  0  0  0  0  0  0  0  0
   -0.0540   15.8030   -3.7880 C   0  0  0  0  0  0  0  0  0  0  0  0
   -2.1130   14.9070   -4.5210 C   0  0  0  0  0  0  0  0  0  0  0  0
   -0.1440   14.3690   -3.5580 C   0  0  0  0  0  0  0  0  0  0  0  0
   -2.0300   13.6030   -3.8270 C   0  0  1  0  0  0  0  0  0  0  0  0
   -1.5360   12.5030   -4.5590 F   0  0  0  0  0  0  0  0  0  0  0  0
   -0.9250   13.7100   -2.1650 S   0  0  0  0  0  0  0  0  0  0  0  0
    0.4990   12.4700   -1.7910 C   0  0  2  0  0  0  0  0  0  0  0  0
   -0.9280   14.2950   -0.7650 N   0  0  0  0  0  0  0  0  0  0  0  0
   -2.3920   14.4330   -0.9300 C   0  0  1  0  0  0  0  0  0  0  0  0
    1.6510   12.6610   -2.5610 O   0  0  0  0  0  0  0  0  0  0  0  0
    0.1190   11.1520   -2.0100 O   0  0  0  0  0  0  0  0  0  0  0  0
   -0.0970   14.5060    0.2490 C   0  0  0  0  0  0  0  0  0  0  0  0
   -2.1150   14.5580    0.5820 C   0  0  1  0  0  0  0  0  0  0  0  0
   -3.3440   15.2420   -1.4920 C   0  0  0  0  0  0  0  0  0  0  0  0
   -0.9410   15.3250    0.9850 N   0  0  0  0  0  0  0  0  0  0  0  0
   -3.2920   15.3370    0.9070 N   0  0  0  0  0  0  0  0  0  0  0  0
   -4.1640   15.4020   -0.1670 C   0  0  0  0  0  0  0  0  0  0  0  0
  1  2  1  0
  2  3  1  0
  2  4  1  0
  5  2  1  1
  5  6  1  0
  5  7  1  0
  6  8  1  0
  7  9  1  0
  9 10  1  6
  8 11  1  0
  9 11  1  0
 11 12  1  0
 11 13  1  0
 11 14  1  0
 12 15  1  6
 12 16  1  0
 13 17  1  0
 14 18  1  0
 14 19  1  6
 17 20  1  0
 18 20  1  6
 18 21  1  0
 19 22  1  0
 21 22  1  0
M  CHG  1  16  -1
M  END
