ucsf017-ucsf380
     RDKit          3D

 22 26  0  0  0  0  0  0  0  0999 V2000
   -0.4040   16.5430   -1.1050 O   0  0  0  0  0  0  0  0  0  0  0  0
   -0.5480   16.2620   -2.3640 C   0  0  1  0  0  0  0  0  0  0  0  0
    0.6810   15.5780   -2.5910 O   0  0  0  0  0  0  0  0  0  0  0  0
   -1.6620   15.2300   -2.6800 C   0  0  0  0  0  0  0  0  0  0  0  0
   -1.4590   14.6260   -4.0310 C   0  0  2  0  0  0  0  0  0  0  0  0
   -2.8310   14.7840   -1.7660 C   0  0  1  0  0  0  0  0  0  0  0  0
   -2.5340   14.1130   -4.8580 O   0  0  0  0  0  0  0  0  0  0  0  0
   -0.5700   13.4500   -3.6740 C   0  0  2  0  0  0  0  0  0  0  0  0
   -2.1870   13.7520   -0.8430 C   0  0  2  0  0  0  0  0  0  0  0  0
   -3.4170   15.8160   -0.8020 C   0  0  0  0  0  0  0  0  0  0  0  0
   -1.9710   12.9390   -5.4620 C   0  0  0  0  0  0  0  0  0  0  0  0
   -1.3680   12.2980   -4.2470 C   0  0  1  0  0  0  0  0  0  0  0  0
   -0.0640   13.1500   -2.3040 N   0  0  0  0  0  0  0  0  0  0  0  0
   -2.5710   14.2140    0.5600 C   0  0  2  0  0  0  0  0  0  0  0  0
   -0.6470   13.7760   -1.0370 C   0  0  2  0  0  0  0  0  0  0  0  0
   -3.6470   15.1540    0.4840 N   0  0  0  0  0  0  0  0  0  0  0  0
   -0.5100   11.0580   -4.3390 C   0  0  0  0  0  0  0  0  0  0  0  0
    0.6850   11.8910   -2.2770 C   0  0  0  0  0  0  0  0  0  0  0  0
    0.0840   13.4520    0.2000 N   0  0  0  0  0  0  0  0  0  0  0  0
   -1.5200   14.9180    1.2390 N   0  0  0  0  0  0  0  0  0  0  0  0
   -0.0690   10.7220   -2.9140 C   0  0  0  0  0  0  0  0  0  0  0  0
   -0.3430   14.1030    1.4320 C   0  0  0  0  0  0  0  0  0  0  0  0
  2  1  1  1
  2  3  1  0
  2  4  1  0
  4  5  1  0
  4  6  1  0
  5  7  1  1
  5  8  1  0
  9  6  1  6
  6 10  1  1
  7 11  1  0
  8 12  1  0
 12 11  1  6
  8 13  1  1
  9 14  1  0
  9 15  1  0
 13 15  1  0
 10 16  1  0
 14 16  1  6
 12 17  1  0
 13 18  1  0
 15 19  1  1
 14 20  1  0
 17 21  1  0
 18 21  1  0
 19 22  1  0
 20 22  1  0
M  CHG  1   1  -1
M  END
