ucsf378-ucsf367
     RDKit          3D

 19 20  0  0  0  0  0  0  0  0999 V2000
   -2.4440   13.7690   -4.2050 Cl  0  0  0  0  0  0  0  0  0  0  0  0
   -0.8760   14.4420   -3.7090 C   0  0  1  0  0  0  0  0  0  0  0  0
    0.3140   13.4570   -3.3380 C   0  0  1  0  0  0  0  0  0  0  0  0
   -0.6310   15.6920   -4.5670 C   0  0  0  0  0  0  0  0  0  0  0  0
    0.4900   11.9450   -3.7290 C   0  0  1  0  0  0  0  0  0  0  0  0
    1.6790   14.1230   -3.5580 C   0  0  1  0  0  0  0  0  0  0  0  0
    0.7380   16.2720   -4.3610 C   0  0  0  0  0  0  0  0  0  0  0  0
    2.9750   12.9430   -3.9050 Cl  0  0  0  0  0  0  0  0  0  0  0  0
    0.0510   10.9540   -2.5650 C   0  0  1  0  0  0  0  0  0  0  0  0
    0.4490   11.6320   -5.1740 O   0  0  0  0  0  0  0  0  0  0  0  0
    1.7190   15.1740   -4.6050 C   0  0  0  0  0  0  0  0  0  0  0  0
   -0.0840   11.6510   -1.4270 O   0  0  0  0  0  0  0  0  0  0  0  0
   -1.2490   10.4520   -2.6890 O   0  0  0  0  0  0  0  0  0  0  0  0
   -0.7020   11.1350   -5.8890 C   0  0  0  0  0  0  0  0  0  0  0  0
   -0.4520    9.6660   -6.2990 C   0  0  0  0  0  0  0  0  0  0  0  0
   -1.9720   11.2710   -5.0700 C   0  0  0  0  0  0  0  0  0  0  0  0
   -1.6230    8.9590   -6.9810 C   0  0  0  0  0  0  0  0  0  0  0  0
   -2.7500    9.9620   -4.9640 C   0  0  0  0  0  0  0  0  0  0  0  0
   -2.9430    9.2480   -6.2980 C   0  0  0  0  0  0  0  0  0  0  0  0
  2  1  1  6
  3  2  1  6
  2  4  1  0
  3  5  1  0
  3  6  1  0
  4  7  1  0
  6  8  1  6
  5  9  1  0
  5 10  1  6
  6 11  1  0
  7 11  1  0
  9 12  1  1
  9 13  1  0
 10 14  1  0
 14 15  1  0
 14 16  1  0
 15 17  1  0
 16 18  1  0
 17 19  1  0
 18 19  1  0
M  CHG  1  12  -1
M  END
