ucsf511-ucsf123
     RDKit          3D

 20 22  0  0  0  0  0  0  0  0999 V2000
    0.4810   13.0880   -0.9040 O   0  0  0  0  0  0  0  0  0  0  0  0
    0.1770   14.0250   -1.9420 C   0  0  1  0  0  0  0  0  0  0  0  0
    0.4450   13.5500   -3.2910 N   0  0  0  0  0  0  0  0  0  0  0  0
   -1.1880   14.6700   -1.8140 C   0  0  1  0  0  0  0  0  0  0  0  0
    0.2570   12.0970   -3.5010 C   0  0  0  0  0  0  0  0  0  0  0  0
   -2.0580   14.5880   -3.0890 C   0  0  2  0  0  0  0  0  0  0  0  0
   -0.0120   14.4690   -4.3940 C   0  0  0  0  0  0  0  0  0  0  0  0
   -2.0130   14.4750   -0.6530 O   0  0  0  0  0  0  0  0  0  0  0  0
    0.2510   11.4840   -2.3190 O   0  0  0  0  0  0  0  0  0  0  0  0
   -1.3170   15.1980   -4.2670 N   0  0  0  0  0  0  0  0  0  0  0  0
   -3.3620   14.5690   -1.1110 C   0  0  2  0  0  0  0  0  0  0  0  0
   -3.3610   15.1890   -2.5010 C   0  0  2  0  0  0  0  0  0  0  0  0
   -1.5870   16.5830   -5.2870 S   0  0  0  0  0  0  0  0  0  0  0  0
   -4.7010   14.8150   -3.1300 C   0  0  0  0  0  0  0  0  0  0  0  0
   -4.2760   15.3280   -0.1740 C   0  0  0  0  0  0  0  0  0  0  0  0
   -1.8190   18.0360   -4.6090 N   0  0  0  0  0  0  0  0  0  0  0  0
   -0.2830   16.9220   -6.1230 O   0  0  0  0  0  0  0  0  0  0  0  0
   -2.7290   16.4530   -6.4010 O   0  0  0  0  0  0  0  0  0  0  0  0
   -5.9130   15.1430   -2.2420 C   0  0  0  0  0  0  0  0  0  0  0  0
   -5.6170   15.6830   -0.8270 C   0  0  0  0  0  0  0  0  0  0  0  0
  2  1  1  1
  2  3  1  0
  2  4  1  0
  3  5  1  0
  4  6  1  0
  3  7  1  0
  4  8  1  1
  5  9  1  0
  6 10  1  6
  7 10  1  0
  8 11  1  0
  6 12  1  0
 11 12  1  0
 10 13  1  0
 12 14  1  6
 11 15  1  1
 13 16  1  0
 13 17  1  0
 13 18  1  0
 14 19  1  0
 15 20  1  0
 19 20  1  0
M  CHG  1   9  -1
M  END
