ucsf357-ucsf278
     RDKit          3D

 22 24  0  0  0  0  0  0  0  0999 V2000
   -6.3780   15.0580   -2.0310 O   0  0  0  0  0  0  0  0  0  0  0  0
   -5.7550   15.4610   -0.9550 C   0  0  1  0  0  0  0  0  0  0  0  0
   -6.5410   14.9250    0.0820 O   0  0  0  0  0  0  0  0  0  0  0  0
   -4.3590   14.8200   -0.9230 C   0  0  1  0  0  0  0  0  0  0  0  0
   -3.6790   15.2050   -2.2280 C   0  0  0  0  0  0  0  0  0  0  0  0
   -3.4750   15.1240    0.3150 C   0  0  0  0  0  0  0  0  0  0  0  0
   -2.3860   14.4780   -2.3780 C   0  0  1  0  0  0  0  0  0  0  0  0
   -2.1080   14.4470    0.2350 C   0  0  0  0  0  0  0  0  0  0  0  0
   -1.7610   14.9970   -3.4820 F   0  0  0  0  0  0  0  0  0  0  0  0
   -1.4620   14.5890   -1.1390 C   0  0  1  0  0  0  0  0  0  0  0  0
   -0.4630   13.6210   -1.3370 O   0  0  0  0  0  0  0  0  0  0  0  0
   -0.0550   14.0180   -2.6160 C   0  0  2  0  0  0  0  0  0  0  0  0
    0.1570   12.8780   -3.5670 C   0  0  1  0  0  0  0  0  0  0  0  0
    1.1220   14.9380   -2.4240 C   0  0  0  0  0  0  0  0  0  0  0  0
   -1.0560   12.0670   -4.0050 C   0  0  0  0  0  0  0  0  0  0  0  0
    0.5610   13.4910   -4.8590 C   0  0  2  0  0  0  0  0  0  0  0  0
    2.2690   14.6650   -3.3770 C   0  0  0  0  0  0  0  0  0  0  0  0
   -0.8470   11.9050   -5.5220 C   0  0  1  0  0  0  0  0  0  0  0  0
    0.5420   12.3450   -5.7630 N   0  0  0  0  0  0  0  0  0  0  0  0
    1.8610   14.2180   -4.7700 C   0  0  0  0  0  0  0  0  0  0  0  0
   -1.1160   10.4830   -6.0240 C   0  0  0  0  0  0  0  0  0  0  0  0
   -2.3890   10.0530   -5.5490 O   0  0  0  0  0  0  0  0  0  0  0  0
  2  1  1  6
  2  3  1  0
  2  4  1  0
  4  5  1  6
  4  6  1  0
  5  7  1  0
  6  8  1  0
  7  9  1  6
  7 10  1  0
  8 10  1  0
 10 11  1  6
 12 11  1  1
 12 13  1  0
 12 14  1  0
 13 15  1  6
 13 16  1  0
 14 17  1  0
 15 18  1  0
 16 19  1  0
 18 19  1  0
 16 20  1  1
 17 20  1  0
 18 21  1  1
 21 22  1  0
M  CHG  1   1  -1
M  END
