ucsf028-ucsf337
     RDKit          3D

 26 29  0  0  0  0  0  0  0  0999 V2000
   -4.1290   14.8170    1.0440 N   0  0  0  0  0  0  0  0  0  0  0  0
   -3.1880   15.7910    0.4860 C   0  0  1  0  0  0  0  0  0  0  0  0
   -1.6970   15.5130    0.6850 C   0  0  2  0  0  0  0  0  0  0  0  0
   -4.9470   14.4560   -0.0750 C   0  0  1  0  0  0  0  0  0  0  0  0
   -3.4580   15.8410   -0.9450 N   0  0  0  0  0  0  0  0  0  0  0  0
   -6.4250   13.9470    0.0290 C   0  0  1  0  0  0  0  0  0  0  0  0
   -4.9620   15.7830   -0.8050 C   0  0  0  0  0  0  0  0  0  0  0  0
   -7.3480   14.5900    1.0580 C   0  0  0  0  0  0  0  0  0  0  0  0
   -2.9590   14.8050   -1.8330 C   0  0  0  0  0  0  0  0  0  0  0  0
   -0.9110   15.3660   -0.6320 C   0  0  2  0  0  0  0  0  0  0  0  0
   -1.4260   14.3010    1.4180 N   0  0  0  0  0  0  0  0  0  0  0  0
   -5.5130   15.6210   -2.1710 C   0  0  0  0  0  0  0  0  0  0  0  0
   -7.0810   13.9800   -1.3090 N   0  0  0  0  0  0  0  0  0  0  0  0
   -1.5170   14.6730   -1.7530 N   0  0  0  0  0  0  0  0  0  0  0  0
    0.2260   14.5680   -0.1940 N   0  0  0  0  0  0  0  0  0  0  0  0
   -0.0280   14.1860    1.1870 C   0  0  0  0  0  0  0  0  0  0  0  0
   -6.1660   14.3140   -2.3900 C   0  0  1  0  0  0  0  0  0  0  0  0
   -0.8480   14.9080   -3.0420 C   0  0  0  0  0  0  0  0  0  0  0  0
   -6.9250   14.3420   -3.6150 N   0  0  0  0  0  0  0  0  0  0  0  0
   -0.2380   13.6260   -3.6640 C   0  0  2  0  0  0  0  0  0  0  0  0
   -1.1080   12.7930   -4.5890 C   0  0  0  0  0  0  0  0  0  0  0  0
    0.1710   12.7240   -2.6260 O   0  0  0  0  0  0  0  0  0  0  0  0
    0.2200   11.3960   -3.2240 N   0  0  0  0  0  0  0  0  0  0  0  0
   -0.9310   11.3620   -4.1130 C   0  0  2  0  0  0  0  0  0  0  0  0
   -0.7300   10.4710   -5.2150 O   0  0  0  0  0  0  0  0  0  0  0  0
   -0.1910   11.0960   -6.3760 C   0  0  0  0  0  0  0  0  0  0  0  0
  2  1  1  1
  2  3  1  0
  4  1  1  1
  2  5  1  0
  4  6  1  0
  4  7  1  0
  6  8  1  1
  5  9  1  0
  3 10  1  0
  3 11  1  1
  7 12  1  0
  6 13  1  0
  9 14  1  0
 10 14  1  0
 10 15  1  1
 11 16  1  0
 15 16  1  0
 12 17  1  0
 13 17  1  0
 14 18  1  0
 17 19  1  6
 20 18  1  1
 20 21  1  0
 20 22  1  0
 22 23  1  0
 21 24  1  0
 23 24  1  0
 24 25  1  6
 25 26  1  0
M  END
