ucsf005-ucsf584
     RDKit          3D

 16 18  0  0  0  0  0  0  0  0999 V2000
   -2.3620   14.1870   -3.2410 C   0  0  0  0  0  0  0  0  0  0  0  0
   -3.0390   14.9430   -2.1770 N   0  0  0  0  0  0  0  0  0  0  0  0
   -4.5500   14.8930   -2.1530 C   0  0  0  0  0  0  0  0  0  0  0  0
   -2.6590   14.7120   -0.8030 C   0  0  1  0  0  0  0  0  0  0  0  0
   -5.1080   14.4130   -0.7120 C   0  0  0  0  0  0  0  0  0  0  0  0
   -3.7760   14.1720    0.0230 C   0  0  2  0  0  0  0  0  0  0  0  0
   -1.3670   14.1550   -0.4370 N   0  0  0  0  0  0  0  0  0  0  0  0
   -3.4080   15.0540    1.1730 C   0  0  1  0  0  0  0  0  0  0  0  0
   -1.0560   14.6450    0.8950 C   0  0  2  0  0  0  0  0  0  0  0  0
   -5.9030   15.3730    0.0670 N   0  0  0  0  0  0  0  0  0  0  0  0
   -6.1570   13.3620   -0.8680 N   0  0  0  0  0  0  0  0  0  0  0  0
   -4.4340   15.2130    2.1520 N   0  0  0  0  0  0  0  0  0  0  0  0
   -0.1400   13.7020    1.4220 N   0  0  0  0  0  0  0  0  0  0  0  0
   -2.2070   14.5290    1.7710 N   0  0  0  0  0  0  0  0  0  0  0  0
   -7.2690   13.5390    0.1040 C   0  0  0  0  0  0  0  0  0  0  0  0
   -6.7420   14.5950    1.0120 C   0  0  0  0  0  0  0  0  0  0  0  0
  1  2  1  0
  2  3  1  0
  2  4  1  0
  3  5  1  0
  4  6  1  0
  6  5  1  6
  4  7  1  6
  6  8  1  0
  7  9  1  0
  5 10  1  0
  5 11  1  0
  8 12  1  1
  9 13  1  1
  8 14  1  0
  9 14  1  0
 11 15  1  0
 10 16  1  0
 15 16  1  0
M  END
