ucsf339-ucsf378
     RDKit          3D

 26 28  0  0  0  0  0  0  0  0999 V2000
    1.3550   14.5280   -2.4180 O   0  0  0  0  0  0  0  0  0  0  0  0
    0.4490   13.9630   -1.6560 C   0  0  2  0  0  0  0  0  0  0  0  0
    0.6510   12.5170   -1.6230 O   0  0  0  0  0  0  0  0  0  0  0  0
   -0.9960   14.2730   -2.1800 C   0  0  1  0  0  0  0  0  0  0  0  0
   -0.1480   11.6650   -2.4600 C   0  0  2  0  0  0  0  0  0  0  0  0
   -2.0020   14.5820   -1.0970 C   0  0  0  0  0  0  0  0  0  0  0  0
   -1.1100   15.4560   -3.1530 C   0  0  0  0  0  0  0  0  0  0  0  0
    0.3390   10.3380   -2.2420 O   0  0  0  0  0  0  0  0  0  0  0  0
   -0.1230   11.8420   -4.0030 C   0  0  0  0  0  0  0  0  0  0  0  0
   -3.4130   14.5120   -1.6820 C   0  0  2  0  0  0  0  0  0  0  0  0
   -2.4570   15.7690   -3.7120 N   0  0  0  0  0  0  0  0  0  0  0  0
   -3.6050   15.1360   -3.0760 C   0  0  0  0  0  0  0  0  0  0  0  0
   -4.5080   14.9870   -0.7240 C   0  0  0  0  0  0  0  0  0  0  0  0
    0.5060   13.0950   -4.6840 C   0  0  0  0  0  0  0  0  0  0  0  0
   -4.0220   15.6110    0.5890 C   0  0  0  0  0  0  0  0  0  0  0  0
   -5.4980   13.8460   -0.5170 C   0  0  0  0  0  0  0  0  0  0  0  0
    1.6830   13.7090   -3.9000 C   0  0  1  0  0  0  0  0  0  0  0  0
   -0.5690   14.1130   -5.1210 C   0  0  1  0  0  0  0  0  0  0  0  0
   -2.2380   13.5990   -4.7080 Cl  0  0  0  0  0  0  0  0  0  0  0  0
    3.1730   12.8260   -4.3970 Cl  0  0  0  0  0  0  0  0  0  0  0  0
   -4.5620   14.9460    1.8460 C   0  0  0  0  0  0  0  0  0  0  0  0
   -6.5860   14.2850    0.4170 C   0  0  0  0  0  0  0  0  0  0  0  0
    2.0060   15.2000   -4.0540 C   0  0  0  0  0  0  0  0  0  0  0  0
   -0.3400   15.5920   -4.7560 C   0  0  0  0  0  0  0  0  0  0  0  0
   -6.0180   14.4560    1.8030 C   0  0  0  0  0  0  0  0  0  0  0  0
    1.0920   16.0340   -4.9150 C   0  0  0  0  0  0  0  0  0  0  0  0
  2  1  1  6
  2  3  1  0
  2  4  1  0
  3  5  1  0
  4  6  1  1
  4  7  1  0
  5  8  1  6
  5  9  1  0
  6 10  1  0
  7 11  1  0
 10 12  1  0
 11 12  1  0
 10 13  1  1
  9 14  1  0
 13 15  1  0
 13 16  1  0
 14 17  1  0
 14 18  1  0
 18 19  1  1
 17 20  1  6
 15 21  1  0
 16 22  1  0
 17 23  1  0
 18 24  1  0
 21 25  1  0
 22 25  1  0
 23 26  1  0
 24 26  1  0
M  CHG  1   1  -1
M  END
