ucsf365-ucsf017
     RDKit          3D

 25 28  0  0  0  0  0  0  0  0999 V2000
   -0.3680   10.5340   -1.8210 O   0  0  0  0  0  0  0  0  0  0  0  0
    0.4100   10.5370   -2.9570 C   0  0  2  0  0  0  0  0  0  0  0  0
    1.3240   11.5790   -2.7360 O   0  0  0  0  0  0  0  0  0  0  0  0
   -0.4120   10.7380   -4.1200 C   0  0  0  0  0  0  0  0  0  0  0  0
   -0.5020   12.6480   -4.2930 S   0  0  0  0  0  0  0  0  0  0  0  0
   -1.9050   12.6570   -5.4510 C   0  0  1  0  0  0  0  0  0  0  0  0
   -0.3370   13.9930   -5.5690 C   0  0  0  0  0  0  0  0  0  0  0  0
    0.2930   13.0280   -2.6720 C   0  0  0  0  0  0  0  0  0  0  0  0
   -1.3570   13.2220   -2.7700 C   0  0  0  0  0  0  0  0  0  0  0  0
   -2.4450   11.3590   -5.5420 O   0  0  0  0  0  0  0  0  0  0  0  0
   -2.9650   13.5170   -5.4060 C   0  0  0  0  0  0  0  0  0  0  0  0
   -1.3810   15.0620   -5.1380 C   0  0  0  0  0  0  0  0  0  0  0  0
    1.2780   13.9630   -2.7270 C   0  0  0  0  0  0  0  0  0  0  0  0
   -0.8190   14.2840   -2.1140 N   0  0  0  0  0  0  0  0  0  0  0  0
   -2.7950   14.9890   -5.5810 C   0  0  0  0  0  0  0  0  0  0  0  0
    0.4100   15.0880   -2.3580 C   0  0  0  0  0  0  0  0  0  0  0  0
   -1.1470   14.4350   -0.8020 C   0  0  2  0  0  0  0  0  0  0  0  0
   -0.1790   13.8230    0.0540 N   0  0  0  0  0  0  0  0  0  0  0  0
   -2.4600   14.0340   -0.2940 C   0  0  1  0  0  0  0  0  0  0  0  0
   -0.1920   14.3580    1.3330 C   0  0  0  0  0  0  0  0  0  0  0  0
   -2.5980   14.5350    1.0820 C   0  0  1  0  0  0  0  0  0  0  0  0
   -3.5250   14.8500   -1.0450 C   0  0  0  0  0  0  0  0  0  0  0  0
   -1.4200   14.9130    1.6760 N   0  0  0  0  0  0  0  0  0  0  0  0
   -3.5320   15.6770    1.0780 N   0  0  0  0  0  0  0  0  0  0  0  0
   -4.4460   15.3790   -0.0030 C   0  0  0  0  0  0  0  0  0  0  0  0
  2  1  1  1
  2  3  1  0
  2  4  1  0
  4  5  1  0
  5  6  1  0
  5  7  1  0
  5  8  1  0
  5  9  1  0
  6 10  1  1
  6 11  1  0
  7 12  1  0
  8 13  1  0
  9 14  1  0
 11 15  1  0
 12 15  1  0
 13 16  1  0
 14 16  1  0
 17 14  1  6
 17 18  1  0
 17 19  1  0
 18 20  1  0
 19 21  1  0
 19 22  1  6
 20 23  1  0
 21 23  1  6
 21 24  1  0
 22 25  1  0
 24 25  1  0
M  CHG  1   1  -1
M  END
