ucsf339-ucsf338
     RDKit          3D

 20 21  0  0  0  0  0  0  0  0999 V2000
    1.9890   14.6830   -2.6820 O   0  0  0  0  0  0  0  0  0  0  0  0
    0.8990   13.9430   -2.6800 C   0  0  1  0  0  0  0  0  0  0  0  0
    0.9450   13.3180   -1.4160 O   0  0  0  0  0  0  0  0  0  0  0  0
   -0.3790   14.8220   -2.7900 C   0  0  2  0  0  0  0  0  0  0  0  0
   -1.2580   14.8280   -1.5210 C   0  0  0  0  0  0  0  0  0  0  0  0
   -1.1950   14.3390   -4.0280 C   0  0  0  0  0  0  0  0  0  0  0  0
   -2.7410   14.7850   -1.8880 C   0  0  2  0  0  0  0  0  0  0  0  0
   -2.4900   14.9930   -4.3250 N   0  0  0  0  0  0  0  0  0  0  0  0
   -3.0230   15.6230   -3.1340 C   0  0  0  0  0  0  0  0  0  0  0  0
   -3.7420   15.1600   -0.7780 C   0  0  2  0  0  0  0  0  0  0  0  0
   -3.2180   15.3280    0.6570 C   0  0  0  0  0  0  0  0  0  0  0  0
   -4.9230   14.2300   -0.9290 C   0  0  2  0  0  0  0  0  0  0  0  0
   -5.2910   14.3390   -2.3100 O   0  0  0  0  0  0  0  0  0  0  0  0
   -4.1510   14.9210    1.7960 C   0  0  0  0  0  0  0  0  0  0  0  0
   -5.9880   14.7510   -0.0110 C   0  0  1  0  0  0  0  0  0  0  0  0
   -7.3750   14.2460   -0.3580 C   0  0  1  0  0  0  0  0  0  0  0  0
   -5.5830   14.4980    1.4480 C   0  0  0  0  0  0  0  0  0  0  0  0
   -8.3510   14.6280    0.6420 N   0  0  0  0  0  0  0  0  0  0  0  0
   -7.7760   14.7640   -1.6130 O   0  0  0  0  0  0  0  0  0  0  0  0
   -9.6020   14.0770    0.1520 O   0  0  0  0  0  0  0  0  0  0  0  0
  2  1  1  1
  2  3  1  0
  2  4  1  0
  4  5  1  1
  4  6  1  0
  7  5  1  1
  6  8  1  0
  7  9  1  0
  8  9  1  0
  7 10  1  0
 10 11  1  1
 10 12  1  0
 12 13  1  6
 11 14  1  0
 12 15  1  0
 15 16  1  0
 14 17  1  0
 15 17  1  1
 16 18  1  0
 16 19  1  6
 18 20  1  0
M  CHG  1   1  -1
M  END
