ucsf519-ucsf138
     RDKit          3D

 25 26  0  0  0  0  0  0  0  0999 V2000
   -0.3690   16.3760   -4.5680 C   0  0  0  0  0  0  0  0  0  0  0  0
   -0.5190   14.9700   -3.9810 C   0  0  2  0  0  0  0  0  0  0  0  0
    0.2330   13.7300   -5.1360 S   0  0  0  0  0  0  0  0  0  0  0  0
   -1.9990   14.6610   -3.5140 C   0  0  2  0  0  0  0  0  0  0  0  0
   -0.0400   12.0980   -4.2620 C   0  0  2  0  0  0  0  0  0  0  0  0
   -2.9140   15.3430   -4.3800 O   0  0  0  0  0  0  0  0  0  0  0  0
   -2.4580   14.7720   -2.1250 N   0  0  0  0  0  0  0  0  0  0  0  0
    0.8890   11.7400   -2.9960 C   0  0  1  0  0  0  0  0  0  0  0  0
    0.1720   11.0910   -5.3410 N   0  0  0  0  0  0  0  0  0  0  0  0
   -3.8380   15.0930   -1.8210 C   0  0  0  0  0  0  0  0  0  0  0  0
   -1.6560   15.3750   -1.1120 C   0  0  2  0  0  0  0  0  0  0  0  0
    0.8320   12.7610   -2.0130 O   0  0  0  0  0  0  0  0  0  0  0  0
    0.4910   10.6620   -2.3010 O   0  0  0  0  0  0  0  0  0  0  0  0
   -0.4100   14.7910   -0.9130 O   0  0  0  0  0  0  0  0  0  0  0  0
    0.4550   11.5390   -6.6820 C   0  0  1  0  0  0  0  0  0  0  0  0
   -3.8330   15.2080   -0.2930 C   0  0  0  0  0  0  0  0  0  0  0  0
   -2.4220   15.2250    0.1020 N   0  0  0  0  0  0  0  0  0  0  0  0
    1.8040   11.8180   -6.9070 O   0  0  0  0  0  0  0  0  0  0  0  0
    0.0030   10.4880   -7.6010 N   0  0  0  0  0  0  0  0  0  0  0  0
    0.8270   10.0910   -8.7710 C   0  0  0  0  0  0  0  0  0  0  0  0
   -0.0450   10.1980  -10.0450 C   0  0  0  0  0  0  0  0  0  0  0  0
    1.4080    8.6630   -8.6800 C   0  0  0  0  0  0  0  0  0  0  0  0
    0.6280    9.6650  -11.3170 C   0  0  0  0  0  0  0  0  0  0  0  0
    2.0940    8.1550   -9.9490 C   0  0  0  0  0  0  0  0  0  0  0  0
    1.1630    8.2490  -11.1450 C   0  0  0  0  0  0  0  0  0  0  0  0
  2  1  1  6
  2  3  1  0
  2  4  1  0
  3  5  1  0
  4  6  1  6
  4  7  1  0
  5  8  1  0
  5  9  1  6
  7 10  1  0
  7 11  1  0
  8 12  1  1
  8 13  1  0
 11 14  1  1
  9 15  1  0
 10 16  1  0
 11 17  1  0
 16 17  1  0
 15 18  1  1
 15 19  1  0
 19 20  1  0
 20 21  1  0
 20 22  1  0
 21 23  1  0
 22 24  1  0
 23 25  1  0
 24 25  1  0
M  CHG  1  13  -1
M  END
