ucsf039-ucsf135
     RDKit          3D

 30 34  0  0  0  0  0  0  0  0999 V2000
   -4.4930   15.2240    0.9090 N   0  0  0  0  0  0  0  0  0  0  0  0
   -3.4580   15.4000   -0.0870 C   0  0  1  0  0  0  0  0  0  0  0  0
   -2.1450   14.6940    0.2030 C   0  0  1  0  0  0  0  0  0  0  0  0
   -4.0030   14.9340   -1.3390 N   0  0  0  0  0  0  0  0  0  0  0  0
   -3.1040   15.2010   -2.4730 C   0  0  0  0  0  0  0  0  0  0  0  0
   -1.2180   15.0160   -0.9590 C   0  0  2  0  0  0  0  0  0  0  0  0
   -1.3540   15.0340    1.3620 N   0  0  0  0  0  0  0  0  0  0  0  0
   -1.7840   14.6270   -2.2450 N   0  0  0  0  0  0  0  0  0  0  0  0
   -0.0160   14.3410   -0.4790 N   0  0  0  0  0  0  0  0  0  0  0  0
   -0.0170   14.6320    0.9640 C   0  0  0  0  0  0  0  0  0  0  0  0
   -0.8480   14.5840   -3.4050 C   0  0  1  0  0  0  0  0  0  0  0  0
   -1.3980   13.6730   -4.5690 C   0  0  0  0  0  0  0  0  0  0  0  0
   -0.4700   16.0370   -3.9110 C   0  0  1  0  0  0  0  0  0  0  0  0
   -1.6520   12.3050   -4.1880 O   0  0  0  0  0  0  0  0  0  0  0  0
    0.9860   16.2460   -4.3430 C   0  0  0  0  0  0  0  0  0  0  0  0
   -1.2910   16.5830   -5.0250 N   0  0  0  0  0  0  0  0  0  0  0  0
   -0.5760   17.6680   -5.7060 C   0  0  2  0  0  0  0  0  0  0  0  0
    0.9160   18.0050   -4.7470 S   0  0  0  0  0  0  0  0  0  0  0  0
   -0.4660   11.2220   -4.2690 S   0  0  2  0  0  0  0  0  0  0  0  0
   -1.4610   18.8900   -5.8760 C   0  0  0  0  0  0  0  0  0  0  0  0
   -0.1910   10.4470   -2.9030 O   0  0  0  0  0  0  0  0  0  0  0  0
    0.8850   11.8430   -4.9840 N   0  0  0  0  0  0  0  0  0  0  0  0
   -0.8790    9.9810   -5.4710 C   0  0  2  0  0  0  0  0  0  0  0  0
    0.8260   11.5750   -6.4190 C   0  0  1  0  0  0  0  0  0  0  0  0
   -0.4480   10.7260   -6.7460 C   0  0  1  0  0  0  0  0  0  0  0  0
   -2.3010    9.4980   -5.6020 C   0  0  0  0  0  0  0  0  0  0  0  0
    0.7830   12.7810   -7.0590 O   0  0  0  0  0  0  0  0  0  0  0  0
   -2.5070    8.8610   -6.9860 C   0  0  0  0  0  0  0  0  0  0  0  0
   -0.2850    9.7690   -7.9290 C   0  0  0  0  0  0  0  0  0  0  0  0
   -1.2140    8.5610   -7.7760 C   0  0  0  0  0  0  0  0  0  0  0  0
  2  1  1  1
  2  3  1  0
  2  4  1  0
  4  5  1  0
  3  6  1  0
  3  7  1  1
  5  8  1  0
  6  8  1  0
  6  9  1  1
  7 10  1  0
  9 10  1  0
  8 11  1  0
 11 12  1  6
 11 13  1  0
 12 14  1  0
 13 15  1  6
 13 16  1  0
 16 17  1  0
 15 18  1  0
 17 18  1  0
 19 14  1  0
 17 20  1  1
 19 21  1  1
 19 22  1  0
 19 23  1  0
 22 24  1  0
 23 25  1  0
 24 25  1  0
 23 26  1  6
 24 27  1  6
 26 28  1  0
 25 29  1  6
 28 30  1  0
 29 30  1  0
M  END
