ucsf403-ucsf487
     RDKit          3D

 26 28  0  0  0  0  0  0  0  0999 V2000
    0.5900    9.5890   -7.8250 Cl  0  0  0  0  0  0  0  0  0  0  0  0
   -0.4630    9.3110   -6.3820 C   0  0  1  0  0  0  0  0  0  0  0  0
   -0.4590   10.5440   -5.3900 C   0  0  1  0  0  0  0  0  0  0  0  0
   -1.8190    8.8040   -6.8540 C   0  0  0  0  0  0  0  0  0  0  0  0
    0.4940   11.5230   -5.8440 O   0  0  0  0  0  0  0  0  0  0  0  0
   -1.8390   11.2250   -5.0480 C   0  0  1  0  0  0  0  0  0  0  0  0
   -2.9270    9.1050   -5.8820 C   0  0  0  0  0  0  0  0  0  0  0  0
   -1.9290   12.7810   -5.1190 C   0  0  0  0  0  0  0  0  0  0  0  0
    0.8480   12.6090   -4.9390 C   0  0  0  0  0  0  0  0  0  0  0  0
   -3.0590   10.6050   -5.7410 C   0  0  0  0  0  0  0  0  0  0  0  0
    1.2880   12.1700   -3.5080 C   0  0  1  0  0  0  0  0  0  0  0  0
   -2.1000   13.5600   -3.7960 C   0  0  0  0  0  0  0  0  0  0  0  0
    0.8450   12.9840   -2.5780 O   0  0  0  0  0  0  0  0  0  0  0  0
    0.6250   10.9800   -3.1170 O   0  0  0  0  0  0  0  0  0  0  0  0
   -3.4080   14.3830   -3.6960 C   0  0  0  0  0  0  0  0  0  0  0  0
   -4.0580   14.3990   -2.2870 C   0  0  2  0  0  0  0  0  0  0  0  0
   -5.5460   14.7940   -2.2680 C   0  0  0  0  0  0  0  0  0  0  0  0
   -3.2960   15.3040   -1.3380 C   0  0  0  0  0  0  0  0  0  0  0  0
   -6.0590   15.1540   -0.8580 C   0  0  2  0  0  0  0  0  0  0  0  0
   -3.7440   15.1440    0.1140 C   0  0  0  0  0  0  0  0  0  0  0  0
   -5.1420   14.5250    0.2000 C   0  0  1  0  0  0  0  0  0  0  0  0
   -7.4830   14.8240   -0.7410 N   0  0  0  0  0  0  0  0  0  0  0  0
   -5.6930   14.5470    1.6310 C   0  0  0  0  0  0  0  0  0  0  0  0
   -7.8440   13.9810    0.3910 C   0  0  0  0  0  0  0  0  0  0  0  0
   -7.2310   14.4740    1.7110 C   0  0  1  0  0  0  0  0  0  0  0  0
   -7.6540   13.6890    2.8690 N   0  0  0  0  0  0  0  0  0  0  0  0
  2  1  1  6
  2  3  1  0
  2  4  1  0
  3  5  1  6
  3  6  1  0
  4  7  1  0
  6  8  1  6
  5  9  1  0
  6 10  1  0
  7 10  1  0
  9 11  1  0
  8 12  1  0
 11 13  1  1
 11 14  1  0
 12 15  1  0
 16 15  1  6
 16 17  1  0
 16 18  1  0
 19 17  1  6
 18 20  1  0
 19 21  1  0
 21 20  1  1
 19 22  1  0
 21 23  1  0
 22 24  1  0
 23 25  1  0
 24 25  1  0
 25 26  1  1
M  CHG  1  13  -1
M  END
