ucsf367-ucsf135
     RDKit          3D

 16 18  0  0  0  0  0  0  0  0999 V2000
    1.7450   11.9100   -3.8900 O   0  0  0  0  0  0  0  0  0  0  0  0
    1.5790   13.2080   -3.3870 C   0  0  2  0  0  0  0  0  0  0  0  0
    0.7980   13.1810   -2.2090 O   0  0  0  0  0  0  0  0  0  0  0  0
    0.6360   11.4900   -4.7500 N   0  0  0  0  0  0  0  0  0  0  0  0
    0.9050   14.0290   -4.4630 C   0  0  0  0  0  0  0  0  0  0  0  0
    0.5540   12.1540   -6.1070 C   0  0  2  0  0  0  0  0  0  0  0  0
   -0.8980   11.3010   -4.0420 S   0  0  1  0  0  0  0  0  0  0  0  0
   -1.4860   12.7140   -3.5570 O   0  0  0  0  0  0  0  0  0  0  0  0
   -1.5220   11.2710   -5.7080 C   0  0  1  0  0  0  0  0  0  0  0  0
   -0.9260   12.5970   -6.2220 C   0  0  0  0  0  0  0  0  0  0  0  0
    0.4290   11.0190   -7.1450 C   0  0  0  0  0  0  0  0  0  0  0  0
   -0.6970   10.2000   -6.4700 C   0  0  2  0  0  0  0  0  0  0  0  0
   -2.9850   11.0370   -5.7520 C   0  0  0  0  0  0  0  0  0  0  0  0
   -1.5680    9.2410   -7.2600 C   0  0  0  0  0  0  0  0  0  0  0  0
   -3.2520    9.5910   -5.3550 C   0  0  0  0  0  0  0  0  0  0  0  0
   -2.5780    8.5970   -6.3040 C   0  0  0  0  0  0  0  0  0  0  0  0
  1  2  1  0
  2  3  1  0
  1  4  1  0
  2  5  1  6
  4  6  1  0
  4  7  1  0
  7  8  1  1
  7  9  1  0
  6 10  1  0
  9 10  1  0
  6 11  1  6
  9 12  1  0
 12 11  1  6
  9 13  1  1
 12 14  1  0
 13 15  1  0
 14 16  1  0
 15 16  1  0
M  END
