ucsf442-ucsf378
     RDKit          3D

 24 26  0  0  0  0  0  0  0  0999 V2000
   -0.3950   13.8000    0.8150 O   0  0  0  0  0  0  0  0  0  0  0  0
   -1.1150   14.9410    0.4330 C   0  0  1  0  0  0  0  0  0  0  0  0
   -1.4300   14.8870   -0.9720 N   0  0  0  0  0  0  0  0  0  0  0  0
   -2.2750   15.1170    1.2510 N   0  0  0  0  0  0  0  0  0  0  0  0
   -3.2650   14.1500    0.9030 C   0  0  2  0  0  0  0  0  0  0  0  0
   -2.7650   14.5490   -1.4950 C   0  0  2  0  0  0  0  0  0  0  0  0
   -3.2690   15.5410   -2.4130 O   0  0  0  0  0  0  0  0  0  0  0  0
   -3.8770   14.2710   -0.4610 C   0  0  2  0  0  0  0  0  0  0  0  0
   -4.4210   14.2550    1.7470 N   0  0  0  0  0  0  0  0  0  0  0  0
   -3.5860   14.9980   -3.6990 C   0  0  0  0  0  0  0  0  0  0  0  0
   -4.9120   15.3180   -0.2900 N   0  0  0  0  0  0  0  0  0  0  0  0
   -5.1120   15.3560    1.1570 C   0  0  0  0  0  0  0  0  0  0  0  0
   -2.4460   14.1830   -4.2870 C   0  0  0  0  0  0  0  0  0  0  0  0
   -1.0410   14.6570   -3.8830 C   0  0  1  0  0  0  0  0  0  0  0  0
    0.1600   13.6830   -3.7410 C   0  0  1  0  0  0  0  0  0  0  0  0
   -0.6240   15.9600   -4.5600 C   0  0  0  0  0  0  0  0  0  0  0  0
   -0.1320   12.1600   -3.6900 C   0  0  0  0  0  0  0  0  0  0  0  0
    1.3320   14.0570   -4.6690 C   0  0  2  0  0  0  0  0  0  0  0  0
    0.6760   16.4260   -3.9820 C   0  0  0  0  0  0  0  0  0  0  0  0
    2.7720   13.0100   -4.3120 Cl  0  0  0  0  0  0  0  0  0  0  0  0
    0.4320   11.4470   -2.4350 C   0  0  1  0  0  0  0  0  0  0  0  0
    1.7470   15.5190   -4.5080 C   0  0  0  0  0  0  0  0  0  0  0  0
   -0.0680   11.9290   -1.3250 O   0  0  0  0  0  0  0  0  0  0  0  0
    0.1180   10.0730   -2.4700 O   0  0  0  0  0  0  0  0  0  0  0  0
  2  1  1  1
  2  3  1  0
  2  4  1  0
  5  4  1  1
  3  6  1  0
  6  7  1  6
  5  8  1  0
  6  8  1  0
  5  9  1  0
  7 10  1  0
  8 11  1  1
  9 12  1  0
 11 12  1  0
 10 13  1  0
 14 13  1  6
 14 15  1  0
 14 16  1  0
 15 17  1  6
 15 18  1  0
 16 19  1  0
 18 20  1  1
 17 21  1  0
 18 22  1  0
 19 22  1  0
 21 23  1  1
 21 24  1  0
M  CHG  1  23  -1
M  END
