ucsf247-ucsf109
     RDKit          3D

 21 23  0  0  0  0  0  0  0  0999 V2000
    0.4460   13.4120   -1.7860 O   0  0  0  0  0  0  0  0  0  0  0  0
    0.2880   13.6750   -3.0700 C   0  0  2  0  0  0  0  0  0  0  0  0
    1.4980   14.3650   -3.3660 O   0  0  0  0  0  0  0  0  0  0  0  0
   -0.9270   14.6280   -3.3230 C   0  0  0  0  0  0  0  0  0  0  0  0
   -1.6640   14.8760   -2.0660 N   0  0  0  0  0  0  0  0  0  0  0  0
   -3.1060   15.0850   -2.0950 C   0  0  1  0  0  0  0  0  0  0  0  0
   -3.5170   15.2060   -3.4470 O   0  0  0  0  0  0  0  0  0  0  0  0
   -4.0040   14.1190   -1.2520 C   0  0  2  0  0  0  0  0  0  0  0  0
   -5.5220   14.0240   -1.4710 C   0  0  1  0  0  0  0  0  0  0  0  0
   -3.5740   14.1650    0.2560 C   0  0  0  0  0  0  0  0  0  0  0  0
   -3.7600   12.7560   -1.9630 C   0  0  0  0  0  0  0  0  0  0  0  0
   -6.4300   14.8420   -0.5610 C   0  0  2  0  0  0  0  0  0  0  0  0
   -4.5530   14.8650    1.2080 C   0  0  0  0  0  0  0  0  0  0  0  0
   -5.6620   13.9090   -2.9790 C   0  0  0  0  0  0  0  0  0  0  0  0
   -4.5690   12.8770   -3.2810 C   0  0  0  0  0  0  0  0  0  0  0  0
   -6.4060   16.2150   -0.8930 O   0  0  0  0  0  0  0  0  0  0  0  0
   -6.0480   14.5290    0.9070 C   0  0  2  0  0  0  0  0  0  0  0  0
   -6.3700   13.0490    1.0350 C   0  0  0  0  0  0  0  0  0  0  0  0
   -6.9610   14.9980    2.0010 N   0  0  0  0  0  0  0  0  0  0  0  0
   -7.8440   13.1070    1.0890 N   0  0  0  0  0  0  0  0  0  0  0  0
   -7.9690   13.9860    2.2220 C   0  0  0  0  0  0  0  0  0  0  0  0
  2  1  1  1
  2  3  1  0
  2  4  1  0
  4  5  1  0
  5  6  1  0
  6  7  1  6
  6  8  1  0
  8  9  1  0
  8 10  1  1
  8 11  1  0
  9 12  1  0
 10 13  1  0
  9 14  1  6
 11 15  1  0
 14 15  1  0
 12 16  1  6
 12 17  1  0
 17 13  1  1
 17 18  1  0
 17 19  1  0
 18 20  1  0
 19 21  1  0
 20 21  1  0
M  CHG  1   1  -1
M  END
