ucsf523-ucsf392
     RDKit          3D

 15 16  0  0  0  0  0  0  0  0999 V2000
   -0.0120   14.4130    1.4750 N   0  0  0  0  0  0  0  0  0  0  0  0
   -1.1220   14.8850    0.7050 C   0  0  2  0  0  0  0  0  0  0  0  0
   -2.3180   14.2860    1.3250 N   0  0  0  0  0  0  0  0  0  0  0  0
   -0.8080   14.4700   -0.6400 N   0  0  0  0  0  0  0  0  0  0  0  0
   -2.8710   15.1170    2.3860 N   0  0  0  0  0  0  0  0  0  0  0  0
   -1.9240   14.1760   -1.5040 C   0  0  2  0  0  0  0  0  0  0  0  0
   -3.5100   14.3920    0.5450 C   0  0  1  0  0  0  0  0  0  0  0  0
   -1.6440   14.8610   -2.7110 O   0  0  0  0  0  0  0  0  0  0  0  0
   -3.3600   14.5650   -0.9760 C   0  0  1  0  0  0  0  0  0  0  0  0
   -4.5090   13.4250    0.9870 N   0  0  0  0  0  0  0  0  0  0  0  0
   -3.6620   15.9940   -1.2310 C   0  0  0  0  0  0  0  0  0  0  0  0
   -5.7930   13.8980    0.5400 C   0  0  1  0  0  0  0  0  0  0  0  0
   -4.5210   13.9680   -1.6630 N   0  0  0  0  0  0  0  0  0  0  0  0
   -6.1400   14.9020    1.4700 O   0  0  0  0  0  0  0  0  0  0  0  0
   -5.7220   14.4330   -0.9230 C   0  0  0  0  0  0  0  0  0  0  0  0
  2  1  1  1
  2  3  1  0
  2  4  1  0
  3  5  1  0
  4  6  1  0
  3  7  1  0
  6  8  1  6
  6  9  1  0
  7  9  1  0
  7 10  1  6
  9 11  1  1
 10 12  1  0
  9 13  1  0
 12 14  1  1
 12 15  1  0
 13 15  1  0
M  END
