ucsf123-ucsf030
     RDKit          3D

 27 28  0  0  0  0  0  0  0  0999 V2000
   -1.9580   19.1010   -5.1520 N   0  0  0  0  0  0  0  0  0  0  0  0
   -1.7200   17.6540   -5.8730 S   0  0  0  0  0  0  0  0  0  0  0  0
   -0.7850   17.8960   -7.1310 O   0  0  0  0  0  0  0  0  0  0  0  0
   -3.0180   17.1500   -6.6140 O   0  0  0  0  0  0  0  0  0  0  0  0
   -1.0930   16.2220   -5.0110 C   0  0  1  0  0  0  0  0  0  0  0  0
    0.4380   16.1360   -5.0040 C   0  0  0  0  0  0  0  0  0  0  0  0
   -1.6720   16.0470   -3.5970 C   0  0  0  0  0  0  0  0  0  0  0  0
    0.9450   15.7190   -3.6300 C   0  0  0  0  0  0  0  0  0  0  0  0
   -1.6480   14.5990   -3.0650 C   0  0  0  0  0  0  0  0  0  0  0  0
   -1.3390   14.3730   -1.5280 C   0  0  2  0  0  0  0  0  0  0  0  0
    0.2740   14.5250   -3.0850 N   0  0  0  0  0  0  0  0  0  0  0  0
   -0.2860   13.1220   -1.3310 C   0  0  1  0  0  0  0  0  0  0  0  0
   -2.7390   14.4470   -0.8270 C   0  0  1  0  0  0  0  0  0  0  0  0
   -0.5580   15.5430   -0.9520 N   0  0  0  0  0  0  0  0  0  0  0  0
    0.1270   13.4210   -4.0370 C   0  0  0  0  0  0  0  0  0  0  0  0
    0.3060   13.1120   -0.0710 O   0  0  0  0  0  0  0  0  0  0  0  0
   -0.7850   11.9090   -1.2480 O   0  0  0  0  0  0  0  0  0  0  0  0
   -3.8080   13.0140   -0.7960 Cl  0  0  0  0  0  0  0  0  0  0  0  0
   -2.6690   15.2130    0.5180 C   0  0  1  0  0  0  0  0  0  0  0  0
   -0.3470   15.5130    0.4970 C   0  0  0  0  0  0  0  0  0  0  0  0
   -0.2790   12.0640   -3.4240 C   0  0  0  0  0  0  0  0  0  0  0  0
   -0.8740   13.7330   -5.1440 C   0  0  0  0  0  0  0  0  0  0  0  0
   -3.7050   15.0510    1.5130 N   0  0  0  0  0  0  0  0  0  0  0  0
   -1.4550   14.9460    1.2230 N   0  0  0  0  0  0  0  0  0  0  0  0
   -0.4010   11.0530   -4.5320 C   0  0  0  0  0  0  0  0  0  0  0  0
   -0.4270   12.9040   -6.2980 C   0  0  0  0  0  0  0  0  0  0  0  0
    0.2180   11.6160   -5.8130 C   0  0  0  0  0  0  0  0  0  0  0  0
  1  2  1  0
  2  3  1  0
  2  4  1  0
  2  5  1  0
  5  6  1  1
  5  7  1  0
  6  8  1  0
  7  9  1  0
 10  9  1  6
  8 11  1  0
 10 12  1  0
 10 13  1  0
 10 14  1  0
 11 15  1  0
 12 16  1  1
 12 17  1  0
 13 18  1  1
 13 19  1  0
 14 20  1  0
 15 21  1  0
 15 22  1  0
 19 23  1  1
 19 24  1  0
 20 24  1  0
 21 25  1  0
 22 26  1  0
 25 27  1  0
 26 27  1  0
M  CHG  1  17  -1
M  END
