ucsf404-ucsf520
     RDKit          3D

 22 25  0  0  0  0  0  0  0  0999 V2000
   -5.5450   14.3740   -2.8080 Cl  0  0  0  0  0  0  0  0  0  0  0  0
   -4.6320   15.3590   -1.6190 C   0  0  1  0  0  0  0  0  0  0  0  0
   -4.9290   15.0710   -0.1050 C   0  0  1  0  0  0  0  0  0  0  0  0
   -3.1030   15.6460   -1.8910 C   0  0  2  0  0  0  0  0  0  0  0  0
   -2.2590   14.8450   -2.9750 C   0  0  0  0  0  0  0  0  0  0  0  0
   -6.2460   14.4520    0.2030 N   0  0  0  0  0  0  0  0  0  0  0  0
   -3.8000   14.4820    0.8040 C   0  0  1  0  0  0  0  0  0  0  0  0
   -2.4910   15.9040   -0.4920 C   0  0  1  0  0  0  0  0  0  0  0  0
   -3.4110   16.4930    0.5030 N   0  0  0  0  0  0  0  0  0  0  0  0
   -6.1340   13.7000    1.4220 C   0  0  1  0  0  0  0  0  0  0  0  0
   -4.4880   12.9920    1.4970 S   0  0  0  0  0  0  0  0  0  0  0  0
   -2.3350   14.6420    0.2720 C   0  0  1  0  0  0  0  0  0  0  0  0
   -1.6040   15.6350   -4.1710 C   0  0  1  0  0  0  0  0  0  0  0  0
   -6.3830   14.6900    2.4320 N   0  0  0  0  0  0  0  0  0  0  0  0
   -1.6740   17.0780   -3.9540 O   0  0  0  0  0  0  0  0  0  0  0  0
   -0.1040   15.3600   -4.3590 C   0  0  0  0  0  0  0  0  0  0  0  0
   -1.3590   14.8170    1.3760 N   0  0  0  0  0  0  0  0  0  0  0  0
   -1.6090   13.6220   -0.6000 C   0  0  0  0  0  0  0  0  0  0  0  0
    0.4000   16.6080   -5.0500 C   0  0  0  0  0  0  0  0  0  0  0  0
   -0.5050   17.6960   -4.5220 C   0  0  0  0  0  0  0  0  0  0  0  0
   -0.2510   14.1690   -0.5710 N   0  0  0  0  0  0  0  0  0  0  0  0
   -0.0600   14.4930    0.8300 C   0  0  0  0  0  0  0  0  0  0  0  0
  2  1  1  6
  2  3  1  0
  2  4  1  0
  4  5  1  1
  3  6  1  6
  3  7  1  0
  4  8  1  0
  8  9  1  1
  6 10  1  0
  7 11  1  6
 10 11  1  0
  7 12  1  0
  8 12  1  0
 13  5  1  1
 10 14  1  1
 13 15  1  0
 13 16  1  0
 12 17  1  0
 12 18  1  6
 16 19  1  0
 15 20  1  0
 19 20  1  0
 18 21  1  0
 17 22  1  0
 21 22  1  0
M  END
