ucsf274-ucsf110
     RDKit          3D

 26 29  0  0  0  0  0  0  0  0999 V2000
    0.6580   11.1400   -2.3230 O   0  0  0  0  0  0  0  0  0  0  0  0
    0.8260   12.4530   -2.3840 C   0  0  2  0  0  0  0  0  0  0  0  0
    0.6930   12.7540   -1.0230 O   0  0  0  0  0  0  0  0  0  0  0  0
   -0.2960   13.2000   -3.2260 C   0  0  2  0  0  0  0  0  0  0  0  0
   -0.0750   13.1470   -4.7760 C   0  0  0  0  0  0  0  0  0  0  0  0
   -0.9920   14.3970   -2.5600 N   0  0  0  0  0  0  0  0  0  0  0  0
   -0.5480   11.7690   -5.2830 C   0  0  1  0  0  0  0  0  0  0  0  0
   -2.4020   14.5770   -3.0230 C   0  0  0  0  0  0  0  0  0  0  0  0
   -1.1100   14.3060   -1.1100 C   0  0  2  0  0  0  0  0  0  0  0  0
   -2.0890   11.5870   -5.1440 C   0  0  2  0  0  0  0  0  0  0  0  0
   -0.0870   11.3700   -6.6440 N   0  0  0  0  0  0  0  0  0  0  0  0
   -3.2640   14.0600   -1.8560 C   0  0  0  0  0  0  0  0  0  0  0  0
   -2.5260   14.7260   -0.7460 C   0  0  1  0  0  0  0  0  0  0  0  0
   -0.1510   15.0790   -0.3790 N   0  0  0  0  0  0  0  0  0  0  0  0
   -2.5740   12.0760   -3.9140 O   0  0  0  0  0  0  0  0  0  0  0  0
   -2.4610   10.1930   -5.2160 N   0  0  0  0  0  0  0  0  0  0  0  0
   -0.9200   10.2830   -7.2710 C   0  0  2  0  0  0  0  0  0  0  0  0
   -2.7480   14.4090    0.7250 C   0  0  2  0  0  0  0  0  0  0  0  0
   -0.2860   14.6370    0.9790 C   0  0  0  0  0  0  0  0  0  0  0  0
   -3.8750   15.1110    1.3150 N   0  0  0  0  0  0  0  0  0  0  0  0
   -2.2250    9.7280   -6.5760 C   0  0  1  0  0  0  0  0  0  0  0  0
    0.0260    9.1130   -7.5940 C   0  0  0  0  0  0  0  0  0  0  0  0
   -1.6230   14.9140    1.5000 N   0  0  0  0  0  0  0  0  0  0  0  0
   -0.6190    8.0690   -8.4970 C   0  0  0  0  0  0  0  0  0  0  0  0
   -2.2710    8.2000   -6.6010 C   0  0  0  0  0  0  0  0  0  0  0  0
   -1.9710    7.6030   -7.9630 C   0  0  0  0  0  0  0  0  0  0  0  0
  2  1  1  1
  2  3  1  0
  2  4  1  0
  4  5  1  6
  4  6  1  0
  7  5  1  6
  6  8  1  0
  6  9  1  0
  7 10  1  0
  7 11  1  0
  8 12  1  0
  9 13  1  0
 13 12  1  6
  9 14  1  1
 10 15  1  1
 10 16  1  0
 11 17  1  0
 13 18  1  0
 14 19  1  0
 18 20  1  1
 16 21  1  0
 17 21  1  0
 17 22  1  1
 18 23  1  0
 19 23  1  0
 22 24  1  0
 21 25  1  1
 24 26  1  0
 25 26  1  0
M  CHG  1   1  -1
M  END
