ucsf264-ucsf404
     RDKit          3D

 31 34  0  0  0  0  0  0  0  0999 V2000
    1.8750   12.3620   -2.6680 O   0  0  0  0  0  0  0  0  0  0  0  0
    0.7300   12.1580   -3.2750 C   0  0  2  0  0  0  0  0  0  0  0  0
    0.5160   10.7740   -3.1190 O   0  0  0  0  0  0  0  0  0  0  0  0
    0.7730   12.5350   -4.8050 C   0  0  0  0  0  0  0  0  0  0  0  0
   -0.3960   12.9020   -2.5760 C   0  0  0  0  0  0  0  0  0  0  0  0
   -1.5700   13.2560   -3.4800 C   0  0  0  0  0  0  0  0  0  0  0  0
    0.4710   11.4320   -5.7700 N   0  0  0  0  0  0  0  0  0  0  0  0
   -2.8400   13.4850   -2.6850 C   0  0  0  0  0  0  0  0  0  0  0  0
    1.2060   11.5770   -7.0320 N   0  0  0  0  0  0  0  0  0  0  0  0
   -0.9450   11.2790   -6.1070 C   0  0  1  0  0  0  0  0  0  0  0  0
    0.3160   11.1490   -8.1350 C   0  0  2  0  0  0  0  0  0  0  0  0
   -0.9270   10.5620   -7.4600 C   0  0  1  0  0  0  0  0  0  0  0  0
   -1.7000   10.4790   -5.0380 C   0  0  0  0  0  0  0  0  0  0  0  0
   -2.8130   14.7370   -1.8010 C   0  0  1  0  0  0  0  0  0  0  0  0
    0.9120   10.3100   -9.2650 C   0  0  0  0  0  0  0  0  0  0  0  0
   -1.0160    9.0310   -7.3540 C   0  0  0  0  0  0  0  0  0  0  0  0
   -2.7900    9.5830   -5.6270 C   0  0  0  0  0  0  0  0  0  0  0  0
   -4.0860   15.5360   -2.0120 C   0  0  0  0  0  0  0  0  0  0  0  0
   -2.5710   14.4470   -0.3270 C   0  0  0  0  0  0  0  0  0  0  0  0
    1.5740    9.2100   -8.8360 F   0  0  0  0  0  0  0  0  0  0  0  0
   -0.0180    9.8830  -10.1380 F   0  0  0  0  0  0  0  0  0  0  0  0
    1.7580   11.0460  -10.0170 F   0  0  0  0  0  0  0  0  0  0  0  0
   -2.2430    8.5370   -6.5980 C   0  0  0  0  0  0  0  0  0  0  0  0
   -3.8440   14.1470    0.4570 C   0  0  2  0  0  0  0  0  0  0  0  0
   -5.2860   14.6790   -1.6950 C   0  0  2  0  0  0  0  0  0  0  0  0
   -6.8190   15.5910   -1.8890 Cl  0  0  0  0  0  0  0  0  0  0  0  0
   -5.2260   14.0600   -0.2900 C   0  0  2  0  0  0  0  0  0  0  0  0
   -4.1860   15.3210    1.7920 S   0  0  0  0  0  0  0  0  0  0  0  0
   -5.7380   14.4640    1.8860 C   0  0  2  0  0  0  0  0  0  0  0  0
   -6.2670   14.6440    0.5890 N   0  0  0  0  0  0  0  0  0  0  0  0
   -6.6610   15.0110    2.8170 N   0  0  0  0  0  0  0  0  0  0  0  0
  2  1  1  1
  2  3  1  0
  2  4  1  0
  2  5  1  0
  5  6  1  0
  4  7  1  0
  6  8  1  0
  7  9  1  0
  7 10  1  0
  9 11  1  0
 10 12  1  0
 11 12  1  0
 10 13  1  1
 14  8  1  6
 11 15  1  1
 12 16  1  1
 13 17  1  0
 14 18  1  0
 14 19  1  0
 15 20  1  0
 15 21  1  0
 15 22  1  0
 16 23  1  0
 17 23  1  0
 24 19  1  6
 18 25  1  0
 25 26  1  1
 24 27  1  0
 25 27  1  0
 24 28  1  0
 28 29  1  0
 27 30  1  1
 29 30  1  0
 29 31  1  1
M  CHG  1   1  -1
M  END
