ucsf348-ucsf241
     RDKit          3D

 16 18  0  0  0  0  0  0  0  0999 V2000
   -6.4550   13.4560    2.3470 N   0  0  0  0  0  0  0  0  0  0  0  0
   -6.2660   14.6590    1.6280 C   0  0  1  0  0  0  0  0  0  0  0  0
   -4.8720   15.0010    1.5150 N   0  0  0  0  0  0  0  0  0  0  0  0
   -6.9440   14.6140    0.3720 N   0  0  0  0  0  0  0  0  0  0  0  0
   -6.2190   15.0980   -0.7670 C   0  0  2  0  0  0  0  0  0  0  0  0
   -4.0610   14.4360    0.4140 C   0  0  1  0  0  0  0  0  0  0  0  0
   -6.9730   14.8570   -1.9470 O   0  0  0  0  0  0  0  0  0  0  0  0
   -4.8310   14.5020   -0.9360 C   0  0  2  0  0  0  0  0  0  0  0  0
   -2.6310   15.1360    0.4660 C   0  0  2  0  0  0  0  0  0  0  0  0
   -1.9410   15.4230   -0.8990 C   0  0  2  0  0  0  0  0  0  0  0  0
   -4.1280   15.2350   -2.0600 C   0  0  0  0  0  0  0  0  0  0  0  0
   -1.7810   14.5030    1.5190 N   0  0  0  0  0  0  0  0  0  0  0  0
   -2.6730   14.8850   -2.1070 C   0  0  0  0  0  0  0  0  0  0  0  0
   -0.4750   15.0680   -1.0120 C   0  0  0  0  0  0  0  0  0  0  0  0
   -0.3550   14.2970    1.2760 C   0  0  0  0  0  0  0  0  0  0  0  0
    0.1810   15.3040    0.3040 C   0  0  0  0  0  0  0  0  0  0  0  0
  2  1  1  6
  2  3  1  0
  2  4  1  0
  4  5  1  0
  6  3  1  1
  5  7  1  6
  5  8  1  0
  6  8  1  0
  6  9  1  0
  9 10  1  0
  8 11  1  6
  9 12  1  1
 10 13  1  6
 11 13  1  0
 10 14  1  0
 12 15  1  0
 14 16  1  0
 15 16  1  0
M  END
