ucsf516-ucsf004
     RDKit          3D

 19 22  0  0  0  0  0  0  0  0999 V2000
   -2.1760   13.0880   -4.9000 F   0  0  0  0  0  0  0  0  0  0  0  0
   -2.0280   14.4440   -4.8680 C   0  0  2  0  0  0  0  0  0  0  0  0
   -0.5740   14.8290   -4.8430 C   0  0  0  0  0  0  0  0  0  0  0  0
   -2.4680   15.0120   -3.5320 C   0  0  0  0  0  0  0  0  0  0  0  0
   -0.1960   14.3960   -3.4240 C   0  0  1  0  0  0  0  0  0  0  0  0
   -1.4300   14.5280   -2.5880 N   0  0  0  0  0  0  0  0  0  0  0  0
    0.1230   12.9180   -3.4990 C   0  0  0  0  0  0  0  0  0  0  0  0
   -1.2540   15.2630   -1.3160 C   0  0  2  0  0  0  0  0  0  0  0  0
    1.4360   12.2670   -3.0220 C   0  0  0  0  0  0  0  0  0  0  0  0
   -0.5790   11.9570   -2.5060 C   0  0  0  0  0  0  0  0  0  0  0  0
   -0.2770   14.4980   -0.5470 N   0  0  0  0  0  0  0  0  0  0  0  0
   -2.5300   15.5450   -0.5340 C   0  0  2  0  0  0  0  0  0  0  0  0
    0.5340   10.9990   -2.8870 C   0  0  0  0  0  0  0  0  0  0  0  0
   -0.1460   14.6660    0.8930 C   0  0  0  0  0  0  0  0  0  0  0  0
   -2.5130   14.8040    0.7580 C   0  0  1  0  0  0  0  0  0  0  0  0
   -3.9140   15.2010   -1.0150 C   0  0  0  0  0  0  0  0  0  0  0  0
   -1.3640   15.0950    1.5320 N   0  0  0  0  0  0  0  0  0  0  0  0
   -3.7060   15.3150    1.3940 N   0  0  0  0  0  0  0  0  0  0  0  0
   -4.6790   15.4130    0.2870 C   0  0  0  0  0  0  0  0  0  0  0  0
  2  1  1  1
  2  3  1  0
  2  4  1  0
  3  5  1  0
  4  6  1  0
  5  6  1  0
  5  7  1  6
  8  6  1  6
  7  9  1  0
  7 10  1  0
  8 11  1  0
  8 12  1  0
  9 13  1  0
 10 13  1  0
 11 14  1  0
 12 15  1  0
 12 16  1  6
 14 17  1  0
 15 17  1  1
 15 18  1  0
 16 19  1  0
 18 19  1  0
M  END
