ucsf380-ucsf337
     RDKit          3D

 19 20  0  0  0  0  0  0  0  0999 V2000
    0.6880   15.0510   -1.3890 O   0  0  0  0  0  0  0  0  0  0  0  0
    0.1210   13.8930   -1.6660 C   0  0  1  0  0  0  0  0  0  0  0  0
    0.0110   13.3030   -0.3800 O   0  0  0  0  0  0  0  0  0  0  0  0
   -1.2840   14.1480   -2.3850 C   0  0  2  0  0  0  0  0  0  0  0  0
   -2.6050   14.4330   -1.5560 C   0  0  1  0  0  0  0  0  0  0  0  0
   -1.5490   13.0880   -3.5090 C   0  0  0  0  0  0  0  0  0  0  0  0
   -2.5830   14.7600   -0.0590 C   0  0  0  0  0  0  0  0  0  0  0  0
   -3.6140   15.2860   -2.3940 C   0  0  0  0  0  0  0  0  0  0  0  0
   -2.4520   11.9280   -3.0400 C   0  0  0  0  0  0  0  0  0  0  0  0
   -0.3380   12.5850   -4.2890 C   0  0  0  0  0  0  0  0  0  0  0  0
   -3.9190   15.4210    0.2600 C   0  0  2  0  0  0  0  0  0  0  0  0
   -5.0420   15.4470   -1.8360 C   0  0  1  0  0  0  0  0  0  0  0  0
   -2.5890   10.8500   -4.1090 C   0  0  0  0  0  0  0  0  0  0  0  0
   -0.7670   11.8590   -5.5570 C   0  0  0  0  0  0  0  0  0  0  0  0
   -6.0160   14.9910   -2.8460 N   0  0  0  0  0  0  0  0  0  0  0  0
   -4.3100   15.4880    2.1470 Br  0  0  0  0  0  0  0  0  0  0  0  0
   -5.0880   14.7760   -0.4890 C   0  0  2  0  0  0  0  0  0  0  0  0
   -2.2160   11.3730   -5.4900 C   0  0  0  0  0  0  0  0  0  0  0  0
   -6.4660   14.8290    0.2270 C   0  0  0  0  0  0  0  0  0  0  0  0
  2  1  1  1
  2  3  1  0
  2  4  1  0
  4  5  1  0
  4  6  1  1
  5  7  1  1
  5  8  1  0
  6  9  1  0
  6 10  1  0
  7 11  1  0
  8 12  1  0
  9 13  1  0
 10 14  1  0
 12 15  1  6
 11 16  1  1
 11 17  1  0
 12 17  1  0
 13 18  1  0
 14 18  1  0
 17 19  1  1
M  CHG  1   1  -1
M  END
